
     RDKit          3D

 23 24  0  0  0  0  0  0  0  0999 V2000
   89.6645   45.5493   70.9146 O   0  0  0  0  0  0  0  0  0  0  0  0
   90.5116   45.3323   71.8146 C   0  0  0  0  0  0  0  0  0  0  0  0
   91.8136   45.9276   71.8069 C   0  0  0  0  0  0  0  0  0  0  0  0
   92.8524   45.6327   72.6390 C   0  0  0  0  0  0  0  0  0  0  0  0
   92.3210   46.7047   70.6063 C   0  0  0  0  0  0  0  0  0  0  0  0
   91.4183   47.2033   69.6476 N   0  0  0  0  0  0  0  0  0  0  0  0
   94.1010   46.1910   72.6088 C   0  0  0  0  0  0  0  0  0  0  0  0
   95.1050   45.8717   73.5642 O   0  0  0  0  0  0  0  0  0  0  0  0
   95.6093   46.7759   74.4791 C   0  0  0  0  0  0  0  0  0  0  0  0
   96.6407   46.4143   75.2688 C   0  0  0  0  0  0  0  0  0  0  0  0
   96.0088   48.0241   73.7308 C   0  0  0  0  0  0  0  0  0  0  0  0
   96.4824   48.9666   74.6965 O   0  0  0  0  0  0  0  0  0  0  0  0
   93.5374   47.2997   70.7607 C   0  0  0  0  0  0  0  0  0  0  0  0
   93.8741   48.3032   69.6545 N   0  0  0  0  0  0  0  0  0  0  0  0
   95.7739   48.3640   72.5269 C   0  0  0  0  0  0  0  0  0  0  0  0
   97.1077   45.3401   75.2656 O   0  0  0  0  0  0  0  0  0  0  0  0
   98.5873   44.9100   74.9352 P   0  0  0  0  0  0  0  0  0  0  0  0
   99.3764   44.6614   76.1371 O   0  0  0  0  0  0  0  0  0  0  0  0
   98.6543   43.6044   74.1468 O   0  0  0  0  0  0  0  0  0  0  0  0
   99.0614   46.1375   74.1427 O   0  0  0  0  0  0  0  0  0  0  0  0
   90.3400   44.3149   72.6773 N   0  0  0  0  0  0  0  0  0  0  0  0
   96.0763   49.4609   71.9421 O   0  0  0  0  0  0  0  0  0  0  0  0
   94.4667   47.1652   71.8284 C   0  0  0  0  0  0  0  0  0  0  0  0
  1  2  2  0
  2  3  1  0
  3  4  2  0
  3  5  1  0
  5  6  1  0
  4  7  1  0
  7  8  1  0
  8  9  1  0
  9 10  1  0
  9 11  1  0
 11 12  1  0
  5 13  2  0
 13 14  1  0
 11 15  2  0
 10 16  1  0
 16 17  1  0
 17 18  1  0
 17 19  1  0
 17 20  2  0
  2 21  1  0
 15 22  1  0
  7 23  2  0
 13 23  1  0
 15 23  1  0
M  END
>  <ID>  (1) 
conformer_0

$$$$
