
     RDKit          3D

 27 30  0  0  0  0  0  0  0  0999 V2000
   90.0995   45.1775   71.7101 N   0  0  0  0  0  0  0  0  0  0  0  0
   90.6011   46.0805   71.0783 C   0  0  0  0  0  0  0  0  0  0  0  0
   91.9159   46.6495   71.2946 C   0  0  0  0  0  0  0  0  0  0  0  0
   92.5118   47.6671   70.4985 C   0  0  0  0  0  0  0  0  0  0  0  0
   93.7401   48.0883   70.7757 C   0  0  0  0  0  0  0  0  0  0  0  0
   94.4115   47.4971   71.9777 C   0  0  0  0  0  0  0  0  0  0  0  0
   92.0586   48.1333   69.2632 N   0  0  0  0  0  0  0  0  0  0  0  0
   90.4829   44.6768   72.8574 C   0  0  0  0  0  0  0  0  0  0  0  0
   91.8253   45.1705   73.3010 C   0  0  0  0  0  0  0  0  0  0  0  0
   92.6008   46.2276   72.4651 C   0  0  0  0  0  0  0  0  0  0  0  0
   93.8250   46.6351   72.7606 C   0  0  0  0  0  0  0  0  0  0  0  0
   94.6472   46.0303   73.7181 N   0  0  0  0  0  0  0  0  0  0  0  0
   95.7448   48.0344   72.2643 C   0  0  0  0  0  0  0  0  0  0  0  0
   95.8471   46.4928   74.1553 C   0  0  0  0  0  0  0  0  0  0  0  0
   92.8666   48.9726   68.7641 N   0  0  0  0  0  0  0  0  0  0  0  0
   96.2325   49.2019   71.6266 O   0  0  0  0  0  0  0  0  0  0  0  0
   96.4672   45.9838   75.2111 C   0  0  0  0  0  0  0  0  0  0  0  0
   96.4178   46.3855   76.2686 O   0  0  0  0  0  0  0  0  0  0  0  0
   97.5410   45.1802   74.8880 O   0  0  0  0  0  0  0  0  0  0  0  0
   98.8116   45.0397   75.4827 C   0  0  0  0  0  0  0  0  0  0  0  0
   99.2555   45.9878   76.3566 C   0  0  0  0  0  0  0  0  0  0  0  0
   99.3501   47.1314   76.0002 C   0  0  0  0  0  0  0  0  0  0  0  0
   99.5902   43.9823   75.0841 O   0  0  0  0  0  0  0  0  0  0  0  0
   99.5420   47.5419   75.0162 O   0  0  0  0  0  0  0  0  0  0  0  0
   93.9156   49.0153   69.6958 N   0  0  0  0  0  0  0  0  0  0  0  0
   99.3912   48.0312   76.9780 O   0  0  0  0  0  0  0  0  0  0  0  0
   96.4212   47.6314   73.3679 C   0  0  0  0  0  0  0  0  0  0  0  0
  1  2  1  0
  2  3  2  0
  3  4  1  0
  4  5  1  0
  5  6  2  0
  4  7  2  0
  1  8  2  0
  8  9  1  0
  3 10  1  0
  9 10  2  0
  6 11  1  0
 10 11  1  0
 11 12  2  0
  6 13  1  0
 12 14  1  0
  7 15  1  0
 13 16  1  0
 14 17  1  0
 17 18  2  0
 17 19  1  0
 19 20  1  0
 20 21  1  0
 21 22  1  0
 20 23  2  0
 22 24  2  0
  5 25  1  0
 15 25  1  0
 22 26  1  0
 13 27  2  0
 14 27  1  0
M  END
>  <ID>  (1) 
conformer_0

$$$$
