
     RDKit          3D

 21 22  0  0  0  0  0  0  0  0999 V2000
   91.6707   44.8222   72.0024 C   0  0  0  0  0  0  0  0  0  0  0  0
   92.3670   45.7219   71.6892 C   0  0  0  0  0  0  0  0  0  0  0  0
   93.7575   45.7765   72.0758 C   0  0  0  0  0  0  0  0  0  0  0  0
   94.1474   47.0286   72.5792 N   0  0  0  0  0  0  0  0  0  0  0  0
   90.2040   44.7943   71.5749 N   0  0  0  0  0  0  0  0  0  0  0  0
   91.8186   43.8169   73.0779 N   0  0  0  0  0  0  0  0  0  0  0  0
   89.8515   45.7694   70.8099 C   0  0  0  0  0  0  0  0  0  0  0  0
   90.6842   46.7536   70.3932 N   0  0  0  0  0  0  0  0  0  0  0  0
   94.9495   47.7561   71.7028 C   0  0  0  0  0  0  0  0  0  0  0  0
   93.9403   47.4368   73.8428 C   0  0  0  0  0  0  0  0  0  0  0  0
   91.9245   46.7414   70.8288 C   0  0  0  0  0  0  0  0  0  0  0  0
   94.5021   48.9889   71.3496 C   0  0  0  0  0  0  0  0  0  0  0  0
   94.9301   47.4792   74.7245 O   0  0  0  0  0  0  0  0  0  0  0  0
   96.3108   48.0356   72.3438 C   0  0  0  0  0  0  0  0  0  0  0  0
   96.1875   48.2205   74.0778 C   0  0  0  0  0  0  0  0  0  0  0  0
   97.3285   48.0397   74.8855 C   0  0  0  0  0  0  0  0  0  0  0  0
   93.8051   49.1069   70.2321 O   0  0  0  0  0  0  0  0  0  0  0  0
   94.8973   50.1701   71.8911 N   0  0  0  0  0  0  0  0  0  0  0  0
   98.4123   47.9830   74.4318 O   0  0  0  0  0  0  0  0  0  0  0  0
   94.3564   51.4889   71.4826 C   0  0  0  0  0  0  0  0  0  0  0  0
   97.0434   47.5278   76.0983 O   0  0  0  0  0  0  0  0  0  0  0  0
  1  2  1  0
  2  3  1  0
  3  4  1  0
  1  5  2  0
  1  6  1  0
  5  7  1  0
  7  8  2  0
  4  9  1  0
  4 10  1  0
  2 11  2  0
  8 11  1  0
  9 12  1  0
 10 13  1  0
  9 14  1  0
 13 15  1  0
 14 15  1  0
 15 16  1  0
 12 17  2  0
 12 18  1  0
 16 19  1  0
 18 20  1  0
 16 21  2  0
M  END
>  <ID>  (1) 
conformer_0

$$$$
