
     RDKit          3D

  5  4  0  0  0  0  0  0  0  0999 V2000
  100.0369   44.2154   74.9941 O   0  0  0  0  0  0  0  0  0  0  0  0
   99.1550   45.1234   75.0802 P   0  0  0  0  0  0  0  0  0  0  0  0
   99.4645   46.3631   74.5755 O   0  0  0  0  0  0  0  0  0  0  0  0
   97.8665   44.5410   74.4178 O   0  0  0  0  0  0  0  0  0  0  0  0
   98.8547   45.2644   76.6471 O   0  0  0  0  0  0  0  0  0  0  0  0
  1  2  2  0
  2  3  1  0
  2  4  1  0
  2  5  1  0
M  END
>  <ID>  (1) 
conformer_0

$$$$
