
     RDKit          3D

 28 29  0  0  0  0  0  0  0  0999 V2000
   92.8737   45.3803   72.0140 C   0  0  0  0  0  0  0  0  0  0  0  0
   93.3942   46.4167   71.6980 C   0  0  0  0  0  0  0  0  0  0  0  0
   94.6901   46.7427   71.8675 N   0  0  0  0  0  0  0  0  0  0  0  0
   95.2272   46.4234   73.1272 C   0  0  0  0  0  0  0  0  0  0  0  0
   91.5141   45.0503   71.9677 C   0  0  0  0  0  0  0  0  0  0  0  0
   92.4134   47.4034   71.3142 C   0  0  0  0  0  0  0  0  0  0  0  0
   96.7510   46.8543   73.1326 O   0  0  0  0  0  0  0  0  0  0  0  0
   90.8861   43.6874   72.2844 F   0  0  0  0  0  0  0  0  0  0  0  0
   94.7912   46.0281   74.1514 O   0  0  0  0  0  0  0  0  0  0  0  0
   93.0057   48.7661   70.8835 C   0  0  0  0  0  0  0  0  0  0  0  0
   97.3266   46.7966   74.3888 C   0  0  0  0  0  0  0  0  0  0  0  0
   93.2413   49.0297   69.8752 O   0  0  0  0  0  0  0  0  0  0  0  0
   97.6380   45.5501   74.8605 C   0  0  0  0  0  0  0  0  0  0  0  0
   97.1584   45.3805   76.2158 O   0  0  0  0  0  0  0  0  0  0  0  0
   97.3719   48.1517   74.8107 C   0  0  0  0  0  0  0  0  0  0  0  0
   93.0984   49.7039   71.8375 N   0  0  0  0  0  0  0  0  0  0  0  0
   93.7030   50.9382   71.6821 C   0  0  0  0  0  0  0  0  0  0  0  0
   90.5966   45.9573   71.4254 C   0  0  0  0  0  0  0  0  0  0  0  0
   96.3896   49.0656   74.9180 C   0  0  0  0  0  0  0  0  0  0  0  0
   99.1646   45.6282   74.7613 C   0  0  0  0  0  0  0  0  0  0  0  0
   99.8902   45.8838   76.0083 C   0  0  0  0  0  0  0  0  0  0  0  0
  100.2321   44.7423   76.6636 O   0  0  0  0  0  0  0  0  0  0  0  0
   99.7521   44.5240   73.9829 O   0  0  0  0  0  0  0  0  0  0  0  0
   91.1040   47.1909   71.1435 C   0  0  0  0  0  0  0  0  0  0  0  0
   96.3386   50.0850   74.0616 C   0  0  0  0  0  0  0  0  0  0  0  0
   95.1407   50.4899   73.3728 C   0  0  0  0  0  0  0  0  0  0  0  0
   95.0404   51.0724   72.1244 C   0  0  0  0  0  0  0  0  0  0  0  0
  100.1512   47.0059   76.4664 O   0  0  0  0  0  0  0  0  0  0  0  0
  1  2  1  0
  2  3  1  0
  3  4  1  0
  1  5  2  0
  2  6  2  0
  4  7  1  0
  5  8  1  0
  4  9  2  0
  6 10  1  0
  7 11  1  0
 10 12  2  0
 11 13  1  0
 13 14  1  0
 11 15  2  0
 10 16  1  0
 16 17  1  0
  5 18  1  0
 15 19  1  0
 13 20  1  0
 20 21  1  0
 21 22  1  0
 20 23  1  0
  6 24  1  0
 18 24  2  0
 19 25  1  0
 25 26  1  0
 17 27  1  0
 26 27  1  0
 21 28  2  0
M  END
>  <ID>  (1) 
conformer_0

$$$$
