
     RDKit          3D

 25 28  0  0  0  0  0  0  0  0999 V2000
   92.8737   45.3803   72.0140 C   0  0  0  0  0  0  0  0  0  0  0  0
   93.3942   46.4167   71.6980 C   0  0  0  0  0  0  0  0  0  0  0  0
   94.6901   46.7427   71.8675 C   0  0  0  0  0  0  0  0  0  0  0  0
   92.4547   47.2943   70.9657 C   0  0  0  0  0  0  0  0  0  0  0  0
   94.9570   47.5712   72.9338 N   0  0  0  0  0  0  0  0  0  0  0  0
   96.1874   47.7516   73.5674 C   0  0  0  0  0  0  0  0  0  0  0  0
   96.1063   48.3679   74.8509 C   0  0  0  0  0  0  0  0  0  0  0  0
   96.5817   47.7612   75.8901 O   0  0  0  0  0  0  0  0  0  0  0  0
   94.8707   48.9935   75.0732 O   0  0  0  0  0  0  0  0  0  0  0  0
   97.1860   48.4288   72.7666 O   0  0  0  0  0  0  0  0  0  0  0  0
   98.0923   49.1595   73.5719 C   0  0  0  0  0  0  0  0  0  0  0  0
   97.2927   46.4620   75.7538 C   0  0  0  0  0  0  0  0  0  0  0  0
   99.0603   48.5192   74.2459 C   0  0  0  0  0  0  0  0  0  0  0  0
   91.2128   47.0469   70.7002 C   0  0  0  0  0  0  0  0  0  0  0  0
   93.5839   44.4266   72.6735 O   0  0  0  0  0  0  0  0  0  0  0  0
   99.4010   48.6785   75.4094 O   0  0  0  0  0  0  0  0  0  0  0  0
   96.6295   45.4703   75.1800 O   0  0  0  0  0  0  0  0  0  0  0  0
   91.4836   45.0122   71.8558 C   0  0  0  0  0  0  0  0  0  0  0  0
   90.8411   43.8309   72.3939 O   0  0  0  0  0  0  0  0  0  0  0  0
   90.6292   45.9454   71.2165 C   0  0  0  0  0  0  0  0  0  0  0  0
   96.9550   49.7034   74.4642 C   0  0  0  0  0  0  0  0  0  0  0  0
   98.7000   46.4252   75.7031 C   0  0  0  0  0  0  0  0  0  0  0  0
   99.2826   45.2735   75.7660 O   0  0  0  0  0  0  0  0  0  0  0  0
   96.1274   50.7950   74.0691 O   0  0  0  0  0  0  0  0  0  0  0  0
   99.2186   47.1865   74.6073 C   0  0  0  0  0  0  0  0  0  0  0  0
  1  2  1  0
  2  3  1  0
  2  4  2  0
  3  5  1  0
  5  6  1  0
  6  7  1  0
  7  8  1  0
  7  9  1  0
  6 10  1  0
 10 11  1  0
  8 12  1  0
 11 13  1  0
  4 14  1  0
  1 15  1  0
 13 16  1  0
 12 17  2  0
  1 18  2  0
 18 19  1  0
 14 20  2  0
 18 20  1  0
  7 21  1  0
 11 21  1  0
 12 22  1  0
 22 23  1  0
 21 24  1  0
 13 25  1  0
 16 25  1  0
 22 25  1  0
M  END
>  <ID>  (1) 
conformer_0

$$$$
