
     RDKit          3D

 24 26  0  0  0  0  0  0  0  0999 V2000
   98.0347   44.4605   75.9696 O   0  0  0  0  0  0  0  0  0  0  0  0
   97.8663   45.7408   75.4377 P   0  0  0  0  0  0  0  0  0  0  0  0
   96.6895   45.7165   74.4570 O   0  0  0  0  0  0  0  0  0  0  0  0
   96.2435   46.8446   73.6494 C   0  0  0  0  0  0  0  0  0  0  0  0
   94.8290   46.7936   73.3651 C   0  0  0  0  0  0  0  0  0  0  0  0
   94.6081   46.4409   72.0334 C   0  0  0  0  0  0  0  0  0  0  0  0
   94.2802   48.0655   73.7523 O   0  0  0  0  0  0  0  0  0  0  0  0
   93.6003   48.6039   72.6418 C   0  0  0  0  0  0  0  0  0  0  0  0
   93.6484   47.4924   71.6372 C   0  0  0  0  0  0  0  0  0  0  0  0
   93.9628   49.9351   72.3497 N   0  0  0  0  0  0  0  0  0  0  0  0
   97.5707   46.8700   76.3655 O   0  0  0  0  0  0  0  0  0  0  0  0
   93.3015   50.8070   71.5060 C   0  0  0  0  0  0  0  0  0  0  0  0
   93.9808   52.0492   71.4165 N   0  0  0  0  0  0  0  0  0  0  0  0
   92.3111   46.9400   71.5054 N   0  0  0  0  0  0  0  0  0  0  0  0
   94.1006   45.1969   71.8866 O   0  0  0  0  0  0  0  0  0  0  0  0
   91.4209   47.2858   70.5722 C   0  0  0  0  0  0  0  0  0  0  0  0
   95.0571   52.2852   72.0339 C   0  0  0  0  0  0  0  0  0  0  0  0
   91.7498   46.0769   72.4799 C   0  0  0  0  0  0  0  0  0  0  0  0
   90.3764   45.9863   72.1892 C   0  0  0  0  0  0  0  0  0  0  0  0
   95.1254   50.3753   73.1577 C   0  0  0  0  0  0  0  0  0  0  0  0
   95.6717   51.5894   72.8971 C   0  0  0  0  0  0  0  0  0  0  0  0
   89.4980   44.9455   72.5471 O   0  0  0  0  0  0  0  0  0  0  0  0
   99.2678   46.0993   74.7923 O   0  0  0  0  0  0  0  0  0  0  0  0
   90.1401   46.6275   70.9438 C   0  0  0  0  0  0  0  0  0  0  0  0
  1  2  2  0
  2  3  1  0
  3  4  1  0
  4  5  1  0
  5  6  1  0
  5  7  1  0
  7  8  1  0
  6  9  1  0
  8  9  1  0
  8 10  1  0
  2 11  1  0
 10 12  1  0
 12 13  2  0
  9 14  1  0
  6 15  1  0
 14 16  1  0
 13 17  1  0
 14 18  1  0
 18 19  1  0
 10 20  1  0
 17 21  2  0
 20 21  1  0
 19 22  1  0
  2 23  1  0
 16 24  1  0
 19 24  2  0
M  END
>  <ID>  (1) 
conformer_0

$$$$
