
     RDKit          3D

  9  9  0  0  0  0  0  0  0  0999 V2000
   89.9391   44.7866   72.3622 N   0  0  0  0  0  0  0  0  0  0  0  0
   90.7895   44.6686   73.3101 C   0  0  0  0  0  0  0  0  0  0  0  0
   90.1990   45.6065   71.3196 C   0  0  0  0  0  0  0  0  0  0  0  0
   91.9352   45.3973   73.4871 C   0  0  0  0  0  0  0  0  0  0  0  0
   92.2282   46.2876   72.4408 C   0  0  0  0  0  0  0  0  0  0  0  0
   91.3287   46.3916   71.3673 C   0  0  0  0  0  0  0  0  0  0  0  0
   93.4695   46.8223   72.3402 C   0  0  0  0  0  0  0  0  0  0  0  0
   94.5658   46.2983   71.9474 O   0  0  0  0  0  0  0  0  0  0  0  0
   93.5920   48.1971   72.6914 O   0  0  0  0  0  0  0  0  0  0  0  0
  1  2  1  0
  1  3  2  0
  2  4  2  0
  4  5  1  0
  3  6  1  0
  5  6  2  0
  5  7  1  0
  7  8  1  0
  7  9  2  0
M  END
>  <ID>  (1) 
conformer_0

$$$$
