
     RDKit          3D

 18 19  0  0  0  0  0  0  0  0999 V2000
   96.4885   46.5154   73.1480 O   0  0  0  0  0  0  0  0  0  0  0  0
   95.3935   46.6356   73.8672 C   0  0  0  0  0  0  0  0  0  0  0  0
   94.3755   47.2004   73.2350 C   0  0  0  0  0  0  0  0  0  0  0  0
   93.2605   46.6010   73.2902 O   0  0  0  0  0  0  0  0  0  0  0  0
   95.8830   47.5110   75.1170 C   0  0  0  0  0  0  0  0  0  0  0  0
   94.3294   48.6420   73.7920 O   0  0  0  0  0  0  0  0  0  0  0  0
   92.3131   46.7590   72.2423 C   0  0  0  0  0  0  0  0  0  0  0  0
   97.8185   46.2705   73.9062 C   0  0  0  0  0  0  0  0  0  0  0  0
   97.3268   47.2056   75.2389 C   0  0  0  0  0  0  0  0  0  0  0  0
   91.1340   45.7417   72.4061 C   0  0  0  0  0  0  0  0  0  0  0  0
   95.7001   48.8260   74.8507 C   0  0  0  0  0  0  0  0  0  0  0  0
   96.3518   49.9057   74.7493 C   0  0  0  0  0  0  0  0  0  0  0  0
   95.7550   51.0474   74.5904 O   0  0  0  0  0  0  0  0  0  0  0  0
   90.1341   45.8333   71.4811 O   0  0  0  0  0  0  0  0  0  0  0  0
   90.9727   45.0306   73.4619 N   0  0  0  0  0  0  0  0  0  0  0  0
   99.0042   46.7216   73.4249 O   0  0  0  0  0  0  0  0  0  0  0  0
   90.2368   43.9486   73.5938 C   0  0  0  0  0  0  0  0  0  0  0  0
   97.6617   46.4153   76.4320 O   0  0  0  0  0  0  0  0  0  0  0  0
  1  2  1  0
  2  3  1  0
  3  4  1  0
  2  5  1  0
  3  6  1  0
  4  7  1  0
  1  8  1  0
  5  9  1  0
  8  9  1  0
  7 10  1  0
  5 11  1  0
  6 11  1  0
 11 12  1  0
 12 13  1  0
 10 14  2  0
 10 15  1  0
  8 16  1  0
 15 17  1  0
  9 18  1  0
M  END
>  <ID>  (1) 
conformer_0

$$$$
