
     RDKit          3D

 24 27  0  0  0  0  0  0  0  0999 V2000
   89.8768   44.8128   72.7718 C   0  0  0  0  0  0  0  0  0  0  0  0
   89.9589   45.4406   71.5413 N   0  0  0  0  0  0  0  0  0  0  0  0
   91.1710   45.9969   71.3985 C   0  0  0  0  0  0  0  0  0  0  0  0
   92.1891   46.1523   72.1875 C   0  0  0  0  0  0  0  0  0  0  0  0
   93.3348   46.8386   71.8998 N   0  0  0  0  0  0  0  0  0  0  0  0
   94.4648   46.9228   72.5809 C   0  0  0  0  0  0  0  0  0  0  0  0
   93.3882   47.1371   70.5078 C   0  0  0  0  0  0  0  0  0  0  0  0
   94.5132   46.8742   73.8572 O   0  0  0  0  0  0  0  0  0  0  0  0
   93.6021   48.5583   70.2655 C   0  0  0  0  0  0  0  0  0  0  0  0
   94.1241   49.2185   71.5017 C   0  0  0  0  0  0  0  0  0  0  0  0
   95.0122   48.3315   72.1032 C   0  0  0  0  0  0  0  0  0  0  0  0
   95.7902   47.1619   74.5060 C   0  0  0  0  0  0  0  0  0  0  0  0
   91.9017   46.7585   70.1102 C   0  0  0  0  0  0  0  0  0  0  0  0
   96.3812   48.2558   73.7950 C   0  0  0  0  0  0  0  0  0  0  0  0
   96.7310   46.0868   74.4661 C   0  0  0  0  0  0  0  0  0  0  0  0
   97.7035   46.0803   75.5335 C   0  0  0  0  0  0  0  0  0  0  0  0
   90.7081   44.8543   73.7286 C   0  0  0  0  0  0  0  0  0  0  0  0
   97.5964   46.8004   76.4750 O   0  0  0  0  0  0  0  0  0  0  0  0
   97.1905   49.0687   74.7810 O   0  0  0  0  0  0  0  0  0  0  0  0
   91.9276   45.5734   73.4911 C   0  0  0  0  0  0  0  0  0  0  0  0
   98.8686   45.2989   75.4363 N   0  0  0  0  0  0  0  0  0  0  0  0
   95.4563   49.2056   73.2616 C   0  0  0  0  0  0  0  0  0  0  0  0
   96.1314   50.3457   72.7336 O   0  0  0  0  0  0  0  0  0  0  0  0
   99.0434   44.3879   74.3685 O   0  0  0  0  0  0  0  0  0  0  0  0
  1  2  1  0
  2  3  2  0
  3  4  1  0
  4  5  1  0
  5  6  1  0
  5  7  1  0
  6  8  1  0
  7  9  1  0
  9 10  1  0
  6 11  1  0
 10 11  1  0
  8 12  1  0
  3 13  1  0
  7 13  1  0
 12 14  1  0
 12 15  1  0
 15 16  1  0
  1 17  2  0
 16 18  2  0
 14 19  1  0
  4 20  2  0
 17 20  1  0
 16 21  1  0
 11 22  1  0
 14 22  1  0
 22 23  1  0
 21 24  1  0
M  END
>  <ID>  (1) 
conformer_0

$$$$
