
     RDKit          3D

 12 13  0  0  0  0  0  0  0  0999 V2000
   89.9391   44.7866   72.3622 N   0  0  0  0  0  0  0  0  0  0  0  0
   90.6630   45.5869   71.5838 C   0  0  0  0  0  0  0  0  0  0  0  0
   91.9661   46.0371   72.0025 C   0  0  0  0  0  0  0  0  0  0  0  0
   90.2657   46.0944   70.3978 C   0  0  0  0  0  0  0  0  0  0  0  0
   90.5098   44.3660   73.6042 C   0  0  0  0  0  0  0  0  0  0  0  0
   92.6450   46.9442   71.1803 N   0  0  0  0  0  0  0  0  0  0  0  0
   92.3650   45.6119   73.2900 C   0  0  0  0  0  0  0  0  0  0  0  0
   89.0189   46.0048   69.9169 O   0  0  0  0  0  0  0  0  0  0  0  0
   91.1620   47.0381   69.5794 N   0  0  0  0  0  0  0  0  0  0  0  0
   93.6767   46.0278   73.6635 O   0  0  0  0  0  0  0  0  0  0  0  0
   92.2920   47.3161   70.0822 C   0  0  0  0  0  0  0  0  0  0  0  0
   91.6794   44.7700   73.9884 C   0  0  0  0  0  0  0  0  0  0  0  0
  1  2  1  0
  2  3  2  0
  2  4  1  0
  1  5  2  0
  3  6  1  0
  3  7  1  0
  4  8  2  0
  4  9  1  0
  7 10  1  0
  6 11  2  0
  9 11  2  0
  5 12  1  0
  7 12  2  0
M  END
>  <ID>  (1) 
conformer_0

$$$$
