
     RDKit          3D

 26 29  0  0  0  0  0  0  0  0999 V2000
   92.8737   45.3803   72.0140 C   0  0  0  0  0  0  0  0  0  0  0  0
   93.3942   46.4167   71.6980 C   0  0  0  0  0  0  0  0  0  0  0  0
   94.6901   46.7427   71.8675 C   0  0  0  0  0  0  0  0  0  0  0  0
   91.4576   44.9277   71.7737 C   0  0  0  0  0  0  0  0  0  0  0  0
   95.0172   47.3378   73.1918 C   0  0  0  0  0  0  0  0  0  0  0  0
   94.9674   48.6677   73.3454 O   0  0  0  0  0  0  0  0  0  0  0  0
   96.2232   46.8112   73.8988 C   0  0  0  0  0  0  0  0  0  0  0  0
   90.7646   45.9665   71.1440 C   0  0  0  0  0  0  0  0  0  0  0  0
   92.4937   47.3657   71.1802 C   0  0  0  0  0  0  0  0  0  0  0  0
   93.0142   48.7600   70.8881 N   0  0  0  0  0  0  0  0  0  0  0  0
   90.7812   43.5588   72.2967 Cl  0  0  0  0  0  0  0  0  0  0  0  0
   92.1743   49.6611   70.8714 C   0  0  0  0  0  0  0  0  0  0  0  0
   91.3668   47.2938   70.9371 C   0  0  0  0  0  0  0  0  0  0  0  0
   90.4477   48.2902   70.5404 C   0  0  0  0  0  0  0  0  0  0  0  0
   92.7912   51.1296   70.6795 C   0  0  0  0  0  0  0  0  0  0  0  0
   93.8964   51.4895   71.6261 C   0  0  0  0  0  0  0  0  0  0  0  0
   90.9700   49.4932   70.3915 C   0  0  0  0  0  0  0  0  0  0  0  0
   96.2612   47.0692   75.2686 C   0  0  0  0  0  0  0  0  0  0  0  0
   95.3072   49.1786   74.5115 C   0  0  0  0  0  0  0  0  0  0  0  0
   97.1407   46.4113   76.0173 O   0  0  0  0  0  0  0  0  0  0  0  0
   94.7855   52.1759   71.2788 O   0  0  0  0  0  0  0  0  0  0  0  0
   96.4497   48.5712   75.2368 C   0  0  0  0  0  0  0  0  0  0  0  0
   97.5317   49.0156   74.5998 O   0  0  0  0  0  0  0  0  0  0  0  0
   94.0203   50.6881   72.7698 O   0  0  0  0  0  0  0  0  0  0  0  0
   96.2487   45.2706   73.7723 O   0  0  0  0  0  0  0  0  0  0  0  0
   95.0865   50.9147   73.7068 C   0  0  0  0  0  0  0  0  0  0  0  0
  1  2  1  0
  2  3  1  0
  1  4  2  0
  3  5  1  0
  5  6  1  0
  5  7  1  0
  4  8  1  0
  2  9  2  0
  9 10  1  0
  4 11  1  0
 10 12  2  0
  8 13  2  0
  9 13  1  0
 13 14  1  0
 12 15  1  0
 15 16  1  0
 12 17  1  0
 14 17  2  0
  7 18  1  0
  6 19  1  0
 18 20  1  0
 16 21  2  0
 18 22  1  0
 19 22  1  0
 22 23  1  0
 16 24  1  0
  7 25  1  0
 19 26  1  0
 24 26  1  0
M  END
>  <ID>  (1) 
conformer_0

$$$$
