
     RDKit          3D

 27 31  0  0  0  0  0  0  0  0999 V2000
   91.6707   44.8222   72.0024 C   0  0  0  0  0  0  0  0  0  0  0  0
   92.3670   45.7219   71.6892 C   0  0  0  0  0  0  0  0  0  0  0  0
   91.8048   46.7420   71.0614 C   0  0  0  0  0  0  0  0  0  0  0  0
   93.7913   45.7332   71.7926 C   0  0  0  0  0  0  0  0  0  0  0  0
   94.4614   46.9241   71.9923 N   0  0  0  0  0  0  0  0  0  0  0  0
   92.0482   43.6146   72.7998 F   0  0  0  0  0  0  0  0  0  0  0  0
   95.4007   47.0820   72.9841 C   0  0  0  0  0  0  0  0  0  0  0  0
   96.0853   48.3410   73.0677 N   0  0  0  0  0  0  0  0  0  0  0  0
   94.1023   48.1374   71.4260 C   0  0  0  0  0  0  0  0  0  0  0  0
   95.7241   46.1941   73.9892 C   0  0  0  0  0  0  0  0  0  0  0  0
   96.9910   48.3176   74.1971 C   0  0  0  0  0  0  0  0  0  0  0  0
   96.8787   47.1293   74.9429 C   0  0  0  0  0  0  0  0  0  0  0  0
   92.6686   48.0480   71.0195 C   0  0  0  0  0  0  0  0  0  0  0  0
   96.1184   47.2559   76.1924 O   0  0  0  0  0  0  0  0  0  0  0  0
   98.4046   48.4175   73.6461 C   0  0  0  0  0  0  0  0  0  0  0  0
   97.9207   46.2565   75.3340 C   0  0  0  0  0  0  0  0  0  0  0  0
   92.1274   49.2296   70.4791 C   0  0  0  0  0  0  0  0  0  0  0  0
   90.2085   44.8390   71.9143 C   0  0  0  0  0  0  0  0  0  0  0  0
   94.6741   49.2078   71.2741 N   0  0  0  0  0  0  0  0  0  0  0  0
   94.2749   50.3726   70.7520 C   0  0  0  0  0  0  0  0  0  0  0  0
   99.4233   47.8109   74.4306 O   0  0  0  0  0  0  0  0  0  0  0  0
   92.9655   50.3887   70.3805 C   0  0  0  0  0  0  0  0  0  0  0  0
   90.4938   47.0322   70.9715 C   0  0  0  0  0  0  0  0  0  0  0  0
   89.7058   45.9098   71.3318 C   0  0  0  0  0  0  0  0  0  0  0  0
   97.8122   45.0670   75.8112 O   0  0  0  0  0  0  0  0  0  0  0  0
   99.2295   46.6309   75.0207 C   0  0  0  0  0  0  0  0  0  0  0  0
  100.3257   45.8950   75.2949 O   0  0  0  0  0  0  0  0  0  0  0  0
  1  2  2  0
  2  3  1  0
  2  4  1  0
  4  5  1  0
  1  6  1  0
  5  7  1  0
  7  8  2  0
  5  9  1  0
  7 10  1  0
  8 11  1  0
 10 12  1  0
 11 12  1  0
  3 13  1  0
  9 13  1  0
 12 14  1  0
 11 15  1  0
 12 16  1  0
 13 17  2  0
  1 18  1  0
  9 19  2  0
 19 20  1  0
 15 21  1  0
 17 22  1  0
 20 22  2  0
  3 23  2  0
 18 24  2  0
 23 24  1  0
 16 25  2  0
 16 26  1  0
 21 26  1  0
 26 27  2  0
M  END
>  <ID>  (1) 
conformer_0

$$$$
