
     RDKit          3D

 29 33  0  0  0  0  0  0  0  0999 V2000
   98.0347   44.4605   75.9696 O   0  0  0  0  0  0  0  0  0  0  0  0
   97.8663   45.7408   75.4377 P   0  0  0  0  0  0  0  0  0  0  0  0
   96.6895   45.7165   74.4570 O   0  0  0  0  0  0  0  0  0  0  0  0
   96.2435   46.8446   73.6494 C   0  0  0  0  0  0  0  0  0  0  0  0
   94.8290   46.7936   73.3651 C   0  0  0  0  0  0  0  0  0  0  0  0
   94.6081   46.4409   72.0334 C   0  0  0  0  0  0  0  0  0  0  0  0
   94.2802   48.0655   73.7523 O   0  0  0  0  0  0  0  0  0  0  0  0
   93.6003   48.6039   72.6418 C   0  0  0  0  0  0  0  0  0  0  0  0
   93.6484   47.4924   71.6372 C   0  0  0  0  0  0  0  0  0  0  0  0
   93.9628   49.9351   72.3497 N   0  0  0  0  0  0  0  0  0  0  0  0
   97.5707   46.8700   76.3655 O   0  0  0  0  0  0  0  0  0  0  0  0
   93.3015   50.8070   71.5060 C   0  0  0  0  0  0  0  0  0  0  0  0
   93.9808   52.0492   71.4165 N   0  0  0  0  0  0  0  0  0  0  0  0
   92.3111   46.9400   71.5054 N   0  0  0  0  0  0  0  0  0  0  0  0
   94.1006   45.1969   71.8866 O   0  0  0  0  0  0  0  0  0  0  0  0
   95.0507   51.8150   72.2455 C   0  0  0  0  0  0  0  0  0  0  0  0
   91.9302   45.7359   71.7424 C   0  0  0  0  0  0  0  0  0  0  0  0
   92.9577   44.9351   72.4100 C   0  0  0  0  0  0  0  0  0  0  0  0
   96.0372   52.7775   72.5267 C   0  0  0  0  0  0  0  0  0  0  0  0
   99.0356   46.1320   74.4403 O   0  0  0  0  0  0  0  0  0  0  0  0
   95.0797   50.6250   72.8019 C   0  0  0  0  0  0  0  0  0  0  0  0
   90.6384   45.5739   71.5535 C   0  0  0  0  0  0  0  0  0  0  0  0
   89.9831   46.2747   70.7956 N   0  0  0  0  0  0  0  0  0  0  0  0
   96.0472   50.2426   73.6499 N   0  0  0  0  0  0  0  0  0  0  0  0
   91.4300   47.7891   70.7825 C   0  0  0  0  0  0  0  0  0  0  0  0
   97.0726   51.1265   73.9308 C   0  0  0  0  0  0  0  0  0  0  0  0
   90.1913   44.1203   72.0422 O   0  0  0  0  0  0  0  0  0  0  0  0
   90.2485   47.4542   70.5001 C   0  0  0  0  0  0  0  0  0  0  0  0
   97.0758   52.3641   73.4410 N   0  0  0  0  0  0  0  0  0  0  0  0
  1  2  2  0
  2  3  1  0
  3  4  1  0
  4  5  1  0
  5  6  1  0
  5  7  1  0
  7  8  1  0
  6  9  1  0
  8  9  1  0
  8 10  1  0
  2 11  1  0
 10 12  1  0
 12 13  2  0
  9 14  1  0
  6 15  1  0
 13 16  1  0
 14 17  1  0
 15 18  1  0
 17 18  1  0
 16 19  2  0
  2 20  1  0
 10 21  1  0
 16 21  1  0
 17 22  2  0
 22 23  1  0
 21 24  2  0
 14 25  1  0
 24 26  1  0
 22 27  1  0
 23 28  2  0
 25 28  1  0
 19 29  1  0
 26 29  2  0
M  END
>  <ID>  (1) 
conformer_0

$$$$
