
     RDKit          3D

 27 30  0  0  0  0  0  0  0  0999 V2000
   92.8737   45.3803   72.0140 C   0  0  0  0  0  0  0  0  0  0  0  0
   93.3942   46.4167   71.6980 C   0  0  0  0  0  0  0  0  0  0  0  0
   92.5319   47.3703   70.9850 C   0  0  0  0  0  0  0  0  0  0  0  0
   91.4721   45.0464   71.8056 C   0  0  0  0  0  0  0  0  0  0  0  0
   94.7858   46.7260   71.9106 C   0  0  0  0  0  0  0  0  0  0  0  0
   95.3285   46.2873   73.1855 O   0  0  0  0  0  0  0  0  0  0  0  0
   93.2035   48.6461   70.5134 C   0  0  0  0  0  0  0  0  0  0  0  0
   91.4257   47.2361   70.6526 C   0  0  0  0  0  0  0  0  0  0  0  0
   95.8249   46.9666   74.2091 C   0  0  0  0  0  0  0  0  0  0  0  0
   90.7537   45.9448   71.1206 C   0  0  0  0  0  0  0  0  0  0  0  0
   95.3823   48.2136   74.3790 C   0  0  0  0  0  0  0  0  0  0  0  0
   97.0595   46.6313   74.7771 C   0  0  0  0  0  0  0  0  0  0  0  0
   93.3217   48.9987   69.5399 O   0  0  0  0  0  0  0  0  0  0  0  0
   97.5500   47.4511   75.7903 C   0  0  0  0  0  0  0  0  0  0  0  0
   90.8351   43.7588   72.4212 C   0  0  0  0  0  0  0  0  0  0  0  0
   94.1894   48.8330   73.7135 O   0  0  0  0  0  0  0  0  0  0  0  0
   93.6364   49.5068   71.5592 N   0  0  0  0  0  0  0  0  0  0  0  0
   97.5143   45.1769   74.7069 C   0  0  0  0  0  0  0  0  0  0  0  0
   96.0374   49.1266   75.4197 C   0  0  0  0  0  0  0  0  0  0  0  0
   94.4065   49.4748   72.5522 C   0  0  0  0  0  0  0  0  0  0  0  0
   96.9607   44.4079   75.5140 O   0  0  0  0  0  0  0  0  0  0  0  0
   95.5013   50.3510   72.6171 C   0  0  0  0  0  0  0  0  0  0  0  0
   97.0285   48.6527   76.0307 N   0  0  0  0  0  0  0  0  0  0  0  0
   95.1647   51.4382   71.5826 C   0  0  0  0  0  0  0  0  0  0  0  0
   94.0775   51.2665   70.8447 C   0  0  0  0  0  0  0  0  0  0  0  0
   92.9019   50.6228   71.2320 C   0  0  0  0  0  0  0  0  0  0  0  0
   98.4868   44.8980   73.9446 O   0  0  0  0  0  0  0  0  0  0  0  0
  1  2  2  0
  2  3  1  0
  1  4  1  0
  2  5  1  0
  5  6  1  0
  3  7  1  0
  3  8  2  0
  6  9  1  0
  4 10  2  0
  8 10  1  0
  9 11  2  0
  9 12  1  0
  7 13  2  0
 12 14  2  0
  4 15  1  0
 11 16  1  0
  7 17  1  0
 12 18  1  0
 11 19  1  0
 16 20  1  0
 17 20  1  0
 18 21  2  0
 20 22  2  0
 14 23  1  0
 19 23  2  0
 22 24  1  0
 24 25  2  0
 17 26  1  0
 25 26  1  0
 18 27  1  0
M  END
>  <ID>  (1) 
conformer_0

$$$$
