
     RDKit          3D

 29 32  0  0  0  0  0  0  0  0999 V2000
   98.0347   44.4605   75.9696 O   0  0  0  0  0  0  0  0  0  0  0  0
   97.8663   45.7408   75.4377 P   0  0  0  0  0  0  0  0  0  0  0  0
   96.6895   45.7165   74.4570 O   0  0  0  0  0  0  0  0  0  0  0  0
   96.2435   46.8446   73.6494 C   0  0  0  0  0  0  0  0  0  0  0  0
   94.8290   46.7936   73.3651 C   0  0  0  0  0  0  0  0  0  0  0  0
   94.6081   46.4409   72.0334 C   0  0  0  0  0  0  0  0  0  0  0  0
   94.2802   48.0655   73.7523 O   0  0  0  0  0  0  0  0  0  0  0  0
   93.6003   48.6039   72.6418 C   0  0  0  0  0  0  0  0  0  0  0  0
   93.6484   47.4924   71.6372 C   0  0  0  0  0  0  0  0  0  0  0  0
   93.9628   49.9351   72.3497 N   0  0  0  0  0  0  0  0  0  0  0  0
   97.5707   46.8700   76.3655 O   0  0  0  0  0  0  0  0  0  0  0  0
   93.3015   50.8070   71.5060 C   0  0  0  0  0  0  0  0  0  0  0  0
   92.3736   47.0068   71.2926 N   0  0  0  0  0  0  0  0  0  0  0  0
   99.0267   46.0917   74.4044 O   0  0  0  0  0  0  0  0  0  0  0  0
  100.4747   45.3787   74.4810 P   0  0  0  0  0  0  0  0  0  0  0  0
   95.2053   50.4753   72.8381 C   0  0  0  0  0  0  0  0  0  0  0  0
  100.1372   43.9166   74.5703 O   0  0  0  0  0  0  0  0  0  0  0  0
   91.8009   46.0692   72.0630 C   0  0  0  0  0  0  0  0  0  0  0  0
  101.2202   45.7930   73.2592 O   0  0  0  0  0  0  0  0  0  0  0  0
  101.1550   45.7333   75.7866 O   0  0  0  0  0  0  0  0  0  0  0  0
   95.5115   51.6897   72.4041 C   0  0  0  0  0  0  0  0  0  0  0  0
   94.1189   52.1206   71.4627 C   0  0  0  0  0  0  0  0  0  0  0  0
   90.4389   45.6042   71.6299 C   0  0  0  0  0  0  0  0  0  0  0  0
   91.9619   45.7956   73.3749 N   0  0  0  0  0  0  0  0  0  0  0  0
   89.7783   44.7471   72.3623 N   0  0  0  0  0  0  0  0  0  0  0  0
   91.7275   47.3836   70.1692 C   0  0  0  0  0  0  0  0  0  0  0  0
   90.0129   46.1174   70.3954 N   0  0  0  0  0  0  0  0  0  0  0  0
   90.8333   44.7972   73.5949 C   0  0  0  0  0  0  0  0  0  0  0  0
   90.6367   46.9171   69.7019 C   0  0  0  0  0  0  0  0  0  0  0  0
  1  2  2  0
  2  3  1  0
  3  4  1  0
  4  5  1  0
  5  6  1  0
  5  7  1  0
  7  8  1  0
  6  9  1  0
  8  9  1  0
  8 10  1  0
  2 11  1  0
 10 12  1  0
  9 13  1  0
  2 14  1  0
 14 15  1  0
 10 16  1  0
 15 17  1  0
 13 18  1  0
 15 19  2  0
 15 20  1  0
 16 21  2  0
 12 22  2  0
 21 22  1  0
 18 23  1  0
 18 24  2  0
 23 25  1  0
 13 26  1  0
 23 27  2  0
 24 28  1  0
 25 28  2  0
 26 29  2  0
 27 29  1  0
M  END
>  <ID>  (1) 
conformer_0

$$$$
