
     RDKit          3D

 29 31  0  0  0  0  0  0  0  0999 V2000
   92.8737   45.3803   72.0140 C   0  0  0  0  0  0  0  0  0  0  0  0
   93.3942   46.4167   71.6980 C   0  0  0  0  0  0  0  0  0  0  0  0
   92.5319   47.3703   70.9850 C   0  0  0  0  0  0  0  0  0  0  0  0
   91.4721   45.0464   71.8056 C   0  0  0  0  0  0  0  0  0  0  0  0
   94.7858   46.7260   71.9106 C   0  0  0  0  0  0  0  0  0  0  0  0
   95.3285   46.2873   73.1855 O   0  0  0  0  0  0  0  0  0  0  0  0
   93.2035   48.6461   70.5134 C   0  0  0  0  0  0  0  0  0  0  0  0
   91.4257   47.2361   70.6526 C   0  0  0  0  0  0  0  0  0  0  0  0
   95.8249   46.9666   74.2091 C   0  0  0  0  0  0  0  0  0  0  0  0
   90.7311   45.9931   71.1143 C   0  0  0  0  0  0  0  0  0  0  0  0
   89.3237   45.6713   71.1562 O   0  0  0  0  0  0  0  0  0  0  0  0
   93.5634   49.6007   71.4628 C   0  0  0  0  0  0  0  0  0  0  0  0
   94.5919   50.5397   71.3636 C   0  0  0  0  0  0  0  0  0  0  0  0
   95.2568   48.1586   74.5149 C   0  0  0  0  0  0  0  0  0  0  0  0
   97.0797   46.6646   74.6442 C   0  0  0  0  0  0  0  0  0  0  0  0
   97.6764   47.3947   75.6847 C   0  0  0  0  0  0  0  0  0  0  0  0
   95.1429   51.1590   72.1803 C   0  0  0  0  0  0  0  0  0  0  0  0
   90.7541   43.8946   72.4397 O   0  0  0  0  0  0  0  0  0  0  0  0
   94.8212   51.1598   73.4546 O   0  0  0  0  0  0  0  0  0  0  0  0
   97.1003   48.5740   76.0415 N   0  0  0  0  0  0  0  0  0  0  0  0
   97.7805   45.4318   74.2331 O   0  0  0  0  0  0  0  0  0  0  0  0
   96.4135   52.1301   71.9537 C   0  0  0  0  0  0  0  0  0  0  0  0
   98.9838   46.9947   76.2986 C   0  0  0  0  0  0  0  0  0  0  0  0
   90.9226   43.5974   73.6836 C   0  0  0  0  0  0  0  0  0  0  0  0
   98.6064   44.8632   75.1811 C   0  0  0  0  0  0  0  0  0  0  0  0
   99.6371   45.7775   75.7851 C   0  0  0  0  0  0  0  0  0  0  0  0
   99.3997   43.8310   74.4814 O   0  0  0  0  0  0  0  0  0  0  0  0
   95.9215   48.9466   75.5617 C   0  0  0  0  0  0  0  0  0  0  0  0
  100.6113   46.1019   74.7993 O   0  0  0  0  0  0  0  0  0  0  0  0
  1  2  2  0
  2  3  1  0
  1  4  1  0
  2  5  1  0
  5  6  1  0
  3  7  1  0
  3  8  2  0
  6  9  1  0
  4 10  2  0
  8 10  1  0
 10 11  1  0
  7 12  1  0
 12 13  1  0
  9 14  2  0
  9 15  1  0
 15 16  2  0
 13 17  2  3
  4 18  1  0
 17 19  1  0
 16 20  1  0
 15 21  1  0
 17 22  1  0
 16 23  1  0
 18 24  1  0
 21 25  1  0
 23 26  1  0
 25 26  1  0
 25 27  1  0
 14 28  1  0
 20 28  2  0
 26 29  1  0
M  END
>  <ID>  (1) 
conformer_0

$$$$
