
     RDKit          3D

 19 21  0  0  0  0  0  0  0  0999 V2000
   90.1681   45.6302   71.0286 O   0  0  0  0  0  0  0  0  0  0  0  0
   90.6770   46.6910   70.7091 C   0  0  0  0  0  0  0  0  0  0  0  0
   90.2738   47.4478   69.8268 C   0  0  0  0  0  0  0  0  0  0  0  0
   91.9611   46.9062   71.4719 C   0  0  0  0  0  0  0  0  0  0  0  0
   92.7161   48.0904   71.1090 C   0  0  0  0  0  0  0  0  0  0  0  0
   90.7593   44.9730   72.2502 C   0  0  0  0  0  0  0  0  0  0  0  0
   92.3788   46.1448   72.5583 C   0  0  0  0  0  0  0  0  0  0  0  0
   93.5513   46.4745   73.2065 O   0  0  0  0  0  0  0  0  0  0  0  0
   93.9572   48.4430   71.6711 N   0  0  0  0  0  0  0  0  0  0  0  0
   94.4642   49.7229   71.5406 C   0  0  0  0  0  0  0  0  0  0  0  0
   91.7732   45.0858   72.7921 N   0  0  0  0  0  0  0  0  0  0  0  0
   93.8881   50.7470   71.7756 C   0  0  0  0  0  0  0  0  0  0  0  0
   89.9794   43.8555   72.5829 O   0  0  0  0  0  0  0  0  0  0  0  0
   90.9907   48.6300   69.3992 C   0  0  0  0  0  0  0  0  0  0  0  0
   92.2101   49.0008   70.0253 C   0  0  0  0  0  0  0  0  0  0  0  0
   95.8894   49.7125   71.5555 C   0  0  0  0  0  0  0  0  0  0  0  0
   96.5495   50.8982   71.5464 C   0  0  0  0  0  0  0  0  0  0  0  0
   95.8674   52.1232   71.8775 C   0  0  0  0  0  0  0  0  0  0  0  0
   94.4894   52.0023   71.9906 C   0  0  0  0  0  0  0  0  0  0  0  0
  1  2  1  0
  2  3  2  0
  2  4  1  0
  4  5  2  0
  1  6  1  0
  4  7  1  0
  7  8  2  0
  5  9  1  0
  9 10  1  0
  6 11  1  0
  7 11  1  0
 10 12  2  0
  6 13  2  0
  3 14  1  0
  5 15  1  0
 14 15  2  0
 10 16  1  0
 16 17  2  0
 17 18  1  0
 12 19  1  0
 18 19  2  0
M  END
>  <ID>  (1) 
conformer_0

$$$$
