
     RDKit          3D

 25 28  0  0  0  0  0  0  0  0999 V2000
   90.3426   44.9357   72.3575 C   0  0  0  0  0  0  0  0  0  0  0  0
   91.6006   45.2993   72.6193 C   0  0  0  0  0  0  0  0  0  0  0  0
   89.6989   45.5536   71.2823 N   0  0  0  0  0  0  0  0  0  0  0  0
   91.9917   46.3374   71.7756 C   0  0  0  0  0  0  0  0  0  0  0  0
   93.3364   46.8709   71.7700 N   0  0  0  0  0  0  0  0  0  0  0  0
   94.3041   46.3718   72.5643 C   0  0  0  0  0  0  0  0  0  0  0  0
   93.2632   48.2354   71.5106 C   0  0  0  0  0  0  0  0  0  0  0  0
   94.4214   48.9315   72.0282 C   0  0  0  0  0  0  0  0  0  0  0  0
   94.4038   50.3730   72.1191 C   0  0  0  0  0  0  0  0  0  0  0  0
   93.2578   48.5224   70.0005 C   0  0  0  0  0  0  0  0  0  0  0  0
   95.1591   51.1272   72.9151 C   0  0  0  0  0  0  0  0  0  0  0  0
   95.3548   48.3300   72.8146 C   0  0  0  0  0  0  0  0  0  0  0  0
   90.7744   46.5078   70.9275 N   0  0  0  0  0  0  0  0  0  0  0  0
   95.0045   52.5566   72.8794 O   0  0  0  0  0  0  0  0  0  0  0  0
   95.0578   46.9448   73.1865 N   0  0  0  0  0  0  0  0  0  0  0  0
   96.2734   46.3560   73.8795 C   0  0  0  0  0  0  0  0  0  0  0  0
   96.1272   50.4524   73.7175 C   0  0  0  0  0  0  0  0  0  0  0  0
   90.6745   47.4323   69.9271 C   0  0  0  0  0  0  0  0  0  0  0  0
   94.3562   45.1000   72.7191 O   0  0  0  0  0  0  0  0  0  0  0  0
   96.9624   51.2780   74.4878 N   0  0  0  0  0  0  0  0  0  0  0  0
   96.2001   49.0973   73.7141 C   0  0  0  0  0  0  0  0  0  0  0  0
   96.0552   46.2467   75.2926 C   0  0  0  0  0  0  0  0  0  0  0  0
   96.8801   45.4964   75.9779 O   0  0  0  0  0  0  0  0  0  0  0  0
   91.6237   48.3056   69.6042 C   0  0  0  0  0  0  0  0  0  0  0  0
   95.1040   46.5995   75.8251 O   0  0  0  0  0  0  0  0  0  0  0  0
  1  2  1  0
  1  3  2  0
  2  4  2  0
  4  5  1  0
  5  6  1  0
  5  7  1  0
  7  8  1  0
  8  9  1  0
  7 10  1  0
  9 11  2  0
  8 12  2  0
  3 13  1  0
  4 13  1  0
 11 14  1  0
  6 15  1  0
 12 15  1  0
 15 16  1  0
 11 17  1  0
 13 18  1  0
  6 19  2  0
 17 20  1  0
 12 21  1  0
 17 21  2  0
 16 22  1  0
 22 23  1  0
 10 24  1  0
 18 24  2  0
 22 25  2  0
M  END
>  <ID>  (1) 
conformer_0

$$$$
