
     RDKit          3D

 29 31  0  0  0  0  0  0  0  0999 V2000
   92.8737   45.3803   72.0140 C   0  0  0  0  0  0  0  0  0  0  0  0
   93.3942   46.4167   71.6980 C   0  0  0  0  0  0  0  0  0  0  0  0
   92.5319   47.3703   70.9850 C   0  0  0  0  0  0  0  0  0  0  0  0
   91.4721   45.0464   71.8056 C   0  0  0  0  0  0  0  0  0  0  0  0
   94.7858   46.7260   71.9106 C   0  0  0  0  0  0  0  0  0  0  0  0
   95.3285   46.2873   73.1855 O   0  0  0  0  0  0  0  0  0  0  0  0
   96.4178   46.8597   73.8246 C   0  0  0  0  0  0  0  0  0  0  0  0
   96.1292   48.0033   74.3939 O   0  0  0  0  0  0  0  0  0  0  0  0
   93.2396   48.6631   70.5721 N   0  0  0  0  0  0  0  0  0  0  0  0
   96.7264   48.3611   75.7026 C   0  0  0  0  0  0  0  0  0  0  0  0
   96.8334   45.9180   74.9428 C   0  0  0  0  0  0  0  0  0  0  0  0
   93.5173   49.6191   71.5143 C   0  0  0  0  0  0  0  0  0  0  0  0
   97.5302   49.4478   75.7124 C   0  0  0  0  0  0  0  0  0  0  0  0
   90.7236   45.9849   71.1388 C   0  0  0  0  0  0  0  0  0  0  0  0
   94.4223   50.5675   71.2562 N   0  0  0  0  0  0  0  0  0  0  0  0
   90.8137   43.6341   72.4786 Cl  0  0  0  0  0  0  0  0  0  0  0  0
   97.8688   44.9726   74.7100 O   0  0  0  0  0  0  0  0  0  0  0  0
   94.7803   51.4011   72.3226 C   0  0  0  0  0  0  0  0  0  0  0  0
   99.3052   45.2027   74.9875 P   0  0  0  0  0  0  0  0  0  0  0  0
   97.1938   46.8776   75.9975 C   0  0  0  0  0  0  0  0  0  0  0  0
  100.2163   44.1502   74.4056 O   0  0  0  0  0  0  0  0  0  0  0  0
   95.9660   51.9722   72.1918 C   0  0  0  0  0  0  0  0  0  0  0  0
   89.2728   45.8035   70.9468 O   0  0  0  0  0  0  0  0  0  0  0  0
   92.7732   49.8759   72.6773 N   0  0  0  0  0  0  0  0  0  0  0  0
   91.2736   47.2595   70.7471 C   0  0  0  0  0  0  0  0  0  0  0  0
   93.7024   50.9203   73.2492 C   0  0  0  0  0  0  0  0  0  0  0  0
   97.9006   49.9049   74.4128 O   0  0  0  0  0  0  0  0  0  0  0  0
   99.7262   46.4125   74.7946 O   0  0  0  0  0  0  0  0  0  0  0  0
   99.3969   44.9387   76.5908 O   0  0  0  0  0  0  0  0  0  0  0  0
  1  2  2  0
  2  3  1  0
  1  4  1  0
  2  5  1  0
  5  6  1  0
  6  7  1  0
  7  8  1  0
  3  9  1  0
  8 10  1  0
  7 11  1  0
  9 12  1  0
 10 13  1  0
  4 14  2  0
 12 15  2  0
  4 16  1  0
 11 17  1  0
 15 18  1  0
 17 19  1  0
 10 20  1  0
 11 20  1  0
 19 21  2  0
 18 22  1  0
 14 23  1  0
 12 24  1  0
  3 25  2  0
 14 25  1  0
 18 26  1  0
 24 26  1  0
 13 27  1  0
 19 28  1  0
 19 29  1  0
M  END
>  <ID>  (1) 
conformer_0

$$$$
