
     RDKit          3D

 29 31  0  0  0  0  0  0  0  0999 V2000
   98.0347   44.4605   75.9696 O   0  0  0  0  0  0  0  0  0  0  0  0
   97.8663   45.7408   75.4377 P   0  0  0  0  0  0  0  0  0  0  0  0
   96.6895   45.7165   74.4570 O   0  0  0  0  0  0  0  0  0  0  0  0
   96.2435   46.8446   73.6494 C   0  0  0  0  0  0  0  0  0  0  0  0
   94.8290   46.7936   73.3651 C   0  0  0  0  0  0  0  0  0  0  0  0
   94.6081   46.4409   72.0334 C   0  0  0  0  0  0  0  0  0  0  0  0
   94.2802   48.0655   73.7523 O   0  0  0  0  0  0  0  0  0  0  0  0
   93.6003   48.6039   72.6418 C   0  0  0  0  0  0  0  0  0  0  0  0
   93.6484   47.4924   71.6372 C   0  0  0  0  0  0  0  0  0  0  0  0
   93.9628   49.9351   72.3497 N   0  0  0  0  0  0  0  0  0  0  0  0
   97.5707   46.8700   76.3655 O   0  0  0  0  0  0  0  0  0  0  0  0
   93.3015   50.8070   71.5060 C   0  0  0  0  0  0  0  0  0  0  0  0
   92.3736   47.0068   71.2926 N   0  0  0  0  0  0  0  0  0  0  0  0
   99.0267   46.0917   74.4044 O   0  0  0  0  0  0  0  0  0  0  0  0
  100.4747   45.3787   74.4810 P   0  0  0  0  0  0  0  0  0  0  0  0
   95.2053   50.4753   72.8381 C   0  0  0  0  0  0  0  0  0  0  0  0
   95.9860   49.8958   73.7153 O   0  0  0  0  0  0  0  0  0  0  0  0
   95.5332   51.7425   72.1715 C   0  0  0  0  0  0  0  0  0  0  0  0
   91.5720   47.6110   70.3968 C   0  0  0  0  0  0  0  0  0  0  0  0
   90.4504   47.1551   70.1354 C   0  0  0  0  0  0  0  0  0  0  0  0
   94.2176   51.9724   71.4121 C   0  0  0  0  0  0  0  0  0  0  0  0
  100.1331   43.9135   74.5993 O   0  0  0  0  0  0  0  0  0  0  0  0
  101.2317   45.7827   73.2798 O   0  0  0  0  0  0  0  0  0  0  0  0
  101.1032   45.7446   75.8646 O   0  0  0  0  0  0  0  0  0  0  0  0
   89.9902   46.1809   71.2376 C   0  0  0  0  0  0  0  0  0  0  0  0
   91.3860   46.1064   71.9529 C   0  0  0  0  0  0  0  0  0  0  0  0
   91.3865   46.0300   73.3515 C   0  0  0  0  0  0  0  0  0  0  0  0
   89.6266   44.8063   71.0802 O   0  0  0  0  0  0  0  0  0  0  0  0
   90.6626   44.8773   73.8840 C   0  0  0  0  0  0  0  0  0  0  0  0
  1  2  2  0
  2  3  1  0
  3  4  1  0
  4  5  1  0
  5  6  1  0
  5  7  1  0
  7  8  1  0
  6  9  1  0
  8  9  1  0
  8 10  1  0
  2 11  1  0
 10 12  1  0
  9 13  1  0
  2 14  1  0
 14 15  1  0
 10 16  1  0
 16 17  2  0
 16 18  1  0
 13 19  1  0
 19 20  1  0
 12 21  2  0
 18 21  1  0
 15 22  1  0
 15 23  2  0
 15 24  1  0
 20 25  1  0
 13 26  1  0
 25 26  1  0
 26 27  1  0
 25 28  1  0
 27 29  1  0
M  END
>  <ID>  (1) 
conformer_0

$$$$
