
     RDKit          3D

 12 13  0  0  0  0  0  0  0  0999 V2000
   89.9391   44.7866   72.3622 N   0  0  0  0  0  0  0  0  0  0  0  0
   90.6630   45.5869   71.5838 C   0  0  0  0  0  0  0  0  0  0  0  0
   91.9661   46.0371   72.0025 C   0  0  0  0  0  0  0  0  0  0  0  0
   90.2657   46.0944   70.3978 C   0  0  0  0  0  0  0  0  0  0  0  0
   90.5098   44.3660   73.6042 C   0  0  0  0  0  0  0  0  0  0  0  0
   92.6450   46.9442   71.1803 C   0  0  0  0  0  0  0  0  0  0  0  0
   92.3672   45.5887   73.2822 C   0  0  0  0  0  0  0  0  0  0  0  0
   92.2010   47.4152   70.0406 C   0  0  0  0  0  0  0  0  0  0  0  0
   93.0116   48.3350   69.2679 N   0  0  0  0  0  0  0  0  0  0  0  0
   93.6670   45.9726   73.6906 O   0  0  0  0  0  0  0  0  0  0  0  0
   91.6821   44.6705   74.0377 C   0  0  0  0  0  0  0  0  0  0  0  0
   90.9422   46.9845   69.6021 C   0  0  0  0  0  0  0  0  0  0  0  0
  1  2  1  0
  2  3  2  0
  2  4  1  0
  1  5  2  0
  3  6  1  0
  3  7  1  0
  6  8  2  0
  8  9  1  0
  7 10  1  0
  5 11  1  0
  7 11  2  0
  4 12  2  0
  8 12  1  0
M  END
>  <ID>  (1) 
conformer_0

$$$$
