
     RDKit          3D

 20 21  0  0  0  0  0  0  0  0999 V2000
   90.7939   44.2054   72.6652 C   0  0  0  0  0  0  0  0  0  0  0  0
   91.8720   44.7484   72.9383 C   0  0  0  0  0  0  0  0  0  0  0  0
   92.2957   45.9021   72.3434 C   0  0  0  0  0  0  0  0  0  0  0  0
   91.3712   46.5409   71.4443 C   0  0  0  0  0  0  0  0  0  0  0  0
   93.4517   46.6897   72.6058 C   0  0  0  0  0  0  0  0  0  0  0  0
   89.7381   44.7569   72.0670 N   0  0  0  0  0  0  0  0  0  0  0  0
   91.6621   47.8256   70.8730 C   0  0  0  0  0  0  0  0  0  0  0  0
   90.0384   45.9800   71.4591 C   0  0  0  0  0  0  0  0  0  0  0  0
   94.4687   46.1841   73.4939 N   0  0  0  0  0  0  0  0  0  0  0  0
   95.6023   46.8406   73.8898 C   0  0  0  0  0  0  0  0  0  0  0  0
   92.8958   48.4076   71.1892 C   0  0  0  0  0  0  0  0  0  0  0  0
   96.2354   46.5314   74.9556 C   0  0  0  0  0  0  0  0  0  0  0  0
   97.2728   45.7234   74.9831 O   0  0  0  0  0  0  0  0  0  0  0  0
   98.6082   45.8958   75.4268 P   0  0  0  0  0  0  0  0  0  0  0  0
   96.3543   47.2251   72.7902 O   0  0  0  0  0  0  0  0  0  0  0  0
   98.8019   45.9791   76.8398 O   0  0  0  0  0  0  0  0  0  0  0  0
   99.2514   47.1990   74.8222 O   0  0  0  0  0  0  0  0  0  0  0  0
   99.5427   44.6509   74.9275 O   0  0  0  0  0  0  0  0  0  0  0  0
   93.2134   49.7091   70.5358 N   0  0  0  0  0  0  0  0  0  0  0  0
   93.7751   47.9340   71.9963 C   0  0  0  0  0  0  0  0  0  0  0  0
  1  2  1  0
  2  3  2  0
  3  4  1  0
  3  5  1  0
  1  6  2  0
  4  7  1  0
  4  8  2  0
  6  8  1  0
  5  9  1  0
  9 10  1  0
  7 11  2  0
 10 12  1  0
 12 13  1  0
 13 14  1  0
 10 15  2  0
 14 16  1  0
 14 17  1  0
 14 18  2  0
 11 19  1  0
  5 20  2  0
 11 20  1  0
M  END
>  <ID>  (1) 
conformer_0

$$$$
