
     RDKit          3D

 28 30  0  0  0  0  0  0  0  0999 V2000
   92.8737   45.3803   72.0140 C   0  0  0  0  0  0  0  0  0  0  0  0
   93.3942   46.4167   71.6980 C   0  0  0  0  0  0  0  0  0  0  0  0
   92.5319   47.3703   70.9850 C   0  0  0  0  0  0  0  0  0  0  0  0
   91.4721   45.0464   71.8056 C   0  0  0  0  0  0  0  0  0  0  0  0
   94.7858   46.7260   71.9106 C   0  0  0  0  0  0  0  0  0  0  0  0
   95.3285   46.2873   73.1855 O   0  0  0  0  0  0  0  0  0  0  0  0
   96.4178   46.8597   73.8246 C   0  0  0  0  0  0  0  0  0  0  0  0
   96.1292   48.0033   74.3939 O   0  0  0  0  0  0  0  0  0  0  0  0
   93.2396   48.6631   70.5721 N   0  0  0  0  0  0  0  0  0  0  0  0
   96.7264   48.3611   75.7026 C   0  0  0  0  0  0  0  0  0  0  0  0
   96.8334   45.9180   74.9428 C   0  0  0  0  0  0  0  0  0  0  0  0
   93.5173   49.6191   71.5143 C   0  0  0  0  0  0  0  0  0  0  0  0
   97.5302   49.4478   75.7124 C   0  0  0  0  0  0  0  0  0  0  0  0
   90.7236   45.9849   71.1388 C   0  0  0  0  0  0  0  0  0  0  0  0
   94.4223   50.5675   71.2562 N   0  0  0  0  0  0  0  0  0  0  0  0
   90.8137   43.6341   72.4786 Cl  0  0  0  0  0  0  0  0  0  0  0  0
   97.8688   44.9726   74.7100 O   0  0  0  0  0  0  0  0  0  0  0  0
   99.2024   44.9364   75.4083 P   0  0  0  0  0  0  0  0  0  0  0  0
   91.2872   47.2240   70.7607 C   0  0  0  0  0  0  0  0  0  0  0  0
   94.7862   51.4220   72.2958 C   0  0  0  0  0  0  0  0  0  0  0  0
   99.9957   43.9066   74.7878 O   0  0  0  0  0  0  0  0  0  0  0  0
   97.2584   46.9255   75.9782 C   0  0  0  0  0  0  0  0  0  0  0  0
   98.9821   45.0302   76.7928 O   0  0  0  0  0  0  0  0  0  0  0  0
   93.0940   49.7492   72.8660 C   0  0  0  0  0  0  0  0  0  0  0  0
   93.9080   50.8329   73.3845 C   0  0  0  0  0  0  0  0  0  0  0  0
   98.1744   49.6501   74.4260 O   0  0  0  0  0  0  0  0  0  0  0  0
   99.6963   46.4078   74.8885 O   0  0  0  0  0  0  0  0  0  0  0  0
   95.6298   52.3132   72.3119 O   0  0  0  0  0  0  0  0  0  0  0  0
  1  2  2  0
  2  3  1  0
  1  4  1  0
  2  5  1  0
  5  6  1  0
  6  7  1  0
  7  8  1  0
  3  9  1  0
  8 10  1  0
  7 11  1  0
  9 12  1  0
 10 13  1  0
  4 14  2  0
 12 15  2  0
  4 16  1  0
 11 17  1  0
 17 18  1  0
  3 19  2  0
 14 19  1  0
 15 20  1  0
 18 21  2  0
 10 22  1  0
 11 22  1  0
 18 23  1  0
 12 24  1  0
 20 25  1  0
 24 25  1  0
 13 26  1  0
 18 27  1  0
 20 28  2  0
M  END
>  <ID>  (1) 
conformer_0

$$$$
