
     RDKit          3D

 12 13  0  0  0  0  0  0  0  0999 V2000
   90.2139   45.9204   70.8440 N   0  0  0  0  0  0  0  0  0  0  0  0
   91.1900   46.7106   70.6099 C   0  0  0  0  0  0  0  0  0  0  0  0
   91.1883   47.5486   69.5652 O   0  0  0  0  0  0  0  0  0  0  0  0
   92.4530   46.5867   71.3548 C   0  0  0  0  0  0  0  0  0  0  0  0
   92.5183   48.1480   69.6014 C   0  0  0  0  0  0  0  0  0  0  0  0
   89.0776   46.0256   70.3671 O   0  0  0  0  0  0  0  0  0  0  0  0
   93.3139   47.5534   70.8112 C   0  0  0  0  0  0  0  0  0  0  0  0
   90.3423   45.1153   71.9862 C   0  0  0  0  0  0  0  0  0  0  0  0
   89.2485   44.4172   72.3377 O   0  0  0  0  0  0  0  0  0  0  0  0
   92.5780   45.7515   72.4153 C   0  0  0  0  0  0  0  0  0  0  0  0
   93.7863   45.6911   73.1307 O   0  0  0  0  0  0  0  0  0  0  0  0
   91.5443   45.0143   72.7801 C   0  0  0  0  0  0  0  0  0  0  0  0
  1  2  1  0
  2  3  1  0
  2  4  2  0
  3  5  1  0
  1  6  1  0
  4  7  1  0
  5  7  2  0
  1  8  1  0
  8  9  1  0
  4 10  1  0
 10 11  1  0
  8 12  1  0
 10 12  2  0
M  END
>  <ID>  (1) 
conformer_0

$$$$
