
     RDKit          3D

 28 31  0  0  0  0  0  0  0  0999 V2000
   92.8737   45.3803   72.0140 C   0  0  0  0  0  0  0  0  0  0  0  0
   93.3942   46.4167   71.6980 C   0  0  0  0  0  0  0  0  0  0  0  0
   94.6901   46.7427   71.8675 C   0  0  0  0  0  0  0  0  0  0  0  0
   91.4576   44.9277   71.7737 C   0  0  0  0  0  0  0  0  0  0  0  0
   95.0172   47.3378   73.1918 C   0  0  0  0  0  0  0  0  0  0  0  0
   94.9674   48.6677   73.3454 O   0  0  0  0  0  0  0  0  0  0  0  0
   96.2232   46.8112   73.8988 C   0  0  0  0  0  0  0  0  0  0  0  0
   90.7646   45.9665   71.1440 C   0  0  0  0  0  0  0  0  0  0  0  0
   92.4937   47.3657   71.1802 C   0  0  0  0  0  0  0  0  0  0  0  0
   93.0142   48.7600   70.8881 N   0  0  0  0  0  0  0  0  0  0  0  0
   90.7812   43.5588   72.2967 Cl  0  0  0  0  0  0  0  0  0  0  0  0
   92.1743   49.6611   70.8714 C   0  0  0  0  0  0  0  0  0  0  0  0
   91.3668   47.2938   70.9371 C   0  0  0  0  0  0  0  0  0  0  0  0
   96.2677   45.4762   73.8285 O   0  0  0  0  0  0  0  0  0  0  0  0
   96.2823   49.1458   73.8562 C   0  0  0  0  0  0  0  0  0  0  0  0
   96.9986   47.9292   74.2033 C   0  0  0  0  0  0  0  0  0  0  0  0
   90.4258   48.2848   70.5335 C   0  0  0  0  0  0  0  0  0  0  0  0
   96.5443   50.3779   74.0473 C   0  0  0  0  0  0  0  0  0  0  0  0
   97.5718   45.1178   74.5559 C   0  0  0  0  0  0  0  0  0  0  0  0
   98.3922   47.8512   74.5763 C   0  0  0  0  0  0  0  0  0  0  0  0
   98.8843   45.5661   74.3418 C   0  0  0  0  0  0  0  0  0  0  0  0
   90.9206   49.4669   70.3666 C   0  0  0  0  0  0  0  0  0  0  0  0
   97.8135   50.8075   74.6410 O   0  0  0  0  0  0  0  0  0  0  0  0
   97.4512   44.5070   75.7778 O   0  0  0  0  0  0  0  0  0  0  0  0
   99.9262   44.6212   74.7731 C   0  0  0  0  0  0  0  0  0  0  0  0
   99.1510   45.6902   73.0076 O   0  0  0  0  0  0  0  0  0  0  0  0
   95.9054   51.5834   73.5014 C   0  0  0  0  0  0  0  0  0  0  0  0
   99.1870   46.9290   74.8488 C   0  0  0  0  0  0  0  0  0  0  0  0
  1  2  1  0
  2  3  1  0
  1  4  2  0
  3  5  1  0
  5  6  1  0
  5  7  1  0
  4  8  1  0
  2  9  2  0
  9 10  1  0
  4 11  1  0
 10 12  2  0
  8 13  2  0
  9 13  1  0
  7 14  1  0
  6 15  1  0
  7 16  2  0
 15 16  1  0
 13 17  1  0
 15 18  2  3
 14 19  1  0
 16 20  1  0
 19 21  1  0
 12 22  1  0
 17 22  2  0
 18 23  1  0
 19 24  2  0
 21 25  1  0
 21 26  1  0
 18 27  1  0
 20 28  2  0
 21 28  1  0
M  END
>  <ID>  (1) 
conformer_0

$$$$
