
     RDKit          3D

  5  4  0  0  0  0  0  0  0  0999 V2000
   99.9491   44.4896   74.1553 O   0  0  0  0  0  0  0  0  0  0  0  0
   99.5757   44.6319   75.4449 C   0  0  0  0  0  0  0  0  0  0  0  0
   98.4308   44.6086   75.8223 O   0  0  0  0  0  0  0  0  0  0  0  0
  100.6887   45.2122   76.2366 C   0  0  0  0  0  0  0  0  0  0  0  0
  100.4190   46.6285   76.5056 O   0  0  0  0  0  0  0  0  0  0  0  0
  1  2  2  0
  2  3  1  0
  2  4  1  0
  4  5  1  0
M  END
>  <ID>  (1) 
conformer_0

$$$$
