
     RDKit          3D

 20 22  0  0  0  0  0  0  0  0999 V2000
   91.6707   44.8222   72.0024 C   0  0  0  0  0  0  0  0  0  0  0  0
   92.3670   45.7219   71.6892 C   0  0  0  0  0  0  0  0  0  0  0  0
   91.8048   46.7420   71.0614 C   0  0  0  0  0  0  0  0  0  0  0  0
   93.7913   45.7332   71.7926 C   0  0  0  0  0  0  0  0  0  0  0  0
   94.4614   46.9241   71.9923 N   0  0  0  0  0  0  0  0  0  0  0  0
   92.0482   43.6146   72.7998 F   0  0  0  0  0  0  0  0  0  0  0  0
   95.4007   47.0820   72.9841 C   0  0  0  0  0  0  0  0  0  0  0  0
   96.0853   48.3410   73.0677 N   0  0  0  0  0  0  0  0  0  0  0  0
   94.1023   48.1374   71.4260 C   0  0  0  0  0  0  0  0  0  0  0  0
   97.0203   48.6502   74.0037 C   0  0  0  0  0  0  0  0  0  0  0  0
   92.5620   48.0398   70.9124 C   0  0  0  0  0  0  0  0  0  0  0  0
   95.8673   46.0259   73.7538 N   0  0  0  0  0  0  0  0  0  0  0  0
   96.7687   46.4014   74.7380 C   0  0  0  0  0  0  0  0  0  0  0  0
   97.3459   47.6056   74.9010 C   0  0  0  0  0  0  0  0  0  0  0  0
   97.4934   49.8419   74.0674 O   0  0  0  0  0  0  0  0  0  0  0  0
   97.3633   45.3233   75.4400 O   0  0  0  0  0  0  0  0  0  0  0  0
   90.4977   46.6693   71.1116 C   0  0  0  0  0  0  0  0  0  0  0  0
   98.5871   47.8170   75.7829 C   0  0  0  0  0  0  0  0  0  0  0  0
   90.1579   44.7817   71.9473 C   0  0  0  0  0  0  0  0  0  0  0  0
   89.6789   45.8417   71.5057 N   0  0  0  0  0  0  0  0  0  0  0  0
  1  2  2  0
  2  3  1  0
  2  4  1  0
  4  5  1  0
  1  6  1  0
  5  7  1  0
  7  8  2  0
  5  9  1  0
  8 10  1  0
  3 11  1  0
  9 11  1  0
  7 12  1  0
 12 13  1  0
 10 14  1  0
 13 14  1  0
 10 15  2  0
 13 16  2  0
  3 17  2  0
 14 18  1  0
  1 19  1  0
 17 20  1  0
 19 20  2  0
M  END
>  <ID>  (1) 
conformer_0

$$$$
