
     RDKit          3D

 15 16  0  0  0  0  0  0  0  0999 V2000
   89.7886   45.2174   71.8155 N   0  0  0  0  0  0  0  0  0  0  0  0
   90.5382   46.2313   71.1665 C   0  0  0  0  0  0  0  0  0  0  0  0
   91.7740   46.6112   71.6511 C   0  0  0  0  0  0  0  0  0  0  0  0
   92.1180   45.7901   72.8211 C   0  0  0  0  0  0  0  0  0  0  0  0
   91.3683   44.8228   73.3831 N   0  0  0  0  0  0  0  0  0  0  0  0
   92.5799   47.5445   71.1103 C   0  0  0  0  0  0  0  0  0  0  0  0
   93.4496   46.0549   73.3481 C   0  0  0  0  0  0  0  0  0  0  0  0
   93.8976   47.7258   71.7315 C   0  0  0  0  0  0  0  0  0  0  0  0
   90.2970   44.7047   72.8969 C   0  0  0  0  0  0  0  0  0  0  0  0
   94.8162   48.7158   71.1767 C   0  0  0  0  0  0  0  0  0  0  0  0
   95.1002   49.7692   71.9944 C   0  0  0  0  0  0  0  0  0  0  0  0
   95.6453   50.9432   71.4646 O   0  0  0  0  0  0  0  0  0  0  0  0
   94.2637   46.8480   72.9250 C   0  0  0  0  0  0  0  0  0  0  0  0
   94.0576   50.1707   72.9035 C   0  0  0  0  0  0  0  0  0  0  0  0
   94.2959   49.1569   69.9729 O   0  0  0  0  0  0  0  0  0  0  0  0
  1  2  1  0
  2  3  2  0
  3  4  1  0
  4  5  2  0
  3  6  1  0
  4  7  1  0
  6  8  2  0
  1  9  2  0
  5  9  1  0
  8 10  1  0
 10 11  1  0
 11 12  1  0
  7 13  2  0
  8 13  1  0
 11 14  1  0
 10 15  1  0
M  END
>  <ID>  (1) 
conformer_0

$$$$
