
     RDKit          3D

 19 20  0  0  0  0  0  0  0  0999 V2000
   89.6645   45.5493   70.9146 O   0  0  0  0  0  0  0  0  0  0  0  0
   90.5116   45.3323   71.8146 C   0  0  0  0  0  0  0  0  0  0  0  0
   91.8136   45.9276   71.8069 C   0  0  0  0  0  0  0  0  0  0  0  0
   92.8524   45.6327   72.6390 C   0  0  0  0  0  0  0  0  0  0  0  0
   92.3210   46.7047   70.6063 C   0  0  0  0  0  0  0  0  0  0  0  0
   91.4183   47.2033   69.6476 N   0  0  0  0  0  0  0  0  0  0  0  0
   94.1010   46.1910   72.6088 C   0  0  0  0  0  0  0  0  0  0  0  0
   95.1050   45.8717   73.5642 O   0  0  0  0  0  0  0  0  0  0  0  0
   95.6093   46.7759   74.4791 C   0  0  0  0  0  0  0  0  0  0  0  0
   96.6407   46.4143   75.2688 C   0  0  0  0  0  0  0  0  0  0  0  0
   96.0088   48.0241   73.7308 C   0  0  0  0  0  0  0  0  0  0  0  0
   96.4824   48.9666   74.6965 O   0  0  0  0  0  0  0  0  0  0  0  0
   93.5374   47.2997   70.7607 C   0  0  0  0  0  0  0  0  0  0  0  0
   97.7090   47.2791   75.3340 C   0  0  0  0  0  0  0  0  0  0  0  0
   94.4503   46.9869   71.7405 C   0  0  0  0  0  0  0  0  0  0  0  0
   97.6969   48.6979   75.1197 C   0  0  0  0  0  0  0  0  0  0  0  0
   96.9653   45.0636   75.0285 O   0  0  0  0  0  0  0  0  0  0  0  0
   98.4904   47.0229   76.5632 O   0  0  0  0  0  0  0  0  0  0  0  0
   90.1464   44.6945   72.9535 N   0  0  0  0  0  0  0  0  0  0  0  0
  1  2  2  0
  2  3  1  0
  3  4  2  0
  3  5  1  0
  5  6  1  0
  4  7  1  0
  7  8  1  0
  8  9  1  0
  9 10  1  0
  9 11  1  0
 11 12  1  0
  5 13  2  0
 10 14  1  0
  7 15  2  0
 13 15  1  0
 12 16  1  0
 14 16  1  0
 10 17  1  0
 14 18  1  0
  2 19  1  0
M  END
>  <ID>  (1) 
conformer_0

$$$$
