
     RDKit          3D

 29 30  0  0  0  0  0  0  0  0999 V2000
   98.0347   44.4605   75.9696 O   0  0  0  0  0  0  0  0  0  0  0  0
   97.8663   45.7408   75.4377 P   0  0  0  0  0  0  0  0  0  0  0  0
   96.6895   45.7165   74.4570 O   0  0  0  0  0  0  0  0  0  0  0  0
   96.2435   46.8446   73.6494 C   0  0  0  0  0  0  0  0  0  0  0  0
   94.8290   46.7936   73.3651 C   0  0  0  0  0  0  0  0  0  0  0  0
   94.6081   46.4409   72.0334 C   0  0  0  0  0  0  0  0  0  0  0  0
   94.2802   48.0655   73.7523 O   0  0  0  0  0  0  0  0  0  0  0  0
   93.6003   48.6039   72.6418 C   0  0  0  0  0  0  0  0  0  0  0  0
   93.6484   47.4924   71.6372 C   0  0  0  0  0  0  0  0  0  0  0  0
   93.9628   49.9351   72.3497 N   0  0  0  0  0  0  0  0  0  0  0  0
   97.5707   46.8700   76.3655 O   0  0  0  0  0  0  0  0  0  0  0  0
   93.3015   50.8070   71.5060 C   0  0  0  0  0  0  0  0  0  0  0  0
   92.3736   47.0068   71.2926 N   0  0  0  0  0  0  0  0  0  0  0  0
   99.0267   46.0917   74.4044 O   0  0  0  0  0  0  0  0  0  0  0  0
  100.4747   45.3787   74.4810 P   0  0  0  0  0  0  0  0  0  0  0  0
   95.2053   50.4753   72.8381 C   0  0  0  0  0  0  0  0  0  0  0  0
   91.7930   46.0799   72.0651 C   0  0  0  0  0  0  0  0  0  0  0  0
   92.2066   45.5172   73.1857 O   0  0  0  0  0  0  0  0  0  0  0  0
   95.9739   49.8561   73.7062 O   0  0  0  0  0  0  0  0  0  0  0  0
   93.9081   51.9454   71.3028 N   0  0  0  0  0  0  0  0  0  0  0  0
   92.0121   50.3683   70.8989 C   0  0  0  0  0  0  0  0  0  0  0  0
  100.1750   43.9191   74.5940 O   0  0  0  0  0  0  0  0  0  0  0  0
   90.4232   45.6065   71.6740 C   0  0  0  0  0  0  0  0  0  0  0  0
  101.0298   45.7085   73.0515 O   0  0  0  0  0  0  0  0  0  0  0  0
   95.2424   51.8443   72.2755 C   0  0  0  0  0  0  0  0  0  0  0  0
  101.2852   45.8230   75.6386 O   0  0  0  0  0  0  0  0  0  0  0  0
   96.1517   52.6560   72.4066 O   0  0  0  0  0  0  0  0  0  0  0  0
   89.9683   45.7581   70.6552 O   0  0  0  0  0  0  0  0  0  0  0  0
   89.9890   44.5303   72.5440 N   0  0  0  0  0  0  0  0  0  0  0  0
  1  2  2  0
  2  3  1  0
  3  4  1  0
  4  5  1  0
  5  6  1  0
  5  7  1  0
  7  8  1  0
  6  9  1  0
  8  9  1  0
  8 10  1  0
  2 11  1  0
 10 12  1  0
  9 13  1  0
  2 14  1  0
 14 15  1  0
 10 16  1  0
 13 17  1  0
 17 18  2  0
 16 19  2  0
 12 20  2  0
 12 21  1  0
 15 22  1  0
 17 23  1  0
 15 24  2  0
 16 25  1  0
 20 25  1  0
 15 26  1  0
 25 27  2  0
 23 28  2  0
 23 29  1  0
M  END
>  <ID>  (1) 
conformer_0

$$$$
