
     RDKit          3D

 28 29  0  0  0  0  0  0  0  0999 V2000
   99.7468   44.2702   75.3623 O   0  0  0  0  0  0  0  0  0  0  0  0
   98.6531   45.1854   75.6618 P   0  0  0  0  0  0  0  0  0  0  0  0
   97.6682   45.1540   74.6538 O   0  0  0  0  0  0  0  0  0  0  0  0
   96.7350   46.1900   74.3763 C   0  0  0  0  0  0  0  0  0  0  0  0
   96.6245   47.2359   75.2219 C   0  0  0  0  0  0  0  0  0  0  0  0
   95.4464   46.0280   73.8103 C   0  0  0  0  0  0  0  0  0  0  0  0
   95.0034   46.9341   72.8976 O   0  0  0  0  0  0  0  0  0  0  0  0
   93.7389   46.8561   72.2524 C   0  0  0  0  0  0  0  0  0  0  0  0
   98.0612   44.9547   77.0579 O   0  0  0  0  0  0  0  0  0  0  0  0
   99.4582   46.5445   75.6648 O   0  0  0  0  0  0  0  0  0  0  0  0
   97.0042   48.5485   74.8659 N   0  0  0  0  0  0  0  0  0  0  0  0
   93.0255   45.7733   72.4855 C   0  0  0  0  0  0  0  0  0  0  0  0
   96.1847   49.5967   74.8901 C   0  0  0  0  0  0  0  0  0  0  0  0
   98.3041   48.9424   75.1237 C   0  0  0  0  0  0  0  0  0  0  0  0
   94.0344   47.2038   70.8400 C   0  0  0  0  0  0  0  0  0  0  0  0
   96.4389   50.5533   74.0695 C   0  0  0  0  0  0  0  0  0  0  0  0
   92.8600   47.2555   70.0862 C   0  0  0  0  0  0  0  0  0  0  0  0
   95.9492   47.1157   76.3250 O   0  0  0  0  0  0  0  0  0  0  0  0
   95.3045   51.6352   73.7006 C   0  0  0  0  0  0  0  0  0  0  0  0
   94.7223   48.5306   70.6926 O   0  0  0  0  0  0  0  0  0  0  0  0
   91.6838   45.8235   71.6524 C   0  0  0  0  0  0  0  0  0  0  0  0
   90.8071   44.7163   71.8920 C   0  0  0  0  0  0  0  0  0  0  0  0
   95.6895   52.5619   72.9019 O   0  0  0  0  0  0  0  0  0  0  0  0
   91.9551   46.1460   70.2869 O   0  0  0  0  0  0  0  0  0  0  0  0
   97.7689   50.8671   73.7165 C   0  0  0  0  0  0  0  0  0  0  0  0
   89.9337   44.7968   72.8493 O   0  0  0  0  0  0  0  0  0  0  0  0
   98.6080   50.0731   74.2985 C   0  0  0  0  0  0  0  0  0  0  0  0
   94.1784   51.3795   74.0593 O   0  0  0  0  0  0  0  0  0  0  0  0
  1  2  1  0
  2  3  1  0
  3  4  1  0
  4  5  1  0
  4  6  1  0
  6  7  1  0
  7  8  1  0
  2  9  1  0
  2 10  2  0
  5 11  1  0
  8 12  1  0
 11 13  1  0
 11 14  1  0
  8 15  1  0
 13 16  1  0
 15 17  1  0
  5 18  2  0
 16 19  1  0
 15 20  1  0
 12 21  1  0
 21 22  1  0
 19 23  2  0
 17 24  1  0
 21 24  1  0
 16 25  2  0
 22 26  1  0
 14 27  2  0
 25 27  1  0
 19 28  1  0
M  END
>  <ID>  (1) 
conformer_0

$$$$
