
     RDKit          3D

 23 26  0  0  0  0  0  0  0  0999 V2000
   91.6707   44.8222   72.0024 C   0  0  0  0  0  0  0  0  0  0  0  0
   92.3670   45.7219   71.6892 C   0  0  0  0  0  0  0  0  0  0  0  0
   91.8048   46.7420   71.0614 C   0  0  0  0  0  0  0  0  0  0  0  0
   93.7913   45.7332   71.7926 C   0  0  0  0  0  0  0  0  0  0  0  0
   94.4614   46.9241   71.9923 N   0  0  0  0  0  0  0  0  0  0  0  0
   92.0482   43.6146   72.7998 F   0  0  0  0  0  0  0  0  0  0  0  0
   95.4007   47.0820   72.9841 C   0  0  0  0  0  0  0  0  0  0  0  0
   96.0853   48.3410   73.0677 N   0  0  0  0  0  0  0  0  0  0  0  0
   94.1023   48.1374   71.4260 C   0  0  0  0  0  0  0  0  0  0  0  0
   95.7241   46.1941   73.9892 C   0  0  0  0  0  0  0  0  0  0  0  0
   96.9910   48.3176   74.1971 C   0  0  0  0  0  0  0  0  0  0  0  0
   97.2247   47.4313   75.0979 C   0  0  0  0  0  0  0  0  0  0  0  0
   94.2611   49.3535   71.8620 N   0  0  0  0  0  0  0  0  0  0  0  0
   90.6858   46.8003   70.5074 C   0  0  0  0  0  0  0  0  0  0  0  0
   92.8202   48.0110   70.7798 C   0  0  0  0  0  0  0  0  0  0  0  0
   90.2799   44.7667   71.7353 N   0  0  0  0  0  0  0  0  0  0  0  0
   96.5169   46.2863   74.9873 C   0  0  0  0  0  0  0  0  0  0  0  0
   93.1304   50.1198   71.9271 C   0  0  0  0  0  0  0  0  0  0  0  0
   96.8466   45.3070   75.7653 O   0  0  0  0  0  0  0  0  0  0  0  0
   98.1886   47.6847   76.1147 O   0  0  0  0  0  0  0  0  0  0  0  0
   93.2894   51.4829   71.6819 C   0  0  0  0  0  0  0  0  0  0  0  0
   89.8084   45.7824   71.0935 C   0  0  0  0  0  0  0  0  0  0  0  0
   92.1906   49.3526   71.2700 C   0  0  0  0  0  0  0  0  0  0  0  0
  1  2  2  0
  2  3  1  0
  2  4  1  0
  4  5  1  0
  1  6  1  0
  5  7  1  0
  7  8  2  0
  5  9  1  0
  7 10  1  0
  8 11  1  0
 11 12  2  0
  9 13  1  0
  3 14  2  0
  3 15  1  0
  9 15  1  0
  1 16  1  0
 10 17  2  0
 12 17  1  0
 13 18  1  0
 17 19  1  0
 12 20  1  0
 18 21  1  0
 14 22  1  0
 16 22  2  0
 15 23  1  0
 18 23  1  0
M  END
>  <ID>  (1) 
conformer_0

$$$$
