
     RDKit          3D

 25 27  0  0  0  0  0  0  0  0999 V2000
   92.8737   45.3803   72.0140 C   0  0  0  0  0  0  0  0  0  0  0  0
   93.3942   46.4167   71.6980 C   0  0  0  0  0  0  0  0  0  0  0  0
   92.5319   47.3703   70.9850 C   0  0  0  0  0  0  0  0  0  0  0  0
   91.4721   45.0464   71.8056 C   0  0  0  0  0  0  0  0  0  0  0  0
   94.7858   46.7260   71.9106 C   0  0  0  0  0  0  0  0  0  0  0  0
   95.3285   46.2873   73.1855 O   0  0  0  0  0  0  0  0  0  0  0  0
   96.4178   46.8597   73.8246 C   0  0  0  0  0  0  0  0  0  0  0  0
   96.1292   48.0033   74.3939 O   0  0  0  0  0  0  0  0  0  0  0  0
   93.2396   48.6631   70.5721 N   0  0  0  0  0  0  0  0  0  0  0  0
   96.7264   48.3611   75.7026 C   0  0  0  0  0  0  0  0  0  0  0  0
   96.8334   45.9180   74.9428 C   0  0  0  0  0  0  0  0  0  0  0  0
   93.5173   49.6191   71.5143 C   0  0  0  0  0  0  0  0  0  0  0  0
   97.5302   49.4478   75.7124 C   0  0  0  0  0  0  0  0  0  0  0  0
   90.7236   45.9849   71.1388 C   0  0  0  0  0  0  0  0  0  0  0  0
   94.4223   50.5675   71.2562 N   0  0  0  0  0  0  0  0  0  0  0  0
   97.3486   50.3804   74.8362 O   0  0  0  0  0  0  0  0  0  0  0  0
   90.8081   43.6359   72.4811 Cl  0  0  0  0  0  0  0  0  0  0  0  0
   93.2029   49.5894   72.9076 N   0  0  0  0  0  0  0  0  0  0  0  0
   93.9219   50.6915   73.3671 C   0  0  0  0  0  0  0  0  0  0  0  0
   94.6596   51.2840   72.3401 N   0  0  0  0  0  0  0  0  0  0  0  0
   97.8554   44.9519   74.7635 O   0  0  0  0  0  0  0  0  0  0  0  0
   97.5630   46.9273   75.8789 C   0  0  0  0  0  0  0  0  0  0  0  0
   89.2425   45.8772   70.9235 O   0  0  0  0  0  0  0  0  0  0  0  0
   91.2795   47.2517   70.7268 C   0  0  0  0  0  0  0  0  0  0  0  0
   98.9354   47.2907   75.6912 O   0  0  0  0  0  0  0  0  0  0  0  0
  1  2  2  0
  2  3  1  0
  1  4  1  0
  2  5  1  0
  5  6  1  0
  6  7  1  0
  7  8  1  0
  3  9  1  0
  8 10  1  0
  7 11  1  0
  9 12  1  0
 10 13  1  0
  4 14  2  0
 12 15  2  0
 13 16  1  0
  4 17  1  0
 12 18  1  0
 18 19  1  0
 15 20  1  0
 19 20  2  0
 11 21  1  0
 10 22  1  0
 11 22  1  0
 14 23  1  0
  3 24  2  0
 14 24  1  0
 22 25  1  0
M  END
>  <ID>  (1) 
conformer_0

$$$$
