
     RDKit          3D

 19 21  0  0  0  0  0  0  0  0999 V2000
   89.4355   44.9143   72.1831 O   0  0  0  0  0  0  0  0  0  0  0  0
   90.2824   45.6449   71.6951 C   0  0  0  0  0  0  0  0  0  0  0  0
   91.6400   45.6352   72.2215 C   0  0  0  0  0  0  0  0  0  0  0  0
   90.0512   46.3079   70.6152 N   0  0  0  0  0  0  0  0  0  0  0  0
   92.5543   46.5387   71.5931 C   0  0  0  0  0  0  0  0  0  0  0  0
   93.8983   46.5751   72.2014 N   0  0  0  0  0  0  0  0  0  0  0  0
   94.6619   47.6195   71.9145 C   0  0  0  0  0  0  0  0  0  0  0  0
   94.2103   48.8680   72.4286 O   0  0  0  0  0  0  0  0  0  0  0  0
   94.1533   45.7773   73.2674 C   0  0  0  0  0  0  0  0  0  0  0  0
   95.9697   47.3184   72.4913 C   0  0  0  0  0  0  0  0  0  0  0  0
   96.6847   48.4838   72.9532 O   0  0  0  0  0  0  0  0  0  0  0  0
   96.0664   49.1635   74.0622 C   0  0  0  0  0  0  0  0  0  0  0  0
   95.6558   46.3168   73.6341 C   0  0  0  0  0  0  0  0  0  0  0  0
   92.2065   47.2152   70.5326 C   0  0  0  0  0  0  0  0  0  0  0  0
   91.0267   47.3141   70.0223 C   0  0  0  0  0  0  0  0  0  0  0  0
   94.8234   49.8842   73.1263 C   0  0  0  0  0  0  0  0  0  0  0  0
   93.9786   50.8499   73.7175 C   0  0  0  0  0  0  0  0  0  0  0  0
   95.6817   46.8026   75.0000 O   0  0  0  0  0  0  0  0  0  0  0  0
   96.5901   50.1107   74.7561 O   0  0  0  0  0  0  0  0  0  0  0  0
  1  2  2  0
  2  3  1  0
  2  4  1  0
  3  5  2  0
  5  6  1  0
  6  7  1  0
  7  8  1  0
  6  9  1  0
  7 10  1  0
 10 11  1  0
 11 12  1  0
  9 13  1  0
 10 13  1  0
  5 14  1  0
  4 15  2  0
 14 15  2  0
  8 16  1  0
 12 16  1  0
 16 17  1  0
 13 18  1  0
 12 19  1  0
M  END
>  <ID>  (1) 
conformer_0

$$$$
