
     RDKit          3D

 28 30  0  0  0  0  0  0  0  0999 V2000
   92.8737   45.3803   72.0140 C   0  0  0  0  0  0  0  0  0  0  0  0
   93.3942   46.4167   71.6980 C   0  0  0  0  0  0  0  0  0  0  0  0
   94.6901   46.7427   71.8675 C   0  0  0  0  0  0  0  0  0  0  0  0
   92.4547   47.2943   70.9657 C   0  0  0  0  0  0  0  0  0  0  0  0
   94.9570   47.5712   72.9338 N   0  0  0  0  0  0  0  0  0  0  0  0
   96.1874   47.7516   73.5674 C   0  0  0  0  0  0  0  0  0  0  0  0
   96.1063   48.3679   74.8509 C   0  0  0  0  0  0  0  0  0  0  0  0
   96.5817   47.7612   75.8901 O   0  0  0  0  0  0  0  0  0  0  0  0
   94.8707   48.9935   75.0732 O   0  0  0  0  0  0  0  0  0  0  0  0
   97.1860   48.4288   72.7666 O   0  0  0  0  0  0  0  0  0  0  0  0
   98.0923   49.1595   73.5719 C   0  0  0  0  0  0  0  0  0  0  0  0
   97.2927   46.4620   75.7538 C   0  0  0  0  0  0  0  0  0  0  0  0
   97.1155   49.7245   74.5987 C   0  0  0  0  0  0  0  0  0  0  0  0
   97.7174   50.1230   75.7924 O   0  0  0  0  0  0  0  0  0  0  0  0
   91.2307   47.0913   70.6796 C   0  0  0  0  0  0  0  0  0  0  0  0
   93.5609   44.4228   72.6661 O   0  0  0  0  0  0  0  0  0  0  0  0
   99.2080   48.4274   74.1598 C   0  0  0  0  0  0  0  0  0  0  0  0
   90.6514   45.9238   71.1810 C   0  0  0  0  0  0  0  0  0  0  0  0
   91.4356   45.0491   71.8595 C   0  0  0  0  0  0  0  0  0  0  0  0
   90.9306   43.8692   72.4259 O   0  0  0  0  0  0  0  0  0  0  0  0
   98.5963   46.2772   75.9414 C   0  0  0  0  0  0  0  0  0  0  0  0
   99.1620   45.0347   75.8569 O   0  0  0  0  0  0  0  0  0  0  0  0
   99.2824   47.0102   76.8413 O   0  0  0  0  0  0  0  0  0  0  0  0
   89.3694   45.7273   71.1858 O   0  0  0  0  0  0  0  0  0  0  0  0
   90.7749   43.7131   73.7177 C   0  0  0  0  0  0  0  0  0  0  0  0
   99.0407   47.1271   73.8071 O   0  0  0  0  0  0  0  0  0  0  0  0
   99.1968   44.5772   74.3343 C   0  0  0  0  0  0  0  0  0  0  0  0
  100.1047   46.2055   73.7603 C   0  0  0  0  0  0  0  0  0  0  0  0
  1  2  1  0
  2  3  1  0
  2  4  2  0
  3  5  1  0
  5  6  1  0
  6  7  1  0
  7  8  1  0
  7  9  1  0
  6 10  1  0
 10 11  1  0
  8 12  1  0
  7 13  1  0
 11 13  1  0
 13 14  1  0
  4 15  1  0
  1 16  1  0
 11 17  1  0
 15 18  2  0
  1 19  2  0
 18 19  1  0
 19 20  1  0
 12 21  1  0
 21 22  1  0
 21 23  2  0
 18 24  1  0
 20 25  1  0
 17 26  1  0
 22 27  1  0
 26 28  1  0
 27 28  1  0
M  END
>  <ID>  (1) 
conformer_0

$$$$
