
     RDKit          3D

 28 30  0  0  0  0  0  0  0  0999 V2000
   92.8737   45.3803   72.0140 C   0  0  0  0  0  0  0  0  0  0  0  0
   93.3942   46.4167   71.6980 C   0  0  0  0  0  0  0  0  0  0  0  0
   92.5319   47.3703   70.9850 C   0  0  0  0  0  0  0  0  0  0  0  0
   91.4721   45.0464   71.8056 C   0  0  0  0  0  0  0  0  0  0  0  0
   94.7858   46.7260   71.9106 C   0  0  0  0  0  0  0  0  0  0  0  0
   95.3285   46.2873   73.1855 O   0  0  0  0  0  0  0  0  0  0  0  0
   96.4178   46.8597   73.8246 C   0  0  0  0  0  0  0  0  0  0  0  0
   96.1292   48.0033   74.3939 O   0  0  0  0  0  0  0  0  0  0  0  0
   93.2396   48.6631   70.5721 N   0  0  0  0  0  0  0  0  0  0  0  0
   96.7264   48.3611   75.7026 C   0  0  0  0  0  0  0  0  0  0  0  0
   96.8334   45.9180   74.9428 C   0  0  0  0  0  0  0  0  0  0  0  0
   93.5173   49.6191   71.5143 C   0  0  0  0  0  0  0  0  0  0  0  0
   97.5302   49.4478   75.7124 C   0  0  0  0  0  0  0  0  0  0  0  0
   90.7236   45.9849   71.1388 C   0  0  0  0  0  0  0  0  0  0  0  0
   94.4223   50.5675   71.2562 N   0  0  0  0  0  0  0  0  0  0  0  0
   97.3486   50.3804   74.8362 O   0  0  0  0  0  0  0  0  0  0  0  0
   91.2851   47.1950   70.7617 C   0  0  0  0  0  0  0  0  0  0  0  0
   97.6298   47.0112   75.8096 C   0  0  0  0  0  0  0  0  0  0  0  0
   94.9305   51.5277   72.1080 C   0  0  0  0  0  0  0  0  0  0  0  0
   98.9852   47.1686   75.5468 O   0  0  0  0  0  0  0  0  0  0  0  0
   90.8074   43.6481   72.4817 Cl  0  0  0  0  0  0  0  0  0  0  0  0
   94.8686   51.1771   73.4917 N   0  0  0  0  0  0  0  0  0  0  0  0
  100.0456   46.6981   76.4760 C   0  0  0  0  0  0  0  0  0  0  0  0
   93.6738   49.2489   73.0723 C   0  0  0  0  0  0  0  0  0  0  0  0
   94.2044   50.1402   73.8987 C   0  0  0  0  0  0  0  0  0  0  0  0
   97.9088   44.9525   74.5629 O   0  0  0  0  0  0  0  0  0  0  0  0
  100.1214   45.4160   76.7224 O   0  0  0  0  0  0  0  0  0  0  0  0
   95.7809   52.6372   71.6475 N   0  0  0  0  0  0  0  0  0  0  0  0
  1  2  2  0
  2  3  1  0
  1  4  1  0
  2  5  1  0
  5  6  1  0
  6  7  1  0
  7  8  1  0
  3  9  1  0
  8 10  1  0
  7 11  1  0
  9 12  1  0
 10 13  1  0
  4 14  2  0
 12 15  2  0
 13 16  1  0
  3 17  2  0
 14 17  1  0
 10 18  1  0
 11 18  1  0
 15 19  1  0
 18 20  1  0
  4 21  1  0
 19 22  2  0
 20 23  1  0
 12 24  1  0
 22 25  1  0
 24 25  2  0
 11 26  1  0
 23 27  1  0
 19 28  1  0
M  END
>  <ID>  (1) 
conformer_0

$$$$
