
     RDKit          3D

 27 29  0  0  0  0  0  0  0  0999 V2000
   92.8737   45.3803   72.0140 C   0  0  0  0  0  0  0  0  0  0  0  0
   93.3942   46.4167   71.6980 C   0  0  0  0  0  0  0  0  0  0  0  0
   92.5319   47.3703   70.9850 C   0  0  0  0  0  0  0  0  0  0  0  0
   91.4721   45.0464   71.8056 C   0  0  0  0  0  0  0  0  0  0  0  0
   94.7858   46.7260   71.9106 C   0  0  0  0  0  0  0  0  0  0  0  0
   95.3285   46.2873   73.1855 O   0  0  0  0  0  0  0  0  0  0  0  0
   96.4178   46.8597   73.8246 C   0  0  0  0  0  0  0  0  0  0  0  0
   96.1292   48.0033   74.3939 O   0  0  0  0  0  0  0  0  0  0  0  0
   93.2396   48.6631   70.5721 N   0  0  0  0  0  0  0  0  0  0  0  0
   96.7264   48.3611   75.7026 C   0  0  0  0  0  0  0  0  0  0  0  0
   96.8334   45.9180   74.9428 C   0  0  0  0  0  0  0  0  0  0  0  0
   93.5173   49.6191   71.5143 C   0  0  0  0  0  0  0  0  0  0  0  0
   97.5302   49.4478   75.7124 C   0  0  0  0  0  0  0  0  0  0  0  0
   90.7236   45.9849   71.1388 C   0  0  0  0  0  0  0  0  0  0  0  0
   94.4223   50.5675   71.2562 N   0  0  0  0  0  0  0  0  0  0  0  0
   90.8137   43.6341   72.4786 Cl  0  0  0  0  0  0  0  0  0  0  0  0
   97.8688   44.9726   74.7100 O   0  0  0  0  0  0  0  0  0  0  0  0
   99.2024   44.9364   75.4083 P   0  0  0  0  0  0  0  0  0  0  0  0
   94.7899   51.4014   72.3225 C   0  0  0  0  0  0  0  0  0  0  0  0
   97.1568   46.8646   76.0099 C   0  0  0  0  0  0  0  0  0  0  0  0
   91.2868   47.2300   70.7702 C   0  0  0  0  0  0  0  0  0  0  0  0
   97.4085   50.2809   74.6492 O   0  0  0  0  0  0  0  0  0  0  0  0
   94.5679   51.0428   73.5212 C   0  0  0  0  0  0  0  0  0  0  0  0
  100.0766   43.9519   74.7539 O   0  0  0  0  0  0  0  0  0  0  0  0
   93.6844   49.5804   73.2769 S   0  0  0  0  0  0  0  0  0  0  0  0
   99.5620   46.4241   75.0127 O   0  0  0  0  0  0  0  0  0  0  0  0
   99.0577   44.9396   76.8533 O   0  0  0  0  0  0  0  0  0  0  0  0
  1  2  2  0
  2  3  1  0
  1  4  1  0
  2  5  1  0
  5  6  1  0
  6  7  1  0
  7  8  1  0
  3  9  1  0
  8 10  1  0
  7 11  1  0
  9 12  1  0
 10 13  1  0
  4 14  2  0
 12 15  2  0
  4 16  1  0
 11 17  1  0
 17 18  1  0
 15 19  1  0
 10 20  1  0
 11 20  1  0
  3 21  2  0
 14 21  1  0
 13 22  1  0
 19 23  2  0
 18 24  2  0
 12 25  1  0
 23 25  1  0
 18 26  1  0
 18 27  1  0
M  END
>  <ID>  (1) 
conformer_0

$$$$
