
     RDKit          3D

 29 31  0  0  0  0  0  0  0  0999 V2000
   92.8737   45.3803   72.0140 C   0  0  0  0  0  0  0  0  0  0  0  0
   93.3942   46.4167   71.6980 C   0  0  0  0  0  0  0  0  0  0  0  0
   92.5319   47.3703   70.9850 C   0  0  0  0  0  0  0  0  0  0  0  0
   91.4721   45.0464   71.8056 C   0  0  0  0  0  0  0  0  0  0  0  0
   94.7858   46.7260   71.9106 C   0  0  0  0  0  0  0  0  0  0  0  0
   95.3285   46.2873   73.1855 O   0  0  0  0  0  0  0  0  0  0  0  0
   96.4178   46.8597   73.8246 C   0  0  0  0  0  0  0  0  0  0  0  0
   96.1292   48.0033   74.3939 O   0  0  0  0  0  0  0  0  0  0  0  0
   93.2396   48.6631   70.5721 N   0  0  0  0  0  0  0  0  0  0  0  0
   96.7264   48.3611   75.7026 C   0  0  0  0  0  0  0  0  0  0  0  0
   96.8334   45.9180   74.9428 C   0  0  0  0  0  0  0  0  0  0  0  0
   93.5173   49.6191   71.5143 C   0  0  0  0  0  0  0  0  0  0  0  0
   97.5302   49.4478   75.7124 C   0  0  0  0  0  0  0  0  0  0  0  0
   90.7236   45.9849   71.1388 C   0  0  0  0  0  0  0  0  0  0  0  0
   94.4223   50.5675   71.2562 N   0  0  0  0  0  0  0  0  0  0  0  0
   90.8137   43.6341   72.4786 Cl  0  0  0  0  0  0  0  0  0  0  0  0
   97.8688   44.9726   74.7100 O   0  0  0  0  0  0  0  0  0  0  0  0
   99.2024   44.9364   75.4083 P   0  0  0  0  0  0  0  0  0  0  0  0
   94.7899   51.4014   72.3225 C   0  0  0  0  0  0  0  0  0  0  0  0
   93.1077   49.4339   72.8678 C   0  0  0  0  0  0  0  0  0  0  0  0
   89.2260   45.8351   70.9150 O   0  0  0  0  0  0  0  0  0  0  0  0
   99.7988   46.2922   75.0421 O   0  0  0  0  0  0  0  0  0  0  0  0
   97.0705   50.4853   74.9577 O   0  0  0  0  0  0  0  0  0  0  0  0
   95.6893   52.3504   71.9903 O   0  0  0  0  0  0  0  0  0  0  0  0
   99.8557   43.7181   74.9791 O   0  0  0  0  0  0  0  0  0  0  0  0
   98.9117   45.0636   76.9044 O   0  0  0  0  0  0  0  0  0  0  0  0
   91.2393   47.3724   70.7176 C   0  0  0  0  0  0  0  0  0  0  0  0
   94.1651   50.8818   73.5195 C   0  0  0  0  0  0  0  0  0  0  0  0
   97.1916   46.9189   75.9948 O   0  0  0  0  0  0  0  0  0  0  0  0
  1  2  2  0
  2  3  1  0
  1  4  1  0
  2  5  1  0
  5  6  1  0
  6  7  1  0
  7  8  1  0
  3  9  1  0
  8 10  1  0
  7 11  1  0
  9 12  1  0
 10 13  1  0
  4 14  2  0
 12 15  2  0
  4 16  1  0
 11 17  1  0
 17 18  1  0
 15 19  1  0
 12 20  1  0
 14 21  1  0
 18 22  1  0
 13 23  1  0
 19 24  2  0
 18 25  2  0
 18 26  1  0
  3 27  2  0
 14 27  1  0
 19 28  1  0
 20 28  2  0
 10 29  1  0
 11 29  1  0
M  END
>  <ID>  (1) 
conformer_0

$$$$
