
     RDKit          3D

 22 25  0  0  0  0  0  0  0  0999 V2000
   89.8768   44.8128   72.7718 C   0  0  0  0  0  0  0  0  0  0  0  0
   89.9589   45.4406   71.5413 N   0  0  0  0  0  0  0  0  0  0  0  0
   91.1710   45.9969   71.3985 C   0  0  0  0  0  0  0  0  0  0  0  0
   92.1891   46.1523   72.1875 C   0  0  0  0  0  0  0  0  0  0  0  0
   93.3348   46.8386   71.8998 N   0  0  0  0  0  0  0  0  0  0  0  0
   94.4648   46.9228   72.5809 C   0  0  0  0  0  0  0  0  0  0  0  0
   93.3882   47.1371   70.5078 C   0  0  0  0  0  0  0  0  0  0  0  0
   94.5132   46.8742   73.8572 O   0  0  0  0  0  0  0  0  0  0  0  0
   93.6021   48.5583   70.2655 C   0  0  0  0  0  0  0  0  0  0  0  0
   94.1241   49.2185   71.5017 C   0  0  0  0  0  0  0  0  0  0  0  0
   95.0122   48.3315   72.1032 C   0  0  0  0  0  0  0  0  0  0  0  0
   95.7902   47.1619   74.5060 C   0  0  0  0  0  0  0  0  0  0  0  0
   91.9017   46.7585   70.1102 C   0  0  0  0  0  0  0  0  0  0  0  0
   96.3812   48.2558   73.7950 C   0  0  0  0  0  0  0  0  0  0  0  0
   96.7310   46.0868   74.4661 C   0  0  0  0  0  0  0  0  0  0  0  0
   97.7035   46.0803   75.5335 C   0  0  0  0  0  0  0  0  0  0  0  0
   91.8856   45.4482   73.5188 C   0  0  0  0  0  0  0  0  0  0  0  0
   95.6441   49.1112   73.0956 N   0  0  0  0  0  0  0  0  0  0  0  0
   90.7337   44.8650   73.6914 C   0  0  0  0  0  0  0  0  0  0  0  0
   93.0257   49.5926   72.3375 O   0  0  0  0  0  0  0  0  0  0  0  0
   97.6850   46.8768   76.3847 O   0  0  0  0  0  0  0  0  0  0  0  0
   98.4739   44.9075   75.6808 O   0  0  0  0  0  0  0  0  0  0  0  0
  1  2  1  0
  2  3  2  0
  3  4  1  0
  4  5  1  0
  5  6  1  0
  5  7  1  0
  6  8  1  0
  7  9  1  0
  9 10  1  0
  6 11  1  0
 10 11  1  0
  8 12  1  0
  3 13  1  0
  7 13  1  0
 12 14  1  0
 12 15  1  0
 15 16  1  0
  4 17  2  0
 11 18  1  0
 14 18  1  0
  1 19  2  0
 17 19  1  0
 10 20  1  0
 16 21  2  0
 16 22  1  0
M  END
>  <ID>  (1) 
conformer_0

$$$$
