
     RDKit          3D

 29 33  0  0  0  0  0  0  0  0999 V2000
   98.0347   44.4605   75.9696 O   0  0  0  0  0  0  0  0  0  0  0  0
   97.8663   45.7408   75.4377 P   0  0  0  0  0  0  0  0  0  0  0  0
   96.6895   45.7165   74.4570 O   0  0  0  0  0  0  0  0  0  0  0  0
   96.2435   46.8446   73.6494 C   0  0  0  0  0  0  0  0  0  0  0  0
   94.8290   46.7936   73.3651 C   0  0  0  0  0  0  0  0  0  0  0  0
   94.6081   46.4409   72.0334 C   0  0  0  0  0  0  0  0  0  0  0  0
   94.2802   48.0655   73.7523 O   0  0  0  0  0  0  0  0  0  0  0  0
   93.6003   48.6039   72.6418 C   0  0  0  0  0  0  0  0  0  0  0  0
   93.6484   47.4924   71.6372 C   0  0  0  0  0  0  0  0  0  0  0  0
   93.9628   49.9351   72.3497 N   0  0  0  0  0  0  0  0  0  0  0  0
   97.5707   46.8700   76.3655 O   0  0  0  0  0  0  0  0  0  0  0  0
   93.3015   50.8070   71.5060 C   0  0  0  0  0  0  0  0  0  0  0  0
   93.9808   52.0492   71.4165 N   0  0  0  0  0  0  0  0  0  0  0  0
   92.3111   46.9400   71.5054 N   0  0  0  0  0  0  0  0  0  0  0  0
   94.1006   45.1969   71.8866 O   0  0  0  0  0  0  0  0  0  0  0  0
   91.4209   47.2858   70.5722 C   0  0  0  0  0  0  0  0  0  0  0  0
   91.7530   46.0345   72.4232 C   0  0  0  0  0  0  0  0  0  0  0  0
   95.1377   50.3568   72.9943 C   0  0  0  0  0  0  0  0  0  0  0  0
   90.3441   46.7283   70.4795 C   0  0  0  0  0  0  0  0  0  0  0  0
   95.9515   49.9872   73.8605 N   0  0  0  0  0  0  0  0  0  0  0  0
   89.7484   45.8828   71.3105 N   0  0  0  0  0  0  0  0  0  0  0  0
   97.0156   50.6982   74.2988 C   0  0  0  0  0  0  0  0  0  0  0  0
   97.2542   51.9110   73.8503 N   0  0  0  0  0  0  0  0  0  0  0  0
   95.2319   51.9394   72.2641 C   0  0  0  0  0  0  0  0  0  0  0  0
   90.5668   45.5481   72.2015 C   0  0  0  0  0  0  0  0  0  0  0  0
   99.0069   46.1194   74.3821 O   0  0  0  0  0  0  0  0  0  0  0  0
   92.9666   45.1252   72.7734 C   0  0  0  0  0  0  0  0  0  0  0  0
   90.0817   44.6732   73.3296 N   0  0  0  0  0  0  0  0  0  0  0  0
   96.3541   52.5458   72.7716 C   0  0  0  0  0  0  0  0  0  0  0  0
  1  2  2  0
  2  3  1  0
  3  4  1  0
  4  5  1  0
  5  6  1  0
  5  7  1  0
  7  8  1  0
  6  9  1  0
  8  9  1  0
  8 10  1  0
  2 11  1  0
 10 12  1  0
 12 13  2  0
  9 14  1  0
  6 15  1  0
 14 16  1  0
 14 17  1  0
 10 18  1  0
 16 19  2  0
 18 20  1  0
 19 21  1  0
 20 22  2  0
 22 23  1  0
 13 24  1  0
 18 24  2  0
 17 25  1  0
 21 25  2  0
  2 26  1  0
 15 27  1  0
 17 27  1  0
 25 28  1  0
 23 29  2  0
 24 29  1  0
M  END
>  <ID>  (1) 
conformer_0

$$$$
