
     RDKit          3D

 21 23  0  0  0  0  0  0  0  0999 V2000
   91.6707   44.8222   72.0024 C   0  0  0  0  0  0  0  0  0  0  0  0
   92.3670   45.7219   71.6892 C   0  0  0  0  0  0  0  0  0  0  0  0
   91.8048   46.7420   71.0614 C   0  0  0  0  0  0  0  0  0  0  0  0
   93.7913   45.7332   71.7926 C   0  0  0  0  0  0  0  0  0  0  0  0
   94.4614   46.9241   71.9923 N   0  0  0  0  0  0  0  0  0  0  0  0
   92.0482   43.6146   72.7998 F   0  0  0  0  0  0  0  0  0  0  0  0
   95.4007   47.0820   72.9841 C   0  0  0  0  0  0  0  0  0  0  0  0
   96.0853   48.3410   73.0677 N   0  0  0  0  0  0  0  0  0  0  0  0
   94.1023   48.1374   71.4260 C   0  0  0  0  0  0  0  0  0  0  0  0
   97.0203   48.6502   74.0037 C   0  0  0  0  0  0  0  0  0  0  0  0
   95.9091   46.0422   73.6719 N   0  0  0  0  0  0  0  0  0  0  0  0
   96.8872   46.3073   74.6722 C   0  0  0  0  0  0  0  0  0  0  0  0
   97.4938   49.8942   74.1411 O   0  0  0  0  0  0  0  0  0  0  0  0
   97.3968   47.5307   74.8563 C   0  0  0  0  0  0  0  0  0  0  0  0
   92.6759   48.0583   71.0431 C   0  0  0  0  0  0  0  0  0  0  0  0
   90.5038   46.7093   71.0614 C   0  0  0  0  0  0  0  0  0  0  0  0
   90.1890   44.7159   71.8879 N   0  0  0  0  0  0  0  0  0  0  0  0
   97.0113   45.4467   75.5185 O   0  0  0  0  0  0  0  0  0  0  0  0
   96.7030   50.9235   74.0700 C   0  0  0  0  0  0  0  0  0  0  0  0
   98.4351   47.8012   75.9712 O   0  0  0  0  0  0  0  0  0  0  0  0
   89.7162   45.7599   71.4009 C   0  0  0  0  0  0  0  0  0  0  0  0
  1  2  2  0
  2  3  1  0
  2  4  1  0
  4  5  1  0
  1  6  1  0
  5  7  1  0
  7  8  2  0
  5  9  1  0
  8 10  1  0
  7 11  1  0
 11 12  1  0
 10 13  1  0
 10 14  2  0
 12 14  1  0
  3 15  1  0
  9 15  2  0
  3 16  2  0
  1 17  1  0
 12 18  2  0
 13 19  1  0
 14 20  1  0
 16 21  1  0
 17 21  2  0
M  END
>  <ID>  (1) 
conformer_0

$$$$
