
     RDKit          3D

 22 23  0  0  0  0  0  0  0  0999 V2000
   92.8737   45.3803   72.0140 C   0  0  0  0  0  0  0  0  0  0  0  0
   93.3942   46.4167   71.6980 C   0  0  0  0  0  0  0  0  0  0  0  0
   92.5319   47.3703   70.9850 C   0  0  0  0  0  0  0  0  0  0  0  0
   91.4721   45.0464   71.8056 C   0  0  0  0  0  0  0  0  0  0  0  0
   94.7858   46.7260   71.9106 C   0  0  0  0  0  0  0  0  0  0  0  0
   95.3285   46.2873   73.1855 O   0  0  0  0  0  0  0  0  0  0  0  0
   93.2035   48.6461   70.5134 C   0  0  0  0  0  0  0  0  0  0  0  0
   91.4257   47.2361   70.6526 C   0  0  0  0  0  0  0  0  0  0  0  0
   95.8249   46.9666   74.2091 C   0  0  0  0  0  0  0  0  0  0  0  0
   90.7311   45.9931   71.1143 C   0  0  0  0  0  0  0  0  0  0  0  0
   89.3237   45.6713   71.1562 O   0  0  0  0  0  0  0  0  0  0  0  0
   96.5099   46.3766   75.1850 C   0  0  0  0  0  0  0  0  0  0  0  0
   96.6255   48.1974   73.6492 O   0  0  0  0  0  0  0  0  0  0  0  0
   97.7528   48.2396   74.3154 C   0  0  0  0  0  0  0  0  0  0  0  0
   92.9700   49.7685   71.0181 O   0  0  0  0  0  0  0  0  0  0  0  0
   90.7570   43.9140   72.4692 O   0  0  0  0  0  0  0  0  0  0  0  0
   98.8677   48.5501   73.6368 O   0  0  0  0  0  0  0  0  0  0  0  0
   90.3927   43.9390   73.7767 C   0  0  0  0  0  0  0  0  0  0  0  0
   93.9282   50.7193   71.4611 C   0  0  0  0  0  0  0  0  0  0  0  0
   97.9902   46.7766   74.8459 C   0  0  0  0  0  0  0  0  0  0  0  0
   96.4717   45.0091   75.2545 O   0  0  0  0  0  0  0  0  0  0  0  0
   98.8029   46.7298   76.0086 O   0  0  0  0  0  0  0  0  0  0  0  0
  1  2  2  0
  2  3  1  0
  1  4  1  0
  2  5  1  0
  5  6  1  0
  3  7  1  0
  3  8  2  0
  6  9  1  0
  4 10  2  0
  8 10  1  0
 10 11  1  0
  9 12  1  0
  9 13  1  0
 13 14  1  0
  7 15  1  0
  4 16  1  0
 14 17  1  0
 16 18  1  0
 15 19  1  0
 12 20  1  0
 14 20  1  0
 12 21  1  0
 20 22  1  0
M  END
>  <ID>  (1) 
conformer_0

$$$$
