
     RDKit          3D

 21 24  0  0  0  0  0  0  0  0999 V2000
   89.4355   44.9143   72.1831 O   0  0  0  0  0  0  0  0  0  0  0  0
   90.2824   45.6449   71.6951 C   0  0  0  0  0  0  0  0  0  0  0  0
   91.6400   45.6352   72.2215 C   0  0  0  0  0  0  0  0  0  0  0  0
   90.0512   46.3079   70.6152 N   0  0  0  0  0  0  0  0  0  0  0  0
   92.5543   46.5387   71.5931 C   0  0  0  0  0  0  0  0  0  0  0  0
   93.8983   46.5751   72.2014 N   0  0  0  0  0  0  0  0  0  0  0  0
   94.6619   47.6195   71.9145 C   0  0  0  0  0  0  0  0  0  0  0  0
   94.2103   48.8680   72.4286 O   0  0  0  0  0  0  0  0  0  0  0  0
   94.1533   45.7773   73.2674 C   0  0  0  0  0  0  0  0  0  0  0  0
   95.9697   47.3184   72.4913 C   0  0  0  0  0  0  0  0  0  0  0  0
   96.6847   48.4838   72.9532 O   0  0  0  0  0  0  0  0  0  0  0  0
   96.0664   49.1635   74.0622 C   0  0  0  0  0  0  0  0  0  0  0  0
   95.6558   46.3168   73.6341 C   0  0  0  0  0  0  0  0  0  0  0  0
   92.2065   47.2152   70.5326 C   0  0  0  0  0  0  0  0  0  0  0  0
   90.9430   47.1313   70.0317 C   0  0  0  0  0  0  0  0  0  0  0  0
   95.6230   46.8562   74.9994 O   0  0  0  0  0  0  0  0  0  0  0  0
   95.0199   49.7667   73.1570 C   0  0  0  0  0  0  0  0  0  0  0  0
   94.2112   50.9262   73.6332 C   0  0  0  0  0  0  0  0  0  0  0  0
   96.2834   48.1182   74.9772 C   0  0  0  0  0  0  0  0  0  0  0  0
   90.5465   47.8479   69.0457 O   0  0  0  0  0  0  0  0  0  0  0  0
   96.5929   48.5308   76.0962 O   0  0  0  0  0  0  0  0  0  0  0  0
  1  2  2  0
  2  3  1  0
  2  4  1  0
  3  5  2  0
  5  6  1  0
  6  7  1  0
  7  8  1  0
  6  9  1  0
  7 10  1  0
 10 11  1  0
 11 12  1  0
  9 13  1  0
 10 13  1  0
  5 14  1  0
  4 15  1  0
 14 15  1  0
 13 16  1  0
  8 17  1  0
 12 17  1  0
 17 18  1  0
 12 19  1  0
 16 19  1  0
 15 20  2  0
 19 21  2  0
M  END
>  <ID>  (1) 
conformer_0

$$$$
