
     RDKit          3D

 19 20  0  0  0  0  0  0  0  0999 V2000
   92.8737   45.3803   72.0140 C   0  0  0  0  0  0  0  0  0  0  0  0
   93.3942   46.4167   71.6980 C   0  0  0  0  0  0  0  0  0  0  0  0
   92.5380   47.3427   70.9854 C   0  0  0  0  0  0  0  0  0  0  0  0
   93.3130   48.6006   70.5587 C   0  0  0  0  0  0  0  0  0  0  0  0
   94.3906   48.9605   71.3661 C   0  0  0  0  0  0  0  0  0  0  0  0
   94.9155   50.3478   71.1368 O   0  0  0  0  0  0  0  0  0  0  0  0
   95.0016   51.0996   72.1455 C   0  0  0  0  0  0  0  0  0  0  0  0
   96.2803   51.1508   72.8703 C   0  0  0  0  0  0  0  0  0  0  0  0
   96.2677   50.4831   74.0969 O   0  0  0  0  0  0  0  0  0  0  0  0
   91.4361   46.8019   70.3224 C   0  0  0  0  0  0  0  0  0  0  0  0
   95.0103   47.9196   72.1415 C   0  0  0  0  0  0  0  0  0  0  0  0
   90.9411   45.6252   70.6609 C   0  0  0  0  0  0  0  0  0  0  0  0
   97.3174   49.9565   74.6226 C   0  0  0  0  0  0  0  0  0  0  0  0
   94.5241   46.8032   72.3948 C   0  0  0  0  0  0  0  0  0  0  0  0
   89.6374   45.2707   70.2088 F   0  0  0  0  0  0  0  0  0  0  0  0
   93.3908   44.4056   72.9834 O   0  0  0  0  0  0  0  0  0  0  0  0
   97.0457   48.8552   75.5807 C   0  0  0  0  0  0  0  0  0  0  0  0
   91.5307   44.8219   71.6401 C   0  0  0  0  0  0  0  0  0  0  0  0
   95.7982   48.3143   75.4724 O   0  0  0  0  0  0  0  0  0  0  0  0
  1  2  1  0
  2  3  2  0
  3  4  1  0
  4  5  2  0
  5  6  1  0
  6  7  1  0
  7  8  1  0
  8  9  1  0
  3 10  1  0
  5 11  1  0
 10 12  2  0
  9 13  1  0
  2 14  1  0
 11 14  2  0
 12 15  1  0
  1 16  1  0
 13 17  1  0
  1 18  2  0
 12 18  1  0
 17 19  1  0
M  END
>  <ID>  (1) 
conformer_0

$$$$
