
     RDKit          3D

 19 21  0  0  0  0  0  0  0  0999 V2000
   89.4355   44.9143   72.1831 O   0  0  0  0  0  0  0  0  0  0  0  0
   90.2824   45.6449   71.6951 C   0  0  0  0  0  0  0  0  0  0  0  0
   91.6400   45.6352   72.2215 C   0  0  0  0  0  0  0  0  0  0  0  0
   90.0512   46.3079   70.6152 N   0  0  0  0  0  0  0  0  0  0  0  0
   92.5543   46.5387   71.5931 C   0  0  0  0  0  0  0  0  0  0  0  0
   93.8983   46.5751   72.2014 N   0  0  0  0  0  0  0  0  0  0  0  0
   94.6619   47.6195   71.9145 C   0  0  0  0  0  0  0  0  0  0  0  0
   94.2103   48.8680   72.4286 O   0  0  0  0  0  0  0  0  0  0  0  0
   95.7991   47.3164   72.9829 C   0  0  0  0  0  0  0  0  0  0  0  0
   92.0285   47.1868   70.4409 N   0  0  0  0  0  0  0  0  0  0  0  0
   95.3192   49.8204   72.6450 C   0  0  0  0  0  0  0  0  0  0  0  0
   95.0026   50.9930   73.4230 C   0  0  0  0  0  0  0  0  0  0  0  0
   90.8898   47.1464   70.0370 C   0  0  0  0  0  0  0  0  0  0  0  0
   96.3471   48.9609   73.5227 C   0  0  0  0  0  0  0  0  0  0  0  0
   95.9248   51.9155   73.4811 O   0  0  0  0  0  0  0  0  0  0  0  0
   96.4161   48.9028   74.7900 O   0  0  0  0  0  0  0  0  0  0  0  0
   96.9625   46.6728   72.4529 O   0  0  0  0  0  0  0  0  0  0  0  0
   93.8955   45.5974   73.1131 C   0  0  0  0  0  0  0  0  0  0  0  0
   92.4417   44.9364   73.2888 N   0  0  0  0  0  0  0  0  0  0  0  0
  1  2  2  0
  2  3  1  0
  2  4  1  0
  3  5  2  0
  5  6  1  0
  6  7  1  0
  7  8  1  0
  7  9  1  0
  5 10  1  0
  8 11  1  0
 11 12  1  0
  4 13  2  0
 10 13  2  0
  9 14  1  0
 11 14  1  0
 12 15  1  0
 14 16  1  0
  9 17  1  0
  6 18  1  0
  3 19  1  0
 18 19  2  0
M  END
>  <ID>  (1) 
conformer_0

$$$$
