
     RDKit          3D

 26 28  0  0  0  0  0  0  0  0999 V2000
   92.8737   45.3803   72.0140 C   0  0  0  0  0  0  0  0  0  0  0  0
   93.3942   46.4167   71.6980 C   0  0  0  0  0  0  0  0  0  0  0  0
   92.5319   47.3703   70.9850 C   0  0  0  0  0  0  0  0  0  0  0  0
   91.4721   45.0464   71.8056 C   0  0  0  0  0  0  0  0  0  0  0  0
   94.7858   46.7260   71.9106 C   0  0  0  0  0  0  0  0  0  0  0  0
   95.3285   46.2873   73.1855 O   0  0  0  0  0  0  0  0  0  0  0  0
   96.4178   46.8597   73.8246 C   0  0  0  0  0  0  0  0  0  0  0  0
   96.1292   48.0033   74.3939 O   0  0  0  0  0  0  0  0  0  0  0  0
   93.2396   48.6631   70.5721 N   0  0  0  0  0  0  0  0  0  0  0  0
   96.7264   48.3611   75.7026 C   0  0  0  0  0  0  0  0  0  0  0  0
   96.8334   45.9180   74.9428 C   0  0  0  0  0  0  0  0  0  0  0  0
   93.5173   49.6191   71.5143 C   0  0  0  0  0  0  0  0  0  0  0  0
   97.5302   49.4478   75.7124 C   0  0  0  0  0  0  0  0  0  0  0  0
   90.7236   45.9849   71.1388 C   0  0  0  0  0  0  0  0  0  0  0  0
   94.4223   50.5675   71.2562 N   0  0  0  0  0  0  0  0  0  0  0  0
   97.3486   50.3804   74.8362 O   0  0  0  0  0  0  0  0  0  0  0  0
   90.8081   43.6359   72.4811 Cl  0  0  0  0  0  0  0  0  0  0  0  0
   91.2988   47.2211   70.7632 C   0  0  0  0  0  0  0  0  0  0  0  0
   97.3886   46.9253   75.8734 C   0  0  0  0  0  0  0  0  0  0  0  0
   94.9333   51.5293   72.1036 C   0  0  0  0  0  0  0  0  0  0  0  0
   93.1913   49.4184   72.9051 C   0  0  0  0  0  0  0  0  0  0  0  0
   95.7861   45.2118   75.5536 O   0  0  0  0  0  0  0  0  0  0  0  0
   98.7998   47.1935   75.7268 O   0  0  0  0  0  0  0  0  0  0  0  0
   95.8178   52.4502   71.7243 O   0  0  0  0  0  0  0  0  0  0  0  0
   94.5358   51.1551   73.4984 N   0  0  0  0  0  0  0  0  0  0  0  0
   93.8080   50.2031   73.8114 C   0  0  0  0  0  0  0  0  0  0  0  0
  1  2  2  0
  2  3  1  0
  1  4  1  0
  2  5  1  0
  5  6  1  0
  6  7  1  0
  7  8  1  0
  3  9  1  0
  8 10  1  0
  7 11  1  0
  9 12  1  0
 10 13  1  0
  4 14  2  0
 12 15  2  0
 13 16  1  0
  4 17  1  0
  3 18  2  0
 14 18  1  0
 10 19  1  0
 11 19  1  0
 15 20  1  0
 12 21  1  0
 11 22  1  0
 19 23  1  0
 20 24  2  0
 20 25  1  0
 21 26  1  0
 25 26  1  0
M  END
>  <ID>  (1) 
conformer_0

$$$$
