
     RDKit          3D

 26 29  0  0  0  0  0  0  0  0999 V2000
   92.8737   45.3803   72.0140 C   0  0  0  0  0  0  0  0  0  0  0  0
   93.3942   46.4167   71.6980 C   0  0  0  0  0  0  0  0  0  0  0  0
   92.5319   47.3703   70.9850 C   0  0  0  0  0  0  0  0  0  0  0  0
   91.4721   45.0464   71.8056 C   0  0  0  0  0  0  0  0  0  0  0  0
   94.7858   46.7260   71.9106 C   0  0  0  0  0  0  0  0  0  0  0  0
   95.3285   46.2873   73.1855 O   0  0  0  0  0  0  0  0  0  0  0  0
   93.2035   48.6461   70.5134 C   0  0  0  0  0  0  0  0  0  0  0  0
   91.4257   47.2361   70.6526 C   0  0  0  0  0  0  0  0  0  0  0  0
   95.8249   46.9666   74.2091 C   0  0  0  0  0  0  0  0  0  0  0  0
   90.7537   45.9448   71.1206 C   0  0  0  0  0  0  0  0  0  0  0  0
   95.3823   48.2136   74.3790 C   0  0  0  0  0  0  0  0  0  0  0  0
   97.0595   46.6313   74.7771 C   0  0  0  0  0  0  0  0  0  0  0  0
   93.3217   48.9987   69.5399 O   0  0  0  0  0  0  0  0  0  0  0  0
   97.5500   47.4511   75.7903 C   0  0  0  0  0  0  0  0  0  0  0  0
   90.8351   43.7588   72.4212 C   0  0  0  0  0  0  0  0  0  0  0  0
   94.1894   48.8330   73.7135 O   0  0  0  0  0  0  0  0  0  0  0  0
   94.1453   50.1340   73.6751 C   0  0  0  0  0  0  0  0  0  0  0  0
   95.9600   49.1238   75.3675 C   0  0  0  0  0  0  0  0  0  0  0  0
   95.3641   50.7351   73.6475 C   0  0  0  0  0  0  0  0  0  0  0  0
   97.6399   45.2257   74.4873 C   0  0  0  0  0  0  0  0  0  0  0  0
   96.9991   48.6340   76.0981 N   0  0  0  0  0  0  0  0  0  0  0  0
   93.8482   49.4019   71.4517 O   0  0  0  0  0  0  0  0  0  0  0  0
   95.6720   50.4614   75.1981 O   0  0  0  0  0  0  0  0  0  0  0  0
   97.5153   44.3654   75.3600 O   0  0  0  0  0  0  0  0  0  0  0  0
   98.9354   45.2291   73.9404 O   0  0  0  0  0  0  0  0  0  0  0  0
   93.1578   50.3445   72.2442 C   0  0  0  0  0  0  0  0  0  0  0  0
  1  2  2  0
  2  3  1  0
  1  4  1  0
  2  5  1  0
  5  6  1  0
  3  7  1  0
  3  8  2  0
  6  9  1  0
  4 10  2  0
  8 10  1  0
  9 11  2  0
  9 12  1  0
  7 13  2  0
 12 14  2  0
  4 15  1  0
 11 16  1  0
 16 17  1  0
 11 18  1  0
 17 19  1  0
 12 20  1  0
 14 21  1  0
 18 21  2  0
  7 22  1  0
 18 23  1  0
 19 23  1  0
 20 24  2  0
 20 25  1  0
 17 26  1  0
 22 26  1  0
M  END
>  <ID>  (1) 
conformer_0

$$$$
