
     RDKit          3D

 27 29  0  0  0  0  0  0  0  0999 V2000
   92.8737   45.3803   72.0140 C   0  0  0  0  0  0  0  0  0  0  0  0
   93.3942   46.4167   71.6980 C   0  0  0  0  0  0  0  0  0  0  0  0
   92.5319   47.3703   70.9850 C   0  0  0  0  0  0  0  0  0  0  0  0
   91.4721   45.0464   71.8056 C   0  0  0  0  0  0  0  0  0  0  0  0
   94.7858   46.7260   71.9106 C   0  0  0  0  0  0  0  0  0  0  0  0
   95.3285   46.2873   73.1855 O   0  0  0  0  0  0  0  0  0  0  0  0
   96.4178   46.8597   73.8246 C   0  0  0  0  0  0  0  0  0  0  0  0
   96.1292   48.0033   74.3939 O   0  0  0  0  0  0  0  0  0  0  0  0
   93.2396   48.6631   70.5721 N   0  0  0  0  0  0  0  0  0  0  0  0
   96.7264   48.3611   75.7026 C   0  0  0  0  0  0  0  0  0  0  0  0
   96.8334   45.9180   74.9428 C   0  0  0  0  0  0  0  0  0  0  0  0
   93.5173   49.6191   71.5143 C   0  0  0  0  0  0  0  0  0  0  0  0
   97.5302   49.4478   75.7124 C   0  0  0  0  0  0  0  0  0  0  0  0
   90.7236   45.9849   71.1388 C   0  0  0  0  0  0  0  0  0  0  0  0
   94.4223   50.5675   71.2562 N   0  0  0  0  0  0  0  0  0  0  0  0
   91.2855   47.1915   70.7587 C   0  0  0  0  0  0  0  0  0  0  0  0
   94.7870   51.4053   72.2986 C   0  0  0  0  0  0  0  0  0  0  0  0
   94.6279   51.0401   73.4950 C   0  0  0  0  0  0  0  0  0  0  0  0
   93.6428   49.3383   73.0721 S   0  0  0  0  0  0  0  0  0  0  0  0
   97.8826   44.9628   74.7195 O   0  0  0  0  0  0  0  0  0  0  0  0
   97.7236   47.0968   75.7614 C   0  0  0  0  0  0  0  0  0  0  0  0
   98.3623   49.6740   74.6853 O   0  0  0  0  0  0  0  0  0  0  0  0
   99.1388   44.9161   75.4587 P   0  0  0  0  0  0  0  0  0  0  0  0
   90.8477   43.8750   72.3264 F   0  0  0  0  0  0  0  0  0  0  0  0
   99.8684   46.1287   75.2976 O   0  0  0  0  0  0  0  0  0  0  0  0
   98.8568   44.8927   76.9457 O   0  0  0  0  0  0  0  0  0  0  0  0
   99.8137   43.5715   74.9781 O   0  0  0  0  0  0  0  0  0  0  0  0
  1  2  2  0
  2  3  1  0
  1  4  1  0
  2  5  1  0
  5  6  1  0
  6  7  1  0
  7  8  1  0
  3  9  1  0
  8 10  1  0
  7 11  1  0
  9 12  1  0
 10 13  1  0
  4 14  2  0
 12 15  2  0
  3 16  2  0
 14 16  1  0
 15 17  1  0
 17 18  2  0
 12 19  1  0
 18 19  1  0
 11 20  1  0
 10 21  1  0
 11 21  1  0
 13 22  1  0
 20 23  1  0
  4 24  1  0
 23 25  1  0
 23 26  1  0
 23 27  2  0
M  END
>  <ID>  (1) 
conformer_0

$$$$
