
     RDKit          3D

 29 30  0  0  0  0  0  0  0  0999 V2000
   98.0347   44.4605   75.9696 O   0  0  0  0  0  0  0  0  0  0  0  0
   97.8663   45.7408   75.4377 P   0  0  0  0  0  0  0  0  0  0  0  0
   96.6895   45.7165   74.4570 O   0  0  0  0  0  0  0  0  0  0  0  0
   96.2435   46.8446   73.6494 C   0  0  0  0  0  0  0  0  0  0  0  0
   94.8290   46.7936   73.3651 C   0  0  0  0  0  0  0  0  0  0  0  0
   94.6081   46.4409   72.0334 C   0  0  0  0  0  0  0  0  0  0  0  0
   94.2802   48.0655   73.7523 O   0  0  0  0  0  0  0  0  0  0  0  0
   93.6003   48.6039   72.6418 C   0  0  0  0  0  0  0  0  0  0  0  0
   93.6484   47.4924   71.6372 C   0  0  0  0  0  0  0  0  0  0  0  0
   93.9628   49.9351   72.3497 N   0  0  0  0  0  0  0  0  0  0  0  0
   97.5707   46.8700   76.3655 O   0  0  0  0  0  0  0  0  0  0  0  0
   93.3015   50.8070   71.5060 C   0  0  0  0  0  0  0  0  0  0  0  0
   92.3736   47.0068   71.2926 N   0  0  0  0  0  0  0  0  0  0  0  0
   99.0267   46.0917   74.4044 O   0  0  0  0  0  0  0  0  0  0  0  0
  100.4747   45.3787   74.4810 P   0  0  0  0  0  0  0  0  0  0  0  0
   95.2053   50.4753   72.8381 C   0  0  0  0  0  0  0  0  0  0  0  0
   95.9860   49.8958   73.7153 O   0  0  0  0  0  0  0  0  0  0  0  0
   95.5332   51.7425   72.1715 C   0  0  0  0  0  0  0  0  0  0  0  0
   92.1807   50.7121   70.7910 C   0  0  0  0  0  0  0  0  0  0  0  0
   96.5455   52.5401   72.3370 C   0  0  0  0  0  0  0  0  0  0  0  0
   94.3340   52.0075   71.3857 N   0  0  0  0  0  0  0  0  0  0  0  0
   91.7592   46.0953   71.9950 C   0  0  0  0  0  0  0  0  0  0  0  0
  100.1295   43.9219   74.6347 O   0  0  0  0  0  0  0  0  0  0  0  0
   90.3972   45.6246   71.6081 C   0  0  0  0  0  0  0  0  0  0  0  0
  101.0076   45.6868   73.0399 O   0  0  0  0  0  0  0  0  0  0  0  0
   92.3595   45.1768   72.8335 O   0  0  0  0  0  0  0  0  0  0  0  0
   89.7768   44.6577   72.1634 O   0  0  0  0  0  0  0  0  0  0  0  0
  101.2861   45.8469   75.6264 O   0  0  0  0  0  0  0  0  0  0  0  0
   90.0739   45.7587   70.3221 O   0  0  0  0  0  0  0  0  0  0  0  0
  1  2  2  0
  2  3  1  0
  3  4  1  0
  4  5  1  0
  5  6  1  0
  5  7  1  0
  7  8  1  0
  6  9  1  0
  8  9  1  0
  8 10  1  0
  2 11  1  0
 10 12  1  0
  9 13  1  0
  2 14  1  0
 14 15  1  0
 10 16  1  0
 16 17  2  0
 16 18  1  0
 12 19  1  0
 18 20  1  0
 12 21  1  0
 18 21  2  0
 13 22  1  0
 15 23  1  0
 22 24  1  0
 15 25  2  0
 22 26  2  0
 24 27  1  0
 15 28  1  0
 24 29  2  0
M  END
>  <ID>  (1) 
conformer_0

$$$$
