
     RDKit          3D

 25 27  0  0  0  0  0  0  0  0999 V2000
   98.0347   44.4605   75.9696 O   0  0  0  0  0  0  0  0  0  0  0  0
   97.8663   45.7408   75.4377 P   0  0  0  0  0  0  0  0  0  0  0  0
   96.6895   45.7165   74.4570 O   0  0  0  0  0  0  0  0  0  0  0  0
   96.2435   46.8446   73.6494 C   0  0  0  0  0  0  0  0  0  0  0  0
   94.8290   46.7936   73.3651 C   0  0  0  0  0  0  0  0  0  0  0  0
   94.6081   46.4409   72.0334 C   0  0  0  0  0  0  0  0  0  0  0  0
   94.2802   48.0655   73.7523 O   0  0  0  0  0  0  0  0  0  0  0  0
   93.6003   48.6039   72.6418 C   0  0  0  0  0  0  0  0  0  0  0  0
   93.6484   47.4924   71.6372 C   0  0  0  0  0  0  0  0  0  0  0  0
   93.9628   49.9351   72.3497 N   0  0  0  0  0  0  0  0  0  0  0  0
   97.5707   46.8700   76.3655 O   0  0  0  0  0  0  0  0  0  0  0  0
   93.3015   50.8070   71.5060 C   0  0  0  0  0  0  0  0  0  0  0  0
   93.9808   52.0492   71.4165 N   0  0  0  0  0  0  0  0  0  0  0  0
   92.3111   46.9400   71.5054 N   0  0  0  0  0  0  0  0  0  0  0  0
   94.1006   45.1969   71.8866 O   0  0  0  0  0  0  0  0  0  0  0  0
   91.4209   47.2858   70.5722 C   0  0  0  0  0  0  0  0  0  0  0  0
   95.0571   52.2852   72.0339 C   0  0  0  0  0  0  0  0  0  0  0  0
   91.7498   46.0769   72.4799 C   0  0  0  0  0  0  0  0  0  0  0  0
   90.3764   45.9863   72.1892 C   0  0  0  0  0  0  0  0  0  0  0  0
   90.1299   46.8089   70.9707 C   0  0  0  0  0  0  0  0  0  0  0  0
   95.1598   50.3686   73.1399 C   0  0  0  0  0  0  0  0  0  0  0  0
   92.1637   50.3957   70.9515 N   0  0  0  0  0  0  0  0  0  0  0  0
   99.0973   46.1576   74.5763 O   0  0  0  0  0  0  0  0  0  0  0  0
   95.6771   51.5979   72.8713 C   0  0  0  0  0  0  0  0  0  0  0  0
   89.4896   45.0091   72.5828 O   0  0  0  0  0  0  0  0  0  0  0  0
  1  2  2  0
  2  3  1  0
  3  4  1  0
  4  5  1  0
  5  6  1  0
  5  7  1  0
  7  8  1  0
  6  9  1  0
  8  9  1  0
  8 10  1  0
  2 11  1  0
 10 12  1  0
 12 13  2  0
  9 14  1  0
  6 15  1  0
 14 16  1  0
 13 17  1  0
 14 18  1  0
 18 19  1  0
 16 20  1  0
 19 20  1  0
 10 21  1  0
 12 22  1  0
  2 23  1  0
 17 24  2  0
 21 24  1  0
 19 25  1  0
M  END
>  <ID>  (1) 
conformer_0

$$$$
