
     RDKit          3D

 24 27  0  0  0  0  0  0  0  0999 V2000
   91.6707   44.8222   72.0024 C   0  0  0  0  0  0  0  0  0  0  0  0
   92.3670   45.7219   71.6892 C   0  0  0  0  0  0  0  0  0  0  0  0
   91.8048   46.7420   71.0614 C   0  0  0  0  0  0  0  0  0  0  0  0
   93.7913   45.7332   71.7926 C   0  0  0  0  0  0  0  0  0  0  0  0
   94.4614   46.9241   71.9923 N   0  0  0  0  0  0  0  0  0  0  0  0
   92.0482   43.6146   72.7998 F   0  0  0  0  0  0  0  0  0  0  0  0
   95.4007   47.0820   72.9841 C   0  0  0  0  0  0  0  0  0  0  0  0
   96.0853   48.3410   73.0677 N   0  0  0  0  0  0  0  0  0  0  0  0
   94.1023   48.1374   71.4260 C   0  0  0  0  0  0  0  0  0  0  0  0
   95.7241   46.1941   73.9892 C   0  0  0  0  0  0  0  0  0  0  0  0
   96.9910   48.3176   74.1971 C   0  0  0  0  0  0  0  0  0  0  0  0
   97.2247   47.4313   75.0979 C   0  0  0  0  0  0  0  0  0  0  0  0
   94.2611   49.3535   71.8620 N   0  0  0  0  0  0  0  0  0  0  0  0
   90.6858   46.8003   70.5074 C   0  0  0  0  0  0  0  0  0  0  0  0
   96.5291   46.2642   74.9936 C   0  0  0  0  0  0  0  0  0  0  0  0
   90.2450   44.8334   71.7417 N   0  0  0  0  0  0  0  0  0  0  0  0
   93.1307   50.2028   71.8993 C   0  0  0  0  0  0  0  0  0  0  0  0
   92.7353   48.0761   70.7982 C   0  0  0  0  0  0  0  0  0  0  0  0
   89.8567   45.6212   71.0381 N   0  0  0  0  0  0  0  0  0  0  0  0
   98.1329   47.6984   76.1562 O   0  0  0  0  0  0  0  0  0  0  0  0
   99.4053   48.0858   75.8651 C   0  0  0  0  0  0  0  0  0  0  0  0
   96.7279   45.3180   75.9423 O   0  0  0  0  0  0  0  0  0  0  0  0
   93.3979   51.5269   71.7325 C   0  0  0  0  0  0  0  0  0  0  0  0
   92.2495   49.3965   70.8145 C   0  0  0  0  0  0  0  0  0  0  0  0
  1  2  2  0
  2  3  1  0
  2  4  1  0
  4  5  1  0
  1  6  1  0
  5  7  1  0
  7  8  2  0
  5  9  1  0
  7 10  1  0
  8 11  1  0
 11 12  2  0
  9 13  1  0
  3 14  2  0
 10 15  2  0
 12 15  1  0
  1 16  1  0
 13 17  1  0
  3 18  1  0
  9 18  1  0
 14 19  1  0
 16 19  2  0
 12 20  1  0
 20 21  1  0
 15 22  1  0
 17 23  1  0
 17 24  1  0
 18 24  1  0
M  END
>  <ID>  (1) 
conformer_0

$$$$
