
     RDKit          3D

 26 29  0  0  0  0  0  0  0  0999 V2000
   91.6707   44.8222   72.0024 C   0  0  0  0  0  0  0  0  0  0  0  0
   92.3670   45.7219   71.6892 C   0  0  0  0  0  0  0  0  0  0  0  0
   91.8048   46.7420   71.0614 C   0  0  0  0  0  0  0  0  0  0  0  0
   93.7913   45.7332   71.7926 C   0  0  0  0  0  0  0  0  0  0  0  0
   94.4614   46.9241   71.9923 N   0  0  0  0  0  0  0  0  0  0  0  0
   92.0482   43.6146   72.7998 F   0  0  0  0  0  0  0  0  0  0  0  0
   95.4007   47.0820   72.9841 C   0  0  0  0  0  0  0  0  0  0  0  0
   96.0853   48.3410   73.0677 N   0  0  0  0  0  0  0  0  0  0  0  0
   94.1023   48.1374   71.4260 C   0  0  0  0  0  0  0  0  0  0  0  0
   97.0203   48.6502   74.0037 C   0  0  0  0  0  0  0  0  0  0  0  0
   95.9091   46.0422   73.6719 N   0  0  0  0  0  0  0  0  0  0  0  0
   90.1222   44.9453   71.9025 C   0  0  0  0  0  0  0  0  0  0  0  0
   96.7999   46.3055   74.6665 C   0  0  0  0  0  0  0  0  0  0  0  0
   94.1774   49.3434   71.9201 N   0  0  0  0  0  0  0  0  0  0  0  0
   90.5073   46.9933   70.9049 C   0  0  0  0  0  0  0  0  0  0  0  0
   97.4430   47.5097   74.8325 C   0  0  0  0  0  0  0  0  0  0  0  0
   89.6463   46.0402   71.4216 N   0  0  0  0  0  0  0  0  0  0  0  0
   93.6140   50.4363   71.1259 C   0  0  0  0  0  0  0  0  0  0  0  0
   96.1375   49.5737   74.7644 O   0  0  0  0  0  0  0  0  0  0  0  0
   92.1755   50.1834   70.7901 C   0  0  0  0  0  0  0  0  0  0  0  0
   97.2304   45.2277   75.4408 O   0  0  0  0  0  0  0  0  0  0  0  0
   98.6878   47.8072   75.5714 C   0  0  0  0  0  0  0  0  0  0  0  0
   98.9961   48.8844   75.8375 O   0  0  0  0  0  0  0  0  0  0  0  0
   92.1413   49.0117   69.9771 C   0  0  0  0  0  0  0  0  0  0  0  0
   92.5571   47.9086   70.9315 N   0  0  0  0  0  0  0  0  0  0  0  0
   99.6186   46.8373   75.6581 O   0  0  0  0  0  0  0  0  0  0  0  0
  1  2  2  0
  2  3  1  0
  2  4  1  0
  4  5  1  0
  1  6  1  0
  5  7  1  0
  7  8  2  0
  5  9  1  0
  8 10  1  0
  7 11  1  0
  1 12  1  0
 11 13  1  0
  9 14  1  0
  3 15  2  0
 10 16  1  0
 13 16  1  0
 12 17  2  0
 15 17  1  0
 14 18  1  0
 10 19  1  0
 18 20  1  0
 13 21  2  0
 16 22  1  0
 22 23  2  0
 20 24  1  0
  3 25  1  0
  9 25  1  0
 24 25  1  0
 22 26  1  0
M  END
>  <ID>  (1) 
conformer_0

$$$$
