
     RDKit          3D

 29 31  0  0  0  0  0  0  0  0999 V2000
   92.8737   45.3803   72.0140 C   0  0  0  0  0  0  0  0  0  0  0  0
   93.3942   46.4167   71.6980 C   0  0  0  0  0  0  0  0  0  0  0  0
   92.5319   47.3703   70.9850 C   0  0  0  0  0  0  0  0  0  0  0  0
   91.4721   45.0464   71.8056 C   0  0  0  0  0  0  0  0  0  0  0  0
   94.7858   46.7260   71.9106 C   0  0  0  0  0  0  0  0  0  0  0  0
   95.3285   46.2873   73.1855 O   0  0  0  0  0  0  0  0  0  0  0  0
   96.4178   46.8597   73.8246 C   0  0  0  0  0  0  0  0  0  0  0  0
   96.1292   48.0033   74.3939 O   0  0  0  0  0  0  0  0  0  0  0  0
   93.2396   48.6631   70.5721 N   0  0  0  0  0  0  0  0  0  0  0  0
   96.7264   48.3611   75.7026 C   0  0  0  0  0  0  0  0  0  0  0  0
   96.8334   45.9180   74.9428 C   0  0  0  0  0  0  0  0  0  0  0  0
   93.5173   49.6191   71.5143 C   0  0  0  0  0  0  0  0  0  0  0  0
   97.5302   49.4478   75.7124 C   0  0  0  0  0  0  0  0  0  0  0  0
   90.7236   45.9849   71.1388 C   0  0  0  0  0  0  0  0  0  0  0  0
   94.4223   50.5675   71.2562 N   0  0  0  0  0  0  0  0  0  0  0  0
   90.8137   43.6341   72.4786 Cl  0  0  0  0  0  0  0  0  0  0  0  0
   97.8688   44.9726   74.7100 O   0  0  0  0  0  0  0  0  0  0  0  0
   99.2024   44.9364   75.4083 P   0  0  0  0  0  0  0  0  0  0  0  0
   94.7899   51.4014   72.3225 C   0  0  0  0  0  0  0  0  0  0  0  0
   97.1568   46.8646   76.0099 C   0  0  0  0  0  0  0  0  0  0  0  0
   95.9670   51.9706   72.1941 C   0  0  0  0  0  0  0  0  0  0  0  0
   99.8550   46.2578   75.1293 O   0  0  0  0  0  0  0  0  0  0  0  0
   99.0960   44.7939   76.8748 O   0  0  0  0  0  0  0  0  0  0  0  0
   92.9727   49.5147   72.8058 C   0  0  0  0  0  0  0  0  0  0  0  0
   99.9713   43.8229   74.7281 O   0  0  0  0  0  0  0  0  0  0  0  0
   91.3125   47.2276   70.7361 C   0  0  0  0  0  0  0  0  0  0  0  0
   93.4508   50.3032   73.7948 C   0  0  0  0  0  0  0  0  0  0  0  0
   97.7043   50.1009   74.4913 O   0  0  0  0  0  0  0  0  0  0  0  0
   94.4030   51.1936   73.5615 N   0  0  0  0  0  0  0  0  0  0  0  0
  1  2  2  0
  2  3  1  0
  1  4  1  0
  2  5  1  0
  5  6  1  0
  6  7  1  0
  7  8  1  0
  3  9  1  0
  8 10  1  0
  7 11  1  0
  9 12  1  0
 10 13  1  0
  4 14  2  0
 12 15  2  0
  4 16  1  0
 11 17  1  0
 17 18  1  0
 15 19  1  0
 10 20  1  0
 11 20  1  0
 19 21  1  0
 18 22  1  0
 18 23  1  0
 12 24  1  0
 18 25  2  0
  3 26  2  0
 14 26  1  0
 24 27  2  0
 13 28  1  0
 19 29  2  0
 27 29  1  0
M  END
>  <ID>  (1) 
conformer_0

$$$$
