
     RDKit          3D

 33 37  0  0  0  0  0  0  0  0999 V2000
   25.7965   33.4554  107.7057 O   0  0  0  0  0  0  0  0  0  0  0  0
   24.6965   33.8554  106.9057 S   0  0  0  0  0  4  0  0  0  0  0  0
   23.7965   32.7554  106.6057 O   0  0  0  0  0  0  0  0  0  0  0  0
   23.7965   34.8554  107.4057 O   0  0  0  0  0  0  0  0  0  0  0  0
   25.1965   34.0554  105.5057 O   0  0  0  0  0  0  0  0  0  0  0  0
   24.8965   33.4554  104.2057 C   0  0  0  0  0  0  0  0  0  0  0  0
   25.0965   34.4554  103.2057 C   0  0  0  0  0  0  0  0  0  0  0  0
   26.2965   35.2554  103.4057 C   0  0  0  0  0  0  0  0  0  0  0  0
   26.6965   35.8554  102.2057 C   0  0  0  0  0  0  0  0  0  0  0  0
   27.2965   34.3554  103.9057 C   0  0  0  0  0  0  0  0  0  0  0  0
   25.8965   36.1554  101.1057 C   0  0  0  0  0  0  0  0  0  0  0  0
   28.6965   34.6554  103.9057 C   0  0  0  0  0  0  0  0  0  0  0  0
   29.4965   33.7554  103.3057 C   0  0  0  0  0  0  0  0  0  0  0  0
   30.8965   33.7554  103.4057 C   0  0  0  0  0  0  0  0  0  0  0  0
   31.5965   33.9554  104.5057 C   0  0  0  0  0  0  0  0  0  0  0  0
   32.7965   33.8554  105.0057 N   0  0  0  0  0  0  0  0  0  0  0  0
   31.0965   35.0554  103.9057 N   0  0  0  0  0  0  0  0  0  0  0  0
   24.1965   32.2554  103.8057 C   0  0  0  0  0  0  0  0  0  0  0  0
   24.1965   30.9554  104.2057 C   0  0  0  0  0  0  0  0  0  0  0  0
   23.0965   30.1554  104.2057 C   0  0  0  0  0  0  0  0  0  0  0  0
   23.0965   28.8554  104.0057 N   0  0  0  0  0  4  0  0  0  0  0  0
   22.1965   27.8554  104.0057 C   0  0  0  0  0  0  0  0  0  0  0  0
   24.4965   28.5554  103.9057 C   0  0  0  0  0  0  0  0  0  0  0  0
   21.0965   27.9554  104.5057 O   0  0  0  0  0  0  0  0  0  0  0  0
   26.8965   36.7554  101.6057 O   0  0  0  0  0  0  0  0  0  0  0  0
   24.7965   27.3554  103.4057 C   0  0  0  0  0  0  0  0  0  0  0  0
   22.5965   28.1554  102.8057 N   0  0  0  0  0  0  0  0  0  0  0  0
   24.5965   35.9554  100.7057 C   0  0  0  0  0  0  0  0  0  0  0  0
   23.8965   35.8554   99.7057 N   0  0  0  0  0  0  0  0  0  0  0  0
   26.1965   26.9554  103.6057 C   0  0  0  0  0  0  0  0  0  0  0  0
   27.7965   34.2554  105.1057 N   0  0  0  0  0  0  0  0  0  0  0  0
   23.8965   26.2554  103.1057 N   0  0  0  0  0  0  0  0  0  0  0  0
   22.5965   26.7554  103.3057 C   0  0  0  0  0  0  0  0  0  0  0  0
  2  1  1  0
  3  2  1  0
  4  2  1  0
  5  2  1  0
  6  5  1  0
  7  6  1  0
  8  7  1  0
  9  8  1  0
 10  8  1  0
 11  9  1  0
 12 10  1  0
 13 12  1  0
 14 13  1  0
 15 14  1  0
 16 15  2  0
 17 14  1  0
 17 15  1  0
 18  6  1  0
 19 18  1  0
 20 19  1  0
 21 20  1  0
 22 21  1  0
 23 21  1  0
 24 22  1  0
 25  9  1  0
 25 11  1  0
 26 23  2  0
 27 22  1  0
 28 11  1  0
 29 28  2  0
 30 26  1  0
 31 10  1  0
 31 12  1  0
 32 26  1  0
 33 22  1  0
 33 27  1  0
 33 32  2  0
M  END
>  <ID>  (1) 
conformer_0

$$$$
