
     RDKit          3D

 19 22  0  0  0  0  0  0  0  0999 V2000
   25.7965   33.4554  107.7057 O   0  0  0  0  0  0  0  0  0  0  0  0
   24.6965   33.8554  106.9057 S   0  0  0  0  0  4  0  0  0  0  0  0
   23.7965   32.7554  106.6057 O   0  0  0  0  0  0  0  0  0  0  0  0
   23.7965   34.8554  107.4057 O   0  0  0  0  0  0  0  0  0  0  0  0
   25.2965   34.2554  105.6057 O   0  0  0  0  0  0  0  0  0  0  0  0
   25.1965   33.7554  104.3057 C   0  0  0  0  0  0  0  0  0  0  0  0
   25.0965   34.6554  103.2057 C   0  0  0  0  0  0  0  0  0  0  0  0
   26.3965   35.1554  102.7057 C   0  0  0  0  0  0  0  0  0  0  0  0
   27.3965   34.9554  103.8057 C   0  0  0  0  0  0  0  0  0  0  0  0
   28.5965   34.1554  103.7057 C   0  0  0  0  0  0  0  0  0  0  0  0
   29.8965   34.7554  104.0057 C   0  0  0  0  0  0  0  0  0  0  0  0
   31.0965   34.1554  104.0057 C   0  0  0  0  0  0  0  0  0  0  0  0
   29.6965   36.1554  104.0057 C   0  0  0  0  0  0  0  0  0  0  0  0
   32.1965   33.4554  103.9057 N   0  0  0  0  0  0  0  0  0  0  0  0
   29.2965   37.1554  103.6057 O   0  0  0  0  0  0  0  0  0  0  0  0
   27.3965   36.0554  102.9057 C   0  0  0  0  0  0  0  0  0  0  0  0
   28.5965   36.4554  103.1057 N   0  0  0  0  0  0  0  0  0  0  0  0
   27.5965   34.1554  104.8057 C   0  0  0  0  0  0  0  0  0  0  0  0
   25.4965   33.2554  103.3057 C   0  0  0  0  0  0  0  0  0  0  0  0
  2  1  1  0
  3  2  1  0
  4  2  1  0
  5  2  1  0
  6  5  1  0
  7  6  1  0
  8  7  1  0
  9  8  1  0
 10  9  1  0
 11 10  1  0
 12 11  1  0
 13 11  1  0
 14 12  1  0
 15 13  1  0
 16  8  1  0
 16  9  1  0
 17 13  1  0
 17 16  1  0
 18  9  1  0
 18 10  1  0
 19  6  1  0
 19  7  1  0
M  END
>  <ID>  (1) 
conformer_0

$$$$
