
     RDKit          3D

 23 25  0  0  0  0  0  0  0  0999 V2000
   25.7965   33.4554  107.7057 O   0  0  0  0  0  0  0  0  0  0  0  0
   24.6965   33.8554  106.9057 S   0  0  0  0  0  4  0  0  0  0  0  0
   23.7965   32.7554  106.6057 O   0  0  0  0  0  0  0  0  0  0  0  0
   24.5965   34.8554  105.9057 O   0  0  0  0  0  0  0  0  0  0  0  0
   23.9965   34.3554  108.1057 O   0  0  0  0  0  0  0  0  0  0  0  0
   25.5965   34.9554  104.8057 C   0  0  0  0  0  0  0  0  0  0  0  0
   25.1965   34.9554  103.4057 C   0  0  0  0  0  0  0  0  0  0  0  0
   26.2965   35.3554  102.5057 C   0  0  0  0  0  0  0  0  0  0  0  0
   26.1965   35.9554  101.3057 C   0  0  0  0  0  0  0  0  0  0  0  0
   27.4965   35.6554  103.3057 C   0  0  0  0  0  0  0  0  0  0  0  0
   24.8965   36.2554  100.7057 C   0  0  0  0  0  0  0  0  0  0  0  0
   27.9965   34.6554  104.2057 C   0  0  0  0  0  0  0  0  0  0  0  0
   25.7965   33.6554  104.1057 C   0  0  0  0  0  0  0  0  0  0  0  0
   29.3965   34.4554  104.2057 N   0  0  0  0  0  0  0  0  0  0  0  0
   29.8965   35.6554  103.9057 C   0  0  0  0  0  0  0  0  0  0  0  0
   29.6965   36.6554  103.3057 O   0  0  0  0  0  0  0  0  0  0  0  0
   29.8965   33.3554  103.4057 C   0  0  0  0  0  0  0  0  0  0  0  0
   31.2965   33.5554  103.2057 C   0  0  0  0  0  0  0  0  0  0  0  0
   31.6965   34.1554  104.5057 C   0  0  0  0  0  0  0  0  0  0  0  0
   32.8965   33.9554  105.2057 N   0  0  0  0  0  0  0  0  0  0  0  0
   31.3965   35.5554  104.3057 N   0  0  0  0  0  0  0  0  0  0  0  0
   24.1965   35.7554   99.6057 N   0  0  0  0  0  0  0  0  0  0  0  0
   26.0965   36.8554  100.4057 O   0  0  0  0  0  0  0  0  0  0  0  0
  2  1  1  0
  3  2  1  0
  4  2  1  0
  5  2  1  0
  6  4  1  0
  7  6  1  0
  8  7  1  0
  9  8  1  0
 10  8  1  0
 11  9  1  0
 12 10  1  0
 13  6  1  0
 13  7  1  0
 14 12  1  0
 15 14  1  0
 16 15  2  0
 17 14  1  0
 18 17  1  0
 19 18  1  0
 20 19  1  0
 21 15  1  0
 21 19  1  0
 22 11  1  0
 23  9  1  0
 23 11  1  0
M  END
>  <ID>  (1) 
conformer_0

$$$$
