
     RDKit          3D

 16 16  0  0  0  0  0  0  0  0999 V2000
   25.7965   33.4554  107.7057 O   0  0  0  0  0  0  0  0  0  0  0  0
   24.6965   33.8554  106.9057 S   0  0  0  0  0  4  0  0  0  0  0  0
   23.7965   32.7554  106.6057 O   0  0  0  0  0  0  0  0  0  0  0  0
   23.6965   34.8554  107.4057 O   0  0  0  0  0  0  0  0  0  0  0  0
   25.2965   34.2554  105.6057 O   0  0  0  0  0  0  0  0  0  0  0  0
   25.0965   33.7554  104.3057 C   0  0  0  0  0  0  0  0  0  0  0  0
   25.2965   34.6554  103.2057 C   0  0  0  0  0  0  0  0  0  0  0  0
   26.5965   35.3554  103.3057 C   0  0  0  0  0  0  0  0  0  0  0  0
   27.5965   34.4554  103.8057 C   0  0  0  0  0  0  0  0  0  0  0  0
   28.8965   35.0554  104.1057 N   0  0  0  0  0  0  0  0  0  0  0  0
   30.0965   34.5554  103.7057 C   0  0  0  0  0  0  0  0  0  0  0  0
   29.6965   33.3554  102.9057 C   0  0  0  0  0  0  0  0  0  0  0  0
   31.1965   34.3554  104.7057 C   0  0  0  0  0  0  0  0  0  0  0  0
   32.0965   33.4554  104.0057 N   0  0  0  0  0  0  0  0  0  0  0  0
   31.9965   33.5554  102.6057 C   0  0  0  0  0  0  0  0  0  0  0  0
   30.7965   32.6554  102.3057 C   0  0  0  0  0  0  0  0  0  0  0  0
  2  1  1  0
  3  2  1  0
  4  2  1  0
  5  2  1  0
  6  5  1  0
  7  6  1  0
  8  7  1  0
  9  8  1  0
 10  9  1  0
 11 10  1  0
 12 11  1  0
 13 11  1  0
 14 13  1  0
 15 14  1  0
 16 12  1  0
 16 15  1  0
M  END
>  <ID>  (1) 
conformer_0

$$$$
