
     RDKit          3D

 29 31  0  0  0  0  0  0  0  0999 V2000
   25.7965   33.4554  107.7057 O   0  0  0  0  0  0  0  0  0  0  0  0
   24.6965   33.8554  106.9057 S   0  0  0  0  0  4  0  0  0  0  0  0
   23.7965   32.7554  106.6057 O   0  0  0  0  0  0  0  0  0  0  0  0
   23.7965   34.8554  107.4057 O   0  0  0  0  0  0  0  0  0  0  0  0
   25.1965   34.0554  105.5057 O   0  0  0  0  0  0  0  0  0  0  0  0
   24.8965   33.4554  104.2057 C   0  0  0  0  0  0  0  0  0  0  0  0
   25.0965   34.4554  103.2057 C   0  0  0  0  0  0  0  0  0  0  0  0
   26.2965   35.2554  103.3057 C   0  0  0  0  0  0  0  0  0  0  0  0
   27.3965   35.0554  104.2057 C   0  0  0  0  0  0  0  0  0  0  0  0
   28.4965   35.8554  103.9057 C   0  0  0  0  0  0  0  0  0  0  0  0
   26.5965   35.8554  102.0057 C   0  0  0  0  0  0  0  0  0  0  0  0
   25.5965   36.2554  101.0057 C   0  0  0  0  0  0  0  0  0  0  0  0
   29.7965   35.3554  104.0057 C   0  0  0  0  0  0  0  0  0  0  0  0
   29.6965   33.9554  103.8057 C   0  0  0  0  0  0  0  0  0  0  0  0
   27.1965   33.9554  103.6057 C   0  0  0  0  0  0  0  0  0  0  0  0
   28.4965   33.4554  103.4057 N   0  0  0  0  0  0  0  0  0  0  0  0
   30.9965   33.4554  103.3057 C   0  0  0  0  0  0  0  0  0  0  0  0
   31.9965   34.2554  103.7057 N   0  0  0  0  0  0  0  0  0  0  0  0
   31.0965   32.4554  102.5057 O   0  0  0  0  0  0  0  0  0  0  0  0
   23.8965   32.4554  103.7057 C   0  0  0  0  0  0  0  0  0  0  0  0
   23.7965   31.1554  104.2057 C   0  0  0  0  0  0  0  0  0  0  0  0
   24.4965   29.9554  104.3057 C   0  0  0  0  0  0  0  0  0  0  0  0
   23.7965   28.8554  104.0057 N   0  0  0  0  0  0  0  0  0  0  0  0
   22.5965   29.0554  103.3057 C   0  0  0  0  0  0  0  0  0  0  0  0
   22.5965   29.0554  104.6057 N   0  0  0  0  0  0  0  0  0  0  0  0
   31.8965   34.5554  105.1057 C   0  0  0  0  0  0  0  0  0  0  0  0
   26.6965   36.7554  101.3057 O   0  0  0  0  0  0  0  0  0  0  0  0
   24.4965   35.9554  100.5057 C   0  0  0  0  0  0  0  0  0  0  0  0
   30.6965   36.1554  103.6057 O   0  0  0  0  0  0  0  0  0  0  0  0
  2  1  1  0
  3  2  1  0
  4  2  1  0
  5  2  1  0
  6  5  1  0
  7  6  1  0
  8  7  1  0
  9  8  1  0
 10  9  1  0
 11  8  1  0
 12 11  1  0
 13 10  1  0
 14 13  1  0
 15  8  1  0
 15  9  1  0
 16 14  1  0
 16 15  1  0
 17 14  1  0
 18 17  1  0
 19 17  2  0
 20  6  1  0
 21 20  1  0
 22 21  1  0
 23 22  1  0
 24 23  1  0
 25 24  2  0
 26 18  1  0
 27 11  1  0
 27 12  1  0
 28 12  2  0
 29 13  2  0
M  END
>  <ID>  (1) 
conformer_0

$$$$
