
     RDKit          3D

 34 38  0  0  0  0  0  0  0  0999 V2000
   25.7965   33.4554  107.7057 O   0  0  0  0  0  0  0  0  0  0  0  0
   24.6965   33.8554  106.9057 S   0  0  0  0  0  4  0  0  0  0  0  0
   23.7965   32.7554  106.6057 O   0  0  0  0  0  0  0  0  0  0  0  0
   23.7965   34.8554  107.4057 O   0  0  0  0  0  0  0  0  0  0  0  0
   25.1965   34.0554  105.5057 O   0  0  0  0  0  0  0  0  0  0  0  0
   24.8965   33.4554  104.2057 C   0  0  0  0  0  0  0  0  0  0  0  0
   25.0965   34.4554  103.2057 C   0  0  0  0  0  0  0  0  0  0  0  0
   26.2965   35.2554  103.3057 C   0  0  0  0  0  0  0  0  0  0  0  0
   27.3965   35.0554  104.2057 C   0  0  0  0  0  0  0  0  0  0  0  0
   28.4965   35.8554  103.9057 C   0  0  0  0  0  0  0  0  0  0  0  0
   26.6965   35.7554  102.0057 C   0  0  0  0  0  0  0  0  0  0  0  0
   25.8965   36.3554  101.0057 C   0  0  0  0  0  0  0  0  0  0  0  0
   29.7965   35.2554  103.7057 C   0  0  0  0  0  0  0  0  0  0  0  0
   29.5965   33.8554  103.4057 C   0  0  0  0  0  0  0  0  0  0  0  0
   27.2965   34.0554  103.4057 C   0  0  0  0  0  0  0  0  0  0  0  0
   28.3965   33.3554  103.2057 N   0  0  0  0  0  0  0  0  0  0  0  0
   30.7965   33.1554  103.0057 C   0  0  0  0  0  0  0  0  0  0  0  0
   23.9965   32.4554  103.8057 C   0  0  0  0  0  0  0  0  0  0  0  0
   23.8965   31.0554  104.3057 C   0  0  0  0  0  0  0  0  0  0  0  0
   22.6965   30.4554  104.0057 C   0  0  0  0  0  0  0  0  0  0  0  0
   22.4965   29.1554  104.0057 N   0  0  0  0  0  0  0  0  0  0  0  0
   21.1965   28.6554  103.9057 C   0  0  0  0  0  0  0  0  0  0  0  0
   31.8965   33.7554  102.5057 O   0  0  0  0  0  0  0  0  0  0  0  0
   23.6965   28.3554  104.0057 C   0  0  0  0  0  0  0  0  0  0  0  0
   20.1965   29.1554  104.3057 O   0  0  0  0  0  0  0  0  0  0  0  0
   31.1965   35.4554  104.0057 O   0  0  0  0  0  0  0  0  0  0  0  0
   24.8965   28.8554  104.1057 C   0  0  0  0  0  0  0  0  0  0  0  0
   24.9965   30.2554  104.3057 N   0  0  0  0  0  0  0  0  0  0  0  0
   21.4965   31.2554  104.4057 C   0  0  0  0  0  0  0  0  0  0  0  0
   20.2965   30.6554  104.3057 C   0  0  0  0  0  0  0  0  0  0  0  0
   19.2965   31.5554  104.7057 C   0  0  0  0  0  0  0  0  0  0  0  0
   25.2965   37.4554  100.7057 N   0  0  0  0  0  0  0  0  0  0  0  0
   20.9965   27.2554  103.4057 C   0  0  0  0  0  0  0  0  0  0  0  0
   27.0965   36.7554  101.6057 O   0  0  0  0  0  0  0  0  0  0  0  0
  2  1  1  0
  3  2  1  0
  4  2  1  0
  5  2  1  0
  6  5  1  0
  7  6  1  0
  8  7  1  0
  9  8  1  0
 10  9  2  0
 11  8  1  0
 12 11  1  0
 13 10  1  0
 14 13  2  0
 15  8  1  0
 15  9  1  0
 16 14  1  0
 16 15  2  0
 17 14  1  0
 18  6  1  0
 19 18  1  0
 20 19  1  0
 21 20  1  0
 22 21  1  0
 23 17  1  0
 24 21  1  0
 25 22  1  0
 26 13  1  0
 27 24  2  0
 28 19  2  0
 28 27  1  0
 29 20  1  0
 30 25  1  0
 30 29  1  0
 31 30  1  0
 32 12  1  0
 33 22  1  0
 34 11  1  0
 34 12  1  0
M  END
>  <ID>  (1) 
conformer_0

$$$$
