
     RDKit          3D

 22 26  0  0  0  0  0  0  0  0999 V2000
   25.7965   33.4554  107.7057 O   0  0  0  0  0  0  0  0  0  0  0  0
   24.6965   33.8554  106.9057 S   0  0  0  0  0  4  0  0  0  0  0  0
   23.7965   32.7554  106.6057 O   0  0  0  0  0  0  0  0  0  0  0  0
   23.8965   34.8554  107.6057 O   0  0  0  0  0  0  0  0  0  0  0  0
   25.4965   34.2554  105.7057 O   0  0  0  0  0  0  0  0  0  0  0  0
   25.9965   34.5554  104.5057 C   0  0  0  0  0  0  0  0  0  0  0  0
   25.1965   34.9554  103.3057 C   0  0  0  0  0  0  0  0  0  0  0  0
   26.1965   35.4554  102.3057 C   0  0  0  0  0  0  0  0  0  0  0  0
   25.9965   36.3554  101.2057 C   0  0  0  0  0  0  0  0  0  0  0  0
   27.3965   35.0554  104.4057 C   0  0  0  0  0  0  0  0  0  0  0  0
   27.4965   35.6554  103.0057 C   0  0  0  0  0  0  0  0  0  0  0  0
   24.7965   35.9554  100.4057 C   0  0  0  0  0  0  0  0  0  0  0  0
   28.2965   34.4554  103.4057 C   0  0  0  0  0  0  0  0  0  0  0  0
   29.6965   34.8554  103.7057 C   0  0  0  0  0  0  0  0  0  0  0  0
   30.5965   33.7554  103.4057 C   0  0  0  0  0  0  0  0  0  0  0  0
   31.7965   34.0554  102.6057 N   0  0  0  0  0  0  0  0  0  0  0  0
   29.8965   32.6554  102.8057 C   0  0  0  0  0  0  0  0  0  0  0  0
   25.5965   33.5554  103.4057 C   0  0  0  0  0  0  0  0  0  0  0  0
   31.8965   33.7554  104.0057 C   0  0  0  0  0  0  0  0  0  0  0  0
   29.9965   36.2554  103.8057 C   0  0  0  0  0  0  0  0  0  0  0  0
   23.9965   35.9554   99.6057 N   0  0  0  0  0  0  0  0  0  0  0  0
   24.6965   36.7554  101.5057 O   0  0  0  0  0  0  0  0  0  0  0  0
  2  1  1  0
  3  2  1  0
  4  2  1  0
  5  2  1  0
  6  5  1  0
  7  6  1  0
  8  7  1  0
  9  8  1  0
 10  6  1  0
 11  8  1  0
 11 10  1  0
 12  9  1  0
 13 10  1  0
 13 11  1  0
 14 13  1  0
 15 14  1  0
 16 15  1  0
 17 15  1  0
 18  6  1  0
 18  7  1  0
 19 15  1  0
 19 16  1  0
 20 14  1  0
 21 12  1  0
 22  9  1  0
 22 12  1  0
M  END
>  <ID>  (1) 
conformer_0

$$$$
