
     RDKit          3D

 20 20  0  0  0  0  0  0  0  0999 V2000
   25.7965   33.4554  107.7057 O   0  0  0  0  0  0  0  0  0  0  0  0
   24.6965   33.8554  106.9057 S   0  0  0  0  0  4  0  0  0  0  0  0
   23.7965   32.7554  106.6057 O   0  0  0  0  0  0  0  0  0  0  0  0
   23.7965   34.8554  107.4057 O   0  0  0  0  0  0  0  0  0  0  0  0
   25.1965   34.0554  105.5057 O   0  0  0  0  0  0  0  0  0  0  0  0
   24.8965   33.4554  104.2057 C   0  0  0  0  0  0  0  0  0  0  0  0
   25.0965   34.4554  103.2057 C   0  0  0  0  0  0  0  0  0  0  0  0
   26.2965   35.2554  103.4057 C   0  0  0  0  0  0  0  0  0  0  0  0
   27.3965   34.5554  104.0057 C   0  0  0  0  0  0  0  0  0  0  0  0
   28.6965   34.3554  104.0057 C   0  0  0  0  0  0  0  0  0  0  0  0
   26.6965   35.7554  102.1057 C   0  0  0  0  0  0  0  0  0  0  0  0
   30.0965   34.6554  104.0057 C   0  0  0  0  0  0  0  0  0  0  0  0
   31.0965   33.7554  103.5057 C   0  0  0  0  0  0  0  0  0  0  0  0
   32.2965   33.4554  104.1057 N   0  0  0  0  0  0  0  0  0  0  0  0
   30.4965   32.7554  102.6057 C   0  0  0  0  0  0  0  0  0  0  0  0
   24.3965   32.1554  103.8057 C   0  0  0  0  0  0  0  0  0  0  0  0
   30.6965   35.9554  103.6057 O   0  0  0  0  0  0  0  0  0  0  0  0
   25.9965   36.4554  101.4057 O   0  0  0  0  0  0  0  0  0  0  0  0
   26.5965   35.3554  104.7057 C   0  0  0  0  0  0  0  0  0  0  0  0
   25.3965   33.0554  103.5057 N   0  0  0  0  0  0  0  0  0  0  0  0
  2  1  1  0
  3  2  1  0
  4  2  1  0
  5  2  1  0
  6  5  1  0
  7  6  1  0
  8  7  1  0
  9  8  1  0
 10  9  2  0
 11  8  1  0
 12 10  2  0
 13 12  1  0
 14 13  1  0
 15 13  1  0
 17 12  1  0
 18 11  2  0
 19  8  1  0
 19  9  1  0
 20  6  1  0
 20 16  1  0
M  END
>  <ID>  (1) 
conformer_0

$$$$
