
     RDKit          3D

 22 26  0  0  0  0  0  0  0  0999 V2000
   25.7965   33.4554  107.7057 O   0  0  0  0  0  0  0  0  0  0  0  0
   24.6965   33.8554  106.9057 S   0  0  0  0  0  4  0  0  0  0  0  0
   23.7965   32.7554  106.6057 O   0  0  0  0  0  0  0  0  0  0  0  0
   23.8965   34.8554  107.6057 O   0  0  0  0  0  0  0  0  0  0  0  0
   25.4965   34.2554  105.7057 O   0  0  0  0  0  0  0  0  0  0  0  0
   25.9965   34.5554  104.5057 C   0  0  0  0  0  0  0  0  0  0  0  0
   25.1965   34.9554  103.3057 C   0  0  0  0  0  0  0  0  0  0  0  0
   26.1965   35.4554  102.3057 C   0  0  0  0  0  0  0  0  0  0  0  0
   25.9965   36.3554  101.2057 C   0  0  0  0  0  0  0  0  0  0  0  0
   27.3965   35.0554  104.4057 C   0  0  0  0  0  0  0  0  0  0  0  0
   27.4965   35.6554  103.0057 C   0  0  0  0  0  0  0  0  0  0  0  0
   24.7965   36.0554  100.4057 C   0  0  0  0  0  0  0  0  0  0  0  0
   28.1965   34.3554  103.5057 C   0  0  0  0  0  0  0  0  0  0  0  0
   29.5965   34.2554  103.6057 C   0  0  0  0  0  0  0  0  0  0  0  0
   30.2965   33.1554  102.9057 C   0  0  0  0  0  0  0  0  0  0  0  0
   31.6965   33.4554  103.1057 C   0  0  0  0  0  0  0  0  0  0  0  0
   31.8965   34.5554  104.0057 N   0  0  0  0  0  0  0  0  0  0  0  0
   30.5965   35.1554  104.2057 C   0  0  0  0  0  0  0  0  0  0  0  0
   25.6965   33.5554  103.4057 C   0  0  0  0  0  0  0  0  0  0  0  0
   23.6965   35.9554   99.5057 N   0  0  0  0  0  0  0  0  0  0  0  0
   24.6965   36.6554  101.4057 N   0  0  0  0  0  0  0  0  0  0  0  0
   29.7965   31.9554  102.2057 C   0  0  0  0  0  0  0  0  0  0  0  0
  2  1  1  0
  3  2  1  0
  4  2  1  0
  5  2  1  0
  6  5  1  0
  7  6  1  0
  8  7  1  0
  9  8  1  0
 10  6  1  0
 11  8  1  0
 11 10  1  0
 12  9  1  0
 13 10  1  0
 13 11  1  0
 14 13  1  0
 15 14  2  0
 16 15  1  0
 17 16  2  0
 18 14  1  0
 18 17  1  0
 19  6  1  0
 19  7  1  0
 20 12  1  0
 21  9  1  0
 21 12  1  0
 22 15  1  0
M  END
>  <ID>  (1) 
conformer_0

$$$$
