
     RDKit          3D

 33 39  0  0  0  0  0  0  0  0999 V2000
   25.7965   33.4554  107.7057 O   0  0  0  0  0  0  0  0  0  0  0  0
   24.6965   33.8554  106.9057 S   0  0  0  0  0  4  0  0  0  0  0  0
   23.7965   32.7554  106.6057 O   0  0  0  0  0  0  0  0  0  0  0  0
   23.8965   34.8554  107.5057 O   0  0  0  0  0  0  0  0  0  0  0  0
   25.0965   34.1554  105.5057 O   0  0  0  0  0  0  0  0  0  0  0  0
   24.8965   33.4554  104.2057 C   0  0  0  0  0  0  0  0  0  0  0  0
   25.0965   34.3554  103.1057 C   0  0  0  0  0  0  0  0  0  0  0  0
   26.1965   35.3554  103.3057 C   0  0  0  0  0  0  0  0  0  0  0  0
   27.2965   34.6554  104.0057 C   0  0  0  0  0  0  0  0  0  0  0  0
   28.4965   35.4554  103.9057 C   0  0  0  0  0  0  0  0  0  0  0  0
   26.6965   35.8554  102.1057 C   0  0  0  0  0  0  0  0  0  0  0  0
   25.7965   36.2554  101.1057 C   0  0  0  0  0  0  0  0  0  0  0  0
   29.7965   34.7554  103.9057 C   0  0  0  0  0  0  0  0  0  0  0  0
   29.3965   33.5554  103.2057 C   0  0  0  0  0  0  0  0  0  0  0  0
   30.9965   35.0554  104.3057 C   0  0  0  0  0  0  0  0  0  0  0  0
   24.4965   32.1554  103.8057 C   0  0  0  0  0  0  0  0  0  0  0  0
   23.9965   31.0554  104.4057 C   0  0  0  0  0  0  0  0  0  0  0  0
   24.2965   29.7554  104.3057 C   0  0  0  0  0  0  0  0  0  0  0  0
   23.3965   28.8554  103.8057 N   0  0  0  0  0  0  0  0  0  0  0  0
   22.1965   29.4554  103.9057 N   0  0  0  0  0  0  0  0  0  0  0  0
   22.1965   30.4554  103.2057 C   0  0  0  0  0  0  0  0  0  0  0  0
   21.7965   30.3554  104.5057 C   0  0  0  0  0  0  0  0  0  0  0  0
   23.8965   30.2554  105.4057 N   0  0  0  0  0  0  0  0  0  0  0  0
   32.1965   34.8554  104.9057 N   0  0  0  0  0  0  0  0  0  0  0  0
   30.2965   32.5554  102.6057 C   0  0  0  0  0  0  0  0  0  0  0  0
   31.7965   33.7554  104.2057 C   0  0  0  0  0  0  0  0  0  0  0  0
   31.5965   33.2554  102.9057 N   0  0  0  0  0  0  0  0  0  0  0  0
   23.7965   27.7554  102.9057 C   0  0  0  0  0  0  0  0  0  0  0  0
   26.7965   36.8554  101.4057 O   0  0  0  0  0  0  0  0  0  0  0  0
   24.6965   35.8554  100.6057 C   0  0  0  0  0  0  0  0  0  0  0  0
   28.5965   36.3554  103.1057 O   0  0  0  0  0  0  0  0  0  0  0  0
   27.8965   34.9554  105.2057 C   0  0  0  0  0  0  0  0  0  0  0  0
   27.9965   33.4554  103.5057 N   0  0  0  0  0  0  0  0  0  0  0  0
  2  1  1  0
  3  2  1  0
  4  2  1  0
  5  2  1  0
  6  5  1  0
  7  6  1  0
  8  7  1  0
  9  8  1  0
 10  9  1  0
 11  8  1  0
 12 11  1  0
 13 10  1  0
 14 13  2  0
 15 13  1  0
 16  6  2  3
 17 16  1  0
 18 17  1  0
 19 18  1  0
 20 19  1  0
 21 20  1  0
 22 20  1  0
 22 21  2  0
 23 17  1  0
 23 18  1  0
 24 15  1  0
 25 14  1  0
 26 15  1  0
 26 24  1  0
 27 25  1  0
 27 26  1  0
 28 19  1  0
 29 11  1  0
 29 12  1  0
 30 12  2  0
 31 10  1  0
 32  9  1  0
 32 10  1  0
 33  9  1  0
 33 14  1  0
M  END
>  <ID>  (1) 
conformer_0

$$$$
