
     RDKit          3D

 33 36  0  0  0  0  0  0  0  0999 V2000
   25.7965   33.4554  107.7057 O   0  0  0  0  0  0  0  0  0  0  0  0
   24.6965   33.8554  106.9057 S   0  0  0  0  0  4  0  0  0  0  0  0
   23.7965   32.7554  106.6057 O   0  0  0  0  0  0  0  0  0  0  0  0
   23.7965   34.8554  107.4057 O   0  0  0  0  0  0  0  0  0  0  0  0
   25.1965   34.0554  105.5057 O   0  0  0  0  0  0  0  0  0  0  0  0
   24.8965   33.4554  104.2057 C   0  0  0  0  0  0  0  0  0  0  0  0
   25.0965   34.4554  103.2057 C   0  0  0  0  0  0  0  0  0  0  0  0
   26.2965   35.2554  103.4057 C   0  0  0  0  0  0  0  0  0  0  0  0
   26.6965   35.8554  102.2057 C   0  0  0  0  0  0  0  0  0  0  0  0
   27.2965   34.3554  103.9057 C   0  0  0  0  0  0  0  0  0  0  0  0
   25.8965   36.1554  101.1057 C   0  0  0  0  0  0  0  0  0  0  0  0
   28.6965   34.6554  103.9057 C   0  0  0  0  0  0  0  0  0  0  0  0
   29.4965   33.7554  103.3057 C   0  0  0  0  0  0  0  0  0  0  0  0
   30.8965   33.7554  103.4057 C   0  0  0  0  0  0  0  0  0  0  0  0
   31.5965   34.2554  104.5057 C   0  0  0  0  0  0  0  0  0  0  0  0
   32.7965   33.8554  105.1057 N   0  0  0  0  0  0  0  0  0  0  0  0
   30.5965   34.4554  105.4057 N   0  0  0  0  0  0  0  0  0  0  0  0
   24.3965   32.1554  103.7057 C   0  0  0  0  0  0  0  0  0  0  0  0
   24.0965   31.0554  104.5057 C   0  0  0  0  0  0  0  0  0  0  0  0
   24.6965   29.7554  104.4057 C   0  0  0  0  0  0  0  0  0  0  0  0
   23.7965   28.9554  105.2057 N   0  0  0  0  0  0  0  0  0  0  0  0
   22.5965   29.5554  105.6057 C   0  0  0  0  0  0  0  0  0  0  0  0
   22.6965   30.8554  105.0057 N   0  0  0  0  0  0  0  0  0  0  0  0
   23.7965   27.5554  104.9057 C   0  0  0  0  0  0  0  0  0  0  0  0
   21.4965   29.0554  105.9057 O   0  0  0  0  0  0  0  0  0  0  0  0
   31.6965   33.5554  102.3057 O   0  0  0  0  0  0  0  0  0  0  0  0
   29.4965   35.0554  104.8057 N   0  0  0  0  0  0  0  0  0  0  0  0
   29.7965   35.9554  103.9057 C   0  0  0  0  0  0  0  0  0  0  0  0
   29.3965   37.0554  103.6057 O   0  0  0  0  0  0  0  0  0  0  0  0
   25.2965   37.2554  100.7057 N   0  0  0  0  0  0  0  0  0  0  0  0
   24.9965   35.7554  103.5057 C   0  0  0  0  0  0  0  0  0  0  0  0
   25.9965   35.1554  101.2057 O   0  0  0  0  0  0  0  0  0  0  0  0
   32.4965   33.9554  101.5057 C   0  0  0  0  0  0  0  0  0  0  0  0
  2  1  1  0
  3  2  1  0
  4  2  1  0
  5  2  1  0
  6  5  1  0
  7  6  1  0
  8  7  1  0
  9  8  1  0
 10  8  1  0
 11  9  1  0
 12 10  1  0
 13 12  1  0
 14 13  2  0
 15 14  1  0
 16 15  1  0
 17 15  2  0
 18  6  2  3
 19 18  1  0
 20 19  1  0
 21 20  1  0
 22 21  1  0
 23 19  1  0
 23 22  1  0
 24 21  1  0
 25 22  2  0
 26 14  1  0
 27 12  1  0
 27 17  1  0
 28 12  1  0
 28 27  1  0
 29 28  2  0
 30 11  1  0
 31  7  1  0
 31  8  1  0
 32 11  2  0
 33 26  1  0
M  END
>  <ID>  (1) 
conformer_0

$$$$
