
     RDKit          3D

  5  4  0  0  0  0  0  0  0  0999 V2000
   26.3123   33.5302  107.3833 O   0  0  0  0  0  1  0  0  0  0  0  0
   24.9123   33.7302  107.2833 P   0  0  0  0  0  4  0  0  0  0  0  0
   24.1123   34.7302  107.7833 O   0  0  0  0  0  0  0  0  0  0  0  0
   24.5123   32.6302  106.3833 O   0  0  0  0  0  0  0  0  0  0  0  0
   24.9123   35.0302  106.5833 O   0  0  0  0  0  0  0  0  0  0  0  0
  2  1  2  0
  3  2  1  0
  4  2  1  0
  5  2  1  0
M  END
>  <ID>  (1) 
conformer_0

$$$$
