
     RDKit          3D

 22 23  0  0  0  0  0  0  0  0999 V2000
   25.7965   33.4554  107.7057 O   0  0  0  0  0  0  0  0  0  0  0  0
   24.6965   33.8554  106.9057 S   0  0  0  0  0  4  0  0  0  0  0  0
   23.7965   32.7554  106.6057 O   0  0  0  0  0  0  0  0  0  0  0  0
   23.7965   34.8554  107.4057 O   0  0  0  0  0  0  0  0  0  0  0  0
   25.1965   34.0554  105.5057 O   0  0  0  0  0  0  0  0  0  0  0  0
   24.8965   33.4554  104.2057 C   0  0  0  0  0  0  0  0  0  0  0  0
   25.0965   34.4554  103.2057 C   0  0  0  0  0  0  0  0  0  0  0  0
   26.2965   35.2554  103.4057 C   0  0  0  0  0  0  0  0  0  0  0  0
   27.3965   34.5554  104.0057 C   0  0  0  0  0  0  0  0  0  0  0  0
   28.7965   34.7554  103.7057 C   0  0  0  0  0  0  0  0  0  0  0  0
   26.5965   35.7554  102.1057 C   0  0  0  0  0  0  0  0  0  0  0  0
   29.4965   33.5554  103.2057 C   0  0  0  0  0  0  0  0  0  0  0  0
   30.8965   33.5554  103.5057 C   0  0  0  0  0  0  0  0  0  0  0  0
   31.0965   34.5554  104.6057 C   0  0  0  0  0  0  0  0  0  0  0  0
   24.5965   32.1554  103.8057 C   0  0  0  0  0  0  0  0  0  0  0  0
   29.0965   35.9554  103.2057 O   0  0  0  0  0  0  0  0  0  0  0  0
   31.9965   33.6554  102.6057 O   0  0  0  0  0  0  0  0  0  0  0  0
   31.3965   35.7554  104.1057 O   0  0  0  0  0  0  0  0  0  0  0  0
   25.7965   36.2554  101.0057 C   0  0  0  0  0  0  0  0  0  0  0  0
   31.9965   34.0554  105.6057 C   0  0  0  0  0  0  0  0  0  0  0  0
   26.6965   35.6554  104.6057 C   0  0  0  0  0  0  0  0  0  0  0  0
   26.7965   36.7554  101.3057 N   0  0  0  0  0  0  0  0  0  0  0  0
  2  1  1  0
  3  2  1  0
  4  2  1  0
  5  2  1  0
  6  5  1  0
  7  6  1  0
  8  7  1  0
  9  8  1  0
 10  9  1  0
 11  8  1  0
 12 10  1  0
 13 12  1  0
 14 13  1  0
 15  6  1  0
 16 10  1  0
 17 13  1  0
 18 14  1  0
 19 11  1  0
 20 14  1  0
 21  8  1  0
 21  9  1  0
 22 11  1  0
 22 19  1  0
M  END
>  <ID>  (1) 
conformer_0

$$$$
