
     RDKit          3D

 17 18  0  0  0  0  0  0  0  0999 V2000
   25.7965   33.4554  107.7057 O   0  0  0  0  0  0  0  0  0  0  0  0
   24.6965   33.8554  106.9057 S   0  0  0  0  0  4  0  0  0  0  0  0
   23.7965   32.7554  106.6057 O   0  0  0  0  0  0  0  0  0  0  0  0
   23.6965   34.8554  107.4057 O   0  0  0  0  0  0  0  0  0  0  0  0
   25.2965   34.2554  105.6057 O   0  0  0  0  0  0  0  0  0  0  0  0
   24.8965   33.6554  104.3057 C   0  0  0  0  0  0  0  0  0  0  0  0
   25.3965   34.4554  103.2057 C   0  0  0  0  0  0  0  0  0  0  0  0
   26.5965   35.2554  103.5057 C   0  0  0  0  0  0  0  0  0  0  0  0
   27.8965   34.6554  103.3057 C   0  0  0  0  0  0  0  0  0  0  0  0
   28.9965   34.6554  104.1057 N   0  0  0  0  0  0  0  0  0  0  0  0
   30.0965   35.5554  103.8057 C   0  0  0  0  0  0  0  0  0  0  0  0
   29.8965   36.7554  103.6057 O   0  0  0  0  0  0  0  0  0  0  0  0
   31.2965   35.0554  104.5057 C   0  0  0  0  0  0  0  0  0  0  0  0
   31.3965   33.7554  103.8057 C   0  0  0  0  0  0  0  0  0  0  0  0
   30.5965   33.3554  102.7057 C   0  0  0  0  0  0  0  0  0  0  0  0
   31.7965   34.1554  102.4057 N   0  0  0  0  0  0  0  0  0  0  0  0
   28.4965   33.5554  103.6057 C   0  0  0  0  0  0  0  0  0  0  0  0
  2  1  1  0
  3  2  1  0
  4  2  1  0
  5  2  1  0
  6  5  1  0
  7  6  1  0
  8  7  1  0
  9  8  1  0
 10  9  1  0
 11 10  1  0
 12 11  2  0
 13 11  1  0
 14 13  1  0
 15 14  1  0
 16 14  1  0
 16 15  1  0
 17  9  1  0
 17 10  1  0
M  END
>  <ID>  (1) 
conformer_0

$$$$
