
     RDKit          3D

 20 21  0  0  0  0  0  0  0  0999 V2000
   25.7965   33.4554  107.7057 O   0  0  0  0  0  0  0  0  0  0  0  0
   24.6965   33.8554  106.9057 S   0  0  0  0  0  4  0  0  0  0  0  0
   23.7965   32.7554  106.6057 O   0  0  0  0  0  0  0  0  0  0  0  0
   23.8965   34.8554  107.5057 O   0  0  0  0  0  0  0  0  0  0  0  0
   25.0965   34.1554  105.5057 O   0  0  0  0  0  0  0  0  0  0  0  0
   24.8965   33.4554  104.2057 C   0  0  0  0  0  0  0  0  0  0  0  0
   25.0965   34.3554  103.1057 C   0  0  0  0  0  0  0  0  0  0  0  0
   26.1965   35.3554  103.3057 C   0  0  0  0  0  0  0  0  0  0  0  0
   27.2965   34.6554  104.0057 C   0  0  0  0  0  0  0  0  0  0  0  0
   28.4965   34.1554  103.6057 C   0  0  0  0  0  0  0  0  0  0  0  0
   26.5965   35.9554  102.1057 C   0  0  0  0  0  0  0  0  0  0  0  0
   24.1965   32.2554  103.9057 C   0  0  0  0  0  0  0  0  0  0  0  0
   29.7965   34.6554  103.9057 C   0  0  0  0  0  0  0  0  0  0  0  0
   30.8965   33.8554  103.4057 C   0  0  0  0  0  0  0  0  0  0  0  0
   30.3965   32.7554  102.6057 C   0  0  0  0  0  0  0  0  0  0  0  0
   32.1965   33.6554  104.1057 N   0  0  0  0  0  0  0  0  0  0  0  0
   31.8965   34.2554  105.4057 C   0  0  0  0  0  0  0  0  0  0  0  0
   30.7965   35.1554  103.2057 O   0  0  0  0  0  0  0  0  0  0  0  0
   25.9965   36.6554  101.4057 O   0  0  0  0  0  0  0  0  0  0  0  0
   26.4965   35.4554  104.7057 C   0  0  0  0  0  0  0  0  0  0  0  0
  2  1  1  0
  3  2  1  0
  4  2  1  0
  5  2  1  0
  6  5  1  0
  7  6  1  0
  8  7  1  0
  9  8  1  0
 10  9  1  0
 11  8  1  0
 12  6  1  0
 13 10  1  0
 14 13  1  0
 15 14  1  0
 16 14  1  0
 17 16  1  0
 18 13  1  0
 18 14  1  0
 19 11  2  0
 20  8  1  0
 20  9  1  0
M  END
>  <ID>  (1) 
conformer_0

$$$$
