
     RDKit          3D

  5  4  0  0  0  0  0  0  0  0999 V2000
   25.7965   33.4554  107.7057 O   0  0  0  0  0  1  0  0  0  0  0  0
   25.0965   34.2554  106.7057 S   0  0  0  0  0  4  0  0  0  0  0  0
   25.5965   35.4554  106.3057 O   0  0  0  0  0  1  0  0  0  0  0  0
   23.6965   33.8554  106.6057 O   0  0  0  0  0  0  0  0  0  0  0  0
   25.4965   33.6554  105.4057 O   0  0  0  0  0  0  0  0  0  0  0  0
  2  1  1  0
  3  2  1  0
  4  2  1  0
  5  2  1  0
M  END
>  <ID>  (1) 
conformer_0

$$$$
