
     RDKit          3D

 17 18  0  0  0  0  0  0  0  0999 V2000
   25.7965   33.4554  107.7057 O   0  0  0  0  0  0  0  0  0  0  0  0
   24.6965   33.8554  106.9057 S   0  0  0  0  0  4  0  0  0  0  0  0
   23.7965   32.7554  106.6057 O   0  0  0  0  0  0  0  0  0  0  0  0
   23.7965   34.8554  107.4057 O   0  0  0  0  0  0  0  0  0  0  0  0
   25.2965   34.2554  105.6057 O   0  0  0  0  0  0  0  0  0  0  0  0
   25.1965   33.8554  104.3057 C   0  0  0  0  0  0  0  0  0  0  0  0
   25.3965   34.8554  103.2057 C   0  0  0  0  0  0  0  0  0  0  0  0
   26.7965   35.3554  103.3057 C   0  0  0  0  0  0  0  0  0  0  0  0
   27.6965   34.6554  104.2057 C   0  0  0  0  0  0  0  0  0  0  0  0
   28.9965   34.1554  103.7057 C   0  0  0  0  0  0  0  0  0  0  0  0
   29.9965   35.2554  103.9057 C   0  0  0  0  0  0  0  0  0  0  0  0
   31.2965   34.7554  104.4057 C   0  0  0  0  0  0  0  0  0  0  0  0
   30.0965   36.4554  103.3057 O   0  0  0  0  0  0  0  0  0  0  0  0
   31.5965   33.6554  103.6057 C   0  0  0  0  0  0  0  0  0  0  0  0
   32.1965   33.8554  102.4057 O   0  0  0  0  0  0  0  0  0  0  0  0
   29.2965   32.9554  103.0057 C   0  0  0  0  0  0  0  0  0  0  0  0
   30.7965   33.2554  102.6057 C   0  0  0  0  0  0  0  0  0  0  0  0
  2  1  1  0
  3  2  1  0
  4  2  1  0
  5  2  1  0
  6  5  1  0
  7  6  1  0
  8  7  1  0
  9  8  1  0
 10  9  1  0
 11 10  1  0
 12 11  1  0
 13 11  1  0
 14 12  1  0
 15 14  1  0
 16 10  1  0
 17 14  1  0
 17 15  1  0
 17 16  1  0
M  END
>  <ID>  (1) 
conformer_0

$$$$
