
     RDKit          3D

 34 39  0  0  0  0  0  0  0  0999 V2000
   25.7965   33.4554  107.7057 O   0  0  0  0  0  0  0  0  0  0  0  0
   24.6965   33.8554  106.9057 S   0  0  0  0  0  4  0  0  0  0  0  0
   23.7965   32.7554  106.6057 O   0  0  0  0  0  0  0  0  0  0  0  0
   23.7965   34.8554  107.4057 O   0  0  0  0  0  0  0  0  0  0  0  0
   25.1965   34.0554  105.5057 O   0  0  0  0  0  0  0  0  0  0  0  0
   24.8965   33.4554  104.2057 C   0  0  0  0  0  0  0  0  0  0  0  0
   25.0965   34.4554  103.2057 C   0  0  0  0  0  0  0  0  0  0  0  0
   26.2965   35.2554  103.4057 C   0  0  0  0  0  0  0  0  0  0  0  0
   26.6965   35.8554  102.2057 C   0  0  0  0  0  0  0  0  0  0  0  0
   27.2965   34.3554  103.9057 C   0  0  0  0  0  0  0  0  0  0  0  0
   25.8965   36.3554  101.2057 C   0  0  0  0  0  0  0  0  0  0  0  0
   28.5965   34.4554  103.9057 N   0  0  0  0  0  0  0  0  0  0  0  0
   29.3965   33.5554  103.2057 C   0  0  0  0  0  0  0  0  0  0  0  0
   30.7965   33.5554  103.3057 C   0  0  0  0  0  0  0  0  0  0  0  0
   31.0965   34.5554  104.3057 C   0  0  0  0  0  0  0  0  0  0  0  0
   30.5965   35.7554  103.7057 N   0  0  0  0  0  0  0  0  0  0  0  0
   29.1965   35.7554  103.7057 C   0  0  0  0  0  0  0  0  0  0  0  0
   32.2965   34.4554  104.9057 N   0  0  0  0  0  0  0  0  0  0  0  0
   24.3965   32.2554  103.8057 C   0  0  0  0  0  0  0  0  0  0  0  0
   24.2965   30.9554  104.5057 C   0  0  0  0  0  0  0  0  0  0  0  0
   23.5965   30.1554  103.6057 N   0  0  0  0  0  0  0  0  0  0  0  0
   22.3965   30.8554  103.4057 C   0  0  0  0  0  0  0  0  0  0  0  0
   23.3965   28.7554  103.9057 C   0  0  0  0  0  0  0  0  0  0  0  0
   24.2965   28.0554  104.3057 O   0  0  0  0  0  0  0  0  0  0  0  0
   21.1965   30.2554  103.8057 C   0  0  0  0  0  0  0  0  0  0  0  0
   22.3965   28.4554  103.1057 N   0  0  0  0  0  0  0  0  0  0  0  0
   21.2965   29.0554  103.5057 N   0  0  0  0  0  0  0  0  0  0  0  0
   26.7965   35.4554  104.7057 C   0  0  0  0  0  0  0  0  0  0  0  0
   21.7965   28.9554  102.1057 C   0  0  0  0  0  0  0  0  0  0  0  0
   25.4965   37.5554  100.7057 N   0  0  0  0  0  0  0  0  0  0  0  0
   24.6965   36.1554  101.9057 O   0  0  0  0  0  0  0  0  0  0  0  0
   21.8965   31.3554  104.6057 C   0  0  0  0  0  0  0  0  0  0  0  0
   26.6965   35.7554  101.2057 O   0  0  0  0  0  0  0  0  0  0  0  0
   24.0965   34.7554  102.3057 C   0  0  0  0  0  0  0  0  0  0  0  0
  2  1  1  0
  3  2  1  0
  4  2  1  0
  5  2  1  0
  6  5  1  0
  7  6  1  0
  8  7  1  0
  9  8  1  0
 10  8  1  0
 11  9  1  0
 12 10  1  0
 13 12  1  0
 14 13  1  0
 15 14  2  0
 16 15  1  0
 17 12  1  0
 17 16  2  0
 18 15  1  0
 19  6  1  0
 20 19  2  3
 21 20  1  0
 22 21  1  0
 23 21  1  0
 24 23  2  0
 25 22  1  0
 26 23  1  0
 27 25  1  0
 28  8  1  0
 28 10  1  0
 29 26  1  0
 29 27  1  0
 30 11  1  0
 31 11  1  0
 32 22  1  0
 32 25  1  0
 33  9  1  0
 33 11  1  0
 34  7  2  0
 34 31  1  0
M  END
>  <ID>  (1) 
conformer_0

$$$$
