
     RDKit          3D

 22 24  0  0  0  0  0  0  0  0999 V2000
   25.7965   33.4554  107.7057 O   0  0  0  0  0  0  0  0  0  0  0  0
   24.6965   33.8554  106.9057 S   0  0  0  0  0  4  0  0  0  0  0  0
   23.7965   32.7554  106.6057 O   0  0  0  0  0  0  0  0  0  0  0  0
   23.8965   34.8554  107.5057 O   0  0  0  0  0  0  0  0  0  0  0  0
   25.0965   34.1554  105.5057 O   0  0  0  0  0  0  0  0  0  0  0  0
   24.8965   33.4554  104.2057 C   0  0  0  0  0  0  0  0  0  0  0  0
   24.1965   32.2554  103.9057 C   0  0  0  0  0  0  0  0  0  0  0  0
   25.3965   34.2554  103.1057 C   0  0  0  0  0  0  0  0  0  0  0  0
   26.4965   35.1554  103.5057 C   0  0  0  0  0  0  0  0  0  0  0  0
   27.8965   35.2554  103.2057 C   0  0  0  0  0  0  0  0  0  0  0  0
   28.8965   34.2554  103.5057 C   0  0  0  0  0  0  0  0  0  0  0  0
   30.2965   34.6554  103.6057 C   0  0  0  0  0  0  0  0  0  0  0  0
   31.3965   33.8554  103.8057 C   0  0  0  0  0  0  0  0  0  0  0  0
   32.4965   33.7554  104.6057 N   0  0  0  0  0  0  0  0  0  0  0  0
   24.4965   30.8554  104.3057 C   0  0  0  0  0  0  0  0  0  0  0  0
   23.4965   30.0554  104.0057 C   0  0  0  0  0  0  0  0  0  0  0  0
   22.1965   30.7554  103.8057 C   0  0  0  0  0  0  0  0  0  0  0  0
   21.7965   31.7554  104.7057 C   0  0  0  0  0  0  0  0  0  0  0  0
   20.4965   31.8554  105.2057 N   0  0  0  0  0  0  0  0  0  0  0  0
   30.0965   36.0554  103.8057 N   0  0  0  0  0  0  0  0  0  0  0  0
   28.6965   36.3554  103.7057 C   0  0  0  0  0  0  0  0  0  0  0  0
   22.7965   32.1554  104.2057 N   0  0  0  0  0  0  0  0  0  0  0  0
  2  1  1  0
  3  2  1  0
  4  2  1  0
  5  2  1  0
  6  5  1  0
  7  6  1  0
  8  6  1  0
  9  8  1  0
 10  9  1  0
 11 10  2  0
 12 11  1  0
 13 12  1  0
 14 13  1  0
 15  7  2  0
 16 15  1  0
 17 16  2  0
 18 17  1  0
 19 18  1  0
 20 12  2  0
 21 10  1  0
 21 20  1  0
 22  7  1  0
 22 17  1  0
 22 18  1  0
M  END
>  <ID>  (1) 
conformer_0

$$$$
