
     RDKit          3D

 15 14  0  0  0  0  0  0  0  0999 V2000
   25.7965   33.4554  107.7057 O   0  0  0  0  0  0  0  0  0  0  0  0
   24.6965   33.8554  106.9057 S   0  0  0  0  0  4  0  0  0  0  0  0
   23.7965   32.7554  106.6057 O   0  0  0  0  0  0  0  0  0  0  0  0
   23.7965   34.8554  107.4057 O   0  0  0  0  0  0  0  0  0  0  0  0
   25.2965   34.2554  105.6057 O   0  0  0  0  0  0  0  0  0  0  0  0
   24.8965   33.9554  104.2057 C   0  0  0  0  0  0  0  0  0  0  0  0
   25.2965   34.8554  103.1057 C   0  0  0  0  0  0  0  0  0  0  0  0
   26.6965   35.2554  103.0057 C   0  0  0  0  0  0  0  0  0  0  0  0
   27.4965   34.7554  104.1057 C   0  0  0  0  0  0  0  0  0  0  0  0
   28.7965   34.1554  103.9057 C   0  0  0  0  0  0  0  0  0  0  0  0
   29.9965   34.7554  104.5057 C   0  0  0  0  0  0  0  0  0  0  0  0
   31.2965   34.1554  104.1057 C   0  0  0  0  0  0  0  0  0  0  0  0
   32.2965   33.7554  104.8057 N   0  0  0  0  0  0  0  0  0  0  0  0
   31.0965   33.6554  102.7057 C   0  0  0  0  0  0  0  0  0  0  0  0
   32.2965   33.7554  101.9057 O   0  0  0  0  0  0  0  0  0  0  0  0
  2  1  1  0
  3  2  1  0
  4  2  1  0
  5  2  1  0
  6  5  1  0
  7  6  1  0
  8  7  1  0
  9  8  1  0
 10  9  1  0
 11 10  2  3
 12 11  1  0
 13 12  2  0
 14 12  1  0
 15 14  1  0
M  END
>  <ID>  (1) 
conformer_0

$$$$
