
     RDKit          3D

 25 27  0  0  0  0  0  0  0  0999 V2000
   25.7965   33.4554  107.7057 O   0  0  0  0  0  0  0  0  0  0  0  0
   24.6965   33.8554  106.9057 S   0  0  0  0  0  4  0  0  0  0  0  0
   23.7965   32.7554  106.6057 O   0  0  0  0  0  0  0  0  0  0  0  0
   23.8965   34.8554  107.5057 O   0  0  0  0  0  0  0  0  0  0  0  0
   25.0965   34.1554  105.5057 O   0  0  0  0  0  0  0  0  0  0  0  0
   24.7965   33.4554  104.3057 C   0  0  0  0  0  0  0  0  0  0  0  0
   24.0965   32.2554  103.8057 C   0  0  0  0  0  0  0  0  0  0  0  0
   25.2965   34.2554  103.2057 C   0  0  0  0  0  0  0  0  0  0  0  0
   26.3965   35.2554  103.4057 C   0  0  0  0  0  0  0  0  0  0  0  0
   26.7965   35.8554  102.1057 C   0  0  0  0  0  0  0  0  0  0  0  0
   24.2965   30.8554  104.3057 C   0  0  0  0  0  0  0  0  0  0  0  0
   23.0965   30.1554  104.5057 C   0  0  0  0  0  0  0  0  0  0  0  0
   22.0965   30.8554  103.8057 C   0  0  0  0  0  0  0  0  0  0  0  0
   20.7965   30.8554  104.3057 N   0  0  0  0  0  0  0  0  0  0  0  0
   22.5965   32.0554  103.7057 N   0  0  0  0  0  0  0  0  0  0  0  0
   27.3965   34.7554  104.4057 C   0  0  0  0  0  0  0  0  0  0  0  0
   28.6965   35.4554  104.2057 C   0  0  0  0  0  0  0  0  0  0  0  0
   29.6965   34.5554  103.8057 N   0  0  0  0  0  0  0  0  0  0  0  0
   30.9965   34.4554  104.4057 C   0  0  0  0  0  0  0  0  0  0  0  0
   31.9965   33.6554  104.0057 N   0  0  0  0  0  0  0  0  0  0  0  0
   29.4965   33.4554  103.1057 C   0  0  0  0  0  0  0  0  0  0  0  0
   30.2965   32.6554  102.6057 C   0  0  0  0  0  0  0  0  0  0  0  0
   30.7965   34.4554  105.8057 O   0  0  0  0  0  0  0  0  0  0  0  0
   31.6965   33.3554  102.6057 C   0  0  0  0  0  0  0  0  0  0  0  0
   25.8965   33.0554  103.7057 N   0  0  0  0  0  0  0  0  0  0  0  0
  2  1  1  0
  3  2  1  0
  4  2  1  0
  5  2  1  0
  6  5  1  0
  7  6  1  0
  8  6  1  0
  9  8  1  0
 10  9  1  0
 11  7  2  0
 12 11  1  0
 13 12  2  0
 14 13  1  0
 15  7  1  0
 15 13  1  0
 16  9  1  0
 17 16  1  0
 18 17  1  0
 19 18  1  0
 20 19  1  0
 21 18  1  0
 22 21  1  0
 23 19  2  0
 24 20  1  0
 24 22  1  0
 25  6  1  0
 25  8  1  0
M  END
>  <ID>  (1) 
conformer_0

$$$$
