
     RDKit          3D

 31 36  0  0  0  0  0  0  0  0999 V2000
   25.7965   33.4554  107.7057 O   0  0  0  0  0  0  0  0  0  0  0  0
   24.6965   33.8554  106.9057 S   0  0  0  0  0  4  0  0  0  0  0  0
   23.7965   32.7554  106.6057 O   0  0  0  0  0  0  0  0  0  0  0  0
   23.7965   34.8554  107.4057 O   0  0  0  0  0  0  0  0  0  0  0  0
   25.1965   34.0554  105.5057 O   0  0  0  0  0  0  0  0  0  0  0  0
   24.8965   33.4554  104.2057 C   0  0  0  0  0  0  0  0  0  0  0  0
   25.0965   34.4554  103.2057 C   0  0  0  0  0  0  0  0  0  0  0  0
   26.2965   35.2554  103.4057 C   0  0  0  0  0  0  0  0  0  0  0  0
   26.6965   35.8554  102.2057 C   0  0  0  0  0  0  0  0  0  0  0  0
   27.2965   34.3554  103.9057 C   0  0  0  0  0  0  0  0  0  0  0  0
   25.8965   36.3554  101.2057 C   0  0  0  0  0  0  0  0  0  0  0  0
   28.5965   34.4554  103.9057 N   0  0  0  0  0  0  0  0  0  0  0  0
   29.3965   33.5554  103.2057 C   0  0  0  0  0  0  0  0  0  0  0  0
   30.7965   33.5554  103.3057 C   0  0  0  0  0  0  0  0  0  0  0  0
   31.0965   34.5554  104.3057 C   0  0  0  0  0  0  0  0  0  0  0  0
   30.5965   35.7554  103.7057 N   0  0  0  0  0  0  0  0  0  0  0  0
   29.1965   35.7554  103.7057 C   0  0  0  0  0  0  0  0  0  0  0  0
   32.2965   34.4554  104.9057 N   0  0  0  0  0  0  0  0  0  0  0  0
   24.3965   32.1554  103.9057 C   0  0  0  0  0  0  0  0  0  0  0  0
   23.2965   31.4554  104.0057 C   0  0  0  0  0  0  0  0  0  0  0  0
   23.3965   30.0554  104.3057 C   0  0  0  0  0  0  0  0  0  0  0  0
   24.5965   29.7554  104.7057 C   0  0  0  0  0  0  0  0  0  0  0  0
   24.8965   28.7554  105.6057 N   0  0  0  0  0  0  0  0  0  0  0  0
   23.6965   28.5554  106.3057 C   0  0  0  0  0  0  0  0  0  0  0  0
   24.0965   27.6554  105.2057 C   0  0  0  0  0  0  0  0  0  0  0  0
   26.7965   35.5554  104.6057 C   0  0  0  0  0  0  0  0  0  0  0  0
   25.2965   30.9554  104.2057 O   0  0  0  0  0  0  0  0  0  0  0  0
   25.3965   37.4554  100.7057 N   0  0  0  0  0  0  0  0  0  0  0  0
   24.8965   35.5554  101.4057 O   0  0  0  0  0  0  0  0  0  0  0  0
   26.9965   36.2554  101.2057 O   0  0  0  0  0  0  0  0  0  0  0  0
   23.9965   34.4554  103.8057 O   0  0  0  0  0  0  0  0  0  0  0  0
  2  1  1  0
  3  2  1  0
  4  2  1  0
  5  2  1  0
  6  5  1  0
  7  6  1  0
  8  7  1  0
  9  8  1  0
 10  8  1  0
 11  9  1  0
 12 10  1  0
 13 12  1  0
 14 13  1  0
 15 14  2  0
 16 15  1  0
 17 12  1  0
 17 16  2  0
 18 15  1  0
 19  6  1  0
 20 19  2  0
 21 20  1  0
 22 21  2  0
 23 22  1  0
 24 23  1  0
 25 23  1  0
 25 24  1  0
 26  8  1  0
 26 10  1  0
 27 19  1  0
 27 22  1  0
 28 11  1  0
 29 11  1  0
 30  9  1  0
 30 11  1  0
 31  6  1  0
 31  7  1  0
M  END
>  <ID>  (1) 
conformer_0

$$$$
