
     RDKit          3D

 35 40  0  0  0  0  0  0  0  0999 V2000
   25.7965   33.4554  107.7057 O   0  0  0  0  0  0  0  0  0  0  0  0
   24.6965   33.8554  106.9057 S   0  0  0  0  0  4  0  0  0  0  0  0
   23.7965   32.7554  106.6057 O   0  0  0  0  0  0  0  0  0  0  0  0
   23.7965   34.8554  107.4057 O   0  0  0  0  0  0  0  0  0  0  0  0
   25.1965   34.0554  105.5057 O   0  0  0  0  0  0  0  0  0  0  0  0
   24.8965   33.4554  104.2057 C   0  0  0  0  0  0  0  0  0  0  0  0
   25.0965   34.4554  103.2057 C   0  0  0  0  0  0  0  0  0  0  0  0
   26.2965   35.2554  103.4057 C   0  0  0  0  0  0  0  0  0  0  0  0
   26.6965   35.8554  102.2057 C   0  0  0  0  0  0  0  0  0  0  0  0
   27.2965   34.3554  103.9057 C   0  0  0  0  0  0  0  0  0  0  0  0
   25.8965   36.3554  101.2057 C   0  0  0  0  0  0  0  0  0  0  0  0
   28.5965   34.4554  103.9057 N   0  0  0  0  0  0  0  0  0  0  0  0
   29.3965   33.5554  103.2057 C   0  0  0  0  0  0  0  0  0  0  0  0
   30.7965   33.5554  103.3057 C   0  0  0  0  0  0  0  0  0  0  0  0
   31.0965   34.5554  104.3057 C   0  0  0  0  0  0  0  0  0  0  0  0
   30.5965   35.7554  103.7057 N   0  0  0  0  0  0  0  0  0  0  0  0
   29.1965   35.7554  103.7057 C   0  0  0  0  0  0  0  0  0  0  0  0
   32.2965   34.4554  104.9057 N   0  0  0  0  0  0  0  0  0  0  0  0
   24.3965   32.1554  103.9057 C   0  0  0  0  0  0  0  0  0  0  0  0
   23.2965   31.4554  104.0057 C   0  0  0  0  0  0  0  0  0  0  0  0
   23.3965   30.0554  104.3057 C   0  0  0  0  0  3  0  0  0  0  0  0
   24.6965   29.7554  104.4057 C   0  0  0  0  0  0  0  0  0  0  0  0
   24.8965   28.6554  105.3057 N   0  0  0  0  0  0  0  0  0  0  0  0
   22.3965   29.1554  104.0057 N   0  0  0  0  0  0  0  0  0  0  0  0
   23.0965   27.8554  104.0057 C   0  0  0  0  0  0  0  0  0  0  0  0
   23.7965   27.7554  105.2057 C   0  0  0  0  0  0  0  0  0  0  0  0
   21.0965   29.3554  103.7057 C   0  0  0  0  0  0  0  0  0  0  0  0
   26.7965   35.5554  104.6057 C   0  0  0  0  0  0  0  0  0  0  0  0
   20.1965   30.4554  104.0057 C   0  0  0  0  0  0  0  0  0  0  0  0
   21.1965   30.6554  103.0057 N   0  0  0  0  0  0  0  0  0  0  0  0
   25.2965   30.9554  104.3057 N   0  0  0  0  0  0  0  0  0  0  0  0
   25.6965   37.4554  100.5057 N   0  0  0  0  0  0  0  0  0  0  0  0
   24.7965   36.0554  101.8057 O   0  0  0  0  0  0  0  0  0  0  0  0
   24.8965   30.7554  105.5057 N   0  0  0  0  0  0  0  0  0  0  0  0
   26.5965   35.5554  101.0057 O   0  0  0  0  0  0  0  0  0  0  0  0
  2  1  1  0
  3  2  1  0
  4  2  1  0
  5  2  1  0
  6  5  1  0
  7  6  1  0
  8  7  1  0
  9  8  1  0
 10  8  1  0
 11  9  1  0
 12 10  1  0
 13 12  1  0
 14 13  1  0
 15 14  2  0
 16 15  1  0
 17 12  1  0
 17 16  2  0
 18 15  1  0
 19  6  1  0
 20 19  2  0
 21 20  1  0
 22 21  1  0
 23 22  1  0
 24 21  1  0
 25 24  1  0
 26 23  1  0
 26 25  1  0
 27 24  1  0
 28  8  1  0
 28 10  1  0
 29 27  1  0
 30 27  1  0
 30 29  1  0
 31 19  1  0
 31 22  1  0
 32 11  1  0
 33 11  1  0
 34 22  1  0
 35  9  1  0
 35 11  1  0
M  END
>  <ID>  (1) 
conformer_0

$$$$
