
     RDKit          3D

 12 13  0  0  0  0  0  0  0  0999 V2000
   -0.6619   11.4142    0.9491 C   0  0  0  0  0  0  0  0  0  0  0  0
   -0.1076   11.8561    3.2149 C   0  0  0  0  0  0  0  0  0  0  0  0
   -1.4111   10.0299    2.7179 N   0  0  0  0  0  0  0  0  0  0  0  0
    0.7265   13.2800    1.4314 C   0  0  0  0  0  0  0  0  0  0  0  0
   -0.7602   11.0809    2.2872 C   0  0  0  0  0  0  0  0  0  0  0  0
    0.8995   13.9350   -1.2479 C   0  0  0  0  0  0  0  0  0  0  0  0
   -0.2701   11.6601    4.4715 O   0  0  0  0  0  0  0  0  0  0  0  0
    0.0498   12.5074    0.5096 C   0  0  0  0  0  0  0  0  0  0  0  0
    0.1263   12.8994   -0.8224 C   0  0  0  0  0  0  0  0  0  0  0  0
    1.7845   14.5246   -0.3179 C   0  0  0  0  0  0  0  0  0  0  0  0
    0.6651   12.9277    2.7608 C   0  0  0  0  0  0  0  0  0  0  0  0
    1.4817   14.2964    0.9647 N   0  0  0  0  0  0  0  0  0  0  0  0
  1  5  1  0
  1  8  2  0
  2  5  1  0
  2  7  2  0
  2 11  1  0
  3  5  2  0
  4  8  1  0
  4 11  1  0
  4 12  2  0
  6  9  2  0
  6 10  1  0
  8  9  1  0
 10 12  1  0
M  END
>  <ID>  (1) 
conformer_0

$$$$
