
     RDKit          3D

 22 26  0  0  0  0  0  0  0  0999 V2000
    0.5650   13.3001    0.0669 C   0  0  0  0  0  0  0  0  0  0  0  0
    0.6858   13.2804    2.4928 N   0  0  0  0  0  0  0  0  0  0  0  0
    1.5854   15.3021   -3.5311 C   0  0  0  0  0  0  0  0  0  0  0  0
   -0.0244   11.2382    3.7030 C   0  0  0  0  0  0  0  0  0  0  0  0
    1.3409   13.9067   -3.4842 O   0  0  0  0  0  0  0  0  0  0  0  0
   -0.0852   12.0641    0.0576 C   0  0  0  0  0  0  0  0  0  0  0  0
    0.7800   13.3413   -2.3741 C   0  0  0  0  0  0  0  0  0  0  0  0
   -0.2808   11.4452    1.3439 C   0  0  0  0  0  0  0  0  0  0  0  0
    0.0725    7.4981    3.4870 C   0  0  0  0  0  0  0  0  0  0  0  0
    0.1150   12.0747    2.5369 C   0  0  0  0  0  0  0  0  0  0  0  0
    1.8509   15.9359   -2.1999 C   0  0  0  0  0  0  0  0  0  0  0  0
    1.6925   15.0112    1.9190 N   0  0  0  0  0  0  0  0  0  0  0  0
    0.9035   13.8712    1.2656 N   0  0  0  0  0  0  0  0  0  0  0  0
   -0.2959    8.7045    4.1615 C   0  0  0  0  0  0  0  0  0  0  0  0
   -0.4282    9.9277    3.3200 C   0  0  0  0  0  0  0  0  0  0  0  0
   -0.2213    8.8727    5.4628 O   0  0  0  0  0  0  0  0  0  0  0  0
    0.0555   12.1386   -2.4024 C   0  0  0  0  0  0  0  0  0  0  0  0
    0.9492   13.9508   -1.1386 C   0  0  0  0  0  0  0  0  0  0  0  0
   -0.3896   11.5264   -1.2170 C   0  0  0  0  0  0  0  0  0  0  0  0
   -0.7470   10.0405    1.8044 N   0  0  0  0  0  0  0  0  0  0  0  0
    1.5430   15.1857   -1.0433 O   0  0  0  0  0  0  0  0  0  0  0  0
    1.2933   14.3557    3.2787 C   0  0  0  0  0  0  0  0  0  0  0  0
  1  6  1  0
  1 13  1  0
  1 18  2  0
  2 10  1  0
  2 13  1  0
  2 22  1  0
  3  5  1  0
  3 11  1  0
  4 10  1  0
  4 15  1  0
  5  7  1  0
  6  8  1  0
  6 19  2  0
  7 17  2  0
  7 18  1  0
  8 10  2  0
  8 20  1  0
  9 14  1  0
 11 21  1  0
 12 13  1  0
 12 22  1  0
 14 15  1  0
 14 16  1  0
 15 20  1  0
 17 19  1  0
 18 21  1  0
M  END
>  <ID>  (1) 
conformer_0

$$$$
