
     RDKit          3D

 12 12  0  0  0  0  0  0  0  0999 V2000
    1.0718   15.2376   -1.6196 N   0  0  0  0  0  0  0  0  0  0  0  0
   -0.4502   11.5445    1.2155 C   0  0  0  0  0  0  0  0  0  0  0  0
   -0.6484   11.0844    3.5550 C   0  0  0  0  0  0  0  0  0  0  0  0
    0.5132   13.0136    2.8049 C   0  0  0  0  0  0  0  0  0  0  0  0
    0.4434   13.1150   -0.9696 C   0  0  0  0  0  0  0  0  0  0  0  0
    1.2550   14.2221    3.1366 C   0  0  0  0  0  0  0  0  0  0  0  0
    2.2301   14.6155   -1.4144 N   0  0  0  0  0  0  0  0  0  0  0  0
    0.2823   12.6757    1.4930 C   0  0  0  0  0  0  0  0  0  0  0  0
    0.8240   13.5021    0.3597 C   0  0  0  0  0  0  0  0  0  0  0  0
    1.1551   13.8674   -1.9885 C   0  0  0  0  0  0  0  0  0  0  0  0
   -0.8987   10.7385    2.2509 C   0  0  0  0  0  0  0  0  0  0  0  0
    0.0636   12.2410    3.8720 C   0  0  0  0  0  0  0  0  0  0  0  0
  1  7  1  0
  1 10  1  0
  2  8  1  0
  2 11  1  0
  3 11  2  0
  3 12  1  0
  4  6  1  0
  4  8  2  0
  4 12  1  0
  5  9  1  0
  5 10  1  0
  8  9  1  0
M  END
>  <ID>  (1) 
conformer_0

$$$$
