
     RDKit          3D

 11 11  0  0  0  0  0  0  0  0999 V2000
    0.1106    9.2422    4.0959 C   0  0  0  0  0  0  0  0  0  0  0  0
    1.0585   14.0688    0.0401 C   0  0  0  0  0  0  0  0  0  0  0  0
   -0.2422   11.3824    3.2835 C   0  0  0  0  0  0  0  0  0  0  0  0
    0.8666   13.4373    2.5097 C   0  0  0  0  0  0  0  0  0  0  0  0
   -0.5813   10.5141    4.3147 O   0  0  0  0  0  0  0  0  0  0  0  0
   -0.2776   12.1087    0.9287 C   0  0  0  0  0  0  0  0  0  0  0  0
    2.0570   14.9358    0.2510 N   0  0  0  0  0  0  0  0  0  0  0  0
    0.5373   13.2214    1.1503 C   0  0  0  0  0  0  0  0  0  0  0  0
   -0.6290   11.1753    1.9382 C   0  0  0  0  0  0  0  0  0  0  0  0
    0.4892   12.5528    3.5804 C   0  0  0  0  0  0  0  0  0  0  0  0
    0.5927   13.9213   -1.1268 O   0  0  0  0  0  0  0  0  0  0  0  0
  1  5  1  0
  2  7  1  0
  2  8  1  0
  2 11  2  0
  3  5  1  0
  3  9  1  0
  3 10  2  0
  4  8  1  0
  4 10  1  0
  6  8  2  0
  6  9  1  0
M  END
>  <ID>  (1) 
conformer_0

$$$$
