
     RDKit          3D

  7  6  0  0  0  0  0  0  0  0999 V2000
    0.8624   13.6147    0.9849 C   0  0  0  0  0  0  0  0  0  0  0  0
    1.5138   14.4648    1.7826 O   0  0  0  0  0  0  0  0  0  0  0  0
    0.2173   12.4630    1.3817 O   0  0  0  0  0  0  0  0  0  0  0  0
    0.3134   12.1102    2.7531 C   0  0  0  0  0  0  0  0  0  0  0  0
    0.2016   12.8882    3.8892 O   0  0  0  0  0  0  0  0  0  0  0  0
   -0.4106   10.8142    3.0256 C   0  0  0  0  0  0  0  0  0  0  0  0
    0.4928   14.1357   -0.3491 C   0  0  0  0  0  0  0  0  0  0  0  0
  1  2  2  0
  1  3  1  0
  1  7  1  0
  3  4  1  0
  4  5  2  0
  4  6  1  0
M  END
>  <ID>  (1) 
conformer_0

$$$$
