
     RDKit          3D

 20 21  0  0  0  0  0  0  0  0999 V2000
    1.1955   14.2924   -0.6243 C   0  0  0  0  0  0  0  0  0  0  0  0
   -1.1070    8.3869    3.0883 O   0  0  0  0  0  0  0  0  0  0  0  0
   -0.6621    9.0631    3.9985 C   0  0  0  0  0  0  0  0  0  0  0  0
    0.8621   13.4104   -2.8682 C   0  0  0  0  0  0  0  0  0  0  0  0
    1.3364   14.4199   -2.0301 C   0  0  0  0  0  0  0  0  0  0  0  0
    0.4994   13.1677   -0.0777 C   0  0  0  0  0  0  0  0  0  0  0  0
   -0.8439   10.7213    1.0860 N   0  0  0  0  0  0  0  0  0  0  0  0
   -0.0178   12.2505   -1.0224 C   0  0  0  0  0  0  0  0  0  0  0  0
    1.4261   14.7366    2.2141 F   0  0  0  0  0  0  0  0  0  0  0  0
    2.0531   15.5111   -4.0853 C   0  0  0  0  0  0  0  0  0  0  0  0
    0.7233   13.6301    2.6220 C   0  0  0  0  0  0  0  0  0  0  0  0
   -0.2139   11.6283    1.7865 C   0  0  0  0  0  0  0  0  0  0  0  0
    0.0438   10.1916    3.8524 C   0  0  0  0  0  0  0  0  0  0  0  0
   -0.0016   11.4020    3.1775 C   0  0  0  0  0  0  0  0  0  0  0  0
    0.1562   12.3503   -2.3620 C   0  0  0  0  0  0  0  0  0  0  0  0
    0.8094   14.8575    3.4965 F   0  0  0  0  0  0  0  0  0  0  0  0
    0.4882   12.6302    3.6788 C   0  0  0  0  0  0  0  0  0  0  0  0
    0.2886   12.8604    1.3405 C   0  0  0  0  0  0  0  0  0  0  0  0
    1.9389   15.5633   -2.6010 O   0  0  0  0  0  0  0  0  0  0  0  0
   -0.6349    8.5889    5.3558 C   0  0  0  0  0  0  0  0  0  0  0  0
  1  5  1  0
  1  6  1  0
  2  3  2  0
  3 13  1  0
  3 20  1  0
  4  5  2  0
  4 15  1  0
  5 19  1  0
  6  8  1  0
  6 18  2  3
  7 12  2  0
  8 15  2  0
  9 11  1  0
 10 19  1  0
 11 16  1  0
 11 17  1  0
 11 18  1  0
 12 14  1  0
 12 18  1  0
 13 14  1  0
 14 17  1  0
M  END
>  <ID>  (1) 
conformer_0

$$$$
