
     RDKit          3D

 15 17  0  0  0  0  0  0  0  0999 V2000
    1.1141   14.0199    2.8634 C   0  0  0  0  0  0  0  0  0  0  0  0
    0.6362   13.4234   -1.5440 C   0  0  0  0  0  0  0  0  0  0  0  0
    0.0087   12.5356   -0.7717 C   0  0  0  0  0  0  0  0  0  0  0  0
   -1.3763    8.8416    2.7071 C   0  0  0  0  0  0  0  0  0  0  0  0
    1.3055   14.3355   -0.7669 N   0  0  0  0  0  0  0  0  0  0  0  0
   -0.8385    8.8961    3.9718 C   0  0  0  0  0  0  0  0  0  0  0  0
    0.0175   11.0392    3.4946 C   0  0  0  0  0  0  0  0  0  0  0  0
   -0.5158   10.9817    2.1897 C   0  0  0  0  0  0  0  0  0  0  0  0
    0.2762   12.8973    0.5245 N   0  0  0  0  0  0  0  0  0  0  0  0
   -0.1270   12.2369    1.6059 C   0  0  0  0  0  0  0  0  0  0  0  0
    0.6500   12.7017    2.9060 C   0  0  0  0  0  0  0  0  0  0  0  0
   -0.1323   10.0041    4.3707 C   0  0  0  0  0  0  0  0  0  0  0  0
    1.0647   14.0207    0.4947 C   0  0  0  0  0  0  0  0  0  0  0  0
    1.5122   14.6734    1.6664 O   0  0  0  0  0  0  0  0  0  0  0  0
   -1.2046    9.8952    1.8145 C   0  0  0  0  0  0  0  0  0  0  0  0
  1 11  1  0
  1 14  1  0
  2  3  1  0
  2  5  1  0
  3  9  1  0
  4  6  2  0
  4 15  1  0
  5 13  2  0
  6 12  1  0
  7  8  1  0
  7 12  2  0
  8 10  1  0
  8 15  2  0
  9 10  1  0
  9 13  1  0
 10 11  1  0
 13 14  1  0
M  END
>  <ID>  (1) 
conformer_0

$$$$
