
     RDKit          3D

 19 20  0  0  0  0  0  0  0  0999 V2000
   -0.5802   10.9159    2.1297 C   0  0  0  0  0  0  0  0  0  0  0  0
    0.0556   12.4737    3.8547 C   0  0  0  0  0  0  0  0  0  0  0  0
    0.6486   13.6171    3.4415 C   0  0  0  0  0  0  0  0  0  0  0  0
    0.4278    5.9404    5.3310 O   0  0  0  0  0  0  0  0  0  0  0  0
   -0.6153    7.8848    3.6657 C   0  0  0  0  0  0  0  0  0  0  0  0
    1.3522   14.5038   -0.3933 O   0  0  0  0  0  0  0  0  0  0  0  0
   -0.1113   12.6932   -1.0566 C   0  0  0  0  0  0  0  0  0  0  0  0
   -0.6704   11.6122   -0.2362 O   0  0  0  0  0  0  0  0  0  0  0  0
   -1.3435    8.7475    2.8258 O   0  0  0  0  0  0  0  0  0  0  0  0
   -0.2673    8.4879    4.9302 N   0  0  0  0  0  0  0  0  0  0  0  0
   -0.8827    9.5414    1.8172 C   0  0  0  0  0  0  0  0  0  0  0  0
    0.3732   13.0546    1.1478 C   0  0  0  0  0  0  0  0  0  0  0  0
    1.0127   13.8750    2.1304 N   0  0  0  0  0  0  0  0  0  0  0  0
   -0.4160   11.4032    3.4141 C   0  0  0  0  0  0  0  0  0  0  0  0
    0.5897   13.5750   -0.1748 C   0  0  0  0  0  0  0  0  0  0  0  0
   -0.3174   11.8698    1.0860 C   0  0  0  0  0  0  0  0  0  0  0  0
   -1.5857    6.7016    3.9895 C   0  0  0  0  0  0  0  0  0  0  0  0
    0.8161   14.5754    4.2638 F   0  0  0  0  0  0  0  0  0  0  0  0
   -0.7753    5.7473    4.8516 C   0  0  0  0  0  0  0  0  0  0  0  0
  1 11  1  0
  1 14  1  0
  1 16  1  0
  2  3  1  0
  2 14  2  0
  3 13  1  0
  3 18  1  0
  4 19  1  0
  5  9  1  0
  5 10  1  0
  5 17  1  0
  6 15  2  0
  7  8  1  0
  7 15  1  0
  8 16  1  0
  9 11  1  0
 12 13  1  0
 12 15  1  0
 12 16  2  0
 17 19  1  0
M  END
>  <ID>  (1) 
conformer_0

$$$$
