
     RDKit          3D

  9  9  0  0  0  0  0  0  0  0999 V2000
    1.0620   14.1100    3.3285 C   0  0  0  0  0  0  0  0  0  0  0  0
    0.8071   13.1135    1.2714 C   0  0  0  0  0  0  0  0  0  0  0  0
    1.4690   14.0996   -0.6547 C   0  0  0  0  0  0  0  0  0  0  0  0
    0.4262   13.0710    3.9551 C   0  0  0  0  0  0  0  0  0  0  0  0
    1.2088   13.0135   -0.0313 N   0  0  0  0  0  0  0  0  0  0  0  0
   -0.0207   12.0188    3.2043 C   0  0  0  0  0  0  0  0  0  0  0  0
    2.0510   15.1842   -0.1890 N   0  0  0  0  0  0  0  0  0  0  0  0
    0.1338   12.0430    1.8529 C   0  0  0  0  0  0  0  0  0  0  0  0
    1.1880   14.1654    1.9949 N   0  0  0  0  0  0  0  0  0  0  0  0
  1  4  2  0
  1  9  1  0
  2  5  1  0
  2  8  1  0
  2  9  2  0
  3  5  1  0
  3  7  2  0
  4  6  1  0
  6  8  2  0
M  END
>  <ID>  (1) 
conformer_0

$$$$
