
     RDKit          3D

 17 18  0  0  0  0  0  0  0  0999 V2000
    0.3068    7.7006    4.4844 C   0  0  0  0  0  0  0  0  0  0  0  0
    1.7227   14.7549    0.0839 N   0  0  0  0  0  0  0  0  0  0  0  0
   -0.9254    9.7332    3.4651 N   0  0  0  0  0  0  0  0  0  0  0  0
    0.8248   13.8045   -0.2135 C   0  0  0  0  0  0  0  0  0  0  0  0
   -1.8320    8.6195    3.1210 C   0  0  0  0  0  0  0  0  0  0  0  0
    0.1190    9.2564    4.4139 C   0  0  0  0  0  0  0  0  0  0  0  0
   -0.5021   11.7550    0.3811 C   0  0  0  0  0  0  0  0  0  0  0  0
    0.2519   12.8429    0.7620 C   0  0  0  0  0  0  0  0  0  0  0  0
   -0.9360    7.2313    5.2464 C   0  0  0  0  0  0  0  0  0  0  0  0
    1.1430   14.0414    2.7247 O   0  0  0  0  0  0  0  0  0  0  0  0
   -0.5874   10.8186    2.6002 C   0  0  0  0  0  0  0  0  0  0  0  0
   -2.1331    7.6238    4.3212 C   0  0  0  0  0  0  0  0  0  0  0  0
   -0.8584    5.7476    5.4562 C   0  0  0  0  0  0  0  0  0  0  0  0
    0.1092   11.9323    3.0549 C   0  0  0  0  0  0  0  0  0  0  0  0
    0.5668   13.5359   -1.5923 C   0  0  0  0  0  0  0  0  0  0  0  0
   -0.9363   10.7511    1.2599 C   0  0  0  0  0  0  0  0  0  0  0  0
    0.4907   12.9284    2.1528 C   0  0  0  0  0  0  0  0  0  0  0  0
  1  6  1  0
  1  9  1  0
  2  4  1  0
  3  5  1  0
  3  6  1  0
  3 11  1  0
  4  8  2  3
  4 15  1  0
  5 12  1  0
  7  8  1  0
  7 16  2  0
  8 17  1  0
  9 12  1  0
  9 13  1  0
 10 17  1  0
 11 14  2  0
 11 16  1  0
 14 17  1  0
M  END
>  <ID>  (1) 
conformer_0

$$$$
