
     RDKit          3D

 20 22  0  0  0  0  0  0  0  0999 V2000
    1.7597   14.0240   -2.9934 O   0  0  0  0  0  0  0  0  0  0  0  0
   -0.2861   10.2069    4.0506 N   0  0  0  0  0  0  0  0  0  0  0  0
    0.5491   13.3286    1.2943 C   0  0  0  0  0  0  0  0  0  0  0  0
   -0.0300   12.1194    0.8631 C   0  0  0  0  0  0  0  0  0  0  0  0
    0.4032    7.9099    2.8958 C   0  0  0  0  0  0  0  0  0  0  0  0
    1.2449   14.6935    3.1205 O   0  0  0  0  0  0  0  0  0  0  0  0
    0.3227   12.6170   -1.6156 C   0  0  0  0  0  0  0  0  0  0  0  0
    1.0214   14.3252    0.5078 C   0  0  0  0  0  0  0  0  0  0  0  0
   -0.9485    9.8099    1.7744 N   0  0  0  0  0  0  0  0  0  0  0  0
   -0.7483    8.9837    3.1840 C   0  0  0  0  0  0  0  0  0  0  0  0
    0.4196   12.5764    3.6427 C   0  0  0  0  0  0  0  0  0  0  0  0
   -0.1304   11.9780   -0.5282 C   0  0  0  0  0  0  0  0  0  0  0  0
    1.3031   16.5147   -2.7659 C   0  0  0  0  0  0  0  0  0  0  0  0
    1.0760   13.7384   -1.8101 C   0  0  0  0  0  0  0  0  0  0  0  0
   -0.3792   11.1535    1.8604 C   0  0  0  0  0  0  0  0  0  0  0  0
    1.2983   14.6415   -0.7619 C   0  0  0  0  0  0  0  0  0  0  0  0
   -1.7902    8.3167    3.8553 O   0  0  0  0  0  0  0  0  0  0  0  0
    1.8543   15.2987   -3.5701 C   0  0  0  0  0  0  0  0  0  0  0  0
   -0.0891   11.3733    3.1995 C   0  0  0  0  0  0  0  0  0  0  0  0
    0.7428   13.5518    2.6810 C   0  0  0  0  0  0  0  0  0  0  0  0
  1 14  1  0
  1 18  1  0
  2 10  1  0
  2 19  1  0
  3  4  1  0
  3  8  1  0
  3 20  2  0
  4 12  1  0
  4 15  2  0
  5 10  1  0
  6 20  1  0
  7 12  2  0
  7 14  1  0
  8 16  2  0
  9 10  1  0
  9 15  1  0
 10 17  1  0
 11 19  2  0
 11 20  1  0
 13 18  1  0
 14 16  1  0
 15 19  1  0
M  END
>  <ID>  (1) 
conformer_0

$$$$
