
     RDKit          3D

 14 15  0  0  0  0  0  0  0  0999 V2000
    1.1121   13.8000   -2.5741 C   0  0  0  0  0  0  0  0  0  0  0  0
   -0.7493   11.5481   -0.1838 C   0  0  0  0  0  0  0  0  0  0  0  0
   -0.1395   11.4067    3.9631 C   0  0  0  0  0  0  0  0  0  0  0  0
    1.0764   14.0660   -0.0960 C   0  0  0  0  0  0  0  0  0  0  0  0
   -0.8704   10.4462    3.3003 C   0  0  0  0  0  0  0  0  0  0  0  0
   -1.0475   10.5316    1.9562 C   0  0  0  0  0  0  0  0  0  0  0  0
    2.0451   15.0159   -0.3762 N   0  0  0  0  0  0  0  0  0  0  0  0
    0.2540   12.5959    1.8776 C   0  0  0  0  0  0  0  0  0  0  0  0
    0.5156   13.4213   -1.2488 C   0  0  0  0  0  0  0  0  0  0  0  0
   -0.2224   12.3069   -1.1380 N   0  0  0  0  0  0  0  0  0  0  0  0
    1.6682   14.6492    2.2079 C   0  0  0  0  0  0  0  0  0  0  0  0
   -0.5114   11.5926    1.2214 C   0  0  0  0  0  0  0  0  0  0  0  0
    0.4184   12.4460    3.2513 C   0  0  0  0  0  0  0  0  0  0  0  0
    0.9346   13.7433    1.2869 C   0  0  0  0  0  0  0  0  0  0  0  0
  1  9  1  0
  2 10  2  0
  2 12  1  0
  3  5  1  0
  3 13  2  0
  4  7  1  0
  4  9  2  0
  4 14  1  0
  5  6  2  0
  6 12  1  0
  8 12  2  0
  8 13  1  0
  8 14  1  0
  9 10  1  0
 11 14  1  0
M  END
>  <ID>  (1) 
conformer_0

$$$$
