
     RDKit          3D

 14 15  0  0  0  0  0  0  0  0999 V2000
    1.3924   14.4048    4.1394 C   0  0  0  0  0  0  0  0  0  0  0  0
    1.0120   15.6282    4.7612 C   0  0  0  0  0  0  0  0  0  0  0  0
    1.1452   13.8344   -0.2454 C   0  0  0  0  0  0  0  0  0  0  0  0
    0.8853   13.3781    2.1775 C   0  0  0  0  0  0  0  0  0  0  0  0
    0.8668   13.5175   -1.5612 C   0  0  0  0  0  0  0  0  0  0  0  0
    0.7089   13.2392    4.4216 N   0  0  0  0  0  0  0  0  0  0  0  0
    0.5686   12.5120    3.2463 C   0  0  0  0  0  0  0  0  0  0  0  0
   -0.5927   11.8021   -0.8824 C   0  0  0  0  0  0  0  0  0  0  0  0
    1.3740   14.6033    2.6400 C   0  0  0  0  0  0  0  0  0  0  0  0
    0.0073   12.4974   -1.8750 C   0  0  0  0  0  0  0  0  0  0  0  0
    0.4995   11.2774    3.1464 O   0  0  0  0  0  0  0  0  0  0  0  0
   -0.3404   12.0923    0.4529 C   0  0  0  0  0  0  0  0  0  0  0  0
    1.4862   14.2709   -2.5782 N   0  0  0  0  0  0  0  0  0  0  0  0
    0.5366   13.1003    0.8038 C   0  0  0  0  0  0  0  0  0  0  0  0
  1  2  1  0
  1  6  1  0
  1  9  1  0
  3  5  2  0
  3 14  1  0
  4  7  1  0
  4  9  1  0
  4 14  1  0
  5 10  1  0
  5 13  1  0
  6  7  1  0
  7 11  2  0
  8 10  2  0
  8 12  1  0
 12 14  2  0
M  END
>  <ID>  (1) 
conformer_0

$$$$
