
     RDKit          3D

 14 15  0  0  0  0  0  0  0  0999 V2000
    1.3252   15.3891   -2.0647 C   0  0  0  0  0  0  0  0  0  0  0  0
    1.1518   13.6051    2.4738 N   0  0  0  0  0  0  0  0  0  0  0  0
    0.2867    9.7374    4.3991 O   0  0  0  0  0  0  0  0  0  0  0  0
   -0.2113   12.2648   -0.6969 C   0  0  0  0  0  0  0  0  0  0  0  0
    0.5249   12.8781    3.4623 C   0  0  0  0  0  0  0  0  0  0  0  0
   -0.3981   11.4597    1.6086 C   0  0  0  0  0  0  0  0  0  0  0  0
    0.2418   13.1932   -1.5952 C   0  0  0  0  0  0  0  0  0  0  0  0
   -0.5078   10.3009    3.6980 C   0  0  0  0  0  0  0  0  0  0  0  0
    0.8191   13.4830    1.0958 C   0  0  0  0  0  0  0  0  0  0  0  0
   -1.6496    9.7591    3.2626 N   0  0  0  0  0  0  0  0  0  0  0  0
    1.3106   14.4069    0.1890 C   0  0  0  0  0  0  0  0  0  0  0  0
    0.0514   12.4007    0.6686 C   0  0  0  0  0  0  0  0  0  0  0  0
    0.9535   14.2787   -1.1458 C   0  0  0  0  0  0  0  0  0  0  0  0
   -0.1078   11.6083    3.0358 C   0  0  0  0  0  0  0  0  0  0  0  0
  1 13  1  0
  2  5  1  0
  2  9  2  0
  3  8  2  0
  4  7  2  0
  4 12  1  0
  5 14  1  0
  6 12  2  0
  6 14  1  0
  7 13  1  0
  8 10  1  0
  8 14  1  0
  9 11  1  0
  9 12  1  0
 11 13  2  0
M  END
>  <ID>  (1) 
conformer_0

$$$$
