
     RDKit          3D

 23 25  0  0  0  0  0  0  0  0999 V2000
   -0.6743   10.2935   -3.7935 O   0  0  0  0  0  0  0  0  0  0  0  0
    0.6940   13.2930    3.8765 C   0  0  0  0  0  0  0  0  0  0  0  0
   -0.2925   11.1556    4.1380 C   0  0  0  0  0  0  0  0  0  0  0  0
    0.9528   15.6009    3.7236 F   0  0  0  0  0  0  0  0  0  0  0  0
    1.1741   14.2919    1.9105 N   0  0  0  0  0  0  0  0  0  0  0  0
    0.5127   13.2136   -0.2282 C   0  0  0  0  0  0  0  0  0  0  0  0
    1.7919   15.0040   -3.2454 C   0  0  0  0  0  0  0  0  0  0  0  0
   -0.6211    9.4511    1.9816 C   0  0  0  0  0  0  0  0  0  0  0  0
   -0.1208   11.8820   -2.1477 C   0  0  0  0  0  0  0  0  0  0  0  0
   -0.7972   10.6484   -2.6263 C   0  0  0  0  0  0  0  0  0  0  0  0
    0.0442   12.1413    1.9142 N   0  0  0  0  0  0  0  0  0  0  0  0
   -0.6750    8.9139    3.2729 O   0  0  0  0  0  0  0  0  0  0  0  0
   -0.1128   12.1462   -0.8000 C   0  0  0  0  0  0  0  0  0  0  0  0
   -0.6051   10.8500    1.5412 C   0  0  0  0  0  0  0  0  0  0  0  0
   -0.0948    9.8243    4.2720 C   0  0  0  0  0  0  0  0  0  0  0  0
    2.5372   14.3345    3.9186 F   0  0  0  0  0  0  0  0  0  0  0  0
    0.1917   12.2346    3.2953 C   0  0  0  0  0  0  0  0  0  0  0  0
   -1.4598    9.9588   -1.7827 O   0  0  0  0  0  0  0  0  0  0  0  0
    0.5607   13.2763    1.2447 C   0  0  0  0  0  0  0  0  0  0  0  0
    1.1153   14.1659   -1.0532 C   0  0  0  0  0  0  0  0  0  0  0  0
    0.5524   12.8274   -2.9847 C   0  0  0  0  0  0  0  0  0  0  0  0
    1.1340   13.9647   -2.4267 C   0  0  0  0  0  0  0  0  0  0  0  0
    1.2606   14.3734    3.2759 C   0  0  0  0  0  0  0  0  0  0  0  0
  1 10  2  0
  2 17  2  0
  2 23  1  0
  3 15  1  0
  3 17  1  0
  4 23  1  0
  5 19  2  0
  5 23  1  0
  6 13  1  0
  6 19  1  0
  6 20  2  0
  7 22  1  0
  8 12  1  0
  8 14  1  0
  9 10  1  0
  9 13  2  0
  9 21  1  0
 10 18  1  0
 11 14  1  0
 11 17  1  0
 11 19  1  0
 12 15  1  0
 16 23  1  0
 20 22  1  0
 21 22  2  0
M  END
>  <ID>  (1) 
conformer_0

$$$$
