
     RDKit          3D

 18 19  0  0  0  0  0  0  0  0999 V2000
    0.8208   13.6933    3.2127 C   0  0  0  0  0  0  0  0  0  0  0  0
    1.0064   13.9677    0.8636 C   0  0  0  0  0  0  0  0  0  0  0  0
    0.3960   13.1196   -1.1634 C   0  0  0  0  0  0  0  0  0  0  0  0
   -0.0744   11.5853    2.1844 C   0  0  0  0  0  0  0  0  0  0  0  0
    0.3598   12.9937    0.2186 C   0  0  0  0  0  0  0  0  0  0  0  0
   -1.0709   11.0450    0.0460 C   0  0  0  0  0  0  0  0  0  0  0  0
    1.2715   14.3701    2.0970 C   0  0  0  0  0  0  0  0  0  0  0  0
   -1.4403   10.8828   -1.2263 C   0  0  0  0  0  0  0  0  0  0  0  0
   -0.6494   10.1669    3.9629 N   0  0  0  0  0  0  0  0  0  0  0  0
   -0.2833   11.8775    0.8047 C   0  0  0  0  0  0  0  0  0  0  0  0
   -1.0006   11.5583   -2.3667 C   0  0  0  0  0  0  0  0  0  0  0  0
   -0.5997    8.9147    4.5564 C   0  0  0  0  0  0  0  0  0  0  0  0
    0.2613   12.4683    3.1340 C   0  0  0  0  0  0  0  0  0  0  0  0
   -0.1861   10.1689    2.6030 C   0  0  0  0  0  0  0  0  0  0  0  0
    0.9572   14.2871    4.3920 O   0  0  0  0  0  0  0  0  0  0  0  0
    2.0359   15.4351    2.3085 O   0  0  0  0  0  0  0  0  0  0  0  0
   -0.0879   12.5894   -2.2189 C   0  0  0  0  0  0  0  0  0  0  0  0
    0.6191    8.7491    5.1439 O   0  0  0  0  0  0  0  0  0  0  0  0
  1  7  1  0
  1 13  2  0
  1 15  1  0
  2  5  1  0
  2  7  2  0
  3  5  1  0
  3 17  2  0
  4 10  1  0
  4 13  1  0
  4 14  1  0
  5 10  2  0
  6  8  2  0
  6 10  1  0
  7 16  1  0
  8 11  1  0
  9 12  1  0
  9 14  1  0
 11 17  1  0
 12 18  1  0
M  END
>  <ID>  (1) 
conformer_0

$$$$
