
     RDKit          3D

 24 25  0  0  0  0  0  0  0  0999 V2000
   -0.8240    7.9302    4.5430 N   0  0  0  0  0  0  0  0  0  0  0  0
    1.5278   14.8558   -0.8273 N   0  0  0  0  0  0  0  0  0  0  0  0
   -1.1460    6.7335    4.2017 O   0  0  0  0  0  1  0  0  0  0  0  0
   -0.7933   10.8431    1.6650 C   0  0  0  0  0  0  0  0  0  0  0  0
   -0.6129   11.8653   -0.8210 C   0  0  0  0  0  0  0  0  0  0  0  0
    0.8320   13.8853   -0.3987 C   0  0  0  0  0  0  0  0  0  0  0  0
    0.5397   12.7785   -2.6265 C   0  0  0  0  0  0  0  0  0  0  0  0
    0.2558   12.8248   -1.2676 C   0  0  0  0  0  0  0  0  0  0  0  0
    0.0173   11.8007   -3.4412 C   0  0  0  0  0  0  0  0  0  0  0  0
   -0.2683   13.2534    4.8413 F   0  0  0  0  0  0  0  0  0  0  0  0
    0.2344   15.1541    4.0536 F   0  0  0  0  0  0  0  0  0  0  0  0
    0.3978   12.4872    2.8568 C   0  0  0  0  0  0  0  0  0  0  0  0
    0.5959   13.7225    0.9492 N   0  0  0  0  0  0  0  0  0  0  0  0
   -0.5202    8.1470    5.7486 O   0  0  0  0  0  1  0  0  0  0  0  0
   -0.8479   10.8457   -2.9163 C   0  0  0  0  0  0  0  0  0  0  0  0
   -0.2673   10.2103    3.8417 C   0  0  0  0  0  0  0  0  0  0  0  0
    0.4811   13.7842    3.6861 C   0  0  0  0  0  0  0  0  0  0  0  0
   -0.2567   11.1391    2.8547 C   0  0  0  0  0  0  0  0  0  0  0  0
   -1.4147    8.7221    2.3353 N   0  0  0  0  0  0  0  0  0  0  0  0
   -0.8478    8.9798    3.5604 C   0  0  0  0  0  0  0  0  0  0  0  0
   -1.3889    9.6580    1.4090 C   0  0  0  0  0  0  0  0  0  0  0  0
    1.8310   14.0358    3.4098 F   0  0  0  0  0  0  0  0  0  0  0  0
    0.9306   12.6356    1.6128 N   0  0  0  0  0  0  0  0  0  0  0  0
   -1.1581   10.8712   -1.5699 N   0  0  0  0  0  0  0  0  0  0  0  0
  1  3  1  0
  1 14  1  0
  1 20  1  0
  2  6  2  0
  4 18  2  0
  4 21  1  0
  5  8  2  0
  5 24  1  0
  6  8  1  0
  6 13  1  0
  7  8  1  0
  7  9  2  0
  9 15  1  0
 10 17  1  0
 11 17  1  0
 12 17  1  0
 12 18  1  0
 12 23  1  0
 13 23  2  3
 15 24  2  0
 16 18  1  0
 16 20  2  0
 17 22  1  0
 19 20  1  0
 19 21  2  0
M  END
>  <ID>  (1) 
conformer_0

$$$$
