
     RDKit          3D

 20 20  0  0  0  0  0  0  0  0999 V2000
    1.3786   13.8060   -3.7688 Cl  0  0  0  0  0  0  0  0  0  0  0  0
    1.4686   13.8668    2.5923 C   0  0  0  0  0  0  0  0  0  0  0  0
   -0.0379   12.2264   -2.2149 C   0  0  0  0  0  0  0  0  0  0  0  0
    1.3918   14.5454    3.7844 C   0  0  0  0  0  0  0  0  0  0  0  0
    0.3044    8.6655    4.6932 C   0  0  0  0  0  0  0  0  0  0  0  0
    1.6909   15.4002   -1.5215 N   0  0  0  0  0  0  0  0  0  0  0  0
    0.3255   12.8470    0.7554 C   0  0  0  0  0  0  0  0  0  0  0  0
   -0.5920   11.6196   -1.1692 C   0  0  0  0  0  0  0  0  0  0  0  0
   -0.8977    8.2847    4.9373 O   0  0  0  0  0  0  0  0  0  0  0  0
    0.7444   13.3338   -2.3359 C   0  0  0  0  0  0  0  0  0  0  0  0
    0.8560   13.8396    0.0355 C   0  0  0  0  0  0  0  0  0  0  0  0
   -0.0542   10.8300    3.2083 O   0  0  0  0  0  0  0  0  0  0  0  0
   -1.0825    9.8875    3.1439 C   0  0  0  0  0  0  0  0  0  0  0  0
   -0.0481   12.1785    3.1309 C   0  0  0  0  0  0  0  0  0  0  0  0
    0.3260   15.2418    4.1425 O   0  0  0  0  0  0  0  0  0  0  0  0
   -0.0389   12.8205    4.2696 N   0  0  0  0  0  0  0  0  0  0  0  0
    1.0706   14.1531   -1.2250 C   0  0  0  0  0  0  0  0  0  0  0  0
   -0.4636   11.8604    0.1751 C   0  0  0  0  0  0  0  0  0  0  0  0
   -0.4316    8.5221    3.4128 C   0  0  0  0  0  0  0  0  0  0  0  0
    0.6765   12.8202    2.1428 C   0  0  0  0  0  0  0  0  0  0  0  0
  1 10  1  0
  2  4  1  0
  2 20  1  0
  3  8  2  0
  3 10  1  0
  4 15  1  0
  5  9  1  0
  5 19  1  0
  6 17  1  0
  7 11  1  0
  7 18  2  0
  7 20  1  0
  8 18  1  0
 10 17  1  0
 11 17  2  0
 12 13  1  0
 12 14  1  0
 13 19  1  0
 14 16  2  0
 14 20  1  0
M  END
>  <ID>  (1) 
conformer_0

$$$$
