
     RDKit          3D

 21 23  0  0  0  0  0  0  0  0999 V2000
   -0.8200    9.2659    4.1239 N   0  0  0  0  0  0  0  0  0  0  0  0
    0.8081   13.2665    1.3569 C   0  0  0  0  0  0  0  0  0  0  0  0
    2.3864   16.6421   -2.5767 C   0  0  0  0  0  0  0  0  0  0  0  0
   -1.2421    9.1128    2.8510 C   0  0  0  0  0  0  0  0  0  0  0  0
   -0.3574   11.2030    2.1287 C   0  0  0  0  0  0  0  0  0  0  0  0
    1.4585   14.1963   -3.4931 O   0  0  0  0  0  0  0  0  0  0  0  0
    1.3031   14.0067    0.3165 C   0  0  0  0  0  0  0  0  0  0  0  0
    1.7177   15.3487   -5.7056 C   0  0  0  0  0  0  0  0  0  0  0  0
    1.0310   13.7213   -1.0233 C   0  0  0  0  0  0  0  0  0  0  0  0
    3.2266   15.6186   -0.6285 N   0  0  0  0  0  0  0  0  0  0  0  0
    2.6976   15.3500   -1.8781 C   0  0  0  0  0  0  0  0  0  0  0  0
   -0.0015   12.1578    1.0915 C   0  0  0  0  0  0  0  0  0  0  0  0
    0.1246   12.7159   -1.2205 C   0  0  0  0  0  0  0  0  0  0  0  0
   -1.0417   10.0396    1.8827 C   0  0  0  0  0  0  0  0  0  0  0  0
    1.6854   14.3512   -2.1630 C   0  0  0  0  0  0  0  0  0  0  0  0
   -0.1567   10.4301    4.4437 C   0  0  0  0  0  0  0  0  0  0  0  0
    1.1546   16.6014   -3.5573 C   0  0  0  0  0  0  0  0  0  0  0  0
   -0.3872   11.9602   -0.2273 C   0  0  0  0  0  0  0  0  0  0  0  0
    2.8984   17.7031   -1.8978 O   0  0  0  0  0  0  0  0  0  0  0  0
    1.5416   15.3008   -4.3285 C   0  0  0  0  0  0  0  0  0  0  0  0
    0.0666   11.3791    3.4698 C   0  0  0  0  0  0  0  0  0  0  0  0
  1  4  2  0
  1 16  1  0
  2  7  2  0
  2 12  1  0
  3 11  1  0
  3 17  1  0
  3 19  1  0
  4 14  1  0
  5 12  1  0
  5 14  2  0
  5 21  1  0
  6 15  1  0
  6 20  1  0
  7  9  1  0
  8 20  1  0
  9 13  1  0
  9 15  2  3
 10 11  1  0
 11 15  1  0
 12 18  1  0
 13 18  2  0
 16 21  2  0
 17 20  1  0
M  END
>  <ID>  (1) 
conformer_0

$$$$
