
     RDKit          3D

 27 29  0  0  0  0  0  0  0  0999 V2000
   -0.3889    8.1683    5.6644 O   0  0  0  0  0  0  0  0  0  0  0  0
   -1.6165    8.7428    3.7309 C   0  0  0  0  0  0  0  0  0  0  0  0
    1.8418   14.1887   -4.7326 C   0  0  0  0  0  0  0  0  0  0  0  0
    1.6480   14.7765    2.2337 F   0  0  0  0  0  0  0  0  0  0  0  0
    0.9917   13.4428   -2.4395 C   0  0  0  0  0  0  0  0  0  0  0  0
   -1.2363    7.6312    4.6688 C   0  0  0  0  0  0  0  0  0  0  0  0
   -0.3109    9.4757    3.3541 C   0  0  0  0  0  0  0  0  0  0  0  0
    1.1744   14.4410   -0.4515 O   0  0  0  0  0  0  0  0  0  0  0  0
    1.8604   15.7616   -2.7256 C   0  0  0  0  0  0  0  0  0  0  0  0
   -0.8688    6.2850    4.2905 C   0  0  0  0  0  0  0  0  0  0  0  0
    0.4589   12.5614    0.9382 N   0  0  0  0  0  0  0  0  0  0  0  0
    0.2573   12.8994    2.1411 C   0  0  0  0  0  0  0  0  0  0  0  0
   -0.1813    6.0725    3.0396 C   0  0  0  0  0  0  0  0  0  0  0  0
   -1.1248    5.3427    5.1478 O   0  0  0  0  0  0  0  0  0  0  0  0
   -0.1195    7.3062    2.2033 C   0  0  0  0  0  0  0  0  0  0  0  0
    1.7137   13.3573    3.8308 F   0  0  0  0  0  0  0  0  0  0  0  0
    0.9151   13.9214    2.9589 C   0  0  0  0  0  0  0  0  0  0  0  0
    0.5185   12.6050   -1.4694 N   0  0  0  0  0  0  0  0  0  0  0  0
   -0.7007   12.0480    4.0835 O   0  0  0  0  0  0  0  0  0  0  0  0
    0.6682   13.1568   -0.2568 C   0  0  0  0  0  0  0  0  0  0  0  0
    0.1499   14.6875    3.6951 F   0  0  0  0  0  0  0  0  0  0  0  0
    0.4994    8.3721    2.9218 O   0  0  0  0  0  0  0  0  0  0  0  0
    1.1874   13.2609   -3.8249 N   0  0  0  0  0  0  0  0  0  0  0  0
    1.7489   15.6466   -4.2186 C   0  0  0  0  0  0  0  0  0  0  0  0
   -0.1877   11.7933    2.9820 C   0  0  0  0  0  0  0  0  0  0  0  0
   -0.0958   10.5423    2.3869 C   0  0  0  0  0  0  0  0  0  0  0  0
    1.3920   14.6138   -1.8866 C   0  0  0  0  0  0  0  0  0  0  0  0
  1  6  1  0
  2  6  1  0
  2  7  1  0
  3 23  1  0
  3 24  1  0
  4 17  1  0
  5 18  1  0
  5 23  1  0
  5 27  2  0
  6 10  1  0
  7 22  1  0
  7 26  1  0
  8 20  1  0
  8 27  1  0
  9 24  1  0
  9 27  1  0
 10 13  1  0
 10 14  1  0
 11 12  1  0
 11 20  2  3
 12 17  1  0
 12 25  1  0
 13 15  1  0
 15 22  1  0
 16 17  1  0
 17 21  1  0
 18 20  1  0
 19 25  2  0
 25 26  1  0
M  END
>  <ID>  (1) 
conformer_0

$$$$
