
     RDKit          3D

 12 13  0  0  0  0  0  0  0  0999 V2000
    2.2545   14.9378    0.0581 C   0  0  0  0  0  0  0  0  0  0  0  0
    1.2204   13.9813    0.1936 C   0  0  0  0  0  0  0  0  0  0  0  0
    2.7858   15.2440   -1.2020 C   0  0  0  0  0  0  0  0  0  0  0  0
    2.2904   14.6547   -2.3403 C   0  0  0  0  0  0  0  0  0  0  0  0
    0.0251   12.1036    3.8941 C   0  0  0  0  0  0  0  0  0  0  0  0
    0.6750   13.4776   -1.0123 C   0  0  0  0  0  0  0  0  0  0  0  0
    0.0752   12.1831    1.4818 C   0  0  0  0  0  0  0  0  0  0  0  0
    0.7413   13.4255    1.4812 C   0  0  0  0  0  0  0  0  0  0  0  0
    0.9986   13.9950    2.7427 C   0  0  0  0  0  0  0  0  0  0  0  0
    0.6445   13.3659    3.9362 C   0  0  0  0  0  0  0  0  0  0  0  0
   -0.2283   11.5292    2.6499 C   0  0  0  0  0  0  0  0  0  0  0  0
    1.1904   13.7922   -2.2356 C   0  0  0  0  0  0  0  0  0  0  0  0
  1  2  2  0
  1  3  1  0
  2  6  1  0
  2  8  1  0
  3  4  2  0
  4 12  1  0
  5 10  2  0
  5 11  1  0
  6 12  2  0
  7  8  1  0
  7 11  2  0
  8  9  2  0
  9 10  1  0
M  END
>  <ID>  (1) 
conformer_0

$$$$
