
     RDKit          3D

 12 13  0  0  0  0  0  0  0  0999 V2000
    0.4524   12.8200    0.7643 C   0  0  0  0  0  0  0  0  0  0  0  0
    1.0639   13.9678    3.2640 C   0  0  0  0  0  0  0  0  0  0  0  0
    1.0424   14.0780    0.9123 C   0  0  0  0  0  0  0  0  0  0  0  0
    0.4297   13.4047   -1.0683 C   0  0  0  0  0  0  0  0  0  0  0  0
   -0.5673   10.9538    2.3376 C   0  0  0  0  0  0  0  0  0  0  0  0
   -0.2892   12.1173    4.1947 N   0  0  0  0  0  0  0  0  0  0  0  0
    0.0850   12.1637    2.0165 C   0  0  0  0  0  0  0  0  0  0  0  0
    0.3433   12.8052    3.2449 C   0  0  0  0  0  0  0  0  0  0  0  0
   -0.7395   10.0234    1.5707 N   0  0  0  0  0  0  0  0  0  0  0  0
    1.0606   14.6097   -0.4177 C   0  0  0  0  0  0  0  0  0  0  0  0
   -0.8091   11.0493    3.6438 N   0  0  0  0  0  0  0  0  0  0  0  0
    1.4255   14.5992    2.0924 C   0  0  0  0  0  0  0  0  0  0  0  0
  1  3  1  0
  1  7  1  0
  2  8  2  0
  2 12  1  0
  3 10  1  0
  3 12  2  0
  4 10  1  0
  5  7  1  0
  5  9  2  0
  5 11  1  0
  6  8  1  0
  6 11  1  0
  7  8  1  0
M  END
>  <ID>  (1) 
conformer_0

$$$$
