
     RDKit          3D

 12 12  0  0  0  0  0  0  0  0999 V2000
    1.2922   14.0040    2.6490 C   0  0  0  0  0  0  0  0  0  0  0  0
   -0.6351   10.6749    2.4715 C   0  0  0  0  0  0  0  0  0  0  0  0
   -0.0418   12.0711    1.9974 C   0  0  0  0  0  0  0  0  0  0  0  0
   -1.5595   10.9154    3.4462 O   0  0  0  0  0  0  0  0  0  0  0  0
    0.5752   13.9003    0.3864 C   0  0  0  0  0  0  0  0  0  0  0  0
   -1.0637    9.9511    1.3900 O   0  0  0  0  0  0  0  0  0  0  0  0
   -0.0303   12.6427    0.6913 C   0  0  0  0  0  0  0  0  0  0  0  0
    1.2736   14.2039   -1.8947 C   0  0  0  0  0  0  0  0  0  0  0  0
    0.4059   14.6305   -0.8000 O   0  0  0  0  0  0  0  0  0  0  0  0
    0.6541   12.8226    2.9701 C   0  0  0  0  0  0  0  0  0  0  0  0
    1.2955   14.5606    1.3969 N   0  0  0  0  0  0  0  0  0  0  0  0
    0.4135    9.9392    3.2687 C   0  0  0  0  0  0  0  0  0  0  0  0
  1 10  2  0
  1 11  1  0
  2  3  1  0
  2  4  1  0
  2  6  1  0
  2 12  1  0
  3  7  2  0
  3 10  1  0
  5  7  1  0
  5  9  1  0
  5 11  2  0
  8  9  1  0
M  END
>  <ID>  (1) 
conformer_0

$$$$
