
     RDKit          3D

 15 16  0  0  0  0  0  0  0  0999 V2000
   -1.4355   10.2871    2.6088 C   0  0  0  0  0  0  0  0  0  0  0  0
    1.5074   14.5927    2.0614 N   0  0  0  0  0  0  0  0  0  0  0  0
    2.7018   15.4983   -0.3218 C   0  0  0  0  0  0  0  0  0  0  0  0
    1.2436   14.2300    3.3141 C   0  0  0  0  0  0  0  0  0  0  0  0
    1.1838   13.8044    0.9525 C   0  0  0  0  0  0  0  0  0  0  0  0
    0.4660   12.5889    1.3291 C   0  0  0  0  0  0  0  0  0  0  0  0
   -0.3479   10.8802    3.2133 C   0  0  0  0  0  0  0  0  0  0  0  0
    1.2246   14.1393   -1.5892 C   0  0  0  0  0  0  0  0  0  0  0  0
    1.6843   14.4436   -0.3139 C   0  0  0  0  0  0  0  0  0  0  0  0
    0.6373   13.0762    3.6970 C   0  0  0  0  0  0  0  0  0  0  0  0
    0.1768   10.4033    4.2842 O   0  0  0  0  0  0  0  0  0  0  0  0
    2.6269   15.7745   -2.7129 N   0  0  0  0  0  0  0  0  0  0  0  0
    1.6681   14.7693   -2.7347 C   0  0  0  0  0  0  0  0  0  0  0  0
    0.2355   12.1642    2.7034 C   0  0  0  0  0  0  0  0  0  0  0  0
    3.1402   16.1206   -1.4940 C   0  0  0  0  0  0  0  0  0  0  0  0
  1  7  1  0
  2  4  2  0
  2  5  1  0
  3  9  2  0
  3 15  1  0
  4 10  1  0
  5  6  2  0
  5  9  1  0
  6 14  1  0
  7 11  2  0
  7 14  1  0
  8  9  1  0
  8 13  2  0
 10 14  2  0
 12 13  1  0
 12 15  2  0
M  END
>  <ID>  (1) 
conformer_0

$$$$
