
     RDKit          3D

 10 11  0  0  0  0  0  0  0  0999 V2000
   -0.2075   12.2981   -0.5189 C   0  0  0  0  0  0  0  0  0  0  0  0
    0.8948   13.4032    2.8090 C   0  0  0  0  0  0  0  0  0  0  0  0
   -0.5167   11.5013    3.1251 C   0  0  0  0  0  0  0  0  0  0  0  0
    1.2120   14.2066   -0.7820 C   0  0  0  0  0  0  0  0  0  0  0  0
    0.2583   12.4958    3.6715 C   0  0  0  0  0  0  0  0  0  0  0  0
    0.4221   13.2311   -1.3348 C   0  0  0  0  0  0  0  0  0  0  0  0
    1.3816   14.2671    0.5789 C   0  0  0  0  0  0  0  0  0  0  0  0
   -0.6714   11.4133    1.7335 C   0  0  0  0  0  0  0  0  0  0  0  0
   -0.0760   12.3560    0.8718 C   0  0  0  0  0  0  0  0  0  0  0  0
    0.7236   13.3452    1.4205 C   0  0  0  0  0  0  0  0  0  0  0  0
  1  6  2  0
  1  9  1  0
  2  5  1  0
  2 10  2  0
  3  5  2  0
  3  8  1  0
  4  6  1  0
  4  7  2  0
  7 10  1  0
  8  9  2  0
  9 10  1  0
M  END
>  <ID>  (1) 
conformer_0

$$$$
