
     RDKit          3D

 12 13  0  0  0  0  0  0  0  0999 V2000
   -0.3763   11.7554    1.0538 C   0  0  0  0  0  0  0  0  0  0  0  0
    0.0266   13.0377   -1.1033 C   0  0  0  0  0  0  0  0  0  0  0  0
    1.9521   14.6029   -0.9334 C   0  0  0  0  0  0  0  0  0  0  0  0
    0.2070    9.5561    2.9060 O   0  0  0  0  0  0  0  0  0  0  0  0
    0.1021   11.7572    2.3651 C   0  0  0  0  0  0  0  0  0  0  0  0
    1.0406   13.5720    1.0783 C   0  0  0  0  0  0  0  0  0  0  0  0
    0.9371   12.9849    2.4584 C   0  0  0  0  0  0  0  0  0  0  0  0
    0.2076   12.8043    0.2874 C   0  0  0  0  0  0  0  0  0  0  0  0
   -0.0544   10.7032    3.2914 C   0  0  0  0  0  0  0  0  0  0  0  0
   -0.5157   10.9669    4.4219 O   0  0  0  0  0  0  0  0  0  0  0  0
    0.9295   13.9413   -1.7455 O   0  0  0  0  0  0  0  0  0  0  0  0
    1.8106   14.5823    0.5233 N   0  0  0  0  0  0  0  0  0  0  0  0
  1  5  1  0
  1  8  1  0
  2  8  2  0
  2 11  1  0
  3 11  1  0
  3 12  1  0
  4  9  2  0
  5  7  1  0
  5  9  1  0
  6  7  1  0
  6  8  1  0
  6 12  2  0
  9 10  1  0
M  END
>  <ID>  (1) 
conformer_0

$$$$
