
     RDKit          3D

 11 12  0  0  0  0  0  0  0  0999 V2000
   -0.1582   11.3007    3.2907 C   0  0  0  0  0  0  0  0  0  0  0  0
    0.9933   14.2695   -1.7121 N   0  0  0  0  0  0  0  0  0  0  0  0
    1.5567   14.6065    0.6526 N   0  0  0  0  0  0  0  0  0  0  0  0
    1.3781   14.3588    2.0128 N   0  0  0  0  0  0  0  0  0  0  0  0
    0.1023   12.4126    1.3168 C   0  0  0  0  0  0  0  0  0  0  0  0
    0.2072   12.7051   -0.0160 N   0  0  0  0  0  0  0  0  0  0  0  0
   -0.3413   10.2491    4.2415 C   0  0  0  0  0  0  0  0  0  0  0  0
    0.9070   13.8560   -0.3413 C   0  0  0  0  0  0  0  0  0  0  0  0
   -0.4249   11.2538    1.9389 C   0  0  0  0  0  0  0  0  0  0  0  0
    0.4628   12.5633    3.5798 S   0  0  0  0  0  0  0  0  0  0  0  0
    0.6638   13.2169    2.2605 C   0  0  0  0  0  0  0  0  0  0  0  0
  1  7  1  0
  1  9  1  0
  1 10  1  0
  2  8  2  0
  3  4  1  0
  3  8  1  0
  4 11  1  0
  5  6  2  0
  5  9  1  0
  5 11  1  0
  6  8  1  0
 10 11  1  0
M  END
>  <ID>  (1) 
conformer_0

$$$$
