
     RDKit          3D

 12 12  0  0  0  0  0  0  0  0999 V2000
    1.0732   13.6872    2.5828 C   0  0  0  0  0  0  0  0  0  0  0  0
    1.0691   13.9509   -1.8650 C   0  0  0  0  0  0  0  0  0  0  0  0
    0.4514   13.0130    0.3819 C   0  0  0  0  0  0  0  0  0  0  0  0
    2.3138   15.9125   -2.0437 C   0  0  0  0  0  0  0  0  0  0  0  0
    0.0439   12.4753    4.4109 O   0  0  0  0  0  0  0  0  0  0  0  0
    0.2957   13.0576   -1.0557 C   0  0  0  0  0  0  0  0  0  0  0  0
    0.1282   11.8208    0.9126 N   0  0  0  0  0  0  0  0  0  0  0  0
   -0.3205   10.3856    2.6924 O   0  0  0  0  0  0  0  0  0  0  0  0
    0.9811   13.9692    1.2299 C   0  0  0  0  0  0  0  0  0  0  0  0
    1.3208   15.1984   -1.1293 N   0  0  0  0  0  0  0  0  0  0  0  0
    0.3675   12.5687    3.1361 C   0  0  0  0  0  0  0  0  0  0  0  0
   -0.0008   11.5804    2.2259 C   0  0  0  0  0  0  0  0  0  0  0  0
  1  9  1  0
  1 11  1  0
  2  6  1  0
  2 10  1  0
  3  6  1  0
  3  7  1  0
  3  9  2  0
  4 10  1  0
  5 11  1  0
  7 12  1  0
  8 12  2  0
 11 12  1  0
M  END
>  <ID>  (1) 
conformer_0

$$$$
