
     RDKit          3D

 12 12  0  0  0  0  0  0  0  0999 V2000
    0.5500    6.9588    4.7659 O   0  0  0  0  0  0  0  0  0  0  0  0
   -0.4159    9.9948    3.0101 C   0  0  0  0  0  0  0  0  0  0  0  0
    1.1712   14.1902   -0.2639 C   0  0  0  0  0  0  0  0  0  0  0  0
   -0.1932    7.9204    4.5147 C   0  0  0  0  0  0  0  0  0  0  0  0
    0.3909    9.0343    3.8188 C   0  0  0  0  0  0  0  0  0  0  0  0
    0.7242   13.4916    3.3869 C   0  0  0  0  0  0  0  0  0  0  0  0
    0.8737   13.6442    1.1106 C   0  0  0  0  0  0  0  0  0  0  0  0
   -1.3675    8.1484    4.9773 O   0  0  0  0  0  0  0  0  0  0  0  0
   -0.2193   11.2928    3.6441 N   0  0  0  0  0  0  0  0  0  0  0  0
    0.3577   12.3825    1.4495 C   0  0  0  0  0  0  0  0  0  0  0  0
    1.0921   14.3223    2.2439 N   0  0  0  0  0  0  0  0  0  0  0  0
    0.2690   12.3027    2.8891 C   0  0  0  0  0  0  0  0  0  0  0  0
  1  4  2  0
  2  5  1  0
  2  9  1  0
  3  7  1  0
  4  5  1  0
  4  8  1  0
  6 11  1  0
  6 12  1  0
  7 10  1  0
  7 11  1  0
  9 12  1  0
 10 12  1  0
M  END
>  <ID>  (1) 
conformer_0

$$$$
