
     RDKit          3D

 12 12  0  0  0  0  0  0  0  0999 V2000
   -0.7721   11.0825    2.4598 C   0  0  0  0  0  0  0  0  0  0  0  0
    0.5877   13.3401   -1.0696 C   0  0  0  0  0  0  0  0  0  0  0  0
    1.6132   14.9286    0.6985 N   0  0  0  0  0  0  0  0  0  0  0  0
    0.7820   13.3344    2.8233 C   0  0  0  0  0  0  0  0  0  0  0  0
   -0.4382   11.4776    3.7489 C   0  0  0  0  0  0  0  0  0  0  0  0
    0.4284   12.9655    1.5217 C   0  0  0  0  0  0  0  0  0  0  0  0
    0.3590   12.5970    3.9441 C   0  0  0  0  0  0  0  0  0  0  0  0
    1.4354   14.5370   -1.7449 C   0  0  0  0  0  0  0  0  0  0  0  0
    2.6302   14.4355   -1.8023 O   0  0  0  0  0  0  0  0  0  0  0  0
   -0.3447   11.8110    1.3549 C   0  0  0  0  0  0  0  0  0  0  0  0
    0.8036   15.4986   -2.0660 O   0  0  0  0  0  0  0  0  0  0  0  0
    0.8994   13.7650    0.4013 C   0  0  0  0  0  0  0  0  0  0  0  0
  1  5  1  0
  1 10  2  0
  2  8  1  0
  2 12  1  0
  3 12  1  0
  4  6  1  0
  4  7  1  0
  5  7  2  0
  6 10  1  0
  6 12  2  3
  8  9  2  0
  8 11  1  0
M  END
>  <ID>  (1) 
conformer_0

$$$$
