
     RDKit          3D

 19 21  0  0  0  0  0  0  0  0999 V2000
   -0.7882    8.6346    2.6960 C   0  0  0  0  0  0  0  0  0  0  0  0
    0.6151   13.4035   -0.4875 C   0  0  0  0  0  0  0  0  0  0  0  0
   -0.6624   10.9125    3.5065 C   0  0  0  0  0  0  0  0  0  0  0  0
   -0.9760    7.3383    2.9636 C   0  0  0  0  0  0  0  0  0  0  0  0
   -0.0909   12.1539    1.3620 C   0  0  0  0  0  0  0  0  0  0  0  0
    0.5829   12.9053    3.4053 C   0  0  0  0  0  0  0  0  0  0  0  0
    1.3090   14.4480   -2.4937 N   0  0  0  0  0  0  0  0  0  0  0  0
    1.0853   13.8426    2.3707 S   0  0  0  0  0  0  0  0  0  0  0  0
   -0.3685   11.9709   -2.1402 N   0  0  0  0  0  0  0  0  0  0  0  0
   -0.1453   12.2787   -0.9499 C   0  0  0  0  0  0  0  0  0  0  0  0
   -0.7716    9.0947    5.0725 C   0  0  0  0  0  0  0  0  0  0  0  0
   -0.7125    9.5557    3.7349 C   0  0  0  0  0  0  0  0  0  0  0  0
   -0.9263    7.7936    5.3191 C   0  0  0  0  0  0  0  0  0  0  0  0
   -1.0554    6.8990    4.2817 C   0  0  0  0  0  0  0  0  0  0  0  0
    0.5984   13.2909    0.9875 C   0  0  0  0  0  0  0  0  0  0  0  0
   -0.1001   11.8986    2.7350 C   0  0  0  0  0  0  0  0  0  0  0  0
    1.3130   14.3525   -1.1849 C   0  0  0  0  0  0  0  0  0  0  0  0
   -0.5583   11.5326    0.1352 N   0  0  0  0  0  0  0  0  0  0  0  0
    2.1851   15.1257   -0.5489 N   0  0  0  0  0  0  0  0  0  0  0  0
  1  4  2  0
  1 12  1  0
  2 10  1  0
  2 15  2  0
  2 17  1  0
  3 12  1  0
  3 16  1  0
  4 14  1  0
  5 15  1  0
  5 16  2  0
  5 18  1  0
  6  8  1  0
  6 16  1  0
  7 17  2  0
  8 15  1  0
  9 10  2  0
 10 18  1  0
 11 12  1  0
 11 13  2  0
 13 14  1  0
 17 19  1  0
M  END
>  <ID>  (1) 
conformer_0

$$$$
