
     RDKit          3D

 13 14  0  0  0  0  0  0  0  0999 V2000
   -0.1176    9.7059    4.6140 N   0  0  0  0  0  0  0  0  0  0  0  0
    0.8787   13.9269   -1.2854 C   0  0  0  0  0  0  0  0  0  0  0  0
    0.2090   12.8802   -0.7190 N   0  0  0  0  0  0  0  0  0  0  0  0
    0.9901   13.3749    2.8166 C   0  0  0  0  0  0  0  0  0  0  0  0
    0.4321   12.2411    3.4420 C   0  0  0  0  0  0  0  0  0  0  0  0
    1.7944   14.6935   -0.5122 N   0  0  0  0  0  0  0  0  0  0  0  0
    1.6838   14.7204    0.8804 C   0  0  0  0  0  0  0  0  0  0  0  0
   -0.2457   11.2474    2.7004 C   0  0  0  0  0  0  0  0  0  0  0  0
    0.2105   12.6477    0.6923 C   0  0  0  0  0  0  0  0  0  0  0  0
   -0.6901   10.0105    3.4065 C   0  0  0  0  0  0  0  0  0  0  0  0
    0.9429   13.5820    1.4591 C   0  0  0  0  0  0  0  0  0  0  0  0
   -1.7775    9.2195    2.9450 C   0  0  0  0  0  0  0  0  0  0  0  0
   -0.4136   11.5337    1.3056 C   0  0  0  0  0  0  0  0  0  0  0  0
  1 10  1  0
  2  3  2  0
  2  6  1  0
  3  9  1  0
  4  5  1  0
  4 11  2  0
  5  8  2  0
  6  7  1  0
  7 11  1  0
  8 10  1  0
  8 13  1  0
  9 11  1  0
  9 13  2  0
 10 12  1  0
M  END
>  <ID>  (1) 
conformer_0

$$$$
