
     RDKit          3D

 18 19  0  0  0  0  0  0  0  0999 V2000
   -0.3748    8.6541    4.6489 C   0  0  0  0  0  0  0  0  0  0  0  0
    0.7058   14.3428    0.3982 N   0  0  0  0  0  0  0  0  0  0  0  0
   -1.1359    9.6431    2.2668 C   0  0  0  0  0  0  0  0  0  0  0  0
    0.6911   13.2939   -1.6003 O   0  0  0  0  0  0  0  0  0  0  0  0
   -0.0051    9.9515    4.3140 C   0  0  0  0  0  0  0  0  0  0  0  0
   -0.5505   11.5520    0.3968 N   0  0  0  0  0  0  0  0  0  0  0  0
    0.1023   11.7237    2.6179 N   0  0  0  0  0  0  0  0  0  0  0  0
    0.8013   12.6509    3.3618 C   0  0  0  0  0  0  0  0  0  0  0  0
   -1.1346    7.8798    3.8070 C   0  0  0  0  0  0  0  0  0  0  0  0
    1.9142   14.6987    2.5746 F   0  0  0  0  0  0  0  0  0  0  0  0
   -0.0017   14.6959    3.3394 F   0  0  0  0  0  0  0  0  0  0  0  0
   -0.3599   10.4501    3.0499 C   0  0  0  0  0  0  0  0  0  0  0  0
    0.4353   13.5034    1.3021 C   0  0  0  0  0  0  0  0  0  0  0  0
   -1.5243    8.4032    2.6025 C   0  0  0  0  0  0  0  0  0  0  0  0
    0.8103   13.9227    2.6500 C   0  0  0  0  0  0  0  0  0  0  0  0
   -0.0635   12.2051    1.3585 C   0  0  0  0  0  0  0  0  0  0  0  0
    1.1772   14.1397   -0.8716 C   0  0  0  0  0  0  0  0  0  0  0  0
    2.3739   14.9143   -1.2730 C   0  0  0  0  0  0  0  0  0  0  0  0
  1  5  2  0
  1  9  1  0
  2 13  1  0
  2 17  1  0
  3 12  2  0
  3 14  1  0
  4 17  2  0
  5 12  1  0
  6 16  2  0
  7  8  1  0
  7 12  1  0
  7 16  1  0
  8 15  1  0
  9 14  2  0
 10 15  1  0
 11 15  1  0
 13 15  1  0
 13 16  1  0
 17 18  1  0
M  END
>  <ID>  (1) 
conformer_0

$$$$
