
     RDKit          3D

 10 11  0  0  0  0  0  0  0  0999 V2000
    0.8886   14.0033   -0.9915 C   0  0  0  0  0  0  0  0  0  0  0  0
    0.8908   13.3572    3.6443 N   0  0  0  0  0  0  0  0  0  0  0  0
    1.2662   14.3395    0.2292 N   0  0  0  0  0  0  0  0  0  0  0  0
    1.3337   13.9823    2.5853 N   0  0  0  0  0  0  0  0  0  0  0  0
   -0.2000   11.8356    2.3172 C   0  0  0  0  0  0  0  0  0  0  0  0
    0.1014   12.2940    3.5241 C   0  0  0  0  0  0  0  0  0  0  0  0
    0.9199   13.6801    1.3315 C   0  0  0  0  0  0  0  0  0  0  0  0
    0.1351   12.5269    1.1762 C   0  0  0  0  0  0  0  0  0  0  0  0
    0.1140   12.8666   -1.1308 C   0  0  0  0  0  0  0  0  0  0  0  0
   -0.1345   12.1256   -0.0711 N   0  0  0  0  0  0  0  0  0  0  0  0
  1  3  2  0
  1  9  1  0
  2  4  1  0
  2  6  1  0
  3  7  1  0
  4  7  2  0
  5  6  2  0
  5  8  1  0
  7  8  1  0
  8 10  1  0
  9 10  2  0
M  END
>  <ID>  (1) 
conformer_0

$$$$
