
     RDKit          3D

 11 11  0  0  0  0  0  0  0  0999 V2000
    1.4419   14.4051    0.1688 N   0  0  0  0  0  0  0  0  0  0  0  0
    0.0548   12.5186    0.7517 C   0  0  0  0  0  0  0  0  0  0  0  0
    1.1080   13.7623    2.4773 C   0  0  0  0  0  0  0  0  0  0  0  0
    0.8446   13.5615    1.1314 C   0  0  0  0  0  0  0  0  0  0  0  0
   -0.0999   11.7616    3.0411 C   0  0  0  0  0  0  0  0  0  0  0  0
    1.0436   14.3683   -1.2068 C   0  0  0  0  0  0  0  0  0  0  0  0
    1.2372   15.5220   -1.8683 O   0  0  0  0  0  0  0  0  0  0  0  0
    0.6125   13.3711   -1.8076 O   0  0  0  0  0  0  0  0  0  0  0  0
    0.6365   12.8761    3.4408 C   0  0  0  0  0  0  0  0  0  0  0  0
   -0.5135   10.8549    3.9926 N   0  0  0  0  0  0  0  0  0  0  0  0
   -0.3978   11.5906    1.6793 C   0  0  0  0  0  0  0  0  0  0  0  0
  1  4  1  0
  1  6  1  0
  2  4  2  0
  2 11  1  0
  3  4  1  0
  3  9  1  0
  5  9  2  0
  5 10  1  0
  5 11  1  0
  6  7  2  0
  6  8  1  0
M  END
>  <ID>  (1) 
conformer_0

$$$$
