
     RDKit          3D

 11 12  0  0  0  0  0  0  0  0999 V2000
   -0.1918   11.1238    3.8932 N   0  0  0  0  0  0  0  0  0  0  0  0
    0.2185   12.6324    0.6499 N   0  0  0  0  0  0  0  0  0  0  0  0
    0.7089   13.3358    3.2503 C   0  0  0  0  0  0  0  0  0  0  0  0
    0.8448   13.7753    0.9438 C   0  0  0  0  0  0  0  0  0  0  0  0
    1.0754   14.1494    2.2157 N   0  0  0  0  0  0  0  0  0  0  0  0
   -0.0755   11.7580    1.7031 C   0  0  0  0  0  0  0  0  0  0  0  0
    1.2925   14.6317   -0.0837 N   0  0  0  0  0  0  0  0  0  0  0  0
    0.1429   12.1154    2.9881 C   0  0  0  0  0  0  0  0  0  0  0  0
   -0.0537    8.8123    3.5535 O   0  0  0  0  0  0  0  0  0  0  0  0
   -0.4668   10.4305    1.7280 N   0  0  0  0  0  0  0  0  0  0  0  0
   -0.3620    9.9755    3.1124 C   0  0  0  0  0  0  0  0  0  0  0  0
  1  8  1  0
  1 11  1  0
  2  4  1  0
  2  6  2  0
  3  5  1  0
  3  8  2  0
  4  5  1  0
  4  7  2  0
  6  8  1  0
  6 10  1  0
  9 11  2  0
 10 11  1  0
M  END
>  <ID>  (1) 
conformer_0

$$$$
