
     RDKit          3D

 14 15  0  0  0  0  0  0  0  0999 V2000
   -0.6950   10.0850    3.3910 C   0  0  0  0  0  0  0  0  0  0  0  0
    1.1518   14.4094    1.4671 N   0  0  0  0  0  0  0  0  0  0  0  0
    1.0179   14.4377   -1.3321 N   0  0  0  0  0  0  0  0  0  0  0  0
   -1.0026    9.0737    4.2032 O   0  0  0  0  0  0  0  0  0  0  0  0
   -1.0185   10.0448    2.0475 C   0  0  0  0  0  0  0  0  0  0  0  0
   -0.0305   11.2013    3.8907 C   0  0  0  0  0  0  0  0  0  0  0  0
    0.0183   12.2404    1.6271 C   0  0  0  0  0  0  0  0  0  0  0  0
    1.3144   14.3837    2.8132 C   0  0  0  0  0  0  0  0  0  0  0  0
    0.5035   13.3321    0.8195 C   0  0  0  0  0  0  0  0  0  0  0  0
   -0.6903   11.0852    1.2230 C   0  0  0  0  0  0  0  0  0  0  0  0
    0.9218   13.3706    3.5973 C   0  0  0  0  0  0  0  0  0  0  0  0
    0.4062   13.4067   -0.6716 C   0  0  0  0  0  0  0  0  0  0  0  0
    0.2993   12.2663    3.0162 C   0  0  0  0  0  0  0  0  0  0  0  0
   -0.1545   12.5016   -1.4153 N   0  0  0  0  0  0  0  0  0  0  0  0
  1  4  1  0
  1  5  2  0
  1  6  1  0
  2  8  1  0
  2  9  2  0
  3 12  2  0
  5 10  1  0
  6 13  2  0
  7  9  1  0
  7 10  2  0
  7 13  1  0
  8 11  2  0
  9 12  1  0
 11 13  1  0
 12 14  1  0
M  END
>  <ID>  (1) 
conformer_0

$$$$
