
     RDKit          3D

 27 29  0  0  0  0  0  0  0  0999 V2000
   -1.6579    9.6984   -0.9497 C   0  0  0  0  0  0  0  0  0  0  0  0
   -1.0597    9.4308    4.0717 N   0  0  0  0  0  0  0  0  0  0  0  0
   -1.6274    8.1136    0.8995 C   0  0  0  0  0  0  0  0  0  0  0  0
   -0.1948   11.7295    2.7814 C   0  0  0  0  0  0  0  0  0  0  0  0
    1.8451   14.4144   -2.6388 C   0  0  0  0  0  0  0  0  0  0  0  0
    0.3488   12.2135   -3.3784 C   0  0  0  0  0  0  0  0  0  0  0  0
   -0.4658   11.9481   -1.0519 C   0  0  0  0  0  0  0  0  0  0  0  0
    1.9013   13.9904   -3.9635 C   0  0  0  0  0  0  0  0  0  0  0  0
   -1.9090    7.1275   -0.0102 C   0  0  0  0  0  0  0  0  0  0  0  0
    0.3097   13.0089    1.0066 C   0  0  0  0  0  0  0  0  0  0  0  0
    0.8407   13.8464    3.1480 C   0  0  0  0  0  0  0  0  0  0  0  0
    2.1290   14.1176    3.6096 F   0  0  0  0  0  0  0  0  0  0  0  0
    1.0693   13.7623   -1.7073 N   0  0  0  0  0  0  0  0  0  0  0  0
    0.8667   14.0213    1.7063 C   0  0  0  0  0  0  0  0  0  0  0  0
   -1.4856    7.8178    2.3745 C   0  0  0  0  0  0  0  0  0  0  0  0
   -2.0106    8.6760   -1.8216 C   0  0  0  0  0  0  0  0  0  0  0  0
    0.5165    8.9390    2.6294 O   0  0  0  0  0  0  0  0  0  0  0  0
    1.1375   12.8732   -4.2948 C   0  0  0  0  0  0  0  0  0  0  0  0
   -0.1821   11.9938    1.4262 C   0  0  0  0  0  0  0  0  0  0  0  0
   -0.2046   12.1538    0.2917 O   0  0  0  0  0  0  0  0  0  0  0  0
   -1.4747    9.4088    0.4048 C   0  0  0  0  0  0  0  0  0  0  0  0
    0.2244   14.8599    3.8979 F   0  0  0  0  0  0  0  0  0  0  0  0
   -2.1018    7.4177   -1.3382 C   0  0  0  0  0  0  0  0  0  0  0  0
   -0.6168    8.8183    3.0268 C   0  0  0  0  0  0  0  0  0  0  0  0
    0.3377   12.6652   -2.0451 C   0  0  0  0  0  0  0  0  0  0  0  0
   -1.5266   11.0891   -1.5340 C   0  0  0  0  0  0  0  0  0  0  0  0
    0.3757   12.6120    3.6586 C   0  0  0  0  0  0  0  0  0  0  0  0
  1 16  1  0
  1 21  2  0
  1 26  1  0
  2 24  1  0
  3  9  2  0
  3 15  1  0
  3 21  1  0
  4 19  1  0
  4 27  2  0
  5  8  2  0
  5 13  1  0
  6 18  2  0
  6 25  1  0
  7 20  1  0
  7 25  1  0
  7 26  1  0
  8 18  1  0
  9 23  1  0
 10 14  1  0
 10 19  2  0
 11 12  1  0
 11 14  1  0
 11 22  1  0
 11 27  1  0
 13 25  2  0
 15 24  1  0
 16 23  2  0
 17 24  2  0
 19 20  1  0
M  END
>  <ID>  (1) 
conformer_0

$$$$
