
     RDKit          3D

 17 20  0  0  0  0  0  0  0  0999 V2000
    0.2190   12.2030    3.4478 C   0  0  0  0  0  0  0  0  0  0  0  0
   -1.1243    7.6399    2.6987 C   0  0  0  0  0  0  0  0  0  0  0  0
    0.7013   13.2745    2.7597 C   0  0  0  0  0  0  0  0  0  0  0  0
   -0.3361   11.8959    0.0509 N   0  0  0  0  0  0  0  0  0  0  0  0
   -0.4638    9.6238    4.4510 C   0  0  0  0  0  0  0  0  0  0  0  0
    1.5046   14.3806    2.7486 C   0  0  0  0  0  0  0  0  0  0  0  0
   -0.9961    7.3628    4.0317 C   0  0  0  0  0  0  0  0  0  0  0  0
    0.9417   13.9868    0.5429 C   0  0  0  0  0  0  0  0  0  0  0  0
   -0.9313    8.8666    2.2423 C   0  0  0  0  0  0  0  0  0  0  0  0
   -0.2306   11.8390    1.2678 C   0  0  0  0  0  0  0  0  0  0  0  0
   -0.6578    8.3515    4.8929 C   0  0  0  0  0  0  0  0  0  0  0  0
   -0.1598   12.6697   -1.0001 C   0  0  0  0  0  0  0  0  0  0  0  0
   -0.3137   11.2380    2.5797 C   0  0  0  0  0  0  0  0  0  0  0  0
    0.5931   13.8325   -0.7797 C   0  0  0  0  0  0  0  0  0  0  0  0
    1.6981   14.7958    1.4079 C   0  0  0  0  0  0  0  0  0  0  0  0
    0.3578   13.0267    1.3138 C   0  0  0  0  0  0  0  0  0  0  0  0
   -0.5842    9.8941    3.0832 C   0  0  0  0  0  0  0  0  0  0  0  0
  1  3  1  0
  1 13  1  0
  2  7  2  0
  2  9  1  0
  3  6  1  0
  3 16  2  0
  4 10  2  0
  4 12  1  0
  5 11  2  0
  5 17  1  0
  6 15  1  0
  7 11  1  0
  8 14  1  0
  8 15  1  0
  8 16  1  0
  9 17  2  0
 10 13  1  0
 10 16  1  0
 12 14  1  0
 13 17  1  0
M  END
>  <ID>  (1) 
conformer_0

$$$$
