
     RDKit          3D

 10 10  0  0  0  0  0  0  0  0999 V2000
    0.7562   13.5813    0.0741 C   0  0  0  0  0  0  0  0  0  0  0  0
    1.3934   14.3706    2.8490 O   0  0  0  0  0  0  0  0  0  0  0  0
   -0.4983   11.7052    1.1782 C   0  0  0  0  0  0  0  0  0  0  0  0
    0.3056   13.2326   -1.1219 N   0  0  0  0  0  0  0  0  0  0  0  0
    0.6319   13.2324    2.6152 C   0  0  0  0  0  0  0  0  0  0  0  0
    1.6892   14.5506    0.1181 N   0  0  0  0  0  0  0  0  0  0  0  0
    0.2608   12.8574    1.2744 C   0  0  0  0  0  0  0  0  0  0  0  0
    0.2733   12.4922    3.7433 C   0  0  0  0  0  0  0  0  0  0  0  0
   -0.4978   11.3407    3.5639 C   0  0  0  0  0  0  0  0  0  0  0  0
   -0.8626   10.9459    2.2981 C   0  0  0  0  0  0  0  0  0  0  0  0
  1  4  2  0
  1  6  1  0
  1  7  1  0
  2  5  1  0
  3  7  2  0
  3 10  1  0
  5  7  1  0
  5  8  2  0
  8  9  1  0
  9 10  2  0
M  END
>  <ID>  (1) 
conformer_0

$$$$
