
     RDKit          3D

 21 25  0  0  0  0  0  0  0  0999 V2000
    1.3487   14.3552   -0.5257 C   0  0  0  0  0  0  0  0  0  0  0  0
   -1.3976    8.7498    3.7574 N   0  0  0  0  0  0  0  0  0  0  0  0
    2.3511   15.4962    1.2916 C   0  0  0  0  0  0  0  0  0  0  0  0
    2.0434   15.7204   -2.7205 C   0  0  0  0  0  0  0  0  0  0  0  0
    1.5031   14.2545    1.7976 C   0  0  0  0  0  0  0  0  0  0  0  0
    0.9562   13.7511    0.6495 C   0  0  0  0  0  0  0  0  0  0  0  0
    0.1707   12.6655    0.8777 C   0  0  0  0  0  0  0  0  0  0  0  0
    2.1104   15.5891   -0.2563 C   0  0  0  0  0  0  0  0  0  0  0  0
   -0.3642    9.3403    4.4069 C   0  0  0  0  0  0  0  0  0  0  0  0
    1.6435   13.9719   -4.2359 C   0  0  0  0  0  0  0  0  0  0  0  0
    1.0329   13.3554    2.8424 C   0  0  0  0  0  0  0  0  0  0  0  0
    1.6656   14.3739   -2.8781 C   0  0  0  0  0  0  0  0  0  0  0  0
    1.2155   13.7787   -1.7487 C   0  0  0  0  0  0  0  0  0  0  0  0
   -0.3192   11.1153    2.7833 C   0  0  0  0  0  0  0  0  0  0  0  0
    0.1492   10.5347    3.9464 C   0  0  0  0  0  0  0  0  0  0  0  0
    2.1368   15.1259   -5.0075 C   0  0  0  0  0  0  0  0  0  0  0  0
    2.2444   16.2245   -1.4872 N   0  0  0  0  0  0  0  0  0  0  0  0
   -1.8375    9.3628    2.6361 N   0  0  0  0  0  0  0  0  0  0  0  0
   -1.3222   10.4493    2.1395 C   0  0  0  0  0  0  0  0  0  0  0  0
    0.2279   12.3411    2.2394 C   0  0  0  0  0  0  0  0  0  0  0  0
    2.1256   16.2527   -4.0378 C   0  0  0  0  0  0  0  0  0  0  0  0
  1  6  2  0
  1  8  1  0
  1 13  1  0
  2  9  2  0
  2 18  1  0
  3  5  1  0
  3  8  1  0
  4 12  1  0
  4 17  2  0
  4 21  1  0
  5  6  1  0
  5 11  1  0
  6  7  1  0
  7 20  1  0
  8 17  1  0
  9 15  1  0
 10 12  1  0
 10 16  1  0
 11 20  1  0
 12 13  2  0
 14 15  2  0
 14 19  1  0
 14 20  1  0
 16 21  1  0
 18 19  2  0
M  END
>  <ID>  (1) 
conformer_0

$$$$
