
     RDKit          3D

 11 11  0  0  0  0  0  0  0  0999 V2000
   -0.1046   11.3717    3.6663 C   0  0  0  0  0  0  0  0  0  0  0  0
   -0.0732   11.9995    1.2772 C   0  0  0  0  0  0  0  0  0  0  0  0
    0.8920   13.5690    2.6439 C   0  0  0  0  0  0  0  0  0  0  0  0
    1.0450   13.9926    1.2922 C   0  0  0  0  0  0  0  0  0  0  0  0
    0.5089   12.9976    0.4876 C   0  0  0  0  0  0  0  0  0  0  0  0
    0.1561   12.3158    2.6374 C   0  0  0  0  0  0  0  0  0  0  0  0
   -0.2486   10.0246    3.1269 C   0  0  0  0  0  0  0  0  0  0  0  0
   -0.4708    9.0024    4.1811 C   0  0  0  0  0  0  0  0  0  0  0  0
    0.5011    8.9175    5.0640 O   0  0  0  0  0  0  0  0  0  0  0  0
   -1.7625    8.3571    3.9646 C   0  0  0  0  0  0  0  0  0  0  0  0
    1.8678   14.9674    0.8910 N   0  0  0  0  0  0  0  0  0  0  0  0
  1  6  1  0
  1  7  1  0
  2  5  1  0
  2  6  1  0
  3  4  1  0
  3  6  1  0
  4  5  1  0
  4 11  1  0
  7  8  1  0
  8  9  1  0
  8 10  1  0
M  END
>  <ID>  (1) 
conformer_0

$$$$
