
     RDKit          3D

 12 14  0  0  0  0  0  0  0  0999 V2000
    0.3093   13.0405    0.1755 C   0  0  0  0  0  0  0  0  0  0  0  0
    0.6021   13.2265    3.6193 C   0  0  0  0  0  0  0  0  0  0  0  0
   -0.8560    9.7984    1.5602 C   0  0  0  0  0  0  0  0  0  0  0  0
   -0.1664   11.0519    3.3634 C   0  0  0  0  0  0  0  0  0  0  0  0
    0.2103   12.0764    4.1628 N   0  0  0  0  0  0  0  0  0  0  0  0
   -0.5892    8.8423    2.6871 C   0  0  0  0  0  0  0  0  0  0  0  0
   -0.4255    9.7490    3.8789 C   0  0  0  0  0  0  0  0  0  0  0  0
    0.9134   14.2884    0.3217 N   0  0  0  0  0  0  0  0  0  0  0  0
    0.1634   12.4533    1.4029 N   0  0  0  0  0  0  0  0  0  0  0  0
    1.2658   14.4254    1.6124 C   0  0  0  0  0  0  0  0  0  0  0  0
    0.7064   13.3740    2.2764 C   0  0  0  0  0  0  0  0  0  0  0  0
   -0.3276   11.1727    1.9551 C   0  0  0  0  0  0  0  0  0  0  0  0
  1  8  1  0
  1  9  1  0
  2  5  2  0
  2 11  1  0
  3  6  1  0
  3 12  1  0
  4  5  1  0
  4  7  1  0
  4 12  2  0
  6  7  1  0
  8 10  1  0
  9 11  1  0
  9 12  1  0
 10 11  1  0
M  END
>  <ID>  (1) 
conformer_0

$$$$
