
     RDKit          3D

 13 14  0  0  0  0  0  0  0  0999 V2000
   -0.9425   11.1219    3.5429 C   0  0  0  0  0  0  0  0  0  0  0  0
    0.9575   13.8742   -2.5042 O   0  0  0  0  0  0  0  0  0  0  0  0
   -0.0680   12.2140    0.1084 C   0  0  0  0  0  0  0  0  0  0  0  0
   -0.3116   11.5936    1.3546 C   0  0  0  0  0  0  0  0  0  0  0  0
    0.4687   12.3580    2.3294 C   0  0  0  0  0  0  0  0  0  0  0  0
   -0.0975   12.2294    3.5947 C   0  0  0  0  0  0  0  0  0  0  0  0
    0.8435   16.0592   -1.9189 O   0  0  0  0  0  0  0  0  0  0  0  0
    1.5047   14.5185    2.2505 O   0  0  0  0  0  0  0  0  0  0  0  0
    1.1074   14.8377   -1.7584 C   0  0  0  0  0  0  0  0  0  0  0  0
   -1.1614   10.8331    2.1796 C   0  0  0  0  0  0  0  0  0  0  0  0
    1.6425   14.5448   -0.3952 C   0  0  0  0  0  0  0  0  0  0  0  0
    0.7833   13.4508    0.2608 C   0  0  0  0  0  0  0  0  0  0  0  0
    0.9665   13.4970    1.6819 C   0  0  0  0  0  0  0  0  0  0  0  0
  1  6  1  0
  1 10  1  0
  2  9  2  0
  3  4  1  0
  3 12  1  0
  4  5  1  0
  4 10  1  0
  5  6  1  0
  5 13  1  0
  7  9  1  0
  8 13  1  0
  9 11  1  0
 11 12  1  0
 12 13  1  0
M  END
>  <ID>  (1) 
conformer_0

$$$$
