
     RDKit          3D

 12 12  0  0  0  0  0  0  0  0999 V2000
    1.0528   13.9576    1.8309 C   0  0  0  0  0  0  0  0  0  0  0  0
    1.5927   14.2449   -2.8067 C   0  0  0  0  0  0  0  0  0  0  0  0
    2.9141   14.9883   -0.9114 O   0  0  0  0  0  0  0  0  0  0  0  0
    0.7369   13.2790    2.9986 C   0  0  0  0  0  0  0  0  0  0  0  0
   -0.4403   11.6405    1.7479 C   0  0  0  0  0  0  0  0  0  0  0  0
   -0.0326   12.1350    2.9677 C   0  0  0  0  0  0  0  0  0  0  0  0
   -0.1439   12.3129    0.5685 C   0  0  0  0  0  0  0  0  0  0  0  0
    1.7542   14.6333   -1.3972 C   0  0  0  0  0  0  0  0  0  0  0  0
   -0.3571   11.5304    4.1337 F   0  0  0  0  0  0  0  0  0  0  0  0
    0.7772   14.2446   -0.5466 N   0  0  0  0  0  0  0  0  0  0  0  0
    1.3367   15.6212   -2.4541 C   0  0  0  0  0  0  0  0  0  0  0  0
    0.5807   13.5024    0.6037 C   0  0  0  0  0  0  0  0  0  0  0  0
  1  4  2  0
  1 12  1  0
  2  8  1  0
  2 11  1  0
  3  8  2  0
  4  6  1  0
  5  6  2  0
  5  7  1  0
  6  9  1  0
  7 12  2  0
  8 10  1  0
 10 12  1  0
M  END
>  <ID>  (1) 
conformer_0

$$$$
