
     RDKit          3D

 11 12  0  0  0  0  0  0  0  0999 V2000
    1.0548   14.2068   -0.0853 N   0  0  0  0  0  0  0  0  0  0  0  0
    1.5120   14.5074    1.1718 N   0  0  0  0  0  0  0  0  0  0  0  0
   -0.2794   11.6215    1.9436 C   0  0  0  0  0  0  0  0  0  0  0  0
    0.2221   13.1657   -0.0448 C   0  0  0  0  0  0  0  0  0  0  0  0
   -0.0913   11.4523    3.2768 C   0  0  0  0  0  0  0  0  0  0  0  0
    1.0007   13.5939    2.0192 C   0  0  0  0  0  0  0  0  0  0  0  0
    0.2227   12.7211    1.2893 C   0  0  0  0  0  0  0  0  0  0  0  0
    1.1988   13.3887    3.3338 N   0  0  0  0  0  0  0  0  0  0  0  0
   -0.4853   12.7372   -0.9668 O   0  0  0  0  0  0  0  0  0  0  0  0
   -0.5716   10.3189    3.9757 C   0  0  0  0  0  0  0  0  0  0  0  0
    0.6556   12.3721    3.9698 N   0  0  0  0  0  0  0  0  0  0  0  0
  1  2  1  0
  1  4  1  0
  2  6  1  0
  3  5  2  0
  3  7  1  0
  4  7  1  0
  4  9  2  0
  5 10  1  0
  5 11  1  0
  6  7  1  0
  6  8  2  0
  8 11  1  0
M  END
>  <ID>  (1) 
conformer_0

$$$$
