
     RDKit          3D

 15 15  0  0  0  0  0  0  0  0999 V2000
    0.0540   11.5865    2.8996 C   0  0  0  0  0  0  0  0  0  0  0  0
    0.5072   13.3328   -0.4537 N   0  0  0  0  0  0  0  0  0  0  0  0
    0.2264    7.6186    2.8968 C   0  0  0  0  0  0  0  0  0  0  0  0
    1.0303   14.0776    1.8618 C   0  0  0  0  0  0  0  0  0  0  0  0
    0.0547   10.0280    4.7994 N   0  0  0  0  0  0  0  0  0  0  0  0
    0.0054   11.9478    1.5059 C   0  0  0  0  0  0  0  0  0  0  0  0
   -1.6674    8.9165    1.8791 O   0  0  0  0  0  0  0  0  0  0  0  0
   -0.2166   12.3537   -1.1928 C   0  0  0  0  0  0  0  0  0  0  0  0
   -0.4099    8.9575    2.6320 C   0  0  0  0  0  0  0  0  0  0  0  0
    1.1818   14.1186   -1.3206 C   0  0  0  0  0  0  0  0  0  0  0  0
    0.5381   12.6001    3.7715 C   0  0  0  0  0  0  0  0  0  0  0  0
    1.0184   13.8227    3.2216 C   0  0  0  0  0  0  0  0  0  0  0  0
    1.3806   15.3915   -1.2897 N   0  0  0  0  0  0  0  0  0  0  0  0
   -0.3605   10.2220    3.4377 C   0  0  0  0  0  0  0  0  0  0  0  0
    0.5133   13.1194    0.9759 C   0  0  0  0  0  0  0  0  0  0  0  0
  1  6  2  0
  1 11  1  0
  1 14  1  0
  2  8  1  0
  2 10  1  0
  2 15  1  0
  3  9  1  0
  4 12  1  0
  4 15  2  0
  5 14  1  0
  6 15  1  0
  7  9  1  0
  9 14  1  0
 10 13  2  0
 11 12  2  0
M  END
>  <ID>  (1) 
conformer_0

$$$$
