
     RDKit          3D

 12 13  0  0  0  0  0  0  0  0999 V2000
    0.1976   12.1729    3.6669 C   0  0  0  0  0  0  0  0  0  0  0  0
   -0.4100   11.0035    3.2403 C   0  0  0  0  0  0  0  0  0  0  0  0
    0.4329   12.9288    1.3774 C   0  0  0  0  0  0  0  0  0  0  0  0
    0.6263   13.1102    2.7189 C   0  0  0  0  0  0  0  0  0  0  0  0
   -0.7080   10.8566    1.8910 C   0  0  0  0  0  0  0  0  0  0  0  0
    1.0934   13.9091    0.5512 C   0  0  0  0  0  0  0  0  0  0  0  0
    1.7674   14.8809    1.5604 O   0  0  0  0  0  0  0  0  0  0  0  0
   -0.3054   11.8129    0.9592 C   0  0  0  0  0  0  0  0  0  0  0  0
   -0.6614    8.6567    4.1031 C   0  0  0  0  0  0  0  0  0  0  0  0
    1.3305   14.3136    2.9838 C   0  0  0  0  0  0  0  0  0  0  0  0
   -0.6887   10.0647    4.2257 N   0  0  0  0  0  0  0  0  0  0  0  0
   -1.6873    8.1443    3.0168 C   0  0  0  0  0  0  0  0  0  0  0  0
  1  2  2  0
  1  4  1  0
  2  5  1  0
  2 11  1  0
  3  4  2  0
  3  6  1  0
  3  8  1  0
  4 10  1  0
  5  8  2  0
  6  7  1  0
  7 10  1  0
  9 11  1  0
  9 12  1  0
M  END
>  <ID>  (1) 
conformer_0

$$$$
