
     RDKit          3D

 10 10  0  0  0  0  0  0  0  0999 V2000
    0.7293   13.2698    3.2890 C   0  0  0  0  0  0  0  0  0  0  0  0
    1.2307   14.0344   -1.1227 C   0  0  0  0  0  0  0  0  0  0  0  0
   -0.2865   11.7801    1.2786 N   0  0  0  0  0  0  0  0  0  0  0  0
   -1.1331   10.1290    2.8017 C   0  0  0  0  0  0  0  0  0  0  0  0
    0.2375   13.4388   -0.3434 C   0  0  0  0  0  0  0  0  0  0  0  0
    0.9293   13.6541    1.9989 C   0  0  0  0  0  0  0  0  0  0  0  0
    0.0025   12.1125    3.6290 C   0  0  0  0  0  0  0  0  0  0  0  0
    0.9688   15.4381   -1.3678 N   0  0  0  0  0  0  0  0  0  0  0  0
    0.3492   12.9416    0.9708 C   0  0  0  0  0  0  0  0  0  0  0  0
   -0.4891   11.3575    2.5493 C   0  0  0  0  0  0  0  0  0  0  0  0
  1  6  2  0
  1  7  1  0
  2  5  1  0
  2  8  1  0
  3  9  2  0
  3 10  1  0
  4 10  1  0
  5  9  1  0
  6  9  1  0
  7 10  2  0
M  END
>  <ID>  (1) 
conformer_0

$$$$
