
     RDKit          3D

 12 12  0  0  0  0  0  0  0  0999 V2000
    1.4581   14.2997   -0.7600 N   0  0  0  0  0  0  0  0  0  0  0  0
    2.3877   15.1509   -1.6014 C   0  0  0  0  0  0  0  0  0  0  0  0
    0.1506   12.3804    0.8759 C   0  0  0  0  0  0  0  0  0  0  0  0
    0.6455   13.4879   -1.6617 C   0  0  0  0  0  0  0  0  0  0  0  0
    0.9747   13.5884    2.7451 C   0  0  0  0  0  0  0  0  0  0  0  0
    0.8619   13.4552    1.3747 C   0  0  0  0  0  0  0  0  0  0  0  0
    1.4898   14.3567    0.5580 N   0  0  0  0  0  0  0  0  0  0  0  0
   -1.1042   10.9273    3.7786 N   0  0  0  0  0  0  0  0  0  0  0  0
    0.3397   12.6946    3.5399 C   0  0  0  0  0  0  0  0  0  0  0  0
   -0.3687   11.4677    1.6340 N   0  0  0  0  0  0  0  0  0  0  0  0
   -0.3915   11.6345    2.9885 C   0  0  0  0  0  0  0  0  0  0  0  0
    1.4402   15.9934   -2.5502 C   0  0  0  0  0  0  0  0  0  0  0  0
  1  2  1  0
  1  4  1  0
  1  7  1  0
  2 12  1  0
  3  6  1  0
  3 10  2  0
  5  6  1  0
  5  9  2  0
  6  7  2  3
  8 11  2  0
  9 11  1  0
 10 11  1  0
M  END
>  <ID>  (1) 
conformer_0

$$$$
