
     RDKit          3D

 18 19  0  0  0  0  0  0  0  0999 V2000
    0.0907   12.2610    3.5115 C   0  0  0  0  0  0  0  0  0  0  0  0
   -0.4068    9.0988    3.3320 C   0  0  0  0  0  0  0  0  0  0  0  0
    1.0300   13.8771    2.0799 C   0  0  0  0  0  0  0  0  0  0  0  0
    0.4183   13.0249   -0.2579 C   0  0  0  0  0  0  0  0  0  0  0  0
    0.7159   13.4420    3.3308 N   0  0  0  0  0  0  0  0  0  0  0  0
   -0.1627   11.3077    2.7091 C   0  0  0  0  0  0  0  0  0  0  0  0
   -1.0848    7.7300    4.9811 C   0  0  0  0  0  0  0  0  0  0  0  0
   -0.3230   10.0986    2.3773 N   0  0  0  0  0  0  0  0  0  0  0  0
    0.9989   13.5446   -2.5111 C   0  0  0  0  0  0  0  0  0  0  0  0
   -1.2784    9.0209    4.3458 N   0  0  0  0  0  0  0  0  0  0  0  0
   -0.3674   11.9692   -0.6840 C   0  0  0  0  0  0  0  0  0  0  0  0
    1.0793   13.8219   -1.1719 C   0  0  0  0  0  0  0  0  0  0  0  0
    0.4101    8.0046    3.2868 O   0  0  0  0  0  0  0  0  0  0  0  0
    0.5428   13.2748    1.0134 N   0  0  0  0  0  0  0  0  0  0  0  0
   -0.0246    7.0874    4.3737 C   0  0  0  0  0  0  0  0  0  0  0  0
   -0.4653   11.6893   -2.0112 C   0  0  0  0  0  0  0  0  0  0  0  0
    0.2282   12.4671   -2.9179 C   0  0  0  0  0  0  0  0  0  0  0  0
    1.7959   14.9558    1.8750 N   0  0  0  0  0  0  0  0  0  0  0  0
  1  5  2  3
  1  6  1  0
  2  8  2  3
  2 10  1  0
  2 13  1  0
  3  5  1  0
  3 14  1  0
  3 18  2  0
  4 11  2  0
  4 12  1  0
  4 14  1  0
  6  8  1  0
  7 10  1  0
  7 15  1  0
  9 12  2  0
  9 17  1  0
 11 16  1  0
 13 15  1  0
 16 17  2  0
M  END
>  <ID>  (1) 
conformer_0

$$$$
