
     RDKit          3D

 27 29  0  0  0  0  0  0  0  0999 V2000
    1.1096   12.7529   -5.2427 C   0  0  0  0  0  0  0  0  0  0  0  0
    2.7444   17.7166    1.8576 N   0  0  0  0  0  0  0  0  0  0  0  0
   -0.2919   10.0201    4.5095 O   0  0  0  0  0  0  0  0  0  0  0  0
    2.4949   19.7084    3.2547 C   0  0  0  0  0  0  0  0  0  0  0  0
    1.3603   13.5189   -3.9896 C   0  0  0  0  0  0  0  0  0  0  0  0
    1.2866   13.8060   -1.6281 C   0  0  0  0  0  0  0  0  0  0  0  0
    2.2268   16.2373    2.9601 C   0  0  0  0  0  0  0  0  0  0  0  0
    0.6110   12.4838    2.0542 N   0  0  0  0  0  0  0  0  0  0  0  0
   -0.0423   11.9851    3.2322 C   0  0  0  0  0  0  0  0  0  0  0  0
    0.6001   11.2298   -7.5789 C   0  0  0  0  0  0  0  0  0  0  0  0
    1.1789   13.7356    2.0026 C   0  0  0  0  0  0  0  0  0  0  0  0
    2.7193   18.4622    3.0336 C   0  0  0  0  0  0  0  0  0  0  0  0
   -0.0372   10.5076    3.3283 C   0  0  0  0  0  0  0  0  0  0  0  0
    1.6245   13.1319   -6.4782 C   0  0  0  0  0  0  0  0  0  0  0  0
    2.2722   15.8333   -0.7851 N   0  0  0  0  0  0  0  0  0  0  0  0
    2.3890   16.4304    1.7364 C   0  0  0  0  0  0  0  0  0  0  0  0
    1.1401   13.6206   -0.2560 N   0  0  0  0  0  0  0  0  0  0  0  0
    0.1726    9.7484    2.3642 O   0  0  0  0  0  0  0  0  0  0  0  0
    2.1878   14.6693   -3.6251 C   0  0  0  0  0  0  0  0  0  0  0  0
    2.0610   15.6782    0.6207 C   0  0  0  0  0  0  0  0  0  0  0  0
    2.0928   14.9609   -2.0375 C   0  0  0  0  0  0  0  0  0  0  0  0
    0.0619   10.8376   -6.3451 C   0  0  0  0  0  0  0  0  0  0  0  0
    0.3174   11.5839   -5.2125 C   0  0  0  0  0  0  0  0  0  0  0  0
    2.1208   18.4832    4.3393 C   0  0  0  0  0  0  0  0  0  0  0  0
    0.8269   13.0298   -2.7446 C   0  0  0  0  0  0  0  0  0  0  0  0
    1.3906   12.3977   -7.6267 C   0  0  0  0  0  0  0  0  0  0  0  0
    1.4598   14.2608    0.8541 C   0  0  0  0  0  0  0  0  0  0  0  0
  1  5  2  3
  1 14  1  0
  1 23  1  0
  2 12  1  0
  2 16  2  3
  3 13  2  0
  4 12  2  0
  5 19  1  0
  5 25  1  0
  6 17  2  0
  6 21  1  0
  6 25  1  0
  7 16  1  0
  8  9  1  0
  8 11  1  0
  9 13  1  0
 10 22  1  0
 10 26  1  0
 11 27  2  3
 12 24  1  0
 13 18  1  0
 14 26  2  0
 15 20  2  0
 15 21  1  0
 16 20  1  0
 17 27  1  0
 19 21  1  0
 20 27  1  0
 22 23  2  0
M  END
>  <ID>  (1) 
conformer_0

$$$$
