
     RDKit          3D

 11 11  0  0  0  0  0  0  0  0999 V2000
    0.2442   13.0421   -0.1552 C   0  0  0  0  0  0  0  0  0  0  0  0
   -0.5514    9.4246    4.0745 C   0  0  0  0  0  0  0  0  0  0  0  0
    0.6700   13.1972    1.2236 C   0  0  0  0  0  0  0  0  0  0  0  0
   -0.0952   10.6039    1.7874 O   0  0  0  0  0  0  0  0  0  0  0  0
    1.4702   14.4336    1.2681 C   0  0  0  0  0  0  0  0  0  0  0  0
    1.7962   14.7615   -0.0389 N   0  0  0  0  0  0  0  0  0  0  0  0
    0.3905   12.6709    2.5173 C   0  0  0  0  0  0  0  0  0  0  0  0
    0.9927   13.9959   -1.0115 C   0  0  0  0  0  0  0  0  0  0  0  0
   -0.2996   10.8357    3.9878 N   0  0  0  0  0  0  0  0  0  0  0  0
    0.2394    8.8937    5.1553 N   0  0  0  0  0  0  0  0  0  0  0  0
   -0.0134   11.3368    2.7277 C   0  0  0  0  0  0  0  0  0  0  0  0
  1  3  1  0
  1  8  1  0
  2  9  1  0
  2 10  1  0
  3  5  1  0
  3  7  1  0
  4 11  2  0
  5  6  1  0
  6  8  1  0
  7 11  1  0
  9 11  1  0
M  END
>  <ID>  (1) 
conformer_0

$$$$
