
     RDKit          3D

 10 10  0  0  0  0  0  0  0  0999 V2000
   -0.1770   14.5396   -0.5449 O   0  0  0  0  0  0  0  0  0  0  0  0
   -0.5150   11.5093    2.0883 C   0  0  0  0  0  0  0  0  0  0  0  0
   -0.4527   11.6578    3.4585 C   0  0  0  0  0  0  0  0  0  0  0  0
    0.8280   13.4924    1.7790 C   0  0  0  0  0  0  0  0  0  0  0  0
    0.2649   12.7003    4.0358 C   0  0  0  0  0  0  0  0  0  0  0  0
    1.5965   14.4570    0.9137 C   0  0  0  0  0  0  0  0  0  0  0  0
    0.9207   13.6263    3.1585 C   0  0  0  0  0  0  0  0  0  0  0  0
    0.1009   12.4601    1.2338 C   0  0  0  0  0  0  0  0  0  0  0  0
    1.0573   14.3827   -0.4919 C   0  0  0  0  0  0  0  0  0  0  0  0
    1.8509   14.3401   -1.3764 O   0  0  0  0  0  0  0  0  0  0  0  0
  1  9  2  0
  2  3  2  0
  2  8  1  0
  3  5  1  0
  4  6  1  0
  4  7  1  0
  4  8  2  0
  5  7  2  0
  6  9  1  0
  9 10  1  0
M  END
>  <ID>  (1) 
conformer_0

$$$$
