
     RDKit          3D

 15 17  0  0  0  0  0  0  0  0999 V2000
    0.1853   11.9936    2.9360 C   0  0  0  0  0  0  0  0  0  0  0  0
    0.6804   13.6161   -1.5447 C   0  0  0  0  0  0  0  0  0  0  0  0
   -0.3580    9.9416    3.9223 C   0  0  0  0  0  0  0  0  0  0  0  0
   -0.2311   11.6381    1.6263 C   0  0  0  0  0  0  0  0  0  0  0  0
   -0.2265    9.0902    4.9902 N   0  0  0  0  0  0  0  0  0  0  0  0
    0.0698   12.6453   -0.7428 C   0  0  0  0  0  0  0  0  0  0  0  0
    0.1045   11.2523    4.0874 C   0  0  0  0  0  0  0  0  0  0  0  0
   -0.8800    9.5408    2.7246 N   0  0  0  0  0  0  0  0  0  0  0  0
   -0.8252   10.3888    1.6204 C   0  0  0  0  0  0  0  0  0  0  0  0
    0.9474   13.6768    1.1362 C   0  0  0  0  0  0  0  0  0  0  0  0
    0.9787   13.5391    2.8995 S   0  0  0  0  0  0  0  0  0  0  0  0
    1.9589   15.7030   -1.7175 N   0  0  0  0  0  0  0  0  0  0  0  0
    0.1867   12.6067    0.6275 C   0  0  0  0  0  0  0  0  0  0  0  0
    1.6247   14.6514    0.4405 C   0  0  0  0  0  0  0  0  0  0  0  0
    1.4280   14.6213   -0.9412 C   0  0  0  0  0  0  0  0  0  0  0  0
  1  4  1  0
  1  7  2  0
  1 11  1  0
  2  6  2  0
  2 15  1  0
  3  5  2  0
  3  7  1  0
  3  8  1  0
  4  9  2  0
  4 13  1  0
  6 13  1  0
  8  9  1  0
 10 11  1  0
 10 13  2  0
 10 14  1  0
 12 15  1  0
 14 15  1  0
M  END
>  <ID>  (1) 
conformer_0

$$$$
