
     RDKit          3D

 13 14  0  0  0  0  0  0  0  0999 V2000
    0.4538   13.2209   -1.5410 C   0  0  0  0  0  0  0  0  0  0  0  0
    0.8272   14.5803   -0.9320 C   0  0  0  0  0  0  0  0  0  0  0  0
    0.6568   13.0545    3.7714 C   0  0  0  0  0  0  0  0  0  0  0  0
    1.7430   15.3024   -1.9341 C   0  0  0  0  0  0  0  0  0  0  0  0
    1.0466   13.9529    2.7757 N   0  0  0  0  0  0  0  0  0  0  0  0
    0.2141   12.4766    1.1583 N   0  0  0  0  0  0  0  0  0  0  0  0
   -0.0427   11.5527    2.1276 C   0  0  0  0  0  0  0  0  0  0  0  0
   -0.4726   10.1994    1.9730 N   0  0  0  0  0  0  0  0  0  0  0  0
    0.8338   13.6315    1.4768 C   0  0  0  0  0  0  0  0  0  0  0  0
    1.3310   14.5350    0.4672 N   0  0  0  0  0  0  0  0  0  0  0  0
   -0.3088    9.6243    3.2931 C   0  0  0  0  0  0  0  0  0  0  0  0
   -0.0994   10.6998    4.2339 O   0  0  0  0  0  0  0  0  0  0  0  0
    0.1744   11.7920    3.4430 C   0  0  0  0  0  0  0  0  0  0  0  0
  1  2  1  0
  2  4  1  0
  2 10  1  0
  3  5  2  0
  3 13  1  0
  5  9  1  0
  6  7  1  0
  6  9  2  0
  7  8  1  0
  7 13  2  0
  8 11  1  0
  9 10  1  0
 11 12  1  0
 12 13  1  0
M  END
>  <ID>  (1) 
conformer_0

$$$$
