
     RDKit          3D

 13 13  0  0  0  0  0  0  0  0999 V2000
   -0.4344    9.4380    4.9490 O   0  0  0  0  0  0  0  0  0  0  0  0
    0.0733   12.3029    1.1623 C   0  0  0  0  0  0  0  0  0  0  0  0
    0.3535   11.9719    3.9202 C   0  0  0  0  0  0  0  0  0  0  0  0
   -0.0639   10.8556    3.1188 C   0  0  0  0  0  0  0  0  0  0  0  0
    1.2529   14.4958   -0.1645 C   0  0  0  0  0  0  0  0  0  0  0  0
    0.1277   14.4445   -0.6665 O   0  0  0  0  0  0  0  0  0  0  0  0
    0.7386   13.1692    3.2647 C   0  0  0  0  0  0  0  0  0  0  0  0
   -0.3047   11.0990    1.7538 C   0  0  0  0  0  0  0  0  0  0  0  0
   -0.1221    9.5256    3.7195 C   0  0  0  0  0  0  0  0  0  0  0  0
    0.2880    8.5632    3.0531 O   0  0  0  0  0  0  0  0  0  0  0  0
    2.3502   14.8632   -0.8401 N   0  0  0  0  0  0  0  0  0  0  0  0
    0.6933   13.2632    1.8952 C   0  0  0  0  0  0  0  0  0  0  0  0
    1.3820   14.3207    1.2643 N   0  0  0  0  0  0  0  0  0  0  0  0
  1  9  2  0
  2  8  2  0
  2 12  1  0
  3  4  2  0
  3  7  1  0
  4  8  1  0
  4  9  1  0
  5  6  2  0
  5 11  1  0
  5 13  1  0
  7 12  2  0
  9 10  1  0
 12 13  1  0
M  END
>  <ID>  (1) 
conformer_0

$$$$
