
     RDKit          3D

 15 17  0  0  0  0  0  0  0  0999 V2000
    1.1737   16.3258   -2.6998 C   0  0  0  0  0  0  0  0  0  0  0  0
    0.5708   13.1533    0.5582 C   0  0  0  0  0  0  0  0  0  0  0  0
    1.4624   14.8617    3.4619 O   0  0  0  0  0  0  0  0  0  0  0  0
    0.8487   15.5476   -1.4483 N   0  0  0  0  0  0  0  0  0  0  0  0
    1.5452   14.3910   -1.2802 C   0  0  0  0  0  0  0  0  0  0  0  0
   -0.5679   11.0269    3.2749 C   0  0  0  0  0  0  0  0  0  0  0  0
    2.1676   15.4371   -3.4060 C   0  0  0  0  0  0  0  0  0  0  0  0
    0.0115   12.1830    3.8527 C   0  0  0  0  0  0  0  0  0  0  0  0
    0.1093   12.3120    1.5409 C   0  0  0  0  0  0  0  0  0  0  0  0
    2.4810   14.3823   -2.4043 C   0  0  0  0  0  0  0  0  0  0  0  0
    1.1374   14.3750    1.2322 N   0  0  0  0  0  0  0  0  0  0  0  0
    0.4243   12.9361    2.8360 C   0  0  0  0  0  0  0  0  0  0  0  0
    0.8732   13.2478   -0.7846 C   0  0  0  0  0  0  0  0  0  0  0  0
    1.0605   14.1170    2.5889 C   0  0  0  0  0  0  0  0  0  0  0  0
   -0.4781   11.1495    1.8633 C   0  0  0  0  0  0  0  0  0  0  0  0
  1  4  1  0
  1  7  1  0
  2  9  1  0
  2 11  1  0
  2 13  2  3
  3 14  2  0
  4  5  1  0
  5 10  1  0
  5 13  1  0
  6  8  1  0
  6 15  1  0
  7 10  1  0
  8 12  1  0
  9 12  2  0
  9 15  1  0
 11 14  1  0
 12 14  1  0
M  END
>  <ID>  (1) 
conformer_0

$$$$
