
     RDKit          3D

 17 19  0  0  0  0  0  0  0  0999 V2000
    0.4573   12.9652    3.0805 C   0  0  0  0  0  0  0  0  0  0  0  0
   -1.0277    9.0647    3.7483 O   0  0  0  0  0  0  0  0  0  0  0  0
    1.5784   14.6977    1.9693 N   0  0  0  0  0  0  0  0  0  0  0  0
    2.2046   15.0976   -0.8270 C   0  0  0  0  0  0  0  0  0  0  0  0
   -0.5859   10.9382    2.4940 C   0  0  0  0  0  0  0  0  0  0  0  0
   -1.3047    8.9680    1.5434 O   0  0  0  0  0  0  0  0  0  0  0  0
    0.7253   13.2892   -1.3731 C   0  0  0  0  0  0  0  0  0  0  0  0
    2.4169   15.3607   -2.1868 C   0  0  0  0  0  0  0  0  0  0  0  0
   -0.3084   11.6483    1.2877 C   0  0  0  0  0  0  0  0  0  0  0  0
    1.0733   13.8829    0.9887 C   0  0  0  0  0  0  0  0  0  0  0  0
    0.3722   12.8473    1.5824 N   0  0  0  0  0  0  0  0  0  0  0  0
    1.1884   14.1549    3.2082 C   0  0  0  0  0  0  0  0  0  0  0  0
    1.7854   14.5456   -3.1216 C   0  0  0  0  0  0  0  0  0  0  0  0
   -0.1835   11.7990    3.6404 C   0  0  0  0  0  0  0  0  0  0  0  0
    0.9449   13.5131   -2.6937 C   0  0  0  0  0  0  0  0  0  0  0  0
    1.3342   14.0920   -0.3998 C   0  0  0  0  0  0  0  0  0  0  0  0
   -1.0448    9.5660    2.5945 C   0  0  0  0  0  0  0  0  0  0  0  0
  1 11  1  0
  1 12  1  0
  1 14  1  0
  2 17  2  0
  3 10  1  0
  3 12  1  0
  4  8  1  0
  4 16  1  0
  5  9  1  0
  5 14  1  0
  5 17  1  0
  6 17  1  0
  7 15  2  0
  7 16  1  0
  8 13  2  0
  9 11  1  0
 10 11  1  0
 10 16  2  3
 13 15  1  0
M  END
>  <ID>  (1) 
conformer_0

$$$$
