
     RDKit          3D

  9  9  0  0  0  0  0  0  0  0999 V2000
    0.2848   12.5550    2.1717 C   0  0  0  0  0  0  0  0  0  0  0  0
   -0.8788   10.4273    1.8139 C   0  0  0  0  0  0  0  0  0  0  0  0
   -0.3304   11.6145    1.3307 C   0  0  0  0  0  0  0  0  0  0  0  0
   -0.8607   10.1420    3.1622 C   0  0  0  0  0  0  0  0  0  0  0  0
    1.2503   14.6241    2.6556 O   0  0  0  0  0  0  0  0  0  0  0  0
    0.9793   14.1270    0.5016 O   0  0  0  0  0  0  0  0  0  0  0  0
    0.9214   13.7938    1.7299 C   0  0  0  0  0  0  0  0  0  0  0  0
   -0.2818   11.0435    4.0468 C   0  0  0  0  0  0  0  0  0  0  0  0
    0.2928   12.2241    3.5692 C   0  0  0  0  0  0  0  0  0  0  0  0
  1  3  2  0
  1  7  1  0
  1  9  1  0
  2  3  1  0
  2  4  2  0
  4  8  1  0
  5  7  2  0
  6  7  1  0
  8  9  2  0
M  END
>  <ID>  (1) 
conformer_0

$$$$
