
     RDKit          3D

 11 11  0  0  0  0  0  0  0  0999 V2000
   -0.2005   11.7965    3.3814 C   0  0  0  0  0  0  0  0  0  0  0  0
    1.0276   13.8071    2.7332 C   0  0  0  0  0  0  0  0  0  0  0  0
    1.3030   15.7405   -2.0205 C   0  0  0  0  0  0  0  0  0  0  0  0
    1.2255   14.2245    0.3453 N   0  0  0  0  0  0  0  0  0  0  0  0
   -0.5291   10.9743    4.3727 N   0  0  0  0  0  0  0  0  0  0  0  0
    0.5079   12.9623    3.7114 C   0  0  0  0  0  0  0  0  0  0  0  0
    0.9331   13.6401   -0.9031 C   0  0  0  0  0  0  0  0  0  0  0  0
    0.0140   12.3041    1.0811 C   0  0  0  0  0  0  0  0  0  0  0  0
    0.7477   13.4521    1.4048 C   0  0  0  0  0  0  0  0  0  0  0  0
   -0.4661   11.4896    2.0420 C   0  0  0  0  0  0  0  0  0  0  0  0
    1.5181   14.2792   -2.0554 C   0  0  0  0  0  0  0  0  0  0  0  0
  1  5  2  0
  1  6  1  0
  1 10  1  0
  2  6  2  0
  2  9  1  0
  3 11  1  0
  4  7  1  0
  4  9  1  0
  7 11  1  0
  8  9  1  0
  8 10  2  0
M  END
>  <ID>  (1) 
conformer_0

$$$$
