
     RDKit          3D

 12 13  0  0  0  0  0  0  0  0999 V2000
    0.4990   12.5866    0.1038 N   0  0  0  0  0  0  0  0  0  0  0  0
    1.0368   13.7791   -0.0932 C   0  0  0  0  0  0  0  0  0  0  0  0
    1.6401   14.4804   -1.1694 C   0  0  0  0  0  0  0  0  0  0  0  0
   -0.2698   11.7419    3.6261 C   0  0  0  0  0  0  0  0  0  0  0  0
    0.7326   13.5415    2.0214 C   0  0  0  0  0  0  0  0  0  0  0  0
    0.2790   12.8807    4.1717 C   0  0  0  0  0  0  0  0  0  0  0  0
    1.3592   14.0266   -2.5561 C   0  0  0  0  0  0  0  0  0  0  0  0
    1.3305   15.1008    3.7064 C   0  0  0  0  0  0  0  0  0  0  0  0
    0.2532   12.4226    1.4409 C   0  0  0  0  0  0  0  0  0  0  0  0
   -0.2223   11.4559    2.2828 C   0  0  0  0  0  0  0  0  0  0  0  0
    0.7900   13.8240    3.3556 C   0  0  0  0  0  0  0  0  0  0  0  0
    1.2108   14.3823    1.1246 N   0  0  0  0  0  0  0  0  0  0  0  0
  1  2  2  0
  1  9  1  0
  2  3  1  0
  2 12  1  0
  3  7  1  0
  4  6  1  0
  4 10  2  0
  5  9  2  0
  5 11  1  0
  5 12  1  0
  6 11  2  0
  8 11  1  0
  9 10  1  0
M  END
>  <ID>  (1) 
conformer_0

$$$$
