
     RDKit          3D

 12 13  0  0  0  0  0  0  0  0999 V2000
    0.7752   13.9573    0.1644 C   0  0  0  0  0  0  0  0  0  0  0  0
    1.3386   15.7311   -2.4007 C   0  0  0  0  0  0  0  0  0  0  0  0
    0.7841   14.7113   -1.0738 O   0  0  0  0  0  0  0  0  0  0  0  0
   -0.1243   12.3363    3.9748 O   0  0  0  0  0  0  0  0  0  0  0  0
    1.3162   14.5557    1.2990 C   0  0  0  0  0  0  0  0  0  0  0  0
    0.1731   12.6899    0.3238 C   0  0  0  0  0  0  0  0  0  0  0  0
    1.7976   14.3743   -2.0632 C   0  0  0  0  0  0  0  0  0  0  0  0
   -0.3553   10.7215    2.2152 C   0  0  0  0  0  0  0  0  0  0  0  0
    1.0822   13.9952    2.5768 C   0  0  0  0  0  0  0  0  0  0  0  0
   -0.5446   10.9527    3.7215 C   0  0  0  0  0  0  0  0  0  0  0  0
    0.3415   12.8592    2.7507 C   0  0  0  0  0  0  0  0  0  0  0  0
    0.0151   12.0919    1.6630 C   0  0  0  0  0  0  0  0  0  0  0  0
  1  3  1  0
  1  5  2  0
  1  6  1  0
  2  7  1  0
  3  7  1  0
  4 10  1  0
  4 11  1  0
  5  9  1  0
  6 12  2  0
  8 10  1  0
  8 12  1  0
  9 11  2  0
 11 12  1  0
M  END
>  <ID>  (1) 
conformer_0

$$$$
