
     RDKit          3D

  8  8  0  0  0  0  0  0  0  0999 V2000
    1.4782   14.3601    1.3074 C   0  0  0  0  0  0  0  0  0  0  0  0
   -0.0824   12.3638    4.0441 C   0  0  0  0  0  0  0  0  0  0  0  0
    0.8454   13.5160    3.5469 C   0  0  0  0  0  0  0  0  0  0  0  0
    1.1130   14.1706   -0.1478 C   0  0  0  0  0  0  0  0  0  0  0  0
   -0.0014   13.6262   -0.3540 O   0  0  0  0  0  0  0  0  0  0  0  0
    1.9722   14.6128   -0.9641 O   0  0  0  0  0  0  0  0  0  0  0  0
   -0.0269   11.7933    2.5891 C   0  0  0  0  0  0  0  0  0  0  0  0
    0.7613   13.2069    2.0758 C   0  0  0  0  0  0  0  0  0  0  0  0
  1  4  1  0
  1  8  1  0
  2  3  1  0
  2  7  1  0
  3  8  1  0
  4  5  2  0
  4  6  1  0
  7  8  1  0
M  END
>  <ID>  (1) 
conformer_0

$$$$
