
     RDKit          3D

 10 10  0  0  0  0  0  0  0  0999 V2000
    0.1908   12.1605    3.7415 C   0  0  0  0  0  0  0  0  0  0  0  0
   -1.0162   10.1412    3.0166 O   0  0  0  0  0  0  0  0  0  0  0  0
    0.4650   13.2553    1.6579 C   0  0  0  0  0  0  0  0  0  0  0  0
    0.2322   14.4953   -0.2799 O   0  0  0  0  0  0  0  0  0  0  0  0
    0.9229   14.2081    0.6931 C   0  0  0  0  0  0  0  0  0  0  0  0
   -0.4357   11.3249    2.7387 C   0  0  0  0  0  0  0  0  0  0  0  0
    0.7478   13.3396    3.0360 C   0  0  0  0  0  0  0  0  0  0  0  0
   -0.2719   12.0637    1.4956 C   0  0  0  0  0  0  0  0  0  0  0  0
    2.0023   14.9313    0.9857 N   0  0  0  0  0  0  0  0  0  0  0  0
   -0.3350    9.4535    4.1506 C   0  0  0  0  0  0  0  0  0  0  0  0
  1  6  1  0
  1  7  1  0
  2  6  1  0
  2 10  1  0
  3  5  1  0
  3  7  1  0
  3  8  1  0
  4  5  2  0
  5  9  1  0
  6  8  1  0
M  END
>  <ID>  (1) 
conformer_0

$$$$
