
     RDKit          3D

 12 13  0  0  0  0  0  0  0  0999 V2000
    0.7516   13.4279    1.8266 C   0  0  0  0  0  0  0  0  0  0  0  0
    1.0374   14.5523   -1.4402 O   0  0  0  0  0  0  0  0  0  0  0  0
    0.8132   13.9166   -0.3383 C   0  0  0  0  0  0  0  0  0  0  0  0
    1.2741   14.2536    0.8709 N   0  0  0  0  0  0  0  0  0  0  0  0
    0.0008   12.4653    1.1603 C   0  0  0  0  0  0  0  0  0  0  0  0
   -0.7704   10.2464    3.9340 O   0  0  0  0  0  0  0  0  0  0  0  0
    0.8277   13.3482    3.1781 C   0  0  0  0  0  0  0  0  0  0  0  0
   -0.5142   11.3938    1.8588 C   0  0  0  0  0  0  0  0  0  0  0  0
    0.3905   12.2780    3.8492 N   0  0  0  0  0  0  0  0  0  0  0  0
   -0.2553   11.2875    3.1998 C   0  0  0  0  0  0  0  0  0  0  0  0
    0.0841   12.8032   -0.1858 N   0  0  0  0  0  0  0  0  0  0  0  0
    0.1697    9.1606    4.2090 C   0  0  0  0  0  0  0  0  0  0  0  0
  1  4  1  0
  1  5  2  0
  1  7  1  0
  2  3  2  0
  3  4  1  0
  3 11  1  0
  5  8  1  0
  5 11  1  0
  6 10  1  0
  6 12  1  0
  7  9  2  0
  8 10  2  0
  9 10  1  0
M  END
>  <ID>  (1) 
conformer_0

$$$$
