
     RDKit          3D

 11 11  0  0  0  0  0  0  0  0999 V2000
    0.8652   14.3012   -0.4546 C   0  0  0  0  0  0  0  0  0  0  0  0
    0.3686   12.6359    3.7659 C   0  0  0  0  0  0  0  0  0  0  0  0
   -0.5306   11.5532    1.7839 C   0  0  0  0  0  0  0  0  0  0  0  0
   -0.0379   15.0839   -0.7607 O   0  0  0  0  0  0  0  0  0  0  0  0
    1.1576   14.1197    1.9328 C   0  0  0  0  0  0  0  0  0  0  0  0
   -0.8943   10.7532    3.9308 F   0  0  0  0  0  0  0  0  0  0  0  0
   -0.3545   11.6351    3.1552 C   0  0  0  0  0  0  0  0  0  0  0  0
   -0.1221   12.4122    0.7955 C   0  0  0  0  0  0  0  0  0  0  0  0
    1.9716   14.3491   -0.9458 O   0  0  0  0  0  0  0  0  0  0  0  0
    0.6289   13.5686    0.7588 C   0  0  0  0  0  0  0  0  0  0  0  0
    1.0068   13.6640    3.1922 C   0  0  0  0  0  0  0  0  0  0  0  0
  1  4  2  0
  1  9  1  0
  1 10  1  0
  2  7  1  0
  2 11  2  0
  3  7  2  0
  3  8  1  0
  5 10  2  0
  5 11  1  0
  6  7  1  0
  8 10  1  0
M  END
>  <ID>  (1) 
conformer_0

$$$$
