
     RDKit          3D

 12 14  0  0  0  0  0  0  0  0999 V2000
   -0.5312   10.1024    3.8117 C   0  0  0  0  0  0  0  0  0  0  0  0
    1.1933   14.2780    0.2750 N   0  0  0  0  0  0  0  0  0  0  0  0
    0.8010   13.8623   -0.9610 C   0  0  0  0  0  0  0  0  0  0  0  0
    0.7216   13.4770    1.2604 C   0  0  0  0  0  0  0  0  0  0  0  0
   -0.0330   12.4039    0.7091 C   0  0  0  0  0  0  0  0  0  0  0  0
   -0.9093   10.2439    2.4249 C   0  0  0  0  0  0  0  0  0  0  0  0
   -0.3908   11.4796    1.8633 C   0  0  0  0  0  0  0  0  0  0  0  0
    0.0226   11.3559    4.0984 N   0  0  0  0  0  0  0  0  0  0  0  0
    0.0477   12.7045   -0.7208 C   0  0  0  0  0  0  0  0  0  0  0  0
    0.1885   12.1059    3.0306 C   0  0  0  0  0  0  0  0  0  0  0  0
    1.2715   14.3465   -2.0831 N   0  0  0  0  0  0  0  0  0  0  0  0
    0.8433   13.2448    2.6286 C   0  0  0  0  0  0  0  0  0  0  0  0
  1  6  1  0
  1  8  1  0
  2  3  1  0
  2  4  1  0
  3  9  1  0
  3 11  2  0
  4  5  2  0
  4 12  1  0
  5  7  1  0
  5  9  1  0
  6  7  1  0
  7 10  2  0
  8 10  1  0
 10 12  1  0
M  END
>  <ID>  (1) 
conformer_0

$$$$
