
     RDKit          3D

 16 18  0  0  0  0  0  0  0  0999 V2000
    2.5414   14.7900   -1.9693 C   0  0  0  0  0  0  0  0  0  0  0  0
   -0.5009   11.8518   -1.0053 C   0  0  0  0  0  0  0  0  0  0  0  0
    1.9805   14.0181   -3.0658 C   0  0  0  0  0  0  0  0  0  0  0  0
   -0.0860   10.1112    4.1199 C   0  0  0  0  0  0  0  0  0  0  0  0
    1.0628   13.9464    2.1890 C   0  0  0  0  0  0  0  0  0  0  0  0
    0.6194   13.1185    3.2892 C   0  0  0  0  0  0  0  0  0  0  0  0
    0.6181   13.3932    0.9898 C   0  0  0  0  0  0  0  0  0  0  0  0
   -0.1488   12.0589    2.7613 C   0  0  0  0  0  0  0  0  0  0  0  0
    1.6989   14.7927   -0.8180 N   0  0  0  0  0  0  0  0  0  0  0  0
   -0.5916   11.4911    0.3057 N   0  0  0  0  0  0  0  0  0  0  0  0
    0.9427   13.7614   -0.3463 C   0  0  0  0  0  0  0  0  0  0  0  0
    0.3915   12.9031   -1.4205 C   0  0  0  0  0  0  0  0  0  0  0  0
    1.9001   15.4644   -3.1518 C   0  0  0  0  0  0  0  0  0  0  0  0
   -0.1062   12.2427    1.3383 C   0  0  0  0  0  0  0  0  0  0  0  0
    0.7309   13.3361   -2.7617 C   0  0  0  0  0  0  0  0  0  0  0  0
   -0.7608   11.2089    3.5204 O   0  0  0  0  0  0  0  0  0  0  0  0
  1  3  1  0
  1  9  1  0
  2 10  2  0
  2 12  1  0
  3 13  1  0
  3 15  1  0
  4 16  1  0
  5  6  1  0
  5  7  1  0
  6  8  1  0
  7 11  2  0
  7 14  1  0
  8 14  2  0
  8 16  1  0
  9 11  1  0
 10 14  1  0
 11 12  1  0
 12 15  1  0
M  END
>  <ID>  (1) 
conformer_0

$$$$
