
     RDKit          3D

 18 20  0  0  0  0  0  0  0  0999 V2000
   -0.8663   11.1177    0.3237 C   0  0  0  0  0  0  0  0  0  0  0  0
    0.2251   12.4886    2.6019 C   0  0  0  0  0  0  0  0  0  0  0  0
    0.8910   13.4729    1.9084 C   0  0  0  0  0  0  0  0  0  0  0  0
   -1.8364    8.2805    3.7161 C   0  0  0  0  0  0  0  0  0  0  0  0
   -0.1059   12.5748   -1.6671 O   0  0  0  0  0  0  0  0  0  0  0  0
    1.1419   13.8776    0.7719 N   0  0  0  0  0  0  0  0  0  0  0  0
   -1.0622   10.5204    1.5448 C   0  0  0  0  0  0  0  0  0  0  0  0
   -0.0719   12.1091   -0.0200 N   0  0  0  0  0  0  0  0  0  0  0  0
    1.0576   14.5087   -1.3957 C   0  0  0  0  0  0  0  0  0  0  0  0
    0.4863   13.2652   -0.5195 C   0  0  0  0  0  0  0  0  0  0  0  0
   -1.4144    9.4032    2.7981 C   0  0  0  0  0  0  0  0  0  0  0  0
   -0.9155    7.7993    4.7803 C   0  0  0  0  0  0  0  0  0  0  0  0
   -2.6602    7.4037    3.1040 O   0  0  0  0  0  0  0  0  0  0  0  0
    1.3147   14.1011    3.0390 N   0  0  0  0  0  0  0  0  0  0  0  0
    0.2337    8.4437    5.1759 O   0  0  0  0  0  0  0  0  0  0  0  0
    0.5814   13.1311    3.8111 C   0  0  0  0  0  0  0  0  0  0  0  0
   -0.8055   10.5202    3.6249 N   0  0  0  0  0  0  0  0  0  0  0  0
   -0.4799   11.3497    2.6493 C   0  0  0  0  0  0  0  0  0  0  0  0
  1  7  1  0
  1  8  1  0
  2  3  1  0
  2 16  1  0
  2 18  2  0
  3  6  2  0
  3 14  1  0
  4 11  1  0
  4 12  1  0
  4 13  1  0
  5 10  1  0
  6 10  1  0
  7 11  1  0
  7 18  1  0
  8 10  1  0
  9 10  1  0
 11 17  1  0
 12 15  1  0
 14 16  1  0
 17 18  1  0
M  END
>  <ID>  (1) 
conformer_0

$$$$
