
     RDKit          3D

 16 18  0  0  0  0  0  0  0  0999 V2000
   -0.5254   11.0551    1.4211 C   0  0  0  0  0  0  0  0  0  0  0  0
    1.0557   14.1336    0.4081 N   0  0  0  0  0  0  0  0  0  0  0  0
    0.3349    9.0469    5.1599 O   0  0  0  0  0  0  0  0  0  0  0  0
    0.1901   12.2401    3.4606 C   0  0  0  0  0  0  0  0  0  0  0  0
   -0.5979   11.3279    2.8752 C   0  0  0  0  0  0  0  0  0  0  0  0
   -0.0117   12.6054   -0.7779 C   0  0  0  0  0  0  0  0  0  0  0  0
    1.2656   14.2655    3.3825 O   0  0  0  0  0  0  0  0  0  0  0  0
    0.7331   13.2997    2.6989 C   0  0  0  0  0  0  0  0  0  0  0  0
   -0.0305   12.1680    0.6408 N   0  0  0  0  0  0  0  0  0  0  0  0
   -0.8183    9.9801    3.3507 N   0  0  0  0  0  0  0  0  0  0  0  0
    0.5720   13.2400    1.3013 C   0  0  0  0  0  0  0  0  0  0  0  0
   -0.5438    8.8714    4.2410 C   0  0  0  0  0  0  0  0  0  0  0  0
   -0.7996    9.4545    1.8086 C   0  0  0  0  0  0  0  0  0  0  0  0
    0.9703   14.6366   -1.8214 N   0  0  0  0  0  0  0  0  0  0  0  0
   -1.1988    7.7742    4.0874 O   0  0  0  0  0  0  0  0  0  0  0  0
    0.6713   13.8196   -0.8611 C   0  0  0  0  0  0  0  0  0  0  0  0
  1  5  1  0
  1  9  1  0
  1 13  1  0
  2 11  1  0
  2 16  1  0
  3 12  2  0
  4  5  1  0
  4  8  1  0
  5 10  1  0
  6  9  1  0
  6 16  1  0
  7  8  1  0
  8 11  2  0
  9 11  1  0
 10 12  1  0
 10 13  1  0
 12 15  1  0
 14 16  2  0
M  END
>  <ID>  (1) 
conformer_0

$$$$
