
     RDKit          3D

 14 16  0  0  0  0  0  0  0  0999 V2000
    0.1789   12.6616    0.3622 C   0  0  0  0  0  0  0  0  0  0  0  0
   -0.1170   12.5344   -0.9610 C   0  0  0  0  0  0  0  0  0  0  0  0
   -0.3623   10.7799    3.5959 C   0  0  0  0  0  0  0  0  0  0  0  0
    0.9772   14.5436   -1.4538 N   0  0  0  0  0  0  0  0  0  0  0  0
    0.5919   13.2800   -1.8893 C   0  0  0  0  0  0  0  0  0  0  0  0
    0.8903   13.8224    0.7296 C   0  0  0  0  0  0  0  0  0  0  0  0
    0.3480   12.7058    2.6473 C   0  0  0  0  0  0  0  0  0  0  0  0
   -0.6074    9.3847    1.7129 C   0  0  0  0  0  0  0  0  0  0  0  0
   -0.6286   10.0017    4.5350 N   0  0  0  0  0  0  0  0  0  0  0  0
    0.0355   12.0831    3.8354 C   0  0  0  0  0  0  0  0  0  0  0  0
   -0.3124   10.6627    2.2391 N   0  0  0  0  0  0  0  0  0  0  0  0
    1.5211   14.6219   -0.1806 C   0  0  0  0  0  0  0  0  0  0  0  0
   -0.0523   11.8703    1.5690 C   0  0  0  0  0  0  0  0  0  0  0  0
    1.0226   13.7975    2.1157 C   0  0  0  0  0  0  0  0  0  0  0  0
  1  2  1  0
  1  6  2  0
  1 13  1  0
  2  5  1  0
  3  9  2  0
  3 10  1  0
  3 11  1  0
  4  5  1  0
  4 12  1  0
  6 12  1  0
  6 14  1  0
  7 10  1  0
  7 13  2  0
  7 14  1  0
  8 11  1  0
 11 13  1  0
M  END
>  <ID>  (1) 
conformer_0

$$$$
