
     RDKit          3D

 13 13  0  0  0  0  0  0  0  0999 V2000
   -0.4650   11.1388    1.9289 C   0  0  0  0  0  0  0  0  0  0  0  0
    0.3098   12.4892    3.7930 C   0  0  0  0  0  0  0  0  0  0  0  0
    1.2160   15.2833   -2.1085 C   0  0  0  0  0  0  0  0  0  0  0  0
   -0.2601   11.3161    3.2980 C   0  0  0  0  0  0  0  0  0  0  0  0
    2.3827   14.7748   -1.6297 N   0  0  0  0  0  0  0  0  0  0  0  0
   -0.0999    9.0814    3.6758 C   0  0  0  0  0  0  0  0  0  0  0  0
   -0.5852   10.3463    4.2429 O   0  0  0  0  0  0  0  0  0  0  0  0
    0.8370   13.5466    3.1515 C   0  0  0  0  0  0  0  0  0  0  0  0
    0.5036   13.1579    0.8411 C   0  0  0  0  0  0  0  0  0  0  0  0
    0.9808   13.9372    1.8569 C   0  0  0  0  0  0  0  0  0  0  0  0
    1.1795   14.8876   -0.6996 C   0  0  0  0  0  0  0  0  0  0  0  0
   -0.1715   11.9859    0.9477 C   0  0  0  0  0  0  0  0  0  0  0  0
    0.7647   13.6263   -0.4490 O   0  0  0  0  0  0  0  0  0  0  0  0
  1  4  1  0
  1 12  2  0
  2  4  1  0
  2  8  2  0
  3  5  1  0
  3 11  1  0
  4  7  1  0
  6  7  1  0
  8 10  1  0
  9 10  2  0
  9 12  1  0
  9 13  1  0
 11 13  1  0
M  END
>  <ID>  (1) 
conformer_0

$$$$
