
     RDKit          3D

 12 13  0  0  0  0  0  0  0  0999 V2000
    0.1132   11.1719    3.4990 N   0  0  0  0  0  0  0  0  0  0  0  0
   -0.8463   10.1863    3.3296 C   0  0  0  0  0  0  0  0  0  0  0  0
    0.3443   12.2924    2.8452 C   0  0  0  0  0  0  0  0  0  0  0  0
    0.3916   12.4943    1.5276 N   0  0  0  0  0  0  0  0  0  0  0  0
    0.8891   13.5143   -2.2816 C   0  0  0  0  0  0  0  0  0  0  0  0
    0.8524   13.4395    3.4202 C   0  0  0  0  0  0  0  0  0  0  0  0
    0.2638   13.5881   -1.0128 C   0  0  0  0  0  0  0  0  0  0  0  0
    0.9833   13.6846    1.2393 C   0  0  0  0  0  0  0  0  0  0  0  0
    1.2810   14.2555    2.4177 N   0  0  0  0  0  0  0  0  0  0  0  0
    2.2338   14.8261   -0.8668 C   0  0  0  0  0  0  0  0  0  0  0  0
    1.2499   14.1354   -0.0648 N   0  0  0  0  0  0  0  0  0  0  0  0
    2.0618   14.4563   -2.3029 C   0  0  0  0  0  0  0  0  0  0  0  0
  1  2  1  0
  1  3  2  3
  3  4  1  0
  3  6  1  0
  4  8  2  0
  5  7  1  0
  5 12  1  0
  6  9  1  0
  7 11  1  0
  8  9  1  0
  8 11  1  0
 10 11  1  0
 10 12  1  0
M  END
>  <ID>  (1) 
conformer_0

$$$$
