
     RDKit          3D

 10 10  0  0  0  0  0  0  0  0999 V2000
   -1.6902   10.6941    3.1034 O   0  0  0  0  0  0  0  0  0  0  0  0
   -0.4846   10.7883    3.4381 C   0  0  0  0  0  0  0  0  0  0  0  0
    0.1270    9.9296    4.1904 O   0  0  0  0  0  0  0  0  0  0  0  0
    0.3062   11.8956    2.9536 C   0  0  0  0  0  0  0  0  0  0  0  0
    0.3253   12.3953    1.5612 C   0  0  0  0  0  0  0  0  0  0  0  0
    0.6271   12.9956    3.7675 O   0  0  0  0  0  0  0  0  0  0  0  0
    1.3020   14.0411    2.9184 C   0  0  0  0  0  0  0  0  0  0  0  0
    0.4484   13.9757   -0.6457 C   0  0  0  0  0  0  0  0  0  0  0  0
    1.4716   14.2228    0.3774 O   0  0  0  0  0  0  0  0  0  0  0  0
    1.0731   13.6587    1.5416 C   0  0  0  0  0  0  0  0  0  0  0  0
  1  2  2  0
  2  3  1  0
  2  4  1  0
  4  5  1  0
  4  6  1  0
  5 10  1  0
  6  7  1  0
  7 10  1  0
  8  9  1  0
  9 10  1  0
M  END
>  <ID>  (1) 
conformer_0

$$$$
