
     RDKit          3D

 16 18  0  0  0  0  0  0  0  0999 V2000
    1.4410   14.5926    3.5533 O   0  0  0  0  0  0  0  0  0  0  0  0
    0.8844   13.5769   -2.2424 C   0  0  0  0  0  0  0  0  0  0  0  0
    0.2141   12.4583    0.3361 C   0  0  0  0  0  0  0  0  0  0  0  0
    1.4800   14.4768    2.3923 C   0  0  0  0  0  0  0  0  0  0  0  0
    0.0376    9.4206    4.1701 O   0  0  0  0  0  0  0  0  0  0  0  0
    0.7887   13.7050    3.3480 C   0  0  0  0  0  0  0  0  0  0  0  0
    1.0936   14.3042   -1.0841 C   0  0  0  0  0  0  0  0  0  0  0  0
    0.1204   11.9627    1.6816 C   0  0  0  0  0  0  0  0  0  0  0  0
    0.1839   12.5965    2.9352 C   0  0  0  0  0  0  0  0  0  0  0  0
   -0.2596   11.6962    3.9693 C   0  0  0  0  0  0  0  0  0  0  0  0
   -0.2340   10.4150    3.3777 C   0  0  0  0  0  0  0  0  0  0  0  0
    1.1881   14.4996    1.2298 N   0  0  0  0  0  0  0  0  0  0  0  0
   -0.0448   10.6336    2.0257 N   0  0  0  0  0  0  0  0  0  0  0  0
   -0.4619   12.1179   -0.8333 C   0  0  0  0  0  0  0  0  0  0  0  0
   -0.0162   12.5324   -2.0637 N   0  0  0  0  0  0  0  0  0  0  0  0
    0.8716   13.7147    0.2025 C   0  0  0  0  0  0  0  0  0  0  0  0
  1  4  1  0
  1  6  1  0
  2  7  1  0
  2 15  1  0
  3  8  1  0
  3 14  1  0
  3 16  1  0
  4 12  1  0
  5 11  2  0
  6  9  1  0
  7 16  2  0
  8  9  1  0
  8 13  1  0
  9 10  1  0
 10 11  1  0
 11 13  1  0
 12 16  1  0
 14 15  1  0
M  END
>  <ID>  (1) 
conformer_0

$$$$
