
     RDKit          3D

 12 13  0  0  0  0  0  0  0  0999 V2000
    0.1481   12.6099   -0.5097 C   0  0  0  0  0  0  0  0  0  0  0  0
    0.0028   12.4472    0.9805 C   0  0  0  0  0  0  0  0  0  0  0  0
   -0.1214   12.1628    3.7798 C   0  0  0  0  0  0  0  0  0  0  0  0
    1.6643   14.7349   -0.0737 C   0  0  0  0  0  0  0  0  0  0  0  0
    1.3937   14.0072   -2.3373 C   0  0  0  0  0  0  0  0  0  0  0  0
    0.8804   13.7952   -0.9470 C   0  0  0  0  0  0  0  0  0  0  0  0
   -0.6667   11.3522    1.5640 C   0  0  0  0  0  0  0  0  0  0  0  0
    1.4336   14.4720    1.3047 N   0  0  0  0  0  0  0  0  0  0  0  0
    0.6321   13.3799    1.8051 C   0  0  0  0  0  0  0  0  0  0  0  0
    0.5570   13.2392    3.1937 C   0  0  0  0  0  0  0  0  0  0  0  0
   -0.7226   11.2356    2.9365 C   0  0  0  0  0  0  0  0  0  0  0  0
    1.1749   14.1832    3.9125 O   0  0  0  0  0  0  0  0  0  0  0  0
  1  2  2  0
  1  6  1  0
  2  7  1  0
  2  9  1  0
  3 10  1  0
  3 11  1  0
  4  6  1  0
  4  8  1  0
  5  6  1  0
  7 11  2  0
  8  9  1  0
  9 10  2  0
 10 12  1  0
M  END
>  <ID>  (1) 
conformer_0

$$$$
