
     RDKit          3D

 13 14  0  0  0  0  0  0  0  0999 V2000
    0.9848   13.5735    3.0493 C   0  0  0  0  0  0  0  0  0  0  0  0
    1.4249   14.4658    0.8071 C   0  0  0  0  0  0  0  0  0  0  0  0
    0.0376   12.4968    0.3296 C   0  0  0  0  0  0  0  0  0  0  0  0
    0.2274   12.4713    2.7999 C   0  0  0  0  0  0  0  0  0  0  0  0
    1.5206   14.4240    2.1278 C   0  0  0  0  0  0  0  0  0  0  0  0
    0.7669   14.0477   -1.4840 C   0  0  0  0  0  0  0  0  0  0  0  0
    0.7433   13.6546   -0.0819 C   0  0  0  0  0  0  0  0  0  0  0  0
   -0.6777   10.4325    3.3304 C   0  0  0  0  0  0  0  0  0  0  0  0
   -0.1774   11.9538    1.5973 C   0  0  0  0  0  0  0  0  0  0  0  0
    0.7434   13.2023   -2.3654 O   0  0  0  0  0  0  0  0  0  0  0  0
    0.9136   15.2971   -1.7289 O   0  0  0  0  0  0  0  0  0  0  0  0
   -0.8418   10.6575    1.8592 C   0  0  0  0  0  0  0  0  0  0  0  0
   -0.1888   11.6754    3.8894 N   0  0  0  0  0  0  0  0  0  0  0  0
  1  4  2  0
  1  5  1  0
  2  5  2  0
  2  7  1  0
  3  7  1  0
  3  9  2  0
  4  9  1  0
  4 13  1  0
  6  7  1  0
  6 10  2  0
  6 11  1  0
  8 12  1  0
  8 13  1  0
  9 12  1  0
M  END
>  <ID>  (1) 
conformer_0

$$$$
