
     RDKit          3D

 12 14  0  0  0  0  0  0  0  0999 V2000
    0.7063   13.8078   -0.0614 N   0  0  0  0  0  0  0  0  0  0  0  0
   -0.6424    9.6497    2.8175 C   0  0  0  0  0  0  0  0  0  0  0  0
   -0.2259   10.3902    4.1392 N   0  0  0  0  0  0  0  0  0  0  0  0
   -0.0913   11.5351    3.5497 C   0  0  0  0  0  0  0  0  0  0  0  0
   -0.0565   12.6506   -0.0248 C   0  0  0  0  0  0  0  0  0  0  0  0
   -0.1046   12.1674    1.3025 C   0  0  0  0  0  0  0  0  0  0  0  0
    0.5969   12.6263    3.3706 N   0  0  0  0  0  0  0  0  0  0  0  0
    0.6394   13.0972    2.0922 C   0  0  0  0  0  0  0  0  0  0  0  0
    1.9509   15.0359    1.3169 N   0  0  0  0  0  0  0  0  0  0  0  0
    0.9130   14.6189   -1.1961 C   0  0  0  0  0  0  0  0  0  0  0  0
    1.1507   14.0793    1.1520 C   0  0  0  0  0  0  0  0  0  0  0  0
   -0.5067   11.0584    2.1632 C   0  0  0  0  0  0  0  0  0  0  0  0
  1  5  1  0
  1 10  1  0
  1 11  1  0
  2  3  1  0
  2 12  1  0
  3  4  2  0
  4  7  1  0
  4 12  1  0
  5  6  1  0
  6  8  1  0
  6 12  1  0
  7  8  2  0
  8 11  1  0
  9 11  2  0
M  END
>  <ID>  (1) 
conformer_0

$$$$
