
     RDKit          3D

 19 21  0  0  0  0  0  0  0  0999 V2000
    0.9986   13.8866    1.9906 C   0  0  0  0  0  0  0  0  0  0  0  0
    0.3964   13.2395   -0.1173 C   0  0  0  0  0  0  0  0  0  0  0  0
    0.3414   12.6119    2.1181 C   0  0  0  0  0  0  0  0  0  0  0  0
   -0.4734   11.3593    3.9571 N   0  0  0  0  0  0  0  0  0  0  0  0
    1.5166   14.5003    2.9862 O   0  0  0  0  0  0  0  0  0  0  0  0
    0.5713   12.8153   -2.6738 C   0  0  0  0  0  0  0  0  0  0  0  0
    1.4736   14.7505   -1.7597 C   0  0  0  0  0  0  0  0  0  0  0  0
    0.1597    9.5772    2.4532 C   0  0  0  0  0  0  0  0  0  0  0  0
    0.9489   14.2599    0.7284 N   0  0  0  0  0  0  0  0  0  0  0  0
   -0.2984   10.0729    3.6475 C   0  0  0  0  0  0  0  0  0  0  0  0
   -0.5947    9.2254    4.6260 N   0  0  0  0  0  0  0  0  0  0  0  0
    2.0120   14.6315   -3.1535 C   0  0  0  0  0  0  0  0  0  0  0  0
    0.2255    8.2285    2.3876 N   0  0  0  0  0  0  0  0  0  0  0  0
    1.3148   13.4822   -3.7933 C   0  0  0  0  0  0  0  0  0  0  0  0
   -0.4398    7.3676    3.2498 C   0  0  0  0  0  0  0  0  0  0  0  0
   -0.4353    7.8488    4.6130 C   0  0  0  0  0  0  0  0  0  0  0  0
    0.0335   12.3703    3.4507 C   0  0  0  0  0  0  0  0  0  0  0  0
    0.7019   13.5282   -1.4813 C   0  0  0  0  0  0  0  0  0  0  0  0
    0.0305   12.2621    0.7898 C   0  0  0  0  0  0  0  0  0  0  0  0
  1  3  1  0
  1  5  2  0
  1  9  1  0
  2  9  1  0
  2 18  1  0
  2 19  1  0
  3 17  1  0
  3 19  1  0
  4 10  1  0
  4 17  1  0
  6 14  1  0
  6 18  1  0
  7 12  1  0
  7 18  1  0
  8 10  1  0
  8 13  1  0
 10 11  2  0
 11 16  1  0
 12 14  1  0
 13 15  1  0
 15 16  1  0
M  END
>  <ID>  (1) 
conformer_0

$$$$
