
     RDKit          3D

 14 14  0  0  0  0  0  0  0  0999 V2000
   -0.4998    8.9825    4.6117 C   0  0  0  0  0  0  0  0  0  0  0  0
    1.2114    7.4697    4.0504 O   0  0  0  0  0  0  0  0  0  0  0  0
    0.8116   13.5644    3.6784 C   0  0  0  0  0  0  0  0  0  0  0  0
    0.7863   13.5969   -0.3206 C   0  0  0  0  0  0  0  0  0  0  0  0
    0.3135   12.5614    0.3086 N   0  0  0  0  0  0  0  0  0  0  0  0
   -0.3743    6.8112    5.4433 O   0  0  0  0  0  0  0  0  0  0  0  0
   -0.1315   11.1230    3.5539 C   0  0  0  0  0  0  0  0  0  0  0  0
    1.5135   14.5503    0.3449 N   0  0  0  0  0  0  0  0  0  0  0  0
    1.5039   14.5631    1.6527 C   0  0  0  0  0  0  0  0  0  0  0  0
   -0.0759    9.6240    3.3186 C   0  0  0  0  0  0  0  0  0  0  0  0
   -0.4921   11.6959    2.3609 C   0  0  0  0  0  0  0  0  0  0  0  0
    0.1425    7.6057    4.6602 C   0  0  0  0  0  0  0  0  0  0  0  0
    0.8612   13.5937    2.3684 C   0  0  0  0  0  0  0  0  0  0  0  0
    0.2324   12.5899    1.6267 C   0  0  0  0  0  0  0  0  0  0  0  0
  1 10  1  0
  1 12  1  0
  2 12  2  0
  3 13  1  0
  4  5  2  0
  4  8  1  0
  5 14  1  0
  6 12  1  0
  7 10  1  0
  7 11  1  0
  8  9  2  0
  9 13  1  0
 11 14  1  0
 13 14  2  0
M  END
>  <ID>  (1) 
conformer_0

$$$$
