
     RDKit          3D

 16 17  0  0  0  0  0  0  0  0999 V2000
    0.9047   15.4693   -1.1344 N   0  0  0  0  0  0  0  0  0  0  0  0
    1.5272   16.1431   -2.1447 C   0  0  0  0  0  0  0  0  0  0  0  0
    0.3681   12.4159    3.7415 N   0  0  0  0  0  0  0  0  0  0  0  0
   -0.2419    9.8794    4.5075 N   0  0  0  0  0  0  0  0  0  0  0  0
    0.0630   11.4798    2.8225 C   0  0  0  0  0  0  0  0  0  0  0  0
    1.9791   14.1465   -3.2162 C   0  0  0  0  0  0  0  0  0  0  0  0
    0.8219   14.1009   -1.1733 C   0  0  0  0  0  0  0  0  0  0  0  0
   -0.0298   10.0893    3.2319 C   0  0  0  0  0  0  0  0  0  0  0  0
    1.3421   13.4655   -2.2234 C   0  0  0  0  0  0  0  0  0  0  0  0
    0.9865   13.9430    2.0352 C   0  0  0  0  0  0  0  0  0  0  0  0
    2.0829   15.4694   -3.2005 C   0  0  0  0  0  0  0  0  0  0  0  0
    0.2290   13.4272   -0.1619 N   0  0  0  0  0  0  0  0  0  0  0  0
    0.7618   13.6407    3.3398 C   0  0  0  0  0  0  0  0  0  0  0  0
   -0.0334   11.8699    1.5059 C   0  0  0  0  0  0  0  0  0  0  0  0
    0.3958   13.0908    1.1083 C   0  0  0  0  0  0  0  0  0  0  0  0
    0.1128    9.1448    2.4474 O   0  0  0  0  0  0  0  0  0  0  0  0
  1  2  1  0
  1  7  2  0
  2 11  1  0
  3  5  2  0
  3 13  1  0
  4  8  1  0
  5  8  1  0
  5 14  1  0
  6  9  1  0
  6 11  2  0
  7  9  1  0
  7 12  1  0
  8 16  2  0
 10 13  1  0
 10 15  1  0
 12 15  1  0
 14 15  2  0
M  END
>  <ID>  (1) 
conformer_0

$$$$
