
     RDKit          3D

 11 12  0  0  0  0  0  0  0  0999 V2000
   -0.6662   11.1090    2.2106 C   0  0  0  0  0  0  0  0  0  0  0  0
    1.4200   14.4187   -1.1369 C   0  0  0  0  0  0  0  0  0  0  0  0
   -0.3059   10.3667    3.5747 C   0  0  0  0  0  0  0  0  0  0  0  0
    0.9331   13.3479    2.3726 C   0  0  0  0  0  0  0  0  0  0  0  0
    0.1596   12.9104    0.0754 C   0  0  0  0  0  0  0  0  0  0  0  0
    0.4940   13.3339   -1.2437 C   0  0  0  0  0  0  0  0  0  0  0  0
   -0.0625   12.3695    2.7778 C   0  0  0  0  0  0  0  0  0  0  0  0
    1.7638   15.2601   -2.0466 O   0  0  0  0  0  0  0  0  0  0  0  0
    0.8823   13.7315    0.9818 C   0  0  0  0  0  0  0  0  0  0  0  0
    1.6812   14.5527    0.2300 N   0  0  0  0  0  0  0  0  0  0  0  0
    0.2830   11.6888    3.9746 O   0  0  0  0  0  0  0  0  0  0  0  0
  1  3  1  0
  1  7  1  0
  2  6  1  0
  2  8  2  0
  2 10  1  0
  3 11  1  0
  4  7  1  0
  4  9  1  0
  5  6  1  0
  5  9  1  0
  7 11  1  0
  9 10  1  0
M  END
>  <ID>  (1) 
conformer_0

$$$$
