
     RDKit          3D

 23 25  0  0  0  0  0  0  0  0999 V2000
   -0.4635    8.9807    4.4442 N   0  0  0  0  0  0  0  0  0  0  0  0
    1.2002   14.2678    0.2323 N   0  0  0  0  0  0  0  0  0  0  0  0
   -0.6162   10.7433    1.1131 C   0  0  0  0  0  0  0  0  0  0  0  0
   -0.6513   11.7433   -1.6383 C   0  0  0  0  0  0  0  0  0  0  0  0
   -1.3490    8.0602    2.5963 O   0  0  0  0  0  0  0  0  0  0  0  0
    0.1756   12.4796    3.1181 C   0  0  0  0  0  0  0  0  0  0  0  0
    0.7743   13.5001   -0.7867 C   0  0  0  0  0  0  0  0  0  0  0  0
    0.3675   12.8343    1.7460 C   0  0  0  0  0  0  0  0  0  0  0  0
    1.0371   13.9451    1.4646 N   0  0  0  0  0  0  0  0  0  0  0  0
   -0.1174   12.0015    0.7679 C   0  0  0  0  0  0  0  0  0  0  0  0
    0.0743   12.3595   -0.5604 N   0  0  0  0  0  0  0  0  0  0  0  0
   -0.8481    9.0133    3.1374 C   0  0  0  0  0  0  0  0  0  0  0  0
    1.2327   13.4218   -3.3906 C   0  0  0  0  0  0  0  0  0  0  0  0
    1.0541   14.0257   -2.1355 C   0  0  0  0  0  0  0  0  0  0  0  0
   -0.6481   10.3060    2.4446 C   0  0  0  0  0  0  0  0  0  0  0  0
   -0.2203   11.0991   -2.8271 C   0  0  0  0  0  0  0  0  0  0  0  0
    1.8425   16.1942   -4.4122 C   0  0  0  0  0  0  0  0  0  0  0  0
    0.5833   13.3117    4.0750 N   0  0  0  0  0  0  0  0  0  0  0  0
    1.5713   13.8512   -4.5646 C   0  0  0  0  0  0  0  0  0  0  0  0
    1.8649   15.0070   -5.1267 C   0  0  0  0  0  0  0  0  0  0  0  0
    1.5616   16.2380   -3.0712 C   0  0  0  0  0  0  0  0  0  0  0  0
   -0.3829   11.3010    3.4323 C   0  0  0  0  0  0  0  0  0  0  0  0
    1.2859   15.3972   -2.1816 C   0  0  0  0  0  0  0  0  0  0  0  0
  1 12  1  0
  2  7  2  0
  2  9  1  0
  3 10  2  0
  3 15  1  0
  4 11  1  0
  4 16  1  0
  5 12  2  0
  6  8  1  0
  6 18  1  0
  6 22  2  0
  7 11  1  0
  7 14  1  0
  8  9  2  0
  8 10  1  0
 10 11  1  0
 12 15  1  0
 13 14  1  0
 13 19  2  0
 14 23  1  0
 15 22  1  0
 17 20  2  0
 17 21  1  0
 19 20  1  0
 21 23  2  0
M  END
>  <ID>  (1) 
conformer_0

$$$$
