
     RDKit          3D

  9 10  0  0  0  0  0  0  0  0999 V2000
    0.5134   13.0420    2.7250 C   0  0  0  0  0  0  0  0  0  0  0  0
    1.0129   13.8557    0.5994 C   0  0  0  0  0  0  0  0  0  0  0  0
   -0.9614   10.8507    1.8747 N   0  0  0  0  0  0  0  0  0  0  0  0
    0.3276   12.8513    1.3506 C   0  0  0  0  0  0  0  0  0  0  0  0
    1.6494   14.7584    1.6081 N   0  0  0  0  0  0  0  0  0  0  0  0
    1.3047   14.1869    2.9800 C   0  0  0  0  0  0  0  0  0  0  0  0
   -0.4322   11.7353    0.9620 C   0  0  0  0  0  0  0  0  0  0  0  0
   -0.0368   12.1655    3.6650 C   0  0  0  0  0  0  0  0  0  0  0  0
   -0.7722   11.0786    3.2320 C   0  0  0  0  0  0  0  0  0  0  0  0
  1  4  2  0
  1  6  1  0
  1  8  1  0
  2  4  1  0
  2  5  1  0
  3  7  2  0
  3  9  1  0
  4  7  1  0
  5  6  1  0
  8  9  2  0
M  END
>  <ID>  (1) 
conformer_0

$$$$
