
     RDKit          3D

 10 10  0  0  0  0  0  0  0  0999 V2000
    0.0237   14.9984   -0.3875 F   0  0  0  0  0  0  0  0  0  0  0  0
    0.5560   13.0860    3.5935 C   0  0  0  0  0  0  0  0  0  0  0  0
    2.1227   14.9340    0.1867 F   0  0  0  0  0  0  0  0  0  0  0  0
    1.2289   13.4428   -1.0911 F   0  0  0  0  0  0  0  0  0  0  0  0
   -0.0809   12.2143    1.0197 C   0  0  0  0  0  0  0  0  0  0  0  0
    0.6181   13.3980    1.1437 C   0  0  0  0  0  0  0  0  0  0  0  0
    0.9523   13.8202    2.4323 C   0  0  0  0  0  0  0  0  0  0  0  0
   -0.1862   11.9122    3.4744 C   0  0  0  0  0  0  0  0  0  0  0  0
   -0.4608   11.4557    2.1667 C   0  0  0  0  0  0  0  0  0  0  0  0
    1.0115   14.2026   -0.0658 C   0  0  0  0  0  0  0  0  0  0  0  0
  1 10  1  0
  2  7  2  0
  2  8  1  0
  3 10  1  0
  4 10  1  0
  5  6  2  0
  5  9  1  0
  6  7  1  0
  6 10  1  0
  8  9  2  0
M  END
>  <ID>  (1) 
conformer_0

$$$$
