
     RDKit          3D

 10 10  0  0  0  0  0  0  0  0999 V2000
    1.0584   13.9794    0.8406 N   0  0  0  0  0  0  0  0  0  0  0  0
   -0.7069   10.7127    3.3652 C   0  0  0  0  0  0  0  0  0  0  0  0
    0.1056    9.6217    3.1386 C   0  0  0  0  0  0  0  0  0  0  0  0
    0.3957   12.6085    2.4200 C   0  0  0  0  0  0  0  0  0  0  0  0
   -0.3225    9.7262    4.4263 C   0  0  0  0  0  0  0  0  0  0  0  0
    1.6759   14.8494   -0.0804 C   0  0  0  0  0  0  0  0  0  0  0  0
    0.0067   12.1502    1.2097 C   0  0  0  0  0  0  0  0  0  0  0  0
    0.0439   11.8695    3.5513 N   0  0  0  0  0  0  0  0  0  0  0  0
    1.0642   13.8006    2.2420 N   0  0  0  0  0  0  0  0  0  0  0  0
    0.3802   12.9657    0.2768 C   0  0  0  0  0  0  0  0  0  0  0  0
  1  6  1  0
  1  9  1  0
  1 10  1  0
  2  3  1  0
  2  8  1  0
  3  5  1  0
  4  7  1  0
  4  8  2  3
  4  9  1  0
  7 10  1  0
M  END
>  <ID>  (1) 
conformer_0

$$$$
