
     RDKit          3D

 17 19  0  0  0  0  0  0  0  0999 V2000
    1.4279   14.2286   -3.1488 C   0  0  0  0  0  0  0  0  0  0  0  0
    2.0235   14.7472   -0.9023 C   0  0  0  0  0  0  0  0  0  0  0  0
   -0.1576    9.9084    3.5487 C   0  0  0  0  0  0  0  0  0  0  0  0
    1.5072   14.6826    1.4952 C   0  0  0  0  0  0  0  0  0  0  0  0
    0.2448   11.8414    2.4214 C   0  0  0  0  0  0  0  0  0  0  0  0
    0.8333   12.9987    3.0657 N   0  0  0  0  0  0  0  0  0  0  0  0
    0.2329   10.2907    2.3680 N   0  0  0  0  0  0  0  0  0  0  0  0
    1.1804   14.3121    0.1903 C   0  0  0  0  0  0  0  0  0  0  0  0
    1.4530   15.3711   -2.1210 C   0  0  0  0  0  0  0  0  0  0  0  0
    0.3295    9.0612    4.4543 O   0  0  0  0  0  0  0  0  0  0  0  0
    0.1314   12.2616    1.0432 N   0  0  0  0  0  0  0  0  0  0  0  0
    1.1543   14.1185    2.6540 C   0  0  0  0  0  0  0  0  0  0  0  0
    0.4844   13.0639    0.0658 C   0  0  0  0  0  0  0  0  0  0  0  0
    0.2942   12.7397   -1.2736 N   0  0  0  0  0  0  0  0  0  0  0  0
    0.6496   13.1108   -2.5298 C   0  0  0  0  0  0  0  0  0  0  0  0
   -0.5111   11.1584    3.8642 C   0  0  0  0  0  0  0  0  0  0  0  0
   -0.8925    8.7563    3.9217 C   0  0  0  0  0  0  0  0  0  0  0  0
  1  9  1  0
  1 15  1  0
  2  8  1  0
  2  9  1  0
  3  7  1  0
  3 10  1  0
  3 16  1  0
  3 17  1  0
  4  8  1  0
  4 12  1  0
  5  6  1  0
  5  7  1  0
  5 11  1  0
  5 16  1  0
  6 12  1  0
  8 13  1  0
 11 13  1  0
 13 14  2  0
 14 15  1  0
M  END
>  <ID>  (1) 
conformer_0

$$$$
