
     RDKit          3D

 11 12  0  0  0  0  0  0  0  0999 V2000
   -0.4602   11.7348   -0.3134 N   0  0  0  0  0  0  0  0  0  0  0  0
    1.1262   14.8611   -1.1777 C   0  0  0  0  0  0  0  0  0  0  0  0
   -0.0017   12.1177    3.4041 C   0  0  0  0  0  0  0  0  0  0  0  0
   -0.4804   11.5537    2.2246 C   0  0  0  0  0  0  0  0  0  0  0  0
    0.7767   13.2921    3.3053 C   0  0  0  0  0  0  0  0  0  0  0  0
    0.5662   13.3336    0.9195 C   0  0  0  0  0  0  0  0  0  0  0  0
    0.0454   12.7076   -1.2110 C   0  0  0  0  0  0  0  0  0  0  0  0
   -1.2311   10.3753    2.2649 C   0  0  0  0  0  0  0  0  0  0  0  0
   -0.1670   12.1969    0.9923 C   0  0  0  0  0  0  0  0  0  0  0  0
    0.7439   13.7192   -0.4456 C   0  0  0  0  0  0  0  0  0  0  0  0
    1.0689   13.8907    2.0810 C   0  0  0  0  0  0  0  0  0  0  0  0
  1  7  1  0
  1  9  1  0
  2 10  1  0
  3  4  2  0
  3  5  1  0
  4  8  1  0
  4  9  1  0
  5 11  2  0
  6  9  2  0
  6 10  1  0
  6 11  1  0
  7 10  1  0
M  END
>  <ID>  (1) 
conformer_0

$$$$
