
     RDKit          3D

 20 22  0  0  0  0  0  0  0  0999 V2000
   35.5132    3.8236   -7.0809 C   0  0  0  0  0  0  0  0  0  0  0  0
   36.3963    4.0089   -6.1448 C   0  0  0  0  0  0  0  0  0  0  0  0
   34.2234    3.7779   -6.8922 C   0  0  0  0  0  0  0  0  0  0  0  0
   33.2162    3.5969   -7.9483 N   0  0  0  0  0  0  0  0  0  0  0  0
   33.6664    4.0593   -5.6453 C   0  0  0  0  0  0  0  0  0  0  0  0
   32.0676    3.5895   -7.3440 C   0  0  0  0  0  0  0  0  0  0  0  0
   37.8639    4.0615   -6.2249 O   0  0  0  0  0  0  0  0  0  0  0  0
   38.4545    3.3912   -5.1869 C   0  0  0  0  0  0  0  0  0  0  0  0
   32.1923    3.9193   -5.9280 N   0  0  0  0  0  0  0  0  0  0  0  0
   34.4233    4.2384   -4.5636 C   0  0  0  0  0  0  0  0  0  0  0  0
   33.9121    4.4368   -3.2851 O   0  0  0  0  0  0  0  0  0  0  0  0
   38.7973    4.2259   -3.9836 C   0  0  0  0  0  0  0  0  0  0  0  0
   30.7328    3.4894   -7.9760 C   0  0  0  0  0  0  0  0  0  0  0  0
   31.1852    3.5736   -4.8936 C   0  0  0  0  0  0  0  0  0  0  0  0
   30.9205    2.2921   -4.5509 C   0  0  0  0  0  0  0  0  0  0  0  0
   30.3275    2.2956   -8.3196 N   0  0  0  0  0  0  0  0  0  0  0  0
   30.0530    4.4677   -8.1683 N   0  0  0  0  0  0  0  0  0  0  0  0
   35.8077    4.2422   -4.7551 C   0  0  0  0  0  0  0  0  0  0  0  0
   29.1266    2.5648   -8.9730 C   0  0  0  0  0  0  0  0  0  0  0  0
   28.9828    3.9500   -8.9989 N   0  0  0  0  0  0  0  0  0  0  0  0
  1  2  2  0
  1  3  1  0
  3  4  1  0
  3  5  2  0
  4  6  2  0
  2  7  1  0
  7  8  1  0
  5  9  1  0
  6  9  1  0
  5 10  1  0
 10 11  1  0
  8 12  1  0
  6 13  1  0
  9 14  1  0
 14 15  1  0
 13 16  1  0
 13 17  2  0
  2 18  1  0
 10 18  2  0
 16 19  1  0
 17 20  1  0
 19 20  2  0
M  END
>  <ID>  (1) 
conformer_0

$$$$
