
     RDKit          3D

 20 22  0  0  0  0  0  0  0  0999 V2000
   35.6868    4.8526   -4.2510 C   0  0  0  0  0  0  0  0  0  0  0  0
   35.4038    4.2816   -5.4167 C   0  0  0  0  0  0  0  0  0  0  0  0
   36.4133    3.9055   -6.2342 C   0  0  0  0  0  0  0  0  0  0  0  0
   33.9912    3.9510   -5.7582 C   0  0  0  0  0  0  0  0  0  0  0  0
   32.9800    4.3303   -5.0722 C   0  0  0  0  0  0  0  0  0  0  0  0
   34.6478    5.0608   -3.2628 C   0  0  0  0  0  0  0  0  0  0  0  0
   33.7905    3.3648   -7.2193 C   0  0  0  0  0  0  0  0  0  0  0  0
   32.7021    2.4576   -7.1200 N   0  0  0  0  0  0  0  0  0  0  0  0
   33.3282    4.7917   -3.7204 C   0  0  0  0  0  0  0  0  0  0  0  0
   37.0613    5.1087   -3.8371 C   0  0  0  0  0  0  0  0  0  0  0  0
   31.4300    2.7402   -6.7127 C   0  0  0  0  0  0  0  0  0  0  0  0
   30.5048    1.9052   -6.8400 N   0  0  0  0  0  0  0  0  0  0  0  0
   38.0981    4.5416   -4.5983 C   0  0  0  0  0  0  0  0  0  0  0  0
   31.6037    4.1852   -5.3276 C   0  0  0  0  0  0  0  0  0  0  0  0
   36.3058    3.3423   -7.5928 O   0  0  0  0  0  0  0  0  0  0  0  0
   37.9196    4.0579   -5.8964 C   0  0  0  0  0  0  0  0  0  0  0  0
   29.4364    1.8654   -5.9879 C   0  0  0  0  0  0  0  0  0  0  0  0
   29.6137    1.6493   -4.6902 C   0  0  0  0  0  0  0  0  0  0  0  0
   28.3005    1.9822   -6.4769 O   0  0  0  0  0  0  0  0  0  0  0  0
   39.5747    4.8390   -4.1092 C   0  0  0  0  0  0  0  0  0  0  0  0
  1  2  2  0
  2  3  1  0
  2  4  1  0
  4  5  2  0
  1  6  1  0
  4  7  1  0
  7  8  1  0
  5  9  1  0
  6  9  2  0
  1 10  1  0
  8 11  1  0
 11 12  1  0
 10 13  2  0
  5 14  1  0
 11 14  1  0
  3 15  1  0
  3 16  2  0
 13 16  1  0
 12 17  1  0
 17 18  1  0
 17 19  2  0
 13 20  1  0
M  END
>  <ID>  (1) 
conformer_0

$$$$
