
     RDKit          3D

 21 22  0  0  0  0  0  0  0  0999 V2000
   35.6868    4.8526   -4.2510 C   0  0  0  0  0  0  0  0  0  0  0  0
   34.4406    4.6174   -4.7272 C   0  0  0  0  0  0  0  0  0  0  0  0
   33.2668    4.7099   -4.0418 C   0  0  0  0  0  0  0  0  0  0  0  0
   34.3851    4.0910   -6.0837 C   0  0  0  0  0  0  0  0  0  0  0  0
   32.1078    4.3104   -4.6141 C   0  0  0  0  0  0  0  0  0  0  0  0
   33.1513    3.6403   -6.5903 C   0  0  0  0  0  0  0  0  0  0  0  0
   36.7904    4.5244   -5.0804 C   0  0  0  0  0  0  0  0  0  0  0  0
   32.0316    3.6986   -5.8020 C   0  0  0  0  0  0  0  0  0  0  0  0
   35.5305    3.9117   -6.8266 C   0  0  0  0  0  0  0  0  0  0  0  0
   30.9307    4.5215   -6.6283 C   0  0  0  0  0  0  0  0  0  0  0  0
   31.4119    2.3510   -5.5990 C   0  0  0  0  0  0  0  0  0  0  0  0
   36.7779    4.1475   -6.2923 C   0  0  0  0  0  0  0  0  0  0  0  0
   31.7038    1.4883   -6.4936 O   0  0  0  0  0  0  0  0  0  0  0  0
   30.5886    3.9417   -7.7806 C   0  0  0  0  0  0  0  0  0  0  0  0
   30.6965    2.0895   -4.5902 O   0  0  0  0  0  0  0  0  0  0  0  0
   29.5656    3.8619   -8.3831 N   0  0  0  0  0  0  0  0  0  0  0  0
   38.1673    4.7383   -4.4290 C   0  0  0  0  0  0  0  0  0  0  0  0
   29.3193    3.1960   -9.6621 C   0  0  0  0  0  0  0  0  0  0  0  0
   30.2473    2.8005  -10.2662 O   0  0  0  0  0  0  0  0  0  0  0  0
   38.8378    3.5379   -3.9743 O   0  0  0  0  0  0  0  0  0  0  0  0
   28.0161    2.8271   -9.9848 N   0  0  0  0  0  0  0  0  0  0  0  0
  1  2  2  0
  2  3  1  0
  2  4  1  0
  3  5  2  0
  4  6  1  0
  1  7  1  0
  5  8  1  0
  6  8  1  0
  4  9  2  0
  8 10  1  0
  8 11  1  0
  7 12  2  0
  9 12  1  0
 11 13  2  0
 10 14  1  0
 11 15  1  0
 14 16  1  0
  7 17  1  0
 16 18  1  0
 18 19  2  0
 17 20  1  0
 18 21  1  0
M  END
>  <ID>  (1) 
conformer_0

$$$$
