
     RDKit          3D

 20 21  0  0  0  0  0  0  0  0999 V2000
   30.0201    2.5433   -4.0317 O   0  0  0  0  0  0  0  0  0  0  0  0
   30.9579    2.4080   -4.9124 C   0  0  0  0  0  0  0  0  0  0  0  0
   31.5099    3.4735   -5.5449 C   0  0  0  0  0  0  0  0  0  0  0  0
   32.3089    4.2562   -4.7817 C   0  0  0  0  0  0  0  0  0  0  0  0
   33.7326    4.2896   -5.0375 C   0  0  0  0  0  0  0  0  0  0  0  0
   34.7512    4.6477   -4.2194 C   0  0  0  0  0  0  0  0  0  0  0  0
   34.1164    3.2817   -5.9899 C   0  0  0  0  0  0  0  0  0  0  0  0
   36.0061    4.4272   -4.5857 C   0  0  0  0  0  0  0  0  0  0  0  0
   30.5069    4.2519   -6.3095 N   0  0  0  0  0  0  0  0  0  0  0  0
   30.6975    4.2731   -7.7490 C   0  0  0  0  0  0  0  0  0  0  0  0
   36.4256    3.6735   -5.5207 C   0  0  0  0  0  0  0  0  0  0  0  0
   37.0635    5.0623   -3.7414 O   0  0  0  0  0  0  0  0  0  0  0  0
   31.5464    5.0489   -8.1647 O   0  0  0  0  0  0  0  0  0  0  0  0
   38.4508    4.7771   -4.1015 C   0  0  0  0  0  0  0  0  0  0  0  0
   38.5355    3.5577   -4.8009 C   0  0  0  0  0  0  0  0  0  0  0  0
   30.0387    3.3818   -8.5745 C   0  0  0  0  0  0  0  0  0  0  0  0
   31.3069    1.2704   -5.2315 O   0  0  0  0  0  0  0  0  0  0  0  0
   30.3954    3.2218   -9.9499 O   0  0  0  0  0  0  0  0  0  0  0  0
   35.4635    3.1778   -6.3286 C   0  0  0  0  0  0  0  0  0  0  0  0
   37.7678    3.4525   -5.8676 O   0  0  0  0  0  0  0  0  0  0  0  0
  1  2  1  0
  2  3  1  0
  3  4  1  0
  4  5  1  0
  5  6  1  0
  5  7  2  0
  6  8  2  0
  3  9  1  0
  9 10  1  0
  8 11  1  0
  8 12  1  0
 10 13  2  0
 12 14  1  0
 14 15  1  0
 10 16  1  0
  2 17  2  0
 16 18  1  0
  7 19  1  0
 11 19  2  0
 11 20  1  0
 15 20  1  0
M  END
>  <ID>  (1) 
conformer_0

$$$$
