
     RDKit          3D

 18 18  0  0  0  0  0  0  0  0999 V2000
   34.7981    4.3788   -7.2747 C   0  0  0  0  0  0  0  0  0  0  0  0
   33.9789    4.0843   -6.3100 C   0  0  0  0  0  0  0  0  0  0  0  0
   34.3258    3.9297   -5.0220 C   0  0  0  0  0  0  0  0  0  0  0  0
   36.1474    4.6519   -6.9951 C   0  0  0  0  0  0  0  0  0  0  0  0
   35.6913    4.0680   -4.6497 C   0  0  0  0  0  0  0  0  0  0  0  0
   32.5580    3.9642   -6.6963 C   0  0  0  0  0  0  0  0  0  0  0  0
   36.6031    4.4448   -5.6254 C   0  0  0  0  0  0  0  0  0  0  0  0
   37.9884    4.5600   -5.3237 O   0  0  0  0  0  0  0  0  0  0  0  0
   32.0760    2.6081   -6.7479 C   0  0  0  0  0  0  0  0  0  0  0  0
   38.3326    4.8106   -3.9724 C   0  0  0  0  0  0  0  0  0  0  0  0
   31.4615    2.0076   -5.8981 N   0  0  0  0  0  0  0  0  0  0  0  0
   30.7675    2.8459   -4.9139 C   0  0  0  0  0  0  0  0  0  0  0  0
   32.2227    2.0439   -7.9316 O   0  0  0  0  0  0  0  0  0  0  0  0
   30.3283    1.9605   -3.7824 C   0  0  0  0  0  0  0  0  0  0  0  0
   31.1486    3.9604   -4.6758 O   0  0  0  0  0  0  0  0  0  0  0  0
   32.3613    4.8212   -7.9801 C   0  0  0  0  0  0  0  0  0  0  0  0
   30.8091    4.9434   -8.2987 C   0  0  0  0  0  0  0  0  0  0  0  0
   30.3995    3.8956   -9.2472 N   0  0  0  0  0  0  0  0  0  0  0  0
  1  2  2  0
  2  3  1  0
  1  4  1  0
  3  5  2  0
  2  6  1  0
  4  7  2  0
  5  7  1  0
  7  8  1  0
  6  9  1  0
  8 10  1  0
  9 11  1  0
 11 12  1  0
  9 13  2  0
 12 14  1  0
 12 15  2  0
  6 16  1  0
 16 17  1  0
 17 18  1  0
M  END
>  <ID>  (1) 
conformer_0

$$$$
