
     RDKit          3D

 18 19  0  0  0  0  0  0  0  0999 V2000
   38.6104    3.1224   -4.9063 C   0  0  0  0  0  0  0  0  0  0  0  0
   37.5385    3.0217   -5.6506 C   0  0  0  0  0  0  0  0  0  0  0  0
   36.6036    4.0913   -5.5302 C   0  0  0  0  0  0  0  0  0  0  0  0
   35.4231    4.0773   -6.3824 C   0  0  0  0  0  0  0  0  0  0  0  0
   34.3683    3.8791   -6.0763 C   0  0  0  0  0  0  0  0  0  0  0  0
   33.8779    4.3246   -4.9279 C   0  0  0  0  0  0  0  0  0  0  0  0
   35.8848    3.8913   -7.6358 O   0  0  0  0  0  0  0  0  0  0  0  0
   33.2717    3.9378   -7.0017 C   0  0  0  0  0  0  0  0  0  0  0  0
   32.0214    3.8600   -6.6572 C   0  0  0  0  0  0  0  0  0  0  0  0
   36.7929    5.0550   -4.5922 C   0  0  0  0  0  0  0  0  0  0  0  0
   31.6327    4.0437   -5.3965 C   0  0  0  0  0  0  0  0  0  0  0  0
   31.0499    3.5926   -7.7330 C   0  0  0  0  0  0  0  0  0  0  0  0
   31.2428    2.7857   -8.5886 O   0  0  0  0  0  0  0  0  0  0  0  0
   30.2315    4.0334   -4.9690 O   0  0  0  0  0  0  0  0  0  0  0  0
   37.9568    5.0809   -3.8050 C   0  0  0  0  0  0  0  0  0  0  0  0
   38.9065    4.0961   -3.9107 C   0  0  0  0  0  0  0  0  0  0  0  0
   29.9141    4.1564   -7.7919 O   0  0  0  0  0  0  0  0  0  0  0  0
   32.5854    4.2649   -4.3950 C   0  0  0  0  0  0  0  0  0  0  0  0
  1  2  1  0
  2  3  2  0
  3  4  1  0
  4  5  1  0
  5  6  1  0
  4  7  2  0
  5  8  2  0
  8  9  1  0
  3 10  1  0
  9 11  2  0
  9 12  1  0
 12 13  1  0
 11 14  1  0
 10 15  2  0
  1 16  2  0
 15 16  1  0
 12 17  2  0
  6 18  2  0
 11 18  1  0
M  END
>  <ID>  (1) 
conformer_0

$$$$
