
     RDKit          3D

  6  6  0  0  0  0  0  0  0  0999 V2000
   39.4003    3.1619   -4.0733 C   0  0  0  0  0  0  0  0  0  0  0  0
   38.5992    2.7232   -5.0513 C   0  0  0  0  0  0  0  0  0  0  0  0
   37.5728    3.4313   -5.4753 C   0  0  0  0  0  0  0  0  0  0  0  0
   37.2721    4.6414   -4.8036 C   0  0  0  0  0  0  0  0  0  0  0  0
   38.1133    5.0664   -3.8579 C   0  0  0  0  0  0  0  0  0  0  0  0
   39.1840    4.3194   -3.4783 C   0  0  0  0  0  0  0  0  0  0  0  0
  1  2  1  0
  2  3  2  0
  3  4  1  0
  4  5  2  0
  1  6  2  0
  5  6  1  0
M  END
>  <ID>  (1) 
conformer_0

$$$$
