
     RDKit          3D

 19 21  0  0  0  0  0  0  0  0999 V2000
   33.3881    4.9085   -7.1218 C   0  0  0  0  0  0  0  0  0  0  0  0
   34.3781    4.4577   -6.5395 C   0  0  0  0  0  0  0  0  0  0  0  0
   32.1274    4.3283   -6.5696 C   0  0  0  0  0  0  0  0  0  0  0  0
   34.5966    4.3510   -5.2390 C   0  0  0  0  0  0  0  0  0  0  0  0
   33.5210    4.2405   -4.5032 C   0  0  0  0  0  0  0  0  0  0  0  0
   30.9243    4.7080   -7.0404 C   0  0  0  0  0  0  0  0  0  0  0  0
   32.2129    4.4942   -4.9898 C   0  0  0  0  0  0  0  0  0  0  0  0
   35.9657    4.4227   -4.7259 C   0  0  0  0  0  0  0  0  0  0  0  0
   32.1709    2.7318   -6.7255 C   0  0  0  0  0  0  0  0  0  0  0  0
   30.3708    4.0710   -8.1391 N   0  0  0  0  0  0  0  0  0  0  0  0
   36.4303    4.4086   -3.4272 O   0  0  0  0  0  0  0  0  0  0  0  0
   35.7986    4.4878   -7.1361 C   0  0  0  0  0  0  0  0  0  0  0  0
   31.1686    3.7315   -4.2797 C   0  0  0  0  0  0  0  0  0  0  0  0
   36.9053    4.3121   -5.9183 C   0  0  0  0  0  0  0  0  0  0  0  0
   30.9838    3.2335   -9.0020 C   0  0  0  0  0  0  0  0  0  0  0  0
   32.2396    1.9736   -5.7979 O   0  0  0  0  0  0  0  0  0  0  0  0
   37.9055    3.6021   -5.8183 O   0  0  0  0  0  0  0  0  0  0  0  0
   31.7506    2.2806   -8.0044 C   0  0  0  0  0  0  0  0  0  0  0  0
   30.7312    2.8815  -10.0137 O   0  0  0  0  0  0  0  0  0  0  0  0
  1  2  1  0
  1  3  1  0
  2  4  1  0
  4  5  1  0
  3  6  1  0
  3  7  1  0
  5  7  1  0
  4  8  2  0
  3  9  1  0
  6 10  1  0
  8 11  1  0
  2 12  2  0
  7 13  1  0
  8 14  1  0
 12 14  1  0
 10 15  1  0
  9 16  2  0
 14 17  1  0
  9 18  1  0
 15 18  1  0
 15 19  2  0
M  END
>  <ID>  (1) 
conformer_0

$$$$
