
     RDKit          3D

 18 19  0  0  0  0  0  0  0  0999 V2000
   37.7620    3.4630   -5.5357 C   0  0  0  0  0  0  0  0  0  0  0  0
   36.6492    4.2077   -5.5573 C   0  0  0  0  0  0  0  0  0  0  0  0
   35.6656    4.0294   -6.6281 C   0  0  0  0  0  0  0  0  0  0  0  0
   36.4672    5.2546   -4.6503 C   0  0  0  0  0  0  0  0  0  0  0  0
   34.5007    3.7515   -6.4566 N   0  0  0  0  0  0  0  0  0  0  0  0
   37.4566    5.3390   -3.6515 C   0  0  0  0  0  0  0  0  0  0  0  0
   33.9173    3.1669   -5.4279 C   0  0  0  0  0  0  0  0  0  0  0  0
   33.6729    4.1045   -7.5623 C   0  0  0  0  0  0  0  0  0  0  0  0
   32.5330    2.9371   -5.3892 C   0  0  0  0  0  0  0  0  0  0  0  0
   31.9031    2.2357   -4.2180 C   0  0  0  0  0  0  0  0  0  0  0  0
   38.7619    3.5298   -4.5573 C   0  0  0  0  0  0  0  0  0  0  0  0
   31.6998    3.3380   -6.4326 C   0  0  0  0  0  0  0  0  0  0  0  0
   39.7879    2.6659   -4.4660 F   0  0  0  0  0  0  0  0  0  0  0  0
   31.2188    1.1532   -4.4058 O   0  0  0  0  0  0  0  0  0  0  0  0
   32.2622    3.9405   -7.6131 C   0  0  0  0  0  0  0  0  0  0  0  0
   31.5168    5.2335   -7.7738 O   0  0  0  0  0  0  0  0  0  0  0  0
   30.5493    4.0550   -5.8947 O   0  0  0  0  0  0  0  0  0  0  0  0
   38.5824    4.5372   -3.5875 C   0  0  0  0  0  0  0  0  0  0  0  0
  1  2  2  0
  2  3  1  0
  2  4  1  0
  3  5  1  0
  4  6  2  0
  5  7  1  0
  5  8  1  0
  7  9  2  0
  9 10  1  0
  1 11  1  0
  9 12  1  0
 11 13  1  0
 10 14  1  0
  8 15  1  0
 12 15  1  0
 15 16  1  0
 12 17  1  0
  6 18  1  0
 11 18  2  0
M  END
>  <ID>  (1) 
conformer_0

$$$$
