
     RDKit          3D

 18 19  0  0  0  0  0  0  0  0999 V2000
   35.5132    3.8236   -7.0809 C   0  0  0  0  0  0  0  0  0  0  0  0
   36.3963    4.0089   -6.1448 C   0  0  0  0  0  0  0  0  0  0  0  0
   34.2234    3.7779   -6.8922 C   0  0  0  0  0  0  0  0  0  0  0  0
   33.2162    3.5969   -7.9483 N   0  0  0  0  0  0  0  0  0  0  0  0
   33.6664    4.0593   -5.6453 C   0  0  0  0  0  0  0  0  0  0  0  0
   32.0676    3.5895   -7.3440 C   0  0  0  0  0  0  0  0  0  0  0  0
   37.8639    4.0615   -6.2249 O   0  0  0  0  0  0  0  0  0  0  0  0
   38.4545    3.3912   -5.1869 C   0  0  0  0  0  0  0  0  0  0  0  0
   32.1923    3.9193   -5.9280 N   0  0  0  0  0  0  0  0  0  0  0  0
   30.7475    3.3306   -7.8616 C   0  0  0  0  0  0  0  0  0  0  0  0
   38.6705    2.1845   -5.1569 O   0  0  0  0  0  0  0  0  0  0  0  0
   35.7846    4.2651   -4.8037 C   0  0  0  0  0  0  0  0  0  0  0  0
   30.1766    4.1877   -8.6315 N   0  0  0  0  0  0  0  0  0  0  0  0
   29.9962    2.6341   -6.9968 O   0  0  0  0  0  0  0  0  0  0  0  0
   31.2546    4.6233   -5.1408 C   0  0  0  0  0  0  0  0  0  0  0  0
   34.4245    4.3270   -4.4993 C   0  0  0  0  0  0  0  0  0  0  0  0
   29.5557    3.5134   -9.8656 C   0  0  0  0  0  0  0  0  0  0  0  0
   38.7496    4.1349   -3.8493 C   0  0  0  0  0  0  0  0  0  0  0  0
  1  2  2  0
  1  3  1  0
  3  4  1  0
  3  5  2  0
  4  6  2  0
  2  7  1  0
  7  8  1  0
  5  9  1  0
  6  9  1  0
  6 10  1  0
  8 11  2  0
  2 12  1  0
 10 13  1  0
 10 14  2  0
  9 15  1  0
  5 16  1  0
 12 16  2  0
 13 17  1  0
  8 18  1  0
M  END
>  <ID>  (1) 
conformer_0

$$$$
