
     RDKit          3D

 20 22  0  0  0  0  0  0  0  0999 V2000
   35.7334    3.5440   -6.8076 C   0  0  0  0  0  0  0  0  0  0  0  0
   36.6014    3.8173   -5.9030 C   0  0  0  0  0  0  0  0  0  0  0  0
   34.5041    4.1760   -6.8123 C   0  0  0  0  0  0  0  0  0  0  0  0
   33.9977    4.7634   -5.7134 C   0  0  0  0  0  0  0  0  0  0  0  0
   32.6118    5.2854   -5.6817 C   0  0  0  0  0  0  0  0  0  0  0  0
   37.9829    3.4277   -5.8051 O   0  0  0  0  0  0  0  0  0  0  0  0
   38.4163    3.2570   -4.4241 C   0  0  0  0  0  0  0  0  0  0  0  0
   36.3107    4.7077   -4.7132 C   0  0  0  0  0  0  0  0  0  0  0  0
   31.6206    4.3401   -5.5140 C   0  0  0  0  0  0  0  0  0  0  0  0
   31.8457    2.9556   -5.9260 C   0  0  0  0  0  0  0  0  0  0  0  0
   31.0788    2.5895   -7.0198 C   0  0  0  0  0  0  0  0  0  0  0  0
   30.4291    4.7788   -6.3837 O   0  0  0  0  0  0  0  0  0  0  0  0
   30.3298    3.7518   -7.3061 C   0  0  0  0  0  0  0  0  0  0  0  0
   30.6802    4.2454   -8.7519 C   0  0  0  0  0  0  0  0  0  0  0  0
   29.9940    3.5421   -9.7875 O   0  0  0  0  0  0  0  0  0  0  0  0
   31.8405    2.1191   -8.0805 O   0  0  0  0  0  0  0  0  0  0  0  0
   37.2597    4.8897   -3.7147 O   0  0  0  0  0  0  0  0  0  0  0  0
   38.5931    4.7976   -4.0654 C   0  0  0  0  0  0  0  0  0  0  0  0
   31.7896    2.0201   -4.7878 O   0  0  0  0  0  0  0  0  0  0  0  0
   34.8894    5.0627   -4.5599 C   0  0  0  0  0  0  0  0  0  0  0  0
  1  2  2  0
  1  3  1  0
  3  4  2  0
  4  5  1  0
  2  6  1  0
  6  7  1  0
  2  8  1  0
  5  9  1  0
  9 10  1  0
 10 11  1  0
  9 12  1  0
 11 13  1  0
 12 13  1  0
 13 14  1  0
 14 15  1  0
 11 16  1  0
  8 17  1  0
  7 18  1  0
 17 18  1  0
 10 19  1  0
  4 20  1  0
  8 20  2  0
M  END
>  <ID>  (1) 
conformer_0

$$$$
