
     RDKit          3D

 21 23  0  0  0  0  0  0  0  0999 V2000
   37.7620    3.4630   -5.5357 C   0  0  0  0  0  0  0  0  0  0  0  0
   36.6492    4.2077   -5.5573 C   0  0  0  0  0  0  0  0  0  0  0  0
   35.6656    4.0294   -6.6281 C   0  0  0  0  0  0  0  0  0  0  0  0
   36.4672    5.2546   -4.6503 C   0  0  0  0  0  0  0  0  0  0  0  0
   34.5007    3.7515   -6.4566 N   0  0  0  0  0  0  0  0  0  0  0  0
   37.4566    5.3390   -3.6515 C   0  0  0  0  0  0  0  0  0  0  0  0
   33.9173    3.1669   -5.4279 C   0  0  0  0  0  0  0  0  0  0  0  0
   33.6729    4.1045   -7.5623 C   0  0  0  0  0  0  0  0  0  0  0  0
   32.5330    2.9371   -5.3892 C   0  0  0  0  0  0  0  0  0  0  0  0
   31.9031    2.2357   -4.2180 C   0  0  0  0  0  0  0  0  0  0  0  0
   38.7619    3.5298   -4.5573 C   0  0  0  0  0  0  0  0  0  0  0  0
   31.6998    3.3380   -6.4326 C   0  0  0  0  0  0  0  0  0  0  0  0
   39.7879    2.6659   -4.4660 F   0  0  0  0  0  0  0  0  0  0  0  0
   38.5776    4.5286   -3.5883 C   0  0  0  0  0  0  0  0  0  0  0  0
   30.3516    2.9462   -6.5301 N   0  0  0  0  0  0  0  0  0  0  0  0
   32.2753    3.8897   -7.6004 C   0  0  0  0  0  0  0  0  0  0  0  0
   36.2652    4.2017   -7.7234 O   0  0  0  0  0  0  0  0  0  0  0  0
   29.9221    3.1668   -7.7500 C   0  0  0  0  0  0  0  0  0  0  0  0
   31.2725    4.1044   -8.6138 C   0  0  0  0  0  0  0  0  0  0  0  0
   31.2925    3.4185   -9.8569 O   0  0  0  0  0  0  0  0  0  0  0  0
   28.9153    2.9197   -8.4029 O   0  0  0  0  0  0  0  0  0  0  0  0
  1  2  2  0
  2  3  1  0
  2  4  1  0
  3  5  1  0
  4  6  2  0
  5  7  1  0
  5  8  1  0
  7  9  2  0
  9 10  1  0
  1 11  1  0
  9 12  1  0
 11 13  1  0
  6 14  1  0
 11 14  2  0
 12 15  1  0
  8 16  1  0
 12 16  2  0
  3 17  2  0
 15 18  1  0
 16 19  1  0
 18 19  1  0
 19 20  1  0
 18 21  2  0
M  END
>  <ID>  (1) 
conformer_0

$$$$
