
     RDKit          3D

 20 22  0  0  0  0  0  0  0  0999 V2000
   36.9365    3.6002   -6.4698 C   0  0  0  0  0  0  0  0  0  0  0  0
   35.7437    3.9894   -6.8044 C   0  0  0  0  0  0  0  0  0  0  0  0
   34.7616    4.1850   -6.0719 C   0  0  0  0  0  0  0  0  0  0  0  0
   33.4401    4.4876   -6.6427 C   0  0  0  0  0  0  0  0  0  0  0  0
   32.5741    5.3383   -6.0736 C   0  0  0  0  0  0  0  0  0  0  0  0
   34.9688    4.2955   -4.7550 C   0  0  0  0  0  0  0  0  0  0  0  0
   32.0718    5.0111   -4.7829 C   0  0  0  0  0  0  0  0  0  0  0  0
   32.6989    3.9220   -4.1868 C   0  0  0  0  0  0  0  0  0  0  0  0
   31.7887    2.7757   -4.2561 C   0  0  0  0  0  0  0  0  0  0  0  0
   36.1721    4.0819   -4.1774 C   0  0  0  0  0  0  0  0  0  0  0  0
   37.2857    3.8062   -5.0350 C   0  0  0  0  0  0  0  0  0  0  0  0
   32.9834    3.6056   -7.5750 N   0  0  0  0  0  0  0  0  0  0  0  0
   38.7245    3.6431   -4.4386 C   0  0  0  0  0  0  0  0  0  0  0  0
   31.8495    4.0818   -8.1651 C   0  0  0  0  0  0  0  0  0  0  0  0
   31.1175    4.9309   -7.4023 C   0  0  0  0  0  0  0  0  0  0  0  0
   31.2197    3.2192   -9.1469 O   0  0  0  0  0  0  0  0  0  0  0  0
   33.8564    4.7340   -3.8966 C   0  0  0  0  0  0  0  0  0  0  0  0
   31.5205    5.5842   -6.4960 C   0  0  0  0  0  0  0  0  0  0  0  0
   29.9964    3.5683   -9.6401 N   0  0  0  0  0  0  0  0  0  0  0  0
   39.1008    4.4155   -3.6131 C   0  0  0  0  0  0  0  0  0  0  0  0
  1  2  2  0
  2  3  1  0
  3  4  1  0
  4  5  1  0
  3  6  2  0
  5  7  1  0
  7  8  1  0
  8  9  1  0
  6 10  1  0
  1 11  1  0
 10 11  2  0
  4 12  2  0
 11 13  1  0
 12 14  1  0
 14 15  2  0
 14 16  1  0
  6 17  1  0
  8 17  1  0
  5 18  1  0
 15 18  1  0
 16 19  1  0
 13 20  1  0
M  END
>  <ID>  (1) 
conformer_0

$$$$
