
     RDKit          3D

 21 23  0  0  0  0  0  0  0  0999 V2000
   33.3881    4.9085   -7.1218 C   0  0  0  0  0  0  0  0  0  0  0  0
   34.3781    4.4577   -6.5395 C   0  0  0  0  0  0  0  0  0  0  0  0
   32.1082    4.4683   -6.5817 C   0  0  0  0  0  0  0  0  0  0  0  0
   34.4666    3.7903   -5.4669 C   0  0  0  0  0  0  0  0  0  0  0  0
   35.7800    4.6699   -7.2643 C   0  0  0  0  0  0  0  0  0  0  0  0
   30.8712    4.9049   -7.3275 C   0  0  0  0  0  0  0  0  0  0  0  0
   32.0462    3.8164   -5.4129 C   0  0  0  0  0  0  0  0  0  0  0  0
   30.6655    4.0358   -8.4897 N   0  0  0  0  0  0  0  0  0  0  0  0
   36.9003    4.0996   -6.6533 C   0  0  0  0  0  0  0  0  0  0  0  0
   29.6517    3.5180   -8.8196 C   0  0  0  0  0  0  0  0  0  0  0  0
   35.7511    3.5299   -4.8045 O   0  0  0  0  0  0  0  0  0  0  0  0
   36.8898    3.8236   -5.3823 C   0  0  0  0  0  0  0  0  0  0  0  0
   33.2889    3.4643   -4.7242 C   0  0  0  0  0  0  0  0  0  0  0  0
   37.6726    4.7443   -4.5714 C   0  0  0  0  0  0  0  0  0  0  0  0
   30.8570    3.4411   -4.7511 C   0  0  0  0  0  0  0  0  0  0  0  0
   37.7593    2.6069   -5.0889 C   0  0  0  0  0  0  0  0  0  0  0  0
   28.6205    3.5531   -8.3090 O   0  0  0  0  0  0  0  0  0  0  0  0
   29.6770    2.6710  -10.0918 C   0  0  0  0  0  0  0  0  0  0  0  0
   38.7699    4.0972   -3.9482 C   0  0  0  0  0  0  0  0  0  0  0  0
   38.8361    2.8518   -4.3160 N   0  0  0  0  0  0  0  0  0  0  0  0
   37.5350    1.4941   -5.7090 O   0  0  0  0  0  0  0  0  0  0  0  0
  1  2  2  0
  1  3  1  0
  2  4  1  0
  2  5  1  0
  3  6  1  0
  3  7  2  0
  6  8  1  0
  5  9  2  0
  8 10  1  0
  4 11  1  0
  9 12  1  0
 11 12  1  0
  4 13  2  0
  7 13  1  0
 12 14  1  0
  7 15  1  0
 12 16  1  0
 10 17  2  0
 10 18  1  0
 14 19  2  0
 16 20  1  0
 19 20  1  0
 16 21  2  0
M  END
>  <ID>  (1) 
conformer_0

$$$$
