
     RDKit          3D

 17 18  0  0  0  0  0  0  0  0999 V2000
   36.9365    3.6002   -6.4698 C   0  0  0  0  0  0  0  0  0  0  0  0
   35.7437    3.9894   -6.8044 C   0  0  0  0  0  0  0  0  0  0  0  0
   34.7616    4.1850   -6.0719 C   0  0  0  0  0  0  0  0  0  0  0  0
   33.4401    4.4876   -6.6427 C   0  0  0  0  0  0  0  0  0  0  0  0
   32.5741    5.3383   -6.0736 C   0  0  0  0  0  0  0  0  0  0  0  0
   34.9688    4.2955   -4.7550 C   0  0  0  0  0  0  0  0  0  0  0  0
   32.0718    5.0111   -4.7829 C   0  0  0  0  0  0  0  0  0  0  0  0
   32.6989    3.9220   -4.1868 C   0  0  0  0  0  0  0  0  0  0  0  0
   31.7887    2.7757   -4.2561 C   0  0  0  0  0  0  0  0  0  0  0  0
   36.1721    4.0819   -4.1774 C   0  0  0  0  0  0  0  0  0  0  0  0
   37.2857    3.8062   -5.0350 C   0  0  0  0  0  0  0  0  0  0  0  0
   38.5743    3.6239   -4.5285 C   0  0  0  0  0  0  0  0  0  0  0  0
   30.6070    2.9165   -4.0831 O   0  0  0  0  0  0  0  0  0  0  0  0
   33.7144    4.3836   -8.0329 O   0  0  0  0  0  0  0  0  0  0  0  0
   39.0455    4.3255   -3.6100 C   0  0  0  0  0  0  0  0  0  0  0  0
   32.2580    1.6227   -4.3875 O   0  0  0  0  0  0  0  0  0  0  0  0
   33.8384    4.5868   -3.8643 C   0  0  0  0  0  0  0  0  0  0  0  0
  1  2  2  0
  2  3  1  0
  3  4  1  0
  4  5  1  0
  3  6  2  0
  5  7  1  0
  7  8  1  0
  8  9  1  0
  6 10  1  0
  1 11  1  0
 10 11  2  0
 11 12  1  0
  9 13  2  0
  4 14  1  0
 12 15  2  0
  9 16  1  0
  6 17  1  0
  8 17  1  0
M  END
>  <ID>  (1) 
conformer_0

$$$$
