
     RDKit          3D

 18 19  0  0  0  0  0  0  0  0999 V2000
   38.6104    3.1224   -4.9063 C   0  0  0  0  0  0  0  0  0  0  0  0
   37.5385    3.0217   -5.6506 C   0  0  0  0  0  0  0  0  0  0  0  0
   36.6036    4.0913   -5.5302 C   0  0  0  0  0  0  0  0  0  0  0  0
   35.4231    4.0773   -6.3824 C   0  0  0  0  0  0  0  0  0  0  0  0
   34.3683    3.8791   -6.0763 C   0  0  0  0  0  0  0  0  0  0  0  0
   33.8779    4.3246   -4.9279 C   0  0  0  0  0  0  0  0  0  0  0  0
   35.8848    3.8913   -7.6358 O   0  0  0  0  0  0  0  0  0  0  0  0
   33.2717    3.9378   -7.0017 C   0  0  0  0  0  0  0  0  0  0  0  0
   32.0214    3.8600   -6.6572 C   0  0  0  0  0  0  0  0  0  0  0  0
   30.9870    3.5648   -7.7648 C   0  0  0  0  0  0  0  0  0  0  0  0
   31.2971    2.8101   -8.6279 O   0  0  0  0  0  0  0  0  0  0  0  0
   38.7325    4.0851   -3.9407 C   0  0  0  0  0  0  0  0  0  0  0  0
   31.6588    4.0786   -5.4015 C   0  0  0  0  0  0  0  0  0  0  0  0
   30.2228    4.0613   -4.9669 O   0  0  0  0  0  0  0  0  0  0  0  0
   30.4397    4.7339   -8.2762 N   0  0  0  0  0  0  0  0  0  0  0  0
   36.8543    5.1958   -4.5482 C   0  0  0  0  0  0  0  0  0  0  0  0
   32.5944    4.2566   -4.4242 C   0  0  0  0  0  0  0  0  0  0  0  0
   37.9536    5.1150   -3.7964 C   0  0  0  0  0  0  0  0  0  0  0  0
  1  2  1  0
  2  3  2  0
  3  4  1  0
  4  5  1  0
  5  6  1  0
  4  7  2  0
  5  8  2  0
  8  9  1  0
  9 10  1  0
 10 11  1  0
  1 12  2  0
  9 13  2  0
 13 14  1  0
 10 15  1  0
  3 16  1  0
  6 17  2  0
 13 17  1  0
 12 18  1  0
 16 18  2  0
M  END
>  <ID>  (1) 
conformer_0

$$$$
