
     RDKit          3D

 17 19  0  0  0  0  0  0  0  0999 V2000
   35.5132    3.8236   -7.0809 C   0  0  0  0  0  0  0  0  0  0  0  0
   36.3963    4.0089   -6.1448 C   0  0  0  0  0  0  0  0  0  0  0  0
   34.2234    3.7779   -6.8922 C   0  0  0  0  0  0  0  0  0  0  0  0
   33.2162    3.5969   -7.9483 N   0  0  0  0  0  0  0  0  0  0  0  0
   31.8811    3.5619   -7.7046 C   0  0  0  0  0  0  0  0  0  0  0  0
   31.4748    2.5438   -6.9467 N   0  0  0  0  0  0  0  0  0  0  0  0
   30.9681    4.3040   -8.3131 N   0  0  0  0  0  0  0  0  0  0  0  0
   32.1296    1.6953   -6.1316 O   0  0  0  0  0  0  0  0  0  0  0  0
   29.7233    3.8841   -7.9535 N   0  0  0  0  0  0  0  0  0  0  0  0
   37.8926    4.0485   -6.3866 O   0  0  0  0  0  0  0  0  0  0  0  0
   33.7627    4.0139   -5.5038 C   0  0  0  0  0  0  0  0  0  0  0  0
   34.7285    4.2381   -4.5463 C   0  0  0  0  0  0  0  0  0  0  0  0
   34.2809    4.4397   -3.1009 F   0  0  0  0  0  0  0  0  0  0  0  0
   36.0688    4.2762   -4.8275 C   0  0  0  0  0  0  0  0  0  0  0  0
   29.9383    2.6027   -7.0725 C   0  0  0  0  0  0  0  0  0  0  0  0
   38.4340    3.7100   -5.2220 C   0  0  0  0  0  0  0  0  0  0  0  0
   37.1537    4.4361   -3.9599 O   0  0  0  0  0  0  0  0  0  0  0  0
  1  2  2  0
  1  3  1  0
  3  4  1  0
  4  5  1  0
  5  6  1  0
  5  7  2  0
  6  8  1  0
  7  9  1  0
  2 10  1  0
  3 11  2  0
 11 12  1  0
 12 13  1  0
  2 14  1  0
 12 14  2  0
  6 15  1  0
  9 15  2  0
 10 16  1  0
 14 17  1  0
 16 17  1  0
M  END
>  <ID>  (1) 
conformer_0

$$$$
