
     RDKit          3D

 20 20  0  0  0  0  0  0  0  0999 V2000
   35.5132    3.8236   -7.0809 C   0  0  0  0  0  0  0  0  0  0  0  0
   36.3963    4.0089   -6.1448 C   0  0  0  0  0  0  0  0  0  0  0  0
   34.2234    3.7779   -6.8922 C   0  0  0  0  0  0  0  0  0  0  0  0
   35.9218    4.3048   -4.8269 C   0  0  0  0  0  0  0  0  0  0  0  0
   33.2491    3.6074   -7.9515 N   0  0  0  0  0  0  0  0  0  0  0  0
   32.1514    2.8021   -7.7851 C   0  0  0  0  0  0  0  0  0  0  0  0
   30.9406    3.0995   -8.3333 C   0  0  0  0  0  0  0  0  0  0  0  0
   32.3713    1.6082   -7.3384 O   0  0  0  0  0  0  0  0  0  0  0  0
   30.5528    2.6795   -9.5914 N   0  0  0  0  0  0  0  0  0  0  0  0
   36.9363    4.6249   -3.7842 O   0  0  0  0  0  0  0  0  0  0  0  0
   33.7624    4.1915   -5.5876 C   0  0  0  0  0  0  0  0  0  0  0  0
   34.6680    4.4100   -4.5923 C   0  0  0  0  0  0  0  0  0  0  0  0
   32.1930    4.2419   -5.2612 C   0  0  0  0  0  0  0  0  0  0  0  0
   38.2112    5.0631   -4.1404 C   0  0  0  0  0  0  0  0  0  0  0  0
   31.6127    5.3449   -5.3230 C   0  0  0  0  0  0  0  0  0  0  0  0
   39.1253    3.8880   -4.2133 C   0  0  0  0  0  0  0  0  0  0  0  0
   29.7993    3.1059   -7.5060 N   0  0  0  0  0  0  0  0  0  0  0  0
   31.6897    3.1397   -4.5318 C   0  0  0  0  0  0  0  0  0  0  0  0
   29.6220    3.3297  -10.3380 O   0  0  0  0  0  0  0  0  0  0  0  0
   32.0132    6.4780   -6.2133 C   0  0  0  0  0  0  0  0  0  0  0  0
  1  2  2  0
  1  3  1  0
  2  4  1  0
  3  5  1  0
  5  6  1  0
  6  7  1  0
  6  8  2  0
  7  9  1  0
  4 10  1  0
  3 11  2  0
  4 12  2  0
 11 12  1  0
 11 13  1  0
 10 14  1  0
 13 15  2  3
 14 16  1  0
  7 17  1  0
 13 18  1  0
  9 19  1  0
 15 20  1  0
M  END
>  <ID>  (1) 
conformer_0

$$$$
