
     RDKit          3D

 20 21  0  0  0  0  0  0  0  0999 V2000
   34.5863    4.8764   -7.3269 C   0  0  0  0  0  0  0  0  0  0  0  0
   35.5816    4.4392   -6.4962 C   0  0  0  0  0  0  0  0  0  0  0  0
   33.4261    4.5906   -7.1553 C   0  0  0  0  0  0  0  0  0  0  0  0
   33.1435    3.7952   -5.9177 C   0  0  0  0  0  0  0  0  0  0  0  0
   35.3364    3.7393   -5.3653 C   0  0  0  0  0  0  0  0  0  0  0  0
   32.3273    4.8910   -7.9160 O   0  0  0  0  0  0  0  0  0  0  0  0
   31.0707    4.4437   -7.5531 C   0  0  0  0  0  0  0  0  0  0  0  0
   31.6275    3.3564   -5.6854 C   0  0  0  0  0  0  0  0  0  0  0  0
   36.4556    3.4261   -4.4586 O   0  0  0  0  0  0  0  0  0  0  0  0
   31.5128    2.2279   -4.9072 C   0  0  0  0  0  0  0  0  0  0  0  0
   31.8244    1.1895   -5.1587 O   0  0  0  0  0  0  0  0  0  0  0  0
   34.0533    3.4336   -5.0079 C   0  0  0  0  0  0  0  0  0  0  0  0
   30.2911    4.3994   -8.9373 C   0  0  0  0  0  0  0  0  0  0  0  0
   30.7109    2.4647   -3.7722 O   0  0  0  0  0  0  0  0  0  0  0  0
   37.7301    3.5659   -4.9418 C   0  0  0  0  0  0  0  0  0  0  0  0
   30.1938    3.0018   -9.3787 C   0  0  0  0  0  0  0  0  0  0  0  0
   30.8015    2.0898   -8.7346 O   0  0  0  0  0  0  0  0  0  0  0  0
   29.1942    2.6851  -10.0443 O   0  0  0  0  0  0  0  0  0  0  0  0
   30.9446    3.2105   -6.8221 N   0  0  0  0  0  0  0  0  0  0  0  0
   38.6844    3.7390   -3.7667 C   0  0  0  0  0  0  0  0  0  0  0  0
  1  2  1  0
  1  3  2  0
  3  4  1  0
  2  5  2  0
  3  6  1  0
  6  7  1  0
  4  8  1  0
  5  9  1  0
  8 10  1  0
 10 11  2  0
  4 12  2  0
  5 12  1  0
  7 13  1  0
 10 14  1  0
  9 15  1  0
 13 16  1  0
 16 17  1  0
 16 18  2  0
  7 19  1  0
  8 19  1  0
 15 20  1  0
M  END
>  <ID>  (1) 
conformer_0

$$$$
