
     RDKit          3D

 19 20  0  0  0  0  0  0  0  0999 V2000
   37.7620    3.4630   -5.5357 C   0  0  0  0  0  0  0  0  0  0  0  0
   36.6492    4.2077   -5.5573 C   0  0  0  0  0  0  0  0  0  0  0  0
   35.6656    4.0294   -6.6281 C   0  0  0  0  0  0  0  0  0  0  0  0
   36.4672    5.2546   -4.6503 C   0  0  0  0  0  0  0  0  0  0  0  0
   34.5007    3.7515   -6.4566 N   0  0  0  0  0  0  0  0  0  0  0  0
   37.4566    5.3390   -3.6515 C   0  0  0  0  0  0  0  0  0  0  0  0
   33.9173    3.1669   -5.4279 C   0  0  0  0  0  0  0  0  0  0  0  0
   33.6729    4.1045   -7.5623 C   0  0  0  0  0  0  0  0  0  0  0  0
   32.5330    2.9371   -5.3892 C   0  0  0  0  0  0  0  0  0  0  0  0
   31.9031    2.2357   -4.2180 C   0  0  0  0  0  0  0  0  0  0  0  0
   38.7619    3.5298   -4.5573 C   0  0  0  0  0  0  0  0  0  0  0  0
   31.6998    3.3380   -6.4326 C   0  0  0  0  0  0  0  0  0  0  0  0
   32.2811    3.9368   -7.5414 C   0  0  0  0  0  0  0  0  0  0  0  0
   31.6265    3.2815   -8.7034 O   0  0  0  0  0  0  0  0  0  0  0  0
   38.6374    4.5246   -3.5714 C   0  0  0  0  0  0  0  0  0  0  0  0
   34.2661    4.6364   -8.5069 O   0  0  0  0  0  0  0  0  0  0  0  0
   30.4877    2.0506   -4.2423 C   0  0  0  0  0  0  0  0  0  0  0  0
   29.6970    2.9620   -4.2835 O   0  0  0  0  0  0  0  0  0  0  0  0
   30.1241    0.8132   -3.8395 O   0  0  0  0  0  0  0  0  0  0  0  0
  1  2  2  0
  2  3  1  0
  2  4  1  0
  3  5  1  0
  4  6  2  0
  5  7  1  0
  5  8  1  0
  7  9  2  0
  9 10  1  0
  1 11  1  0
  9 12  1  0
  8 13  1  0
 12 13  1  0
 13 14  1  0
  6 15  1  0
 11 15  2  0
  8 16  2  0
 10 17  1  0
 17 18  2  0
 17 19  1  0
M  END
>  <ID>  (1) 
conformer_0

$$$$
