
     RDKit          3D

 14 14  0  0  0  0  0  0  0  0999 V2000
   35.0682    3.8508   -7.3739 O   0  0  0  0  0  0  0  0  0  0  0  0
   35.5460    4.1503   -6.3334 C   0  0  0  0  0  0  0  0  0  0  0  0
   34.7188    4.3731   -5.1750 C   0  0  0  0  0  0  0  0  0  0  0  0
   33.3716    4.2081   -5.3321 C   0  0  0  0  0  0  0  0  0  0  0  0
   32.7987    3.0591   -5.0978 C   0  0  0  0  0  0  0  0  0  0  0  0
   32.5240    5.3491   -5.5640 C   0  0  0  0  0  0  0  0  0  0  0  0
   31.5637    2.7226   -5.3868 C   0  0  0  0  0  0  0  0  0  0  0  0
   31.1102    5.1005   -5.9009 C   0  0  0  0  0  0  0  0  0  0  0  0
   37.0512    4.2749   -6.1792 C   0  0  0  0  0  0  0  0  0  0  0  0
   37.5680    3.7746   -4.8586 C   0  0  0  0  0  0  0  0  0  0  0  0
   37.9645    4.8180   -4.0032 C   0  0  0  0  0  0  0  0  0  0  0  0
   30.6917    3.7711   -5.7058 C   0  0  0  0  0  0  0  0  0  0  0  0
   31.0467    1.5278   -5.1393 O   0  0  0  0  0  0  0  0  0  0  0  0
   38.7378    2.8434   -4.9756 C   0  0  0  0  0  0  0  0  0  0  0  0
  1  2  2  0
  2  3  1  0
  3  4  1  0
  4  5  1  0
  4  6  2  0
  5  7  2  0
  6  8  1  0
  2  9  1  0
  9 10  1  0
 10 11  1  0
  7 12  1  0
  8 12  2  0
  7 13  1  0
 10 14  1  0
M  END
>  <ID>  (1) 
conformer_0

$$$$
