
     RDKit          3D

 18 19  0  0  0  0  0  0  0  0999 V2000
   34.7981    4.3788   -7.2747 C   0  0  0  0  0  0  0  0  0  0  0  0
   33.9789    4.0843   -6.3100 C   0  0  0  0  0  0  0  0  0  0  0  0
   34.3258    3.9297   -5.0220 C   0  0  0  0  0  0  0  0  0  0  0  0
   32.5220    4.0585   -6.7249 C   0  0  0  0  0  0  0  0  0  0  0  0
   33.3541    3.5622   -4.0223 C   0  0  0  0  0  0  0  0  0  0  0  0
   31.6221    3.8078   -5.5892 C   0  0  0  0  0  0  0  0  0  0  0  0
   31.9849    3.8157   -4.3932 C   0  0  0  0  0  0  0  0  0  0  0  0
   35.6149    4.1476   -4.5998 C   0  0  0  0  0  0  0  0  0  0  0  0
   36.0912    4.0671   -3.3506 F   0  0  0  0  0  0  0  0  0  0  0  0
   36.6106    4.4659   -5.6848 C   0  0  0  0  0  0  0  0  0  0  0  0
   32.3131    5.2686   -7.4701 C   0  0  0  0  0  0  0  0  0  0  0  0
   36.2242    4.5838   -7.0072 C   0  0  0  0  0  0  0  0  0  0  0  0
   30.6152    2.9100   -6.0641 C   0  0  0  0  0  0  0  0  0  0  0  0
   31.0753    5.7652   -7.0788 O   0  0  0  0  0  0  0  0  0  0  0  0
   31.2639    1.7707   -6.5255 O   0  0  0  0  0  0  0  0  0  0  0  0
   37.9224    4.6752   -5.2525 O   0  0  0  0  0  0  0  0  0  0  0  0
   38.5185    3.6231   -4.5506 C   0  0  0  0  0  0  0  0  0  0  0  0
   29.8169    2.5271   -5.0351 O   0  0  0  0  0  0  0  0  0  0  0  0
  1  2  2  0
  2  3  1  0
  2  4  1  0
  3  5  1  0
  4  6  1  0
  5  7  1  0
  6  7  1  0
  3  8  2  0
  8  9  1  0
  8 10  1  0
  4 11  1  0
  1 12  1  0
 10 12  2  0
  6 13  1  0
 11 14  1  0
 13 15  1  0
 10 16  1  0
 16 17  1  0
 13 18  1  0
M  END
>  <ID>  (1) 
conformer_0

$$$$
