
     RDKit          3D

 20 22  0  0  0  0  0  0  0  0999 V2000
   35.5132    3.8236   -7.0809 C   0  0  0  0  0  0  0  0  0  0  0  0
   36.3963    4.0089   -6.1448 C   0  0  0  0  0  0  0  0  0  0  0  0
   34.2234    3.7779   -6.8922 C   0  0  0  0  0  0  0  0  0  0  0  0
   33.2162    3.5969   -7.9483 O   0  0  0  0  0  0  0  0  0  0  0  0
   33.6663    4.0711   -5.6379 C   0  0  0  0  0  0  0  0  0  0  0  0
   31.9173    3.7230   -7.5755 C   0  0  0  0  0  0  0  0  0  0  0  0
   31.5893    4.1384   -6.4791 C   0  0  0  0  0  0  0  0  0  0  0  0
   32.2823    4.3601   -5.4006 C   0  0  0  0  0  0  0  0  0  0  0  0
   37.8424    4.0137   -6.3402 O   0  0  0  0  0  0  0  0  0  0  0  0
   34.7060    4.3241   -4.6074 C   0  0  0  0  0  0  0  0  0  0  0  0
   35.9923    4.2965   -4.7790 C   0  0  0  0  0  0  0  0  0  0  0  0
   31.8471    3.5183   -4.2122 C   0  0  0  0  0  0  0  0  0  0  0  0
   31.1477    2.2738   -4.5803 C   0  0  0  0  0  0  0  0  0  0  0  0
   31.0972    3.4476   -8.7856 C   0  0  0  0  0  0  0  0  0  0  0  0
   37.0641    4.6039   -3.8956 O   0  0  0  0  0  0  0  0  0  0  0  0
   38.2905    4.5452   -4.3793 C   0  0  0  0  0  0  0  0  0  0  0  0
   38.5016    3.5581   -5.3301 C   0  0  0  0  0  0  0  0  0  0  0  0
   29.9439    3.9971   -8.8472 N   0  0  0  0  0  0  0  0  0  0  0  0
   31.1932    2.2548   -9.3014 O   0  0  0  0  0  0  0  0  0  0  0  0
   29.0267    3.5637   -9.9072 C   0  0  0  0  0  0  0  0  0  0  0  0
  1  2  2  0
  1  3  1  0
  3  4  1  0
  3  5  2  0
  4  6  1  0
  6  7  2  0
  5  8  1  0
  7  8  1  0
  2  9  1  0
  5 10  1  0
  2 11  1  0
 10 11  2  0
  8 12  1  0
 12 13  1  0
  6 14  1  0
 11 15  1  0
 15 16  1  0
  9 17  1  0
 16 17  1  0
 14 18  1  0
 14 19  2  0
 18 20  1  0
M  END
>  <ID>  (1) 
conformer_0

$$$$
