
     RDKit          3D

 20 22  0  0  0  0  0  0  0  0999 V2000
   34.3580    4.0237   -7.4653 C   0  0  0  0  0  0  0  0  0  0  0  0
   33.4392    3.8567   -6.5752 C   0  0  0  0  0  0  0  0  0  0  0  0
   33.5986    3.7927   -5.3067 C   0  0  0  0  0  0  0  0  0  0  0  0
   32.4639    3.4955   -4.3500 C   0  0  0  0  0  0  0  0  0  0  0  0
   35.6580    4.3293   -6.9839 C   0  0  0  0  0  0  0  0  0  0  0  0
   31.7347    2.3551   -4.8422 C   0  0  0  0  0  0  0  0  0  0  0  0
   34.8203    4.0769   -4.7169 C   0  0  0  0  0  0  0  0  0  0  0  0
   35.1556    4.1287   -3.3903 F   0  0  0  0  0  0  0  0  0  0  0  0
   35.9180    4.3525   -5.6215 C   0  0  0  0  0  0  0  0  0  0  0  0
   32.0809    3.6802   -7.1335 C   0  0  0  0  0  0  0  0  0  0  0  0
   31.1351    2.9556   -6.2472 C   0  0  0  0  0  0  0  0  0  0  0  0
   37.3710    4.5517   -5.0374 C   0  0  0  0  0  0  0  0  0  0  0  0
   30.5117    2.1603   -4.0314 C   0  0  0  0  0  0  0  0  0  0  0  0
   31.4217    4.8806   -7.5459 C   0  0  0  0  0  0  0  0  0  0  0  0
   37.6950    5.6962   -4.5942 C   0  0  0  0  0  0  0  0  0  0  0  0
   32.2256    2.6818   -8.2553 O   0  0  0  0  0  0  0  0  0  0  0  0
   38.2244    3.4183   -4.9755 C   0  0  0  0  0  0  0  0  0  0  0  0
   39.3879    3.9126   -4.1928 C   0  0  0  0  0  0  0  0  0  0  0  0
   39.1329    5.4522   -3.8587 S   0  0  0  0  0  0  0  0  0  0  0  0
   30.2983    4.7952   -8.3327 O   0  0  0  0  0  0  0  0  0  0  0  0
  1  2  2  0
  2  3  1  0
  3  4  1  0
  1  5  1  0
  4  6  1  0
  3  7  2  0
  7  8  1  0
  5  9  2  0
  7  9  1  0
  2 10  1  0
  6 11  1  0
 10 11  1  0
  9 12  1  0
  6 13  1  0
 10 14  1  0
 12 15  2  0
 10 16  1  0
 12 17  1  0
 17 18  2  0
 15 19  1  0
 18 19  1  0
 14 20  1  0
M  END
>  <ID>  (1) 
conformer_0

$$$$
