
     RDKit          3D

 20 20  0  0  0  0  0  0  0  0999 V2000
   36.9365    3.6002   -6.4698 C   0  0  0  0  0  0  0  0  0  0  0  0
   35.7437    3.9894   -6.8044 C   0  0  0  0  0  0  0  0  0  0  0  0
   34.8266    4.3955   -5.8626 C   0  0  0  0  0  0  0  0  0  0  0  0
   37.3331    3.9082   -5.1672 C   0  0  0  0  0  0  0  0  0  0  0  0
   36.5135    4.3885   -4.1972 C   0  0  0  0  0  0  0  0  0  0  0  0
   33.3899    4.6914   -6.2300 C   0  0  0  0  0  0  0  0  0  0  0  0
   35.2051    4.6501   -4.5329 C   0  0  0  0  0  0  0  0  0  0  0  0
   38.9303    3.6306   -4.6380 C   0  0  0  0  0  0  0  0  0  0  0  0
   32.4955    3.6169   -5.9729 C   0  0  0  0  0  0  0  0  0  0  0  0
   32.3232    2.6266   -7.0725 C   0  0  0  0  0  0  0  0  0  0  0  0
   31.1326    2.3941   -7.3531 N   0  0  0  0  0  0  0  0  0  0  0  0
   30.6071    2.9098   -8.4221 C   0  0  0  0  0  0  0  0  0  0  0  0
   29.3003    3.0275   -8.7837 N   0  0  0  0  0  0  0  0  0  0  0  0
   33.2421    2.0334   -7.4723 O   0  0  0  0  0  0  0  0  0  0  0  0
   32.8473    2.9413   -4.7485 C   0  0  0  0  0  0  0  0  0  0  0  0
   31.3835    3.8460   -9.0237 O   0  0  0  0  0  0  0  0  0  0  0  0
   39.2285    4.1992   -3.6206 O   0  0  0  0  0  0  0  0  0  0  0  0
   31.2369    4.3334   -5.6092 O   0  0  0  0  0  0  0  0  0  0  0  0
   39.2419    2.4626   -5.0444 O   0  0  0  0  0  0  0  0  0  0  0  0
   28.7962    3.5406   -9.9516 C   0  0  0  0  0  0  0  0  0  0  0  0
  1  2  1  0
  2  3  2  0
  1  4  2  0
  4  5  1  0
  3  6  1  0
  3  7  1  0
  5  7  2  0
  4  8  1  0
  6  9  1  0
  9 10  1  0
 10 11  1  0
 11 12  1  0
 12 13  1  0
 10 14  2  0
  9 15  1  0
 12 16  2  0
  8 17  2  0
  9 18  1  0
  8 19  1  0
 13 20  1  0
M  END
>  <ID>  (1) 
conformer_0

$$$$
