
     RDKit          3D

 17 17  0  0  0  0  0  0  0  0999 V2000
   31.4523    1.8886   -8.1607 O   0  0  0  0  0  0  0  0  0  0  0  0
   31.5100    2.6080   -7.1401 C   0  0  0  0  0  0  0  0  0  0  0  0
   32.0748    3.8606   -6.9913 C   0  0  0  0  0  0  0  0  0  0  0  0
   33.1727    3.9929   -6.2408 C   0  0  0  0  0  0  0  0  0  0  0  0
   30.5527    2.3743   -6.1519 N   0  0  0  0  0  0  0  0  0  0  0  0
   34.4092    4.0112   -6.7300 C   0  0  0  0  0  0  0  0  0  0  0  0
   30.5400    3.0449   -4.8880 C   0  0  0  0  0  0  0  0  0  0  0  0
   33.1589    5.3808   -5.5690 C   0  0  0  0  0  0  0  0  0  0  0  0
   34.0758    5.3245   -4.4418 C   0  0  0  0  0  0  0  0  0  0  0  0
   32.5296    4.2696   -8.4143 O   0  0  0  0  0  0  0  0  0  0  0  0
   35.5435    3.8348   -5.7532 C   0  0  0  0  0  0  0  0  0  0  0  0
   36.8795    3.5530   -6.1804 C   0  0  0  0  0  0  0  0  0  0  0  0
   29.7117    1.2302   -6.3287 C   0  0  0  0  0  0  0  0  0  0  0  0
   36.9739    2.8749   -7.2160 O   0  0  0  0  0  0  0  0  0  0  0  0
   35.4782    5.0159   -4.8009 C   0  0  0  0  0  0  0  0  0  0  0  0
   31.2206    2.5300   -3.8081 C   0  0  0  0  0  0  0  0  0  0  0  0
   37.8722    3.9389   -5.4166 O   0  0  0  0  0  0  0  0  0  0  0  0
  1  2  2  0
  2  3  1  0
  3  4  1  0
  2  5  1  0
  4  6  1  0
  5  7  1  0
  4  8  1  0
  8  9  1  0
  3 10  1  0
  6 11  1  0
 11 12  1  0
  5 13  1  0
 12 14  2  0
  9 15  1  0
 11 15  1  0
  7 16  1  0
 12 17  1  0
M  END
>  <ID>  (1) 
conformer_0

$$$$
