
     RDKit          3D

 11 11  0  0  0  0  0  0  0  0999 V2000
   33.3881    4.9085   -7.1218 C   0  0  0  0  0  0  0  0  0  0  0  0
   32.5284    4.0848   -6.4992 C   0  0  0  0  0  0  0  0  0  0  0  0
   32.4826    2.8109   -6.4767 C   0  0  0  0  0  0  0  0  0  0  0  0
   34.5410    4.4602   -7.3923 C   0  0  0  0  0  0  0  0  0  0  0  0
   35.6310    5.2211   -7.6699 F   0  0  0  0  0  0  0  0  0  0  0  0
   31.0741    4.6015   -6.1665 C   0  0  0  0  0  0  0  0  0  0  0  0
   31.1440    5.3357   -5.1521 O   0  0  0  0  0  0  0  0  0  0  0  0
   33.7845    2.2418   -6.7513 C   0  0  0  0  0  0  0  0  0  0  0  0
   31.4082    1.8584   -6.0859 C   0  0  0  0  0  0  0  0  0  0  0  0
   34.7945    3.1079   -7.1235 C   0  0  0  0  0  0  0  0  0  0  0  0
   31.4528    1.4273   -4.8504 O   0  0  0  0  0  0  0  0  0  0  0  0
  1  2  2  0
  2  3  1  0
  1  4  1  0
  4  5  1  0
  2  6  1  0
  6  7  1  0
  3  8  2  0
  3  9  1  0
  4 10  2  0
  8 10  1  0
  9 11  1  0
M  END
>  <ID>  (1) 
conformer_0

$$$$
