
     RDKit          3D

 21 23  0  0  0  0  0  0  0  0999 V2000
   35.6868    4.8526   -4.2510 C   0  0  0  0  0  0  0  0  0  0  0  0
   34.4406    4.6174   -4.7272 C   0  0  0  0  0  0  0  0  0  0  0  0
   33.2668    4.7099   -4.0418 C   0  0  0  0  0  0  0  0  0  0  0  0
   34.3851    4.0910   -6.0837 C   0  0  0  0  0  0  0  0  0  0  0  0
   32.1078    4.3104   -4.6141 C   0  0  0  0  0  0  0  0  0  0  0  0
   33.1513    3.6403   -6.5903 C   0  0  0  0  0  0  0  0  0  0  0  0
   31.9979    3.8044   -5.8782 C   0  0  0  0  0  0  0  0  0  0  0  0
   35.6395    3.9120   -6.7227 C   0  0  0  0  0  0  0  0  0  0  0  0
   31.0041    4.6383   -6.7576 C   0  0  0  0  0  0  0  0  0  0  0  0
   31.3759    2.4208   -5.7288 C   0  0  0  0  0  0  0  0  0  0  0  0
   36.8681    4.7094   -4.7409 C   0  0  0  0  0  0  0  0  0  0  0  0
   31.0575    5.7038   -6.7530 O   0  0  0  0  0  0  0  0  0  0  0  0
   31.1335    1.8045   -4.7598 O   0  0  0  0  0  0  0  0  0  0  0  0
   38.1558    5.0422   -4.1113 C   0  0  0  0  0  0  0  0  0  0  0  0
   30.3792    3.9534   -7.7596 N   0  0  0  0  0  0  0  0  0  0  0  0
   30.5659    2.5744   -7.9573 C   0  0  0  0  0  0  0  0  0  0  0  0
   39.0134    3.9861   -3.8290 C   0  0  0  0  0  0  0  0  0  0  0  0
   30.7134    1.8972   -6.8154 N   0  0  0  0  0  0  0  0  0  0  0  0
   29.7125    4.5425   -8.8264 C   0  0  0  0  0  0  0  0  0  0  0  0
   30.5659    2.1351   -9.1804 O   0  0  0  0  0  0  0  0  0  0  0  0
   37.0070    4.1979   -6.1219 C   0  0  0  0  0  0  0  0  0  0  0  0
  1  2  2  0
  2  3  1  0
  2  4  1  0
  3  5  2  0
  4  6  1  0
  5  7  1  0
  6  7  1  0
  4  8  2  0
  7  9  1  0
  7 10  1  0
  1 11  1  0
  9 12  2  0
 10 13  2  0
 11 14  1  0
  9 15  1  0
 15 16  1  0
 14 17  2  0
 10 18  1  0
 16 18  1  0
 15 19  1  0
 16 20  2  0
  8 21  1  0
 11 21  2  0
M  END
>  <ID>  (1) 
conformer_0

$$$$
