
     RDKit          3D

 20 22  0  0  0  0  0  0  0  0999 V2000
   36.9365    3.6002   -6.4698 C   0  0  0  0  0  0  0  0  0  0  0  0
   35.7437    3.9894   -6.8044 C   0  0  0  0  0  0  0  0  0  0  0  0
   34.7616    4.1850   -6.0719 C   0  0  0  0  0  0  0  0  0  0  0  0
   33.4401    4.4876   -6.6427 C   0  0  0  0  0  0  0  0  0  0  0  0
   35.0099    4.1425   -4.7579 C   0  0  0  0  0  0  0  0  0  0  0  0
   32.5714    5.2797   -6.0720 C   0  0  0  0  0  0  0  0  0  0  0  0
   37.3170    3.6724   -4.9949 C   0  0  0  0  0  0  0  0  0  0  0  0
   31.2409    4.7758   -5.7587 C   0  0  0  0  0  0  0  0  0  0  0  0
   36.2303    3.9780   -4.1805 C   0  0  0  0  0  0  0  0  0  0  0  0
   31.2528    3.9168   -4.6046 C   0  0  0  0  0  0  0  0  0  0  0  0
   31.0356    2.4110   -4.9014 C   0  0  0  0  0  0  0  0  0  0  0  0
   30.7769    4.2635   -7.0134 C   0  0  0  0  0  0  0  0  0  0  0  0
   30.5718    2.9068   -7.0994 C   0  0  0  0  0  0  0  0  0  0  0  0
   31.3020    2.0811   -6.1451 C   0  0  0  0  0  0  0  0  0  0  0  0
   31.6487    4.8157   -8.1124 C   0  0  0  0  0  0  0  0  0  0  0  0
   30.8784    2.2657   -8.4350 N   0  0  0  0  0  0  0  0  0  0  0  0
   38.7183    3.4735   -4.4881 C   0  0  0  0  0  0  0  0  0  0  0  0
   39.1460    2.3855   -4.4307 O   0  0  0  0  0  0  0  0  0  0  0  0
   33.2122    4.4244   -7.9704 C   0  0  0  0  0  0  0  0  0  0  0  0
   39.3454    4.4108   -3.8606 N   0  0  0  0  0  0  0  0  0  0  0  0
  1  2  2  0
  2  3  1  0
  3  4  1  0
  3  5  2  0
  4  6  1  0
  1  7  1  0
  6  8  1  0
  5  9  1  0
  7  9  2  0
  8 10  1  0
 10 11  1  0
  8 12  1  0
 12 13  1  0
 11 14  1  0
 13 14  1  0
 12 15  1  0
 13 16  1  0
  7 17  1  0
 17 18  2  0
  4 19  1  0
 15 19  1  0
 17 20  1  0
M  END
>  <ID>  (1) 
conformer_0

$$$$
