
     RDKit          3D

 20 21  0  0  0  0  0  0  0  0999 V2000
   35.5132    3.8236   -7.0809 C   0  0  0  0  0  0  0  0  0  0  0  0
   36.3963    4.0089   -6.1448 C   0  0  0  0  0  0  0  0  0  0  0  0
   34.2234    3.7779   -6.8922 C   0  0  0  0  0  0  0  0  0  0  0  0
   33.2162    3.5969   -7.9483 N   0  0  0  0  0  0  0  0  0  0  0  0
   31.8811    3.5619   -7.7046 C   0  0  0  0  0  0  0  0  0  0  0  0
   31.4748    2.5438   -6.9467 N   0  0  0  0  0  0  0  0  0  0  0  0
   33.6480    4.3380   -5.6675 C   0  0  0  0  0  0  0  0  0  0  0  0
   31.0050    4.3229   -8.3009 N   0  0  0  0  0  0  0  0  0  0  0  0
   34.5782    4.6489   -4.6266 C   0  0  0  0  0  0  0  0  0  0  0  0
   30.0633    2.5087   -6.9019 C   0  0  0  0  0  0  0  0  0  0  0  0
   29.3864    1.5211   -6.1906 C   0  0  0  0  0  0  0  0  0  0  0  0
   29.6611    3.9592   -8.3639 C   0  0  0  0  0  0  0  0  0  0  0  0
   28.2065    1.5995   -5.9661 O   0  0  0  0  0  0  0  0  0  0  0  0
   28.9448    4.6574   -9.2382 O   0  0  0  0  0  0  0  0  0  0  0  0
   29.1448    3.0876   -7.6988 N   0  0  0  0  0  0  0  0  0  0  0  0
   37.8149    3.9806   -6.2977 O   0  0  0  0  0  0  0  0  0  0  0  0
   36.0621    4.4889   -4.7776 C   0  0  0  0  0  0  0  0  0  0  0  0
   38.3406    2.9911   -5.4595 C   0  0  0  0  0  0  0  0  0  0  0  0
   30.2217    0.7895   -5.1403 O   0  0  0  0  0  0  0  0  0  0  0  0
   38.8920    3.5815   -4.1528 C   0  0  0  0  0  0  0  0  0  0  0  0
  1  2  2  0
  1  3  1  0
  3  4  1  0
  4  5  1  0
  5  6  1  0
  3  7  2  0
  5  8  2  0
  7  9  1  0
  6 10  1  0
 10 11  1  0
  8 12  1  0
 11 13  2  0
 12 14  2  0
 10 15  2  0
 12 15  1  0
  2 16  1  0
  2 17  1  0
  9 17  2  0
 16 18  1  0
 11 19  1  0
 18 20  1  0
M  END
>  <ID>  (1) 
conformer_0

$$$$
