
     RDKit          3D

 21 22  0  0  0  0  0  0  0  0999 V2000
   35.6868    4.8526   -4.2510 C   0  0  0  0  0  0  0  0  0  0  0  0
   34.4406    4.6174   -4.7272 C   0  0  0  0  0  0  0  0  0  0  0  0
   33.2668    4.7099   -4.0418 C   0  0  0  0  0  0  0  0  0  0  0  0
   34.3851    4.0910   -6.0837 C   0  0  0  0  0  0  0  0  0  0  0  0
   32.1078    4.3104   -4.6141 C   0  0  0  0  0  0  0  0  0  0  0  0
   33.1513    3.6403   -6.5903 C   0  0  0  0  0  0  0  0  0  0  0  0
   31.9979    3.8044   -5.8782 C   0  0  0  0  0  0  0  0  0  0  0  0
   35.6395    3.9120   -6.7227 C   0  0  0  0  0  0  0  0  0  0  0  0
   31.0041    4.6383   -6.7576 C   0  0  0  0  0  0  0  0  0  0  0  0
   31.3759    2.4208   -5.7288 C   0  0  0  0  0  0  0  0  0  0  0  0
   36.8681    4.7094   -4.7409 C   0  0  0  0  0  0  0  0  0  0  0  0
   31.0575    5.7038   -6.7530 O   0  0  0  0  0  0  0  0  0  0  0  0
   30.1463    4.0656   -7.6157 N   0  0  0  0  0  0  0  0  0  0  0  0
   31.6229    1.5391   -6.4960 O   0  0  0  0  0  0  0  0  0  0  0  0
   36.8847    4.2502   -6.1004 C   0  0  0  0  0  0  0  0  0  0  0  0
   38.2573    5.0199   -4.1437 C   0  0  0  0  0  0  0  0  0  0  0  0
   30.6350    2.1519   -4.6361 O   0  0  0  0  0  0  0  0  0  0  0  0
   39.0002    3.8247   -3.7343 C   0  0  0  0  0  0  0  0  0  0  0  0
   30.2179    3.8909   -8.9785 C   0  0  0  0  0  0  0  0  0  0  0  0
   31.0638    3.0250   -9.4965 O   0  0  0  0  0  0  0  0  0  0  0  0
   28.9924    3.9121   -9.6600 C   0  0  0  0  0  0  0  0  0  0  0  0
  1  2  2  0
  2  3  1  0
  2  4  1  0
  3  5  2  0
  4  6  1  0
  5  7  1  0
  6  7  1  0
  4  8  2  0
  7  9  1  0
  7 10  1  0
  1 11  1  0
  9 12  2  0
  9 13  1  0
 10 14  2  0
  8 15  1  0
 11 15  2  0
 11 16  1  0
 10 17  1  0
 16 18  1  0
 13 19  1  0
 19 20  2  0
 19 21  1  0
M  END
>  <ID>  (1) 
conformer_0

$$$$
