
     RDKit          3D

 20 21  0  0  0  0  0  0  0  0999 V2000
   33.3881    4.9085   -7.1218 C   0  0  0  0  0  0  0  0  0  0  0  0
   34.3781    4.4577   -6.5395 C   0  0  0  0  0  0  0  0  0  0  0  0
   32.1274    4.3283   -6.5696 C   0  0  0  0  0  0  0  0  0  0  0  0
   32.0102    3.0154   -6.6414 C   0  0  0  0  0  0  0  0  0  0  0  0
   32.2417    2.1489   -5.7219 O   0  0  0  0  0  0  0  0  0  0  0  0
   34.8370    4.5595   -5.2988 C   0  0  0  0  0  0  0  0  0  0  0  0
   30.9131    5.1060   -7.1289 C   0  0  0  0  0  0  0  0  0  0  0  0
   33.7920    5.1890   -4.3570 C   0  0  0  0  0  0  0  0  0  0  0  0
   35.5895    3.7409   -7.2474 N   0  0  0  0  0  0  0  0  0  0  0  0
   32.0306    4.6419   -5.0436 C   0  0  0  0  0  0  0  0  0  0  0  0
   30.3359    4.1539   -8.1142 C   0  0  0  0  0  0  0  0  0  0  0  0
   36.0626    4.0754   -4.9196 N   0  0  0  0  0  0  0  0  0  0  0  0
   36.8812    4.1792   -3.8559 C   0  0  0  0  0  0  0  0  0  0  0  0
   32.0307    2.5383   -7.8774 O   0  0  0  0  0  0  0  0  0  0  0  0
   36.4608    3.7901   -6.2397 C   0  0  0  0  0  0  0  0  0  0  0  0
   30.6225    4.0144   -9.3558 N   0  0  0  0  0  0  0  0  0  0  0  0
   37.9040    5.0043   -3.9219 C   0  0  0  0  0  0  0  0  0  0  0  0
   29.8084    3.6176  -10.4259 O   0  0  0  0  0  0  0  0  0  0  0  0
   32.7079    4.3652   -4.0291 C   0  0  0  0  0  0  0  0  0  0  0  0
   37.7060    3.3849   -6.4809 O   0  0  0  0  0  0  0  0  0  0  0  0
  1  2  1  0
  1  3  1  0
  3  4  1  0
  4  5  1  0
  2  6  2  0
  3  7  1  0
  6  8  1  0
  2  9  1  0
  3 10  1  0
  7 11  1  0
  6 12  1  0
 12 13  1  0
  4 14  2  0
  9 15  1  0
 12 15  1  0
 11 16  1  0
 13 17  1  0
 16 18  1  0
  8 19  1  0
 10 19  1  0
 15 20  2  0
M  END
>  <ID>  (1) 
conformer_0

$$$$
