
     RDKit          3D

 19 21  0  0  0  0  0  0  0  0999 V2000
   35.6868    4.8526   -4.2510 C   0  0  0  0  0  0  0  0  0  0  0  0
   34.4406    4.6174   -4.7272 C   0  0  0  0  0  0  0  0  0  0  0  0
   36.8214    4.3627   -4.7844 C   0  0  0  0  0  0  0  0  0  0  0  0
   36.7421    3.5240   -5.9491 C   0  0  0  0  0  0  0  0  0  0  0  0
   33.2090    5.0458   -4.1136 C   0  0  0  0  0  0  0  0  0  0  0  0
   38.1761    4.6060   -4.2471 C   0  0  0  0  0  0  0  0  0  0  0  0
   32.0656    4.1923   -4.2789 C   0  0  0  0  0  0  0  0  0  0  0  0
   39.0563    3.5517   -4.1553 C   0  0  0  0  0  0  0  0  0  0  0  0
   34.0958    3.7230   -5.8648 C   0  0  0  0  0  0  0  0  0  0  0  0
   35.2547    3.5735   -6.7804 C   0  0  0  0  0  0  0  0  0  0  0  0
   32.9525    3.5475   -6.2532 C   0  0  0  0  0  0  0  0  0  0  0  0
   38.8161    2.4094   -4.9895 C   0  0  0  0  0  0  0  0  0  0  0  0
   32.6675    2.8611   -7.5855 O   0  0  0  0  0  0  0  0  0  0  0  0
   31.8211    3.7499   -5.4837 C   0  0  0  0  0  0  0  0  0  0  0  0
   37.7214    2.4282   -5.8925 N   0  0  0  0  0  0  0  0  0  0  0  0
   30.5790    3.2748   -5.7303 N   0  0  0  0  0  0  0  0  0  0  0  0
   30.1920    1.8386   -5.8417 C   0  0  0  0  0  0  0  0  0  0  0  0
   28.9578    1.5686   -6.0280 N   0  0  0  0  0  0  0  0  0  0  0  0
   31.1502    1.0538   -5.7936 O   0  0  0  0  0  0  0  0  0  0  0  0
  1  2  2  0
  1  3  1  0
  3  4  2  0
  2  5  1  0
  3  6  1  0
  5  7  2  0
  6  8  2  0
  2  9  1  0
  4 10  1  0
  9 10  1  0
  9 11  2  0
  8 12  1  0
 11 13  1  0
  7 14  1  0
 11 14  1  0
  4 15  1  0
 12 15  2  0
 14 16  1  0
 16 17  1  0
 17 18  1  0
 17 19  2  0
M  END
>  <ID>  (1) 
conformer_0

$$$$
