
     RDKit          3D

  9  9  0  0  0  0  0  0  0  0999 V2000
   31.2908    3.9608   -8.7893 O   0  0  0  0  0  0  0  0  0  0  0  0
   31.7523    3.6282   -7.6489 C   0  0  0  0  0  0  0  0  0  0  0  0
   31.7279    2.2729   -7.3344 C   0  0  0  0  0  0  0  0  0  0  0  0
   31.5455    1.8430   -6.0074 C   0  0  0  0  0  0  0  0  0  0  0  0
   31.6060    2.7298   -4.9829 C   0  0  0  0  0  0  0  0  0  0  0  0
   30.0345    3.6695   -9.2120 C   0  0  0  0  0  0  0  0  0  0  0  0
   29.9123    3.1566  -10.5493 N   0  0  0  0  0  0  0  0  0  0  0  0
   31.6713    4.5738   -6.5783 C   0  0  0  0  0  0  0  0  0  0  0  0
   31.8307    4.2864   -5.2602 C   0  0  0  0  0  0  0  0  0  0  0  0
  1  2  1  0
  2  3  1  0
  3  4  2  0
  4  5  1  0
  1  6  1  0
  6  7  1  0
  2  8  2  0
  5  9  2  0
  8  9  1  0
M  END
>  <ID>  (1) 
conformer_0

$$$$
