
     RDKit          3D

 14 15  0  0  0  0  0  0  0  0999 V2000
   33.3881    4.9085   -7.1218 C   0  0  0  0  0  0  0  0  0  0  0  0
   34.3781    4.4577   -6.5395 C   0  0  0  0  0  0  0  0  0  0  0  0
   35.6753    4.3197   -7.3069 C   0  0  0  0  0  0  0  0  0  0  0  0
   36.9374    4.0554   -6.6290 C   0  0  0  0  0  0  0  0  0  0  0  0
   36.8278    4.0225   -5.1576 C   0  0  0  0  0  0  0  0  0  0  0  0
   32.0757    4.8129   -6.4438 C   0  0  0  0  0  0  0  0  0  0  0  0
   32.0242    4.1983   -5.2192 C   0  0  0  0  0  0  0  0  0  0  0  0
   35.8651    4.2340   -4.5609 C   0  0  0  0  0  0  0  0  0  0  0  0
   34.3798    4.1972   -5.0985 C   0  0  0  0  0  0  0  0  0  0  0  0
   30.7038    4.1527   -4.5714 O   0  0  0  0  0  0  0  0  0  0  0  0
   38.1134    3.9403   -4.4717 C   0  0  0  0  0  0  0  0  0  0  0  0
   38.1423    4.1273   -3.1172 O   0  0  0  0  0  0  0  0  0  0  0  0
   33.2667    4.0977   -4.4248 C   0  0  0  0  0  0  0  0  0  0  0  0
   30.9212    5.1413   -7.1714 O   0  0  0  0  0  0  0  0  0  0  0  0
  1  2  2  0
  2  3  1  0
  3  4  1  0
  4  5  1  0
  1  6  1  0
  6  7  2  0
  5  8  1  0
  2  9  1  0
  8  9  1  0
  7 10  1  0
  5 11  2  3
 11 12  1  0
  7 13  1  0
  9 13  2  0
  6 14  1  0
M  END
>  <ID>  (1) 
conformer_0

$$$$
