
     RDKit          3D

 18 19  0  0  0  0  0  0  0  0999 V2000
   33.3881    4.9085   -7.1218 C   0  0  0  0  0  0  0  0  0  0  0  0
   34.3781    4.4577   -6.5395 C   0  0  0  0  0  0  0  0  0  0  0  0
   32.1082    4.4683   -6.5817 C   0  0  0  0  0  0  0  0  0  0  0  0
   34.4517    3.7529   -5.3760 C   0  0  0  0  0  0  0  0  0  0  0  0
   35.7603    4.8867   -7.0551 O   0  0  0  0  0  0  0  0  0  0  0  0
   30.8425    4.9005   -7.3288 C   0  0  0  0  0  0  0  0  0  0  0  0
   33.1873    3.3363   -4.8815 C   0  0  0  0  0  0  0  0  0  0  0  0
   35.6357    3.3142   -4.7568 O   0  0  0  0  0  0  0  0  0  0  0  0
   36.8731    4.0617   -5.0633 C   0  0  0  0  0  0  0  0  0  0  0  0
   37.9647    3.6579   -4.3310 C   0  0  0  0  0  0  0  0  0  0  0  0
   36.8405    4.2174   -6.5484 C   0  0  0  0  0  0  0  0  0  0  0  0
   32.1018    3.6897   -5.5044 C   0  0  0  0  0  0  0  0  0  0  0  0
   30.2816    3.7692   -7.9538 C   0  0  0  0  0  0  0  0  0  0  0  0
   38.6430    4.5493   -3.5913 C   0  0  0  0  0  0  0  0  0  0  0  0
   30.7131    3.4464   -9.2869 N   0  0  0  0  0  0  0  0  0  0  0  0
   29.4303    2.9833   -7.5750 O   0  0  0  0  0  0  0  0  0  0  0  0
   30.6870    3.1492   -4.8418 C   0  0  0  0  0  0  0  0  0  0  0  0
   30.1047    2.6104  -10.1607 O   0  0  0  0  0  0  0  0  0  0  0  0
  1  2  2  0
  1  3  1  0
  2  4  1  0
  2  5  1  0
  3  6  1  0
  4  7  2  0
  4  8  1  0
  8  9  1  0
  9 10  1  0
  5 11  1  0
  9 11  1  0
  3 12  2  0
  7 12  1  0
  6 13  1  0
 10 14  1  0
 13 15  1  0
 13 16  2  0
 12 17  1  0
 15 18  1  0
M  END
>  <ID>  (1) 
conformer_0

$$$$
