
     RDKit          3D

  8  8  0  0  0  0  0  0  0  0999 V2000
   29.3053    3.6417  -10.3726 N   0  0  0  0  0  0  0  0  0  0  0  0
   29.7950    3.4045   -9.2308 C   0  0  0  0  0  0  0  0  0  0  0  0
   31.0431    2.9730   -9.0749 N   0  0  0  0  0  0  0  0  0  0  0  0
   29.1251    3.4214   -8.2098 N   0  0  0  0  0  0  0  0  0  0  0  0
   29.7821    2.9619   -7.0368 C   0  0  0  0  0  0  0  0  0  0  0  0
   31.5936    2.7565   -7.9138 C   0  0  0  0  0  0  0  0  0  0  0  0
   33.0318    2.4772   -7.9030 O   0  0  0  0  0  0  0  0  0  0  0  0
   30.9652    2.6108   -6.8062 C   0  0  0  0  0  0  0  0  0  0  0  0
  1  2  1  0
  2  3  1  0
  2  4  2  0
  4  5  1  0
  3  6  1  0
  6  7  1  0
  5  8  2  0
  6  8  2  0
M  END
>  <ID>  (1) 
conformer_0

$$$$
