
     RDKit          3D

 18 19  0  0  0  0  0  0  0  0999 V2000
   37.7620    3.4630   -5.5357 C   0  0  0  0  0  0  0  0  0  0  0  0
   36.6492    4.2077   -5.5573 C   0  0  0  0  0  0  0  0  0  0  0  0
   35.6656    4.0294   -6.6281 C   0  0  0  0  0  0  0  0  0  0  0  0
   36.4672    5.2546   -4.6503 C   0  0  0  0  0  0  0  0  0  0  0  0
   34.5007    3.7515   -6.4566 N   0  0  0  0  0  0  0  0  0  0  0  0
   37.4566    5.3390   -3.6515 C   0  0  0  0  0  0  0  0  0  0  0  0
   33.9173    3.1669   -5.4279 C   0  0  0  0  0  0  0  0  0  0  0  0
   33.6729    4.1045   -7.5623 C   0  0  0  0  0  0  0  0  0  0  0  0
   32.5330    2.9371   -5.3892 C   0  0  0  0  0  0  0  0  0  0  0  0
   31.9031    2.2357   -4.2180 C   0  0  0  0  0  0  0  0  0  0  0  0
   38.7619    3.5298   -4.5573 C   0  0  0  0  0  0  0  0  0  0  0  0
   31.6998    3.3380   -6.4326 C   0  0  0  0  0  0  0  0  0  0  0  0
   32.2811    3.9368   -7.5414 C   0  0  0  0  0  0  0  0  0  0  0  0
   38.6227    4.5112   -3.5676 C   0  0  0  0  0  0  0  0  0  0  0  0
   31.1744    1.1376   -4.4623 O   0  0  0  0  0  0  0  0  0  0  0  0
   36.0315    4.5058   -7.8061 O   0  0  0  0  0  0  0  0  0  0  0  0
   31.5885    5.2268   -7.7129 C   0  0  0  0  0  0  0  0  0  0  0  0
   31.6593    3.0328   -8.5216 O   0  0  0  0  0  0  0  0  0  0  0  0
  1  2  2  0
  2  3  1  0
  2  4  1  0
  3  5  1  0
  4  6  2  0
  5  7  1  0
  5  8  1  0
  7  9  2  0
  9 10  1  0
  1 11  1  0
  9 12  1  0
  8 13  1  0
 12 13  1  0
  6 14  1  0
 11 14  2  0
 10 15  1  0
  3 16  2  0
 13 17  1  0
 13 18  1  0
M  END
>  <ID>  (1) 
conformer_0

$$$$
