
     RDKit          3D

 21 23  0  0  0  0  0  0  0  0999 V2000
   34.7981    4.3788   -7.2747 C   0  0  0  0  0  0  0  0  0  0  0  0
   33.9789    4.0843   -6.3100 C   0  0  0  0  0  0  0  0  0  0  0  0
   34.3258    3.9297   -5.0220 C   0  0  0  0  0  0  0  0  0  0  0  0
   32.5220    4.0585   -6.7249 C   0  0  0  0  0  0  0  0  0  0  0  0
   33.3541    3.5622   -4.0223 C   0  0  0  0  0  0  0  0  0  0  0  0
   31.6221    3.8078   -5.5892 C   0  0  0  0  0  0  0  0  0  0  0  0
   31.9849    3.8157   -4.3932 C   0  0  0  0  0  0  0  0  0  0  0  0
   35.6149    4.1476   -4.5998 C   0  0  0  0  0  0  0  0  0  0  0  0
   32.2828    2.9296   -7.6857 C   0  0  0  0  0  0  0  0  0  0  0  0
   31.0638    2.4809   -5.9905 C   0  0  0  0  0  0  0  0  0  0  0  0
   36.5760    4.5682   -5.6882 C   0  0  0  0  0  0  0  0  0  0  0  0
   38.0144    4.8049   -5.2088 C   0  0  0  0  0  0  0  0  0  0  0  0
   31.0825    2.3673   -7.3478 N   0  0  0  0  0  0  0  0  0  0  0  0
   38.6635    3.6422   -4.6633 C   0  0  0  0  0  0  0  0  0  0  0  0
   30.0911    2.1907   -8.2367 C   0  0  0  0  0  0  0  0  0  0  0  0
   29.1377    1.6159   -7.9058 O   0  0  0  0  0  0  0  0  0  0  0  0
   36.1902    4.6384   -6.9081 C   0  0  0  0  0  0  0  0  0  0  0  0
   30.2158    2.9123   -9.5222 C   0  0  0  0  0  0  0  0  0  0  0  0
   38.4549    2.4608   -5.1933 O   0  0  0  0  0  0  0  0  0  0  0  0
   29.6024    4.0777   -9.6705 O   0  0  0  0  0  0  0  0  0  0  0  0
   39.4337    3.7806   -3.5629 O   0  0  0  0  0  0  0  0  0  0  0  0
  1  2  2  0
  2  3  1  0
  2  4  1  0
  3  5  1  0
  4  6  1  0
  5  7  1  0
  6  7  1  0
  3  8  2  0
  4  9  1  0
  6 10  1  0
  8 11  1  0
 11 12  1  0
  9 13  1  0
 10 13  1  0
 12 14  1  0
 13 15  1  0
 15 16  2  0
  1 17  1  0
 11 17  2  0
 15 18  1  0
 14 19  2  0
 18 20  1  0
 14 21  1  0
M  END
>  <ID>  (1) 
conformer_0

$$$$
