
     RDKit          3D

 20 22  0  0  0  0  0  0  0  0999 V2000
   35.6868    4.8526   -4.2510 C   0  0  0  0  0  0  0  0  0  0  0  0
   34.4406    4.6174   -4.7272 C   0  0  0  0  0  0  0  0  0  0  0  0
   33.2668    4.7099   -4.0418 C   0  0  0  0  0  0  0  0  0  0  0  0
   34.3851    4.0910   -6.0837 C   0  0  0  0  0  0  0  0  0  0  0  0
   32.1078    4.3104   -4.6141 C   0  0  0  0  0  0  0  0  0  0  0  0
   33.1513    3.6403   -6.5903 C   0  0  0  0  0  0  0  0  0  0  0  0
   36.7904    4.5244   -5.0804 C   0  0  0  0  0  0  0  0  0  0  0  0
   32.0316    3.6986   -5.8020 C   0  0  0  0  0  0  0  0  0  0  0  0
   35.5305    3.9117   -6.8266 C   0  0  0  0  0  0  0  0  0  0  0  0
   30.9307    4.5215   -6.6283 C   0  0  0  0  0  0  0  0  0  0  0  0
   31.4119    2.3510   -5.5990 C   0  0  0  0  0  0  0  0  0  0  0  0
   36.7779    4.1475   -6.2923 C   0  0  0  0  0  0  0  0  0  0  0  0
   38.2693    4.8839   -4.4072 C   0  0  0  0  0  0  0  0  0  0  0  0
   38.8826    3.7977   -3.8016 C   0  0  0  0  0  0  0  0  0  0  0  0
   32.9204    4.2842   -7.8156 O   0  0  0  0  0  0  0  0  0  0  0  0
   30.6697    2.0823   -4.6068 O   0  0  0  0  0  0  0  0  0  0  0  0
   31.4893    4.5379   -7.9845 C   0  0  0  0  0  0  0  0  0  0  0  0
   31.5131    1.5681   -6.5498 O   0  0  0  0  0  0  0  0  0  0  0  0
   30.8492    4.6760   -8.9437 N   0  0  0  0  0  0  0  0  0  0  0  0
   30.6829    3.5485   -9.7952 O   0  0  0  0  0  0  0  0  0  0  0  0
  1  2  2  0
  2  3  1  0
  2  4  1  0
  3  5  2  0
  4  6  1  0
  1  7  1  0
  5  8  1  0
  6  8  1  0
  4  9  2  0
  8 10  1  0
  8 11  1  0
  7 12  2  0
  9 12  1  0
  7 13  1  0
 13 14  1  0
  6 15  1  0
 11 16  1  0
 10 17  1  0
 15 17  1  0
 11 18  2  0
 17 19  2  3
 19 20  1  0
M  END
>  <ID>  (1) 
conformer_0

$$$$
