
     RDKit          3D

 20 23  0  0  0  0  0  0  0  0999 V2000
   35.6868    4.8526   -4.2510 C   0  0  0  0  0  0  0  0  0  0  0  0
   34.4406    4.6174   -4.7272 C   0  0  0  0  0  0  0  0  0  0  0  0
   33.2668    4.7099   -4.0418 C   0  0  0  0  0  0  0  0  0  0  0  0
   34.3851    4.0910   -6.0837 C   0  0  0  0  0  0  0  0  0  0  0  0
   32.1078    4.3104   -4.6141 C   0  0  0  0  0  0  0  0  0  0  0  0
   33.1513    3.6403   -6.5903 C   0  0  0  0  0  0  0  0  0  0  0  0
   31.9979    3.8044   -5.8782 C   0  0  0  0  0  0  0  0  0  0  0  0
   35.6395    3.9120   -6.7227 C   0  0  0  0  0  0  0  0  0  0  0  0
   31.0041    4.6383   -6.7576 C   0  0  0  0  0  0  0  0  0  0  0  0
   30.7633    3.9254   -7.9886 C   0  0  0  0  0  0  0  0  0  0  0  0
   31.3896    2.4140   -5.6384 C   0  0  0  0  0  0  0  0  0  0  0  0
   31.6731    3.0690   -8.2943 N   0  0  0  0  0  0  0  0  0  0  0  0
   36.9202    4.3085   -5.9398 C   0  0  0  0  0  0  0  0  0  0  0  0
   29.8661    4.0801   -8.7639 N   0  0  0  0  0  0  0  0  0  0  0  0
   29.7068    3.1973   -9.8436 C   0  0  0  0  0  0  0  0  0  0  0  0
   33.0501    3.1029   -7.7870 N   0  0  0  0  0  0  0  0  0  0  0  0
   36.8190    4.7691   -4.8061 C   0  0  0  0  0  0  0  0  0  0  0  0
   31.0289    2.4796   -9.5895 N   0  0  0  0  0  0  0  0  0  0  0  0
   29.0059    2.9556  -10.7068 O   0  0  0  0  0  0  0  0  0  0  0  0
   38.1842    5.0404   -4.1615 C   0  0  0  0  0  0  0  0  0  0  0  0
  1  2  2  0
  2  3  1  0
  2  4  1  0
  3  5  2  0
  4  6  1  0
  5  7  1  0
  6  7  1  0
  4  8  2  0
  7  9  1  0
  9 10  1  0
  7 11  1  0
 10 12  1  0
  8 13  1  0
 10 14  2  0
 14 15  1  0
  6 16  2  0
 12 16  1  0
  1 17  1  0
 13 17  2  0
 12 18  1  0
 15 18  1  0
 15 19  2  0
 17 20  1  0
M  END
>  <ID>  (1) 
conformer_0

$$$$
