
     RDKit          3D

 19 21  0  0  0  0  0  0  0  0999 V2000
   35.5132    3.8236   -7.0809 C   0  0  0  0  0  0  0  0  0  0  0  0
   36.3963    4.0089   -6.1448 C   0  0  0  0  0  0  0  0  0  0  0  0
   34.2234    3.7779   -6.8922 C   0  0  0  0  0  0  0  0  0  0  0  0
   33.2162    3.5969   -7.9483 N   0  0  0  0  0  0  0  0  0  0  0  0
   33.6664    4.0593   -5.6453 C   0  0  0  0  0  0  0  0  0  0  0  0
   32.0676    3.5895   -7.3440 C   0  0  0  0  0  0  0  0  0  0  0  0
   37.8639    4.0615   -6.2249 O   0  0  0  0  0  0  0  0  0  0  0  0
   38.4545    3.3912   -5.1869 C   0  0  0  0  0  0  0  0  0  0  0  0
   32.1923    3.9193   -5.9280 N   0  0  0  0  0  0  0  0  0  0  0  0
   30.7475    3.3306   -7.8616 C   0  0  0  0  0  0  0  0  0  0  0  0
   38.6705    2.1845   -5.1569 O   0  0  0  0  0  0  0  0  0  0  0  0
   35.7846    4.2651   -4.8037 C   0  0  0  0  0  0  0  0  0  0  0  0
   30.1766    4.1877   -8.6315 N   0  0  0  0  0  0  0  0  0  0  0  0
   29.8094    3.5339   -9.9694 N   0  0  0  0  0  0  0  0  0  0  0  0
   36.7172    4.6106   -3.6478 O   0  0  0  0  0  0  0  0  0  0  0  0
   30.2816    2.2090   -7.6550 O   0  0  0  0  0  0  0  0  0  0  0  0
   38.0335    4.7414   -3.9203 C   0  0  0  0  0  0  0  0  0  0  0  0
   34.4473    4.3141   -4.6041 C   0  0  0  0  0  0  0  0  0  0  0  0
   31.3457    3.4779   -4.8071 C   0  0  0  0  0  0  0  0  0  0  0  0
  1  2  2  0
  1  3  1  0
  3  4  1  0
  3  5  2  0
  4  6  2  0
  2  7  1  0
  7  8  1  0
  5  9  1  0
  6  9  1  0
  6 10  1  0
  8 11  2  0
  2 12  1  0
 10 13  1  0
 13 14  1  0
 12 15  1  0
 10 16  2  0
  8 17  1  0
 15 17  1  0
  5 18  1  0
 12 18  2  0
  9 19  1  0
M  END
>  <ID>  (1) 
conformer_0

$$$$
