
     RDKit          3D

 16 16  0  0  0  0  0  0  0  0999 V2000
   34.7981    4.3788   -7.2747 C   0  0  0  0  0  0  0  0  0  0  0  0
   33.9789    4.0843   -6.3100 C   0  0  0  0  0  0  0  0  0  0  0  0
   34.3258    3.9297   -5.0220 C   0  0  0  0  0  0  0  0  0  0  0  0
   36.1474    4.6519   -6.9951 C   0  0  0  0  0  0  0  0  0  0  0  0
   35.6913    4.0680   -4.6497 C   0  0  0  0  0  0  0  0  0  0  0  0
   32.5580    3.9642   -6.6963 C   0  0  0  0  0  0  0  0  0  0  0  0
   36.6031    4.4448   -5.6254 C   0  0  0  0  0  0  0  0  0  0  0  0
   37.9884    4.5600   -5.3237 O   0  0  0  0  0  0  0  0  0  0  0  0
   32.0760    2.6081   -6.7479 C   0  0  0  0  0  0  0  0  0  0  0  0
   38.3326    4.8106   -3.9724 C   0  0  0  0  0  0  0  0  0  0  0  0
   31.4615    2.0076   -5.8981 N   0  0  0  0  0  0  0  0  0  0  0  0
   30.7675    2.8459   -4.9139 C   0  0  0  0  0  0  0  0  0  0  0  0
   29.9056    2.2293   -4.1010 O   0  0  0  0  0  0  0  0  0  0  0  0
   32.4988    1.8871   -7.7872 O   0  0  0  0  0  0  0  0  0  0  0  0
   31.2031    3.9966   -4.6889 O   0  0  0  0  0  0  0  0  0  0  0  0
   32.5552    4.6055   -8.1513 O   0  0  0  0  0  0  0  0  0  0  0  0
  1  2  2  0
  2  3  1  0
  1  4  1  0
  3  5  2  0
  2  6  1  0
  4  7  2  0
  5  7  1  0
  7  8  1  0
  6  9  1  0
  8 10  1  0
  9 11  1  0
 11 12  1  0
 12 13  1  0
  9 14  2  0
 12 15  2  0
  6 16  1  0
M  END
>  <ID>  (1) 
conformer_0

$$$$
