
     RDKit          3D

 19 19  0  0  0  0  0  0  0  0999 V2000
   33.3881    4.9085   -7.1218 C   0  0  0  0  0  0  0  0  0  0  0  0
   34.3781    4.4577   -6.5395 C   0  0  0  0  0  0  0  0  0  0  0  0
   32.1082    4.4683   -6.5817 C   0  0  0  0  0  0  0  0  0  0  0  0
   34.4666    3.7903   -5.4669 C   0  0  0  0  0  0  0  0  0  0  0  0
   32.0737    3.8369   -5.4060 C   0  0  0  0  0  0  0  0  0  0  0  0
   33.1763    3.3883   -4.7083 C   0  0  0  0  0  0  0  0  0  0  0  0
   30.7571    5.0356   -7.3026 C   0  0  0  0  0  0  0  0  0  0  0  0
   35.7131    3.2972   -4.8002 O   0  0  0  0  0  0  0  0  0  0  0  0
   36.9045    3.6426   -5.4915 C   0  0  0  0  0  0  0  0  0  0  0  0
   30.8100    3.4386   -4.7064 C   0  0  0  0  0  0  0  0  0  0  0  0
   30.5573    2.0280   -4.3728 C   0  0  0  0  0  0  0  0  0  0  0  0
   29.5192    1.7431   -3.6954 O   0  0  0  0  0  0  0  0  0  0  0  0
   30.6482    4.2653   -8.5208 N   0  0  0  0  0  0  0  0  0  0  0  0
   37.6531    4.6173   -4.6549 C   0  0  0  0  0  0  0  0  0  0  0  0
   29.6389    3.6035   -8.8405 C   0  0  0  0  0  0  0  0  0  0  0  0
   31.2598    1.0645   -4.8947 O   0  0  0  0  0  0  0  0  0  0  0  0
   29.6375    2.8558  -10.1382 C   0  0  0  0  0  0  0  0  0  0  0  0
   38.1509    4.2366   -3.4665 O   0  0  0  0  0  0  0  0  0  0  0  0
   28.6929    3.3949   -8.0530 O   0  0  0  0  0  0  0  0  0  0  0  0
  1  2  2  0
  1  3  1  0
  2  4  1  0
  3  5  2  0
  4  6  2  0
  5  6  1  0
  3  7  1  0
  4  8  1  0
  8  9  1  0
  5 10  1  0
 10 11  1  0
 11 12  2  0
  7 13  1  0
  9 14  1  0
 13 15  1  0
 11 16  1  0
 15 17  1  0
 14 18  1  0
 15 19  2  0
M  END
>  <ID>  (1) 
conformer_0

$$$$
