
     RDKit          3D

 18 20  0  0  0  0  0  0  0  0999 V2000
   35.6868    4.8526   -4.2510 C   0  0  0  0  0  0  0  0  0  0  0  0
   35.4038    4.2816   -5.4167 C   0  0  0  0  0  0  0  0  0  0  0  0
   36.4133    3.9055   -6.2342 C   0  0  0  0  0  0  0  0  0  0  0  0
   33.9912    3.9510   -5.7582 C   0  0  0  0  0  0  0  0  0  0  0  0
   32.9800    4.3303   -5.0722 C   0  0  0  0  0  0  0  0  0  0  0  0
   34.6478    5.0608   -3.2628 C   0  0  0  0  0  0  0  0  0  0  0  0
   33.7905    3.3648   -7.2193 C   0  0  0  0  0  0  0  0  0  0  0  0
   32.7021    2.4576   -7.1200 N   0  0  0  0  0  0  0  0  0  0  0  0
   33.3282    4.7917   -3.7204 C   0  0  0  0  0  0  0  0  0  0  0  0
   37.0613    5.1087   -3.8371 C   0  0  0  0  0  0  0  0  0  0  0  0
   31.4300    2.7402   -6.7127 C   0  0  0  0  0  0  0  0  0  0  0  0
   38.0827    4.5652   -4.6067 C   0  0  0  0  0  0  0  0  0  0  0  0
   31.0643    3.0115   -5.4629 N   0  0  0  0  0  0  0  0  0  0  0  0
   31.5823    4.4892   -5.2769 C   0  0  0  0  0  0  0  0  0  0  0  0
   30.4427    2.5683   -7.6240 O   0  0  0  0  0  0  0  0  0  0  0  0
   30.3993    2.2531   -4.5131 C   0  0  0  0  0  0  0  0  0  0  0  0
   37.8117    4.0395   -5.8559 C   0  0  0  0  0  0  0  0  0  0  0  0
   39.3658    4.5954   -4.0862 F   0  0  0  0  0  0  0  0  0  0  0  0
  1  2  2  0
  2  3  1  0
  2  4  1  0
  4  5  2  0
  1  6  1  0
  4  7  1  0
  7  8  1  0
  5  9  1  0
  6  9  2  0
  1 10  1  0
  8 11  1  0
 10 12  2  0
 11 13  1  0
  5 14  1  0
 13 14  1  0
 11 15  2  0
 13 16  1  0
  3 17  2  0
 12 17  1  0
 12 18  1  0
M  END
>  <ID>  (1) 
conformer_0

$$$$
