
     RDKit          3D

 17 18  0  0  0  0  0  0  0  0999 V2000
   36.9365    3.6002   -6.4698 C   0  0  0  0  0  0  0  0  0  0  0  0
   35.7437    3.9894   -6.8044 C   0  0  0  0  0  0  0  0  0  0  0  0
   34.7616    4.1850   -6.0719 C   0  0  0  0  0  0  0  0  0  0  0  0
   33.4401    4.4876   -6.6427 C   0  0  0  0  0  0  0  0  0  0  0  0
   35.0099    4.1425   -4.7579 C   0  0  0  0  0  0  0  0  0  0  0  0
   32.5714    5.2797   -6.0720 C   0  0  0  0  0  0  0  0  0  0  0  0
   37.3170    3.6724   -4.9949 C   0  0  0  0  0  0  0  0  0  0  0  0
   33.0216    3.7503   -7.7463 N   0  0  0  0  0  0  0  0  0  0  0  0
   31.8169    3.9234   -8.2136 C   0  0  0  0  0  0  0  0  0  0  0  0
   31.3259    3.1858   -9.3164 O   0  0  0  0  0  0  0  0  0  0  0  0
   30.8551    4.7455   -7.5951 C   0  0  0  0  0  0  0  0  0  0  0  0
   33.8609    4.4395   -3.7612 C   0  0  0  0  0  0  0  0  0  0  0  0
   38.5790    3.5398   -4.5382 C   0  0  0  0  0  0  0  0  0  0  0  0
   38.9515    4.2076   -3.4980 C   0  0  0  0  0  0  0  0  0  0  0  0
   36.2275    4.0938   -4.2569 C   0  0  0  0  0  0  0  0  0  0  0  0
   30.0305    3.3412   -9.7438 C   0  0  0  0  0  0  0  0  0  0  0  0
   31.3047    5.4036   -6.4657 C   0  0  0  0  0  0  0  0  0  0  0  0
  1  2  2  0
  2  3  1  0
  3  4  1  0
  3  5  2  0
  4  6  1  0
  1  7  1  0
  4  8  2  0
  8  9  1  0
  9 10  1  0
  9 11  2  0
  5 12  1  0
  7 13  1  0
 13 14  2  0
  5 15  1  0
  7 15  2  0
 10 16  1  0
  6 17  2  0
 11 17  1  0
M  END
>  <ID>  (1) 
conformer_0

$$$$
