
     RDKit          3D

 20 21  0  0  0  0  0  0  0  0999 V2000
   35.6868    4.8526   -4.2510 C   0  0  0  0  0  0  0  0  0  0  0  0
   34.4406    4.6174   -4.7272 C   0  0  0  0  0  0  0  0  0  0  0  0
   33.2668    4.7099   -4.0418 C   0  0  0  0  0  0  0  0  0  0  0  0
   34.3851    4.0910   -6.0837 C   0  0  0  0  0  0  0  0  0  0  0  0
   32.1078    4.3104   -4.6141 C   0  0  0  0  0  0  0  0  0  0  0  0
   33.1513    3.6403   -6.5903 C   0  0  0  0  0  0  0  0  0  0  0  0
   31.9979    3.8044   -5.8782 C   0  0  0  0  0  0  0  0  0  0  0  0
   35.6395    3.9120   -6.7227 C   0  0  0  0  0  0  0  0  0  0  0  0
   31.0041    4.6383   -6.7576 C   0  0  0  0  0  0  0  0  0  0  0  0
   30.7633    3.9254   -7.9886 C   0  0  0  0  0  0  0  0  0  0  0  0
   31.3896    2.4140   -5.6384 C   0  0  0  0  0  0  0  0  0  0  0  0
   36.8650    4.7177   -4.7673 C   0  0  0  0  0  0  0  0  0  0  0  0
   29.8175    3.9932   -8.6877 N   0  0  0  0  0  0  0  0  0  0  0  0
   36.8864    4.2432   -6.1350 C   0  0  0  0  0  0  0  0  0  0  0  0
   38.2152    5.0514   -4.1639 C   0  0  0  0  0  0  0  0  0  0  0  0
   31.7420    1.4144   -6.2481 O   0  0  0  0  0  0  0  0  0  0  0  0
   29.1949    2.9628   -9.4804 C   0  0  0  0  0  0  0  0  0  0  0  0
   30.6655    2.1961   -4.4921 O   0  0  0  0  0  0  0  0  0  0  0  0
   28.2381    3.2703  -10.2934 N   0  0  0  0  0  0  0  0  0  0  0  0
   29.5939    1.8057   -9.3904 O   0  0  0  0  0  0  0  0  0  0  0  0
  1  2  2  0
  2  3  1  0
  2  4  1  0
  3  5  2  0
  4  6  1  0
  5  7  1  0
  6  7  1  0
  4  8  2  0
  7  9  1  0
  9 10  1  0
  7 11  1  0
  1 12  1  0
 10 13  1  0
  8 14  1  0
 12 14  2  0
 12 15  1  0
 11 16  2  0
 13 17  1  0
 11 18  1  0
 17 19  1  0
 17 20  2  0
M  END
>  <ID>  (1) 
conformer_0

$$$$
