
     RDKit          3D

 21 23  0  0  0  0  0  0  0  0999 V2000
   35.5132    3.8236   -7.0809 C   0  0  0  0  0  0  0  0  0  0  0  0
   36.3963    4.0089   -6.1448 C   0  0  0  0  0  0  0  0  0  0  0  0
   34.2234    3.7779   -6.8922 C   0  0  0  0  0  0  0  0  0  0  0  0
   33.2162    3.5969   -7.9483 N   0  0  0  0  0  0  0  0  0  0  0  0
   33.6664    4.0593   -5.6453 C   0  0  0  0  0  0  0  0  0  0  0  0
   32.0676    3.5895   -7.3440 C   0  0  0  0  0  0  0  0  0  0  0  0
   37.8639    4.0615   -6.2249 O   0  0  0  0  0  0  0  0  0  0  0  0
   38.4545    3.3912   -5.1869 C   0  0  0  0  0  0  0  0  0  0  0  0
   35.8112    4.2384   -4.7847 C   0  0  0  0  0  0  0  0  0  0  0  0
   34.5069    4.2858   -4.5732 C   0  0  0  0  0  0  0  0  0  0  0  0
   30.7696    3.4197   -7.9545 C   0  0  0  0  0  0  0  0  0  0  0  0
   32.3167    3.8682   -5.8058 N   0  0  0  0  0  0  0  0  0  0  0  0
   31.2940    4.3123   -4.9782 C   0  0  0  0  0  0  0  0  0  0  0  0
   30.8918    3.0600   -4.1907 C   0  0  0  0  0  0  0  0  0  0  0  0
   38.5925    2.1179   -5.1307 O   0  0  0  0  0  0  0  0  0  0  0  0
   30.3306    2.2509   -7.9786 N   0  0  0  0  0  0  0  0  0  0  0  0
   30.2908    4.2958   -8.6161 N   0  0  0  0  0  0  0  0  0  0  0  0
   29.2325    2.4291   -8.8492 C   0  0  0  0  0  0  0  0  0  0  0  0
   29.2123    3.7283   -9.3053 N   0  0  0  0  0  0  0  0  0  0  0  0
   28.4077    1.4495   -9.3609 O   0  0  0  0  0  0  0  0  0  0  0  0
   39.2450    4.1703   -4.2430 C   0  0  0  0  0  0  0  0  0  0  0  0
  1  2  2  0
  1  3  1  0
  3  4  1  0
  3  5  2  0
  4  6  2  0
  2  7  1  0
  7  8  1  0
  2  9  1  0
  5 10  1  0
  9 10  2  0
  6 11  1  0
  5 12  1  0
  6 12  1  0
 12 13  1  0
 13 14  1  0
  8 15  2  0
 11 16  1  0
 11 17  2  0
 16 18  1  0
 17 19  1  0
 18 19  1  0
 18 20  2  0
  8 21  1  0
M  END
>  <ID>  (1) 
conformer_0

$$$$
