
     RDKit          3D

 15 16  0  0  0  0  0  0  0  0999 V2000
   35.6868    4.8526   -4.2510 C   0  0  0  0  0  0  0  0  0  0  0  0
   35.4038    4.2816   -5.4167 C   0  0  0  0  0  0  0  0  0  0  0  0
   36.4133    3.9055   -6.2342 C   0  0  0  0  0  0  0  0  0  0  0  0
   34.4200    5.1541   -3.4305 O   0  0  0  0  0  0  0  0  0  0  0  0
   33.4099    4.6225   -4.2122 C   0  0  0  0  0  0  0  0  0  0  0  0
   36.9813    4.9906   -3.7877 C   0  0  0  0  0  0  0  0  0  0  0  0
   38.0426    4.5380   -4.5519 C   0  0  0  0  0  0  0  0  0  0  0  0
   33.9765    4.0552   -5.7861 C   0  0  0  0  0  0  0  0  0  0  0  0
   33.2291    3.8527   -6.8624 C   0  0  0  0  0  0  0  0  0  0  0  0
   33.1350    4.8007   -7.7153 O   0  0  0  0  0  0  0  0  0  0  0  0
   32.0485    4.2969   -3.8300 C   0  0  0  0  0  0  0  0  0  0  0  0
   37.7578    4.0130   -5.8070 C   0  0  0  0  0  0  0  0  0  0  0  0
   39.3338    4.7091   -4.1381 F   0  0  0  0  0  0  0  0  0  0  0  0
   32.7580    2.6417   -6.9508 N   0  0  0  0  0  0  0  0  0  0  0  0
   32.0046    2.2278   -8.1021 O   0  0  0  0  0  0  0  0  0  0  0  0
  1  2  2  0
  2  3  1  0
  1  4  1  0
  4  5  1  0
  1  6  1  0
  6  7  2  0
  2  8  1  0
  5  8  2  0
  8  9  1  0
  9 10  2  0
  5 11  1  0
  3 12  2  0
  7 12  1  0
  7 13  1  0
  9 14  1  0
 14 15  1  0
M  END
>  <ID>  (1) 
conformer_0

$$$$
