
     RDKit          3D

 16 18  0  0  0  0  0  0  0  0999 V2000
   35.6868    4.8526   -4.2510 C   0  0  0  0  0  0  0  0  0  0  0  0
   35.4038    4.2816   -5.4167 C   0  0  0  0  0  0  0  0  0  0  0  0
   36.4133    3.9055   -6.2342 C   0  0  0  0  0  0  0  0  0  0  0  0
   34.4200    5.1541   -3.4305 O   0  0  0  0  0  0  0  0  0  0  0  0
   33.4099    4.6225   -4.2122 C   0  0  0  0  0  0  0  0  0  0  0  0
   36.9813    4.9906   -3.7877 C   0  0  0  0  0  0  0  0  0  0  0  0
   38.0426    4.5380   -4.5519 C   0  0  0  0  0  0  0  0  0  0  0  0
   33.9364    4.1852   -5.4525 C   0  0  0  0  0  0  0  0  0  0  0  0
   37.6979    3.9885   -5.8969 C   0  0  0  0  0  0  0  0  0  0  0  0
   31.9400    4.6312   -3.9677 C   0  0  0  0  0  0  0  0  0  0  0  0
   31.3858    3.5512   -4.3430 C   0  0  0  0  0  0  0  0  0  0  0  0
   33.1630    3.8266   -6.6530 C   0  0  0  0  0  0  0  0  0  0  0  0
   31.8643    3.3080   -6.4753 C   0  0  0  0  0  0  0  0  0  0  0  0
   39.4368    4.5520   -4.1259 C   0  0  0  0  0  0  0  0  0  0  0  0
   30.9273    3.7251   -5.6431 N   0  0  0  0  0  0  0  0  0  0  0  0
   31.7575    1.8800   -6.6822 O   0  0  0  0  0  0  0  0  0  0  0  0
  1  2  2  0
  2  3  1  0
  1  4  1  0
  4  5  1  0
  1  6  1  0
  6  7  2  0
  2  8  1  0
  5  8  2  0
  3  9  2  0
  7  9  1  0
  5 10  1  0
 10 11  1  0
  8 12  1  0
 12 13  1  0
  7 14  1  0
 11 15  1  0
 13 15  1  0
 13 16  2  0
M  END
>  <ID>  (1) 
conformer_0

$$$$
