
     RDKit          3D

  9 10  0  0  0  0  0  0  0  0999 V2000
   39.1976    3.4833   -4.0569 C   0  0  0  0  0  0  0  0  0  0  0  0
   38.4714    4.6187   -3.7942 C   0  0  0  0  0  0  0  0  0  0  0  0
   38.4731    2.8937   -5.1114 C   0  0  0  0  0  0  0  0  0  0  0  0
   37.4050    3.5163   -5.5970 C   0  0  0  0  0  0  0  0  0  0  0  0
   37.2819    4.6436   -4.7946 C   0  0  0  0  0  0  0  0  0  0  0  0
   36.6389    3.2179   -6.5219 N   0  0  0  0  0  0  0  0  0  0  0  0
   36.2403    5.4934   -4.9209 C   0  0  0  0  0  0  0  0  0  0  0  0
   35.6222    4.2144   -6.5732 C   0  0  0  0  0  0  0  0  0  0  0  0
   35.3289    5.1238   -5.8065 C   0  0  0  0  0  0  0  0  0  0  0  0
  1  2  1  0
  1  3  2  0
  3  4  1  0
  2  5  1  0
  4  5  1  0
  4  6  2  0
  5  7  2  0
  6  8  1  0
  7  9  1  0
  8  9  2  0
M  END
>  <ID>  (1) 
conformer_0

$$$$
