
     RDKit          3D

 20 22  0  0  0  0  0  0  0  0999 V2000
   34.7981    4.3788   -7.2747 C   0  0  0  0  0  0  0  0  0  0  0  0
   33.9789    4.0843   -6.3100 C   0  0  0  0  0  0  0  0  0  0  0  0
   34.3258    3.9297   -5.0220 C   0  0  0  0  0  0  0  0  0  0  0  0
   32.5220    4.0585   -6.7249 C   0  0  0  0  0  0  0  0  0  0  0  0
   33.3541    3.5622   -4.0223 C   0  0  0  0  0  0  0  0  0  0  0  0
   31.6221    3.8078   -5.5892 C   0  0  0  0  0  0  0  0  0  0  0  0
   31.9849    3.8157   -4.3932 C   0  0  0  0  0  0  0  0  0  0  0  0
   35.6149    4.1476   -4.5998 C   0  0  0  0  0  0  0  0  0  0  0  0
   32.2828    2.9296   -7.6857 C   0  0  0  0  0  0  0  0  0  0  0  0
   31.0638    2.4809   -5.9905 C   0  0  0  0  0  0  0  0  0  0  0  0
   36.5760    4.5682   -5.6882 C   0  0  0  0  0  0  0  0  0  0  0  0
   38.0144    4.8049   -5.2088 C   0  0  0  0  0  0  0  0  0  0  0  0
   31.0825    2.3673   -7.3478 N   0  0  0  0  0  0  0  0  0  0  0  0
   30.0165    2.9607   -8.0459 C   0  0  0  0  0  0  0  0  0  0  0  0
   38.6623    3.6415   -4.6631 C   0  0  0  0  0  0  0  0  0  0  0  0
   30.0859    2.9785   -9.4030 C   0  0  0  0  0  0  0  0  0  0  0  0
   38.1599    5.9200   -4.2599 C   0  0  0  0  0  0  0  0  0  0  0  0
   36.2332    4.6200   -6.9536 C   0  0  0  0  0  0  0  0  0  0  0  0
   29.4580    3.8869  -10.1055 O   0  0  0  0  0  0  0  0  0  0  0  0
   30.6202    2.0961  -10.0461 O   0  0  0  0  0  0  0  0  0  0  0  0
  1  2  2  0
  2  3  1  0
  2  4  1  0
  3  5  1  0
  4  6  1  0
  5  7  1  0
  6  7  1  0
  3  8  2  0
  4  9  1  0
  6 10  1  0
  8 11  1  0
 11 12  1  0
  9 13  1  0
 10 13  1  0
 13 14  1  0
 12 15  1  0
 14 16  1  0
 12 17  1  0
  1 18  1  0
 11 18  2  0
 16 19  1  0
 16 20  2  0
M  END
>  <ID>  (1) 
conformer_0

$$$$
