
     RDKit          3D

 20 22  0  0  0  0  0  0  0  0999 V2000
   35.5132    3.8236   -7.0809 C   0  0  0  0  0  0  0  0  0  0  0  0
   36.3963    4.0089   -6.1448 C   0  0  0  0  0  0  0  0  0  0  0  0
   34.2234    3.7779   -6.8922 C   0  0  0  0  0  0  0  0  0  0  0  0
   33.2162    3.5969   -7.9483 N   0  0  0  0  0  0  0  0  0  0  0  0
   33.6664    4.0593   -5.6453 C   0  0  0  0  0  0  0  0  0  0  0  0
   32.0676    3.5895   -7.3440 C   0  0  0  0  0  0  0  0  0  0  0  0
   37.8639    4.0615   -6.2249 C   0  0  0  0  0  0  0  0  0  0  0  0
   32.1924    3.9174   -5.9287 N   0  0  0  0  0  0  0  0  0  0  0  0
   31.2494    3.6695   -4.8739 C   0  0  0  0  0  0  0  0  0  0  0  0
   30.7576    3.5208   -7.9170 C   0  0  0  0  0  0  0  0  0  0  0  0
   30.7474    3.0147   -9.1998 N   0  0  0  0  0  0  0  0  0  0  0  0
   38.4738    4.2028   -4.8843 C   0  0  0  0  0  0  0  0  0  0  0  0
   39.8902    4.1443   -4.7733 C   0  0  0  0  0  0  0  0  0  0  0  0
   31.0302    2.3687   -4.3566 C   0  0  0  0  0  0  0  0  0  0  0  0
   36.0747    4.3460   -4.6361 C   0  0  0  0  0  0  0  0  0  0  0  0
   34.3822    4.4466   -4.4384 C   0  0  0  0  0  0  0  0  0  0  0  0
   29.7597    2.6448   -9.8497 C   0  0  0  0  0  0  0  0  0  0  0  0
   28.6197    2.3832   -9.3698 O   0  0  0  0  0  0  0  0  0  0  0  0
   37.1581    4.5562   -3.7805 C   0  0  0  0  0  0  0  0  0  0  0  0
   29.8982    2.3040  -11.1521 N   0  0  0  0  0  0  0  0  0  0  0  0
  1  2  2  0
  1  3  1  0
  3  4  1  0
  3  5  2  0
  4  6  2  0
  2  7  1  0
  5  8  1  0
  6  8  1  0
  8  9  1  0
  6 10  1  0
 10 11  1  0
  7 12  2  0
 12 13  1  0
  9 14  1  0
  2 15  1  0
  5 16  1  0
 15 16  1  0
 11 17  1  0
 17 18  2  0
 12 19  1  0
 15 19  2  0
 17 20  1  0
M  END
>  <ID>  (1) 
conformer_0

$$$$
