
     RDKit          3D

 18 19  0  0  0  0  0  0  0  0999 V2000
   34.6037    4.5500   -7.2848 C   0  0  0  0  0  0  0  0  0  0  0  0
   33.9175    4.1134   -6.2535 C   0  0  0  0  0  0  0  0  0  0  0  0
   34.4599    3.9740   -4.9647 C   0  0  0  0  0  0  0  0  0  0  0  0
   32.5350    3.6128   -6.6042 C   0  0  0  0  0  0  0  0  0  0  0  0
   32.3794    2.4403   -7.2533 C   0  0  0  0  0  0  0  0  0  0  0  0
   36.0248    4.8858   -7.0867 C   0  0  0  0  0  0  0  0  0  0  0  0
   31.3927    4.1611   -5.8314 C   0  0  0  0  0  0  0  0  0  0  0  0
   31.0044    2.1378   -7.4354 N   0  0  0  0  0  0  0  0  0  0  0  0
   35.7536    4.2823   -4.7206 C   0  0  0  0  0  0  0  0  0  0  0  0
   36.5182    4.7435   -5.7706 C   0  0  0  0  0  0  0  0  0  0  0  0
   30.3335    3.1530   -6.7472 C   0  0  0  0  0  0  0  0  0  0  0  0
   29.5851    3.8681   -7.8343 C   0  0  0  0  0  0  0  0  0  0  0  0
   29.6687    2.2118   -5.6151 C   0  0  0  0  0  0  0  0  0  0  0  0
   29.9192    2.3144   -4.3606 O   0  0  0  0  0  0  0  0  0  0  0  0
   28.6260    1.6063   -5.9410 O   0  0  0  0  0  0  0  0  0  0  0  0
   37.9083    4.9909   -5.5185 O   0  0  0  0  0  0  0  0  0  0  0  0
   38.4063    4.6332   -4.2496 C   0  0  0  0  0  0  0  0  0  0  0  0
   29.8536    3.5455   -9.0710 N   0  0  0  0  0  0  0  0  0  0  0  0
  1  2  2  0
  2  3  1  0
  2  4  1  0
  4  5  2  0
  1  6  1  0
  4  7  1  0
  5  8  1  0
  3  9  2  0
  6 10  2  0
  9 10  1  0
  7 11  1  0
  8 11  1  0
 11 12  1  0
 11 13  1  0
 13 14  1  0
 13 15  2  0
 10 16  1  0
 16 17  1  0
 12 18  1  0
M  END
>  <ID>  (1) 
conformer_0

$$$$
