
     RDKit          3D

 20 22  0  0  0  0  0  0  0  0999 V2000
   35.5132    3.8236   -7.0809 C   0  0  0  0  0  0  0  0  0  0  0  0
   36.3963    4.0089   -6.1448 C   0  0  0  0  0  0  0  0  0  0  0  0
   34.2234    3.7779   -6.8922 C   0  0  0  0  0  0  0  0  0  0  0  0
   33.2162    3.5969   -7.9483 O   0  0  0  0  0  0  0  0  0  0  0  0
   33.6663    4.0711   -5.6379 C   0  0  0  0  0  0  0  0  0  0  0  0
   31.9173    3.7230   -7.5755 C   0  0  0  0  0  0  0  0  0  0  0  0
   31.5893    4.1384   -6.4791 C   0  0  0  0  0  0  0  0  0  0  0  0
   32.2823    4.3601   -5.4006 C   0  0  0  0  0  0  0  0  0  0  0  0
   37.8424    4.0137   -6.3402 O   0  0  0  0  0  0  0  0  0  0  0  0
   38.3983    3.3042   -5.3244 C   0  0  0  0  0  0  0  0  0  0  0  0
   30.9334    3.3490   -8.6687 C   0  0  0  0  0  0  0  0  0  0  0  0
   34.7616    4.3328   -4.5360 C   0  0  0  0  0  0  0  0  0  0  0  0
   31.2513    2.8971   -9.6934 O   0  0  0  0  0  0  0  0  0  0  0  0
   29.6511    3.3759   -8.3388 N   0  0  0  0  0  0  0  0  0  0  0  0
   31.8619    3.4152   -4.3274 O   0  0  0  0  0  0  0  0  0  0  0  0
   34.3229    4.4891   -3.2176 O   0  0  0  0  0  0  0  0  0  0  0  0
   38.6520    4.1965   -4.0752 C   0  0  0  0  0  0  0  0  0  0  0  0
   37.3212    4.5040   -3.4584 O   0  0  0  0  0  0  0  0  0  0  0  0
   28.6064    2.9746   -9.4021 C   0  0  0  0  0  0  0  0  0  0  0  0
   36.2883    4.4692   -4.6305 C   0  0  0  0  0  0  0  0  0  0  0  0
  1  2  2  0
  1  3  1  0
  3  4  1  0
  3  5  2  0
  4  6  1  0
  6  7  2  0
  5  8  1  0
  7  8  1  0
  2  9  1  0
  9 10  1  0
  6 11  1  0
  5 12  1  0
 11 13  2  0
 11 14  1  0
  8 15  1  0
 12 16  1  0
 10 17  1  0
 17 18  1  0
 14 19  1  0
  2 20  1  0
 12 20  2  0
 18 20  1  0
M  END
>  <ID>  (1) 
conformer_0

$$$$
