
     RDKit          3D

 16 17  0  0  0  0  0  0  0  0999 V2000
   34.3580    4.0237   -7.4653 C   0  0  0  0  0  0  0  0  0  0  0  0
   33.4392    3.8567   -6.5752 C   0  0  0  0  0  0  0  0  0  0  0  0
   33.5986    3.7927   -5.3067 C   0  0  0  0  0  0  0  0  0  0  0  0
   32.4639    3.4955   -4.3500 C   0  0  0  0  0  0  0  0  0  0  0  0
   31.6930    2.3882   -4.8926 C   0  0  0  0  0  0  0  0  0  0  0  0
   32.1918    3.3006   -7.2978 C   0  0  0  0  0  0  0  0  0  0  0  0
   31.0739    2.9891   -6.2162 C   0  0  0  0  0  0  0  0  0  0  0  0
   35.5943    4.6342   -6.9538 C   0  0  0  0  0  0  0  0  0  0  0  0
   35.7933    4.7229   -5.5731 C   0  0  0  0  0  0  0  0  0  0  0  0
   37.0832    5.2001   -5.0779 C   0  0  0  0  0  0  0  0  0  0  0  0
   38.0729    4.3012   -4.7336 C   0  0  0  0  0  0  0  0  0  0  0  0
   31.7134    3.6376   -8.2874 O   0  0  0  0  0  0  0  0  0  0  0  0
   30.2143    1.8823   -6.7959 N   0  0  0  0  0  0  0  0  0  0  0  0
   37.9755    2.9979   -5.1342 O   0  0  0  0  0  0  0  0  0  0  0  0
   38.9004    4.6665   -3.6200 C   0  0  0  0  0  0  0  0  0  0  0  0
   34.7842    4.3641   -4.7398 C   0  0  0  0  0  0  0  0  0  0  0  0
  1  2  2  0
  2  3  1  0
  3  4  1  0
  4  5  1  0
  2  6  1  0
  5  7  1  0
  6  7  1  0
  1  8  1  0
  8  9  2  0
  9 10  1  0
 10 11  1  0
  6 12  1  0
  7 13  1  0
 11 14  2  0
 11 15  1  0
  3 16  2  0
  9 16  1  0
M  END
>  <ID>  (1) 
conformer_0

$$$$
