
     RDKit          3D

 18 19  0  0  0  0  0  0  0  0999 V2000
   35.6868    4.8526   -4.2510 C   0  0  0  0  0  0  0  0  0  0  0  0
   34.4406    4.6174   -4.7272 C   0  0  0  0  0  0  0  0  0  0  0  0
   33.2668    4.7099   -4.0418 C   0  0  0  0  0  0  0  0  0  0  0  0
   34.3851    4.0910   -6.0837 C   0  0  0  0  0  0  0  0  0  0  0  0
   32.1078    4.3104   -4.6141 C   0  0  0  0  0  0  0  0  0  0  0  0
   33.1513    3.6403   -6.5903 C   0  0  0  0  0  0  0  0  0  0  0  0
   31.9979    3.8044   -5.8782 C   0  0  0  0  0  0  0  0  0  0  0  0
   35.6395    3.9120   -6.7227 C   0  0  0  0  0  0  0  0  0  0  0  0
   31.0041    4.6383   -6.7576 C   0  0  0  0  0  0  0  0  0  0  0  0
   31.3759    2.4208   -5.7288 C   0  0  0  0  0  0  0  0  0  0  0  0
   36.8681    4.7094   -4.7409 C   0  0  0  0  0  0  0  0  0  0  0  0
   35.7401    3.4709   -8.0027 F   0  0  0  0  0  0  0  0  0  0  0  0
   33.0905    3.2456   -7.7562 O   0  0  0  0  0  0  0  0  0  0  0  0
   31.4194    1.6066   -6.4295 O   0  0  0  0  0  0  0  0  0  0  0  0
   36.9867    4.2113   -6.1185 C   0  0  0  0  0  0  0  0  0  0  0  0
   38.2672    4.9133   -4.2143 C   0  0  0  0  0  0  0  0  0  0  0  0
   30.9664    2.0221   -4.4490 O   0  0  0  0  0  0  0  0  0  0  0  0
   39.0006    3.7467   -3.8028 C   0  0  0  0  0  0  0  0  0  0  0  0
  1  2  2  0
  2  3  1  0
  2  4  1  0
  3  5  2  0
  4  6  1  0
  5  7  1  0
  6  7  1  0
  4  8  2  0
  7  9  1  0
  7 10  1  0
  1 11  1  0
  8 12  1  0
  6 13  2  0
 10 14  2  0
  8 15  1  0
 11 15  2  0
 11 16  1  0
 10 17  1  0
 16 18  1  0
M  END
>  <ID>  (1) 
conformer_0

$$$$
