
     RDKit          3D

 19 20  0  0  0  0  0  0  0  0999 V2000
   34.7981    4.3788   -7.2747 C   0  0  0  0  0  0  0  0  0  0  0  0
   33.9789    4.0843   -6.3100 C   0  0  0  0  0  0  0  0  0  0  0  0
   34.3258    3.9297   -5.0220 C   0  0  0  0  0  0  0  0  0  0  0  0
   32.5220    4.0585   -6.7249 C   0  0  0  0  0  0  0  0  0  0  0  0
   33.3541    3.5622   -4.0223 C   0  0  0  0  0  0  0  0  0  0  0  0
   31.6221    3.8078   -5.5892 C   0  0  0  0  0  0  0  0  0  0  0  0
   31.9849    3.8157   -4.3932 C   0  0  0  0  0  0  0  0  0  0  0  0
   35.6149    4.1476   -4.5998 C   0  0  0  0  0  0  0  0  0  0  0  0
   36.0912    4.0671   -3.3506 F   0  0  0  0  0  0  0  0  0  0  0  0
   36.6106    4.4659   -5.6848 C   0  0  0  0  0  0  0  0  0  0  0  0
   32.3131    5.2686   -7.4701 C   0  0  0  0  0  0  0  0  0  0  0  0
   38.0403    4.6714   -5.2572 C   0  0  0  0  0  0  0  0  0  0  0  0
   36.1774    4.5852   -6.9294 C   0  0  0  0  0  0  0  0  0  0  0  0
   31.1245    5.7810   -7.0825 O   0  0  0  0  0  0  0  0  0  0  0  0
   38.6675    3.7745   -4.5174 C   0  0  0  0  0  0  0  0  0  0  0  0
   39.5104    4.1272   -3.4913 C   0  0  0  0  0  0  0  0  0  0  0  0
   32.3635    2.7981   -7.4891 C   0  0  0  0  0  0  0  0  0  0  0  0
   31.4228    2.5569   -8.0928 O   0  0  0  0  0  0  0  0  0  0  0  0
   33.0717    1.7921   -7.2282 O   0  0  0  0  0  0  0  0  0  0  0  0
  1  2  2  0
  2  3  1  0
  2  4  1  0
  3  5  1  0
  4  6  1  0
  5  7  1  0
  6  7  1  0
  3  8  2  0
  8  9  1  0
  8 10  1  0
  4 11  1  0
 10 12  1  0
  1 13  1  0
 10 13  2  0
 11 14  1  0
 12 15  1  0
 15 16  1  0
  4 17  1  0
 17 18  2  0
 17 19  1  0
M  END
>  <ID>  (1) 
conformer_0

$$$$
