
     RDKit          3D

 19 20  0  0  0  0  0  0  0  0999 V2000
   37.7620    3.4630   -5.5357 C   0  0  0  0  0  0  0  0  0  0  0  0
   36.6492    4.2077   -5.5573 C   0  0  0  0  0  0  0  0  0  0  0  0
   35.6656    4.0294   -6.6281 C   0  0  0  0  0  0  0  0  0  0  0  0
   36.4672    5.2546   -4.6503 C   0  0  0  0  0  0  0  0  0  0  0  0
   34.5007    3.7515   -6.4566 N   0  0  0  0  0  0  0  0  0  0  0  0
   37.4566    5.3390   -3.6515 C   0  0  0  0  0  0  0  0  0  0  0  0
   33.9173    3.1669   -5.4279 C   0  0  0  0  0  0  0  0  0  0  0  0
   32.4672    3.1754   -5.2995 C   0  0  0  0  0  0  0  0  0  0  0  0
   31.8787    4.3171   -5.1402 C   0  0  0  0  0  0  0  0  0  0  0  0
   36.1631    4.5406   -7.7692 O   0  0  0  0  0  0  0  0  0  0  0  0
   31.9341    2.2986   -6.3850 C   0  0  0  0  0  0  0  0  0  0  0  0
   38.5964    4.5199   -3.5814 C   0  0  0  0  0  0  0  0  0  0  0  0
   33.5903    4.0084   -7.6366 C   0  0  0  0  0  0  0  0  0  0  0  0
   32.1719    3.3330   -7.4101 C   0  0  0  0  0  0  0  0  0  0  0  0
   31.4593    3.0222   -8.6368 N   0  0  0  0  0  0  0  0  0  0  0  0
   38.8399    3.5207   -4.4835 C   0  0  0  0  0  0  0  0  0  0  0  0
   30.2726    2.9300   -8.7935 C   0  0  0  0  0  0  0  0  0  0  0  0
   29.4597    3.1240   -7.8943 N   0  0  0  0  0  0  0  0  0  0  0  0
   29.7642    2.9101  -10.1332 C   0  0  0  0  0  0  0  0  0  0  0  0
  1  2  2  0
  2  3  1  0
  2  4  1  0
  3  5  1  0
  4  6  2  0
  5  7  1  0
  7  8  1  0
  8  9  1  0
  3 10  2  0
  8 11  1  0
  6 12  1  0
  5 13  1  0
 11 14  1  0
 13 14  1  0
 14 15  1  0
  1 16  1  0
 12 16  2  0
 15 17  1  0
 17 18  2  0
 17 19  1  0
M  END
>  <ID>  (1) 
conformer_0

$$$$
