
     RDKit          3D

 19 20  0  0  0  0  0  0  0  0999 V2000
   35.5132    3.8236   -7.0809 C   0  0  0  0  0  0  0  0  0  0  0  0
   36.3963    4.0089   -6.1448 C   0  0  0  0  0  0  0  0  0  0  0  0
   34.2234    3.7779   -6.8922 C   0  0  0  0  0  0  0  0  0  0  0  0
   33.2162    3.5969   -7.9483 N   0  0  0  0  0  0  0  0  0  0  0  0
   33.6664    4.0593   -5.6453 C   0  0  0  0  0  0  0  0  0  0  0  0
   32.0676    3.5895   -7.3440 C   0  0  0  0  0  0  0  0  0  0  0  0
   37.8639    4.0615   -6.2249 O   0  0  0  0  0  0  0  0  0  0  0  0
   38.4545    3.3912   -5.1869 C   0  0  0  0  0  0  0  0  0  0  0  0
   35.8112    4.2384   -4.7847 C   0  0  0  0  0  0  0  0  0  0  0  0
   34.5069    4.2858   -4.5732 C   0  0  0  0  0  0  0  0  0  0  0  0
   30.7696    3.4197   -7.9545 C   0  0  0  0  0  0  0  0  0  0  0  0
   32.3167    3.8682   -5.8058 N   0  0  0  0  0  0  0  0  0  0  0  0
   30.8296    3.1370   -9.2818 N   0  0  0  0  0  0  0  0  0  0  0  0
   38.5917    2.1248   -5.1452 O   0  0  0  0  0  0  0  0  0  0  0  0
   29.6552    3.3061  -10.0310 C   0  0  0  0  0  0  0  0  0  0  0  0
   31.2688    3.9544   -4.7994 C   0  0  0  0  0  0  0  0  0  0  0  0
   39.2570    4.1640   -4.2346 C   0  0  0  0  0  0  0  0  0  0  0  0
   30.8361    2.6519   -4.3643 C   0  0  0  0  0  0  0  0  0  0  0  0
   29.7876    3.0484  -11.3716 O   0  0  0  0  0  0  0  0  0  0  0  0
  1  2  2  0
  1  3  1  0
  3  4  1  0
  3  5  2  0
  4  6  2  0
  2  7  1  0
  7  8  1  0
  2  9  1  0
  5 10  1  0
  9 10  2  0
  6 11  1  0
  5 12  1  0
  6 12  1  0
 11 13  1  0
  8 14  2  0
 13 15  1  0
 12 16  1  0
  8 17  1  0
 16 18  1  0
 15 19  2  0
M  END
>  <ID>  (1) 
conformer_0

$$$$
