
     RDKit          3D

 21 22  0  0  0  0  0  0  0  0999 V2000
   34.3580    4.0237   -7.4653 C   0  0  0  0  0  0  0  0  0  0  0  0
   33.4392    3.8567   -6.5752 C   0  0  0  0  0  0  0  0  0  0  0  0
   33.5986    3.7927   -5.3067 C   0  0  0  0  0  0  0  0  0  0  0  0
   32.4639    3.4955   -4.3500 C   0  0  0  0  0  0  0  0  0  0  0  0
   31.6930    2.3882   -4.8926 C   0  0  0  0  0  0  0  0  0  0  0  0
   32.1918    3.3006   -7.2978 C   0  0  0  0  0  0  0  0  0  0  0  0
   31.0739    2.9891   -6.2162 C   0  0  0  0  0  0  0  0  0  0  0  0
   35.5943    4.6342   -6.9538 C   0  0  0  0  0  0  0  0  0  0  0  0
   32.3022    1.2079   -5.3286 O   0  0  0  0  0  0  0  0  0  0  0  0
   30.5711    1.9060   -4.0416 C   0  0  0  0  0  0  0  0  0  0  0  0
   31.6683    4.2080   -8.1722 O   0  0  0  0  0  0  0  0  0  0  0  0
   35.7565    4.7152   -5.5804 C   0  0  0  0  0  0  0  0  0  0  0  0
   30.3120    4.4957   -8.2085 C   0  0  0  0  0  0  0  0  0  0  0  0
   34.7666    4.3314   -4.7709 C   0  0  0  0  0  0  0  0  0  0  0  0
   37.0762    5.0313   -5.0209 C   0  0  0  0  0  0  0  0  0  0  0  0
   37.7919    4.1340   -4.1969 C   0  0  0  0  0  0  0  0  0  0  0  0
   38.1436    3.0088   -4.6542 O   0  0  0  0  0  0  0  0  0  0  0  0
   29.7520    3.4696   -9.1857 C   0  0  0  0  0  0  0  0  0  0  0  0
   38.5452    4.6922   -3.2646 O   0  0  0  0  0  0  0  0  0  0  0  0
   30.2373    3.2527  -10.2327 O   0  0  0  0  0  0  0  0  0  0  0  0
   29.2652    2.2842   -8.5183 O   0  0  0  0  0  0  0  0  0  0  0  0
  1  2  2  0
  2  3  1  0
  3  4  1  0
  4  5  1  0
  2  6  1  0
  5  7  1  0
  6  7  1  0
  1  8  1  0
  5  9  1  0
  5 10  1  0
  6 11  1  0
  8 12  2  0
 11 13  1  0
  3 14  2  0
 12 14  1  0
 12 15  1  0
 15 16  1  0
 16 17  2  0
 13 18  1  0
 16 19  1  0
 18 20  1  0
 18 21  1  0
M  END
>  <ID>  (1) 
conformer_0

$$$$
