
     RDKit          3D

 21 23  0  0  0  0  0  0  0  0999 V2000
   34.7981    4.3788   -7.2747 C   0  0  0  0  0  0  0  0  0  0  0  0
   33.9789    4.0843   -6.3100 C   0  0  0  0  0  0  0  0  0  0  0  0
   34.3258    3.9297   -5.0220 C   0  0  0  0  0  0  0  0  0  0  0  0
   32.5220    4.0585   -6.7249 C   0  0  0  0  0  0  0  0  0  0  0  0
   33.3541    3.5622   -4.0223 C   0  0  0  0  0  0  0  0  0  0  0  0
   31.6221    3.8078   -5.5892 C   0  0  0  0  0  0  0  0  0  0  0  0
   31.9849    3.8157   -4.3932 C   0  0  0  0  0  0  0  0  0  0  0  0
   35.6149    4.1476   -4.5998 C   0  0  0  0  0  0  0  0  0  0  0  0
   32.2828    2.9296   -7.6857 C   0  0  0  0  0  0  0  0  0  0  0  0
   31.0638    2.4809   -5.9905 C   0  0  0  0  0  0  0  0  0  0  0  0
   36.5760    4.5682   -5.6882 C   0  0  0  0  0  0  0  0  0  0  0  0
   38.0144    4.8049   -5.2088 C   0  0  0  0  0  0  0  0  0  0  0  0
   31.0825    2.3673   -7.3478 N   0  0  0  0  0  0  0  0  0  0  0  0
   31.2303    1.4682   -5.2390 O   0  0  0  0  0  0  0  0  0  0  0  0
   32.2492    5.4034   -7.3131 C   0  0  0  0  0  0  0  0  0  0  0  0
   29.9722    1.7190   -8.0171 C   0  0  0  0  0  0  0  0  0  0  0  0
   38.4401    4.1467   -3.9591 C   0  0  0  0  0  0  0  0  0  0  0  0
   29.3753    2.9588   -8.9335 C   0  0  0  0  0  0  0  0  0  0  0  0
   29.9278    3.8049   -9.5382 O   0  0  0  0  0  0  0  0  0  0  0  0
   36.2693    4.5883   -6.9393 C   0  0  0  0  0  0  0  0  0  0  0  0
   28.0514    2.9013   -9.0801 O   0  0  0  0  0  0  0  0  0  0  0  0
  1  2  2  0
  2  3  1  0
  2  4  1  0
  3  5  1  0
  4  6  1  0
  5  7  1  0
  6  7  1  0
  3  8  2  0
  4  9  1  0
  6 10  1  0
  8 11  1  0
 11 12  1  0
  9 13  1  0
 10 13  1  0
 10 14  2  0
  4 15  1  0
 13 16  1  0
 12 17  1  0
 16 18  1  0
 18 19  1  0
  1 20  1  0
 11 20  2  0
 18 21  2  0
M  END
>  <ID>  (1) 
conformer_0

$$$$
