
     RDKit          3D

 21 22  0  0  0  0  0  0  0  0999 V2000
   33.3881    4.9085   -7.1218 C   0  0  0  0  0  0  0  0  0  0  0  0
   34.3781    4.4577   -6.5395 C   0  0  0  0  0  0  0  0  0  0  0  0
   32.1082    4.4683   -6.5817 C   0  0  0  0  0  0  0  0  0  0  0  0
   34.4517    3.7529   -5.3760 C   0  0  0  0  0  0  0  0  0  0  0  0
   35.7603    4.8867   -7.0551 O   0  0  0  0  0  0  0  0  0  0  0  0
   30.8425    4.9005   -7.3288 C   0  0  0  0  0  0  0  0  0  0  0  0
   33.1873    3.3363   -4.8815 C   0  0  0  0  0  0  0  0  0  0  0  0
   35.6357    3.3142   -4.7568 O   0  0  0  0  0  0  0  0  0  0  0  0
   36.8731    4.0617   -5.0633 C   0  0  0  0  0  0  0  0  0  0  0  0
   30.6239    4.1524   -8.4855 N   0  0  0  0  0  0  0  0  0  0  0  0
   32.1278    3.6750   -5.4977 C   0  0  0  0  0  0  0  0  0  0  0  0
   29.8280    3.3307   -8.6934 C   0  0  0  0  0  0  0  0  0  0  0  0
   37.9311    3.7246   -4.3183 C   0  0  0  0  0  0  0  0  0  0  0  0
   38.5956    2.7601   -4.6132 O   0  0  0  0  0  0  0  0  0  0  0  0
   29.6888    2.6878  -10.0140 C   0  0  0  0  0  0  0  0  0  0  0  0
   30.7744    3.2661   -4.8455 C   0  0  0  0  0  0  0  0  0  0  0  0
   38.4189    4.5878   -3.4417 O   0  0  0  0  0  0  0  0  0  0  0  0
   29.0242    2.9094   -7.7387 O   0  0  0  0  0  0  0  0  0  0  0  0
   30.3325    2.9924  -10.8144 O   0  0  0  0  0  0  0  0  0  0  0  0
   28.7495    1.7326  -10.1315 N   0  0  0  0  0  0  0  0  0  0  0  0
   36.8832    4.2136   -6.5470 C   0  0  0  0  0  0  0  0  0  0  0  0
  1  2  2  0
  1  3  1  0
  2  4  1  0
  2  5  1  0
  3  6  1  0
  4  7  2  0
  4  8  1  0
  8  9  1  0
  6 10  1  0
  3 11  2  0
  7 11  1  0
 10 12  1  0
  9 13  1  0
 13 14  2  0
 12 15  1  0
 11 16  1  0
 13 17  1  0
 12 18  2  0
 15 19  2  0
 15 20  1  0
  5 21  1  0
  9 21  1  0
M  END
>  <ID>  (1) 
conformer_0

$$$$
