
     RDKit          3D

 28 32  0  0  0  0  0  0  0  0999 V2000
   33.9260   29.3449   44.8022 O   0  0  0  0  0  1  0  0  0  0  0  0
   32.9992   27.8788   35.8956 N   0  0  0  0  0  0  0  0  0  0  0  0
   31.9221   26.9967   31.4355 C   0  0  0  0  0  0  0  0  0  0  0  0
   30.5654   27.9835   35.8193 C   0  0  0  0  0  0  0  0  0  0  0  0
   29.5467   28.2877   36.8443 C   0  0  0  0  0  0  0  0  0  0  0  0
   30.1997   28.6636   38.0678 C   0  0  0  0  0  0  0  0  0  0  0  0
   35.6633   28.9553   42.9752 O   0  0  0  0  0  0  0  0  0  0  0  0
   32.2202   26.6806   33.8711 C   0  0  0  0  0  0  0  0  0  0  0  0
   30.0891   27.5560   33.1788 C   0  0  0  0  0  0  0  0  0  0  0  0
   27.5592   27.8197   33.9078 N   0  0  0  0  0  0  0  0  0  0  0  0
   32.2482   29.2769   40.0734 C   0  0  0  0  0  0  0  0  0  0  0  0
   33.1973   29.0344   40.9985 C   0  0  0  0  0  0  0  0  0  0  0  0
   31.6389   28.4826   37.8955 C   0  0  0  0  0  0  0  0  0  0  0  0
   32.5269   28.5596   38.9178 C   0  0  0  0  0  0  0  0  0  0  0  0
   29.0808   27.4983   32.2475 C   0  0  0  0  0  0  0  0  0  0  0  0
   28.3199   28.1489   36.2044 O   0  0  0  0  0  0  0  0  0  0  0  0
   33.8214   27.1733   43.4069 O   0  0  0  0  0  0  0  0  0  0  0  0
   29.8189   27.7740   34.5343 C   0  0  0  0  0  0  0  0  0  0  0  0
   34.1635   28.1710   40.4057 O   0  0  0  0  0  0  0  0  0  0  0  0
   34.1927   28.7006   43.4705 P   0  0  0  0  0  4  0  0  0  0  0  0
   31.8127   28.0566   36.5497 C   0  0  0  0  0  0  0  0  0  0  0  0
   28.4753   27.9046   34.8724 C   0  0  0  0  0  0  0  0  0  0  0  0
   33.1666   29.4864   42.3155 O   0  0  0  0  0  0  0  0  0  0  0  0
   31.4141   27.1854   32.7832 C   0  0  0  0  0  0  0  0  0  0  0  0
   32.9189   27.8438   34.5100 C   0  0  0  0  0  0  0  0  0  0  0  0
   33.7386   27.9068   39.0961 C   0  0  0  0  0  0  0  0  0  0  0  0
   27.8166   27.6375   32.6109 N   0  0  0  0  0  0  0  0  0  0  0  0
   33.4286   28.7505   33.8140 O   0  0  0  0  0  0  0  0  0  0  0  0
  1 20  2  0
  2 21  1  0
  2 25  1  0
  3 24  1  0
  4  5  2  0
  4 18  1  0
  4 21  1  0
  5  6  1  0
  5 16  1  0
  6 13  1  0
  7 20  1  0
  8 24  1  0
  8 25  1  0
  9 15  2  0
  9 18  1  0
  9 24  1  0
 10 22  1  0
 10 27  2  0
 11 12  1  0
 11 14  1  0
 12 19  1  0
 12 23  1  0
 13 14  1  0
 13 21  2  0
 14 26  1  0
 15 27  1  0
 16 22  1  0
 17 20  1  0
 18 22  2  0
 19 26  1  0
 20 23  1  0
 25 28  2  0
M  END
>  <ID>  (1) 
conformer_0

$$$$
