
     RDKit          3D

 23 24  0  0  0  0  0  0  0  0999 V2000
   32.4368   28.1709   38.3886 N   0  0  0  0  0  0  0  0  0  0  0  0
   30.1805   27.3404   32.7582 C   0  0  0  0  0  0  0  0  0  0  0  0
   31.3934   27.3383   33.4475 C   0  0  0  0  0  0  0  0  0  0  0  0
   31.3479   27.6188   34.6926 N   0  0  0  0  0  0  0  0  0  0  0  0
   26.6751   28.1099   33.4130 O   0  0  0  0  0  0  0  0  0  0  0  0
   30.2518   27.0976   31.4065 C   0  0  0  0  0  0  0  0  0  0  0  0
   33.2390   27.4915   36.3237 O   0  0  0  0  0  0  0  0  0  0  0  0
   28.9941   27.6141   33.4880 C   0  0  0  0  0  0  0  0  0  0  0  0
   27.5010   26.9512   31.7580 O   0  0  0  0  0  0  0  0  0  0  0  0
   32.1902   28.1338   37.0298 C   0  0  0  0  0  0  0  0  0  0  0  0
   33.6872   28.5447   42.5523 P   0  0  0  0  0  0  0  0  0  0  0  0
   30.3166   27.9740   35.4524 C   0  0  0  0  0  0  0  0  0  0  0  0
   34.0416   27.6274   43.5535 O   0  0  0  0  0  1  0  0  0  0  0  0
   29.0838   27.9595   34.8290 C   0  0  0  0  0  0  0  0  0  0  0  0
   32.6161   26.7918   31.4948 C   0  0  0  0  0  0  0  0  0  0  0  0
   27.6697   27.5312   32.8328 C   0  0  0  0  0  0  0  0  0  0  0  0
   32.6126   27.0532   32.8085 C   0  0  0  0  0  0  0  0  0  0  0  0
   30.6456   28.4320   36.8718 C   0  0  0  0  0  0  0  0  0  0  0  0
   32.7449   29.5879   42.7022 O   0  0  0  0  0  1  0  0  0  0  0  0
   34.1907   28.2728   41.1490 O   0  0  0  0  0  0  0  0  0  0  0  0
   33.1824   27.9052   40.2189 C   0  0  0  0  0  0  0  0  0  0  0  0
   31.4354   26.8435   30.7917 C   0  0  0  0  0  0  0  0  0  0  0  0
   32.6772   29.0561   39.3595 C   0  0  0  0  0  0  0  0  0  0  0  0
  1 10  1  0
  1 23  1  0
  2  3  1  0
  2  6  1  0
  2  8  2  0
  3  4  2  0
  3 17  1  0
  4 12  1  0
  5 16  2  0
  6 22  2  0
  7 10  2  0
  8 14  1  0
  8 16  1  0
  9 16  1  0
 10 18  1  0
 11 13  1  0
 11 19  1  0
 11 20  1  0
 12 14  2  0
 12 18  1  0
 15 17  2  0
 15 22  1  0
 20 21  1  0
 21 23  1  0
M  END
>  <ID>  (1) 
conformer_0

$$$$
