
     RDKit          3D

 16 18  0  0  0  0  0  0  0  0999 V2000
   32.9769   27.9569   37.7176 C   0  0  0  0  0  0  0  0  0  0  0  0
   33.2967   28.3751   39.5363 S   0  0  0  0  0  4  0  0  0  0  0  0
   34.8183   29.0348   39.5658 N   0  0  0  0  0  0  0  0  0  0  0  0
   33.1146   27.3218   40.4412 O   0  0  0  0  0  0  0  0  0  0  0  0
   31.6550   28.0904   37.1775 C   0  0  0  0  0  0  0  0  0  0  0  0
   27.9294   27.7431   33.8443 N   0  0  0  0  0  0  0  0  0  0  0  0
   31.3477   27.7818   35.8771 C   0  0  0  0  0  0  0  0  0  0  0  0
   32.3948   27.4276   35.0391 C   0  0  0  0  0  0  0  0  0  0  0  0
   28.5582   27.9288   35.3355 O   0  0  0  0  0  0  0  0  0  0  0  0
   34.0251   27.4993   36.8592 C   0  0  0  0  0  0  0  0  0  0  0  0
   31.8911   27.2495   33.5424 C   0  0  0  0  0  0  0  0  0  0  0  0
   30.0705   27.7601   35.1128 C   0  0  0  0  0  0  0  0  0  0  0  0
   32.1126   29.7170   39.7763 C   0  0  0  0  0  0  0  0  0  0  0  0
   30.3132   27.4682   33.7223 C   0  0  0  0  0  0  0  0  0  0  0  0
   29.0893   27.4671   32.9349 C   0  0  0  0  0  0  0  0  0  0  0  0
   33.7056   27.2654   35.4769 C   0  0  0  0  0  0  0  0  0  0  0  0
  1  2  1  0
  1  5  2  0
  1 10  1  0
  2  3  1  0
  2  4  1  0
  2 13  1  0
  5  7  1  0
  6  9  1  0
  6 15  1  0
  7  8  2  0
  7 12  1  0
  8 11  1  0
  8 16  1  0
  9 12  1  0
 10 16  2  0
 11 14  1  0
 12 14  2  0
 14 15  1  0
M  END
>  <ID>  (1) 
conformer_0

$$$$
