
     RDKit          3D

 29 34  0  0  0  0  0  0  0  0999 V2000
   31.7524   27.0650   31.7962 C   0  0  0  0  0  0  0  0  0  0  0  0
   28.2601   28.0729   34.9926 C   0  0  0  0  0  0  0  0  0  0  0  0
   29.3595   28.6787   37.9808 C   0  0  0  0  0  0  0  0  0  0  0  0
   35.0274   28.1888   32.7918 C   0  0  0  0  0  0  0  0  0  0  0  0
   32.8328   29.0679   41.9251 O   0  0  0  0  0  0  0  0  0  0  0  0
   31.8461   28.3100   37.6639 C   0  0  0  0  0  0  0  0  0  0  0  0
   30.5895   28.5522   38.2417 C   0  0  0  0  0  0  0  0  0  0  0  0
   28.1765   28.6175   37.4012 C   0  0  0  0  0  0  0  0  0  0  0  0
   34.2310   28.1128   37.6581 C   0  0  0  0  0  0  0  0  0  0  0  0
   33.5289   27.0122   41.7721 O   0  0  0  0  0  0  0  0  0  0  0  0
   32.7522   27.8689   33.9180 C   0  0  0  0  0  0  0  0  0  0  0  0
   28.4493   27.0223   31.6431 O   0  0  0  0  0  0  0  0  0  0  0  0
   33.8072   27.2855   33.0276 C   0  0  0  0  0  0  0  0  0  0  0  0
   32.9886   28.1810   38.4229 C   0  0  0  0  0  0  0  0  0  0  0  0
   35.9884   28.0652   34.0548 C   0  0  0  0  0  0  0  0  0  0  0  0
   30.7236   28.1891   35.5673 C   0  0  0  0  0  0  0  0  0  0  0  0
   29.7017   28.0118   34.7674 C   0  0  0  0  0  0  0  0  0  0  0  0
   31.8823   28.1960   36.2423 C   0  0  0  0  0  0  0  0  0  0  0  0
   32.8948   28.1022   39.7899 O   0  0  0  0  0  0  0  0  0  0  0  0
   33.2704   28.1090   41.0824 C   0  0  0  0  0  0  0  0  0  0  0  0
   29.9954   27.6825   33.4357 C   0  0  0  0  0  0  0  0  0  0  0  0
   31.4582   27.6598   33.1303 C   0  0  0  0  0  0  0  0  0  0  0  0
   33.0755   28.0674   35.4745 C   0  0  0  0  0  0  0  0  0  0  0  0
   34.2797   28.1334   36.2547 C   0  0  0  0  0  0  0  0  0  0  0  0
   28.6530   27.4573   32.8489 C   0  0  0  0  0  0  0  0  0  0  0  0
   35.5651   28.2307   35.5486 O   0  0  0  0  0  0  0  0  0  0  0  0
   27.6448   27.7439   33.7782 C   0  0  0  0  0  0  0  0  0  0  0  0
   27.6701   28.3663   36.1793 C   0  0  0  0  0  0  0  0  0  0  0  0
   33.1897   26.8994   31.6853 C   0  0  0  0  0  0  0  0  0  0  0  0
  1 22  1  0
  1 29  1  0
  2 17  1  0
  2 27  1  0
  2 28  2  0
  3  7  2  0
  3  8  2  0
  4 13  1  0
  4 15  1  0
  5 20  2  0
  6  7  1  0
  6 14  2  0
  6 18  1  0
  8 28  1  0
  9 14  1  0
  9 24  2  0
 10 20  1  0
 11 13  1  0
 11 22  2  0
 11 23  1  0
 12 25  1  0
 13 29  1  0
 14 19  1  0
 15 26  1  0
 16 17  2  0
 16 18  2  0
 17 21  1  0
 18 23  1  0
 19 20  1  0
 21 22  1  0
 21 25  2  0
 23 24  1  0
 24 26  1  0
 25 27  1  0
M  END
>  <ID>  (1) 
conformer_0

$$$$
