
     RDKit          3D

 39 42  0  0  0  0  0  0  0  0999 V2000
   35.8313   30.6013   36.0608 C   0  0  0  0  0  0  0  0  0  0  0  0
   29.9646   26.8955   31.4550 N   0  0  0  0  0  0  0  0  0  0  0  0
   33.2532   28.5271   43.4036 C   0  0  0  0  0  0  0  0  0  0  0  0
   34.2869   28.8165   37.2676 C   0  0  0  0  0  0  0  0  0  0  0  0
   32.6002   26.8684   33.2361 C   0  0  0  0  0  0  0  0  0  0  0  0
   34.9036   26.5609   35.8214 O   0  0  0  0  0  0  0  0  0  0  0  0
   34.9301   28.8213   34.9008 C   0  0  0  0  0  0  0  0  0  0  0  0
   29.2838   27.7711   34.9583 C   0  0  0  0  0  0  0  0  0  0  0  0
   32.9405   28.9405   36.9669 C   0  0  0  0  0  0  0  0  0  0  0  0
   29.1781   27.5941   36.4707 C   0  0  0  0  0  0  0  0  0  0  0  0
   31.8258   27.7590   34.1822 C   0  0  0  0  0  0  0  0  0  0  0  0
   30.3398   27.6378   34.0104 C   0  0  0  0  0  0  0  0  0  0  0  0
   32.3531   28.6717   39.3111 C   0  0  0  0  0  0  0  0  0  0  0  0
   35.3939   29.1880   36.3072 C   0  0  0  0  0  0  0  0  0  0  0  0
   32.8662   27.5438   31.9008 C   0  0  0  0  0  0  0  0  0  0  0  0
   35.3936   28.2851   41.3584 O   0  0  0  0  0  0  0  0  0  0  0  0
   28.7715   26.7617   30.8422 C   0  0  0  0  0  0  0  0  0  0  0  0
   28.0135   27.3167   36.9674 O   0  0  0  0  0  0  0  0  0  0  0  0
   29.7957   27.3145   32.7209 C   0  0  0  0  0  0  0  0  0  0  0  0
   28.3091   27.3901   32.8308 C   0  0  0  0  0  0  0  0  0  0  0  0
   29.9296   27.4341   37.4301 O   0  0  0  0  0  0  0  0  0  0  0  0
   33.6981   28.5040   39.6506 C   0  0  0  0  0  0  0  0  0  0  0  0
   34.4842   27.4121   34.8589 C   0  0  0  0  0  0  0  0  0  0  0  0
   32.2855   29.9980   41.7000 O   0  0  0  0  0  0  0  0  0  0  0  0
   36.7108   31.5529   37.9316 O   0  0  0  0  0  0  0  0  0  0  0  0
   27.7896   27.0714   31.6588 N   0  0  0  0  0  0  0  0  0  0  0  0
   34.6069   28.4655   38.5866 C   0  0  0  0  0  0  0  0  0  0  0  0
   33.3969   27.0741   43.2410 O   0  0  0  0  0  0  0  0  0  0  0  0
   32.8306   29.5689   44.3877 C   0  0  0  0  0  0  0  0  0  0  0  0
   26.7660   28.2104   34.5930 C   0  0  0  0  0  0  0  0  0  0  0  0
   34.2924   27.9871   32.4121 O   0  0  0  0  0  0  0  0  0  0  0  0
   38.0956   30.6496   36.3872 O   0  0  0  0  0  0  0  0  0  0  0  0
   34.1941   26.9209   33.4823 C   0  0  0  0  0  0  0  0  0  0  0  0
   34.0807   28.3838   41.0546 C   0  0  0  0  0  0  0  0  0  0  0  0
   31.9916   28.8617   37.9899 C   0  0  0  0  0  0  0  0  0  0  0  0
   36.9813   31.0184   36.7926 C   0  0  0  0  0  0  0  0  0  0  0  0
   33.2411   29.1109   42.0279 C   0  0  0  0  0  0  0  0  0  0  0  0
   28.0565   27.7411   34.1400 C   0  0  0  0  0  0  0  0  0  0  0  0
   34.0754   29.7887   34.3637 O   0  0  0  0  0  0  0  0  0  0  0  0
  1 14  1  0
  1 36  1  0
  2 17  1  0
  2 19  1  0
  3 28  1  0
  3 29  1  0
  3 37  1  0
  4  9  2  0
  4 14  1  0
  4 27  1  0
  5 11  1  0
  5 15  1  0
  5 33  1  0
  6 23  1  0
  7 14  1  0
  7 23  1  0
  7 39  1  0
  8 10  1  0
  8 12  1  0
  8 38  1  0
  9 35  1  0
 10 18  2  0
 10 21  1  0
 11 12  1  0
 12 19  1  0
 13 22  1  0
 13 35  2  0
 15 31  1  0
 16 34  1  0
 17 26  1  0
 19 20  2  0
 20 26  1  0
 20 38  1  0
 22 27  2  0
 22 34  1  0
 23 33  1  0
 24 37  1  0
 25 36  2  0
 30 38  1  0
 31 33  1  0
 32 36  1  0
 34 37  1  0
M  END
>  <ID>  (1) 
conformer_0

$$$$
