
     RDKit          3D

 24 25  0  0  0  0  0  0  0  0999 V2000
   28.5128   27.2443   32.3603 C   0  0  0  0  0  0  0  0  0  0  0  0
   32.9270   27.7006   38.1031 C   0  0  0  0  0  0  0  0  0  0  0  0
   27.8043   27.5584   33.4632 N   0  0  0  0  0  0  0  0  0  0  0  0
   33.5539   29.5066   42.6438 C   0  0  0  0  0  0  0  0  0  0  0  0
   33.7753   27.0827   43.1550 O   0  0  0  0  0  0  0  0  0  0  0  0
   32.4319   27.8294   34.1069 C   0  0  0  0  0  0  0  0  0  0  0  0
   32.7267   28.0670   36.6732 C   0  0  0  0  0  0  0  0  0  0  0  0
   30.0042   27.5616   34.0554 C   0  0  0  0  0  0  0  0  0  0  0  0
   31.2406   27.6831   34.7335 C   0  0  0  0  0  0  0  0  0  0  0  0
   31.3690   27.7263   36.1819 C   0  0  0  0  0  0  0  0  0  0  0  0
   27.9143   27.8355   35.8195 C   0  0  0  0  0  0  0  0  0  0  0  0
   30.4526   27.5572   37.0129 O   0  0  0  0  0  0  0  0  0  0  0  0
   30.8823   27.1182   31.7725 C   0  0  0  0  0  0  0  0  0  0  0  0
   32.8456   28.4422   40.4820 C   0  0  0  0  0  0  0  0  0  0  0  0
   27.9976   26.9440   31.2731 O   0  0  0  0  0  0  0  0  0  0  0  0
   33.9149   29.1716   41.2046 C   0  0  0  0  0  0  0  0  0  0  0  0
   32.6375   28.8984   39.0722 C   0  0  0  0  0  0  0  0  0  0  0  0
   34.2187   28.4768   32.6591 C   0  0  0  0  0  0  0  0  0  0  0  0
   32.9287   27.8599   32.8752 C   0  0  0  0  0  0  0  0  0  0  0  0
   32.2097   27.3673   31.7771 C   0  0  0  0  0  0  0  0  0  0  0  0
   34.0036   28.4237   43.6108 C   0  0  0  0  0  0  0  0  0  0  0  0
   32.2456   29.8859   42.7734 O   0  0  0  0  0  0  0  0  0  0  0  0
   29.9128   27.3041   32.7046 C   0  0  0  0  0  0  0  0  0  0  0  0
   28.6865   27.7139   34.5490 C   0  0  0  0  0  0  0  0  0  0  0  0
  1  3  1  0
  1 15  2  0
  1 23  1  0
  2  7  1  0
  2 17  1  0
  3 24  1  0
  4 16  1  0
  4 21  1  0
  4 22  1  0
  5 21  1  0
  6  9  2  0
  6 19  1  0
  7 10  1  0
  8  9  1  0
  8 23  2  0
  8 24  1  0
  9 10  1  0
 10 12  2  0
 11 24  1  0
 13 20  2  0
 13 23  1  0
 14 16  1  0
 14 17  1  0
 18 19  1  0
 19 20  1  0
M  END
>  <ID>  (1) 
conformer_0

$$$$
