
     RDKit          3D

 15 15  0  0  0  0  0  0  0  0999 V2000
   33.6701   27.5195   41.6954 C   0  0  0  0  0  0  0  0  0  0  0  0
   32.6132   28.1538   38.4594 C   0  0  0  0  0  0  0  0  0  0  0  0
   27.7076   27.7035   33.2304 C   0  0  0  0  0  0  0  0  0  0  0  0
   30.0450   27.2839   33.0181 C   0  0  0  0  0  0  0  0  0  0  0  0
   32.9995   27.6868   37.0436 C   0  0  0  0  0  0  0  0  0  0  0  0
   28.8265   27.4286   32.4478 C   0  0  0  0  0  0  0  0  0  0  0  0
   32.9186   29.3374   40.6010 C   0  0  0  0  0  0  0  0  0  0  0  0
   31.5561   27.2377   35.0382 C   0  0  0  0  0  0  0  0  0  0  0  0
   29.1067   27.7283   35.1675 C   0  0  0  0  0  0  0  0  0  0  0  0
   30.2126   27.4352   34.4059 C   0  0  0  0  0  0  0  0  0  0  0  0
   33.3365   28.9313   42.0276 C   0  0  0  0  0  0  0  0  0  0  0  0
   33.2507   27.9349   39.9199 C   0  0  0  0  0  0  0  0  0  0  0  0
   27.8762   27.8339   34.5878 C   0  0  0  0  0  0  0  0  0  0  0  0
   31.2002   26.9352   32.1910 C   0  0  0  0  0  0  0  0  0  0  0  0
   32.0624   28.2512   35.9545 C   0  0  0  0  0  0  0  0  0  0  0  0
  1 11  1  0
  2  5  1  0
  2 12  1  0
  3  6  2  0
  3 13  1  0
  4  6  1  0
  4 10  2  0
  4 14  1  0
  5 15  1  0
  7 11  1  0
  7 12  1  0
  8 10  1  0
  8 15  1  0
  9 10  1  0
  9 13  2  0
M  END
>  <ID>  (1) 
conformer_0

$$$$
