
     RDKit          3D

 26 28  0  0  0  0  0  0  0  0999 V2000
   30.5802   27.5334   32.4023 C   0  0  0  0  0  0  0  0  0  0  0  0
   31.1804   28.5125   38.4471 C   0  0  0  0  0  0  0  0  0  0  0  0
   31.6003   28.3781   35.9787 C   0  0  0  0  0  0  0  0  0  0  0  0
   28.7802   27.8663   35.7804 C   0  0  0  0  0  0  0  0  0  0  0  0
   31.6165   28.2587   34.5190 C   0  0  0  0  0  0  0  0  0  0  0  0
   32.9391   28.5480   34.0205 C   0  0  0  0  0  0  0  0  0  0  0  0
   32.9968   29.7206   42.4308 O   0  0  0  0  0  1  0  0  0  0  0  0
   34.0847   28.6079   42.3520 P   0  0  0  0  0  4  0  0  0  0  0  0
   26.7782   27.7179   34.0009 N   0  0  0  0  0  0  0  0  0  0  0  0
   32.9809   28.4856   36.4291 C   0  0  0  0  0  0  0  0  0  0  0  0
   33.3773   27.8588   37.6714 C   0  0  0  0  0  0  0  0  0  0  0  0
   33.7151   27.3392   43.2026 O   0  0  0  0  0  0  0  0  0  0  0  0
   30.7874   28.5109   37.1196 N   0  0  0  0  0  0  0  0  0  0  0  0
   33.8612   28.5789   35.2495 C   0  0  0  0  0  0  0  0  0  0  0  0
   30.3611   29.0851   39.2292 O   0  0  0  0  0  0  0  0  0  0  0  0
   35.4759   29.1065   42.7646 O   0  0  0  0  0  0  0  0  0  0  0  0
   29.4349   27.3780   31.6511 C   0  0  0  0  0  0  0  0  0  0  0  0
   28.2304   27.4859   32.1704 N   0  0  0  0  0  0  0  0  0  0  0  0
   31.8952   27.3014   31.7409 C   0  0  0  0  0  0  0  0  0  0  0  0
   30.4364   27.8718   33.7691 C   0  0  0  0  0  0  0  0  0  0  0  0
   34.1477   28.2171   40.7459 O   0  0  0  0  0  0  0  0  0  0  0  0
   33.0247   27.6466   40.1161 C   0  0  0  0  0  0  0  0  0  0  0  0
   29.1598   27.8375   34.3596 C   0  0  0  0  0  0  0  0  0  0  0  0
   32.5038   28.0856   38.8137 C   0  0  0  0  0  0  0  0  0  0  0  0
   34.6971   27.2220   37.5940 C   0  0  0  0  0  0  0  0  0  0  0  0
   28.0341   27.6906   33.4852 C   0  0  0  0  0  0  0  0  0  0  0  0
  1 17  1  0
  1 19  1  0
  1 20  2  0
  2 13  1  0
  2 15  2  0
  2 24  1  0
  3  5  1  0
  3 10  1  0
  3 13  2  0
  4 23  1  0
  5  6  1  0
  5 20  1  0
  6 14  1  0
  7  8  2  0
  8 12  1  0
  8 16  1  0
  8 21  1  0
  9 26  2  0
 10 11  1  0
 10 14  1  0
 11 24  1  0
 11 25  1  0
 17 18  2  0
 18 26  1  0
 20 23  1  0
 21 22  1  0
 22 24  1  0
 23 26  1  0
M  END
>  <ID>  (1) 
conformer_0

$$$$
