
     RDKit          3D

 16 16  0  0  0  0  0  0  0  0999 V2000
   30.1577   28.0042   35.7066 C   0  0  0  0  0  0  0  0  0  0  0  0
   32.7618   27.3988   35.1024 C   0  0  0  0  0  0  0  0  0  0  0  0
   33.4365   27.2876   42.2584 O   0  0  0  0  0  0  0  0  0  0  0  0
   35.0237   28.5933   41.5147 O   0  0  0  0  0  0  0  0  0  0  0  0
   32.7644   27.6844   39.1868 C   0  0  0  0  0  0  0  0  0  0  0  0
   33.6573   27.5604   37.6933 S   0  0  0  0  0  0  0  0  0  0  0  0
   27.8312   27.1371   31.9852 C   0  0  0  0  0  0  0  0  0  0  0  0
   28.2837   27.5428   33.3461 C   0  0  0  0  0  0  0  0  0  0  0  0
   31.1015   27.9882   36.6886 C   0  0  0  0  0  0  0  0  0  0  0  0
   30.4801   27.7515   34.3931 C   0  0  0  0  0  0  0  0  0  0  0  0
   27.5402   27.4948   34.3240 O   0  0  0  0  0  0  0  0  0  0  0  0
   31.7980   27.4385   34.1097 N   0  0  0  0  0  0  0  0  0  0  0  0
   33.8066   28.1987   41.4440 C   0  0  0  0  0  0  0  0  0  0  0  0
   32.9666   28.7045   40.3213 C   0  0  0  0  0  0  0  0  0  0  0  0
   32.4106   27.6746   36.4208 C   0  0  0  0  0  0  0  0  0  0  0  0
   29.6200   27.8527   33.3665 N   0  0  0  0  0  0  0  0  0  0  0  0
  1  9  2  0
  1 10  1  0
  2 12  1  0
  2 15  2  0
  3 13  2  0
  4 13  1  0
  5  6  1  0
  5 14  1  0
  6 15  1  0
  7  8  1  0
  8 11  2  0
  8 16  1  0
  9 15  1  0
 10 12  2  0
 10 16  1  0
 13 14  1  0
M  END
>  <ID>  (1) 
conformer_0

$$$$
