
     RDKit          3D

 33 34  0  0  0  0  0  0  0  0999 V2000
   31.7125   29.6029   39.7007 O   0  0  0  0  0  0  0  0  0  0  0  0
   34.7058   29.8876   33.0738 C   0  0  0  0  0  0  0  0  0  0  0  0
   32.8238   29.7355   39.0200 C   0  0  0  0  0  0  0  0  0  0  0  0
   27.5044   27.7602   33.7390 N   0  0  0  0  0  0  0  0  0  0  0  0
   27.0000   28.6318   35.9967 C   0  0  0  0  0  0  0  0  0  0  0  0
   29.6343   27.2341   33.1188 N   0  0  0  0  0  0  0  0  0  0  0  0
   34.1947   30.8949   40.5597 O   0  0  0  0  0  0  0  0  0  0  0  0
   33.6882   30.9839   39.1677 C   0  0  0  0  0  0  0  0  0  0  0  0
   32.7088   24.8976   41.7189 C   0  0  0  0  0  0  0  0  0  0  0  0
   29.6145   28.3534   36.6902 C   0  0  0  0  0  0  0  0  0  0  0  0
   28.7570   28.7643   37.6659 C   0  0  0  0  0  0  0  0  0  0  0  0
   29.2061   28.1064   35.3437 C   0  0  0  0  0  0  0  0  0  0  0  0
   30.8772   28.0842   37.0394 O   0  0  0  0  0  0  0  0  0  0  0  0
   32.8097   25.3984   40.4389 O   0  0  0  0  0  0  0  0  0  0  0  0
   33.6150   28.5961   38.5032 C   0  0  0  0  0  0  0  0  0  0  0  0
   33.1825   25.4143   42.8667 O   0  0  0  0  0  0  0  0  0  0  0  0
   33.7554   29.4802   36.0800 C   0  0  0  0  0  0  0  0  0  0  0  0
   28.3006   27.2972   32.7755 C   0  0  0  0  0  0  0  0  0  0  0  0
   33.0954   26.7380   40.2041 C   0  0  0  0  0  0  0  0  0  0  0  0
   27.4540   28.9146   37.3013 C   0  0  0  0  0  0  0  0  0  0  0  0
   35.1633   27.5892   35.4948 O   0  0  0  0  0  0  0  0  0  0  0  0
   27.8621   28.1836   35.0168 C   0  0  0  0  0  0  0  0  0  0  0  0
   34.2749   28.6446   33.5708 C   0  0  0  0  0  0  0  0  0  0  0  0
   32.9942   27.2017   38.7980 C   0  0  0  0  0  0  0  0  0  0  0  0
   34.5532   29.2144   37.4345 C   0  0  0  0  0  0  0  0  0  0  0  0
   31.3095   28.5691   34.2555 C   0  0  0  0  0  0  0  0  0  0  0  0
   27.8982   26.9732   31.6204 O   0  0  0  0  0  0  0  0  0  0  0  0
   32.3720   27.4364   34.3322 C   0  0  0  0  0  0  0  0  0  0  0  0
   32.5916   27.9444   31.9144 O   0  0  0  0  0  0  0  0  0  0  0  0
   33.2294   27.6819   33.0936 C   0  0  0  0  0  0  0  0  0  0  0  0
   34.3533   28.5589   35.0471 C   0  0  0  0  0  0  0  0  0  0  0  0
   33.5772   27.4790   41.0619 O   0  0  0  0  0  0  0  0  0  0  0  0
   30.0594   27.8088   34.2533 C   0  0  0  0  0  0  0  0  0  0  0  0
  1  3  1  0
  2 23  1  0
  3  8  1  0
  3 15  1  0
  4 18  1  0
  4 22  2  0
  5 20  2  0
  5 22  1  0
  6 18  1  0
  6 33  1  0
  7  8  1  0
  9 14  1  0
  9 16  1  0
 10 11  2  0
 10 12  1  0
 10 13  1  0
 11 20  1  0
 12 22  1  0
 12 33  1  0
 14 19  1  0
 15 24  1  0
 15 25  1  0
 17 25  1  0
 17 31  1  0
 18 27  2  0
 19 24  1  0
 19 32  2  0
 21 31  1  0
 23 30  1  0
 23 31  1  0
 26 28  1  0
 26 33  1  0
 28 30  1  0
 29 30  1  0
M  END
>  <ID>  (1) 
conformer_0

$$$$
