
     RDKit          3D

 25 27  0  0  0  0  0  0  0  0999 V2000
   29.4819   27.4943   32.7956 C   0  0  0  0  0  0  0  0  0  0  0  0
   34.0635   26.7409   34.6572 C   0  0  0  0  0  0  0  0  0  0  0  0
   33.1493   28.6984   36.7366 O   0  0  0  0  0  0  0  0  0  0  0  0
   34.6831   26.6140   36.0469 C   0  0  0  0  0  0  0  0  0  0  0  0
   33.6283   28.7772   42.1647 P   0  0  0  0  0  4  0  0  0  0  0  0
   32.2217   28.0694   35.8326 C   0  0  0  0  0  0  0  0  0  0  0  0
   31.7223   27.2079   33.6946 N   0  0  0  0  0  0  0  0  0  0  0  0
   27.4815   27.7960   35.0316 C   0  0  0  0  0  0  0  0  0  0  0  0
   29.9871   27.9281   35.1679 C   0  0  0  0  0  0  0  0  0  0  0  0
   30.9341   28.2743   36.0380 N   0  0  0  0  0  0  0  0  0  0  0  0
   33.6015   28.5392   40.4160 C   0  0  0  0  0  0  0  0  0  0  0  0
   32.8529   27.3318   39.9131 C   0  0  0  0  0  0  0  0  0  0  0  0
   32.4033   29.6041   42.6218 O   0  0  0  0  0  1  0  0  0  0  0  0
   32.7120   29.0381   38.0990 C   0  0  0  0  0  0  0  0  0  0  0  0
   33.7271   27.4905   42.9931 O   0  0  0  0  0  0  0  0  0  0  0  0
   28.6439   27.9890   35.6185 C   0  0  0  0  0  0  0  0  0  0  0  0
   33.4974   29.6098   39.3118 C   0  0  0  0  0  0  0  0  0  0  0  0
   32.6843   27.3352   34.7229 C   0  0  0  0  0  0  0  0  0  0  0  0
   34.9165   29.6776   42.4404 O   0  0  0  0  0  0  0  0  0  0  0  0
   32.1869   26.6536   32.5183 O   0  0  0  0  0  0  0  0  0  0  0  0
   30.3691   27.5335   33.8559 C   0  0  0  0  0  0  0  0  0  0  0  0
   27.2160   27.5798   33.7072 C   0  0  0  0  0  0  0  0  0  0  0  0
   28.1611   27.5277   32.7046 C   0  0  0  0  0  0  0  0  0  0  0  0
   31.9886   27.8044   38.6927 C   0  0  0  0  0  0  0  0  0  0  0  0
   34.7861   30.0535   38.8323 O   0  0  0  0  0  0  0  0  0  0  0  0
  1 21  1  0
  1 23  2  0
  2  4  1  0
  2 18  1  0
  3  6  1  0
  3 14  1  0
  5 11  1  0
  5 13  2  0
  5 15  1  0
  5 19  1  0
  6 10  2  0
  6 18  1  0
  7 18  1  0
  7 20  1  0
  7 21  1  0
  8 16  2  0
  8 22  1  0
  9 10  1  0
  9 16  1  0
  9 21  1  0
 11 12  1  0
 11 17  1  0
 12 24  1  0
 14 17  1  0
 14 24  1  0
 17 25  1  0
 22 23  1  0
M  END
>  <ID>  (1) 
conformer_0

$$$$
