
     RDKit          3D

 24 26  0  0  0  0  0  0  0  0999 V2000
   28.6268   28.0164   36.5983 C   0  0  0  0  0  0  0  0  0  0  0  0
   26.8343   27.5399   34.3526 N   0  0  0  0  0  0  0  0  0  0  0  0
   32.7486   26.3983   34.5846 F   0  0  0  0  0  0  0  0  0  0  0  0
   32.3343   27.2332   33.6649 C   0  0  0  0  0  0  0  0  0  0  0  0
   32.6404   26.6888   32.5188 F   0  0  0  0  0  0  0  0  0  0  0  0
   32.2502   28.7559   39.3855 C   0  0  0  0  0  0  0  0  0  0  0  0
   29.9893   27.6724   32.6811 C   0  0  0  0  0  0  0  0  0  0  0  0
   29.5093   28.3961   37.5626 N   0  0  0  0  0  0  0  0  0  0  0  0
   31.1874   27.9373   35.9912 N   0  0  0  0  0  0  0  0  0  0  0  0
   34.6305   28.6902   39.1527 C   0  0  0  0  0  0  0  0  0  0  0  0
   30.3571   27.7554   34.9865 C   0  0  0  0  0  0  0  0  0  0  0  0
   28.1202   27.6991   34.1928 C   0  0  0  0  0  0  0  0  0  0  0  0
   34.4840   28.3799   37.8215 C   0  0  0  0  0  0  0  0  0  0  0  0
   30.8751   28.2553   37.2292 C   0  0  0  0  0  0  0  0  0  0  0  0
   33.5186   28.8628   39.9426 C   0  0  0  0  0  0  0  0  0  0  0  0
   33.2797   28.2366   37.3188 C   0  0  0  0  0  0  0  0  0  0  0  0
   30.8856   27.5479   33.7225 C   0  0  0  0  0  0  0  0  0  0  0  0
   33.7074   29.1318   41.3350 O   0  0  0  0  0  0  0  0  0  0  0  0
   28.9748   27.8245   35.2855 C   0  0  0  0  0  0  0  0  0  0  0  0
   32.1082   28.4327   38.0546 C   0  0  0  0  0  0  0  0  0  0  0  0
   28.6340   27.7350   32.9158 N   0  0  0  0  0  0  0  0  0  0  0  0
   33.0509   28.3396   33.8405 F   0  0  0  0  0  0  0  0  0  0  0  0
   28.6688   28.9332   38.7829 C   0  0  0  0  0  0  0  0  0  0  0  0
   29.3301   30.0773   39.4586 C   0  0  0  0  0  0  0  0  0  0  0  0
  1  8  1  0
  1 19  2  0
  2 12  2  0
  3  4  1  0
  4  5  1  0
  4 17  1  0
  4 22  1  0
  6 15  2  0
  6 20  1  0
  7 17  1  0
  7 21  2  0
  8 14  1  0
  8 23  1  0
  9 11  1  0
  9 14  2  0
 10 13  2  0
 10 15  1  0
 11 17  2  0
 11 19  1  0
 12 19  1  0
 12 21  1  0
 13 16  1  0
 14 20  1  0
 15 18  1  0
 16 20  2  0
 23 24  1  0
M  END
>  <ID>  (1) 
conformer_0

$$$$
