
     RDKit          3D

 28 31  0  0  0  0  0  0  0  0999 V2000
   33.7755   27.7324   35.2921 C   0  0  0  0  0  0  0  0  0  0  0  0
   30.2756   27.6825   35.3333 C   0  0  0  0  0  0  0  0  0  0  0  0
   32.2787   27.9909   38.6462 C   0  0  0  0  0  0  0  0  0  0  0  0
   33.3216   26.7072   41.9290 C   0  0  0  0  0  0  0  0  0  0  0  0
   28.2291   27.6464   33.4903 C   0  0  0  0  0  0  0  0  0  0  0  0
   33.8856   27.7323   32.8703 C   0  0  0  0  0  0  0  0  0  0  0  0
   35.7349   28.5709   34.1718 C   0  0  0  0  0  0  0  0  0  0  0  0
   32.2950   27.5770   39.9553 C   0  0  0  0  0  0  0  0  0  0  0  0
   33.3243   27.6202   36.5586 N   0  0  0  0  0  0  0  0  0  0  0  0
   34.6618   27.5237   40.0491 C   0  0  0  0  0  0  0  0  0  0  0  0
   27.9572   27.9744   34.8259 C   0  0  0  0  0  0  0  0  0  0  0  0
   33.4720   27.8705   37.9324 C   0  0  0  0  0  0  0  0  0  0  0  0
   27.2162   27.5783   32.5915 O   0  0  0  0  0  0  0  0  0  0  0  0
   35.1462   28.3113   32.9136 C   0  0  0  0  0  0  0  0  0  0  0  0
   31.6036   30.0110   37.3862 O   0  0  0  0  0  0  0  0  0  0  0  0
   29.7055   28.7374   38.1256 C   0  0  0  0  0  0  0  0  0  0  0  0
   33.4499   27.3111   40.6686 C   0  0  0  0  0  0  0  0  0  0  0  0
   31.8769   26.7760   33.6985 C   0  0  0  0  0  0  0  0  0  0  0  0
   33.7458   26.6893   43.1345 O   0  0  0  0  0  0  0  0  0  0  0  0
   31.1459   28.6835   37.9141 C   0  0  0  0  0  0  0  0  0  0  0  0
   28.7574   28.3748   37.1421 N   0  0  0  0  0  0  0  0  0  0  0  0
   29.5421   27.3416   33.0719 C   0  0  0  0  0  0  0  0  0  0  0  0
   28.9962   28.0141   35.7731 C   0  0  0  0  0  0  0  0  0  0  0  0
   33.1473   27.4234   33.9887 C   0  0  0  0  0  0  0  0  0  0  0  0
   34.6636   27.8720   38.6708 C   0  0  0  0  0  0  0  0  0  0  0  0
   29.2975   29.3510   39.1612 O   0  0  0  0  0  0  0  0  0  0  0  0
   35.0522   28.2409   35.2712 C   0  0  0  0  0  0  0  0  0  0  0  0
   30.5502   27.3081   34.0344 C   0  0  0  0  0  0  0  0  0  0  0  0
  1  9  2  0
  1 24  1  0
  1 27  1  0
  2 23  2  0
  2 28  1  0
  3  8  2  0
  3 12  1  0
  3 20  1  0
  4 17  1  0
  4 19  2  0
  5 11  2  0
  5 13  1  0
  5 22  1  0
  6 14  1  0
  6 24  2  0
  7 14  1  0
  7 27  2  0
  8 17  1  0
  9 12  1  0
 10 17  2  0
 10 25  1  0
 11 23  1  0
 12 25  1  0
 15 20  1  0
 16 20  1  0
 16 21  1  0
 16 26  2  0
 18 24  1  0
 18 28  1  0
 21 23  1  0
 22 28  2  0
M  END
>  <ID>  (1) 
conformer_0

$$$$
