
     RDKit          3D

 42 46  0  0  0  0  0  0  0  0999 V2000
   33.3961   27.1573   35.0037 C   0  0  0  0  0  0  0  0  0  0  0  0
   35.4183   28.4549   39.7779 O   0  0  0  0  0  1  0  0  0  0  0  0
   36.7505   30.1155   36.4361 C   0  0  0  0  0  0  0  0  0  0  0  0
   33.6280   28.4906   34.4775 C   0  0  0  0  0  0  0  0  0  0  0  0
   30.1813   29.4040   36.0217 C   0  0  0  0  0  0  0  0  0  0  0  0
   32.9451   28.5364   33.2373 C   0  0  0  0  0  0  0  0  0  0  0  0
   32.5532   26.4340   34.0690 C   0  0  0  0  0  0  0  0  0  0  0  0
   35.7276   29.4033   37.0786 C   0  0  0  0  0  0  0  0  0  0  0  0
   32.1327   30.2273   37.4108 C   0  0  0  0  0  0  0  0  0  0  0  0
   32.3764   31.0941   38.7096 C   0  0  0  0  0  0  0  0  0  0  0  0
   34.4025   29.4358   35.2194 N   0  0  0  0  0  0  0  0  0  0  0  0
   34.4469   29.3102   36.5992 C   0  0  0  0  0  0  0  0  0  0  0  0
   33.8402   26.5933   38.9820 O   0  0  0  0  0  0  0  0  0  0  0  0
   27.6437   27.4563   32.7960 N   0  0  0  0  0  0  0  0  0  0  0  0
   33.0273   28.9311   39.0373 O   0  0  0  0  0  0  0  0  0  0  0  0
   33.1458   27.0561   30.2150 C   0  0  0  0  0  0  0  0  0  0  0  0
   30.7828   29.5895   37.3357 C   0  0  0  0  0  0  0  0  0  0  0  0
   32.2259   31.1760   36.2946 O   0  0  0  0  0  0  0  0  0  0  0  0
   32.1862   27.3089   32.9985 C   0  0  0  0  0  0  0  0  0  0  0  0
   32.4346   29.3080   42.7080 O   0  0  0  0  0  1  0  0  0  0  0  0
   29.8546   26.9885   31.9082 C   0  0  0  0  0  0  0  0  0  0  0  0
   29.9544   28.8885   38.3312 C   0  0  0  0  0  0  0  0  0  0  0  0
   29.2673   28.4264   35.3586 C   0  0  0  0  0  0  0  0  0  0  0  0
   26.7876   27.5357   33.8194 C   0  0  0  0  0  0  0  0  0  0  0  0
   33.5640   27.2696   43.6626 O   0  0  0  0  0  0  0  0  0  0  0  0
   28.0724   27.8602   35.9090 C   0  0  0  0  0  0  0  0  0  0  0  0
   36.4196   30.7042   35.1681 C   0  0  0  0  0  0  0  0  0  0  0  0
   31.2861   26.9208   31.9672 N   0  0  0  0  0  0  0  0  0  0  0  0
   26.9463   27.6470   35.1625 C   0  0  0  0  0  0  0  0  0  0  0  0
   29.5518   28.1103   34.0967 C   0  0  0  0  0  0  0  0  0  0  0  0
   28.0383   27.5981   37.2667 O   0  0  0  0  0  0  0  0  0  0  0  0
   34.0346   27.8783   39.7173 P   0  0  0  0  0  4  0  0  0  0  0  0
   33.6633   27.6754   41.2666 N   0  0  0  0  0  0  0  0  0  0  0  0
   29.0532   26.4012   30.6336 C   0  0  0  0  0  0  0  0  0  0  0  0
   34.9468   29.1401   42.7873 O   0  0  0  0  0  0  0  0  0  0  0  0
   31.8309   26.4042   30.5693 C   0  0  0  0  0  0  0  0  0  0  0  0
   32.7562   30.1378   39.7351 C   0  0  0  0  0  0  0  0  0  0  0  0
   29.0082   27.5340   33.0000 C   0  0  0  0  0  0  0  0  0  0  0  0
   33.1659   29.1365   37.5338 C   0  0  0  0  0  0  0  0  0  0  0  0
   28.6005   28.5167   38.0993 N   0  0  0  0  0  0  0  0  0  0  0  0
   35.2618   30.3594   34.6082 C   0  0  0  0  0  0  0  0  0  0  0  0
   33.6169   28.4018   42.6411 P   0  0  0  0  0  4  0  0  0  0  0  0
  1  4  1  0
  1  7  1  0
  2 32  2  0
  3  8  2  0
  3 27  1  0
  4  6  1  0
  4 11  1  0
  5 17  1  0
  5 23  1  0
  6 19  1  0
  7 19  1  0
  8 12  1  0
  9 10  1  0
  9 17  1  0
  9 18  1  0
  9 39  1  0
 10 37  1  0
 11 12  1  0
 11 41  1  0
 12 39  1  0
 13 32  1  0
 14 24  2  0
 14 38  1  0
 15 32  1  0
 15 37  1  0
 16 36  1  0
 17 22  1  0
 19 28  1  0
 20 42  2  0
 21 28  1  0
 21 34  1  0
 21 38  2  0
 22 40  1  0
 23 26  1  0
 23 30  2  0
 24 29  1  0
 25 42  1  0
 26 29  1  0
 26 31  1  0
 27 41  2  0
 28 36  1  0
 30 38  1  0
 31 40  1  0
 32 33  1  0
 33 42  1  0
 35 42  1  0
M  END
>  <ID>  (1) 
conformer_0

$$$$
