
     RDKit          3D

 22 23  0  0  0  0  0  0  0  0999 V2000
   27.4299   27.7639   33.0795 N   0  0  0  0  0  0  0  0  0  0  0  0
   30.4314   28.1443   36.6026 N   0  0  0  0  0  0  0  0  0  0  0  0
   31.7638   29.2662   39.7981 O   0  0  0  0  0  0  0  0  0  0  0  0
   31.7914   27.8354   34.2073 N   0  0  0  0  0  0  0  0  0  0  0  0
   32.5231   28.2382   37.9298 N   0  0  0  0  0  0  0  0  0  0  0  0
   32.4617   27.8813   35.4214 C   0  0  0  0  0  0  0  0  0  0  0  0
   34.5110   28.4138   41.2208 O   0  0  0  0  0  0  0  0  0  0  0  0
   34.1600   28.8372   39.8423 C   0  0  0  0  0  0  0  0  0  0  0  0
   31.7695   28.0873   36.6611 C   0  0  0  0  0  0  0  0  0  0  0  0
   33.6756   27.0237   32.5972 C   0  0  0  0  0  0  0  0  0  0  0  0
   32.7956   28.5921   39.3123 C   0  0  0  0  0  0  0  0  0  0  0  0
   30.4332   27.8544   34.1899 C   0  0  0  0  0  0  0  0  0  0  0  0
   32.4686   27.8403   32.7964 C   0  0  0  0  0  0  0  0  0  0  0  0
   28.3180   27.9919   35.3665 C   0  0  0  0  0  0  0  0  0  0  0  0
   33.6865   27.3674   41.8822 P   0  0  0  0  0  0  0  0  0  0  0  0
   28.6205   27.7108   32.4075 C   0  0  0  0  0  0  0  0  0  0  0  0
   34.3134   27.6737   35.5338 S   0  0  0  0  0  0  0  0  0  0  0  0
   29.7618   28.0011   35.4329 C   0  0  0  0  0  0  0  0  0  0  0  0
   27.4290   27.8837   34.4357 C   0  0  0  0  0  0  0  0  0  0  0  0
   33.5961   27.3386   43.2898 O   0  0  0  0  0  1  0  0  0  0  0  0
   29.7970   27.7594   32.9767 C   0  0  0  0  0  0  0  0  0  0  0  0
   33.1052   26.3691   41.0936 O   0  0  0  0  0  1  0  0  0  0  0  0
  1 16  1  0
  1 19  2  0
  2  9  2  0
  2 18  1  0
  3 11  2  0
  4  6  1  0
  4 12  1  0
  4 13  1  0
  5  9  1  0
  5 11  1  0
  6  9  1  0
  6 17  2  0
  7  8  1  0
  7 15  1  0
  8 11  1  0
 10 13  1  0
 12 18  1  0
 12 21  1  0
 14 18  2  0
 14 19  1  0
 15 20  1  0
 15 22  1  0
 16 21  2  0
M  END
>  <ID>  (1) 
conformer_0

$$$$
