
     RDKit          3D

 28 32  0  0  0  0  0  0  0  0999 V2000
   29.4300   28.7442   38.6586 O   0  0  0  0  0  0  0  0  0  0  0  0
   33.7828   29.9434   40.2352 C   0  0  0  0  0  0  0  0  0  0  0  0
   30.6458   28.3751   36.6018 C   0  0  0  0  0  0  0  0  0  0  0  0
   29.4155   27.7587   34.6430 C   0  0  0  0  0  0  0  0  0  0  0  0
   30.4704   27.2334   32.6146 C   0  0  0  0  0  0  0  0  0  0  0  0
   33.6247   28.5650   40.0353 C   0  0  0  0  0  0  0  0  0  0  0  0
   33.7742   27.9447   38.6879 C   0  0  0  0  0  0  0  0  0  0  0  0
   29.5173   27.9263   36.0091 C   0  0  0  0  0  0  0  0  0  0  0  0
   32.7316   28.3580   37.6870 C   0  0  0  0  0  0  0  0  0  0  0  0
   32.0829   28.2411   36.0859 C   0  0  0  0  0  0  0  0  0  0  0  0
   31.8056   27.6058   34.6813 N   0  0  0  0  0  0  0  0  0  0  0  0
   33.6530   28.8115   35.4970 C   0  0  0  0  0  0  0  0  0  0  0  0
   30.6279   27.5471   33.9506 C   0  0  0  0  0  0  0  0  0  0  0  0
   29.5412   27.0115   31.6424 C   0  0  0  0  0  0  0  0  0  0  0  0
   30.0181   26.4756   30.3981 C   0  0  0  0  0  0  0  0  0  0  0  0
   34.1615   27.3706   34.9881 C   0  0  0  0  0  0  0  0  0  0  0  0
   30.4820   28.7506   38.0176 C   0  0  0  0  0  0  0  0  0  0  0  0
   28.1651   27.2341   31.7044 N   0  0  0  0  0  0  0  0  0  0  0  0
   33.4578   27.5511   43.5704 O   0  0  0  0  0  0  0  0  0  0  0  0
   33.8050   30.4786   41.4704 C   0  0  0  0  0  0  0  0  0  0  0  0
   33.5167   28.3388   42.4348 C   0  0  0  0  0  0  0  0  0  0  0  0
   32.9672   26.8369   34.2287 C   0  0  0  0  0  0  0  0  0  0  0  0
   28.1155   27.7773   34.0719 C   0  0  0  0  0  0  0  0  0  0  0  0
   27.0054   28.0803   35.0406 C   0  0  0  0  0  0  0  0  0  0  0  0
   33.4520   27.7635   41.1735 C   0  0  0  0  0  0  0  0  0  0  0  0
   31.6936   29.0493   38.3662 N   0  0  0  0  0  0  0  0  0  0  0  0
   27.6545   27.5781   32.8257 C   0  0  0  0  0  0  0  0  0  0  0  0
   33.6866   29.7034   42.6176 C   0  0  0  0  0  0  0  0  0  0  0  0
  1 17  2  0
  2  6  2  0
  2 20  1  0
  3  8  1  0
  3 10  1  0
  3 17  1  0
  4  8  1  0
  4 13  1  0
  4 23  2  0
  5 13  1  0
  5 14  2  0
  6  7  1  0
  6 25  1  0
  7  9  1  0
  9 10  1  0
  9 26  1  0
 10 11  1  0
 10 12  1  0
 11 13  1  0
 11 22  1  0
 12 16  1  0
 14 15  1  0
 14 18  1  0
 16 22  1  0
 17 26  1  0
 18 27  2  0
 19 21  1  0
 20 28  2  0
 21 25  2  0
 21 28  1  0
 23 24  1  0
 23 27  1  0
M  END
>  <ID>  (1) 
conformer_0

$$$$
