
     RDKit          3D

 23 25  0  0  0  0  0  0  0  0999 V2000
   31.6406   28.2025   37.1817 N   0  0  0  0  0  0  0  0  0  0  0  0
   33.1382   28.3014   40.5802 C   0  0  0  0  0  0  0  0  0  0  0  0
   27.0869   27.9324   33.3771 C   0  0  0  0  0  0  0  0  0  0  0  0
   29.8626   27.4997   33.5923 C   0  0  0  0  0  0  0  0  0  0  0  0
   31.1676   27.2997   33.5857 N   0  0  0  0  0  0  0  0  0  0  0  0
   33.1380   29.3872   41.7107 C   0  0  0  0  0  0  0  0  0  0  0  0
   32.1945   27.3477   34.4091 C   0  0  0  0  0  0  0  0  0  0  0  0
   29.6422   28.1115   35.9358 C   0  0  0  0  0  0  0  0  0  0  0  0
   33.6114   28.1702   43.7518 C   0  0  0  0  0  0  0  0  0  0  0  0
   30.9097   28.0444   36.2747 N   0  0  0  0  0  0  0  0  0  0  0  0
   29.0594   27.8831   34.6768 C   0  0  0  0  0  0  0  0  0  0  0  0
   33.4888   27.0452   33.9669 C   0  0  0  0  0  0  0  0  0  0  0  0
   34.6184   27.1239   34.8189 C   0  0  0  0  0  0  0  0  0  0  0  0
   27.7088   28.0901   34.5956 C   0  0  0  0  0  0  0  0  0  0  0  0
   34.3885   27.5162   36.1224 C   0  0  0  0  0  0  0  0  0  0  0  0
   34.2699   28.9942   42.6625 C   0  0  0  0  0  0  0  0  0  0  0  0
   33.1570   26.7900   43.2603 C   0  0  0  0  0  0  0  0  0  0  0  0
   27.8251   27.5657   32.3097 N   0  0  0  0  0  0  0  0  0  0  0  0
   32.7500   28.9643   39.3157 C   0  0  0  0  0  0  0  0  0  0  0  0
   29.1578   27.3540   32.3992 N   0  0  0  0  0  0  0  0  0  0  0  0
   32.0414   27.7588   35.8498 C   0  0  0  0  0  0  0  0  0  0  0  0
   33.0961   27.8097   36.5122 N   0  0  0  0  0  0  0  0  0  0  0  0
   31.4958   28.4999   38.5743 C   0  0  0  0  0  0  0  0  0  0  0  0
  1 10  1  0
  1 23  2  3
  2  6  1  0
  2 19  1  0
  3 14  1  0
  3 18  2  0
  4  5  1  0
  4 11  1  0
  4 20  2  0
  5  7  2  0
  6 16  1  0
  7 12  1  0
  7 21  1  0
  8 10  1  0
  8 11  2  0
  9 16  1  0
  9 17  1  0
 10 21  1  0
 11 14  1  0
 12 13  1  0
 13 15  2  0
 15 22  1  0
 18 20  1  0
 19 23  1  0
 21 22  2  0
M  END
>  <ID>  (1) 
conformer_0

$$$$
