
     RDKit          3D

 23 25  0  0  0  0  0  0  0  0999 V2000
   33.2753   30.4253   40.0359 C   0  0  0  0  0  0  0  0  0  0  0  0
   33.4823   27.5326   43.0172 O   0  0  0  0  0  0  0  0  0  0  0  0
   29.8841   27.3280   33.6903 C   0  0  0  0  0  0  0  0  0  0  0  0
   32.2625   26.6655   33.6739 C   0  0  0  0  0  0  0  0  0  0  0  0
   27.3702   27.3808   32.4376 C   0  0  0  0  0  0  0  0  0  0  0  0
   33.2334   25.8473   41.5923 O   0  0  0  0  0  0  0  0  0  0  0  0
   33.0306   28.7030   37.0703 N   0  0  0  0  0  0  0  0  0  0  0  0
   31.1976   27.2846   34.2863 C   0  0  0  0  0  0  0  0  0  0  0  0
   28.4628   26.8781   31.7504 C   0  0  0  0  0  0  0  0  0  0  0  0
   33.7745   27.3241   35.3998 C   0  0  0  0  0  0  0  0  0  0  0  0
   30.5214   28.5463   36.3067 O   0  0  0  0  0  0  0  0  0  0  0  0
   28.7492   27.8337   34.3439 C   0  0  0  0  0  0  0  0  0  0  0  0
   33.2644   28.0817   40.6672 C   0  0  0  0  0  0  0  0  0  0  0  0
   31.4428   27.9469   35.5424 C   0  0  0  0  0  0  0  0  0  0  0  0
   29.6976   26.8449   32.3773 C   0  0  0  0  0  0  0  0  0  0  0  0
   33.1034   28.7873   38.3559 C   0  0  0  0  0  0  0  0  0  0  0  0
   27.5190   27.8564   33.7427 C   0  0  0  0  0  0  0  0  0  0  0  0
   32.7734   27.9557   36.0245 C   0  0  0  0  0  0  0  0  0  0  0  0
   33.3718   27.0965   41.7968 C   0  0  0  0  0  0  0  0  0  0  0  0
   33.1495   27.7533   39.3107 C   0  0  0  0  0  0  0  0  0  0  0  0
   33.1962   30.0900   38.7088 C   0  0  0  0  0  0  0  0  0  0  0  0
   33.5379   26.6426   34.2083 C   0  0  0  0  0  0  0  0  0  0  0  0
   33.3147   29.4207   41.0064 C   0  0  0  0  0  0  0  0  0  0  0  0
  1 21  2  0
  1 23  1  0
  2 19  2  0
  3  8  1  0
  3 12  1  0
  3 15  1  0
  4  8  2  0
  4 22  1  0
  5  9  1  0
  5 17  1  0
  6 19  1  0
  7 16  1  0
  7 18  1  0
  8 14  1  0
  9 15  2  0
 10 18  1  0
 10 22  2  0
 11 14  1  0
 12 17  2  0
 13 19  1  0
 13 20  1  0
 13 23  2  0
 14 18  2  0
 16 20  2  0
 16 21  1  0
M  END
>  <ID>  (1) 
conformer_0

$$$$
