
     RDKit          3D

 19 20  0  0  0  0  0  0  0  0999 V2000
   31.7341   27.4016   34.9104 C   0  0  0  0  0  0  0  0  0  0  0  0
   32.3470   28.3875   39.6697 N   0  0  0  0  0  0  0  0  0  0  0  0
   32.7299   27.3130   35.9219 C   0  0  0  0  0  0  0  0  0  0  0  0
   27.9400   27.6476   33.1061 C   0  0  0  0  0  0  0  0  0  0  0  0
   30.5240   27.8638   35.6507 C   0  0  0  0  0  0  0  0  0  0  0  0
   29.0473   27.1438   32.2726 C   0  0  0  0  0  0  0  0  0  0  0  0
   34.3362   26.8144   35.7819 C   0  0  0  0  0  0  0  0  0  0  0  0
   33.4402   26.7285   41.7597 O   0  0  0  0  0  0  0  0  0  0  0  0
   32.1513   27.6459   37.1700 N   0  0  0  0  0  0  0  0  0  0  0  0
   33.2392   28.9139   40.7557 C   0  0  0  0  0  0  0  0  0  0  0  0
   30.8472   28.0789   36.9722 C   0  0  0  0  0  0  0  0  0  0  0  0
   28.2250   28.0243   34.4266 C   0  0  0  0  0  0  0  0  0  0  0  0
   32.6335   27.4007   38.5882 C   0  0  0  0  0  0  0  0  0  0  0  0
   33.4024   28.4402   43.1549 O   0  0  0  0  0  0  0  0  0  0  0  0
   31.4677   27.1561   33.5450 C   0  0  0  0  0  0  0  0  0  0  0  0
   29.3308   28.0110   35.0642 C   0  0  0  0  0  0  0  0  0  0  0  0
   30.3873   27.0974   32.7704 C   0  0  0  0  0  0  0  0  0  0  0  0
   33.4274   27.9806   41.9180 C   0  0  0  0  0  0  0  0  0  0  0  0
   28.7067   26.7569   31.0911 O   0  0  0  0  0  0  0  0  0  0  0  0
  1  3  2  0
  1  5  1  0
  1 15  1  0
  2 10  1  0
  2 13  1  0
  3  7  1  0
  3  9  1  0
  4  6  1  0
  4 12  1  0
  5 11  1  0
  5 16  2  0
  6 17  2  0
  6 19  1  0
  8 18  2  0
  9 11  1  0
  9 13  1  0
 10 18  1  0
 12 16  2  0
 14 18  1  0
 15 17  2  0
M  END
>  <ID>  (1) 
conformer_0

$$$$
