
     RDKit          3D

 19 20  0  0  0  0  0  0  0  0999 V2000
   32.6093   28.4953   37.5121 C   0  0  0  0  0  0  0  0  0  0  0  0
   31.3621   26.8960   33.0219 C   0  0  0  0  0  0  0  0  0  0  0  0
   28.6878   27.2992   33.5514 C   0  0  0  0  0  0  0  0  0  0  0  0
   30.4132   26.6156   32.0619 C   0  0  0  0  0  0  0  0  0  0  0  0
   29.2389   28.0228   35.7933 C   0  0  0  0  0  0  0  0  0  0  0  0
   32.0871   28.7733   38.8805 C   0  0  0  0  0  0  0  0  0  0  0  0
   33.9833   28.1283   42.1320 P   0  0  0  0  0  0  0  0  0  0  0  0
   31.9398   27.6576   35.2482 C   0  0  0  0  0  0  0  0  0  0  0  0
   33.6092   27.0835   43.0113 O   0  0  0  0  0  1  0  0  0  0  0  0
   27.9229   26.5143   31.1863 Cl  0  0  0  0  0  0  0  0  0  0  0  0
   31.5613   28.1349   36.5031 C   0  0  0  0  0  0  0  0  0  0  0  0
   32.9024   28.6802   41.2476 O   0  0  0  0  0  0  0  0  0  0  0  0
   30.1988   28.2862   36.7303 C   0  0  0  0  0  0  0  0  0  0  0  0
   29.0589   26.8267   32.3311 C   0  0  0  0  0  0  0  0  0  0  0  0
   30.9917   29.4126   39.3949 O   0  0  0  0  0  0  0  0  0  0  0  0
   29.6277   27.5499   34.5304 C   0  0  0  0  0  0  0  0  0  0  0  0
   35.2622   28.6853   41.9297 O   0  0  0  0  0  1  0  0  0  0  0  0
   33.0382   28.1531   39.8671 C   0  0  0  0  0  0  0  0  0  0  0  0
   30.9996   27.3584   34.2863 C   0  0  0  0  0  0  0  0  0  0  0  0
  1  6  1  0
  1 11  1  0
  2  4  2  0
  2 19  1  0
  3 14  2  0
  3 16  1  0
  4 14  1  0
  5 13  2  0
  5 16  1  0
  6 15  1  0
  6 18  1  0
  7  9  1  0
  7 12  1  0
  7 17  1  0
  8 11  1  0
  8 19  2  0
 10 14  1  0
 11 13  1  0
 12 18  1  0
 16 19  1  0
M  END
>  <ID>  (1) 
conformer_0

$$$$
