
     RDKit          3D

 31 33  0  0  0  0  0  0  0  0999 V2000
   32.5228   29.7108   40.4723 S   0  0  0  0  0  4  0  0  0  0  0  0
   27.3805   28.1122   34.1984 C   0  0  0  0  0  0  0  0  0  0  0  0
   33.7354   27.6190   37.7637 C   0  0  0  0  0  0  0  0  0  0  0  0
   33.2485   26.5315   42.6612 C   0  0  0  0  0  0  0  0  0  0  0  0
   29.1930   27.0276   37.0521 C   0  0  0  0  0  0  0  0  0  0  0  0
   35.8803   27.8447   36.6387 C   0  0  0  0  0  0  0  0  0  0  0  0
   31.6862   27.1560   32.7289 C   0  0  0  0  0  0  0  0  0  0  0  0
   27.3700   27.8134   32.9088 N   0  0  0  0  0  0  0  0  0  0  0  0
   33.5999   30.3261   39.6518 O   0  0  0  0  0  0  0  0  0  0  0  0
   28.6150   27.9819   34.7528 N   0  0  0  0  0  0  0  0  0  0  0  0
   32.8069   24.2797   42.1924 O   0  0  0  0  0  0  0  0  0  0  0  0
   31.2243   29.7012   39.7624 O   0  0  0  0  0  0  0  0  0  0  0  0
   32.8447   27.1036   39.8616 C   0  0  0  0  0  0  0  0  0  0  0  0
   28.5252   28.7764   37.1951 C   0  0  0  0  0  0  0  0  0  0  0  0
   32.8130   25.7990   40.3174 C   0  0  0  0  0  0  0  0  0  0  0  0
   28.5869   27.4762   32.5431 C   0  0  0  0  0  0  0  0  0  0  0  0
   32.9535   25.5321   41.6983 C   0  0  0  0  0  0  0  0  0  0  0  0
   34.0868   27.4894   35.1594 C   0  0  0  0  0  0  0  0  0  0  0  0
   32.4105   30.3533   41.7725 O   0  0  0  0  0  0  0  0  0  0  0  0
   31.5871   27.7529   34.8672 N   0  0  0  0  0  0  0  0  0  0  0  0
   32.9665   27.2163   33.2254 N   0  0  0  0  0  0  0  0  0  0  0  0
   28.9779   28.1029   36.0918 C   0  0  0  0  0  0  0  0  0  0  0  0
   35.2775   27.5834   35.3811 C   0  0  0  0  0  0  0  0  0  0  0  0
   35.0188   27.8373   37.7793 C   0  0  0  0  0  0  0  0  0  0  0  0
   32.9483   28.1362   40.8334 C   0  0  0  0  0  0  0  0  0  0  0  0
   33.2632   27.8407   42.1703 C   0  0  0  0  0  0  0  0  0  0  0  0
   32.6236   27.3400   38.4666 O   0  0  0  0  0  0  0  0  0  0  0  0
   29.4039   27.6424   33.7017 C   0  0  0  0  0  0  0  0  0  0  0  0
   30.8222   27.5092   33.7695 C   0  0  0  0  0  0  0  0  0  0  0  0
   32.8912   27.5035   34.5938 C   0  0  0  0  0  0  0  0  0  0  0  0
   28.9140   27.0533   31.3372 N   0  0  0  0  0  0  0  0  0  0  0  0
  1  9  1  0
  1 12  1  0
  1 19  1  0
  1 25  1  0
  2  8  1  0
  2 10  1  0
  3 24  2  3
  3 27  1  0
  4 17  2  0
  4 26  1  0
  5 22  1  0
  6 23  1  0
  6 24  1  0
  7 21  1  0
  7 29  1  0
  8 16  1  0
 10 22  1  0
 10 28  1  0
 11 17  1  0
 13 15  2  0
 13 25  1  0
 13 27  1  0
 14 22  2  0
 15 17  1  0
 16 28  1  0
 16 31  2  0
 18 23  2  0
 18 30  2  0
 20 29  1  0
 20 30  1  0
 21 30  1  0
 25 26  2  0
 28 29  2  3
M  END
>  <ID>  (1) 
conformer_0

$$$$
