
     RDKit          3D

 31 32  0  0  0  0  0  0  0  0999 V2000
   27.3671   27.7589   34.1489 N   0  0  0  0  0  0  0  0  0  0  0  0
   33.1015   27.8547   33.3883 C   0  0  0  0  0  0  0  0  0  0  0  0
   30.7313   26.9593   32.4315 C   0  0  0  0  0  0  0  0  0  0  0  0
   33.1566   25.9863   41.9285 C   0  0  0  0  0  0  0  0  0  0  0  0
   32.7078   24.6785   42.5168 C   0  0  0  0  0  0  0  0  0  0  0  0
   30.6282   29.2745   38.8226 C   0  0  0  0  0  0  0  0  0  0  0  0
   34.0974   29.8278   37.8300 O   0  0  0  0  0  0  0  0  0  0  0  0
   33.0201   31.0029   39.4274 O   0  0  0  0  0  0  0  0  0  0  0  0
   35.3082   28.7872   33.2564 C   0  0  0  0  0  0  0  0  0  0  0  0
   34.0240   28.6118   32.7027 C   0  0  0  0  0  0  0  0  0  0  0  0
   33.6220   26.9632   42.5531 O   0  0  0  0  0  0  0  0  0  0  0  0
   33.0491   30.0108   38.6546 C   0  0  0  0  0  0  0  0  0  0  0  0
   35.6390   28.2226   34.4600 C   0  0  0  0  0  0  0  0  0  0  0  0
   28.2285   28.8484   38.4476 O   0  0  0  0  0  0  0  0  0  0  0  0
   33.0032   25.9635   40.4495 C   0  0  0  0  0  0  0  0  0  0  0  0
   29.7462   28.2962   36.8508 C   0  0  0  0  0  0  0  0  0  0  0  0
   34.9238   26.9803   36.5370 C   0  0  0  0  0  0  0  0  0  0  0  0
   29.5157   28.8172   38.0260 C   0  0  0  0  0  0  0  0  0  0  0  0
   28.2142   27.4674   33.1152 C   0  0  0  0  0  0  0  0  0  0  0  0
   27.8641   29.6786   39.5168 C   0  0  0  0  0  0  0  0  0  0  0  0
   30.0464   27.7215   34.6652 C   0  0  0  0  0  0  0  0  0  0  0  0
   31.9408   28.9470   38.7205 C   0  0  0  0  0  0  0  0  0  0  0  0
   33.4533   27.2557   34.6013 C   0  0  0  0  0  0  0  0  0  0  0  0
   27.8031   27.2220   31.9301 O   0  0  0  0  0  0  0  0  0  0  0  0
   32.4354   27.5930   38.7843 N   0  0  0  0  0  0  0  0  0  0  0  0
   29.1991   28.0153   35.6415 C   0  0  0  0  0  0  0  0  0  0  0  0
   27.8463   28.0250   35.3568 C   0  0  0  0  0  0  0  0  0  0  0  0
   29.6249   27.4064   33.4042 C   0  0  0  0  0  0  0  0  0  0  0  0
   34.6709   27.4864   35.1431 C   0  0  0  0  0  0  0  0  0  0  0  0
   33.3600   27.1905   39.7574 N   0  0  0  0  0  0  0  0  0  0  0  0
   31.8360   27.7967   32.7138 C   0  0  0  0  0  0  0  0  0  0  0  0
  1 19  1  0
  1 27  2  0
  2 10  1  0
  2 23  2  0
  2 31  1  0
  3 28  1  0
  3 31  1  0
  4  5  1  0
  4 11  2  0
  4 15  1  0
  6 18  1  0
  6 22  1  0
  7 12  2  0
  8 12  1  0
  9 10  2  0
  9 13  1  0
 12 22  1  0
 13 29  2  0
 14 18  1  0
 14 20  1  0
 15 30  1  0
 16 18  1  0
 16 26  2  3
 17 29  1  0
 19 24  2  0
 19 28  1  0
 21 26  1  0
 21 28  2  0
 22 25  1  0
 23 29  1  0
 25 30  1  0
 26 27  1  0
M  END
>  <ID>  (1) 
conformer_0

$$$$
