
     RDKit          3D

 28 31  0  0  0  0  0  0  0  0999 V2000
   27.1910   28.2428   34.4893 C   0  0  0  0  0  0  0  0  0  0  0  0
   27.4244   27.8652   33.1981 N   0  0  0  0  0  0  0  0  0  0  0  0
   33.7956   28.8599   40.6810 C   0  0  0  0  0  0  0  0  0  0  0  0
   32.1456   26.8837   32.8253 C   0  0  0  0  0  0  0  0  0  0  0  0
   36.0334   28.6533   37.3872 C   0  0  0  0  0  0  0  0  0  0  0  0
   31.6333   27.6983   34.9719 C   0  0  0  0  0  0  0  0  0  0  0  0
   34.0852   27.3341   34.4077 C   0  0  0  0  0  0  0  0  0  0  0  0
   35.0974   28.8668   39.8075 C   0  0  0  0  0  0  0  0  0  0  0  0
   28.0314   28.4474   35.4357 C   0  0  0  0  0  0  0  0  0  0  0  0
   28.6083   27.5940   32.8028 N   0  0  0  0  0  0  0  0  0  0  0  0
   34.4759   27.8818   35.6446 N   0  0  0  0  0  0  0  0  0  0  0  0
   32.5857   27.3070   34.1042 C   0  0  0  0  0  0  0  0  0  0  0  0
   34.4566   28.2521   42.8515 O   0  0  0  0  0  0  0  0  0  0  0  0
   33.7064   27.4242   38.2428 C   0  0  0  0  0  0  0  0  0  0  0  0
   29.1599   29.0581   38.2669 C   0  0  0  0  0  0  0  0  0  0  0  0
   30.3091   27.8595   34.7215 C   0  0  0  0  0  0  0  0  0  0  0  0
   33.6540   28.9369   42.1684 C   0  0  0  0  0  0  0  0  0  0  0  0
   31.2527   29.3411   38.9477 C   0  0  0  0  0  0  0  0  0  0  0  0
   32.4198   29.2936   39.9818 C   0  0  0  0  0  0  0  0  0  0  0  0
   29.9725   29.3911   39.3750 N   0  0  0  0  0  0  0  0  0  0  0  0
   31.1336   29.1533   37.5535 C   0  0  0  0  0  0  0  0  0  0  0  0
   34.8725   28.4602   38.2964 C   0  0  0  0  0  0  0  0  0  0  0  0
   29.8884   28.8446   37.1044 C   0  0  0  0  0  0  0  0  0  0  0  0
   30.8192   26.9988   32.4852 C   0  0  0  0  0  0  0  0  0  0  0  0
   35.7860   28.4019   35.8813 C   0  0  0  0  0  0  0  0  0  0  0  0
   32.6072   29.5303   42.6364 O   0  0  0  0  0  0  0  0  0  0  0  0
   29.3997   28.3953   35.7688 C   0  0  0  0  0  0  0  0  0  0  0  0
   29.8377   27.5110   33.3949 C   0  0  0  0  0  0  0  0  0  0  0  0
  1  2  1  0
  1  9  2  0
  2 10  2  0
  3  8  1  0
  3 17  1  0
  3 19  2  0
  4 12  1  0
  4 24  2  0
  5 22  1  0
  5 25  1  0
  6 12  2  0
  6 16  1  0
  7 11  1  0
  7 12  1  0
  8 22  1  0
  9 27  1  0
 10 28  1  0
 11 25  1  0
 13 17  2  0
 14 22  1  0
 15 20  1  0
 15 23  1  0
 16 27  1  0
 16 28  2  0
 17 26  1  0
 18 19  2  0
 18 20  1  0
 18 21  1  0
 21 23  2  0
 23 27  1  0
 24 28  1  0
M  END
>  <ID>  (1) 
conformer_0

$$$$
