
     RDKit          3D

 29 32  0  0  0  0  0  0  0  0999 V2000
   31.4934   29.7367   39.9866 O   0  0  0  0  0  0  0  0  0  0  0  0
   33.8558   27.5808   32.0972 C   0  0  0  0  0  0  0  0  0  0  0  0
   31.4967   27.5829   32.6387 C   0  0  0  0  0  0  0  0  0  0  0  0
   33.0929   29.2416   36.8710 C   0  0  0  0  0  0  0  0  0  0  0  0
   33.0479   29.0133   41.8689 O   0  0  0  0  0  0  0  0  0  0  0  0
   30.5252   27.8071   34.9477 C   0  0  0  0  0  0  0  0  0  0  0  0
   27.8218   27.5365   32.3629 C   0  0  0  0  0  0  0  0  0  0  0  0
   29.0156   28.2303   36.9330 C   0  0  0  0  0  0  0  0  0  0  0  0
   33.5697   28.6180   40.5315 C   0  0  0  0  0  0  0  0  0  0  0  0
   29.1309   27.5112   32.8307 N   0  0  0  0  0  0  0  0  0  0  0  0
   33.0571   27.6270   34.3878 C   0  0  0  0  0  0  0  0  0  0  0  0
   28.0632   28.0085   34.8160 C   0  0  0  0  0  0  0  0  0  0  0  0
   32.5453   27.5971   31.7092 C   0  0  0  0  0  0  0  0  0  0  0  0
   33.5092   28.1464   43.1977 P   0  0  0  0  0  4  0  0  0  0  0  0
   31.2539   27.9034   37.3955 O   0  0  0  0  0  0  0  0  0  0  0  0
   34.1182   27.5908   33.4664 C   0  0  0  0  0  0  0  0  0  0  0  0
   34.0494   28.1776   37.5395 C   0  0  0  0  0  0  0  0  0  0  0  0
   27.8949   28.2564   36.1574 C   0  0  0  0  0  0  0  0  0  0  0  0
   31.6855   27.6721   34.0390 C   0  0  0  0  0  0  0  0  0  0  0  0
   32.5187   29.0702   39.2428 C   0  0  0  0  0  0  0  0  0  0  0  0
   33.7180   28.2124   39.0470 C   0  0  0  0  0  0  0  0  0  0  0  0
   30.2324   27.4115   32.0051 C   0  0  0  0  0  0  0  0  0  0  0  0
   34.8844   28.6202   43.7217 O   0  0  0  0  0  1  0  0  0  0  0  0
   27.5012   26.7064   31.5079 O   0  0  0  0  0  0  0  0  0  0  0  0
   31.8894   29.1539   37.8107 C   0  0  0  0  0  0  0  0  0  0  0  0
   32.4392   28.4655   44.2688 O   0  0  0  0  0  0  0  0  0  0  0  0
   29.2783   27.7746   34.2066 C   0  0  0  0  0  0  0  0  0  0  0  0
   33.4788   26.6739   42.7772 O   0  0  0  0  0  0  0  0  0  0  0  0
   30.2667   27.9928   36.4156 C   0  0  0  0  0  0  0  0  0  0  0  0
  1 20  1  0
  2 13  2  0
  2 16  1  0
  3 13  1  0
  3 19  1  0
  3 22  2  0
  4 17  1  0
  4 25  1  0
  5  9  1  0
  5 14  1  0
  6 19  1  0
  6 27  2  0
  6 29  1  0
  7 10  1  0
  7 24  2  0
  8 18  1  0
  8 29  2  0
  9 21  1  0
 10 22  1  0
 10 27  1  0
 11 16  2  0
 11 19  1  0
 12 18  2  0
 12 27  1  0
 14 23  2  0
 14 26  1  0
 14 28  1  0
 15 25  1  0
 15 29  1  0
 17 21  1  0
 20 21  1  0
 20 25  1  0
M  END
>  <ID>  (1) 
conformer_0

$$$$
