
     RDKit          3D

 33 36  0  0  0  0  0  0  0  0999 V2000
   34.2456   28.4456   38.7519 C   0  0  0  0  0  0  0  0  0  0  0  0
   28.1413   26.6800   36.5943 C   0  0  0  0  0  0  0  0  0  0  0  0
   32.9984   28.7238   35.7320 C   0  0  0  0  0  0  0  0  0  0  0  0
   35.0211   29.3039   39.5614 C   0  0  0  0  0  0  0  0  0  0  0  0
   33.1295   27.6130   43.6729 C   0  0  0  0  0  0  0  0  0  0  0  0
   31.8389   29.2257   36.7517 C   0  0  0  0  0  0  0  0  0  0  0  0
   32.9805   27.8803   40.7233 C   0  0  0  0  0  0  0  0  0  0  0  0
   29.8109   28.0446   33.8715 N   0  0  0  0  0  0  0  0  0  0  0  0
   33.1687   29.0520   34.2668 C   0  0  0  0  0  0  0  0  0  0  0  0
   33.6918   28.7711   41.5342 C   0  0  0  0  0  0  0  0  0  0  0  0
   27.7314   28.6540   35.0753 C   0  0  0  0  0  0  0  0  0  0  0  0
   30.5156   27.6393   32.8475 C   0  0  0  0  0  0  0  0  0  0  0  0
   28.2083   28.2095   36.4510 C   0  0  0  0  0  0  0  0  0  0  0  0
   27.7860   27.5446   32.8017 N   0  0  0  0  0  0  0  0  0  0  0  0
   33.2675   27.7134   39.3862 C   0  0  0  0  0  0  0  0  0  0  0  0
   28.4762   27.0339   31.7448 C   0  0  0  0  0  0  0  0  0  0  0  0
   34.2512   30.0623   33.8461 C   0  0  0  0  0  0  0  0  0  0  0  0
   30.5410   29.0774   36.2648 N   0  0  0  0  0  0  0  0  0  0  0  0
   33.0591   28.0285   33.3440 O   0  0  0  0  0  0  0  0  0  0  0  0
   32.0054   27.6479   32.6235 C   0  0  0  0  0  0  0  0  0  0  0  0
   27.9055   26.4917   30.7832 O   0  0  0  0  0  0  0  0  0  0  0  0
   35.4509   29.3282   36.5456 O   0  0  0  0  0  1  0  0  0  0  0  0
   29.9222   27.1183   31.7285 C   0  0  0  0  0  0  0  0  0  0  0  0
   32.2005   27.2245   31.2386 C   0  0  0  0  0  0  0  0  0  0  0  0
   29.4148   28.8963   37.0512 C   0  0  0  0  0  0  0  0  0  0  0  0
   34.4162   28.2951   36.9245 S   0  0  0  0  0  4  0  0  0  0  0  0
   30.8579   26.7565   30.6871 C   0  0  0  0  0  0  0  0  0  0  0  0
   29.6822   28.5020   38.4348 C   0  0  0  0  0  0  0  0  0  0  0  0
   28.4599   28.0551   33.8670 C   0  0  0  0  0  0  0  0  0  0  0  0
   33.3835   28.8864   43.0085 C   0  0  0  0  0  0  0  0  0  0  0  0
   34.6559   26.7989   36.6685 O   0  0  0  0  0  1  0  0  0  0  0  0
   34.7356   29.4759   40.9385 C   0  0  0  0  0  0  0  0  0  0  0  0
   33.2206   30.0382   43.5561 O   0  0  0  0  0  0  0  0  0  0  0  0
  1  4  2  0
  1 15  1  0
  1 26  1  0
  2 13  1  0
  3  6  1  0
  3  9  1  0
  3 26  1  0
  4 32  1  0
  5 30  1  0
  6 18  1  0
  7 10  1  0
  7 15  2  0
  8 12  2  0
  8 29  1  0
  9 17  1  0
  9 19  1  0
 10 30  1  0
 10 32  2  0
 11 13  1  0
 11 29  1  0
 12 20  1  0
 12 23  1  0
 13 25  1  0
 14 16  1  0
 14 29  2  0
 16 21  2  0
 16 23  1  0
 18 25  1  0
 19 20  1  0
 20 24  1  0
 22 26  1  0
 23 27  1  0
 24 27  1  0
 25 28  1  0
 26 31  1  0
 30 33  1  0
M  END
>  <ID>  (1) 
conformer_0

$$$$
