
     RDKit          3D

 33 38  0  0  0  0  0  0  0  0999 V2000
   35.2770   29.9759   41.2021 C   0  0  0  0  0  0  0  0  0  0  0  0
   35.0782   27.1917   36.3313 C   0  0  0  0  0  0  0  0  0  0  0  0
   31.6055   28.8548   37.2988 N   0  0  0  0  0  0  0  0  0  0  0  0
   27.9086   27.1309   31.8810 N   0  0  0  0  0  0  0  0  0  0  0  0
   27.3653   28.1935   36.1697 C   0  0  0  0  0  0  0  0  0  0  0  0
   30.9616   27.5182   32.6975 C   0  0  0  0  0  0  0  0  0  0  0  0
   32.9191   29.3128   37.1435 C   0  0  0  0  0  0  0  0  0  0  0  0
   32.4018   27.6425   32.5028 C   0  0  0  0  0  0  0  0  0  0  0  0
   33.9019   29.0074   38.0292 N   0  0  0  0  0  0  0  0  0  0  0  0
   34.7349   29.0566   42.0857 C   0  0  0  0  0  0  0  0  0  0  0  0
   32.6964   27.1347   31.2514 N   0  0  0  0  0  0  0  0  0  0  0  0
   30.4481   29.5340   39.3869 O   0  0  0  0  0  0  0  0  0  0  0  0
   33.8272   28.1212   41.5816 C   0  0  0  0  0  0  0  0  0  0  0  0
   30.4002   27.0585   31.4827 C   0  0  0  0  0  0  0  0  0  0  0  0
   33.3751   28.2137   33.2356 N   0  0  0  0  0  0  0  0  0  0  0  0
   33.3777   28.1498   40.2577 C   0  0  0  0  0  0  0  0  0  0  0  0
   29.0626   26.9460   31.2098 C   0  0  0  0  0  0  0  0  0  0  0  0
   29.2920   28.6546   37.5771 C   0  0  0  0  0  0  0  0  0  0  0  0
   34.9152   29.9626   39.8762 C   0  0  0  0  0  0  0  0  0  0  0  0
   30.1387   27.7287   33.6811 N   0  0  0  0  0  0  0  0  0  0  0  0
   34.0060   29.0465   39.3655 C   0  0  0  0  0  0  0  0  0  0  0  0
   30.4266   29.0502   38.2375 C   0  0  0  0  0  0  0  0  0  0  0  0
   34.3372   28.2601   35.4540 C   0  0  0  0  0  0  0  0  0  0  0  0
   28.8450   27.7316   34.0351 C   0  0  0  0  0  0  0  0  0  0  0  0
   27.8440   27.4686   33.1576 C   0  0  0  0  0  0  0  0  0  0  0  0
   33.4107   27.1318   42.4348 O   0  0  0  0  0  0  0  0  0  0  0  0
   27.8647   28.6228   37.6491 C   0  0  0  0  0  0  0  0  0  0  0  0
   29.6940   28.2228   36.2593 C   0  0  0  0  0  0  0  0  0  0  0  0
   34.5408   28.0521   34.0071 C   0  0  0  0  0  0  0  0  0  0  0  0
   28.5741   28.0191   35.4231 C   0  0  0  0  0  0  0  0  0  0  0  0
   33.3811   29.2737   35.7723 N   0  0  0  0  0  0  0  0  0  0  0  0
   31.4881   26.7817   30.6037 C   0  0  0  0  0  0  0  0  0  0  0  0
   31.0195   28.2084   36.1599 C   0  0  0  0  0  0  0  0  0  0  0  0
  1 10  2  0
  1 19  1  0
  2 23  1  0
  3  7  1  0
  3 22  1  0
  3 33  1  0
  4 17  1  0
  4 25  2  0
  5 27  1  0
  5 30  1  0
  6  8  1  0
  6 14  1  0
  6 20  2  0
  7  9  2  3
  7 31  1  0
  8 11  2  0
  8 15  1  0
  9 21  1  0
 10 13  1  0
 11 32  1  0
 12 22  2  0
 13 16  2  0
 13 26  1  0
 14 17  2  0
 14 32  1  0
 15 29  1  0
 16 21  1  0
 18 22  1  0
 18 27  1  0
 18 28  1  0
 19 21  2  0
 20 24  1  0
 23 29  1  0
 23 31  2  0
 24 25  1  0
 24 30  1  0
 28 30  2  0
 28 33  1  0
M  END
>  <ID>  (1) 
conformer_0

$$$$
