
     RDKit          3D

 26 28  0  0  0  0  0  0  0  0999 V2000
   32.2276   28.1409   36.5748 C   0  0  0  0  0  0  0  0  0  0  0  0
   34.0047   27.7730   33.3235 C   0  0  0  0  0  0  0  0  0  0  0  0
   33.8219   29.0927   40.0656 P   0  0  0  0  0  0  0  0  0  0  0  0
   28.7069   27.8131   33.4413 C   0  0  0  0  0  0  0  0  0  0  0  0
   27.3478   27.7644   33.5433 N   0  0  0  0  0  0  0  0  0  0  0  0
   30.9709   28.1817   36.1972 N   0  0  0  0  0  0  0  0  0  0  0  0
   31.4268   28.3545   38.8938 C   0  0  0  0  0  0  0  0  0  0  0  0
   32.8941   27.8034   34.2951 C   0  0  0  0  0  0  0  0  0  0  0  0
   34.9002   28.4479   43.0749 O   0  0  0  0  0  1  0  0  0  0  0  0
   27.0290   27.8654   34.9281 C   0  0  0  0  0  0  0  0  0  0  0  0
   30.5747   27.9721   34.9413 C   0  0  0  0  0  0  0  0  0  0  0  0
   29.5180   27.7422   32.3867 N   0  0  0  0  0  0  0  0  0  0  0  0
   33.4372   26.5878   41.7748 O   0  0  0  0  0  0  0  0  0  0  0  0
   32.9923   29.0175   41.4344 O   0  0  0  0  0  0  0  0  0  0  0  0
   31.4789   27.8178   33.8881 C   0  0  0  0  0  0  0  0  0  0  0  0
   34.6689   27.5242   36.1703 C   0  0  0  0  0  0  0  0  0  0  0  0
   30.8658   27.6648   32.5708 C   0  0  0  0  0  0  0  0  0  0  0  0
   35.2191   29.8722   40.3254 O   0  0  0  0  0  0  0  0  0  0  0  0
   33.5032   27.9238   42.5520 P   0  0  0  0  0  4  0  0  0  0  0  0
   33.7578   28.6681   38.6228 O   0  0  0  0  0  0  0  0  0  0  0  0
   33.2207   27.8666   35.6455 N   0  0  0  0  0  0  0  0  0  0  0  0
   32.5977   28.3951   38.0081 C   0  0  0  0  0  0  0  0  0  0  0  0
   32.5788   27.8154   43.8175 O   0  0  0  0  0  0  0  0  0  0  0  0
   29.1914   27.9251   34.6861 N   0  0  0  0  0  0  0  0  0  0  0  0
   31.7603   27.3732   31.3896 C   0  0  0  0  0  0  0  0  0  0  0  0
   28.2126   27.9502   35.6200 C   0  0  0  0  0  0  0  0  0  0  0  0
  1  6  2  0
  1 21  1  0
  1 22  1  0
  2  8  1  0
  3 14  1  0
  3 18  1  0
  3 20  1  0
  4  5  1  0
  4 12  2  0
  4 24  1  0
  5 10  1  0
  6 11  1  0
  7 22  1  0
  8 15  1  0
  8 21  1  0
  9 19  2  0
 10 26  1  0
 11 15  2  0
 11 24  1  0
 12 17  1  0
 13 19  1  0
 14 19  1  0
 15 17  1  0
 16 21  1  0
 17 25  1  0
 19 23  1  0
 20 22  1  0
 24 26  1  0
M  END
>  <ID>  (1) 
conformer_0

$$$$
