
     RDKit          3D

 21 24  0  0  0  0  0  0  0  0999 V2000
   32.0517   28.7516   39.8009 C   0  0  0  0  0  0  0  0  0  0  0  0
   29.4933   28.4076   37.2038 N   0  0  0  0  0  0  0  0  0  0  0  0
   32.5205   26.4085   33.5147 S   0  0  0  0  0  0  0  0  0  0  0  0
   30.6801   28.1489   36.2540 C   0  0  0  0  0  0  0  0  0  0  0  0
   28.3000   27.7765   33.0735 N   0  0  0  0  0  0  0  0  0  0  0  0
   33.3647   28.4516   37.3883 C   0  0  0  0  0  0  0  0  0  0  0  0
   33.4311   28.5904   39.8546 C   0  0  0  0  0  0  0  0  0  0  0  0
   29.6957   27.9303   34.8788 C   0  0  0  0  0  0  0  0  0  0  0  0
   28.4027   27.9830   35.2589 C   0  0  0  0  0  0  0  0  0  0  0  0
   34.4990   29.5433   41.8962 C   0  0  0  0  0  0  0  0  0  0  0  0
   31.3506   28.6709   38.5959 C   0  0  0  0  0  0  0  0  0  0  0  0
   27.5602   27.9159   34.2134 C   0  0  0  0  0  0  0  0  0  0  0  0
   34.0947   28.5358   38.6158 C   0  0  0  0  0  0  0  0  0  0  0  0
   29.8935   28.8047   38.4913 C   0  0  0  0  0  0  0  0  0  0  0  0
   29.6024   27.7672   33.3780 C   0  0  0  0  0  0  0  0  0  0  0  0
   30.6088   27.7048   32.3256 C   0  0  0  0  0  0  0  0  0  0  0  0
   34.1190   28.3793   41.1476 C   0  0  0  0  0  0  0  0  0  0  0  0
   29.1081   29.3689   39.3125 O   0  0  0  0  0  0  0  0  0  0  0  0
   28.2091   28.1516   36.6645 C   0  0  0  0  0  0  0  0  0  0  0  0
   31.7147   26.8494   32.0913 C   0  0  0  0  0  0  0  0  0  0  0  0
   31.9408   28.4342   37.4068 C   0  0  0  0  0  0  0  0  0  0  0  0
  1  7  2  0
  1 11  1  0
  2  4  1  0
  2 14  1  0
  2 19  1  0
  3 20  1  0
  4  8  1  0
  4 21  1  0
  5 12  1  0
  5 15  1  0
  6 13  2  0
  6 21  1  0
  7 13  1  0
  7 17  1  0
  8  9  1  0
  8 15  2  0
  9 12  1  0
  9 19  1  0
 10 17  1  0
 11 14  1  0
 11 21  2  0
 14 18  2  0
 15 16  1  0
 16 20  1  0
M  END
>  <ID>  (1) 
conformer_0

$$$$
