
     RDKit          3D

 33 36  0  0  0  0  0  0  0  0999 V2000
   30.9071   27.3905   31.1176 C   0  0  0  0  0  0  0  0  0  0  0  0
   35.1116   28.5435   39.1974 N   0  0  0  0  0  0  0  0  0  0  0  0
   33.6989   28.1530   36.8132 C   0  0  0  0  0  0  0  0  0  0  0  0
   33.8024   27.7872   35.7178 N   0  0  0  0  0  0  0  0  0  0  0  0
   33.3462   27.9062   41.0318 O   0  0  0  0  0  1  0  0  0  0  0  0
   33.8911   30.4080   40.4756 O   0  0  0  0  0  0  0  0  0  0  0  0
   35.4085   29.0021   42.0185 O   0  0  0  0  0  0  0  0  0  0  0  0
   31.9849   28.3756   31.6407 C   0  0  0  0  0  0  0  0  0  0  0  0
   36.0871   28.1386   37.0245 C   0  0  0  0  0  0  0  0  0  0  0  0
   34.9350   27.4399   35.0463 C   0  0  0  0  0  0  0  0  0  0  0  0
   36.1291   27.6658   35.7101 C   0  0  0  0  0  0  0  0  0  0  0  0
   30.9765   28.4564   36.5352 C   0  0  0  0  0  0  0  0  0  0  0  0
   32.3035   28.3594   33.0569 C   0  0  0  0  0  0  0  0  0  0  0  0
   28.5286   29.5900   39.6955 O   0  0  0  0  0  0  0  0  0  0  0  0
   29.6033   27.3930   31.9217 C   0  0  0  0  0  0  0  0  0  0  0  0
   28.7794   28.0013   35.4383 C   0  0  0  0  0  0  0  0  0  0  0  0
   29.8603   27.7510   33.3034 C   0  0  0  0  0  0  0  0  0  0  0  0
   34.3738   28.9680   40.8475 P   0  0  0  0  0  4  0  0  0  0  0  0
   30.6591   29.3803   38.7763 C   0  0  0  0  0  0  0  0  0  0  0  0
   29.4900   28.3767   36.4713 C   0  0  0  0  0  0  0  0  0  0  0  0
   29.3091   29.2039   38.6723 C   0  0  0  0  0  0  0  0  0  0  0  0
   31.1011   28.0303   33.9517 C   0  0  0  0  0  0  0  0  0  0  0  0
   28.5284   27.0135   31.2835 O   0  0  0  0  0  0  0  0  0  0  0  0
   31.1301   30.0469   39.8711 O   0  0  0  0  0  0  0  0  0  0  0  0
   28.6314   27.7865   34.1508 C   0  0  0  0  0  0  0  0  0  0  0  0
   27.4603   27.6257   33.5883 O   0  0  0  0  0  0  0  0  0  0  0  0
   34.8873   28.2995   37.6815 C   0  0  0  0  0  0  0  0  0  0  0  0
   32.7347   28.0335   35.8791 C   0  0  0  0  0  0  0  0  0  0  0  0
   37.1496   30.0215   39.4573 O   0  0  0  0  0  0  0  0  0  0  0  0
   31.4416   28.9450   37.7505 C   0  0  0  0  0  0  0  0  0  0  0  0
   31.4753   28.1357   35.3307 C   0  0  0  0  0  0  0  0  0  0  0  0
   28.7560   28.6910   37.5605 C   0  0  0  0  0  0  0  0  0  0  0  0
   36.6039   28.6972   39.5218 C   0  0  0  0  0  0  0  0  0  0  0  0
  1  8  1  0
  1 15  1  0
  2 18  1  0
  2 27  1  0
  2 33  1  0
  3  4  1  0
  3 27  2  0
  4 10  1  0
  4 28  1  0
  5 18  2  0
  6 18  1  0
  7 18  1  0
  8 13  1  0
  9 11  1  0
  9 27  1  0
 10 11  2  0
 12 20  2  0
 12 30  1  0
 12 31  1  0
 13 22  1  0
 14 21  1  0
 15 17  2  0
 15 23  1  0
 16 20  1  0
 16 25  2  0
 17 22  1  0
 17 25  1  0
 19 21  1  0
 19 24  1  0
 19 30  2  0
 20 32  1  0
 21 32  2  0
 22 31  1  0
 25 26  1  0
 28 31  2  3
 29 33  1  0
M  END
>  <ID>  (1) 
conformer_0

$$$$
