
     RDKit          3D

 24 25  0  0  0  0  0  0  0  0999 V2000
   32.6115   29.6802   39.1772 O   0  0  0  0  0  1  0  0  0  0  0  0
   33.4870   27.4076   34.7256 C   0  0  0  0  0  0  0  0  0  0  0  0
   35.3313   28.6957   41.4393 O   0  0  0  0  0  1  0  0  0  0  0  0
   29.7275   27.6338   32.3962 C   0  0  0  0  0  0  0  0  0  0  0  0
   33.1445   29.8616   42.1867 O   0  0  0  0  0  0  0  0  0  0  0  0
   33.9647   27.3334   33.4854 O   0  0  0  0  0  0  0  0  0  0  0  0
   28.4638   27.6812   34.3926 N   0  0  0  0  0  0  0  0  0  0  0  0
   33.8329   28.2474   36.9803 C   0  0  0  0  0  0  0  0  0  0  0  0
   33.1231   27.7572   40.8335 O   0  0  0  0  0  0  0  0  0  0  0  0
   33.9155   28.6166   41.9377 P   0  0  0  0  0  4  0  0  0  0  0  0
   32.3647   28.5115   36.5583 C   0  0  0  0  0  0  0  0  0  0  0  0
   34.4515   27.4851   35.8443 C   0  0  0  0  0  0  0  0  0  0  0  0
   33.8974   27.5717   38.2980 C   0  0  0  0  0  0  0  0  0  0  0  0
   29.2321   27.6790   36.9045 C   0  0  0  0  0  0  0  0  0  0  0  0
   32.1961   28.0187   35.1333 C   0  0  0  0  0  0  0  0  0  0  0  0
   29.5917   27.7677   35.1369 C   0  0  0  0  0  0  0  0  0  0  0  0
   30.8653   27.8496   34.4567 C   0  0  0  0  0  0  0  0  0  0  0  0
   28.4406   27.5940   33.0638 C   0  0  0  0  0  0  0  0  0  0  0  0
   27.3086   27.4302   32.4573 N   0  0  0  0  0  0  0  0  0  0  0  0
   35.4594   26.7262   35.9074 O   0  0  0  0  0  0  0  0  0  0  0  0
   33.4125   26.4728   43.1611 O   0  0  0  0  0  0  0  0  0  0  0  0
   30.8371   27.7410   33.1254 N   0  0  0  0  0  0  0  0  0  0  0  0
   33.9830   27.8642   43.3390 O   0  0  0  0  0  0  0  0  0  0  0  0
   33.0275   28.2579   39.4084 P   0  0  0  0  0  4  0  0  0  0  0  0
  1 24  2  0
  2  6  1  0
  2 12  1  0
  2 15  1  0
  3 10  2  0
  4 18  1  0
  4 22  2  0
  5 10  1  0
  7 16  1  0
  7 18  1  0
  8 11  1  0
  8 12  1  0
  8 13  1  0
  9 10  1  0
  9 24  1  0
 10 23  1  0
 11 15  1  0
 12 20  2  0
 13 24  1  0
 14 16  1  0
 15 17  1  0
 16 17  2  0
 17 22  1  0
 18 19  2  0
 21 23  1  0
M  END
>  <ID>  (1) 
conformer_0

$$$$
