
     RDKit          3D

 25 27  0  0  0  0  0  0  0  0999 V2000
   33.2709   28.0728   41.1181 O   0  0  0  0  0  0  0  0  0  0  0  0
   34.3088   27.8442   33.0418 C   0  0  0  0  0  0  0  0  0  0  0  0
   30.8610   27.6013   34.4589 C   0  0  0  0  0  0  0  0  0  0  0  0
   32.8011   29.3784   40.5693 C   0  0  0  0  0  0  0  0  0  0  0  0
   32.0568   28.2805   38.4758 C   0  0  0  0  0  0  0  0  0  0  0  0
   33.2823   27.9283   33.9228 C   0  0  0  0  0  0  0  0  0  0  0  0
   30.8440   28.0636   35.8153 C   0  0  0  0  0  0  0  0  0  0  0  0
   33.3877   26.3537   42.9374 O   0  0  0  0  0  0  0  0  0  0  0  0
   27.1576   27.7407   33.6574 N   0  0  0  0  0  0  0  0  0  0  0  0
   33.4919   27.8790   42.6924 S   0  0  0  0  0  4  0  0  0  0  0  0
   32.8690   26.7072   31.5291 C   0  0  0  0  0  0  0  0  0  0  0  0
   27.3377   27.8975   35.0502 C   0  0  0  0  0  0  0  0  0  0  0  0
   31.2811   29.1592   37.5116 C   0  0  0  0  0  0  0  0  0  0  0  0
   31.8206   28.9318   36.2132 O   0  0  0  0  0  0  0  0  0  0  0  0
   34.8505   28.4267   42.9995 O   0  0  0  0  0  0  0  0  0  0  0  0
   32.0085   27.4466   33.6524 C   0  0  0  0  0  0  0  0  0  0  0  0
   32.4302   28.6233   43.4089 O   0  0  0  0  0  0  0  0  0  0  0  0
   33.1215   29.3016   39.0581 C   0  0  0  0  0  0  0  0  0  0  0  0
   31.8691   26.8092   32.4416 C   0  0  0  0  0  0  0  0  0  0  0  0
   34.1137   27.2404   31.8095 C   0  0  0  0  0  0  0  0  0  0  0  0
   29.5601   28.0015   36.2871 N   0  0  0  0  0  0  0  0  0  0  0  0
   28.6959   27.8336   35.2710 C   0  0  0  0  0  0  0  0  0  0  0  0
   28.3139   27.6431   33.0380 C   0  0  0  0  0  0  0  0  0  0  0  0
   29.4349   27.6298   34.0230 C   0  0  0  0  0  0  0  0  0  0  0  0
   28.3820   27.5185   31.8179 O   0  0  0  0  0  0  0  0  0  0  0  0
  1  4  1  0
  1 10  1  0
  2  6  2  0
  2 20  1  0
  3  7  1  0
  3 16  1  0
  3 24  1  0
  4 18  1  0
  5 13  1  0
  5 18  1  0
  6 16  1  0
  7 14  1  0
  7 21  1  0
  8 10  1  0
  9 12  1  0
  9 23  1  0
 10 15  1  0
 10 17  1  0
 11 19  2  0
 11 20  1  0
 12 22  1  0
 13 14  1  0
 16 19  1  0
 21 22  1  0
 22 24  2  0
 23 24  1  0
 23 25  2  0
M  END
>  <ID>  (1) 
conformer_0

$$$$
