
     RDKit          3D

 22 23  0  0  0  0  0  0  0  0999 V2000
   27.4408   27.7296   33.0897 O   0  0  0  0  0  0  0  0  0  0  0  0
   32.0163   27.3556   34.9116 C   0  0  0  0  0  0  0  0  0  0  0  0
   28.3663   28.3847   35.2613 C   0  0  0  0  0  0  0  0  0  0  0  0
   32.8963   27.4547   36.0232 N   0  0  0  0  0  0  0  0  0  0  0  0
   29.8405   27.4711   33.7366 C   0  0  0  0  0  0  0  0  0  0  0  0
   32.5772   26.9095   33.7324 C   0  0  0  0  0  0  0  0  0  0  0  0
   34.2074   26.7326   35.9529 C   0  0  0  0  0  0  0  0  0  0  0  0
   33.5857   28.3588   38.3232 C   0  0  0  0  0  0  0  0  0  0  0  0
   33.2819   28.0615   42.2864 C   0  0  0  0  0  0  0  0  0  0  0  0
   32.5242   27.8618   37.3061 C   0  0  0  0  0  0  0  0  0  0  0  0
   31.8213   26.6849   32.5948 C   0  0  0  0  0  0  0  0  0  0  0  0
   30.6399   27.6956   34.9393 C   0  0  0  0  0  0  0  0  0  0  0  0
   31.3082   27.9383   37.8960 O   0  0  0  0  0  0  0  0  0  0  0  0
   29.6875   28.2922   35.8886 C   0  0  0  0  0  0  0  0  0  0  0  0
   33.4900   26.7806   42.7333 O   0  0  0  0  0  0  0  0  0  0  0  0
   32.9062   28.9392   43.4492 C   0  0  0  0  0  0  0  0  0  0  0  0
   33.1563   28.0323   39.7788 C   0  0  0  0  0  0  0  0  0  0  0  0
   27.8195   27.0183   31.8952 C   0  0  0  0  0  0  0  0  0  0  0  0
   28.4806   27.8646   33.9551 C   0  0  0  0  0  0  0  0  0  0  0  0
   33.1087   28.7343   41.0276 O   0  0  0  0  0  0  0  0  0  0  0  0
   32.9218   26.6872   39.9630 O   0  0  0  0  0  0  0  0  0  0  0  0
   30.4708   26.9616   32.6299 C   0  0  0  0  0  0  0  0  0  0  0  0
  1 18  1  0
  1 19  1  0
  2  4  1  0
  2  6  2  0
  2 12  1  0
  3 14  1  0
  3 19  1  0
  4  7  1  0
  4 10  1  0
  5 12  1  0
  5 19  2  0
  5 22  1  0
  6 11  1  0
  8 10  1  0
  8 17  1  0
  9 15  2  0
  9 16  1  0
  9 20  1  0
 10 13  2  0
 11 22  2  0
 12 14  1  0
 17 20  1  0
 17 21  2  0
M  END
>  <ID>  (1) 
conformer_0

$$$$
