
     RDKit          3D

 36 40  0  0  0  0  0  0  0  0999 V2000
   29.1872   27.8753   33.1466 C   0  0  0  0  0  0  0  0  0  0  0  0
   32.7897   25.6581   40.4452 C   0  0  0  0  0  0  0  0  0  0  0  0
   32.9495   25.4744   41.8674 C   0  0  0  0  0  0  0  0  0  0  0  0
   32.8239   24.2558   42.4270 O   0  0  0  0  0  0  0  0  0  0  0  0
   33.3339   27.8130   42.1732 C   0  0  0  0  0  0  0  0  0  0  0  0
   28.2599   28.0606   37.7627 N   0  0  0  0  0  0  0  0  0  0  0  0
   29.8639   27.7424   31.9650 C   0  0  0  0  0  0  0  0  0  0  0  0
   30.5265   29.1018   37.8024 C   0  0  0  0  0  0  0  0  0  0  0  0
   35.4817   28.6808   34.4829 C   0  0  0  0  0  0  0  0  0  0  0  0
   26.8772   28.1159   33.9255 N   0  0  0  0  0  0  0  0  0  0  0  0
   33.2645   29.4093   40.2770 C   0  0  0  0  0  0  0  0  0  0  0  0
   28.6122   28.0457   36.7768 C   0  0  0  0  0  0  0  0  0  0  0  0
   33.9079   30.4571   38.3590 C   0  0  0  0  0  0  0  0  0  0  0  0
   34.2151   28.7236   34.9999 C   0  0  0  0  0  0  0  0  0  0  0  0
   29.2734   28.0731   35.5508 C   0  0  0  0  0  0  0  0  0  0  0  0
   27.7205   27.7119   32.9938 C   0  0  0  0  0  0  0  0  0  0  0  0
   27.2518   27.1593   31.9890 O   0  0  0  0  0  0  0  0  0  0  0  0
   35.3073   28.0191   33.1165 C   0  0  0  0  0  0  0  0  0  0  0  0
   29.2599   28.5862   37.8984 C   0  0  0  0  0  0  0  0  0  0  0  0
   33.7317   29.2396   36.2463 C   0  0  0  0  0  0  0  0  0  0  0  0
   32.4343   29.3218   36.4701 N   0  0  0  0  0  0  0  0  0  0  0  0
   30.7763   30.3415   39.7219 O   0  0  0  0  0  0  0  0  0  0  0  0
   30.9451   27.3856   31.3594 C   0  0  0  0  0  0  0  0  0  0  0  0
   33.2239   28.0035   40.7930 C   0  0  0  0  0  0  0  0  0  0  0  0
   32.2152   27.0549   31.3559 C   0  0  0  0  0  0  0  0  0  0  0  0
   33.3450   28.1493   34.1317 C   0  0  0  0  0  0  0  0  0  0  0  0
   33.0080   26.8951   39.9201 C   0  0  0  0  0  0  0  0  0  0  0  0
   30.4549   28.5003   35.4487 C   0  0  0  0  0  0  0  0  0  0  0  0
   31.1890   28.9686   36.5541 C   0  0  0  0  0  0  0  0  0  0  0  0
   31.3286   29.7563   38.8211 C   0  0  0  0  0  0  0  0  0  0  0  0
   33.1896   26.5777   42.7220 C   0  0  0  0  0  0  0  0  0  0  0  0
   29.6534   28.0756   34.4309 C   0  0  0  0  0  0  0  0  0  0  0  0
   32.7696   29.6089   38.8971 N   0  0  0  0  0  0  0  0  0  0  0  0
   33.9321   27.7315   33.0083 C   0  0  0  0  0  0  0  0  0  0  0  0
   34.7392   29.6080   37.3419 C   0  0  0  0  0  0  0  0  0  0  0  0
   33.3503   27.1129   31.9080 N   0  0  0  0  0  0  0  0  0  0  0  0
  1  7  1  0
  1 16  1  0
  1 32  1  0
  2  3  2  0
  2 27  1  0
  3  4  1  0
  3 31  1  0
  5 24  1  0
  5 31  2  0
  6 12  1  0
  6 19  1  0
  7 23  2  0
  8 19  1  0
  8 29  1  0
  8 30  1  0
  9 14  1  0
  9 18  1  0
 10 16  1  0
 11 24  1  0
 11 33  1  0
 12 15  1  0
 13 33  1  0
 13 35  1  0
 14 20  2  0
 14 26  1  0
 15 28  1  0
 15 32  2  0
 16 17  2  0
 18 34  1  0
 20 21  1  0
 20 35  1  0
 21 29  1  0
 22 30  2  0
 23 25  1  0
 24 27  2  0
 25 36  2  0
 26 34  1  0
 28 29  2  0
 30 33  1  0
 34 36  1  0
M  END
>  <ID>  (1) 
conformer_0

$$$$
