
     RDKit          3D

 24 27  0  0  0  0  0  0  0  0999 V2000
   32.5765   29.3829   42.3039 O   0  0  0  0  0  0  0  0  0  0  0  0
   33.8896   27.9819   40.4880 C   0  0  0  0  0  0  0  0  0  0  0  0
   30.5689   26.9196   31.6587 C   0  0  0  0  0  0  0  0  0  0  0  0
   33.6983   27.3899   42.8722 O   0  0  0  0  0  0  0  0  0  0  0  0
   33.1029   28.2204   39.3125 C   0  0  0  0  0  0  0  0  0  0  0  0
   27.6350   27.6795   33.5678 C   0  0  0  0  0  0  0  0  0  0  0  0
   30.9932   28.8711   38.2535 C   0  0  0  0  0  0  0  0  0  0  0  0
   31.3808   28.3475   36.9929 C   0  0  0  0  0  0  0  0  0  0  0  0
   29.8583   27.6409   33.8710 C   0  0  0  0  0  0  0  0  0  0  0  0
   29.5848   29.5662   38.5154 C   0  0  0  0  0  0  0  0  0  0  0  0
   32.7200   27.8981   36.9278 C   0  0  0  0  0  0  0  0  0  0  0  0
   31.8243   28.7896   39.3359 C   0  0  0  0  0  0  0  0  0  0  0  0
   32.2396   27.6734   34.2893 C   0  0  0  0  0  0  0  0  0  0  0  0
   28.6205   27.9224   34.5856 C   0  0  0  0  0  0  0  0  0  0  0  0
   31.9100   26.9585   31.9616 C   0  0  0  0  0  0  0  0  0  0  0  0
   29.6086   27.2767   32.5950 C   0  0  0  0  0  0  0  0  0  0  0  0
   32.6119   27.2987   33.0457 C   0  0  0  0  0  0  0  0  0  0  0  0
   33.5889   27.8002   38.0149 C   0  0  0  0  0  0  0  0  0  0  0  0
   28.2414   27.2995   32.3548 N   0  0  0  0  0  0  0  0  0  0  0  0
   33.7267   28.5100   41.9675 C   0  0  0  0  0  0  0  0  0  0  0  0
   29.0383   28.2873   35.8876 N   0  0  0  0  0  0  0  0  0  0  0  0
   35.0217   29.4889   42.1851 C   0  0  0  0  0  0  0  0  0  0  0  0
   30.4601   28.2065   35.9299 N   0  0  0  0  0  0  0  0  0  0  0  0
   30.9279   27.8173   34.6737 C   0  0  0  0  0  0  0  0  0  0  0  0
  1 20  1  0
  2  5  2  3
  2 20  1  0
  3 15  1  0
  3 16  2  0
  4 20  1  0
  5 12  1  0
  5 18  1  0
  6 14  1  0
  6 19  1  0
  7  8  1  0
  7 10  1  0
  7 12  2  0
  8 11  1  0
  8 23  1  0
  9 14  1  0
  9 16  1  0
  9 24  2  0
 11 18  2  0
 13 17  1  0
 13 24  1  0
 14 21  1  0
 15 17  2  0
 16 19  1  0
 20 22  1  0
 21 23  1  0
 23 24  1  0
M  END
>  <ID>  (1) 
conformer_0

$$$$
