
     RDKit          3D

 22 23  0  0  0  0  0  0  0  0999 V2000
   31.6106   27.6185   34.6378 C   0  0  0  0  0  0  0  0  0  0  0  0
   33.3500   29.5078   41.0306 C   0  0  0  0  0  0  0  0  0  0  0  0
   27.8408   28.2027   36.8949 C   0  0  0  0  0  0  0  0  0  0  0  0
   29.2249   27.4323   34.2195 C   0  0  0  0  0  0  0  0  0  0  0  0
   28.6237   26.8338   31.9734 O   0  0  0  0  0  0  0  0  0  0  0  0
   30.3005   27.6359   35.1136 C   0  0  0  0  0  0  0  0  0  0  0  0
   32.4674   29.3674   43.2465 O   0  0  0  0  0  0  0  0  0  0  0  0
   33.3627   27.7537   33.0027 C   0  0  0  0  0  0  0  0  0  0  0  0
   33.6903   27.0196   31.7701 C   0  0  0  0  0  0  0  0  0  0  0  0
   29.5642   27.1149   32.8751 C   0  0  0  0  0  0  0  0  0  0  0  0
   30.2346   27.9247   36.5155 C   0  0  0  0  0  0  0  0  0  0  0  0
   33.9220   28.5792   39.8953 C   0  0  0  0  0  0  0  0  0  0  0  0
   33.7870   27.6864   42.6496 O   0  0  0  0  0  0  0  0  0  0  0  0
   31.5701   28.1732   38.5965 C   0  0  0  0  0  0  0  0  0  0  0  0
   27.3295   27.8571   35.6848 C   0  0  0  0  0  0  0  0  0  0  0  0
   33.2636   28.8073   42.3893 C   0  0  0  0  0  0  0  0  0  0  0  0
   31.5445   27.8947   37.1799 C   0  0  0  0  0  0  0  0  0  0  0  0
   31.9058   27.4625   33.3562 C   0  0  0  0  0  0  0  0  0  0  0  0
   29.1289   28.2465   37.2743 C   0  0  0  0  0  0  0  0  0  0  0  0
   27.9022   27.5188   34.5377 C   0  0  0  0  0  0  0  0  0  0  0  0
   32.8748   27.6571   39.2924 C   0  0  0  0  0  0  0  0  0  0  0  0
   30.9002   27.1127   32.4523 C   0  0  0  0  0  0  0  0  0  0  0  0
  1  6  2  0
  1 18  1  0
  2 12  1  0
  2 16  1  0
  3 15  1  0
  3 19  2  0
  4  6  1  0
  4 10  2  0
  4 20  1  0
  5 10  1  0
  6 11  1  0
  7 16  2  0
  8  9  1  0
  8 18  1  0
 10 22  1  0
 11 17  2  3
 11 19  1  0
 12 21  1  0
 13 16  1  0
 14 17  1  0
 14 21  1  0
 15 20  2  0
 18 22  2  0
M  END
>  <ID>  (1) 
conformer_0

$$$$
