
     RDKit          3D

 30 34  0  0  0  0  0  0  0  0999 V2000
   32.1876   28.2100   38.7541 C   0  0  0  0  0  0  0  0  0  0  0  0
   31.1912   28.2556   37.6389 C   0  0  0  0  0  0  0  0  0  0  0  0
   27.7942   27.7254   34.2286 C   0  0  0  0  0  0  0  0  0  0  0  0
   33.8009   26.6518   43.3516 O   0  0  0  0  0  0  0  0  0  0  0  0
   26.7504   27.7824   35.2333 C   0  0  0  0  0  0  0  0  0  0  0  0
   35.4799   28.5967   33.0620 C   0  0  0  0  0  0  0  0  0  0  0  0
   31.0429   28.0726   36.1975 C   0  0  0  0  0  0  0  0  0  0  0  0
   32.6343   27.0451   38.9827 O   0  0  0  0  0  0  0  0  0  0  0  0
   29.8638   28.4500   38.1166 C   0  0  0  0  0  0  0  0  0  0  0  0
   34.3659   30.1320   42.7455 C   0  0  0  0  0  0  0  0  0  0  0  0
   33.8441   27.8510   42.7727 C   0  0  0  0  0  0  0  0  0  0  0  0
   34.5384   28.1868   34.1783 C   0  0  0  0  0  0  0  0  0  0  0  0
   34.5020   28.9185   43.4416 C   0  0  0  0  0  0  0  0  0  0  0  0
   33.2661   27.9830   41.5516 C   0  0  0  0  0  0  0  0  0  0  0  0
   32.4575   27.6407   32.8878 O   0  0  0  0  0  0  0  0  0  0  0  0
   27.8652   26.6799   30.8545 O   0  0  0  0  0  0  0  0  0  0  0  0
   28.3439   27.1812   31.9277 C   0  0  0  0  0  0  0  0  0  0  0  0
   29.6772   28.0230   35.8615 C   0  0  0  0  0  0  0  0  0  0  0  0
   30.1641   27.6295   33.5480 C   0  0  0  0  0  0  0  0  0  0  0  0
   27.4649   27.5825   32.9014 N   0  0  0  0  0  0  0  0  0  0  0  0
   31.9088   27.9608   35.1726 N   0  0  0  0  0  0  0  0  0  0  0  0
   28.9746   28.2545   37.0821 C   0  0  0  0  0  0  0  0  0  0  0  0
   29.2071   27.7946   34.5630 C   0  0  0  0  0  0  0  0  0  0  0  0
   31.5430   27.7391   33.9080 C   0  0  0  0  0  0  0  0  0  0  0  0
   34.7138   27.6417   32.1349 C   0  0  0  0  0  0  0  0  0  0  0  0
   33.7910   27.2283   33.2676 C   0  0  0  0  0  0  0  0  0  0  0  0
   33.1016   29.1716   40.8689 C   0  0  0  0  0  0  0  0  0  0  0  0
   32.3792   29.2530   39.6496 N   0  0  0  0  0  0  0  0  0  0  0  0
   29.7265   27.3358   32.1642 C   0  0  0  0  0  0  0  0  0  0  0  0
   33.6773   30.2524   41.5374 N   0  0  0  0  0  0  0  0  0  0  0  0
  1  2  1  0
  1  8  2  0
  1 28  1  0
  2  7  1  0
  2  9  1  0
  3  5  1  0
  3 20  1  0
  3 23  2  0
  4 11  1  0
  6 12  1  0
  6 25  1  0
  7 18  2  0
  7 21  1  0
  9 22  1  0
 10 13  1  0
 10 30  1  0
 11 13  1  0
 11 14  2  0
 12 26  1  0
 14 27  1  0
 15 24  1  0
 15 26  1  0
 16 17  2  0
 17 20  1  0
 17 29  1  0
 18 22  1  0
 18 23  1  0
 19 23  1  0
 19 24  1  0
 19 29  2  0
 21 24  2  0
 25 26  1  0
 27 28  1  0
 27 30  2  0
M  END
>  <ID>  (1) 
conformer_0

$$$$
