
     RDKit          3D

 31 33  0  0  0  0  0  0  0  0999 V2000
   28.8226   28.1094   35.6701 C   0  0  0  0  0  0  0  0  0  0  0  0
   33.7108   27.1753   43.4908 O   0  0  0  0  0  1  0  0  0  0  0  0
   27.0395   27.5880   32.6183 O   0  0  0  0  0  0  0  0  0  0  0  0
   34.0595   27.2396   33.1413 C   0  0  0  0  0  0  0  0  0  0  0  0
   33.6037   29.5548   33.5472 C   0  0  0  0  0  0  0  0  0  0  0  0
   37.1890   28.9220   33.8378 O   0  0  0  0  0  0  0  0  0  0  0  0
   30.1685   28.1741   38.2976 C   0  0  0  0  0  0  0  0  0  0  0  0
   31.2591   28.3343   36.1222 C   0  0  0  0  0  0  0  0  0  0  0  0
   27.8127   27.9628   34.7242 C   0  0  0  0  0  0  0  0  0  0  0  0
   30.4605   27.9316   33.8222 C   0  0  0  0  0  0  0  0  0  0  0  0
   28.0582   27.7094   33.4244 C   0  0  0  0  0  0  0  0  0  0  0  0
   30.1880   28.1587   35.2148 C   0  0  0  0  0  0  0  0  0  0  0  0
   32.5741   27.6881   38.2444 C   0  0  0  0  0  0  0  0  0  0  0  0
   28.8817   28.1860   38.1396 C   0  0  0  0  0  0  0  0  0  0  0  0
   35.8586   28.7245   33.6284 C   0  0  0  0  0  0  0  0  0  0  0  0
   33.7141   28.0688   41.0602 O   0  0  0  0  0  0  0  0  0  0  0  0
   32.3786   29.3530   42.8142 O   0  0  0  0  0  0  0  0  0  0  0  0
   29.4082   27.5729   32.9630 C   0  0  0  0  0  0  0  0  0  0  0  0
   30.7108   26.3423   31.3933 O   0  0  0  0  0  0  0  0  0  0  0  0
   35.1166   29.4521   42.9530 C   0  0  0  0  0  0  0  0  0  0  0  0
   28.6195   26.7306   30.8389 O   0  0  0  0  0  0  0  0  0  0  0  0
   33.1355   28.2658   33.3135 C   0  0  0  0  0  0  0  0  0  0  0  0
   31.7622   27.9903   33.2500 C   0  0  0  0  0  0  0  0  0  0  0  0
   33.6157   28.7107   38.4600 C   0  0  0  0  0  0  0  0  0  0  0  0
   28.3253   28.1611   36.9633 C   0  0  0  0  0  0  0  0  0  0  0  0
   35.4041   27.4479   33.3062 C   0  0  0  0  0  0  0  0  0  0  0  0
   29.6224   26.8979   31.6680 C   0  0  0  0  0  0  0  0  0  0  0  0
   34.9409   29.7651   33.7155 N   0  0  0  0  0  0  0  0  0  0  0  0
   33.9106   29.0097   39.9095 C   0  0  0  0  0  0  0  0  0  0  0  0
   33.6429   28.4832   42.6345 P   0  0  0  0  0  4  0  0  0  0  0  0
   31.3099   28.1208   37.5206 C   0  0  0  0  0  0  0  0  0  0  0  0
  1  9  1  0
  1 12  1  0
  1 25  2  0
  2 30  2  0
  3 11  1  0
  4 22  1  0
  4 26  2  0
  5 22  1  0
  5 28  2  0
  6 15  2  0
  7 14  2  0
  7 31  1  0
  8 12  1  0
  8 31  1  0
  9 11  2  0
 10 12  1  0
 10 18  1  0
 10 23  2  3
 11 18  1  0
 13 24  1  0
 13 31  1  0
 14 25  1  0
 15 26  1  0
 15 28  1  0
 16 29  1  0
 16 30  1  0
 17 30  1  0
 18 27  1  0
 19 27  2  0
 20 30  1  0
 21 27  1  0
 22 23  1  0
 24 29  1  0
M  END
>  <ID>  (1) 
conformer_0

$$$$
