
     RDKit          3D

 21 23  0  0  0  0  0  0  0  0999 V2000
   28.5815   27.5701   33.7183 C   0  0  0  0  0  0  0  0  0  0  0  0
   33.0772   28.1646   37.2033 C   0  0  0  0  0  0  0  0  0  0  0  0
   30.1283   28.0326   36.5546 C   0  0  0  0  0  0  0  0  0  0  0  0
   27.3934   27.8978   34.4958 C   0  0  0  0  0  0  0  0  0  0  0  0
   30.6419   27.7958   35.3040 C   0  0  0  0  0  0  0  0  0  0  0  0
   33.2920   27.5718   32.8905 C   0  0  0  0  0  0  0  0  0  0  0  0
   32.1220   27.5174   33.6185 N   0  0  0  0  0  0  0  0  0  0  0  0
   33.5886   27.2777   42.5619 O   0  0  0  0  0  0  0  0  0  0  0  0
   32.0057   27.7726   34.9857 C   0  0  0  0  0  0  0  0  0  0  0  0
   33.3573   27.7748   40.2236 C   0  0  0  0  0  0  0  0  0  0  0  0
   29.8866   27.5904   34.1533 C   0  0  0  0  0  0  0  0  0  0  0  0
   33.0516   27.9922   35.8489 C   0  0  0  0  0  0  0  0  0  0  0  0
   32.0372   28.2268   38.1144 C   0  0  0  0  0  0  0  0  0  0  0  0
   27.5057   26.9867   31.5879 O   0  0  0  0  0  0  0  0  0  0  0  0
   29.9897   27.0405   31.9039 C   0  0  0  0  0  0  0  0  0  0  0  0
   33.3324   28.1787   41.7139 C   0  0  0  0  0  0  0  0  0  0  0  0
   28.5536   27.1925   32.3261 C   0  0  0  0  0  0  0  0  0  0  0  0
   30.7045   28.2149   37.7381 C   0  0  0  0  0  0  0  0  0  0  0  0
   32.2935   28.4114   39.5060 C   0  0  0  0  0  0  0  0  0  0  0  0
   32.7736   29.2851   42.0115 O   0  0  0  0  0  0  0  0  0  0  0  0
   30.8332   27.3313   33.0702 C   0  0  0  0  0  0  0  0  0  0  0  0
  1  4  1  0
  1 11  1  0
  1 17  2  0
  2 12  2  0
  2 13  1  0
  3  5  1  0
  3 18  2  0
  5  9  1  0
  5 11  2  0
  6  7  1  0
  7  9  1  0
  7 21  1  0
  8 16  2  0
  9 12  1  0
 10 16  1  0
 10 19  1  0
 11 21  1  0
 13 18  1  0
 13 19  1  0
 14 17  1  0
 15 17  1  0
 15 21  1  0
 16 20  1  0
M  END
>  <ID>  (1) 
conformer_0

$$$$
