
     RDKit          3D

 25 26  0  0  0  0  0  0  0  0999 V2000
   27.9214   27.7034   36.9387 C   0  0  0  0  0  0  0  0  0  0  0  0
   36.6754   28.4057   39.4479 O   0  0  0  0  0  0  0  0  0  0  0  0
   30.1936   27.8228   36.5378 N   0  0  0  0  0  0  0  0  0  0  0  0
   31.1291   27.6435   34.3466 N   0  0  0  0  0  0  0  0  0  0  0  0
   32.4987   27.6213   34.9484 C   0  0  0  0  0  0  0  0  0  0  0  0
   35.2678   28.1203   37.5603 C   0  0  0  0  0  0  0  0  0  0  0  0
   29.1969   27.8070   37.3725 C   0  0  0  0  0  0  0  0  0  0  0  0
   32.8409   28.3013   36.2168 C   0  0  0  0  0  0  0  0  0  0  0  0
   33.9845   28.5030   42.0605 P   0  0  0  0  0  4  0  0  0  0  0  0
   35.4125   28.5731   38.9526 C   0  0  0  0  0  0  0  0  0  0  0  0
   27.3752   27.5214   32.7196 O   0  0  0  0  0  0  0  0  0  0  0  0
   34.8754   27.0309   34.5987 O   0  0  0  0  0  0  0  0  0  0  0  0
   27.6838   27.6071   35.5717 C   0  0  0  0  0  0  0  0  0  0  0  0
   33.6425   27.0946   42.5482 O   0  0  0  0  0  1  0  0  0  0  0  0
   34.0099   27.7691   36.9910 N   0  0  0  0  0  0  0  0  0  0  0  0
   28.5544   27.5691   33.2475 C   0  0  0  0  0  0  0  0  0  0  0  0
   35.3814   29.0118   42.4279 O   0  0  0  0  0  0  0  0  0  0  0  0
   29.6978   27.5748   32.4894 N   0  0  0  0  0  0  0  0  0  0  0  0
   32.8470   28.6002   39.4950 C   0  0  0  0  0  0  0  0  0  0  0  0
   34.3033   28.4888   39.9013 C   0  0  0  0  0  0  0  0  0  0  0  0
   32.8083   29.4868   42.2777 O   0  0  0  0  0  0  0  0  0  0  0  0
   30.9306   27.5694   33.0308 C   0  0  0  0  0  0  0  0  0  0  0  0
   28.7267   27.6212   34.6563 C   0  0  0  0  0  0  0  0  0  0  0  0
   33.4972   26.5457   34.7047 C   0  0  0  0  0  0  0  0  0  0  0  0
   30.0474   27.6935   35.1925 C   0  0  0  0  0  0  0  0  0  0  0  0
  1  7  2  0
  1 13  1  0
  2 10  1  0
  3  7  1  0
  3 25  2  0
  4  5  1  0
  4 22  1  0
  4 25  1  0
  5  8  1  0
  5 24  1  0
  6 10  1  0
  6 15  1  0
  8 15  1  0
  9 14  2  0
  9 17  1  0
  9 20  1  0
  9 21  1  0
 10 20  1  0
 11 16  2  0
 12 24  1  0
 13 23  2  0
 16 18  1  0
 16 23  1  0
 18 22  2  0
 19 20  1  0
 23 25  1  0
M  END
>  <ID>  (1) 
conformer_0

$$$$
