
     RDKit          3D

 29 31  0  0  0  0  0  0  0  0999 V2000
   29.6814   27.5802   33.7324 C   0  0  0  0  0  0  0  0  0  0  0  0
   36.1928   28.2794   39.3700 O   0  0  0  0  0  0  0  0  0  0  0  0
   33.3714   27.9312   40.7158 O   0  0  0  0  0  0  0  0  0  0  0  0
   27.4319   27.5439   32.9963 C   0  0  0  0  0  0  0  0  0  0  0  0
   35.1124   28.7348   42.3505 O   0  0  0  0  0  1  0  0  0  0  0  0
   37.5881   30.0314   39.1000 O   0  0  0  0  0  0  0  0  0  0  0  0
   32.8215   27.5833   35.7095 O   0  0  0  0  0  0  0  0  0  0  0  0
   33.4503   28.8783   39.5880 C   0  0  0  0  0  0  0  0  0  0  0  0
   28.2953   28.0129   35.4386 N   0  0  0  0  0  0  0  0  0  0  0  0
   37.2946   28.9769   39.7412 C   0  0  0  0  0  0  0  0  0  0  0  0
   32.7739   29.8594   42.1341 O   0  0  0  0  0  0  0  0  0  0  0  0
   38.0200   28.4034   40.6474 O   0  0  0  0  0  0  0  0  0  0  0  0
   31.8861   27.6136   34.6065 N   0  0  0  0  0  0  0  0  0  0  0  0
   34.0793   28.2792   35.2994 C   0  0  0  0  0  0  0  0  0  0  0  0
   34.4551   27.9774   37.7255 C   0  0  0  0  0  0  0  0  0  0  0  0
   35.6650   27.7290   36.9447 N   0  0  0  0  0  0  0  0  0  0  0  0
   34.8409   28.7673   38.9488 C   0  0  0  0  0  0  0  0  0  0  0  0
   29.9413   28.1809   37.1861 N   0  0  0  0  0  0  0  0  0  0  0  0
   31.4698   27.2693   32.2834 N   0  0  0  0  0  0  0  0  0  0  0  0
   35.2211   27.3396   35.5735 C   0  0  0  0  0  0  0  0  0  0  0  0
   29.1558   27.1346   31.4603 C   0  0  0  0  0  0  0  0  0  0  0  0
   30.1542   27.3221   32.4759 C   0  0  0  0  0  0  0  0  0  0  0  0
   29.6543   27.9703   35.9011 C   0  0  0  0  0  0  0  0  0  0  0  0
   33.6022   28.5640   42.2002 P   0  0  0  0  0  4  0  0  0  0  0  0
   28.3549   27.7122   34.0660 C   0  0  0  0  0  0  0  0  0  0  0  0
   30.5216   27.7322   34.7983 C   0  0  0  0  0  0  0  0  0  0  0  0
   33.0774   27.6975   43.2811 O   0  0  0  0  0  0  0  0  0  0  0  0
   32.2251   27.4149   33.3025 C   0  0  0  0  0  0  0  0  0  0  0  0
   27.8574   27.2527   31.7472 N   0  0  0  0  0  0  0  0  0  0  0  0
  1 22  2  0
  1 25  1  0
  1 26  1  0
  2 10  1  0
  2 17  1  0
  3  8  1  0
  3 24  1  0
  4 25  2  0
  4 29  1  0
  5 24  2  0
  6 10  2  0
  7 13  1  0
  7 14  1  0
  8 17  1  0
  9 23  1  0
  9 25  1  0
 10 12  1  0
 11 24  1  0
 13 26  1  0
 13 28  1  0
 14 20  1  0
 15 16  1  0
 15 17  1  0
 16 20  1  0
 18 23  2  0
 19 22  1  0
 19 28  2  0
 21 22  1  0
 21 29  2  0
 23 26  1  0
 24 27  1  0
M  END
>  <ID>  (1) 
conformer_0

$$$$
