
     RDKit          3D

 32 36  0  0  0  0  0  0  0  0999 V2000
   30.4522   28.4004   36.2374 C   0  0  0  0  0  0  0  0  0  0  0  0
   32.6525   29.3659   38.1101 N   0  0  0  0  0  0  0  0  0  0  0  0
   28.6423   28.8436   38.1990 C   0  0  0  0  0  0  0  0  0  0  0  0
   33.4784   26.5557   42.5064 O   0  0  0  0  0  0  0  0  0  0  0  0
   29.6104   26.6627   30.9185 C   0  0  0  0  0  0  0  0  0  0  0  0
   30.1480   26.9806   32.0978 C   0  0  0  0  0  0  0  0  0  0  0  0
   27.9260   27.1547   32.2769 N   0  0  0  0  0  0  0  0  0  0  0  0
   33.7532   26.8680   32.6526 N   0  0  0  0  0  0  0  0  0  0  0  0
   33.2829   27.1528   41.3955 C   0  0  0  0  0  0  0  0  0  0  0  0
   34.9507   30.2943   40.0019 C   0  0  0  0  0  0  0  0  0  0  0  0
   28.9878   28.2926   36.8504 C   0  0  0  0  0  0  0  0  0  0  0  0
   32.6449   26.9159   31.8350 C   0  0  0  0  0  0  0  0  0  0  0  0
   34.7880   30.5197   42.3790 C   0  0  0  0  0  0  0  0  0  0  0  0
   30.7040   27.7103   34.8321 C   0  0  0  0  0  0  0  0  0  0  0  0
   34.7218   26.9994   37.1236 C   0  0  0  0  0  0  0  0  0  0  0  0
   33.7263   28.7261   38.7125 C   0  0  0  0  0  0  0  0  0  0  0  0
   34.3992   27.7647   38.0301 C   0  0  0  0  0  0  0  0  0  0  0  0
   31.8550   27.2953   33.9137 C   0  0  0  0  0  0  0  0  0  0  0  0
   31.2213   29.4149   38.5491 C   0  0  0  0  0  0  0  0  0  0  0  0
   35.2772   30.9705   41.1320 C   0  0  0  0  0  0  0  0  0  0  0  0
   34.1659   29.1628   40.0023 C   0  0  0  0  0  0  0  0  0  0  0  0
   34.6597   26.7095   35.9140 C   0  0  0  0  0  0  0  0  0  0  0  0
   34.0814   29.3034   42.4083 C   0  0  0  0  0  0  0  0  0  0  0  0
   29.3329   27.5540   34.2966 C   0  0  0  0  0  0  0  0  0  0  0  0
   33.2841   27.0332   33.9309 C   0  0  0  0  0  0  0  0  0  0  0  0
   29.0875   27.2506   32.9699 C   0  0  0  0  0  0  0  0  0  0  0  0
   31.4924   27.0650   32.5743 C   0  0  0  0  0  0  0  0  0  0  0  0
   28.2749   26.7467   31.0069 N   0  0  0  0  0  0  0  0  0  0  0  0
   32.7230   26.5400   40.4092 O   0  0  0  0  0  0  0  0  0  0  0  0
   29.7920   29.4532   38.8718 C   0  0  0  0  0  0  0  0  0  0  0  0
   33.8630   28.5481   41.2303 C   0  0  0  0  0  0  0  0  0  0  0  0
   34.1606   26.8092   34.8788 N   0  0  0  0  0  0  0  0  0  0  0  0
  1 11  2  0
  1 14  1  0
  2 16  1  0
  2 19  1  0
  3 11  1  0
  3 30  1  0
  4  9  2  0
  5  6  1  0
  5 28  1  0
  6 26  1  0
  6 27  2  0
  7 26  1  0
  7 28  1  0
  8 12  1  0
  8 25  2  0
  9 29  1  0
  9 31  1  0
 10 20  2  0
 10 21  1  0
 12 27  1  0
 13 20  1  0
 13 23  1  0
 14 18  2  0
 14 24  1  0
 15 17  2  0
 15 22  1  0
 16 17  2  0
 16 21  1  0
 18 25  1  0
 18 27  1  0
 19 30  1  0
 21 31  1  0
 22 32  1  0
 23 31  2  0
 24 26  2  0
 25 32  1  0
M  END
>  <ID>  (1) 
conformer_0

$$$$
