
     RDKit          3D

 18 18  0  0  0  0  0  0  0  0999 V2000
   33.9571   27.8563   41.6704 O   0  0  0  0  0  1  0  0  0  0  0  0
   32.3883   29.4485   40.8215 O   0  0  0  0  0  0  0  0  0  0  0  0
   28.5195   28.6814   37.0811 C   0  0  0  0  0  0  0  0  0  0  0  0
   35.2392   28.5710   38.8677 C   0  0  0  0  0  0  0  0  0  0  0  0
   32.0449   27.4717   35.2174 C   0  0  0  0  0  0  0  0  0  0  0  0
   29.7452   27.2746   33.7371 C   0  0  0  0  0  0  0  0  0  0  0  0
   30.9956   26.9713   33.2390 C   0  0  0  0  0  0  0  0  0  0  0  0
   27.4213   26.9862   35.7010 O   0  0  0  0  0  0  0  0  0  0  0  0
   30.8394   27.8097   35.7678 N   0  0  0  0  0  0  0  0  0  0  0  0
   33.6524   28.8759   40.8674 P   0  0  0  0  0  4  0  0  0  0  0  0
   28.5376   27.2383   32.7687 C   0  0  0  0  0  0  0  0  0  0  0  0
   29.6754   27.6327   35.1013 C   0  0  0  0  0  0  0  0  0  0  0  0
   34.7796   29.6416   39.9328 C   0  0  0  0  0  0  0  0  0  0  0  0
   33.3962   27.4940   35.9714 C   0  0  0  0  0  0  0  0  0  0  0  0
   28.3970   27.7882   35.8617 C   0  0  0  0  0  0  0  0  0  0  0  0
   33.5522   28.6143   37.0224 C   0  0  0  0  0  0  0  0  0  0  0  0
   33.9465   27.8971   38.3370 C   0  0  0  0  0  0  0  0  0  0  0  0
   32.1250   27.0681   33.9193 N   0  0  0  0  0  0  0  0  0  0  0  0
  1 10  2  0
  2 10  1  0
  3 15  1  0
  4 13  1  0
  4 17  1  0
  5  9  1  0
  5 14  1  0
  5 18  1  0
  6  7  1  0
  6 11  1  0
  6 12  1  0
  7 18  2  0
  8 15  2  0
  9 12  2  0
 10 13  1  0
 12 15  1  0
 14 16  1  0
 16 17  1  0
M  END
>  <ID>  (1) 
conformer_0

$$$$
