
     RDKit          3D

 21 21  0  0  0  0  0  0  0  0999 V2000
   32.8386   28.0325   37.5392 C   0  0  0  0  0  0  0  0  0  0  0  0
   28.8091   27.3140   34.2355 C   0  0  0  0  0  0  0  0  0  0  0  0
   33.6246   27.1645   42.1817 O   0  0  0  0  0  0  0  0  0  0  0  0
   27.8476   27.3917   32.0131 O   0  0  0  0  0  0  0  0  0  0  0  0
   31.9327   28.2321   35.0883 C   0  0  0  0  0  0  0  0  0  0  0  0
   34.9859   27.7377   33.6093 C   0  0  0  0  0  0  0  0  0  0  0  0
   34.1322   27.2114   37.3443 C   0  0  0  0  0  0  0  0  0  0  0  0
   34.1291   27.1108   34.6812 C   0  0  0  0  0  0  0  0  0  0  0  0
   28.2931   27.7002   35.5989 C   0  0  0  0  0  0  0  0  0  0  0  0
   32.6943   27.2425   34.2446 C   0  0  0  0  0  0  0  0  0  0  0  0
   32.5981   29.2726   39.7876 C   0  0  0  0  0  0  0  0  0  0  0  0
   31.7936   27.7504   36.5186 C   0  0  0  0  0  0  0  0  0  0  0  0
   26.8178   28.5017   33.6570 N   0  0  0  0  0  0  0  0  0  0  0  0
   29.3188   28.4023   36.4547 C   0  0  0  0  0  0  0  0  0  0  0  0
   33.7887   29.1192   40.7762 C   0  0  0  0  0  0  0  0  0  0  0  0
   30.3938   27.4430   36.9672 C   0  0  0  0  0  0  0  0  0  0  0  0
   32.7311   29.0634   42.9499 O   0  0  0  0  0  0  0  0  0  0  0  0
   33.3595   28.4035   42.0657 C   0  0  0  0  0  0  0  0  0  0  0  0
   32.3916   27.9542   39.0045 C   0  0  0  0  0  0  0  0  0  0  0  0
   27.8500   27.7799   33.2154 C   0  0  0  0  0  0  0  0  0  0  0  0
   34.7770   27.3261   35.9872 C   0  0  0  0  0  0  0  0  0  0  0  0
  1  7  1  0
  1 12  1  0
  1 19  1  0
  2  9  1  0
  2 20  1  0
  3 18  2  0
  4 20  2  0
  5 10  1  0
  5 12  1  0
  6  8  1  0
  7 21  1  0
  8 10  1  0
  8 21  1  0
  9 14  1  0
 11 15  1  0
 11 19  1  0
 12 16  1  0
 13 20  1  0
 14 16  1  0
 15 18  1  0
 17 18  1  0
M  END
>  <ID>  (1) 
conformer_0

$$$$
