
     RDKit          3D

 24 26  0  0  0  0  0  0  0  0999 V2000
   29.1585   27.6302   34.9224 C   0  0  0  0  0  0  0  0  0  0  0  0
   32.9509   28.3009   38.4962 C   0  0  0  0  0  0  0  0  0  0  0  0
   28.3354   27.9196   35.9827 O   0  0  0  0  0  0  0  0  0  0  0  0
   28.4616   27.4840   33.7080 C   0  0  0  0  0  0  0  0  0  0  0  0
   27.0870   27.6877   33.7221 N   0  0  0  0  0  0  0  0  0  0  0  0
   33.4734   28.6391   40.8238 C   0  0  0  0  0  0  0  0  0  0  0  0
   31.1106   27.8454   36.4469 C   0  0  0  0  0  0  0  0  0  0  0  0
   33.9697   28.5131   39.5391 C   0  0  0  0  0  0  0  0  0  0  0  0
   31.5764   28.5154   38.7274 C   0  0  0  0  0  0  0  0  0  0  0  0
   31.5617   27.1613   34.2393 C   0  0  0  0  0  0  0  0  0  0  0  0
   32.5040   27.6852   36.4708 C   0  0  0  0  0  0  0  0  0  0  0  0
   28.1066   27.0005   31.4170 O   0  0  0  0  0  0  0  0  0  0  0  0
   30.5951   28.3248   37.6904 C   0  0  0  0  0  0  0  0  0  0  0  0
   31.3211   26.8772   32.9456 C   0  0  0  0  0  0  0  0  0  0  0  0
   33.3761   26.4375   43.1416 O   0  0  0  0  0  0  0  0  0  0  0  0
   32.5243   29.4815   41.2755 O   0  0  0  0  0  0  0  0  0  0  0  0
   30.5647   27.5271   35.1711 C   0  0  0  0  0  0  0  0  0  0  0  0
   33.5475   27.8787   43.0592 C   0  0  0  0  0  0  0  0  0  0  0  0
   33.4551   27.3673   35.7642 C   0  0  0  0  0  0  0  0  0  0  0  0
   30.2768   26.8566   32.1965 C   0  0  0  0  0  0  0  0  0  0  0  0
   34.3163   28.2141   41.8746 O   0  0  0  0  0  0  0  0  0  0  0  0
   32.9321   27.0795   34.5549 C   0  0  0  0  0  0  0  0  0  0  0  0
   33.3905   27.8382   37.2666 C   0  0  0  0  0  0  0  0  0  0  0  0
   28.9305   27.1154   32.4471 C   0  0  0  0  0  0  0  0  0  0  0  0
  1  3  1  0
  1  4  1  0
  1 17  2  0
  2  8  1  0
  2  9  2  0
  2 23  1  0
  4  5  1  0
  4 24  2  0
  6  8  1  0
  6 16  2  0
  6 21  1  0
  7 11  2  0
  7 13  1  0
  7 17  1  0
  9 13  1  0
 10 14  1  0
 10 17  1  0
 10 22  2  0
 11 19  1  0
 11 23  1  0
 12 24  1  0
 14 20  2  0
 15 18  1  0
 18 21  1  0
 19 22  1  0
 20 24  1  0
M  END
>  <ID>  (1) 
conformer_0

$$$$
