
     RDKit          3D

 23 26  0  0  0  0  0  0  0  0999 V2000
   29.3783   27.7765   34.3266 C   0  0  0  0  0  0  0  0  0  0  0  0
   33.2575   27.1650   37.3018 O   0  0  0  0  0  0  0  0  0  0  0  0
   28.7734   27.9986   35.5077 C   0  0  0  0  0  0  0  0  0  0  0  0
   28.9667   27.4555   32.0599 N   0  0  0  0  0  0  0  0  0  0  0  0
   33.8206   27.7033   43.0209 O   0  0  0  0  0  1  0  0  0  0  0  0
   27.3957   28.0215   35.3658 N   0  0  0  0  0  0  0  0  0  0  0  0
   35.4723   28.6387   41.3607 O   0  0  0  0  0  0  0  0  0  0  0  0
   33.3111   28.0789   39.4740 C   0  0  0  0  0  0  0  0  0  0  0  0
   33.9994   28.0311   38.1094 C   0  0  0  0  0  0  0  0  0  0  0  0
   30.3093   27.3607   31.9395 C   0  0  0  0  0  0  0  0  0  0  0  0
   30.7751   28.0340   36.5406 C   0  0  0  0  0  0  0  0  0  0  0  0
   31.2082   27.4606   32.9656 N   0  0  0  0  0  0  0  0  0  0  0  0
   30.7078   27.6735   34.1960 C   0  0  0  0  0  0  0  0  0  0  0  0
   33.8508   28.8798   35.8858 C   0  0  0  0  0  0  0  0  0  0  0  0
   32.9762   28.6493   40.7717 O   0  0  0  0  0  0  0  0  0  0  0  0
   34.2335   29.2222   37.3760 O   0  0  0  0  0  0  0  0  0  0  0  0
   27.1709   27.7599   33.8114 N   0  0  0  0  0  0  0  0  0  0  0  0
   31.4862   27.7931   35.4117 N   0  0  0  0  0  0  0  0  0  0  0  0
   33.0237   27.6285   35.8965 C   0  0  0  0  0  0  0  0  0  0  0  0
   29.5152   28.1576   36.6685 N   0  0  0  0  0  0  0  0  0  0  0  0
   34.0863   28.7812   41.9771 P   0  0  0  0  0  4  0  0  0  0  0  0
   33.8901   30.1753   42.5708 O   0  0  0  0  0  0  0  0  0  0  0  0
   28.5045   27.6534   33.3055 C   0  0  0  0  0  0  0  0  0  0  0  0
  1  3  1  0
  1 13  1  0
  1 23  2  0
  2  9  1  0
  2 19  1  0
  3  6  2  0
  3 20  1  0
  4 10  2  0
  4 23  1  0
  5 21  2  0
  6 17  1  0
  7 21  1  0
  8  9  1  0
  8 15  1  0
  9 16  1  0
 10 12  1  0
 11 18  1  0
 11 20  2  0
 12 13  2  0
 13 18  1  0
 14 16  1  0
 14 19  1  0
 15 21  1  0
 17 23  1  0
 18 19  1  0
 21 22  1  0
M  END
>  <ID>  (1) 
conformer_0

$$$$
