
     RDKit          3D

 24 26  0  0  0  0  0  0  0  0999 V2000
   32.6896   27.1536   33.9941 C   0  0  0  0  0  0  0  0  0  0  0  0
   27.2397   27.6651   32.8561 N   0  0  0  0  0  0  0  0  0  0  0  0
   32.6356   29.6745   42.4942 O   0  0  0  0  0  0  0  0  0  0  0  0
   33.5519   28.1580   39.0347 C   0  0  0  0  0  0  0  0  0  0  0  0
   33.2606   26.8760   31.8200 C   0  0  0  0  0  0  0  0  0  0  0  0
   33.2564   27.3500   35.3940 C   0  0  0  0  0  0  0  0  0  0  0  0
   34.8109   28.6533   39.6427 C   0  0  0  0  0  0  0  0  0  0  0  0
   34.8776   27.5310   37.0074 N   0  0  0  0  0  0  0  0  0  0  0  0
   32.2444   28.6293   39.4209 C   0  0  0  0  0  0  0  0  0  0  0  0
   34.6130   27.2367   35.6611 C   0  0  0  0  0  0  0  0  0  0  0  0
   32.6550   27.6992   36.6016 C   0  0  0  0  0  0  0  0  0  0  0  0
   33.5459   28.8422   41.9293 P   0  0  0  0  0  4  0  0  0  0  0  0
   29.1878   27.6170   34.2289 C   0  0  0  0  0  0  0  0  0  0  0  0
   31.9485   26.9554   31.8552 N   0  0  0  0  0  0  0  0  0  0  0  0
   27.9549   27.2351   31.7832 N   0  0  0  0  0  0  0  0  0  0  0  0
   29.7232   27.7134   35.4515 O   0  0  0  0  0  0  0  0  0  0  0  0
   27.8369   27.8567   34.0711 C   0  0  0  0  0  0  0  0  0  0  0  0
   31.4607   27.1270   33.1458 N   0  0  0  0  0  0  0  0  0  0  0  0
   33.7116   26.9599   33.0397 C   0  0  0  0  0  0  0  0  0  0  0  0
   29.9958   27.2533   33.0940 C   0  0  0  0  0  0  0  0  0  0  0  0
   34.5180   29.4824   40.9130 N   0  0  0  0  0  0  0  0  0  0  0  0
   29.2725   27.0588   31.8963 C   0  0  0  0  0  0  0  0  0  0  0  0
   33.6457   27.8019   37.6303 C   0  0  0  0  0  0  0  0  0  0  0  0
   33.7862   27.6443   42.4495 O   0  0  0  0  0  1  0  0  0  0  0  0
  1  6  2  3
  1 18  1  0
  1 19  1  0
  2 15  1  0
  2 17  1  0
  3 12  1  0
  4  7  1  0
  4  9  1  0
  4 23  1  0
  5 14  1  0
  5 19  1  0
  6 10  1  0
  6 11  1  0
  7 21  1  0
  8 10  1  0
  8 23  1  0
 11 23  1  0
 12 21  1  0
 12 24  2  0
 13 16  1  0
 13 17  2  0
 13 20  1  0
 14 18  1  0
 15 22  2  0
 18 20  1  0
 20 22  1  0
M  END
>  <ID>  (1) 
conformer_0

$$$$
