
     RDKit          3D

 25 28  0  0  0  0  0  0  0  0999 V2000
   28.0146   28.2549   35.9152 C   0  0  0  0  0  0  0  0  0  0  0  0
   32.3370   30.0011   42.0757 O   0  0  0  0  0  0  0  0  0  0  0  0
   33.0668   26.1058   42.0278 C   0  0  0  0  0  0  0  0  0  0  0  0
   34.2358   26.7428   35.1111 N   0  0  0  0  0  0  0  0  0  0  0  0
   32.5920   27.7566   37.5212 C   0  0  0  0  0  0  0  0  0  0  0  0
   32.9007   28.7803   41.5999 O   0  0  0  0  0  0  0  0  0  0  0  0
   30.1730   27.7680   34.7304 C   0  0  0  0  0  0  0  0  0  0  0  0
   28.0604   27.6482   33.5415 C   0  0  0  0  0  0  0  0  0  0  0  0
   33.4474   27.0858   38.3845 C   0  0  0  0  0  0  0  0  0  0  0  0
   30.0989   26.9876   32.4204 C   0  0  0  0  0  0  0  0  0  0  0  0
   31.8453   29.1635   39.3621 C   0  0  0  0  0  0  0  0  0  0  0  0
   28.7759   27.8972   34.6797 C   0  0  0  0  0  0  0  0  0  0  0  0
   32.2726   27.6156   36.1122 N   0  0  0  0  0  0  0  0  0  0  0  0
   33.2756   27.2593   39.7944 C   0  0  0  0  0  0  0  0  0  0  0  0
   33.5166   26.3089   40.6758 O   0  0  0  0  0  0  0  0  0  0  0  0
   32.7089   24.5708   42.1329 C   0  0  0  0  0  0  0  0  0  0  0  0
   32.7053   28.4370   40.2434 C   0  0  0  0  0  0  0  0  0  0  0  0
   30.8342   27.2476   33.5884 C   0  0  0  0  0  0  0  0  0  0  0  0
   28.6708   27.1608   32.3772 C   0  0  0  0  0  0  0  0  0  0  0  0
   30.6345   28.8219   37.0434 N   0  0  0  0  0  0  0  0  0  0  0  0
   32.9946   27.0998   35.0008 C   0  0  0  0  0  0  0  0  0  0  0  0
   27.9170   26.8639   31.3125 O   0  0  0  0  0  0  0  0  0  0  0  0
   32.2969   26.9714   33.7009 S   0  0  0  0  0  0  0  0  0  0  0  0
   30.9728   28.1066   35.9290 C   0  0  0  0  0  0  0  0  0  0  0  0
   31.6753   28.6529   38.0144 C   0  0  0  0  0  0  0  0  0  0  0  0
  1 12  1  0
  2  6  1  0
  3 15  1  0
  3 16  1  0
  4 21  2  0
  5  9  2  0
  5 13  1  0
  5 25  1  0
  6 17  1  0
  7 12  1  0
  7 18  2  0
  7 24  1  0
  8 12  2  0
  8 19  1  0
  9 14  1  0
 10 18  1  0
 10 19  2  0
 11 17  2  0
 11 25  1  0
 13 21  1  0
 13 24  1  0
 14 15  1  0
 14 17  1  0
 18 23  1  0
 19 22  1  0
 20 24  2  0
 20 25  1  0
 21 23  1  0
M  END
>  <ID>  (1) 
conformer_0

$$$$
