
     RDKit          3D

 29 33  0  0  0  0  0  0  0  0999 V2000
   33.9609   28.1091   39.6669 C   0  0  0  0  0  0  0  0  0  0  0  0
   32.4694   27.5718   34.7922 N   0  0  0  0  0  0  0  0  0  0  0  0
   34.4456   27.3590   36.1289 N   0  0  0  0  0  0  0  0  0  0  0  0
   31.6903   28.0164   33.7547 C   0  0  0  0  0  0  0  0  0  0  0  0
   28.6029   29.5649   38.8332 C   0  0  0  0  0  0  0  0  0  0  0  0
   28.4247   27.5483   32.0929 O   0  0  0  0  0  0  0  0  0  0  0  0
   33.8333   27.3861   34.8751 C   0  0  0  0  0  0  0  0  0  0  0  0
   29.4538   27.1075   34.7391 C   0  0  0  0  0  0  0  0  0  0  0  0
   27.9354   27.3699   34.6946 C   0  0  0  0  0  0  0  0  0  0  0  0
   30.3179   28.7468   31.4307 C   0  0  0  0  0  0  0  0  0  0  0  0
   32.8517   28.8732   37.2292 C   0  0  0  0  0  0  0  0  0  0  0  0
   30.3045   27.7287   33.6772 C   0  0  0  0  0  0  0  0  0  0  0  0
   31.0455   30.1986   38.4075 C   0  0  0  0  0  0  0  0  0  0  0  0
   27.6807   28.8445   38.1434 C   0  0  0  0  0  0  0  0  0  0  0  0
   33.9543   27.9924   37.2412 C   0  0  0  0  0  0  0  0  0  0  0  0
   31.6618   29.1318   31.6075 C   0  0  0  0  0  0  0  0  0  0  0  0
   32.3012   28.7440   32.7449 C   0  0  0  0  0  0  0  0  0  0  0  0
   32.4839   29.0407   41.0302 N   0  0  0  0  0  0  0  0  0  0  0  0
   33.5310   28.0906   41.3019 C   0  0  0  0  0  0  0  0  0  0  0  0
   29.6646   28.0163   32.4028 C   0  0  0  0  0  0  0  0  0  0  0  0
   27.4757   27.5140   36.0882 O   0  0  0  0  0  0  0  0  0  0  0  0
   34.5241   27.2289   33.8497 O   0  0  0  0  0  0  0  0  0  0  0  0
   32.2851   29.3647   38.3924 C   0  0  0  0  0  0  0  0  0  0  0  0
   29.8285   29.4310   38.1384 N   0  0  0  0  0  0  0  0  0  0  0  0
   32.8946   28.9139   39.5971 C   0  0  0  0  0  0  0  0  0  0  0  0
   33.7502   27.2754   42.1788 N   0  0  0  0  0  0  0  0  0  0  0  0
   28.2907   28.2308   37.0029 C   0  0  0  0  0  0  0  0  0  0  0  0
   29.6806   28.5620   37.1077 C   0  0  0  0  0  0  0  0  0  0  0  0
   34.5694   27.7064   38.4615 C   0  0  0  0  0  0  0  0  0  0  0  0
  1 19  1  0
  1 25  2  0
  1 29  1  0
  2  4  1  0
  2  7  1  0
  3  7  1  0
  3 15  2  0
  4 12  2  0
  4 17  1  0
  5 14  1  0
  5 24  1  0
  6 20  1  0
  7 22  2  0
  8  9  1  0
  8 12  1  0
  9 21  1  0
 10 16  1  0
 10 20  2  0
 11 15  1  0
 11 23  2  0
 12 20  1  0
 13 23  1  0
 13 24  1  0
 14 27  1  0
 15 29  1  0
 16 17  2  0
 18 19  1  0
 18 25  1  0
 19 26  2  0
 21 27  1  0
 23 25  1  0
 24 28  1  0
 27 28  1  0
M  END
>  <ID>  (1) 
conformer_0

$$$$
