
     RDKit          3D

 24 25  0  0  0  0  0  0  0  0999 V2000
   34.0503   27.9771   42.8034 O   0  0  0  0  0  0  0  0  0  0  0  0
   35.8473   28.6977   40.7922 O   0  0  0  0  0  0  0  0  0  0  0  0
   30.5138   28.4151   37.3286 C   0  0  0  0  0  0  0  0  0  0  0  0
   27.6701   27.3894   32.2106 N   0  0  0  0  0  0  0  0  0  0  0  0
   31.7013   27.0211   33.0047 C   0  0  0  0  0  0  0  0  0  0  0  0
   28.1432   27.7528   33.4200 C   0  0  0  0  0  0  0  0  0  0  0  0
   28.5258   26.8833   31.2790 C   0  0  0  0  0  0  0  0  0  0  0  0
   32.3614   27.8607   35.3461 P   0  0  0  0  0  4  0  0  0  0  0  0
   30.8763   27.9964   35.8652 C   0  0  0  0  0  0  0  0  0  0  0  0
   33.8691   29.2188   39.3127 C   0  0  0  0  0  0  0  0  0  0  0  0
   33.6745   28.6785   41.8340 C   0  0  0  0  0  0  0  0  0  0  0  0
   34.5132   28.6219   40.5497 C   0  0  0  0  0  0  0  0  0  0  0  0
   33.8791   27.6226   37.4030 C   0  0  0  0  0  0  0  0  0  0  0  0
   33.0398   28.2145   38.5050 C   0  0  0  0  0  0  0  0  0  0  0  0
   32.8899   29.1748   35.4021 O   0  0  0  0  0  1  0  0  0  0  0  0
   33.2803   27.1105   36.2598 O   0  0  0  0  0  0  0  0  0  0  0  0
   32.4421   27.3061   34.0133 C   0  0  0  0  0  0  0  0  0  0  0  0
   32.6779   29.4674   41.8324 O   0  0  0  0  0  0  0  0  0  0  0  0
   29.4733   27.5842   33.7622 C   0  0  0  0  0  0  0  0  0  0  0  0
   30.3502   27.1093   32.7492 C   0  0  0  0  0  0  0  0  0  0  0  0
   29.8685   26.7604   31.5301 C   0  0  0  0  0  0  0  0  0  0  0  0
   28.9422   28.3431   37.4767 C   0  0  0  0  0  0  0  0  0  0  0  0
   32.4875   27.1887   39.4792 C   0  0  0  0  0  0  0  0  0  0  0  0
   29.8998   27.8621   35.0022 C   0  0  0  0  0  0  0  0  0  0  0  0
  1 11  2  0
  2 12  1  0
  3  9  1  0
  3 22  1  0
  4  6  2  0
  4  7  1  0
  5 17  2  0
  5 20  1  0
  6 19  1  0
  7 21  2  0
  8  9  1  0
  8 15  2  0
  8 16  1  0
  8 17  1  0
  9 24  2  0
 10 12  1  0
 10 14  1  0
 11 12  1  0
 11 18  1  0
 13 14  1  0
 13 16  1  0
 14 23  1  0
 19 20  2  0
 19 24  1  0
 20 21  1  0
M  END
>  <ID>  (1) 
conformer_0

$$$$
