
     RDKit          3D

 27 30  0  0  0  0  0  0  0  0999 V2000
   29.8083   27.9217   34.0410 N   0  0  0  0  0  0  0  0  0  0  0  0
   34.5301   28.3330   41.5009 C   0  0  0  0  0  0  0  0  0  0  0  0
   31.9629   28.0930   34.5923 C   0  0  0  0  0  0  0  0  0  0  0  0
   29.1601   29.5926   39.6268 O   0  0  0  0  0  0  0  0  0  0  0  0
   30.1048   27.3176   31.5647 C   0  0  0  0  0  0  0  0  0  0  0  0
   29.9335   29.4249   38.5281 C   0  0  0  0  0  0  0  0  0  0  0  0
   34.7826   29.4293   42.4733 C   0  0  0  0  0  0  0  0  0  0  0  0
   30.5157   27.6947   32.9615 C   0  0  0  0  0  0  0  0  0  0  0  0
   27.3795   27.2196   35.8494 C   0  0  0  0  0  0  0  0  0  0  0  0
   33.8458   28.3974   38.9946 C   0  0  0  0  0  0  0  0  0  0  0  0
   32.5123   28.0963   39.3604 O   0  0  0  0  0  0  0  0  0  0  0  0
   34.1391   28.5298   37.5257 C   0  0  0  0  0  0  0  0  0  0  0  0
   34.9897   29.7499   37.1144 C   0  0  0  0  0  0  0  0  0  0  0  0
   32.9052   28.4315   36.6461 C   0  0  0  0  0  0  0  0  0  0  0  0
   33.0547   27.7199   32.3618 C   0  0  0  0  0  0  0  0  0  0  0  0
   30.4784   28.5000   36.4079 C   0  0  0  0  0  0  0  0  0  0  0  0
   27.4112   25.9890   36.3815 O   0  0  0  0  0  0  0  0  0  0  0  0
   30.6394   28.1835   35.0802 C   0  0  0  0  0  0  0  0  0  0  0  0
   31.6120   28.5273   37.1625 N   0  0  0  0  0  0  0  0  0  0  0  0
   29.2515   28.8469   37.2709 C   0  0  0  0  0  0  0  0  0  0  0  0
   33.0473   28.2424   35.3152 N   0  0  0  0  0  0  0  0  0  0  0  0
   33.5217   27.3649   42.1346 C   0  0  0  0  0  0  0  0  0  0  0  0
   26.3832   27.4529   34.9453 O   0  0  0  0  0  0  0  0  0  0  0  0
   34.7841   28.7446   40.1126 C   0  0  0  0  0  0  0  0  0  0  0  0
   28.0849   28.4545   36.2795 C   0  0  0  0  0  0  0  0  0  0  0  0
   31.8690   27.8263   33.2690 N   0  0  0  0  0  0  0  0  0  0  0  0
   31.2675   28.6710   38.6798 C   0  0  0  0  0  0  0  0  0  0  0  0
  1  8  2  0
  1 18  1  0
  2  7  1  0
  2 22  1  0
  2 24  1  0
  3 18  1  0
  3 21  2  0
  3 26  1  0
  4  6  1  0
  5  8  1  0
  6 20  1  0
  6 27  1  0
  8 26  1  0
  9 17  2  0
  9 23  1  0
  9 25  1  0
 10 11  1  0
 10 12  1  0
 10 24  1  0
 11 27  1  0
 12 13  1  0
 12 14  1  0
 14 19  1  0
 14 21  1  0
 15 26  1  0
 16 18  2  0
 16 19  1  0
 16 20  1  0
 19 27  1  0
 20 25  1  0
M  END
>  <ID>  (1) 
conformer_0

$$$$
