
     RDKit          3D

 28 30  0  0  0  0  0  0  0  0999 V2000
   27.1525   27.5798   32.7293 O   0  0  0  0  0  0  0  0  0  0  0  0
   29.3621   26.8710   31.1926 C   0  0  0  0  0  0  0  0  0  0  0  0
   28.5212   28.1263   34.6869 C   0  0  0  0  0  0  0  0  0  0  0  0
   29.7687   28.2853   35.1012 N   0  0  0  0  0  0  0  0  0  0  0  0
   32.8524   28.3543   38.3278 C   0  0  0  0  0  0  0  0  0  0  0  0
   28.1390   29.8643   39.3544 C   0  0  0  0  0  0  0  0  0  0  0  0
   33.5681   26.8302   42.9512 O   0  0  0  0  0  0  0  0  0  0  0  0
   30.6014   29.2601   38.7481 C   0  0  0  0  0  0  0  0  0  0  0  0
   34.1911   27.0804   35.1831 C   0  0  0  0  0  0  0  0  0  0  0  0
   29.4880   27.4279   32.5925 N   0  0  0  0  0  0  0  0  0  0  0  0
   30.8560   28.0045   34.4787 C   0  0  0  0  0  0  0  0  0  0  0  0
   27.4865   28.4037   35.8219 C   0  0  0  0  0  0  0  0  0  0  0  0
   29.0949   29.1196   38.4126 C   0  0  0  0  0  0  0  0  0  0  0  0
   33.8250   27.7311   42.0225 C   0  0  0  0  0  0  0  0  0  0  0  0
   33.1862   27.5006   40.6717 C   0  0  0  0  0  0  0  0  0  0  0  0
   33.3452   28.6499   39.6865 C   0  0  0  0  0  0  0  0  0  0  0  0
   34.7859   28.5489   42.1422 O   0  0  0  0  0  0  0  0  0  0  0  0
   32.8524   29.3173   35.1754 C   0  0  0  0  0  0  0  0  0  0  0  0
   27.6290   29.1534   40.3719 O   0  0  0  0  0  0  0  0  0  0  0  0
   32.1431   28.1567   35.1995 C   0  0  0  0  0  0  0  0  0  0  0  0
   31.7047   29.0795   37.8302 O   0  0  0  0  0  0  0  0  0  0  0  0
   33.2866   28.2265   35.8429 C   0  0  0  0  0  0  0  0  0  0  0  0
   31.8163   27.2658   32.5049 O   0  0  0  0  0  0  0  0  0  0  0  0
   28.2495   28.7988   37.1526 N   0  0  0  0  0  0  0  0  0  0  0  0
   33.8001   27.8469   37.2716 C   0  0  0  0  0  0  0  0  0  0  0  0
   28.3284   27.7089   33.2876 C   0  0  0  0  0  0  0  0  0  0  0  0
   30.7800   27.5638   33.1497 C   0  0  0  0  0  0  0  0  0  0  0  0
   34.5292   26.5278   36.6623 C   0  0  0  0  0  0  0  0  0  0  0  0
  1 26  2  0
  2 10  1  0
  3  4  1  0
  3 12  1  0
  3 26  1  0
  4 11  2  0
  5 16  1  0
  5 21  1  0
  5 25  1  0
  6 13  1  0
  6 19  1  0
  7 14  2  0
  8 13  1  0
  8 21  1  0
  9 22  1  0
  9 28  1  0
 10 26  1  0
 10 27  1  0
 11 20  1  0
 11 27  1  0
 12 24  1  0
 13 24  1  0
 14 15  1  0
 14 17  1  0
 15 16  1  0
 18 22  1  0
 20 22  1  0
 22 25  1  0
 23 27  2  0
 25 28  1  0
M  END
>  <ID>  (1) 
conformer_0

$$$$
