
     RDKit          3D

 14 14  0  0  0  0  0  0  0  0999 V2000
   31.9230   29.4689   40.2750 O   0  0  0  0  0  0  0  0  0  0  0  0
   30.7047   28.0894   37.0785 C   0  0  0  0  0  0  0  0  0  0  0  0
   32.0969   27.9508   37.0182 C   0  0  0  0  0  0  0  0  0  0  0  0
   33.2354   27.3997   33.5465 O   0  0  0  0  0  0  0  0  0  0  0  0
   29.8238   27.6161   34.7856 C   0  0  0  0  0  0  0  0  0  0  0  0
   32.5381   28.3477   39.6269 C   0  0  0  0  0  0  0  0  0  0  0  0
   29.7554   27.8965   36.1119 C   0  0  0  0  0  0  0  0  0  0  0  0
   30.9810   27.4403   34.0636 C   0  0  0  0  0  0  0  0  0  0  0  0
   30.1031   28.5200   38.3041 C   0  0  0  0  0  0  0  0  0  0  0  0
   32.9044   28.2244   38.2760 C   0  0  0  0  0  0  0  0  0  0  0  0
   32.7751   27.6465   35.8692 C   0  0  0  0  0  0  0  0  0  0  0  0
   32.2630   27.4924   34.5564 C   0  0  0  0  0  0  0  0  0  0  0  0
   34.1455   27.5179   35.9872 O   0  0  0  0  0  0  0  0  0  0  0  0
   28.2341   27.4095   33.9687 Cl  0  0  0  0  0  0  0  0  0  0  0  0
  1  6  1  0
  2  3  2  0
  2  7  1  0
  2  9  1  0
  3 10  1  0
  3 11  1  0
  4 12  1  0
  5  7  2  0
  5  8  1  0
  5 14  1  0
  6 10  1  0
  8 12  1  0
 11 12  2  0
 11 13  1  0
M  END
>  <ID>  (1) 
conformer_0

$$$$
