
     RDKit          3D

 29 33  0  0  0  0  0  0  0  0999 V2000
   27.8530   27.8329   34.4296 C   0  0  0  0  0  0  0  0  0  0  0  0
   33.2284   27.1380   43.1281 C   0  0  0  0  0  0  0  0  0  0  0  0
   33.8317   27.1457   31.6767 O   0  0  0  0  0  0  0  0  0  0  0  0
   30.7121   27.9835   35.1682 C   0  0  0  0  0  0  0  0  0  0  0  0
   27.2663   27.5258   33.1644 N   0  0  0  0  0  0  0  0  0  0  0  0
   29.6641   28.1087   36.0504 N   0  0  0  0  0  0  0  0  0  0  0  0
   29.8136   28.3309   37.4313 C   0  0  0  0  0  0  0  0  0  0  0  0
   34.0236   28.2603   42.4935 O   0  0  0  0  0  0  0  0  0  0  0  0
   28.8869   28.3713   38.2326 O   0  0  0  0  0  0  0  0  0  0  0  0
   28.3474   27.5568   33.2977 C   0  0  0  0  0  0  0  0  0  0  0  0
   34.5419   28.0182   32.5111 C   0  0  0  0  0  0  0  0  0  0  0  0
   33.0964   29.3871   42.3237 C   0  0  0  0  0  0  0  0  0  0  0  0
   32.0879   27.5205   33.3718 C   0  0  0  0  0  0  0  0  0  0  0  0
   32.9891   27.8361   34.5254 C   0  0  0  0  0  0  0  0  0  0  0  0
   34.7124   29.2984   32.0959 O   0  0  0  0  0  0  0  0  0  0  0  0
   32.5925   29.4306   39.6981 C   0  0  0  0  0  0  0  0  0  0  0  0
   32.7325   29.7122   41.0718 O   0  0  0  0  0  0  0  0  0  0  0  0
   31.1807   28.6341   37.8831 C   0  0  0  0  0  0  0  0  0  0  0  0
   31.9702   28.2422   35.6133 N   0  0  0  0  0  0  0  0  0  0  0  0
   33.2584   29.5364   37.3073 C   0  0  0  0  0  0  0  0  0  0  0  0
   28.3671   28.0427   35.6212 C   0  0  0  0  0  0  0  0  0  0  0  0
   31.4554   28.8106   39.2454 C   0  0  0  0  0  0  0  0  0  0  0  0
   30.7077   27.6172   33.8331 C   0  0  0  0  0  0  0  0  0  0  0  0
   34.4116   27.8016   33.9868 C   0  0  0  0  0  0  0  0  0  0  0  0
   33.4970   29.8420   38.7035 C   0  0  0  0  0  0  0  0  0  0  0  0
   35.1738   28.7833   34.7722 O   0  0  0  0  0  0  0  0  0  0  0  0
   29.6708   27.4183   32.9604 C   0  0  0  0  0  0  0  0  0  0  0  0
   32.1380   28.7849   36.8743 C   0  0  0  0  0  0  0  0  0  0  0  0
   32.5344   26.7779   32.2150 C   0  0  0  0  0  0  0  0  0  0  0  0
  1 10  1  0
  1 21  2  0
  2  8  1  0
  3 11  1  0
  3 29  1  0
  4  6  1  0
  4 19  1  0
  4 23  2  0
  5 10  2  0
  6  7  1  0
  6 21  1  0
  7  9  2  0
  7 18  1  0
  8 12  1  0
 10 27  1  0
 11 15  2  0
 11 24  1  0
 12 17  1  0
 13 14  1  0
 13 23  1  0
 13 29  1  0
 14 19  1  0
 14 24  1  0
 16 17  1  0
 16 22  2  0
 16 25  1  0
 18 22  1  0
 18 28  1  0
 19 28  1  0
 20 25  1  0
 20 28  2  0
 23 27  1  0
 24 26  1  0
M  END
>  <ID>  (1) 
conformer_0

$$$$
