
     RDKit          3D

 33 36  0  0  0  0  0  0  0  0999 V2000
   34.3206   27.9677   36.3854 C   0  0  0  0  0  0  0  0  0  0  0  0
   32.3429   28.5009   39.5592 C   0  0  0  0  0  0  0  0  0  0  0  0
   27.6703   27.6642   33.0544 N   0  0  0  0  0  0  0  0  0  0  0  0
   32.9176   25.8070   43.4386 O   0  0  0  0  0  0  0  0  0  0  0  0
   33.0900   27.3768   40.1239 N   0  0  0  0  0  0  0  0  0  0  0  0
   34.1382   26.9947   35.2510 C   0  0  0  0  0  0  0  0  0  0  0  0
   35.0697   28.6158   33.7243 C   0  0  0  0  0  0  0  0  0  0  0  0
   33.2754   27.1703   41.4986 C   0  0  0  0  0  0  0  0  0  0  0  0
   27.8009   28.6978   37.9587 C   0  0  0  0  0  0  0  0  0  0  0  0
   30.4197   29.0173   37.1338 C   0  0  0  0  0  0  0  0  0  0  0  0
   28.9637   27.0776   31.2998 O   0  0  0  0  0  0  0  0  0  0  0  0
   32.0762   29.4226   40.3919 O   0  0  0  0  0  0  0  0  0  0  0  0
   29.3635   28.5613   36.0629 C   0  0  0  0  0  0  0  0  0  0  0  0
   28.9011   27.5271   32.4505 C   0  0  0  0  0  0  0  0  0  0  0  0
   27.2053   28.1604   35.5723 C   0  0  0  0  0  0  0  0  0  0  0  0
   35.7139   28.5723   36.2778 C   0  0  0  0  0  0  0  0  0  0  0  0
   31.2790   28.7817   38.4051 O   0  0  0  0  0  0  0  0  0  0  0  0
   33.2992   27.6288   37.5264 C   0  0  0  0  0  0  0  0  0  0  0  0
   36.0660   28.8497   34.8433 C   0  0  0  0  0  0  0  0  0  0  0  0
   27.9379   27.9874   34.3941 C   0  0  0  0  0  0  0  0  0  0  0  0
   33.6964   27.8681   34.0394 C   0  0  0  0  0  0  0  0  0  0  0  0
   32.2104   27.9680   34.1614 N   0  0  0  0  0  0  0  0  0  0  0  0
   32.8844   24.7619   41.4924 O   0  0  0  0  0  0  0  0  0  0  0  0
   33.0155   25.8969   42.1654 C   0  0  0  0  0  0  0  0  0  0  0  0
   33.9612   28.0292   42.2021 O   0  0  0  0  0  0  0  0  0  0  0  0
   31.3397   27.8694   33.1412 C   0  0  0  0  0  0  0  0  0  0  0  0
   29.9534   27.8488   33.3524 N   0  0  0  0  0  0  0  0  0  0  0  0
   28.0905   28.4957   36.5905 C   0  0  0  0  0  0  0  0  0  0  0  0
   33.5587   28.0219   38.9405 C   0  0  0  0  0  0  0  0  0  0  0  0
   36.7827   29.9690   34.6518 O   0  0  0  0  0  0  0  0  0  0  0  0
   31.8472   27.8877   32.0016 O   0  0  0  0  0  0  0  0  0  0  0  0
   33.1885   28.7673   36.6296 C   0  0  0  0  0  0  0  0  0  0  0  0
   29.3185   28.1707   34.6259 C   0  0  0  0  0  0  0  0  0  0  0  0
  1  6  1  0
  1 16  1  0
  1 32  1  0
  2 12  1  0
  2 17  1  0
  2 29  1  0
  3 14  1  0
  3 20  1  0
  4 24  2  0
  5  8  1  0
  5 29  1  0
  6 21  1  0
  7 19  1  0
  7 21  1  0
  8 24  1  0
  8 25  2  0
  9 28  1  0
 10 13  1  0
 10 17  1  0
 11 14  2  0
 13 28  2  0
 13 33  1  0
 14 27  1  0
 15 20  1  0
 15 28  1  0
 16 19  1  0
 18 29  1  0
 18 32  1  0
 19 30  1  0
 20 33  2  0
 21 22  1  0
 22 26  1  0
 23 24  1  0
 26 27  1  0
 26 31  2  0
 27 33  1  0
M  END
>  <ID>  (1) 
conformer_0

$$$$
