
     RDKit          3D

 21 24  0  0  0  0  0  0  0  0999 V2000
   32.2887   26.9986   34.1338 C   0  0  0  0  0  0  0  0  0  0  0  0
   33.2970   28.8855   40.4556 P   0  0  0  0  0  4  0  0  0  0  0  0
   34.2392   27.3201   37.2180 C   0  0  0  0  0  0  0  0  0  0  0  0
   30.1785   26.8362   32.7891 C   0  0  0  0  0  0  0  0  0  0  0  0
   32.6626   28.8432   38.6188 C   0  0  0  0  0  0  0  0  0  0  0  0
   31.5961   26.6327   32.9456 C   0  0  0  0  0  0  0  0  0  0  0  0
   33.6527   27.4728   40.8407 O   0  0  0  0  0  1  0  0  0  0  0  0
   30.2276   27.6838   35.0431 C   0  0  0  0  0  0  0  0  0  0  0  0
   29.5524   26.5664   31.6812 O   0  0  0  0  0  0  0  0  0  0  0  0
   27.5369   28.1328   35.1394 C   0  0  0  0  0  0  0  0  0  0  0  0
   28.1246   27.6204   33.9840 C   0  0  0  0  0  0  0  0  0  0  0  0
   33.1154   28.5165   37.1820 C   0  0  0  0  0  0  0  0  0  0  0  0
   29.4839   27.3782   33.9143 C   0  0  0  0  0  0  0  0  0  0  0  0
   29.6856   28.2340   36.2160 C   0  0  0  0  0  0  0  0  0  0  0  0
   34.5823   29.8423   40.2662 O   0  0  0  0  0  0  0  0  0  0  0  0
   32.4412   29.5503   41.6415 O   0  0  0  0  0  0  0  0  0  0  0  0
   31.6129   27.5420   35.1917 C   0  0  0  0  0  0  0  0  0  0  0  0
   31.0643   28.8294   38.5129 C   0  0  0  0  0  0  0  0  0  0  0  0
   28.3366   28.4467   36.2853 C   0  0  0  0  0  0  0  0  0  0  0  0
   31.9229   28.0914   36.4628 C   0  0  0  0  0  0  0  0  0  0  0  0
   30.7230   28.4496   37.1048 N   0  0  0  0  0  0  0  0  0  0  0  0
  1  6  1  0
  1 17  2  0
  2  5  1  0
  2  7  2  0
  2 15  1  0
  2 16  1  0
  3 12  1  0
  4  6  1  0
  4  9  1  0
  4 13  2  0
  5 12  1  0
  5 18  1  0
  8 13  1  0
  8 14  1  0
  8 17  1  0
 10 11  2  0
 10 19  1  0
 11 13  1  0
 12 20  1  0
 14 19  2  0
 14 21  1  0
 17 20  1  0
 18 21  1  0
 20 21  1  0
M  END
>  <ID>  (1) 
conformer_0

$$$$
