
     RDKit          3D

 32 34  0  0  0  0  0  0  0  0999 V2000
   32.5676   27.0859   32.0904 N   0  0  0  0  0  0  0  0  0  0  0  0
   27.8987   28.4884   36.2602 C   0  0  0  0  0  0  0  0  0  0  0  0
   30.3971   27.5979   32.9790 C   0  0  0  0  0  0  0  0  0  0  0  0
   33.3849   26.5213   42.7401 O   0  0  0  0  0  0  0  0  0  0  0  0
   34.3902   28.1790   38.6233 C   0  0  0  0  0  0  0  0  0  0  0  0
   26.8724   27.8214   33.9002 O   0  0  0  0  0  0  0  0  0  0  0  0
   34.1126   28.1898   36.2076 C   0  0  0  0  0  0  0  0  0  0  0  0
   33.4411   27.5303   35.0737 C   0  0  0  0  0  0  0  0  0  0  0  0
   28.9538   29.1134   38.2688 C   0  0  0  0  0  0  0  0  0  0  0  0
   33.2664   28.1690   40.9508 C   0  0  0  0  0  0  0  0  0  0  0  0
   30.1853   28.2560   35.2992 C   0  0  0  0  0  0  0  0  0  0  0  0
   31.5648   29.9645   40.0866 O   0  0  0  0  0  0  0  0  0  0  0  0
   33.9535   27.6379   37.4538 C   0  0  0  0  0  0  0  0  0  0  0  0
   35.4558   29.9026   37.2702 C   0  0  0  0  0  0  0  0  0  0  0  0
   33.1324   27.2025   33.4132 C   0  0  0  0  0  0  0  0  0  0  0  0
   32.4459   28.0934   34.2847 C   0  0  0  0  0  0  0  0  0  0  0  0
   34.8855   29.3393   36.0855 C   0  0  0  0  0  0  0  0  0  0  0  0
   28.6917   29.5249   39.5418 O   0  0  0  0  0  0  0  0  0  0  0  0
   28.9742   27.5149   32.8987 C   0  0  0  0  0  0  0  0  0  0  0  0
   30.9638   27.9795   34.2187 C   0  0  0  0  0  0  0  0  0  0  0  0
   34.0177   27.4974   39.9347 C   0  0  0  0  0  0  0  0  0  0  0  0
   31.3040   29.1904   38.9172 C   0  0  0  0  0  0  0  0  0  0  0  0
   31.2088   27.3509   31.8563 C   0  0  0  0  0  0  0  0  0  0  0  0
   34.3407   28.5187   43.0146 O   0  0  0  0  0  0  0  0  0  0  0  0
   28.8000   28.2199   35.2298 C   0  0  0  0  0  0  0  0  0  0  0  0
   30.3292   29.0277   37.7838 C   0  0  0  0  0  0  0  0  0  0  0  0
   28.2040   27.8606   34.0063 C   0  0  0  0  0  0  0  0  0  0  0  0
   33.2271   26.0460   35.4746 C   0  0  0  0  0  0  0  0  0  0  0  0
   35.2066   29.3236   38.5279 C   0  0  0  0  0  0  0  0  0  0  0  0
   33.5895   27.7169   42.3656 C   0  0  0  0  0  0  0  0  0  0  0  0
   27.8918   28.8028   37.4770 C   0  0  0  0  0  0  0  0  0  0  0  0
   28.4152   27.0875   31.7667 O   0  0  0  0  0  0  0  0  0  0  0  0
  1 15  1  0
  1 23  2  0
  2 25  1  0
  2 31  2  3
  3 19  1  0
  3 20  1  0
  3 23  1  0
  4 30  2  0
  5 13  2  0
  5 21  1  0
  5 29  1  0
  6 27  1  0
  7  8  1  0
  7 13  1  0
  7 17  2  0
  8 16  1  0
  8 28  1  0
  9 18  1  0
  9 26  1  0
  9 31  1  0
 10 21  1  0
 10 30  1  0
 11 20  2  0
 11 25  1  0
 12 22  1  0
 14 17  1  0
 14 29  2  0
 15 16  1  0
 16 20  1  0
 19 27  2  0
 19 32  1  0
 22 26  1  0
 24 30  1  0
 25 27  1  0
M  END
>  <ID>  (1) 
conformer_0

$$$$
