
     RDKit          3D

 23 23  0  0  0  0  0  0  0  0999 V2000
   33.6894   26.7245   35.2744 C   0  0  0  0  0  0  0  0  0  0  0  0
   28.1986   27.0270   31.8422 O   0  0  0  0  0  0  0  0  0  0  0  0
   33.4304   28.1260   35.9083 C   0  0  0  0  0  0  0  0  0  0  0  0
   27.3253   27.5769   34.3990 N   0  0  0  0  0  0  0  0  0  0  0  0
   32.1063   30.0525   35.6251 O   0  0  0  0  0  0  0  0  0  0  0  0
   30.5145   27.5307   32.5068 N   0  0  0  0  0  0  0  0  0  0  0  0
   32.7083   29.5341   42.0640 O   0  0  0  0  0  1  0  0  0  0  0  0
   31.0191   28.1931   34.7353 N   0  0  0  0  0  0  0  0  0  0  0  0
   33.7621   27.9573   37.3774 C   0  0  0  0  0  0  0  0  0  0  0  0
   34.6100   29.0620   35.4044 O   0  0  0  0  0  0  0  0  0  0  0  0
   33.5369   27.9800   39.4958 C   0  0  0  0  0  0  0  0  0  0  0  0
   32.0477   28.7215   35.6334 C   0  0  0  0  0  0  0  0  0  0  0  0
   33.2613   27.5507   40.7237 O   0  0  0  0  0  0  0  0  0  0  0  0
   32.8729   28.4259   38.4181 O   0  0  0  0  0  0  0  0  0  0  0  0
   35.1511   28.7878   41.7980 O   0  0  0  0  0  0  0  0  0  0  0  0
   29.1334   27.4128   32.7950 C   0  0  0  0  0  0  0  0  0  0  0  0
   29.3379   28.2212   36.3999 N   0  0  0  0  0  0  0  0  0  0  0  0
   28.7097   27.6838   34.1233 C   0  0  0  0  0  0  0  0  0  0  0  0
   33.6840   28.3752   42.0447 P   0  0  0  0  0  4  0  0  0  0  0  0
   29.9263   28.4030   37.2545 C   0  0  0  0  0  0  0  0  0  0  0  0
   31.3699   27.8884   33.4690 C   0  0  0  0  0  0  0  0  0  0  0  0
   29.6660   28.0374   35.1213 C   0  0  0  0  0  0  0  0  0  0  0  0
   33.6365   27.4784   43.2560 O   0  0  0  0  0  0  0  0  0  0  0  0
  1  3  1  0
  2 16  2  0
  3  9  1  0
  3 10  1  0
  3 12  1  0
  4 18  1  0
  5 12  2  0
  6 16  1  0
  6 21  2  0
  7 19  2  0
  8 12  1  0
  8 21  1  0
  8 22  1  0
  9 14  1  0
 11 13  1  0
 11 14  1  0
 13 19  1  0
 15 19  1  0
 16 18  1  0
 17 20  1  0
 17 22  2  3
 18 22  1  0
 19 23  1  0
M  END
>  <ID>  (1) 
conformer_0

$$$$
