
     RDKit          3D

 30 33  0  0  0  0  0  0  0  0999 V2000
   35.2737   28.5567   37.6225 C   0  0  0  0  0  0  0  0  0  0  0  0
   34.4388   27.2643   34.7274 C   0  0  0  0  0  0  0  0  0  0  0  0
   28.6372   27.1889   31.6734 C   0  0  0  0  0  0  0  0  0  0  0  0
   35.4342   27.7047   35.2885 C   0  0  0  0  0  0  0  0  0  0  0  0
   35.8951   28.2486   36.4342 C   0  0  0  0  0  0  0  0  0  0  0  0
   32.1096   27.4165   34.3882 C   0  0  0  0  0  0  0  0  0  0  0  0
   33.7615   30.1530   41.2281 O   0  0  0  0  0  0  0  0  0  0  0  0
   33.4258   28.8608   41.3690 C   0  0  0  0  0  0  0  0  0  0  0  0
   33.4856   26.8529   42.8053 O   0  0  0  0  0  0  0  0  0  0  0  0
   33.0560   28.3164   38.9327 C   0  0  0  0  0  0  0  0  0  0  0  0
   33.3167   27.2396   33.9464 C   0  0  0  0  0  0  0  0  0  0  0  0
   33.8946   28.1304   42.6040 C   0  0  0  0  0  0  0  0  0  0  0  0
   30.5330   28.6150   38.5743 C   0  0  0  0  0  0  0  0  0  0  0  0
   33.4300   27.0029   32.6035 C   0  0  0  0  0  0  0  0  0  0  0  0
   34.9876   28.6145   43.1493 O   0  0  0  0  0  0  0  0  0  0  0  0
   31.7625   28.3052   38.3705 C   0  0  0  0  0  0  0  0  0  0  0  0
   29.2907   28.2590   36.5486 C   0  0  0  0  0  0  0  0  0  0  0  0
   30.9439   27.4003   33.6325 C   0  0  0  0  0  0  0  0  0  0  0  0
   34.1963   28.4491   38.2211 C   0  0  0  0  0  0  0  0  0  0  0  0
   29.9051   27.0799   31.4507 C   0  0  0  0  0  0  0  0  0  0  0  0
   29.3970   28.6201   37.8910 C   0  0  0  0  0  0  0  0  0  0  0  0
   30.2527   27.9912   35.7115 N   0  0  0  0  0  0  0  0  0  0  0  0
   33.0278   28.1560   40.3052 C   0  0  0  0  0  0  0  0  0  0  0  0
   29.7788   27.6778   34.4301 C   0  0  0  0  0  0  0  0  0  0  0  0
   27.5484   27.3426   32.3204 N   0  0  0  0  0  0  0  0  0  0  0  0
   31.0733   27.1462   32.2734 C   0  0  0  0  0  0  0  0  0  0  0  0
   28.0695   28.1283   35.8661 C   0  0  0  0  0  0  0  0  0  0  0  0
   32.3348   26.9713   31.7689 C   0  0  0  0  0  0  0  0  0  0  0  0
   28.3807   27.7589   34.5303 C   0  0  0  0  0  0  0  0  0  0  0  0
   27.3429   27.5623   33.6254 C   0  0  0  0  0  0  0  0  0  0  0  0
  1  5  1  0
  1 19  2  0
  2  4  2  0
  2 11  2  0
  3 20  1  0
  3 25  1  0
  4  5  1  0
  6 11  1  0
  6 18  2  0
  7  8  1  0
  8 12  1  0
  8 23  1  0
  9 12  2  0
 10 16  1  0
 10 19  2  0
 10 23  1  0
 11 14  1  0
 12 15  1  0
 13 16  2  0
 13 21  1  0
 14 28  2  0
 17 21  2  0
 17 22  1  0
 17 27  1  0
 18 24  1  0
 18 26  1  0
 20 26  2  0
 22 24  1  0
 24 29  2  0
 25 30  2  0
 26 28  1  0
 27 29  1  0
 29 30  1  0
M  END
>  <ID>  (1) 
conformer_0

$$$$
