
     RDKit          3D

 28 31  0  0  0  0  0  0  0  0999 V2000
   28.0639   27.4312   34.5340 C   0  0  0  0  0  0  0  0  0  0  0  0
   29.2724   28.6484   37.8046 C   0  0  0  0  0  0  0  0  0  0  0  0
   27.9976   26.8393   31.8365 O   0  0  0  0  0  0  0  0  0  0  0  0
   30.4069   28.0914   34.2727 C   0  0  0  0  0  0  0  0  0  0  0  0
   29.3128   28.2050   36.4637 C   0  0  0  0  0  0  0  0  0  0  0  0
   33.6368   29.2603   41.3898 C   0  0  0  0  0  0  0  0  0  0  0  0
   34.2337   27.2935   36.2702 C   0  0  0  0  0  0  0  0  0  0  0  0
   32.7175   29.1538   40.1612 C   0  0  0  0  0  0  0  0  0  0  0  0
   32.9309   27.5262   35.9551 C   0  0  0  0  0  0  0  0  0  0  0  0
   34.8249   27.5850   37.5334 C   0  0  0  0  0  0  0  0  0  0  0  0
   29.0400   27.3961   32.3123 C   0  0  0  0  0  0  0  0  0  0  0  0
   32.8127   28.5856   38.7536 C   0  0  0  0  0  0  0  0  0  0  0  0
   30.0469   27.7987   31.4990 N   0  0  0  0  0  0  0  0  0  0  0  0
   33.4356   26.9550   41.8165 O   0  0  0  0  0  0  0  0  0  0  0  0
   31.2290   28.4138   32.0207 C   0  0  0  0  0  0  0  0  0  0  0  0
   28.2621   29.5784   39.7053 O   0  0  0  0  0  0  0  0  0  0  0  0
   33.9288   28.2344   43.5465 O   0  0  0  0  0  0  0  0  0  0  0  0
   31.3755   28.5408   33.3889 C   0  0  0  0  0  0  0  0  0  0  0  0
   28.0335   28.9925   38.4192 O   0  0  0  0  0  0  0  0  0  0  0  0
   31.7355   28.0519   36.5029 C   0  0  0  0  0  0  0  0  0  0  0  0
   33.5760   28.0841   42.3392 C   0  0  0  0  0  0  0  0  0  0  0  0
   30.5364   28.1347   35.7110 C   0  0  0  0  0  0  0  0  0  0  0  0
   29.1930   27.6386   33.7156 N   0  0  0  0  0  0  0  0  0  0  0  0
   34.1084   28.1933   38.5017 C   0  0  0  0  0  0  0  0  0  0  0  0
   28.1405   27.7874   35.8459 C   0  0  0  0  0  0  0  0  0  0  0  0
   35.1174   26.8365   35.2479 C   0  0  0  0  0  0  0  0  0  0  0  0
   30.4470   28.7354   38.4801 C   0  0  0  0  0  0  0  0  0  0  0  0
   31.6762   28.4586   37.8970 C   0  0  0  0  0  0  0  0  0  0  0  0
  1 23  1  0
  1 25  2  0
  2  5  1  0
  2 19  1  0
  2 27  2  0
  3 11  2  0
  4 18  2  0
  4 22  1  0
  4 23  1  0
  5 22  1  0
  5 25  1  0
  6  8  1  0
  6 21  1  0
  7  9  2  0
  7 10  1  0
  7 26  1  0
  8 12  1  0
  9 20  1  0
 10 24  2  0
 11 13  1  0
 11 23  1  0
 12 24  1  0
 12 28  2  0
 13 15  2  0
 14 21  2  0
 15 18  1  0
 16 19  1  0
 17 21  1  0
 20 22  1  0
 20 28  1  0
 27 28  1  0
M  END
>  <ID>  (1) 
conformer_0

$$$$
