
     RDKit          3D

 31 34  0  0  0  0  0  0  0  0999 V2000
   34.2540   27.4581   36.1898 C   0  0  0  0  0  0  0  0  0  0  0  0
   31.6791   28.1184   35.9150 C   0  0  0  0  0  0  0  0  0  0  0  0
   28.8241   28.8972   38.4497 C   0  0  0  0  0  0  0  0  0  0  0  0
   29.7283   27.7987   34.6623 C   0  0  0  0  0  0  0  0  0  0  0  0
   33.0373   27.1872   33.2867 N   0  0  0  0  0  0  0  0  0  0  0  0
   31.1133   27.6950   34.6064 C   0  0  0  0  0  0  0  0  0  0  0  0
   28.8773   27.4818   33.6368 N   0  0  0  0  0  0  0  0  0  0  0  0
   34.1711   29.3931   33.2390 C   0  0  0  0  0  0  0  0  0  0  0  0
   30.4894   28.4236   36.7221 C   0  0  0  0  0  0  0  0  0  0  0  0
   30.7774   26.8136   32.3989 N   0  0  0  0  0  0  0  0  0  0  0  0
   28.4873   29.8985   39.5070 C   0  0  0  0  0  0  0  0  0  0  0  0
   33.0246   28.1806   36.5962 N   0  0  0  0  0  0  0  0  0  0  0  0
   34.8627   27.7050   34.9363 C   0  0  0  0  0  0  0  0  0  0  0  0
   34.8417   29.8670   39.5330 C   0  0  0  0  0  0  0  0  0  0  0  0
   31.6220   27.2007   33.4039 C   0  0  0  0  0  0  0  0  0  0  0  0
   34.5336   26.2220   36.8303 C   0  0  0  0  0  0  0  0  0  0  0  0
   35.0015   29.1951   41.8876 O   0  0  0  0  0  0  0  0  0  0  0  0
   29.4088   26.9692   32.5011 C   0  0  0  0  0  0  0  0  0  0  0  0
   34.3917   29.1008   40.6323 C   0  0  0  0  0  0  0  0  0  0  0  0
   29.4110   28.2654   35.9058 N   0  0  0  0  0  0  0  0  0  0  0  0
   28.4374   26.5852   31.3808 C   0  0  0  0  0  0  0  0  0  0  0  0
   33.8171   28.1746   34.0104 C   0  0  0  0  0  0  0  0  0  0  0  0
   35.6071   29.6198   33.2875 O   0  0  0  0  0  0  0  0  0  0  0  0
   33.3628   28.6450   37.9743 C   0  0  0  0  0  0  0  0  0  0  0  0
   34.3549   29.6672   38.2215 C   0  0  0  0  0  0  0  0  0  0  0  0
   28.0077   27.8569   38.3240 O   0  0  0  0  0  0  0  0  0  0  0  0
   33.3387   28.1915   40.4096 C   0  0  0  0  0  0  0  0  0  0  0  0
   27.5236   29.3061   40.4415 O   0  0  0  0  0  0  0  0  0  0  0  0
   30.1372   28.8314   38.0435 N   0  0  0  0  0  0  0  0  0  0  0  0
   36.0243   27.2776   34.5301 O   0  0  0  0  0  0  0  0  0  0  0  0
   32.8373   28.0001   39.1294 C   0  0  0  0  0  0  0  0  0  0  0  0
  1 12  1  0
  1 13  1  0
  1 16  1  0
  2  6  1  0
  2  9  1  0
  2 12  1  0
  3 11  1  0
  3 26  2  0
  3 29  1  0
  4  6  1  0
  4  7  2  0
  4 20  1  0
  5 15  1  0
  5 22  1  0
  6 15  2  0
  7 18  1  0
  8 22  1  0
  8 23  1  0
  9 20  1  0
  9 29  2  3
 10 15  1  0
 10 18  2  0
 11 28  1  0
 12 24  1  0
 13 22  1  0
 13 30  1  0
 14 19  2  0
 14 25  1  0
 17 19  1  0
 18 21  1  0
 19 27  1  0
 24 25  2  0
 24 31  1  0
 27 31  2  0
M  END
>  <ID>  (1) 
conformer_0

$$$$
