
     RDKit          3D

 22 24  0  0  0  0  0  0  0  0999 V2000
   31.9079   29.9172   40.5459 O   0  0  0  0  0  0  0  0  0  0  0  0
   32.0395   27.7283   36.3247 C   0  0  0  0  0  0  0  0  0  0  0  0
   30.3530   27.8408   33.4663 N   0  0  0  0  0  0  0  0  0  0  0  0
   34.8690   27.4967   36.4355 C   0  0  0  0  0  0  0  0  0  0  0  0
   28.1446   27.6609   32.6314 C   0  0  0  0  0  0  0  0  0  0  0  0
   33.1697   26.9311   43.2282 C   0  0  0  0  0  0  0  0  0  0  0  0
   27.6915   27.6628   33.9190 N   0  0  0  0  0  0  0  0  0  0  0  0
   34.1243   27.9204   37.5378 C   0  0  0  0  0  0  0  0  0  0  0  0
   31.9910   28.3528   38.8002 C   0  0  0  0  0  0  0  0  0  0  0  0
   28.2657   27.7937   36.4033 C   0  0  0  0  0  0  0  0  0  0  0  0
   33.1265   27.8772   41.0168 C   0  0  0  0  0  0  0  0  0  0  0  0
   28.5256   27.7481   34.9631 C   0  0  0  0  0  0  0  0  0  0  0  0
   29.5840   27.8400   37.0882 C   0  0  0  0  0  0  0  0  0  0  0  0
   32.8238   27.3606   35.2165 C   0  0  0  0  0  0  0  0  0  0  0  0
   34.1805   27.1958   35.2280 C   0  0  0  0  0  0  0  0  0  0  0  0
   29.9201   27.7981   34.7598 C   0  0  0  0  0  0  0  0  0  0  0  0
   30.6132   27.8024   36.1451 C   0  0  0  0  0  0  0  0  0  0  0  0
   32.7513   28.8798   39.9805 C   0  0  0  0  0  0  0  0  0  0  0  0
   33.0513   26.5540   40.6086 O   0  0  0  0  0  0  0  0  0  0  0  0
   33.4756   28.0472   42.3132 O   0  0  0  0  0  0  0  0  0  0  0  0
   29.4961   27.7692   32.4052 C   0  0  0  0  0  0  0  0  0  0  0  0
   32.7291   28.0166   37.5648 C   0  0  0  0  0  0  0  0  0  0  0  0
  1 18  1  0
  2 14  1  0
  2 17  1  0
  2 22  2  0
  3 16  2  0
  3 21  1  0
  4  8  2  0
  4 15  1  0
  5  7  1  0
  5 21  2  0
  6 20  1  0
  7 12  2  0
  8 22  1  0
  9 18  1  0
  9 22  1  0
 10 12  1  0
 10 13  1  0
 11 18  1  0
 11 19  2  0
 11 20  1  0
 12 16  1  0
 13 17  1  0
 14 15  2  0
 16 17  1  0
M  END
>  <ID>  (1) 
conformer_0

$$$$
