
     RDKit          3D

 31 35  0  0  0  0  0  0  0  0999 V2000
   33.7436   28.6202   38.1046 N   0  0  0  0  0  0  0  0  0  0  0  0
   34.2410   26.9535   34.5171 O   0  0  0  0  0  0  0  0  0  0  0  0
   32.2899   28.7464   38.3654 C   0  0  0  0  0  0  0  0  0  0  0  0
   29.4650   27.6736   34.0061 C   0  0  0  0  0  0  0  0  0  0  0  0
   34.4400   27.8098   44.1218 O   0  0  0  0  0  1  0  0  0  0  0  0
   29.3346   28.0402   35.3880 C   0  0  0  0  0  0  0  0  0  0  0  0
   30.8009   28.5756   38.6762 C   0  0  0  0  0  0  0  0  0  0  0  0
   33.1453   26.7067   33.5007 C   0  0  0  0  0  0  0  0  0  0  0  0
   28.2003   27.6324   33.3952 C   0  0  0  0  0  0  0  0  0  0  0  0
   30.1051   28.5081   36.3954 O   0  0  0  0  0  0  0  0  0  0  0  0
   33.5495   27.5075   41.7857 O   0  0  0  0  0  0  0  0  0  0  0  0
   34.0162   28.4827   42.8297 P   0  0  0  0  0  4  0  0  0  0  0  0
   27.8829   28.0014   35.7879 C   0  0  0  0  0  0  0  0  0  0  0  0
   28.7564   29.5648   38.7518 O   0  0  0  0  0  0  0  0  0  0  0  0
   35.7323   28.8238   39.7934 C   0  0  0  0  0  0  0  0  0  0  0  0
   27.1921   27.8871   34.3605 N   0  0  0  0  0  0  0  0  0  0  0  0
   29.1788   26.9916   31.4067 N   0  0  0  0  0  0  0  0  0  0  0  0
   35.4259   29.8128   40.9518 C   0  0  0  0  0  0  0  0  0  0  0  0
   32.0115   27.3282   33.9000 C   0  0  0  0  0  0  0  0  0  0  0  0
   28.0649   27.3409   32.0777 N   0  0  0  0  0  0  0  0  0  0  0  0
   28.1094   27.8376   37.3641 C   0  0  0  0  0  0  0  0  0  0  0  0
   32.3914   27.9589   34.9690 N   0  0  0  0  0  0  0  0  0  0  0  0
   33.6305   27.7241   35.5009 C   0  0  0  0  0  0  0  0  0  0  0  0
   34.2451   28.0495   36.7757 C   0  0  0  0  0  0  0  0  0  0  0  0
   33.0383   29.6500   43.0457 O   0  0  0  0  0  0  0  0  0  0  0  0
   30.6479   27.3057   33.2762 C   0  0  0  0  0  0  0  0  0  0  0  0
   35.4485   29.1352   42.2852 O   0  0  0  0  0  0  0  0  0  0  0  0
   30.4091   26.9513   31.9686 C   0  0  0  0  0  0  0  0  0  0  0  0
   29.4669   28.6508   37.7529 C   0  0  0  0  0  0  0  0  0  0  0  0
   35.7000   28.2417   37.0810 N   0  0  0  0  0  0  0  0  0  0  0  0
   35.0584   29.2367   38.5216 C   0  0  0  0  0  0  0  0  0  0  0  0
  1  3  1  0
  1 24  1  0
  1 31  1  0
  2  8  1  0
  2 23  1  0
  3  7  1  0
  4  6  1  0
  4  9  1  0
  4 26  2  0
  5 12  2  0
  6 10  1  0
  6 13  1  0
  7 29  1  0
  8 19  1  0
  9 16  1  0
  9 20  2  0
 10 29  1  0
 11 12  1  0
 12 25  1  0
 12 27  1  0
 13 16  1  0
 13 21  1  0
 14 29  1  0
 15 18  1  0
 15 31  1  0
 17 20  1  0
 17 28  2  0
 18 27  1  0
 19 22  2  0
 19 26  1  0
 21 29  1  0
 22 23  1  0
 23 24  1  0
 24 30  2  0
 26 28  1  0
M  END
>  <ID>  (1) 
conformer_0

$$$$
