
     RDKit          3D

 19 20  0  0  0  0  0  0  0  0999 V2000
   33.5941   28.5920   41.1474 C   0  0  0  0  0  0  0  0  0  0  0  0
   31.9956   28.3996   37.6480 C   0  0  0  0  0  0  0  0  0  0  0  0
   30.9245   27.8045   35.4913 C   0  0  0  0  0  0  0  0  0  0  0  0
   34.8372   28.4191   41.4894 O   0  0  0  0  0  0  0  0  0  0  0  0
   30.8697   28.4763   36.8312 C   0  0  0  0  0  0  0  0  0  0  0  0
   29.8819   27.0750   33.3541 C   0  0  0  0  0  0  0  0  0  0  0  0
   32.7817   28.8509   42.0816 O   0  0  0  0  0  0  0  0  0  0  0  0
   32.0955   28.8188   38.9546 C   0  0  0  0  0  0  0  0  0  0  0  0
   30.9741   26.6134   32.7039 C   0  0  0  0  0  0  0  0  0  0  0  0
   32.2091   27.4166   35.1443 C   0  0  0  0  0  0  0  0  0  0  0  0
   33.3461   28.5877   39.6876 C   0  0  0  0  0  0  0  0  0  0  0  0
   30.9588   29.5058   39.4914 C   0  0  0  0  0  0  0  0  0  0  0  0
   32.2796   26.4570   32.9986 C   0  0  0  0  0  0  0  0  0  0  0  0
   32.9252   26.8489   34.2044 C   0  0  0  0  0  0  0  0  0  0  0  0
   29.8367   29.6710   38.6976 C   0  0  0  0  0  0  0  0  0  0  0  0
   28.2518   27.0641   32.3170 S   0  0  0  0  0  0  0  0  0  0  0  0
   28.2067   27.7137   35.3234 C   0  0  0  0  0  0  0  0  0  0  0  0
   29.7424   27.5699   34.7000 C   0  0  0  0  0  0  0  0  0  0  0  0
   29.7908   29.1689   37.3890 C   0  0  0  0  0  0  0  0  0  0  0  0
  1  4  2  0
  1  7  1  0
  1 11  1  0
  2  5  1  0
  2  8  2  0
  3  5  2  3
  3 10  1  0
  3 18  1  0
  5 19  1  0
  6  9  1  0
  6 16  1  0
  6 18  2  0
  8 11  1  0
  8 12  1  0
  9 13  2  0
 10 14  2  0
 12 15  2  0
 13 14  1  0
 15 19  1  0
 17 18  1  0
M  END
>  <ID>  (1) 
conformer_0

$$$$
