
     RDKit          3D

 25 27  0  0  0  0  0  0  0  0999 V2000
   27.5071   27.8217   32.5385 C   0  0  0  0  0  0  0  0  0  0  0  0
   30.6272   28.4460   37.3615 C   0  0  0  0  0  0  0  0  0  0  0  0
   32.3818   29.2990   38.9867 C   0  0  0  0  0  0  0  0  0  0  0  0
   27.8833   28.2733   36.6840 C   0  0  0  0  0  0  0  0  0  0  0  0
   29.6716   27.1273   32.6967 O   0  0  0  0  0  0  0  0  0  0  0  0
   31.6132   27.7753   35.8401 C   0  0  0  0  0  0  0  0  0  0  0  0
   28.4848   27.6809   34.5295 N   0  0  0  0  0  0  0  0  0  0  0  0
   30.2368   27.8628   36.0886 C   0  0  0  0  0  0  0  0  0  0  0  0
   32.6882   27.9032   34.9820 C   0  0  0  0  0  0  0  0  0  0  0  0
   34.2035   27.3008   33.4315 C   0  0  0  0  0  0  0  0  0  0  0  0
   31.7202   28.2047   38.3668 C   0  0  0  0  0  0  0  0  0  0  0  0
   28.9035   28.0517   35.6968 C   0  0  0  0  0  0  0  0  0  0  0  0
   32.0459   26.9533   38.9103 C   0  0  0  0  0  0  0  0  0  0  0  0
   34.0199   27.7553   41.8688 O   0  0  0  0  0  0  0  0  0  0  0  0
   32.8383   26.7911   40.0205 C   0  0  0  0  0  0  0  0  0  0  0  0
   27.7911   29.1526   39.0711 O   0  0  0  0  0  0  0  0  0  0  0  0
   28.3413   28.9751   37.8740 C   0  0  0  0  0  0  0  0  0  0  0  0
   33.1337   29.1545   40.1385 C   0  0  0  0  0  0  0  0  0  0  0  0
   33.6716   28.8659   34.9399 C   0  0  0  0  0  0  0  0  0  0  0  0
   29.6877   29.5004   37.6950 C   0  0  0  0  0  0  0  0  0  0  0  0
   35.7082   29.1636   33.6496 O   0  0  0  0  0  0  0  0  0  0  0  0
   34.6101   28.5257   34.0030 C   0  0  0  0  0  0  0  0  0  0  0  0
   33.3477   27.9037   40.6829 C   0  0  0  0  0  0  0  0  0  0  0  0
   33.0028   26.9362   34.0250 C   0  0  0  0  0  0  0  0  0  0  0  0
   28.6464   27.5195   33.2627 C   0  0  0  0  0  0  0  0  0  0  0  0
  1 25  1  0
  2  8  1  0
  2 11  1  0
  2 20  1  0
  3 11  2  0
  3 18  1  0
  4 12  1  0
  4 17  1  0
  5 25  2  0
  6  8  1  0
  6  9  1  0
  7 12  1  0
  7 25  1  0
  8 12  1  0
  9 19  1  0
  9 24  1  0
 10 22  1  0
 10 24  1  0
 11 13  1  0
 13 15  2  0
 14 23  1  0
 15 23  1  0
 16 17  1  0
 17 20  1  0
 18 23  2  0
 19 22  1  0
 21 22  1  0
M  END
>  <ID>  (1) 
conformer_0

$$$$
