
     RDKit          3D

 31 35  0  0  0  0  0  0  0  0999 V2000
   33.0987   27.5026   36.3764 O   0  0  0  0  0  0  0  0  0  0  0  0
   32.7181   28.0651   32.6784 C   0  0  0  0  0  0  0  0  0  0  0  0
   33.0646   25.9566   41.0001 C   0  0  0  0  0  0  0  0  0  0  0  0
   29.9617   27.6082   32.6344 C   0  0  0  0  0  0  0  0  0  0  0  0
   27.9277   26.9555   31.4731 O   0  0  0  0  0  0  0  0  0  0  0  0
   30.0574   28.9106   36.2881 C   0  0  0  0  0  0  0  0  0  0  0  0
   32.9344   24.7724   41.0270 O   0  0  0  0  0  0  0  0  0  0  0  0
   32.0005   28.1269   33.8746 C   0  0  0  0  0  0  0  0  0  0  0  0
   32.5829   27.0050   38.7927 C   0  0  0  0  0  0  0  0  0  0  0  0
   29.0891   28.9391   37.3544 C   0  0  0  0  0  0  0  0  0  0  0  0
   33.7811   30.2392   39.2842 C   0  0  0  0  0  0  0  0  0  0  0  0
   32.8935   27.0529   40.1775 O   0  0  0  0  0  0  0  0  0  0  0  0
   27.8307   27.2973   33.6962 N   0  0  0  0  0  0  0  0  0  0  0  0
   29.7450   28.2622   35.0209 C   0  0  0  0  0  0  0  0  0  0  0  0
   32.8162   28.2797   35.0876 C   0  0  0  0  0  0  0  0  0  0  0  0
   32.0890   27.7767   31.4653 C   0  0  0  0  0  0  0  0  0  0  0  0
   30.5774   27.9988   33.8741 C   0  0  0  0  0  0  0  0  0  0  0  0
   32.2055   30.0200   39.0106 C   0  0  0  0  0  0  0  0  0  0  0  0
   27.4725   27.9991   35.9289 C   0  0  0  0  0  0  0  0  0  0  0  0
   30.7302   27.5358   31.4661 C   0  0  0  0  0  0  0  0  0  0  0  0
   33.7531   30.8484   36.4734 C   0  0  0  0  0  0  0  0  0  0  0  0
   32.1584   29.2404   37.7439 N   0  0  0  0  0  0  0  0  0  0  0  0
   33.0958   28.0744   37.8054 C   0  0  0  0  0  0  0  0  0  0  0  0
   28.3758   27.8616   34.8709 C   0  0  0  0  0  0  0  0  0  0  0  0
   32.7501   24.9850   42.5210 C   0  0  0  0  0  0  0  0  0  0  0  0
   33.3822   29.7281   35.3276 C   0  0  0  0  0  0  0  0  0  0  0  0
   27.8120   28.5070   37.1666 C   0  0  0  0  0  0  0  0  0  0  0  0
   29.3658   29.4225   38.5818 O   0  0  0  0  0  0  0  0  0  0  0  0
   31.2422   29.6680   36.6697 C   0  0  0  0  0  0  0  0  0  0  0  0
   28.5353   27.2461   32.5248 C   0  0  0  0  0  0  0  0  0  0  0  0
   34.0709   31.2022   38.0139 C   0  0  0  0  0  0  0  0  0  0  0  0
  1 15  1  0
  1 23  1  0
  2  8  2  0
  2 16  1  0
  3  7  1  0
  3 12  1  0
  4 17  2  0
  4 20  1  0
  4 30  1  0
  5 30  2  0
  6 10  1  0
  6 14  2  0
  6 29  1  0
  7 25  1  0
  8 15  1  0
  8 17  1  0
  9 12  1  0
  9 23  1  0
 10 27  2  0
 10 28  1  0
 11 18  1  0
 11 31  1  0
 13 24  1  0
 13 30  1  0
 14 17  1  0
 14 24  1  0
 15 26  1  0
 16 20  2  0
 18 22  1  0
 19 24  2  0
 19 27  1  0
 21 26  1  0
 21 31  1  0
 22 23  1  0
 22 29  1  0
M  END
>  <ID>  (1) 
conformer_0

$$$$
