
     RDKit          3D

 35 37  0  0  0  0  0  0  0  0999 V2000
   30.3852   27.2804   33.1192 C   0  0  0  0  0  0  0  0  0  0  0  0
   29.8180   27.0217   31.8983 C   0  0  0  0  0  0  0  0  0  0  0  0
   32.4797   26.7568   32.0624 C   0  0  0  0  0  0  0  0  0  0  0  0
   32.5185   27.5786   38.9181 C   0  0  0  0  0  0  0  0  0  0  0  0
   35.3721   28.2123   33.4366 C   0  0  0  0  0  0  0  0  0  0  0  0
   32.0160   27.8657   36.5443 C   0  0  0  0  0  0  0  0  0  0  0  0
   33.2647   28.3676   40.9769 O   0  0  0  0  0  0  0  0  0  0  0  0
   28.4878   27.0877   31.6514 N   0  0  0  0  0  0  0  0  0  0  0  0
   34.4322   31.8717   38.1508 C   0  0  0  0  0  0  0  0  0  0  0  0
   29.3749   28.0612   36.7406 N   0  0  0  0  0  0  0  0  0  0  0  0
   29.4737   27.5793   34.1920 C   0  0  0  0  0  0  0  0  0  0  0  0
   33.9325   27.9629   38.3033 C   0  0  0  0  0  0  0  0  0  0  0  0
   27.6600   27.3775   32.6676 C   0  0  0  0  0  0  0  0  0  0  0  0
   33.9066   29.4903   38.1269 N   0  0  0  0  0  0  0  0  0  0  0  0
   33.5080   26.5444   34.5795 O   0  0  0  0  0  0  0  0  0  0  0  0
   33.8709   28.5290   33.3044 C   0  0  0  0  0  0  0  0  0  0  0  0
   35.7089   30.1996   34.8642 C   0  0  0  0  0  0  0  0  0  0  0  0
   33.2750   26.3872   43.1884 O   0  0  0  0  0  0  0  0  0  0  0  0
   32.8351   24.4036   42.3838 O   0  0  0  0  0  0  0  0  0  0  0  0
   33.5717   30.7683   38.7058 C   0  0  0  0  0  0  0  0  0  0  0  0
   35.9504   28.7619   34.6599 C   0  0  0  0  0  0  0  0  0  0  0  0
   31.7961   27.2511   33.2121 N   0  0  0  0  0  0  0  0  0  0  0  0
   30.1602   28.0982   37.8998 C   0  0  0  0  0  0  0  0  0  0  0  0
   32.8698   27.3134   40.3324 C   0  0  0  0  0  0  0  0  0  0  0  0
   34.7097   30.6748   35.9314 C   0  0  0  0  0  0  0  0  0  0  0  0
   35.4448   31.2055   37.2076 C   0  0  0  0  0  0  0  0  0  0  0  0
   33.0585   25.6523   42.1802 C   0  0  0  0  0  0  0  0  0  0  0  0
   29.9720   27.8398   35.5127 C   0  0  0  0  0  0  0  0  0  0  0  0
   33.3526   26.0514   40.8096 C   0  0  0  0  0  0  0  0  0  0  0  0
   36.2241   27.9227   35.7494 O   0  0  0  0  0  0  0  0  0  0  0  0
   31.2637   27.8266   35.5381 C   0  0  0  0  0  0  0  0  0  0  0  0
   27.0934   27.8129   35.0176 C   0  0  0  0  0  0  0  0  0  0  0  0
   28.1049   27.5870   33.9528 C   0  0  0  0  0  0  0  0  0  0  0  0
   33.0163   27.4862   33.9030 C   0  0  0  0  0  0  0  0  0  0  0  0
   31.5536   27.8881   37.8120 C   0  0  0  0  0  0  0  0  0  0  0  0
  1  2  2  0
  1 11  1  0
  1 22  1  0
  2  8  1  0
  3 22  1  0
  4 12  1  0
  4 24  1  0
  4 35  1  0
  5 16  1  0
  5 21  1  0
  6 31  2  0
  6 35  1  0
  7 24  1  0
  8 13  2  0
  9 20  1  0
  9 26  1  0
 10 23  1  0
 10 28  2  0
 11 28  1  0
 11 33  2  0
 12 14  1  0
 13 33  1  0
 14 20  1  0
 15 34  2  0
 16 34  1  0
 17 21  1  0
 17 25  1  0
 18 27  2  0
 19 27  1  0
 21 30  1  0
 22 34  1  0
 23 35  2  0
 24 29  1  0
 25 26  1  0
 27 29  1  0
 28 31  1  0
 32 33  1  0
M  END
>  <ID>  (1) 
conformer_0

$$$$
