
     RDKit          3D

 24 26  0  0  0  0  0  0  0  0999 V2000
   29.4089   27.4361   33.3132 C   0  0  0  0  0  0  0  0  0  0  0  0
   32.1656   27.6678   36.0143 C   0  0  0  0  0  0  0  0  0  0  0  0
   33.7828   27.7537   38.3499 C   0  0  0  0  0  0  0  0  0  0  0  0
   31.5502   27.2601   32.6700 N   0  0  0  0  0  0  0  0  0  0  0  0
   34.3015   27.2734   37.1152 C   0  0  0  0  0  0  0  0  0  0  0  0
   33.8169   28.0787   43.4696 O   0  0  0  0  0  0  0  0  0  0  0  0
   28.3448   27.6814   34.1889 C   0  0  0  0  0  0  0  0  0  0  0  0
   33.5185   29.1119   42.8910 C   0  0  0  0  0  0  0  0  0  0  0  0
   30.9986   27.7092   35.0945 C   0  0  0  0  0  0  0  0  0  0  0  0
   33.5253   30.3006   43.4641 N   0  0  0  0  0  0  0  0  0  0  0  0
   33.6052   27.7763   40.8202 C   0  0  0  0  0  0  0  0  0  0  0  0
   32.5081   28.2057   38.3382 C   0  0  0  0  0  0  0  0  0  0  0  0
   33.4637   27.2553   35.9370 C   0  0  0  0  0  0  0  0  0  0  0  0
   30.6546   26.9955   31.5503 N   0  0  0  0  0  0  0  0  0  0  0  0
   27.6370   28.3858   36.5680 C   0  0  0  0  0  0  0  0  0  0  0  0
   27.0874   27.5615   33.8325 O   0  0  0  0  0  0  0  0  0  0  0  0
   31.8299   28.1452   37.2730 C   0  0  0  0  0  0  0  0  0  0  0  0
   34.5550   27.7707   39.6211 C   0  0  0  0  0  0  0  0  0  0  0  0
   29.9180   28.0620   35.8375 N   0  0  0  0  0  0  0  0  0  0  0  0
   28.6524   28.0459   35.4932 C   0  0  0  0  0  0  0  0  0  0  0  0
   28.3021   26.8907   31.2437 O   0  0  0  0  0  0  0  0  0  0  0  0
   29.3448   27.0927   31.9248 C   0  0  0  0  0  0  0  0  0  0  0  0
   33.3735   29.1711   41.3692 C   0  0  0  0  0  0  0  0  0  0  0  0
   30.7601   27.4695   33.7352 C   0  0  0  0  0  0  0  0  0  0  0  0
  1  7  1  0
  1 22  1  0
  1 24  2  0
  2  9  1  0
  2 13  2  0
  2 17  1  0
  3  5  2  0
  3 12  1  0
  3 18  1  0
  4 14  1  0
  4 24  1  0
  5 13  1  0
  6  8  2  0
  7 16  1  0
  7 20  2  0
  8 10  1  0
  8 23  1  0
  9 19  2  0
  9 24  1  0
 11 18  1  0
 11 23  1  0
 12 17  2  0
 14 22  1  0
 15 20  1  0
 19 20  1  0
 21 22  2  0
M  END
>  <ID>  (1) 
conformer_0

$$$$
