
     RDKit          3D

 31 33  0  0  0  0  0  0  0  0999 V2000
   30.2361   27.5008   32.2435 N   0  0  0  0  0  0  0  0  0  0  0  0
   29.8209   27.6801   33.5577 C   0  0  0  0  0  0  0  0  0  0  0  0
   31.8471   28.3774   36.4002 O   0  0  0  0  0  0  0  0  0  0  0  0
   33.3757   27.8170   39.7304 C   0  0  0  0  0  0  0  0  0  0  0  0
   33.9372   28.7897   33.8308 C   0  0  0  0  0  0  0  0  0  0  0  0
   30.6187   28.0070   35.7089 C   0  0  0  0  0  0  0  0  0  0  0  0
   28.4811   27.5780   33.9955 C   0  0  0  0  0  0  0  0  0  0  0  0
   33.4813   26.5859   43.1107 O   0  0  0  0  0  1  0  0  0  0  0  0
   33.6046   28.1066   43.4099 P   0  0  0  0  0  4  0  0  0  0  0  0
   32.3908   28.5695   44.2410 O   0  0  0  0  0  0  0  0  0  0  0  0
   33.2202   27.6318   34.3745 C   0  0  0  0  0  0  0  0  0  0  0  0
   31.0167   29.0740   38.4782 O   0  0  0  0  0  0  0  0  0  0  0  0
   29.1035   27.4097   37.5253 O   0  0  0  0  0  0  0  0  0  0  0  0
   34.1243   29.5559   38.0927 O   0  0  0  0  0  0  0  0  0  0  0  0
   28.2642   27.6178   35.3945 C   0  0  0  0  0  0  0  0  0  0  0  0
   33.5955   29.0568   41.8389 C   0  0  0  0  0  0  0  0  0  0  0  0
   27.9069   27.2369   31.7372 N   0  0  0  0  0  0  0  0  0  0  0  0
   29.3628   27.7149   36.2388 C   0  0  0  0  0  0  0  0  0  0  0  0
   34.9140   28.4973   44.0786 O   0  0  0  0  0  0  0  0  0  0  0  0
   33.0922   28.6803   35.5732 C   0  0  0  0  0  0  0  0  0  0  0  0
   33.3310   28.4108   38.3193 C   0  0  0  0  0  0  0  0  0  0  0  0
   32.6076   26.9728   33.1370 C   0  0  0  0  0  0  0  0  0  0  0  0
   33.4096   27.3691   32.0538 C   0  0  0  0  0  0  0  0  0  0  0  0
   27.5549   27.4111   32.9766 C   0  0  0  0  0  0  0  0  0  0  0  0
   32.4438   29.6004   41.5208 O   0  0  0  0  0  0  0  0  0  0  0  0
   30.6987   27.9724   34.5007 N   0  0  0  0  0  0  0  0  0  0  0  0
   31.9335   28.5434   37.7543 C   0  0  0  0  0  0  0  0  0  0  0  0
   31.7906   27.5861   32.0507 C   0  0  0  0  0  0  0  0  0  0  0  0
   34.4803   28.2271   32.5959 N   0  0  0  0  0  0  0  0  0  0  0  0
   34.2770   28.3700   40.7424 C   0  0  0  0  0  0  0  0  0  0  0  0
   29.1940   27.2407   31.3881 C   0  0  0  0  0  0  0  0  0  0  0  0
  1  2  1  0
  1 28  1  0
  1 31  1  0
  2  7  1  0
  2 26  2  0
  3  6  1  0
  3 27  1  0
  4 21  1  0
  4 30  1  0
  5 11  1  0
  5 29  1  0
  6 18  2  0
  6 26  1  0
  7 15  2  0
  7 24  1  0
  8  9  2  0
  9 10  1  0
  9 16  1  0
  9 19  1  0
 11 20  1  0
 11 22  1  0
 12 27  2  0
 13 18  1  0
 14 21  1  0
 15 18  1  0
 16 25  1  0
 16 30  1  0
 17 24  2  0
 17 31  1  0
 21 27  1  0
 22 23  1  0
 22 28  1  0
 23 29  1  0
M  END
>  <ID>  (1) 
conformer_0

$$$$
