
     RDKit          3D

 24 25  0  0  0  0  0  0  0  0999 V2000
   28.3885   27.5446   32.8480 C   0  0  0  0  0  0  0  0  0  0  0  0
   31.2184   28.6599   38.8299 C   0  0  0  0  0  0  0  0  0  0  0  0
   34.9992   28.6167   42.4124 O   0  0  0  0  0  1  0  0  0  0  0  0
   26.7879   26.9528   36.0465 F   0  0  0  0  0  0  0  0  0  0  0  0
   30.9761   28.6022   36.2009 C   0  0  0  0  0  0  0  0  0  0  0  0
   30.0961   28.1121   35.2726 C   0  0  0  0  0  0  0  0  0  0  0  0
   32.4161   26.3973   33.1748 C   0  0  0  0  0  0  0  0  0  0  0  0
   32.7210   28.3957   43.5076 O   0  0  0  0  0  0  0  0  0  0  0  0
   30.5398   27.8016   34.0089 N   0  0  0  0  0  0  0  0  0  0  0  0
   28.8281   27.9179   35.6568 N   0  0  0  0  0  0  0  0  0  0  0  0
   32.2967   28.6346   36.0322 C   0  0  0  0  0  0  0  0  0  0  0  0
   33.3599   29.4866   39.7009 C   0  0  0  0  0  0  0  0  0  0  0  0
   32.5172   29.3076   38.4455 C   0  0  0  0  0  0  0  0  0  0  0  0
   33.5487   28.1420   42.2014 P   0  0  0  0  0  4  0  0  0  0  0  0
   33.0976   29.1094   37.1430 N   0  0  0  0  0  0  0  0  0  0  0  0
   32.4019   27.6209   32.4057 C   0  0  0  0  0  0  0  0  0  0  0  0
   34.4416   29.6514   36.8951 O   0  0  0  0  0  0  0  0  0  0  0  0
   32.8760   28.9633   40.9865 O   0  0  0  0  0  0  0  0  0  0  0  0
   27.4345   27.3670   33.8242 C   0  0  0  0  0  0  0  0  0  0  0  0
   33.3950   26.6486   41.8150 O   0  0  0  0  0  0  0  0  0  0  0  0
   29.6748   27.6464   32.9904 C   0  0  0  0  0  0  0  0  0  0  0  0
   31.9608   27.6509   33.7713 C   0  0  0  0  0  0  0  0  0  0  0  0
   27.7085   27.4428   35.1614 C   0  0  0  0  0  0  0  0  0  0  0  0
   32.7502   28.1826   34.8070 C   0  0  0  0  0  0  0  0  0  0  0  0
  1 19  1  0
  1 21  2  0
  2 13  1  0
  3 14  2  0
  4 23  1  0
  5  6  1  0
  5 11  2  0
  6  9  1  0
  6 10  2  0
  7 16  1  0
  8 14  1  0
  9 21  1  0
  9 22  1  0
 10 23  1  0
 11 15  1  0
 11 24  1  0
 12 13  1  0
 12 18  1  0
 13 15  1  0
 14 18  1  0
 14 20  1  0
 15 17  1  0
 16 22  1  0
 19 23  2  0
 22 24  1  0
M  END
>  <ID>  (1) 
conformer_0

$$$$
