
     RDKit          3D

 19 20  0  0  0  0  0  0  0  0999 V2000
   32.5557   28.1315   39.4507 C   0  0  0  0  0  0  0  0  0  0  0  0
   31.2748   28.8534   38.9370 C   0  0  0  0  0  0  0  0  0  0  0  0
   29.7264   28.3566   36.9365 C   0  0  0  0  0  0  0  0  0  0  0  0
   31.0084   29.8695   39.9673 O   0  0  0  0  0  0  0  0  0  0  0  0
   31.0315   28.4666   37.4397 C   0  0  0  0  0  0  0  0  0  0  0  0
   28.8472   26.1167   32.4943 N   0  0  0  0  0  0  0  0  0  0  0  0
   28.3200   27.6688   34.8358 C   0  0  0  0  0  0  0  0  0  0  0  0
   34.4955   27.5825   37.7894 C   0  0  0  0  0  0  0  0  0  0  0  0
   32.0235   28.2086   36.5437 C   0  0  0  0  0  0  0  0  0  0  0  0
   30.2888   27.7574   33.3400 C   0  0  0  0  0  0  0  0  0  0  0  0
   33.7163   28.4512   38.5967 O   0  0  0  0  0  0  0  0  0  0  0  0
   32.9288   27.9773   40.7238 O   0  0  0  0  0  0  0  0  0  0  0  0
   30.5985   27.8729   34.7129 C   0  0  0  0  0  0  0  0  0  0  0  0
   27.6728   27.9873   32.6138 O   0  0  0  0  0  0  0  0  0  0  0  0
   27.0961   27.5396   35.2430 O   0  0  0  0  0  0  0  0  0  0  0  0
   34.4046   26.7960   36.3520 C   0  0  0  0  0  0  0  0  0  0  0  0
   28.7182   27.4001   33.2898 C   0  0  0  0  0  0  0  0  0  0  0  0
   29.4940   27.9849   35.5813 C   0  0  0  0  0  0  0  0  0  0  0  0
   31.8895   27.9369   35.2266 C   0  0  0  0  0  0  0  0  0  0  0  0
  1  2  1  0
  1 11  1  0
  1 12  2  0
  2  4  1  0
  2  5  1  0
  3  5  2  0
  3 18  1  0
  5  9  1  0
  6 17  1  0
  7 15  1  0
  7 17  1  0
  7 18  2  0
  8 11  1  0
  8 16  1  0
  9 19  2  0
 10 13  1  0
 10 17  1  0
 13 18  1  0
 13 19  1  0
 14 17  1  0
M  END
>  <ID>  (1) 
conformer_0

$$$$
