
     RDKit          3D

 21 22  0  0  0  0  0  0  0  0999 V2000
   33.1088   27.1609   40.1492 C   0  0  0  0  0  0  0  0  0  0  0  0
   33.6617   27.0570   43.2533 O   0  0  0  0  0  0  0  0  0  0  0  0
   27.6549   27.6328   32.4204 N   0  0  0  0  0  0  0  0  0  0  0  0
   31.0127   27.7539   35.1499 C   0  0  0  0  0  0  0  0  0  0  0  0
   33.0893   25.6362   40.2840 C   0  0  0  0  0  0  0  0  0  0  0  0
   28.5365   28.0121   34.5692 N   0  0  0  0  0  0  0  0  0  0  0  0
   27.5065   27.9512   33.7028 C   0  0  0  0  0  0  0  0  0  0  0  0
   29.8217   27.7480   34.2200 C   0  0  0  0  0  0  0  0  0  0  0  0
   33.4795   28.1489   42.5946 C   0  0  0  0  0  0  0  0  0  0  0  0
   32.4738   27.8341   37.1665 C   0  0  0  0  0  0  0  0  0  0  0  0
   33.5677   27.4778   36.3547 C   0  0  0  0  0  0  0  0  0  0  0  0
   33.2744   28.1461   41.0991 C   0  0  0  0  0  0  0  0  0  0  0  0
   33.3803   27.2706   34.9965 C   0  0  0  0  0  0  0  0  0  0  0  0
   32.1686   27.4467   34.4664 N   0  0  0  0  0  0  0  0  0  0  0  0
   29.9852   27.3948   32.8571 C   0  0  0  0  0  0  0  0  0  0  0  0
   28.9247   27.3560   32.0053 C   0  0  0  0  0  0  0  0  0  0  0  0
   31.1999   28.0176   36.5411 C   0  0  0  0  0  0  0  0  0  0  0  0
   33.4030   29.2897   43.2282 O   0  0  0  0  0  0  0  0  0  0  0  0
   33.1821   29.4390   40.4539 C   0  0  0  0  0  0  0  0  0  0  0  0
   32.9329   29.3052   39.1079 C   0  0  0  0  0  0  0  0  0  0  0  0
   32.7748   28.0806   38.5799 C   0  0  0  0  0  0  0  0  0  0  0  0
  1  5  1  0
  1 12  2  3
  2  9  2  0
  3  7  2  0
  3 16  1  0
  4  8  1  0
  4 14  1  0
  4 17  2  0
  6  7  1  0
  6  8  2  0
  8 15  1  0
  9 12  1  0
  9 18  1  0
 10 11  2  0
 10 17  1  0
 10 21  1  0
 11 13  1  0
 12 19  1  0
 13 14  2  0
 15 16  2  0
 19 20  1  0
 20 21  2  3
M  END
>  <ID>  (1) 
conformer_0

$$$$
