
     RDKit          3D

 27 31  0  0  0  0  0  0  0  0999 V2000
   29.1634   27.7476   34.9564 C   0  0  0  0  0  0  0  0  0  0  0  0
   33.1681   27.4661   33.3791 C   0  0  0  0  0  0  0  0  0  0  0  0
   30.7583   27.1305   33.1698 C   0  0  0  0  0  0  0  0  0  0  0  0
   31.3436   28.0894   36.8419 C   0  0  0  0  0  0  0  0  0  0  0  0
   30.4998   27.5969   34.4816 C   0  0  0  0  0  0  0  0  0  0  0  0
   32.1085   26.6175   32.8484 C   0  0  0  0  0  0  0  0  0  0  0  0
   27.9947   27.7615   34.1603 C   0  0  0  0  0  0  0  0  0  0  0  0
   34.5664   27.7550   33.0129 C   0  0  0  0  0  0  0  0  0  0  0  0
   32.0641   28.2383   38.2829 C   0  0  0  0  0  0  0  0  0  0  0  0
   31.5916   27.9278   35.3343 C   0  0  0  0  0  0  0  0  0  0  0  0
   33.1345   26.8884   40.0112 C   0  0  0  0  0  0  0  0  0  0  0  0
   28.9665   27.9002   36.3262 C   0  0  0  0  0  0  0  0  0  0  0  0
   27.8723   27.5928   32.8147 N   0  0  0  0  0  0  0  0  0  0  0  0
   32.6943   29.1416   40.5746 C   0  0  0  0  0  0  0  0  0  0  0  0
   33.9314   28.4605   43.1769 O   0  0  0  0  0  1  0  0  0  0  0  0
   35.2465   27.7410   34.3853 C   0  0  0  0  0  0  0  0  0  0  0  0
   32.8822   28.2091   34.6136 C   0  0  0  0  0  0  0  0  0  0  0  0
   33.4266   26.2852   42.7943 O   0  0  0  0  0  1  0  0  0  0  0  0
   32.1494   29.3564   39.2391 C   0  0  0  0  0  0  0  0  0  0  0  0
   34.2230   28.3901   35.2781 C   0  0  0  0  0  0  0  0  0  0  0  0
   33.5288   27.5672   42.3114 N   0  0  0  0  0  0  0  0  0  0  0  0
   32.6263   27.0844   38.7636 C   0  0  0  0  0  0  0  0  0  0  0  0
   29.9731   28.0569   37.1491 C   0  0  0  0  0  0  0  0  0  0  0  0
   28.7143   27.2310   31.8390 C   0  0  0  0  0  0  0  0  0  0  0  0
   33.1250   27.8694   40.9535 C   0  0  0  0  0  0  0  0  0  0  0  0
   26.7987   27.9741   34.7706 N   0  0  0  0  0  0  0  0  0  0  0  0
   29.9744   27.0172   32.0701 C   0  0  0  0  0  0  0  0  0  0  0  0
  1  5  1  0
  1  7  1  0
  1 12  1  0
  2  6  1  0
  2  8  1  0
  2 17  1  0
  3  5  1  0
  3  6  1  0
  3 27  1  0
  4  9  1  0
  4 10  1  0
  4 23  1  0
  5 10  1  0
  7 13  1  0
  7 26  2  0
  8 16  1  0
  9 19  2  0
  9 22  1  0
 10 17  1  0
 11 22  2  0
 11 25  1  0
 12 23  2  0
 13 24  1  0
 14 19  1  0
 14 25  2  0
 15 21  1  0
 16 20  1  0
 17 20  1  0
 18 21  1  0
 21 25  1  0
 24 27  2  0
M  END
>  <ID>  (1) 
conformer_0

$$$$
