
     RDKit          3D

 30 32  0  0  0  0  0  0  0  0999 V2000
   33.8495   27.5762   42.2150 O   0  0  0  0  0  0  0  0  0  0  0  0
   35.8374   29.9173   37.4187 C   0  0  0  0  0  0  0  0  0  0  0  0
   28.3453   27.9174   34.5994 C   0  0  0  0  0  0  0  0  0  0  0  0
   32.2080   26.8249   31.8049 C   0  0  0  0  0  0  0  0  0  0  0  0
   36.3954   30.1650   36.2531 O   0  0  0  0  0  0  0  0  0  0  0  0
   31.6613   27.0713   33.0305 C   0  0  0  0  0  0  0  0  0  0  0  0
   27.8934   28.2059   36.9745 C   0  0  0  0  0  0  0  0  0  0  0  0
   33.3906   28.6167   41.3064 C   0  0  0  0  0  0  0  0  0  0  0  0
   32.0659   27.7771   35.2773 N   0  0  0  0  0  0  0  0  0  0  0  0
   34.5030   28.8083   40.2333 C   0  0  0  0  0  0  0  0  0  0  0  0
   32.0552   28.6216   37.5021 C   0  0  0  0  0  3  0  0  0  0  0  0
   27.4797   27.8967   35.6795 C   0  0  0  0  0  0  0  0  0  0  0  0
   34.5666   27.4301   35.2227 C   0  0  0  0  0  0  0  0  0  0  0  0
   32.6262   29.1672   38.6104 C   0  0  0  0  0  0  0  0  0  0  0  0
   36.1026   30.7844   38.3912 O   0  0  0  0  0  0  0  0  0  0  0  0
   34.0173   28.9151   38.8207 N   0  0  0  0  0  0  0  0  0  0  0  0
   33.5924   26.8443   31.6723 C   0  0  0  0  0  0  0  0  0  0  0  0
   30.1546   28.2716   36.1383 C   0  0  0  0  0  0  0  0  0  0  0  0
   26.1882   27.5261   35.4630 O   0  0  0  0  0  0  0  0  0  0  0  0
   29.6565   28.1160   34.8834 C   0  0  0  0  0  0  0  0  0  0  0  0
   32.0063   30.0140   39.2924 O   0  0  0  0  0  0  0  0  0  0  0  0
   34.4216   27.0547   32.7908 C   0  0  0  0  0  0  0  0  0  0  0  0
   31.5488   28.2396   36.3378 C   0  0  0  0  0  0  0  0  0  0  0  0
   33.8610   27.2638   34.0043 C   0  0  0  0  0  0  0  0  0  0  0  0
   33.2185   27.7926   43.4617 C   0  0  0  0  0  0  0  0  0  0  0  0
   29.5600   28.7987   38.4381 O   0  0  0  0  0  0  0  0  0  0  0  0
   29.2691   28.4344   37.2103 C   0  0  0  0  0  0  0  0  0  0  0  0
   32.4507   27.3696   34.1185 C   0  0  0  0  0  0  0  0  0  0  0  0
   34.4833   27.9728   36.4971 C   0  0  0  0  0  0  0  0  0  0  0  0
   34.7895   28.8002   37.6167 C   0  0  0  0  0  0  0  0  0  0  0  0
  1  8  1  0
  1 25  1  0
  2  5  2  0
  2 15  1  0
  2 30  1  0
  3 12  2  0
  3 20  1  0
  4  6  2  0
  4 17  1  0
  6 28  1  0
  7 12  1  0
  7 27  2  0
  8 10  1  0
  9 23  1  0
  9 28  1  0
 10 16  1  0
 11 14  1  0
 11 23  2  0
 12 19  1  0
 13 24  1  0
 13 29  2  0
 14 16  1  0
 14 21  2  0
 16 30  1  0
 17 22  2  0
 18 20  2  0
 18 23  1  0
 18 27  1  0
 22 24  1  0
 24 28  2  0
 26 27  1  0
 29 30  2  0
M  END
>  <ID>  (1) 
conformer_0

$$$$
