
     RDKit          3D

 28 30  0  0  0  0  0  0  0  0999 V2000
   32.9704   29.5110   41.8654 O   0  0  0  0  0  0  0  0  0  0  0  0
   33.9711   26.1066   35.6310 N   0  0  0  0  0  0  0  0  0  0  0  0
   33.8574   28.1328   39.2675 C   0  0  0  0  0  0  0  0  0  0  0  0
   28.2272   27.6690   34.6772 C   0  0  0  0  0  0  0  0  0  0  0  0
   27.6016   27.3859   35.8868 N   0  0  0  0  0  0  0  0  0  0  0  0
   34.0637   28.6931   37.9122 C   0  0  0  0  0  0  0  0  0  0  0  0
   28.5186   27.4727   36.9882 C   0  0  0  0  0  0  0  0  0  0  0  0
   34.5759   28.9383   33.5243 C   0  0  0  0  0  0  0  0  0  0  0  0
   29.5814   27.9774   34.8547 C   0  0  0  0  0  0  0  0  0  0  0  0
   29.7336   27.7880   32.3752 C   0  0  0  0  0  0  0  0  0  0  0  0
   30.4556   27.5465   31.3139 O   0  0  0  0  0  0  0  0  0  0  0  0
   33.6309   29.8296   32.9053 C   0  0  0  0  0  0  0  0  0  0  0  0
   34.0206   27.8704   34.1778 C   0  0  0  0  0  0  0  0  0  0  0  0
   31.8126   28.3863   33.6366 C   0  0  0  0  0  0  0  0  0  0  0  0
   34.6653   28.5379   40.4433 C   0  0  0  0  0  0  0  0  0  0  0  0
   32.4842   27.8842   39.6698 C   0  0  0  0  0  0  0  0  0  0  0  0
   30.3781   28.0763   33.6413 C   0  0  0  0  0  0  0  0  0  0  0  0
   33.8468   28.5613   41.7268 C   0  0  0  0  0  0  0  0  0  0  0  0
   32.2898   29.5490   33.0040 C   0  0  0  0  0  0  0  0  0  0  0  0
   27.6431   27.6291   33.4538 C   0  0  0  0  0  0  0  0  0  0  0  0
   30.3692   28.6330   38.1298 C   0  0  0  0  0  0  0  0  0  0  0  0
   28.3842   27.7089   32.3150 N   0  0  0  0  0  0  0  0  0  0  0  0
   29.4030   29.1394   38.8630 O   0  0  0  0  0  0  0  0  0  0  0  0
   29.8860   28.1323   36.4752 C   0  0  0  0  0  0  0  0  0  0  0  0
   31.5178   28.0768   38.6214 C   0  0  0  0  0  0  0  0  0  0  0  0
   33.9351   27.6166   42.5356 O   0  0  0  0  0  0  0  0  0  0  0  0
   33.6835   26.9874   34.7834 C   0  0  0  0  0  0  0  0  0  0  0  0
   32.8060   27.6099   34.2393 C   0  0  0  0  0  0  0  0  0  0  0  0
  1 18  2  0
  2 27  1  0
  3  6  1  0
  3 15  1  0
  3 16  1  0
  4  5  1  0
  4  9  2  0
  4 20  1  0
  5  7  1  0
  7 24  1  0
  8 12  1  0
  8 13  1  0
  9 17  1  0
  9 24  1  0
 10 11  2  0
 10 17  1  0
 10 22  1  0
 12 19  2  0
 13 27  1  0
 14 17  1  0
 14 19  1  0
 14 28  2  0
 15 18  1  0
 16 25  1  0
 18 26  1  0
 20 22  2  0
 21 23  1  0
 21 24  1  0
 21 25  1  0
 27 28  2  0
M  END
>  <ID>  (1) 
conformer_0

$$$$
