
     RDKit          3D

 30 34  0  0  0  0  0  0  0  0999 V2000
   28.0679   27.6029   32.8920 C   0  0  0  0  0  0  0  0  0  0  0  0
   27.5111   27.3042   31.8194 O   0  0  0  0  0  0  0  0  0  0  0  0
   35.2277   29.1987   41.8388 C   0  0  0  0  0  0  0  0  0  0  0  0
   31.9750   29.8268   43.1934 O   0  0  0  0  0  0  0  0  0  0  0  0
   33.8726   27.8173   34.3835 C   0  0  0  0  0  0  0  0  0  0  0  0
   33.1896   28.4521   40.7840 C   0  0  0  0  0  0  0  0  0  0  0  0
   31.7352   27.4042   32.9165 C   0  0  0  0  0  0  0  0  0  0  0  0
   29.3640   27.1350   37.8102 C   0  0  0  0  0  0  0  0  0  0  0  0
   34.0503   27.5998   37.0075 C   0  0  0  0  0  0  0  0  0  0  0  0
   31.4272   27.7957   34.1888 C   0  0  0  0  0  0  0  0  0  0  0  0
   33.0969   29.7138   35.4890 C   0  0  0  0  0  0  0  0  0  0  0  0
   33.8619   28.2914   39.5757 C   0  0  0  0  0  0  0  0  0  0  0  0
   30.5444   27.2761   32.1753 C   0  0  0  0  0  0  0  0  0  0  0  0
   34.6640   29.6953   35.8361 C   0  0  0  0  0  0  0  0  0  0  0  0
   34.4380   27.0973   35.5722 C   0  0  0  0  0  0  0  0  0  0  0  0
   37.2942   29.2283   40.5853 C   0  0  0  0  0  0  0  0  0  0  0  0
   35.6689   29.0451   38.1505 O   0  0  0  0  0  0  0  0  0  0  0  0
   32.5537   28.3889   34.9481 C   0  0  0  0  0  0  0  0  0  0  0  0
   30.0350   27.8223   34.3082 C   0  0  0  0  0  0  0  0  0  0  0  0
   29.8116   28.0141   36.8000 C   0  0  0  0  0  0  0  0  0  0  0  0
   33.8799   28.9292   41.8899 C   0  0  0  0  0  0  0  0  0  0  0  0
   34.8283   28.9070   37.0722 C   0  0  0  0  0  0  0  0  0  0  0  0
   29.4938   27.5782   33.0381 C   0  0  0  0  0  0  0  0  0  0  0  0
   27.8689   27.8117   35.2667 C   0  0  0  0  0  0  0  0  0  0  0  0
   29.2626   27.8346   35.4749 C   0  0  0  0  0  0  0  0  0  0  0  0
   33.2377   27.5542   38.3686 C   0  0  0  0  0  0  0  0  0  0  0  0
   35.1488   28.7795   39.4451 C   0  0  0  0  0  0  0  0  0  0  0  0
   33.1871   29.1298   43.1705 N   0  0  0  0  0  0  0  0  0  0  0  0
   35.8683   29.0778   40.6012 C   0  0  0  0  0  0  0  0  0  0  0  0
   27.3320   27.7694   34.0373 N   0  0  0  0  0  0  0  0  0  0  0  0
  1  2  2  0
  1 23  1  0
  1 30  1  0
  3 21  2  0
  3 29  1  0
  4 28  1  0
  5 15  1  0
  5 18  1  0
  6 12  2  0
  6 21  1  0
  7 10  1  0
  7 13  1  0
  8 20  1  0
  9 15  1  0
  9 22  1  0
  9 26  1  0
 10 18  1  0
 10 19  1  0
 11 14  1  0
 11 18  1  0
 12 26  1  0
 12 27  1  0
 13 23  1  0
 14 22  1  0
 16 29  1  0
 17 22  1  0
 17 27  1  0
 19 23  2  0
 19 25  1  0
 20 25  1  0
 21 28  1  0
 24 25  1  0
 24 30  2  0
 27 29  1  0
M  END
>  <ID>  (1) 
conformer_0

$$$$
