
     RDKit          3D

 33 37  0  0  0  0  0  0  0  0999 V2000
   35.3020   29.0826   34.1116 C   0  0  0  0  0  0  0  0  0  0  0  0
   35.7607   27.4456   31.9665 C   0  0  0  0  0  0  0  0  0  0  0  0
   31.6620   30.1096   39.3132 C   0  0  0  0  0  0  0  0  0  0  0  0
   28.0210   27.7894   33.8396 C   0  0  0  0  0  0  0  0  0  0  0  0
   33.0773   26.6372   41.0975 C   0  0  0  0  0  0  0  0  0  0  0  0
   33.1217   29.9460   39.3158 C   0  0  0  0  0  0  0  0  0  0  0  0
   34.5049   29.3352   37.3988 C   0  0  0  0  0  0  0  0  0  0  0  0
   30.9720   30.3519   40.3053 O   0  0  0  0  0  0  0  0  0  0  0  0
   31.8320   27.3005   32.4145 C   0  0  0  0  0  0  0  0  0  0  0  0
   33.0987   24.8426   42.6270 O   0  0  0  0  0  0  0  0  0  0  0  0
   31.7178   29.3895   37.1027 C   0  0  0  0  0  0  0  0  0  0  0  0
   33.7287   30.4314   38.0059 C   0  0  0  0  0  0  0  0  0  0  0  0
   33.2043   29.6401   35.3791 C   0  0  0  0  0  0  0  0  0  0  0  0
   32.8530   28.6479   34.2883 C   0  0  0  0  0  0  0  0  0  0  0  0
   29.2994   27.8528   33.2883 C   0  0  0  0  0  0  0  0  0  0  0  0
   31.1385   28.5955   36.2572 N   0  0  0  0  0  0  0  0  0  0  0  0
   33.6314   26.8430   43.3893 O   0  0  0  0  0  0  0  0  0  0  0  0
   28.9069   28.1906   36.0192 C   0  0  0  0  0  0  0  0  0  0  0  0
   26.9701   27.5416   33.0088 O   0  0  0  0  0  0  0  0  0  0  0  0
   33.1416   28.1177   40.9747 C   0  0  0  0  0  0  0  0  0  0  0  0
   31.1315   30.2443   37.9969 O   0  0  0  0  0  0  0  0  0  0  0  0
   36.5574   29.0096   33.6449 C   0  0  0  0  0  0  0  0  0  0  0  0
   34.2182   28.4028   33.6040 C   0  0  0  0  0  0  0  0  0  0  0  0
   33.1763   26.1418   42.4932 C   0  0  0  0  0  0  0  0  0  0  0  0
   30.1580   28.2845   35.4739 C   0  0  0  0  0  0  0  0  0  0  0  0
   33.7842   28.6389   39.7117 C   0  0  0  0  0  0  0  0  0  0  0  0
   30.3793   28.0620   34.0937 C   0  0  0  0  0  0  0  0  0  0  0  0
   33.1595   29.6808   36.8774 C   0  0  0  0  0  0  0  0  0  0  0  0
   34.4796   27.5409   32.5241 C   0  0  0  0  0  0  0  0  0  0  0  0
   36.8163   28.1921   32.5264 C   0  0  0  0  0  0  0  0  0  0  0  0
   27.8277   27.9423   35.1944 C   0  0  0  0  0  0  0  0  0  0  0  0
   34.4974   28.1745   38.4387 C   0  0  0  0  0  0  0  0  0  0  0  0
   31.7074   28.0638   33.6704 N   0  0  0  0  0  0  0  0  0  0  0  0
  1 22  2  0
  1 23  1  0
  2 29  1  0
  2 30  2  0
  3  6  1  0
  3  8  2  0
  3 21  1  0
  4 15  1  0
  4 19  1  0
  4 31  2  0
  5 20  1  0
  5 24  1  0
  6 12  1  0
  6 26  1  0
  7 12  1  0
  7 32  1  0
  9 33  1  0
 10 24  2  0
 11 16  1  0
 11 21  1  0
 11 28  1  0
 12 28  1  0
 13 14  1  0
 13 28  1  0
 14 23  1  0
 14 33  1  0
 15 27  2  0
 16 25  1  0
 17 24  1  0
 18 25  2  0
 18 31  1  0
 20 26  1  0
 22 30  1  0
 23 29  2  0
 25 27  1  0
 26 32  1  0
 27 33  1  0
M  END
>  <ID>  (1) 
conformer_0

$$$$
