
     RDKit          3D

 22 23  0  0  0  0  0  0  0  0999 V2000
   34.5624   28.9477   37.9758 C   0  0  0  0  0  0  0  0  0  0  0  0
   32.6645   28.3267   39.3875 C   0  0  0  0  0  0  0  0  0  0  0  0
   33.4397   28.9921   34.9002 N   0  0  0  0  0  0  0  0  0  0  0  0
   28.6194   27.5742   34.9288 C   0  0  0  0  0  0  0  0  0  0  0  0
   35.0938   29.2750   36.7675 C   0  0  0  0  0  0  0  0  0  0  0  0
   35.5205   30.0964   34.5056 C   0  0  0  0  0  0  0  0  0  0  0  0
   28.6748   27.6579   32.5286 N   0  0  0  0  0  0  0  0  0  0  0  0
   32.6613   28.9555   43.0264 O   0  0  0  0  0  0  0  0  0  0  0  0
   33.5701   28.9299   40.4353 C   0  0  0  0  0  0  0  0  0  0  0  0
   33.9763   27.8995   41.3762 C   0  0  0  0  0  0  0  0  0  0  0  0
   29.8962   27.9488   35.4509 C   0  0  0  0  0  0  0  0  0  0  0  0
   32.3553   28.4647   35.5815 C   0  0  0  0  0  0  0  0  0  0  0  0
   31.2051   28.0214   34.8230 C   0  0  0  0  0  0  0  0  0  0  0  0
   27.9286   27.6955   33.6745 C   0  0  0  0  0  0  0  0  0  0  0  0
   30.0525   27.6476   32.5377 C   0  0  0  0  0  0  0  0  0  0  0  0
   33.4445   26.8729   43.3863 O   0  0  0  0  0  0  0  0  0  0  0  0
   31.2108   27.6903   33.4207 C   0  0  0  0  0  0  0  0  0  0  0  0
   33.2244   28.5652   38.0426 C   0  0  0  0  0  0  0  0  0  0  0  0
   26.6205   27.7668   33.5908 N   0  0  0  0  0  0  0  0  0  0  0  0
   33.3573   27.9916   42.7229 C   0  0  0  0  0  0  0  0  0  0  0  0
   34.5770   29.3934   35.4900 C   0  0  0  0  0  0  0  0  0  0  0  0
   32.4502   28.4302   36.9460 N   0  0  0  0  0  0  0  0  0  0  0  0
  1  5  2  0
  1 18  1  0
  2  9  1  0
  2 18  1  0
  3 12  1  0
  3 21  2  0
  4 11  1  0
  4 14  1  0
  5 21  1  0
  6 21  1  0
  7 14  1  0
  7 15  2  0
  8 20  2  0
  9 10  1  0
 10 20  1  0
 11 13  2  0
 12 13  1  0
 12 22  1  0
 13 17  1  0
 14 19  2  0
 15 17  1  0
 16 20  1  0
 18 22  2  0
M  END
>  <ID>  (1) 
conformer_0

$$$$
