
     RDKit          3D

 21 22  0  0  0  0  0  0  0  0999 V2000
   31.9752   27.6043   35.3802 C   0  0  0  0  0  0  0  0  0  0  0  0
   33.4170   28.4393   37.1471 C   0  0  0  0  0  0  0  0  0  0  0  0
   30.7099   27.2871   33.2946 C   0  0  0  0  0  0  0  0  0  0  0  0
   34.2817   26.8096   35.5912 C   0  0  0  0  0  0  0  0  0  0  0  0
   27.0285   27.7923   35.3459 C   0  0  0  0  0  0  0  0  0  0  0  0
   32.2012   28.3974   36.5114 C   0  0  0  0  0  0  0  0  0  0  0  0
   34.2719   29.7839   39.5659 C   0  0  0  0  0  0  0  0  0  0  0  0
   33.0787   26.8261   34.9401 C   0  0  0  0  0  0  0  0  0  0  0  0
   34.4934   27.6376   36.7207 C   0  0  0  0  0  0  0  0  0  0  0  0
   33.6214   29.4398   38.2757 C   0  0  0  0  0  0  0  0  0  0  0  0
   34.9526   28.5292   41.9954 O   0  0  0  0  0  1  0  0  0  0  0  0
   33.7683   28.6676   41.0330 P   0  0  0  0  0  4  0  0  0  0  0  0
   29.5075   27.8484   35.2648 N   0  0  0  0  0  0  0  0  0  0  0  0
   29.5575   27.2392   32.5688 C   0  0  0  0  0  0  0  0  0  0  0  0
   33.2324   27.3613   40.4811 O   0  0  0  0  0  0  0  0  0  0  0  0
   29.6878   26.8621   31.1211 C   0  0  0  0  0  0  0  0  0  0  0  0
   28.3208   27.7331   34.5736 C   0  0  0  0  0  0  0  0  0  0  0  0
   32.6657   29.5290   41.7729 O   0  0  0  0  0  0  0  0  0  0  0  0
   30.7113   27.5711   34.6338 C   0  0  0  0  0  0  0  0  0  0  0  0
   28.3319   27.5000   33.1910 C   0  0  0  0  0  0  0  0  0  0  0  0
   27.1775   27.5319   32.4679 O   0  0  0  0  0  0  0  0  0  0  0  0
  1  6  1  0
  1  8  1  0
  1 19  1  0
  2  6  2  0
  2  9  1  0
  2 10  1  0
  3 14  1  0
  3 19  2  0
  4  8  2  0
  4  9  1  0
  5 17  1  0
  7 10  1  0
  7 12  1  0
 11 12  2  0
 12 15  1  0
 12 18  1  0
 13 17  1  0
 13 19  1  0
 14 16  1  0
 14 20  1  0
 17 20  2  0
 20 21  1  0
M  END
>  <ID>  (1) 
conformer_0

$$$$
