
     RDKit          3D

 26 29  0  0  0  0  0  0  0  0999 V2000
   32.6829   28.9472   41.6333 O   0  0  0  0  0  0  0  0  0  0  0  0
   33.7387   27.0244   37.6602 C   0  0  0  0  0  0  0  0  0  0  0  0
   32.7659   26.3284   33.3358 S   0  0  0  0  0  0  0  0  0  0  0  0
   30.0199   28.4605   36.6495 C   0  0  0  0  0  0  0  0  0  0  0  0
   33.8178   28.3986   39.6346 C   0  0  0  0  0  0  0  0  0  0  0  0
   28.0183   26.7476   31.3283 O   0  0  0  0  0  0  0  0  0  0  0  0
   27.6611   28.6808   36.4174 C   0  0  0  0  0  0  0  0  0  0  0  0
   28.6166   29.1555   38.5433 C   0  0  0  0  0  0  0  0  0  0  0  0
   30.2553   26.6120   32.1974 C   0  0  0  0  0  0  0  0  0  0  0  0
   33.5489   29.4316   37.4503 C   0  0  0  0  0  0  0  0  0  0  0  0
   32.5692   28.0332   35.7727 C   0  0  0  0  0  0  0  0  0  0  0  0
   28.8117   26.9215   32.3387 C   0  0  0  0  0  0  0  0  0  0  0  0
   33.9976   27.1118   39.0327 C   0  0  0  0  0  0  0  0  0  0  0  0
   33.3241   28.1372   36.9139 C   0  0  0  0  0  0  0  0  0  0  0  0
   34.8729   28.5256   41.7496 O   0  0  0  0  0  0  0  0  0  0  0  0
   27.4971   29.0947   37.7413 C   0  0  0  0  0  0  0  0  0  0  0  0
   31.1047   26.9025   33.3049 C   0  0  0  0  0  0  0  0  0  0  0  0
   28.2997   27.3660   33.5599 O   0  0  0  0  0  0  0  0  0  0  0  0
   33.7574   28.5882   41.1175 C   0  0  0  0  0  0  0  0  0  0  0  0
   29.0954   27.7904   34.5641 C   0  0  0  0  0  0  0  0  0  0  0  0
   28.8393   28.3377   35.8826 C   0  0  0  0  0  0  0  0  0  0  0  0
   31.1808   28.0592   35.6112 C   0  0  0  0  0  0  0  0  0  0  0  0
   29.8398   28.8205   38.0464 N   0  0  0  0  0  0  0  0  0  0  0  0
   30.5154   27.5740   34.4030 C   0  0  0  0  0  0  0  0  0  0  0  0
   28.4778   29.5740   39.8612 N   0  0  0  0  0  0  0  0  0  0  0  0
   33.7467   29.5411   38.8193 C   0  0  0  0  0  0  0  0  0  0  0  0
  1 19  2  0
  2 13  2  0
  2 14  1  0
  3 17  1  0
  4 21  1  0
  4 22  1  0
  4 23  2  0
  5 13  1  0
  5 19  1  0
  5 26  1  0
  6 12  2  0
  7 16  1  0
  7 21  2  0
  8 16  1  0
  8 23  1  0
  8 25  2  0
  9 12  1  0
  9 17  2  0
 10 14  1  0
 10 26  2  0
 11 14  1  0
 11 22  2  3
 12 18  1  0
 15 19  1  0
 17 24  1  0
 18 20  1  0
 20 21  1  0
 20 24  2  0
 22 24  1  0
M  END
>  <ID>  (1) 
conformer_0

$$$$
