
     RDKit          3D

 25 28  0  0  0  0  0  0  0  0999 V2000
   33.3718   28.7061   39.5534 C   0  0  0  0  0  0  0  0  0  0  0  0
   32.4109   28.3268   36.9435 C   0  0  0  0  0  0  0  0  0  0  0  0
   28.1449   26.5976   30.7035 O   0  0  0  0  0  0  0  0  0  0  0  0
   30.2114   26.9935   31.8022 C   0  0  0  0  0  0  0  0  0  0  0  0
   29.4485   27.9554   36.2241 C   0  0  0  0  0  0  0  0  0  0  0  0
   33.2520   29.8454   42.0184 O   0  0  0  0  0  0  0  0  0  0  0  0
   30.8702   27.2962   32.9448 C   0  0  0  0  0  0  0  0  0  0  0  0
   28.0903   27.3743   32.9170 C   0  0  0  0  0  0  0  0  0  0  0  0
   32.9914   27.6493   34.6405 C   0  0  0  0  0  0  0  0  0  0  0  0
   33.9498   29.4230   38.4881 C   0  0  0  0  0  0  0  0  0  0  0  0
   32.2590   27.9253   39.3142 C   0  0  0  0  0  0  0  0  0  0  0  0
   28.5366   28.0621   37.5193 C   0  0  0  0  0  0  0  0  0  0  0  0
   34.0147   26.6751   35.1874 O   0  0  0  0  0  0  0  0  0  0  0  0
   27.3335   28.1380   36.4622 C   0  0  0  0  0  0  0  0  0  0  0  0
   31.8189   27.7827   38.0468 C   0  0  0  0  0  0  0  0  0  0  0  0
   30.6183   27.8251   35.4005 C   0  0  0  0  0  0  0  0  0  0  0  0
   28.3305   27.9010   35.3461 N   0  0  0  0  0  0  0  0  0  0  0  0
   35.5496   28.8924   41.1563 O   0  0  0  0  0  0  0  0  0  0  0  0
   28.7857   26.9887   31.7605 C   0  0  0  0  0  0  0  0  0  0  0  0
   33.4557   29.2392   37.1770 C   0  0  0  0  0  0  0  0  0  0  0  0
   28.7617   27.6128   34.0781 C   0  0  0  0  0  0  0  0  0  0  0  0
   34.0124   28.6553   41.2717 S   0  0  0  0  0  4  0  0  0  0  0  0
   33.6680   27.3371   42.0161 O   0  0  0  0  0  0  0  0  0  0  0  0
   30.1673   27.5645   34.0737 C   0  0  0  0  0  0  0  0  0  0  0  0
   31.9929   27.9719   35.6459 N   0  0  0  0  0  0  0  0  0  0  0  0
  1 10  2  0
  1 11  1  0
  1 22  1  0
  2 15  1  0
  2 20  2  0
  2 25  1  0
  3 19  1  0
  4  7  2  0
  4 19  1  0
  5 12  1  0
  5 16  1  0
  5 17  1  0
  6 22  1  0
  7 24  1  0
  8 19  2  0
  8 21  1  0
  9 13  1  0
  9 25  1  0
 10 20  1  0
 11 15  2  0
 12 14  1  0
 14 17  1  0
 16 24  1  0
 16 25  1  0
 17 21  1  0
 18 22  1  0
 21 24  2  0
 22 23  1  0
M  END
>  <ID>  (1) 
conformer_0

$$$$
