
     RDKit          3D

 28 31  0  0  0  0  0  0  0  0999 V2000
   32.3088   28.3061   39.0441 C   0  0  0  0  0  0  0  0  0  0  0  0
   29.8787   28.7833   38.2965 C   0  0  0  0  0  0  0  0  0  0  0  0
   31.6075   27.2452   33.1132 N   0  0  0  0  0  0  0  0  0  0  0  0
   32.8068   27.5860   33.4640 C   0  0  0  0  0  0  0  0  0  0  0  0
   27.5819   27.4341   32.5386 N   0  0  0  0  0  0  0  0  0  0  0  0
   34.3183   28.2712   40.2854 C   0  0  0  0  0  0  0  0  0  0  0  0
   33.5140   26.7286   34.3037 C   0  0  0  0  0  0  0  0  0  0  0  0
   27.0558   28.2080   35.0660 S   0  0  0  0  0  0  0  0  0  0  0  0
   30.9975   28.6246   39.1112 N   0  0  0  0  0  0  0  0  0  0  0  0
   28.6129   28.4123   36.1368 C   0  0  0  0  0  0  0  0  0  0  0  0
   34.6846   29.0461   33.3205 C   0  0  0  0  0  0  0  0  0  0  0  0
   34.4263   27.8287   37.8084 C   0  0  0  0  0  0  0  0  0  0  0  0
   34.8106   27.0379   34.5991 C   0  0  0  0  0  0  0  0  0  0  0  0
   28.6335   30.1837   40.4343 O   0  0  0  0  0  0  0  0  0  0  0  0
   28.4257   27.0104   31.6410 C   0  0  0  0  0  0  0  0  0  0  0  0
   27.4262   29.2809   38.3078 C   0  0  0  0  0  0  0  0  0  0  0  0
   35.4097   28.1812   34.1420 C   0  0  0  0  0  0  0  0  0  0  0  0
   29.6882   28.1033   35.3827 N   0  0  0  0  0  0  0  0  0  0  0  0
   28.0755   27.7401   33.7226 C   0  0  0  0  0  0  0  0  0  0  0  0
   30.2869   27.3042   33.0258 C   0  0  0  0  0  0  0  0  0  0  0  0
   27.4968   29.7476   39.7303 C   0  0  0  0  0  0  0  0  0  0  0  0
   29.7577   26.9305   31.8206 N   0  0  0  0  0  0  0  0  0  0  0  0
   28.6053   28.8057   37.5819 C   0  0  0  0  0  0  0  0  0  0  0  0
   32.9686   28.0410   40.2068 N   0  0  0  0  0  0  0  0  0  0  0  0
   34.9949   28.3656   39.0267 N   0  0  0  0  0  0  0  0  0  0  0  0
   32.9058   28.0716   37.6685 C   0  0  0  0  0  0  0  0  0  0  0  0
   29.4404   27.7186   34.0692 C   0  0  0  0  0  0  0  0  0  0  0  0
   33.3690   28.7352   32.9804 C   0  0  0  0  0  0  0  0  0  0  0  0
  1  9  2  3
  1 24  1  0
  1 26  1  0
  2  9  1  0
  2 23  1  0
  3  4  1  0
  3 20  1  0
  4  7  2  0
  4 28  1  0
  5 15  2  0
  5 19  1  0
  6 24  1  0
  6 25  1  0
  7 13  1  0
  8 10  1  0
  8 19  1  0
 10 18  2  0
 10 23  1  0
 11 17  1  0
 11 28  2  0
 12 25  1  0
 12 26  1  0
 13 17  2  0
 14 21  1  0
 15 22  1  0
 16 21  1  0
 16 23  2  3
 18 27  1  0
 19 27  2  0
 20 22  2  0
 20 27  1  0
M  END
>  <ID>  (1) 
conformer_0

$$$$
