
     RDKit          3D

 19 20  0  0  0  0  0  0  0  0999 V2000
   29.7658   26.8192   32.2835 C   0  0  0  0  0  0  0  0  0  0  0  0
   33.0267   28.4512   41.6781 O   0  0  0  0  0  0  0  0  0  0  0  0
   34.2044   26.9773   35.9540 C   0  0  0  0  0  0  0  0  0  0  0  0
   33.2989   26.8634   34.7749 C   0  0  0  0  0  0  0  0  0  0  0  0
   27.4762   27.3412   32.0723 O   0  0  0  0  0  0  0  0  0  0  0  0
   33.4316   26.3878   42.9124 O   0  0  0  0  0  0  0  0  0  0  0  0
   32.1535   28.0042   36.4200 C   0  0  0  0  0  0  0  0  0  0  0  0
   33.9522   28.0744   38.1990 C   0  0  0  0  0  0  0  0  0  0  0  0
   33.4147   27.6173   36.9710 C   0  0  0  0  0  0  0  0  0  0  0  0
   33.4047   27.8364   42.8487 C   0  0  0  0  0  0  0  0  0  0  0  0
   30.8910   27.5103   34.2684 C   0  0  0  0  0  0  0  0  0  0  0  0
   33.4926   27.8476   40.5376 C   0  0  0  0  0  0  0  0  0  0  0  0
   32.9327   28.4249   39.2434 C   0  0  0  0  0  0  0  0  0  0  0  0
   28.5298   27.3101   32.8248 C   0  0  0  0  0  0  0  0  0  0  0  0
   28.7523   27.7677   35.3525 C   0  0  0  0  0  0  0  0  0  0  0  0
   32.0776   27.5515   35.0804 C   0  0  0  0  0  0  0  0  0  0  0  0
   28.5494   27.7791   34.1457 C   0  0  0  0  0  0  0  0  0  0  0  0
   29.7048   27.9978   34.7378 C   0  0  0  0  0  0  0  0  0  0  0  0
   30.9610   27.0951   32.9358 C   0  0  0  0  0  0  0  0  0  0  0  0
  1 14  2  0
  1 19  1  0
  2 10  1  0
  2 12  1  0
  3  4  1  0
  3  9  1  0
  4 16  1  0
  5 14  1  0
  6 10  1  0
  7  9  1  0
  7 16  1  0
  8  9  1  0
  8 13  1  0
 11 16  1  0
 11 18  1  0
 11 19  1  0
 12 13  1  0
 14 17  1  0
 15 17  1  0
 15 18  1  0
M  END
>  <ID>  (1) 
conformer_0

$$$$
