
     RDKit          3D

 32 34  0  0  0  0  0  0  0  0999 V2000
   33.6101   27.0873   42.5695 O   0  0  0  0  0  0  0  0  0  0  0  0
   34.5781   27.3390   32.2668 O   0  0  0  0  0  0  0  0  0  0  0  0
   34.0778   26.9912   35.6469 C   0  0  0  0  0  0  0  0  0  0  0  0
   32.6477   27.0753   35.4914 O   0  0  0  0  0  0  0  0  0  0  0  0
   27.2401   28.1294   35.0928 N   0  0  0  0  0  0  0  0  0  0  0  0
   30.9786   27.0522   31.9872 C   0  0  0  0  0  0  0  0  0  0  0  0
   28.5511   27.4989   33.2311 C   0  0  0  0  0  0  0  0  0  0  0  0
   35.1128   28.3783   39.6228 C   0  0  0  0  0  0  0  0  0  0  0  0
   27.3568   27.8062   33.8380 C   0  0  0  0  0  0  0  0  0  0  0  0
   35.3301   28.7931   41.0393 C   0  0  0  0  0  0  0  0  0  0  0  0
   34.5491   27.4871   36.9953 C   0  0  0  0  0  0  0  0  0  0  0  0
   29.8087   26.8809   31.3635 N   0  0  0  0  0  0  0  0  0  0  0  0
   29.9422   30.0815   39.8986 O   0  0  0  0  0  0  0  0  0  0  0  0
   29.7436   27.6208   34.0038 C   0  0  0  0  0  0  0  0  0  0  0  0
   34.5835   27.8750   34.5284 C   0  0  0  0  0  0  0  0  0  0  0  0
   33.5749   27.5014   33.3887 C   0  0  0  0  0  0  0  0  0  0  0  0
   32.7216   28.3520   39.4602 O   0  0  0  0  0  0  0  0  0  0  0  0
   33.8806   28.9202   38.9507 C   0  0  0  0  0  0  0  0  0  0  0  0
   34.0495   29.2695   41.7183 C   0  0  0  0  0  0  0  0  0  0  0  0
   28.8500   29.5573   37.9868 N   0  0  0  0  0  0  0  0  0  0  0  0
   28.1467   28.4084   37.4500 C   0  0  0  0  0  0  0  0  0  0  0  0
   28.3624   28.2274   35.9314 C   0  0  0  0  0  0  0  0  0  0  0  0
   29.5831   28.0157   35.3123 N   0  0  0  0  0  0  0  0  0  0  0  0
   28.6436   27.0849   31.9213 C   0  0  0  0  0  0  0  0  0  0  0  0
   32.2815   27.2720   34.1299 C   0  0  0  0  0  0  0  0  0  0  0  0
   32.0752   26.9862   31.3267 O   0  0  0  0  0  0  0  0  0  0  0  0
   32.9401   29.6374   36.7504 O   0  0  0  0  0  0  0  0  0  0  0  0
   28.6298   29.6938   39.4159 C   0  0  0  0  0  0  0  0  0  0  0  0
   33.8964   28.7868   37.4160 C   0  0  0  0  0  0  0  0  0  0  0  0
   32.8638   28.7876   43.7509 O   0  0  0  0  0  0  0  0  0  0  0  0
   30.9665   27.3344   33.3830 N   0  0  0  0  0  0  0  0  0  0  0  0
   33.5286   28.3004   42.7884 C   0  0  0  0  0  0  0  0  0  0  0  0
  1 32  2  0
  2 16  1  0
  3  4  1  0
  3 11  1  0
  3 15  1  0
  4 25  1  0
  5  9  2  0
  5 22  1  0
  6 12  1  0
  6 26  2  0
  6 31  1  0
  7  9  1  0
  7 14  2  0
  7 24  1  0
  8 10  1  0
  8 18  1  0
 10 19  1  0
 11 29  1  0
 12 24  2  0
 13 28  1  0
 14 23  1  0
 14 31  1  0
 15 16  1  0
 16 25  1  0
 17 18  1  0
 18 29  1  0
 19 32  1  0
 20 21  1  0
 20 28  1  0
 21 22  1  0
 22 23  2  0
 25 31  1  0
 27 29  1  0
 30 32  1  0
M  END
>  <ID>  (1) 
conformer_0

$$$$
