
     RDKit          3D

 42 45  0  0  0  0  0  0  0  0999 V2000
   32.2456   28.5032   43.8322 O   0  0  0  0  0  1  0  0  0  0  0  0
   33.2572   27.8125   42.9049 P   0  0  0  0  0  4  0  0  0  0  0  0
   36.4620   27.5523   35.6455 C   0  0  0  0  0  0  0  0  0  0  0  0
   34.6291   26.5699   37.6983 C   0  0  0  0  0  0  0  0  0  0  0  0
   26.8464   27.6059   34.6700 O   0  0  0  0  0  0  0  0  0  0  0  0
   26.6747   29.5481   38.3772 C   0  0  0  0  0  0  0  0  0  0  0  0
   29.3514   29.0164   38.1772 C   0  0  0  0  0  0  0  0  0  0  0  0
   33.3560   26.2865   43.1226 O   0  0  0  0  0  0  0  0  0  0  0  0
   27.4835   29.6352   39.4976 C   0  0  0  0  0  0  0  0  0  0  0  0
   28.8224   29.3716   39.3869 C   0  0  0  0  0  0  0  0  0  0  0  0
   32.0196   28.9344   38.5779 N   0  0  0  0  0  0  0  0  0  0  0  0
   28.4928   28.8713   36.9992 C   0  0  0  0  0  0  0  0  0  0  0  0
   34.1055   26.6964   35.3187 C   0  0  0  0  0  0  0  0  0  0  0  0
   28.1989   27.3949   34.8614 C   0  0  0  0  0  0  0  0  0  0  0  0
   30.7331   28.7019   38.1625 N   0  0  0  0  0  0  0  0  0  0  0  0
   33.0896   28.0817   38.9791 C   0  0  0  0  0  0  0  0  0  0  0  0
   34.1831   31.9549   35.5991 C   0  0  0  0  0  0  0  0  0  0  0  0
   30.0639   27.6951   33.2191 C   0  0  0  0  0  0  0  0  0  0  0  0
   33.4393   27.8600   34.7511 C   0  0  0  0  0  0  0  0  0  0  0  0
   36.7023   27.1190   34.5224 O   0  0  0  0  0  0  0  0  0  0  0  0
   29.0308   28.4284   35.6857 C   0  0  0  0  0  0  0  0  0  0  0  0
   32.1696   28.3848   30.1384 C   0  0  0  0  0  0  0  0  0  0  0  0
   32.3279   27.8231   33.7736 C   0  0  0  0  0  0  0  0  0  0  0  0
   34.9644   29.8207   34.8661 C   0  0  0  0  0  0  0  0  0  0  0  0
   37.2016   28.3337   36.3314 O   0  0  0  0  0  0  0  0  0  0  0  0
   33.2567   26.8168   38.2329 C   0  0  0  0  0  0  0  0  0  0  0  0
   32.6845   28.0160   32.4574 N   0  0  0  0  0  0  0  0  0  0  0  0
   28.7839   27.3918   33.5402 N   0  0  0  0  0  0  0  0  0  0  0  0
   32.6743   30.1017   35.5009 C   0  0  0  0  0  0  0  0  0  0  0  0
   35.1649   27.0970   36.3654 C   0  0  0  0  0  0  0  0  0  0  0  0
   30.3960   27.9387   31.8822 C   0  0  0  0  0  0  0  0  0  0  0  0
   31.0376   27.6681   34.1347 N   0  0  0  0  0  0  0  0  0  0  0  0
   33.6950   29.3062   35.0805 C   0  0  0  0  0  0  0  0  0  0  0  0
   31.7055   28.1090   31.5250 C   0  0  0  0  0  0  0  0  0  0  0  0
   34.6216   28.4766   43.0177 O   0  0  0  0  0  0  0  0  0  0  0  0
   33.6427   28.3450   40.2933 C   0  0  0  0  0  0  0  0  0  0  0  0
   32.6519   28.0178   41.3988 O   0  0  0  0  0  0  0  0  0  0  0  0
   32.8821   31.4258   35.7857 C   0  0  0  0  0  0  0  0  0  0  0  0
   27.1724   29.1691   37.1770 C   0  0  0  0  0  0  0  0  0  0  0  0
   35.2368   31.1585   35.1514 C   0  0  0  0  0  0  0  0  0  0  0  0
   28.3129   26.0095   35.4797 C   0  0  0  0  0  0  0  0  0  0  0  0
   27.0388   29.9123   40.7103 O   0  0  0  0  0  0  0  0  0  0  0  0
  1  2  2  0
  2  8  1  0
  2 35  1  0
  2 37  1  0
  3 20  2  0
  3 25  1  0
  3 30  1  0
  4 26  1  0
  4 30  1  0
  5 14  1  0
  6  9  1  0
  6 39  2  0
  7 10  1  0
  7 12  2  0
  7 15  1  0
  9 10  2  0
  9 42  1  0
 11 15  1  0
 11 16  1  0
 12 21  1  0
 12 39  1  0
 13 19  1  0
 13 30  1  0
 14 21  1  0
 14 28  1  0
 14 41  1  0
 16 26  1  0
 16 36  1  0
 17 38  2  0
 17 40  1  0
 18 28  1  0
 18 31  1  0
 18 32  2  0
 19 23  1  0
 19 33  1  0
 22 34  1  0
 23 27  2  0
 23 32  1  0
 24 33  1  0
 24 40  2  0
 27 34  1  0
 29 33  2  0
 29 38  1  0
 31 34  2  0
 36 37  1  0
M  END
>  <ID>  (1) 
conformer_0

$$$$
