
     RDKit          3D

 25 26  0  0  0  0  0  0  0  0999 V2000
   29.0911   27.4159   32.7033 C   0  0  0  0  0  0  0  0  0  0  0  0
   29.2918   28.1386   35.0046 C   0  0  0  0  0  0  0  0  0  0  0  0
   29.6090   28.2813   37.4057 O   0  0  0  0  0  0  0  0  0  0  0  0
   33.0530   26.5605   39.4573 C   0  0  0  0  0  0  0  0  0  0  0  0
   33.0881   26.2720   40.8092 C   0  0  0  0  0  0  0  0  0  0  0  0
   31.4151   28.8238   36.2189 N   0  0  0  0  0  0  0  0  0  0  0  0
   33.0398   28.0365   39.3624 N   0  0  0  0  0  0  0  0  0  0  0  0
   30.0859   28.4124   36.2463 C   0  0  0  0  0  0  0  0  0  0  0  0
   27.7631   27.6460   32.6606 N   0  0  0  0  0  0  0  0  0  0  0  0
   34.1805   30.0232   38.2955 C   0  0  0  0  0  0  0  0  0  0  0  0
   27.9120   28.3460   34.9467 C   0  0  0  0  0  0  0  0  0  0  0  0
   32.9875   24.9916   41.4121 C   0  0  0  0  0  0  0  0  0  0  0  0
   33.2244   24.9417   42.8408 O   0  0  0  0  0  0  0  0  0  0  0  0
   33.0866   27.4587   41.5616 C   0  0  0  0  0  0  0  0  0  0  0  0
   33.7128   28.0792   35.9199 C   0  0  0  0  0  0  0  0  0  0  0  0
   32.9703   28.5030   40.6630 C   0  0  0  0  0  0  0  0  0  0  0  0
   33.1182   28.8553   38.2174 C   0  0  0  0  0  0  0  0  0  0  0  0
   29.7775   26.8048   31.4666 C   0  0  0  0  0  0  0  0  0  0  0  0
   33.3382   27.7156   34.7858 O   0  0  0  0  0  0  0  0  0  0  0  0
   35.0356   27.8741   36.3575 N   0  0  0  0  0  0  0  0  0  0  0  0
   32.6920   29.7572   41.0175 O   0  0  0  0  0  0  0  0  0  0  0  0
   27.2122   28.1009   33.7923 C   0  0  0  0  0  0  0  0  0  0  0  0
   29.8334   27.6675   33.8203 N   0  0  0  0  0  0  0  0  0  0  0  0
   32.6420   28.5424   36.8725 C   0  0  0  0  0  0  0  0  0  0  0  0
   36.1724   27.6834   35.3479 C   0  0  0  0  0  0  0  0  0  0  0  0
  1  9  2  0
  1 18  1  0
  1 23  1  0
  2  8  1  0
  2 11  1  0
  2 23  2  0
  3  8  2  0
  4  5  1  0
  4  7  1  0
  5 12  1  0
  5 14  1  0
  6  8  1  0
  6 24  1  0
  7 16  1  0
  7 17  1  0
  9 22  1  0
 10 17  1  0
 11 22  2  0
 12 13  1  0
 14 16  1  0
 15 19  2  0
 15 20  1  0
 15 24  1  0
 16 21  2  0
 17 24  1  0
 20 25  1  0
M  END
>  <ID>  (1) 
conformer_0

$$$$
