
     RDKit          3D

 30 34  0  0  0  0  0  0  0  0999 V2000
   28.3542   27.0398   32.1783 O   0  0  0  0  0  0  0  0  0  0  0  0
   30.6230   27.2522   33.2161 C   0  0  0  0  0  0  0  0  0  0  0  0
   32.7073   27.6331   35.1601 C   0  0  0  0  0  0  0  0  0  0  0  0
   34.9148   28.4931   38.1499 C   0  0  0  0  0  0  0  0  0  0  0  0
   32.4724   26.7207   31.6737 C   0  0  0  0  0  0  0  0  0  0  0  0
   29.7010   27.0005   32.0851 C   0  0  0  0  0  0  0  0  0  0  0  0
   29.5848   29.8263   38.7605 C   0  0  0  0  0  0  0  0  0  0  0  0
   30.2310   26.6985   30.8534 C   0  0  0  0  0  0  0  0  0  0  0  0
   33.8185   27.9103   36.0927 C   0  0  0  0  0  0  0  0  0  0  0  0
   27.4584   28.7500   38.5149 C   0  0  0  0  0  0  0  0  0  0  0  0
   27.8529   30.0746   40.4581 O   0  0  0  0  0  0  0  0  0  0  0  0
   32.7592   27.3924   38.5340 C   0  0  0  0  0  0  0  0  0  0  0  0
   36.0363   28.9736   37.5291 C   0  0  0  0  0  0  0  0  0  0  0  0
   33.0975   26.8272   41.3477 Cl  0  0  0  0  0  0  0  0  0  0  0  0
   32.0019   27.0738   32.9362 C   0  0  0  0  0  0  0  0  0  0  0  0
   31.5969   26.5616   30.6321 N   0  0  0  0  0  0  0  0  0  0  0  0
   28.2931   29.5576   39.2737 C   0  0  0  0  0  0  0  0  0  0  0  0
   29.0424   28.0212   35.2333 C   0  0  0  0  0  0  0  0  0  0  0  0
   30.3379   27.6862   34.5835 C   0  0  0  0  0  0  0  0  0  0  0  0
   29.9307   29.3237   37.4841 C   0  0  0  0  0  0  0  0  0  0  0  0
   27.8136   28.2801   37.2935 C   0  0  0  0  0  0  0  0  0  0  0  0
   32.9472   27.2508   33.8772 N   0  0  0  0  0  0  0  0  0  0  0  0
   35.0043   28.2783   35.4192 C   0  0  0  0  0  0  0  0  0  0  0  0
   36.1046   28.8150   36.0931 C   0  0  0  0  0  0  0  0  0  0  0  0
   27.8997   27.9580   34.6167 O   0  0  0  0  0  0  0  0  0  0  0  0
   34.7657   28.5474   39.9348 S   0  0  0  0  0  0  0  0  0  0  0  0
   33.3623   27.5822   39.8795 C   0  0  0  0  0  0  0  0  0  0  0  0
   33.7861   27.9282   37.5230 C   0  0  0  0  0  0  0  0  0  0  0  0
   31.3907   27.8519   35.4455 C   0  0  0  0  0  0  0  0  0  0  0  0
   29.0057   28.5461   36.6648 C   0  0  0  0  0  0  0  0  0  0  0  0
  1  6  1  0
  2  6  1  0
  2 15  1  0
  2 19  1  0
  3  9  1  0
  3 22  1  0
  3 29  2  0
  4 13  2  0
  4 26  1  0
  4 28  1  0
  5 15  1  0
  5 16  2  0
  6  8  2  0
  7 17  2  0
  7 20  1  0
  8 16  1  0
  9 23  1  0
  9 28  1  0
 10 17  1  0
 10 21  2  0
 11 17  1  0
 12 27  1  0
 12 28  1  0
 13 24  1  0
 14 27  1  0
 15 22  2  0
 18 19  2  3
 18 25  1  0
 18 30  1  0
 19 29  1  0
 20 30  2  0
 21 30  1  0
 23 24  2  0
 26 27  1  0
M  END
>  <ID>  (1) 
conformer_0

$$$$
