
     RDKit          3D

 30 34  0  0  0  0  0  0  0  0999 V2000
   33.3321   28.5975   37.4114 C   0  0  0  0  0  0  0  0  0  0  0  0
   33.2614   28.6484   41.1128 C   0  0  0  0  0  0  0  0  0  0  0  0
   28.8179   27.9687   36.0195 C   0  0  0  0  0  0  0  0  0  0  0  0
   32.9267   29.4154   42.2613 O   0  0  0  0  0  0  0  0  0  0  0  0
   32.8973   29.3028   39.7266 C   0  0  0  0  0  0  0  0  0  0  0  0
   32.6913   24.4187   41.5373 C   0  0  0  0  0  0  0  0  0  0  0  0
   33.1593   27.1999   41.1984 C   0  0  0  0  0  0  0  0  0  0  0  0
   29.6139   27.8782   34.8853 C   0  0  0  0  0  0  0  0  0  0  0  0
   33.9366   28.9210   38.7091 N   0  0  0  0  0  0  0  0  0  0  0  0
   31.3987   27.1126   31.8127 C   0  0  0  0  0  0  0  0  0  0  0  0
   32.7773   30.6997   39.9135 O   0  0  0  0  0  0  0  0  0  0  0  0
   33.1244   26.3230   40.0879 C   0  0  0  0  0  0  0  0  0  0  0  0
   31.0332   28.1444   35.2730 C   0  0  0  0  0  0  0  0  0  0  0  0
   30.8977   27.5342   33.0191 C   0  0  0  0  0  0  0  0  0  0  0  0
   30.9600   28.4479   36.6479 C   0  0  0  0  0  0  0  0  0  0  0  0
   33.1028   28.1279   33.7408 C   0  0  0  0  0  0  0  0  0  0  0  0
   32.8324   24.9811   40.1959 C   0  0  0  0  0  0  0  0  0  0  0  0
   28.1000   27.1427   31.7025 O   0  0  0  0  0  0  0  0  0  0  0  0
   32.8254   25.2358   42.6648 C   0  0  0  0  0  0  0  0  0  0  0  0
   31.7745   27.9551   34.0528 C   0  0  0  0  0  0  0  0  0  0  0  0
   27.1628   27.7861   33.5457 N   0  0  0  0  0  0  0  0  0  0  0  0
   33.0977   26.6104   42.5030 C   0  0  0  0  0  0  0  0  0  0  0  0
   32.7840   27.1905   31.5449 C   0  0  0  0  0  0  0  0  0  0  0  0
   29.6278   28.2850   37.1475 C   0  0  0  0  0  0  0  0  0  0  0  0
   28.2427   27.4928   32.8528 C   0  0  0  0  0  0  0  0  0  0  0  0
   31.5716   28.9322   39.0236 C   0  0  0  0  0  0  0  0  0  0  0  0
   33.6812   27.0477   36.8269 C   0  0  0  0  0  0  0  0  0  0  0  0
   31.9077   28.9878   37.5113 C   0  0  0  0  0  0  0  0  0  0  0  0
   29.5138   27.5907   33.4911 C   0  0  0  0  0  0  0  0  0  0  0  0
   33.6246   27.7530   32.5159 C   0  0  0  0  0  0  0  0  0  0  0  0
  1  9  1  0
  1 27  1  0
  1 28  1  0
  2  4  1  0
  2  5  1  0
  2  7  1  0
  3  8  1  0
  3 24  1  0
  5  9  1  0
  5 11  1  0
  5 26  1  0
  6 17  2  0
  6 19  1  0
  7 12  2  0
  7 22  1  0
  8 13  1  0
  8 29  2  0
 10 14  1  0
 10 23  2  0
 12 17  1  0
 13 15  2  0
 13 20  1  0
 14 20  2  0
 14 29  1  0
 15 24  1  0
 15 28  1  0
 16 20  1  0
 16 30  2  0
 18 25  2  0
 19 22  2  0
 21 25  1  0
 23 30  1  0
 25 29  1  0
 26 28  1  0
M  END
>  <ID>  (1) 
conformer_0

$$$$
