
     RDKit          3D

 26 28  0  0  0  0  0  0  0  0999 V2000
   33.8301   27.3367   34.0159 N   0  0  0  0  0  0  0  0  0  0  0  0
   27.6860   27.5991   33.2783 O   0  0  0  0  0  0  0  0  0  0  0  0
   33.2919   27.2780   40.9069 C   0  0  0  0  0  0  0  0  0  0  0  0
   30.1093   27.3480   33.1117 C   0  0  0  0  0  0  0  0  0  0  0  0
   32.3903   28.8661   38.5251 C   0  0  0  0  0  0  0  0  0  0  0  0
   33.7491   26.9999   32.6236 C   0  0  0  0  0  0  0  0  0  0  0  0
   27.7827   27.6199   34.6463 C   0  0  0  0  0  0  0  0  0  0  0  0
   33.2026   26.8497   39.6386 C   0  0  0  0  0  0  0  0  0  0  0  0
   31.4871   28.0180   36.4558 O   0  0  0  0  0  0  0  0  0  0  0  0
   29.0392   27.5475   35.2933 C   0  0  0  0  0  0  0  0  0  0  0  0
   30.1857   27.5209   34.5173 C   0  0  0  0  0  0  0  0  0  0  0  0
   29.0159   27.4095   36.7575 C   0  0  0  0  0  0  0  0  0  0  0  0
   32.5049   29.8059   39.5352 C   0  0  0  0  0  0  0  0  0  0  0  0
   28.6019   27.2770   31.2564 O   0  0  0  0  0  0  0  0  0  0  0  0
   31.4859   27.6538   35.1407 C   0  0  0  0  0  0  0  0  0  0  0  0
   33.2385   27.2262   43.4674 C   0  0  0  0  0  0  0  0  0  0  0  0
   33.2294   28.5360   42.8807 O   0  0  0  0  0  0  0  0  0  0  0  0
   32.7379   27.5018   34.6766 C   0  0  0  0  0  0  0  0  0  0  0  0
   28.7964   27.4093   32.4978 C   0  0  0  0  0  0  0  0  0  0  0  0
   32.7314   27.5511   38.6334 C   0  0  0  0  0  0  0  0  0  0  0  0
   26.6536   27.6459   35.3670 O   0  0  0  0  0  0  0  0  0  0  0  0
   31.2297   27.0763   32.3565 C   0  0  0  0  0  0  0  0  0  0  0  0
   31.8822   29.2476   37.1145 C   0  0  0  0  0  0  0  0  0  0  0  0
   33.1169   28.4865   41.5395 C   0  0  0  0  0  0  0  0  0  0  0  0
   32.7988   29.6492   40.8649 C   0  0  0  0  0  0  0  0  0  0  0  0
   32.4884   26.8858   32.0586 C   0  0  0  0  0  0  0  0  0  0  0  0
  1  6  2  0
  1 18  1  0
  2  7  1  0
  2 19  1  0
  3  8  1  0
  3 24  2  0
  4 11  1  0
  4 19  1  0
  4 22  2  0
  5 13  2  0
  5 20  1  0
  5 23  1  0
  6 26  1  0
  7 10  1  0
  7 21  2  0
  8 20  2  0
  9 15  1  0
  9 23  1  0
 10 11  1  0
 10 12  1  0
 11 15  2  0
 13 25  1  0
 14 19  2  0
 15 18  1  0
 16 17  1  0
 17 24  1  0
 22 26  2  0
 24 25  1  0
M  END
>  <ID>  (1) 
conformer_0

$$$$
