
     RDKit          3D

 17 18  0  0  0  0  0  0  0  0999 V2000
   31.8784   28.0760   36.6345 C   0  0  0  0  0  0  0  0  0  0  0  0
   30.1547   27.6435   34.5800 C   0  0  0  0  0  0  0  0  0  0  0  0
   32.6910   26.7979   34.3887 C   0  0  0  0  0  0  0  0  0  0  0  0
   31.5255   28.7370   39.0708 C   0  0  0  0  0  0  0  0  0  0  0  0
   32.9472   29.1487   41.8853 O   0  0  0  0  0  0  0  0  0  0  0  0
   31.4752   27.5823   35.2603 C   0  0  0  0  0  0  0  0  0  0  0  0
   34.0986   28.6489   39.8293 C   0  0  0  0  0  0  0  0  0  0  0  0
   27.7836   27.9654   34.6799 C   0  0  0  0  0  0  0  0  0  0  0  0
   32.9246   28.1362   39.0593 C   0  0  0  0  0  0  0  0  0  0  0  0
   35.1160   28.5812   41.9632 O   0  0  0  0  0  0  0  0  0  0  0  0
   28.7924   27.4337   32.6226 C   0  0  0  0  0  0  0  0  0  0  0  0
   34.0222   28.7401   41.3194 C   0  0  0  0  0  0  0  0  0  0  0  0
   27.6498   27.7168   33.3429 C   0  0  0  0  0  0  0  0  0  0  0  0
   30.0186   27.4060   33.2306 C   0  0  0  0  0  0  0  0  0  0  0  0
   30.8115   28.3352   37.7803 C   0  0  0  0  0  0  0  0  0  0  0  0
   28.9946   27.9470   35.2878 C   0  0  0  0  0  0  0  0  0  0  0  0
   33.3024   27.9569   37.5025 C   0  0  0  0  0  0  0  0  0  0  0  0
  1  6  1  0
  1 15  1  0
  1 17  1  0
  2  6  1  0
  2 14  1  0
  2 16  2  0
  3  6  1  0
  4  9  1  0
  4 15  1  0
  5 12  2  0
  7  9  1  0
  7 12  1  0
  8 13  2  0
  8 16  1  0
  9 17  1  0
 10 12  1  0
 11 13  1  0
 11 14  2  0
M  END
>  <ID>  (1) 
conformer_0

$$$$
