
     RDKit          3D

 27 29  0  0  0  0  0  0  0  0999 V2000
   32.1103   28.0395   34.6389 C   0  0  0  0  0  0  0  0  0  0  0  0
   32.8650   28.5938   39.5584 C   0  0  0  0  0  0  0  0  0  0  0  0
   30.0325   29.6380   39.5504 O   0  0  0  0  0  0  0  0  0  0  0  0
   32.3664   29.2996   33.9248 O   0  0  0  0  0  0  0  0  0  0  0  0
   32.3671   28.3795   37.0370 C   0  0  0  0  0  0  0  0  0  0  0  0
   29.6393   27.7037   33.8510 C   0  0  0  0  0  0  0  0  0  0  0  0
   29.0150   26.7923   31.5175 C   0  0  0  0  0  0  0  0  0  0  0  0
   35.0575   27.8885   34.4359 C   0  0  0  0  0  0  0  0  0  0  0  0
   27.8662   28.2495   35.4088 O   0  0  0  0  0  0  0  0  0  0  0  0
   31.9678   28.6708   38.3349 C   0  0  0  0  0  0  0  0  0  0  0  0
   33.0074   24.9167   42.6304 O   0  0  0  0  0  0  0  0  0  0  0  0
   31.1199   27.2647   33.7330 C   0  0  0  0  0  0  0  0  0  0  0  0
   33.7344   28.0739   36.5217 C   0  0  0  0  0  0  0  0  0  0  0  0
   33.1843   26.1800   42.3713 C   0  0  0  0  0  0  0  0  0  0  0  0
   30.5896   29.0386   38.4369 C   0  0  0  0  0  0  0  0  0  0  0  0
   29.7044   28.8437   37.4148 C   0  0  0  0  0  0  0  0  0  0  0  0
   33.6317   27.5870   35.0720 C   0  0  0  0  0  0  0  0  0  0  0  0
   33.1099   26.5008   40.9361 C   0  0  0  0  0  0  0  0  0  0  0  0
   33.8228   27.7462   40.4625 C   0  0  0  0  0  0  0  0  0  0  0  0
   30.0920   28.4370   36.1830 C   0  0  0  0  0  0  0  0  0  0  0  0
   34.8434   27.9388   37.1891 O   0  0  0  0  0  0  0  0  0  0  0  0
   32.4910   29.6968   40.4542 O   0  0  0  0  0  0  0  0  0  0  0  0
   27.3770   27.8026   32.7876 O   0  0  0  0  0  0  0  0  0  0  0  0
   28.6382   27.4908   32.7656 C   0  0  0  0  0  0  0  0  0  0  0  0
   33.5213   26.9823   43.2375 O   0  0  0  0  0  0  0  0  0  0  0  0
   31.4598   28.3009   35.9910 C   0  0  0  0  0  0  0  0  0  0  0  0
   29.1247   28.1366   35.1208 C   0  0  0  0  0  0  0  0  0  0  0  0
  1  4  1  0
  1 12  1  0
  1 17  1  0
  1 26  1  0
  2 10  1  0
  2 19  1  0
  2 22  1  0
  3 15  1  0
  5 10  1  0
  5 13  2  0
  5 26  1  0
  6 12  1  0
  6 24  1  0
  6 27  2  0
  7 24  1  0
  8 17  1  0
  9 27  1  0
 10 15  1  0
 11 14  2  0
 13 17  1  0
 13 21  1  0
 14 18  1  0
 14 25  1  0
 15 16  1  0
 16 20  2  0
 18 19  1  0
 20 26  1  0
 20 27  1  0
 23 24  1  0
M  END
>  <ID>  (1) 
conformer_0

$$$$
