
     RDKit          3D

 27 30  0  0  0  0  0  0  0  0999 V2000
   34.6614   28.9951   36.6294 C   0  0  0  0  0  0  0  0  0  0  0  0
   32.4033   28.6731   35.5462 C   0  0  0  0  0  0  0  0  0  0  0  0
   32.7870   26.9784   31.6070 C   0  0  0  0  0  0  0  0  0  0  0  0
   30.0742   27.0805   31.3223 C   0  0  0  0  0  0  0  0  0  0  0  0
   33.8120   29.7211   40.2186 C   0  0  0  0  0  0  0  0  0  0  0  0
   33.5014   27.8396   34.8273 C   0  0  0  0  0  0  0  0  0  0  0  0
   32.2676   26.7463   30.3858 C   0  0  0  0  0  0  0  0  0  0  0  0
   34.0573   28.8225   37.9730 C   0  0  0  0  0  0  0  0  0  0  0  0
   28.1566   27.5878   33.5305 C   0  0  0  0  0  0  0  0  0  0  0  0
   33.0064   27.4960   39.7502 C   0  0  0  0  0  0  0  0  0  0  0  0
   27.7752   27.9010   35.8969 C   0  0  0  0  0  0  0  0  0  0  0  0
   33.1580   29.4523   42.9118 C   0  0  0  0  0  0  0  0  0  0  0  0
   30.8702   26.7703   30.2504 C   0  0  0  0  0  0  0  0  0  0  0  0
   33.1218   28.3140   42.0908 O   0  0  0  0  0  0  0  0  0  0  0  0
   35.7830   28.1538   34.5154 O   0  0  0  0  0  0  0  0  0  0  0  0
   33.4057   27.6312   38.4186 C   0  0  0  0  0  0  0  0  0  0  0  0
   29.5461   27.5988   33.6676 C   0  0  0  0  0  0  0  0  0  0  0  0
   32.0271   27.2713   32.7036 C   0  0  0  0  0  0  0  0  0  0  0  0
   27.2809   27.7411   34.6063 C   0  0  0  0  0  0  0  0  0  0  0  0
   29.1603   27.9596   36.0762 C   0  0  0  0  0  0  0  0  0  0  0  0
   34.7124   28.0661   35.4846 N   0  0  0  0  0  0  0  0  0  0  0  0
   31.2762   27.9812   35.2220 N   0  0  0  0  0  0  0  0  0  0  0  0
   30.5632   27.3374   32.6225 C   0  0  0  0  0  0  0  0  0  0  0  0
   33.2991   28.5098   40.6963 C   0  0  0  0  0  0  0  0  0  0  0  0
   29.9950   27.8422   35.0056 C   0  0  0  0  0  0  0  0  0  0  0  0
   32.9346   27.3810   33.7303 O   0  0  0  0  0  0  0  0  0  0  0  0
   34.1836   29.8716   38.8823 C   0  0  0  0  0  0  0  0  0  0  0  0
  1  8  1  0
  1 21  1  0
  2  6  1  0
  2 22  1  0
  3  7  1  0
  3 18  2  0
  4 13  1  0
  4 23  2  0
  5 24  2  0
  5 27  1  0
  6 21  1  0
  6 26  1  0
  7 13  2  0
  8 16  1  0
  8 27  2  0
  9 17  1  0
  9 19  2  0
 10 16  2  0
 10 24  1  0
 11 19  1  0
 11 20  2  0
 12 14  1  0
 14 24  1  0
 15 21  1  0
 17 23  1  0
 17 25  2  0
 18 23  1  0
 18 26  1  0
 20 25  1  0
 22 25  1  0
M  END
>  <ID>  (1) 
conformer_0

$$$$
