
     RDKit          3D

 27 29  0  0  0  0  0  0  0  0999 V2000
   30.9613   28.1614   37.4613 C   0  0  0  0  0  3  0  0  0  0  0  0
   34.7212   29.0077   32.7971 C   0  0  0  0  0  0  0  0  0  0  0  0
   34.9580   28.6994   34.1509 C   0  0  0  0  0  0  0  0  0  0  0  0
   29.3388   27.2892   33.5855 C   0  0  0  0  0  0  0  0  0  0  0  0
   33.8808   27.9182   39.5287 C   0  0  0  0  0  0  0  0  0  0  0  0
   32.8735   27.3931   32.7629 C   0  0  0  0  0  0  0  0  0  0  0  0
   33.2493   27.5062   36.9624 C   0  0  0  0  0  0  0  0  0  0  0  0
   35.0774   29.0621   42.3499 C   0  0  0  0  0  0  0  0  0  0  0  0
   33.6474   28.3732   32.1004 C   0  0  0  0  0  0  0  0  0  0  0  0
   27.7594   27.0974   31.8069 O   0  0  0  0  0  0  0  0  0  0  0  0
   28.5111   28.2226   35.6719 C   0  0  0  0  0  0  0  0  0  0  0  0
   32.6269   28.3105   38.9893 N   0  0  0  0  0  0  0  0  0  0  0  0
   28.6632   28.5826   37.0304 N   0  0  0  0  0  0  0  0  0  0  0  0
   27.0535   28.0813   33.7939 N   0  0  0  0  0  0  0  0  0  0  0  0
   33.3826   26.8527   42.1936 O   0  0  0  0  0  1  0  0  0  0  0  0
   30.5101   26.6447   32.7891 C   0  0  0  0  0  0  0  0  0  0  0  0
   32.2637   27.9716   37.7298 C   0  0  0  0  0  0  0  0  0  0  0  0
   34.1142   27.7643   34.7626 C   0  0  0  0  0  0  0  0  0  0  0  0
   33.6759   28.2123   41.5012 P   0  0  0  0  0  4  0  0  0  0  0  0
   33.1509   27.1217   34.0536 C   0  0  0  0  0  0  0  0  0  0  0  0
   31.7619   26.6355   32.1131 C   0  0  0  0  0  0  0  0  0  0  0  0
   28.0190   27.4979   33.0126 C   0  0  0  0  0  0  0  0  0  0  0  0
   29.7919   28.5475   37.7004 C   0  0  0  0  0  0  0  0  0  0  0  0
   27.2538   28.4349   35.1152 C   0  0  0  0  0  0  0  0  0  0  0  0
   29.4925   27.6610   34.8862 C   0  0  0  0  0  0  0  0  0  0  0  0
   32.5029   29.2605   41.5508 O   0  0  0  0  0  0  0  0  0  0  0  0
   34.1599   27.5114   36.1371 C   0  0  0  0  0  0  0  0  0  0  0  0
  1 17  1  0
  1 23  2  0
  2  3  2  0
  2  9  1  0
  3 18  1  0
  4 16  2  0
  4 22  1  0
  4 25  1  0
  5 12  1  0
  5 19  1  0
  6  9  2  0
  6 20  1  0
  6 21  1  0
  7 17  2  0
  7 27  2  0
  8 19  1  0
 10 22  2  0
 11 13  1  0
 11 24  1  0
 11 25  2  0
 12 17  1  0
 13 23  1  0
 14 22  1  0
 14 24  2  0
 15 19  2  0
 16 21  2  0
 18 20  2  0
 18 27  1  0
 19 26  1  0
M  END
>  <ID>  (1) 
conformer_0

$$$$
