
     RDKit          3D

 31 33  0  0  0  0  0  0  0  0999 V2000
   34.2530   27.0647   37.1969 Cl  0  0  0  0  0  0  0  0  0  0  0  0
   29.4658   27.7024   35.7943 C   0  0  0  0  0  0  0  0  0  0  0  0
   30.5610   27.7716   34.9393 C   0  0  0  0  0  0  0  0  0  0  0  0
   30.3399   27.7432   33.5516 C   0  0  0  0  0  0  0  0  0  0  0  0
   36.8950   29.4927   34.1876 C   0  0  0  0  0  0  0  0  0  0  0  0
   34.7552   28.1964   34.0152 C   0  0  0  0  0  0  0  0  0  0  0  0
   28.2120   27.7865   35.2536 N   0  0  0  0  0  0  0  0  0  0  0  0
   33.4330   28.6033   44.1105 C   0  0  0  0  0  0  0  0  0  0  0  0
   28.7814   27.5057   31.6699 O   0  0  0  0  0  0  0  0  0  0  0  0
   26.6363   27.7844   33.4248 N   0  0  0  0  0  0  0  0  0  0  0  0
   29.0386   27.6891   33.0423 N   0  0  0  0  0  0  0  0  0  0  0  0
   35.1988   30.8108   38.0884 C   0  0  0  0  0  0  0  0  0  0  0  0
   34.7081   29.4607   38.4481 C   0  0  0  0  0  0  0  0  0  0  0  0
   34.7912   28.7482   37.2336 C   0  0  0  0  0  0  0  0  0  0  0  0
   33.3992   27.9773   34.1927 C   0  0  0  0  0  0  0  0  0  0  0  0
   30.1430   28.5379   38.0605 C   0  0  0  0  0  0  0  0  0  0  0  0
   32.8388   27.6884   32.9711 C   0  0  0  0  0  0  0  0  0  0  0  0
   35.6672   28.9940   34.8622 C   0  0  0  0  0  0  0  0  0  0  0  0
   29.6827   27.4873   37.1602 O   0  0  0  0  0  0  0  0  0  0  0  0
   33.6582   27.7224   42.9799 C   0  0  0  0  0  0  0  0  0  0  0  0
   33.8761   27.4827   32.1076 N   0  0  0  0  0  0  0  0  0  0  0  0
   31.4637   27.7393   32.5427 C   0  0  0  0  0  0  0  0  0  0  0  0
   33.4560   26.4412   43.0243 O   0  0  0  0  0  0  0  0  0  0  0  0
   35.3584   29.4453   36.1972 C   0  0  0  0  0  0  0  0  0  0  0  0
   34.3838   29.0247   39.6728 N   0  0  0  0  0  0  0  0  0  0  0  0
   27.9605   27.7647   33.9405 C   0  0  0  0  0  0  0  0  0  0  0  0
   34.3224   28.2391   41.8559 N   0  0  0  0  0  0  0  0  0  0  0  0
   33.7547   28.9975   40.8192 C   0  0  0  0  0  0  0  0  0  0  0  0
   32.6028   29.5447   41.0116 O   0  0  0  0  0  0  0  0  0  0  0  0
   35.0982   27.7819   32.7851 N   0  0  0  0  0  0  0  0  0  0  0  0
   35.6209   30.7865   36.6685 C   0  0  0  0  0  0  0  0  0  0  0  0
  1 14  1  0
  2  3  1  0
  2  7  2  0
  2 19  1  0
  3  4  2  0
  4 11  1  0
  4 22  1  0
  5 18  1  0
  6 15  1  0
  6 18  1  0
  6 30  1  0
  7 26  1  0
  8 20  1  0
  9 11  1  0
 10 26  2  0
 11 26  1  0
 12 13  1  0
 12 31  1  0
 13 14  2  0
 13 25  1  0
 14 24  1  0
 15 17  1  0
 16 19  1  0
 17 21  1  0
 17 22  1  0
 18 24  1  0
 20 23  2  0
 20 27  1  0
 21 30  1  0
 24 31  1  0
 25 28  1  0
 27 28  1  0
 28 29  2  0
M  END
>  <ID>  (1) 
conformer_0

$$$$
