
     RDKit          3D

 27 32  0  0  0  0  0  0  0  0999 V2000
   33.9872   28.7248   38.1506 C   0  0  0  0  0  0  0  0  0  0  0  0
   29.3597   28.4731   36.0968 C   0  0  0  0  0  0  0  0  0  0  0  0
   27.9898   27.6637   33.8126 C   0  0  0  0  0  0  0  0  0  0  0  0
   32.9096   27.6972   40.0678 O   0  0  0  0  0  0  0  0  0  0  0  0
   27.3377   28.8055   37.2751 C   0  0  0  0  0  0  0  0  0  0  0  0
   31.3379   27.9536   34.4227 N   0  0  0  0  0  0  0  0  0  0  0  0
   29.7016   28.9267   37.6507 C   0  0  0  0  0  0  0  0  0  0  0  0
   32.7527   28.4337   32.8765 C   0  0  0  0  0  0  0  0  0  0  0  0
   30.1653   27.4353   32.5137 C   0  0  0  0  0  0  0  0  0  0  0  0
   31.6161   27.3378   33.0864 C   0  0  0  0  0  0  0  0  0  0  0  0
   27.3281   28.0226   34.9242 N   0  0  0  0  0  0  0  0  0  0  0  0
   30.0189   28.0889   34.8705 N   0  0  0  0  0  0  0  0  0  0  0  0
   33.9180   29.0323   36.7779 C   0  0  0  0  0  0  0  0  0  0  0  0
   32.9883   28.3365   35.9960 C   0  0  0  0  0  0  0  0  0  0  0  0
   27.9837   28.4254   36.0196 C   0  0  0  0  0  0  0  0  0  0  0  0
   32.3867   27.1931   36.5394 C   0  0  0  0  0  0  0  0  0  0  0  0
   28.0515   29.1952   39.6036 O   0  0  0  0  0  0  0  0  0  0  0  0
   26.9997   30.1086   40.0214 C   0  0  0  0  0  0  0  0  0  0  0  0
   32.4713   26.8836   37.8555 C   0  0  0  0  0  0  0  0  0  0  0  0
   32.5830   28.8300   34.5734 C   0  0  0  0  0  0  0  0  0  0  0  0
   29.3587   27.7256   33.7624 C   0  0  0  0  0  0  0  0  0  0  0  0
   33.7806   28.0253   41.0566 C   0  0  0  0  0  0  0  0  0  0  0  0
   34.9134   29.0115   40.5415 C   0  0  0  0  0  0  0  0  0  0  0  0
   28.3041   29.0298   38.2900 C   0  0  0  0  0  0  0  0  0  0  0  0
   33.1486   27.7491   38.7163 C   0  0  0  0  0  0  0  0  0  0  0  0
   33.8332   27.4239   42.1559 O   0  0  0  0  0  0  0  0  0  0  0  0
   34.9144   29.5236   39.0239 C   0  0  0  0  0  0  0  0  0  0  0  0
  1 13  1  0
  1 25  1  0
  1 27  1  0
  2  7  1  0
  2 12  1  0
  2 15  1  0
  3 11  1  0
  3 21  2  0
  4 22  1  0
  4 25  1  0
  5 15  1  0
  5 24  1  0
  6 10  1  0
  6 12  1  0
  6 20  1  0
  7 24  1  0
  8 10  1  0
  8 20  1  0
  9 10  1  0
  9 21  1  0
 11 15  2  0
 12 21  1  0
 13 14  2  0
 14 16  1  0
 14 20  1  0
 16 19  2  0
 17 18  1  0
 17 24  1  0
 19 25  1  0
 22 23  1  0
 22 26  2  0
 23 27  1  0
M  END
>  <ID>  (1) 
conformer_0

$$$$
