
     RDKit          3D

 21 23  0  0  0  0  0  0  0  0999 V2000
  128.9836   51.8651   31.7270 C   0  0  0  0  0  0  0  0  0  0  0  0
  128.5962   52.4917   30.6475 N   0  0  0  0  0  0  0  0  0  0  0  0
  129.3754   53.6203   30.4098 C   0  0  0  0  0  0  0  0  0  0  0  0
  135.7948   55.2970   31.8116 C   0  0  0  0  0  0  0  0  0  0  0  0
  134.0511   57.9046   32.7182 C   0  0  0  0  0  0  0  0  0  0  0  0
  134.3783   55.2034   31.8610 C   0  0  0  0  0  0  0  0  0  0  0  0
  129.2822   50.7935   32.5813 C   0  0  0  0  0  0  0  0  0  0  0  0
  132.5482   53.5634   32.5176 C   0  0  0  0  0  0  0  0  0  0  0  0
  130.2869   52.5276   31.9850 C   0  0  0  0  0  0  0  0  0  0  0  0
  133.7977   54.3832   32.9058 C   0  0  0  0  0  0  0  0  0  0  0  0
  132.0359   52.5897   33.3264 N   0  0  0  0  0  0  0  0  0  0  0  0
  134.2276   57.4809   31.3289 C   0  0  0  0  0  0  0  0  0  0  0  0
  134.3097   53.0841   32.9406 C   0  0  0  0  0  0  0  0  0  0  0  0
  130.5198   53.5844   31.2732 C   0  0  0  0  0  0  0  0  0  0  0  0
  134.7348   58.2091   30.1726 C   0  0  0  0  0  0  0  0  0  0  0  0
  135.7422   52.9878   32.9340 C   0  0  0  0  0  0  0  0  0  0  0  0
  136.4855   54.0572   32.1951 C   0  0  0  0  0  0  0  0  0  0  0  0
  136.4541   56.0686   30.9801 O   0  0  0  0  0  0  0  0  0  0  0  0
  133.6423   56.1411   31.0698 C   0  0  0  0  0  0  0  0  0  0  0  0
  131.0233   51.7758   32.8361 C   0  0  0  0  0  0  0  0  0  0  0  0
  131.7775   54.1344   31.5123 C   0  0  0  0  0  0  0  0  0  0  0  0
  1  2  1  0
  1  7  1  0
  1  9  1  0
  2  3  1  0
  3 14  1  0
  4  6  1  0
  4 17  1  0
  4 18  1  0
  5 12  1  0
  6 10  1  0
  6 19  1  0
  8 10  1  0
  8 11  1  0
  8 21  2  0
  9 14  2  0
  9 20  1  0
 10 13  1  0
 11 20  1  0
 12 15  1  0
 12 19  1  0
 13 16  1  0
 14 21  1  0
 16 17  1  0
M  END
>  <ID>  (1) 
conformer_0

$$$$
