
     RDKit          3D

 17 20  0  0  0  0  0  0  0  0999 V2000
  128.7327   52.2197   31.4841 C   0  0  0  0  0  0  0  0  0  0  0  0
  132.8607   55.0251   30.9538 C   0  0  0  0  0  0  0  0  0  0  0  0
  131.4974   54.9457   30.4811 N   0  0  0  0  0  0  0  0  0  0  0  0
  131.6679   53.4100   32.0945 C   0  0  0  0  0  0  0  0  0  0  0  0
  131.1873   52.5456   32.9360 N   0  0  0  0  0  0  0  0  0  0  0  0
  136.6239   51.6168   32.9485 O   0  0  0  0  0  0  0  0  0  0  0  0
  136.2312   53.8548   32.0553 N   0  0  0  0  0  0  0  0  0  0  0  0
  130.7733   53.9619   31.1075 C   0  0  0  0  0  0  0  0  0  0  0  0
  134.5730   52.7612   33.1469 C   0  0  0  0  0  0  0  0  0  0  0  0
  132.8540   54.1036   32.0032 C   0  0  0  0  0  0  0  0  0  0  0  0
  134.0661   53.9509   32.6075 C   0  0  0  0  0  0  0  0  0  0  0  0
  136.0059   52.7462   32.8965 C   0  0  0  0  0  0  0  0  0  0  0  0
  129.1957   51.2025   32.4433 C   0  0  0  0  0  0  0  0  0  0  0  0
  130.6849   51.2631   32.6257 C   0  0  0  0  0  0  0  0  0  0  0  0
  135.1189   54.6224   31.8604 C   0  0  0  0  0  0  0  0  0  0  0  0
  134.3874   55.3201   30.8346 C   0  0  0  0  0  0  0  0  0  0  0  0
  129.4681   53.3593   31.0538 C   0  0  0  0  0  0  0  0  0  0  0  0
  1 13  1  0
  1 17  2  0
  2  3  1  0
  2 10  2  0
  2 16  1  0
  3  8  1  0
  4  5  1  0
  4  8  2  0
  4 10  1  0
  5 14  1  0
  6 12  2  0
  7 12  1  0
  7 15  1  0
  8 17  1  0
  9 11  1  0
  9 12  1  0
 10 11  1  0
 11 15  1  0
 13 14  1  0
 15 16  1  0
M  END
>  <ID>  (1) 
conformer_0

$$$$
