
     RDKit          3D

 34 38  0  0  0  0  0  0  0  0999 V2000
  134.5614   56.3152   25.9214 C   0  0  0  0  0  0  0  0  0  0  0  0
  132.0085   53.0288   32.7438 N   0  0  0  0  0  0  0  0  0  0  0  0
  137.3518   48.8722   31.3702 N   0  0  0  0  0  0  0  0  0  0  0  0
  137.4287   46.5017   30.5292 C   0  0  0  0  0  0  0  0  0  0  0  0
  137.6536   52.3863   30.0989 C   0  0  0  0  0  0  0  0  0  0  0  0
  136.8212   49.8067   32.4176 C   0  0  0  0  0  0  0  0  0  0  0  0
  134.4384   55.3796   31.1329 N   0  0  0  0  0  0  0  0  0  0  0  0
  136.6918   52.5085   32.1945 C   0  0  0  0  0  0  0  0  0  0  0  0
  129.7458   52.6537   32.2447 N   0  0  0  0  0  0  0  0  0  0  0  0
  131.0527   54.1885   30.9021 C   0  0  0  0  0  0  0  0  0  0  0  0
  129.0104   51.5675   31.8887 C   0  0  0  0  0  0  0  0  0  0  0  0
  132.1959   54.8230   30.7731 N   0  0  0  0  0  0  0  0  0  0  0  0
  128.0944   51.9443   30.5997 C   0  0  0  0  0  0  0  0  0  0  0  0
  136.8075   47.5334   31.3928 C   0  0  0  0  0  0  0  0  0  0  0  0
  134.5169   56.7276   24.6572 O   0  0  0  0  0  0  0  0  0  0  0  0
  133.9591   56.8665   28.1966 C   0  0  0  0  0  0  0  0  0  0  0  0
  130.9103   53.2852   31.9395 C   0  0  0  0  0  0  0  0  0  0  0  0
  136.3647   54.2799   30.6285 N   0  0  0  0  0  0  0  0  0  0  0  0
  133.1681   53.6501   32.5900 C   0  0  0  0  0  0  0  0  0  0  0  0
  136.9090   53.1791   30.9544 C   0  0  0  0  0  0  0  0  0  0  0  0
  134.2118   53.3358   33.5685 N   0  0  0  0  0  0  0  0  0  0  0  0
  135.5742   45.5059   31.4628 N   0  0  0  0  0  0  0  0  0  0  0  0
  137.0648   51.1454   31.9262 C   0  0  0  0  0  0  0  0  0  0  0  0
  138.1127   49.7673   30.3483 C   0  0  0  0  0  0  0  0  0  0  0  0
  135.7594   55.4114   29.0457 C   0  0  0  0  0  0  0  0  0  0  0  0
  133.4164   56.7639   26.8168 C   0  0  0  0  0  0  0  0  0  0  0  0
  135.7944   56.2042   26.7257 C   0  0  0  0  0  0  0  0  0  0  0  0
  136.6941   45.2015   30.6949 C   0  0  0  0  0  0  0  0  0  0  0  0
  137.7058   51.0877   30.6969 C   0  0  0  0  0  0  0  0  0  0  0  0
  133.2949   54.5958   31.5049 C   0  0  0  0  0  0  0  0  0  0  0  0
  134.3415   56.8544   31.4152 C   0  0  0  0  0  0  0  0  0  0  0  0
  135.3377   56.2748   28.1507 N   0  0  0  0  0  0  0  0  0  0  0  0
  135.4454   55.0165   30.2600 C   0  0  0  0  0  0  0  0  0  0  0  0
  135.8478   46.7185   32.2092 C   0  0  0  0  0  0  0  0  0  0  0  0
  1 15  1  0
  1 26  1  0
  1 27  1  0
  2 17  2  0
  2 19  1  0
  3  6  1  0
  3 14  1  0
  3 24  1  0
  4 14  1  0
  4 28  1  0
  5 20  1  0
  5 29  1  0
  6 23  1  0
  7 30  1  0
  7 31  1  0
  7 33  1  0
  8 20  1  0
  8 23  1  0
  9 11  1  0
  9 17  1  0
 10 12  2  0
 10 17  1  0
 11 13  1  0
 12 30  1  0
 14 34  1  0
 16 26  1  0
 16 32  1  0
 18 20  1  0
 18 33  1  0
 19 21  2  0
 19 30  1  0
 22 28  1  0
 22 34  1  0
 23 29  2  0
 24 29  1  0
 25 32  1  0
 25 33  2  3
 27 32  1  0
M  END
>  <ID>  (1) 
conformer_0

$$$$
