
     RDKit          3D

 19 20  0  0  0  0  0  0  0  0999 V2000
  129.1883   53.0587   31.1381 C   0  0  0  0  0  0  0  0  0  0  0  0
  132.1683   56.4904   27.2609 C   0  0  0  0  0  0  0  0  0  0  0  0
  132.7338   54.6250   31.4176 N   0  0  0  0  0  0  0  0  0  0  0  0
  134.8050   55.0840   30.5929 O   0  0  0  0  0  0  0  0  0  0  0  0
  133.5297   55.2521   30.5428 C   0  0  0  0  0  0  0  0  0  0  0  0
  131.0647   51.7102   32.7054 C   0  0  0  0  0  0  0  0  0  0  0  0
  132.6609   53.5111   32.2156 N   0  0  0  0  0  0  0  0  0  0  0  0
  129.8066   51.1661   32.4983 C   0  0  0  0  0  0  0  0  0  0  0  0
  132.9874   56.1563   29.5053 C   0  0  0  0  0  0  0  0  0  0  0  0
  134.9890   53.1045   33.0321 C   0  0  0  0  0  0  0  0  0  0  0  0
  131.7273   57.7736   27.5993 C   0  0  0  0  0  0  0  0  0  0  0  0
  130.4198   53.6004   31.3271 C   0  0  0  0  0  0  0  0  0  0  0  0
  132.5508   57.4165   29.8455 C   0  0  0  0  0  0  0  0  0  0  0  0
  132.8068   55.6918   28.2010 C   0  0  0  0  0  0  0  0  0  0  0  0
  133.1953   52.4328   34.2842 O   0  0  0  0  0  0  0  0  0  0  0  0
  131.3784   52.9265   32.0980 C   0  0  0  0  0  0  0  0  0  0  0  0
  133.5103   52.9562   33.1777 C   0  0  0  0  0  0  0  0  0  0  0  0
  131.9113   58.2149   28.9170 C   0  0  0  0  0  0  0  0  0  0  0  0
  128.8846   51.8372   31.7341 C   0  0  0  0  0  0  0  0  0  0  0  0
  1 12  2  0
  1 19  1  0
  2 11  2  0
  2 14  1  0
  3  5  1  0
  3  7  1  0
  4  5  2  0
  5  9  1  0
  6  8  1  0
  6 16  2  0
  7 16  1  0
  7 17  1  0
  8 19  2  0
  9 13  1  0
  9 14  2  0
 10 17  1  0
 11 18  1  0
 12 16  1  0
 13 18  2  0
 15 17  2  0
M  END
>  <ID>  (1) 
conformer_0

$$$$
