
     RDKit          3D

 25 28  0  0  0  0  0  0  0  0999 V2000
  129.3770   53.1824   31.3215 C   0  0  0  0  0  0  0  0  0  0  0  0
  135.2355   55.4179   26.2826 C   0  0  0  0  0  0  0  0  0  0  0  0
  134.7354   54.6246   31.6112 N   0  0  0  0  0  0  0  0  0  0  0  0
  128.8483   53.2895   30.0578 O   0  0  0  0  0  0  0  0  0  0  0  0
  132.4045   55.8906   28.4910 C   0  0  0  0  0  0  0  0  0  0  0  0
  133.1782   55.9400   29.8781 C   0  0  0  0  0  0  0  0  0  0  0  0
  129.8266   51.0322   32.6850 C   0  0  0  0  0  0  0  0  0  0  0  0
  132.3128   55.3354   26.9433 C   0  0  0  0  0  0  0  0  0  0  0  0
  135.1529   53.0834   33.2894 C   0  0  0  0  0  0  0  0  0  0  0  0
  127.2575   52.0171   28.6613 C   0  0  0  0  0  0  0  0  0  0  0  0
  129.1939   51.9080   31.7711 N   0  0  0  0  0  0  0  0  0  0  0  0
  132.9155   53.3740   32.5035 C   0  0  0  0  0  0  0  0  0  0  0  0
  128.1251   52.0920   29.8656 C   0  0  0  0  0  0  0  0  0  0  0  0
  133.8311   52.7791   33.3502 C   0  0  0  0  0  0  0  0  0  0  0  0
  131.2277   54.6288   30.7922 C   0  0  0  0  0  0  0  0  0  0  0  0
  133.4160   54.2990   31.6502 C   0  0  0  0  0  0  0  0  0  0  0  0
  135.5875   54.0178   32.3979 C   0  0  0  0  0  0  0  0  0  0  0  0
  132.5618   54.9453   30.7812 C   0  0  0  0  0  0  0  0  0  0  0  0
  128.3056   51.2197   30.9110 C   0  0  0  0  0  0  0  0  0  0  0  0
  127.0160   50.6958   28.0398 C   0  0  0  0  0  0  0  0  0  0  0  0
  130.7433   53.6519   31.5591 C   0  0  0  0  0  0  0  0  0  0  0  0
  131.5590   53.0591   32.5090 C   0  0  0  0  0  0  0  0  0  0  0  0
  134.4640   56.4763   27.0612 C   0  0  0  0  0  0  0  0  0  0  0  0
  134.2085   55.6217   25.0445 C   0  0  0  0  0  0  0  0  0  0  0  0
  133.1681   56.3294   26.0522 C   0  0  0  0  0  0  0  0  0  0  0  0
  1  4  1  0
  1 11  1  0
  1 21  1  0
  2 23  1  0
  2 24  1  0
  3 16  2  0
  3 17  1  0
  4 13  1  0
  5  6  1  0
  5  8  1  0
  6 18  1  0
  7 11  1  0
  8 25  1  0
  9 14  1  0
  9 17  2  0
 10 13  1  0
 10 20  1  0
 11 19  1  0
 12 14  2  0
 12 16  1  0
 12 22  1  0
 13 19  1  0
 15 18  1  0
 15 21  2  0
 16 18  1  0
 21 22  1  0
 23 25  1  0
 24 25  1  0
M  END
>  <ID>  (1) 
conformer_0

$$$$
