
     RDKit          3D

 22 24  0  0  0  0  0  0  0  0999 V2000
  129.0994   52.1750   31.4735 C   0  0  0  0  0  0  0  0  0  0  0  0
  127.8680   51.8540   30.9009 Cl  0  0  0  0  0  0  0  0  0  0  0  0
  133.1352   52.0030   33.0304 C   0  0  0  0  0  0  0  0  0  0  0  0
  133.9993   52.9534   32.5227 N   0  0  0  0  0  0  0  0  0  0  0  0
  137.6153   52.9603   31.9259 C   0  0  0  0  0  0  0  0  0  0  0  0
  135.3248   52.5371   32.4825 C   0  0  0  0  0  0  0  0  0  0  0  0
  133.8562   55.3358   31.7139 C   0  0  0  0  0  0  0  0  0  0  0  0
  129.6467   53.3573   31.1278 C   0  0  0  0  0  0  0  0  0  0  0  0
  130.7962   53.9542   31.2906 C   0  0  0  0  0  0  0  0  0  0  0  0
  133.9366   55.6606   30.2440 C   0  0  0  0  0  0  0  0  0  0  0  0
  129.6881   51.2828   32.3384 C   0  0  0  0  0  0  0  0  0  0  0  0
  137.8720   51.5794   31.9805 C   0  0  0  0  0  0  0  0  0  0  0  0
  133.2219   55.5376   28.0183 O   0  0  0  0  0  0  0  0  0  0  0  0
  130.8982   51.4293   32.8186 C   0  0  0  0  0  0  0  0  0  0  0  0
  131.9705   53.5514   31.8651 C   0  0  0  0  0  0  0  0  0  0  0  0
  132.8692   55.6307   29.1989 C   0  0  0  0  0  0  0  0  0  0  0  0
  131.7081   55.7276   29.4883 O   0  0  0  0  0  0  0  0  0  0  0  0
  136.8439   50.7250   32.3770 C   0  0  0  0  0  0  0  0  0  0  0  0
  133.2866   53.9918   31.9800 C   0  0  0  0  0  0  0  0  0  0  0  0
  135.6053   51.1937   32.6724 C   0  0  0  0  0  0  0  0  0  0  0  0
  131.8955   52.3227   32.5541 C   0  0  0  0  0  0  0  0  0  0  0  0
  136.3576   53.4248   32.1791 C   0  0  0  0  0  0  0  0  0  0  0  0
  1  2  1  0
  1  8  1  0
  1 11  1  0
  3  4  1  0
  3 21  1  0
  4  6  1  0
  4 19  1  0
  5 12  1  0
  5 22  2  0
  6 20  1  0
  6 22  1  0
  7 10  1  0
  7 19  1  0
  8  9  2  0
  9 15  1  0
 10 16  1  0
 11 14  2  0
 12 18  1  0
 13 16  2  0
 14 21  1  0
 15 19  1  0
 15 21  2  0
 16 17  1  0
 18 20  2  0
M  END
>  <ID>  (1) 
conformer_0

$$$$
