
     RDKit          3D

 30 33  0  0  0  0  0  0  0  0999 V2000
  134.6328   52.9793   33.0240 C   0  0  0  0  0  0  0  0  0  0  0  0
  128.8474   53.0796   28.9760 N   0  0  0  0  0  0  0  0  0  0  0  0
  128.5512   51.8960   30.5627 N   0  0  0  0  0  0  0  0  0  0  0  0
  131.3817   54.2718   30.7887 N   0  0  0  0  0  0  0  0  0  0  0  0
  134.2043   57.5768   30.0076 C   0  0  0  0  0  0  0  0  0  0  0  0
  134.8785   53.8214   31.9538 C   0  0  0  0  0  0  0  0  0  0  0  0
  134.3738   56.2687   29.4883 C   0  0  0  0  0  0  0  0  0  0  0  0
  134.3592   53.9958   27.1283 F   0  0  0  0  0  0  0  0  0  0  0  0
  130.0237   51.8899   32.3344 C   0  0  0  0  0  0  0  0  0  0  0  0
  135.2256   55.6175   25.6844 O   0  0  0  0  0  0  0  0  0  0  0  0
  135.2135   55.0106   27.1331 C   0  0  0  0  0  0  0  0  0  0  0  0
  131.1510   52.3668   32.8828 N   0  0  0  0  0  0  0  0  0  0  0  0
  133.3799   52.6050   33.3388 C   0  0  0  0  0  0  0  0  0  0  0  0
  134.5328   57.0002   25.7787 C   0  0  0  0  0  0  0  0  0  0  0  0
  134.4597   57.2554   27.2532 C   0  0  0  0  0  0  0  0  0  0  0  0
  135.6696   52.5466   33.7474 O   0  0  0  0  0  0  0  0  0  0  0  0
  134.1628   58.6801   29.2002 C   0  0  0  0  0  0  0  0  0  0  0  0
  136.1248   54.0282   31.4574 O   0  0  0  0  0  0  0  0  0  0  0  0
  130.3413   53.5179   30.6671 C   0  0  0  0  0  0  0  0  0  0  0  0
  133.8082   54.3931   31.2939 C   0  0  0  0  0  0  0  0  0  0  0  0
  134.1594   55.3317   30.4107 N   0  0  0  0  0  0  0  0  0  0  0  0
  132.2819   52.9945   32.5569 C   0  0  0  0  0  0  0  0  0  0  0  0
  136.6017   54.6680   27.4347 C   0  0  0  0  0  0  0  0  0  0  0  0
  134.2601   58.5095   27.8249 C   0  0  0  0  0  0  0  0  0  0  0  0
  134.6769   56.1383   28.0544 C   0  0  0  0  0  0  0  0  0  0  0  0
  132.4842   53.9133   31.5294 C   0  0  0  0  0  0  0  0  0  0  0  0
  129.2872   50.7051   32.8389 C   0  0  0  0  0  0  0  0  0  0  0  0
  127.0743   51.6234   28.6230 N   0  0  0  0  0  0  0  0  0  0  0  0
  129.6235   52.4981   31.1261 C   0  0  0  0  0  0  0  0  0  0  0  0
  128.1376   52.2081   29.3961 C   0  0  0  0  0  0  0  0  0  0  0  0
  1  6  2  0
  1 13  1  0
  1 16  1  0
  2 30  1  0
  3 29  1  0
  3 30  2  3
  4 19  1  0
  4 26  1  0
  5  7  2  0
  5 17  1  0
  6 18  1  0
  6 20  1  0
  7 21  1  0
  7 25  1  0
  8 11  1  0
  9 12  1  0
  9 27  1  0
  9 29  1  0
 10 11  1  0
 10 14  1  0
 11 23  1  0
 11 25  1  0
 12 22  1  0
 13 22  2  0
 14 15  1  0
 15 24  1  0
 15 25  2  0
 17 24  2  0
 19 29  2  0
 20 21  1  0
 20 26  2  0
 22 26  1  0
 28 30  1  0
M  END
>  <ID>  (1) 
conformer_0

$$$$
