
     RDKit          3D

 18 20  0  0  0  0  0  0  0  0999 V2000
  134.3087   55.5118   31.2720 N   0  0  0  0  0  0  0  0  0  0  0  0
  128.9315   53.0469   29.3801 O   0  0  0  0  0  0  0  0  0  0  0  0
  132.2028   54.1825   31.4147 C   0  0  0  0  0  0  0  0  0  0  0  0
  130.3434   52.9171   31.7065 C   0  0  0  0  0  0  0  0  0  0  0  0
  135.0699   58.3547   28.3282 O   0  0  0  0  0  0  0  0  0  0  0  0
  132.4714   53.2493   32.4600 C   0  0  0  0  0  0  0  0  0  0  0  0
  130.8788   53.9491   30.9918 C   0  0  0  0  0  0  0  0  0  0  0  0
  133.9005   56.6601   29.3826 C   0  0  0  0  0  0  0  0  0  0  0  0
  128.9760   52.3633   31.6978 C   0  0  0  0  0  0  0  0  0  0  0  0
  128.1207   52.4165   30.4626 C   0  0  0  0  0  0  0  0  0  0  0  0
  133.0661   55.1671   30.8043 C   0  0  0  0  0  0  0  0  0  0  0  0
  133.9555   57.4869   28.1717 C   0  0  0  0  0  0  0  0  0  0  0  0
  129.0066   51.0905   32.4502 C   0  0  0  0  0  0  0  0  0  0  0  0
  133.6920   53.1199   33.2441 C   0  0  0  0  0  0  0  0  0  0  0  0
  132.7768   55.8774   29.6699 C   0  0  0  0  0  0  0  0  0  0  0  0
  131.3038   52.3894   32.5892 N   0  0  0  0  0  0  0  0  0  0  0  0
  130.5137   50.9713   32.7558 O   0  0  0  0  0  0  0  0  0  0  0  0
  134.8482   56.4768   30.3880 C   0  0  0  0  0  0  0  0  0  0  0  0
  1 11  1  0
  1 18  1  0
  2 10  1  0
  3  6  1  0
  3  7  1  0
  3 11  2  3
  4  7  1  0
  4  9  1  0
  4 16  1  0
  5 12  1  0
  6 14  1  0
  6 16  1  0
  8 12  1  0
  8 15  1  0
  8 18  1  0
  9 10  1  0
  9 13  1  0
 11 15  1  0
 13 17  1  0
 16 17  1  0
M  END
>  <ID>  (1) 
conformer_0

$$$$
