
     RDKit          3D

 22 24  0  0  0  0  0  0  0  0999 V2000
  136.4447   50.9993   32.8853 C   0  0  0  0  0  0  0  0  0  0  0  0
  129.1366   50.8736   32.5428 C   0  0  0  0  0  0  0  0  0  0  0  0
  134.2806   55.5437   33.2196 C   0  0  0  0  0  0  0  0  0  0  0  0
  134.6368   56.0763   30.9577 O   0  0  0  0  0  0  0  0  0  0  0  0
  134.8720   55.3080   32.0087 C   0  0  0  0  0  0  0  0  0  0  0  0
  138.1169   52.4762   31.9911 O   0  0  0  0  0  0  0  0  0  0  0  0
  136.1791   54.6919   32.0204 N   0  0  0  0  0  0  0  0  0  0  0  0
  136.9304   52.3122   32.4671 C   0  0  0  0  0  0  0  0  0  0  0  0
  136.0526   53.4856   32.7658 C   0  0  0  0  0  0  0  0  0  0  0  0
  130.6051   51.0227   32.7620 C   0  0  0  0  0  0  0  0  0  0  0  0
  128.7062   51.9879   31.6641 C   0  0  0  0  0  0  0  0  0  0  0  0
  131.9681   53.0780   32.9346 C   0  0  0  0  0  0  0  0  0  0  0  0
  132.0336   55.0098   31.2110 C   0  0  0  0  0  0  0  0  0  0  0  0
  129.9385   53.8531   30.5858 C   0  0  0  0  0  0  0  0  0  0  0  0
  133.9084   54.3660   32.5605 C   0  0  0  0  0  0  0  0  0  0  0  0
  134.6054   53.1504   32.9523 C   0  0  0  0  0  0  0  0  0  0  0  0
  131.0332   54.7027   30.2754 C   0  0  0  0  0  0  0  0  0  0  0  0
  128.9790   53.7757   29.7513 O   0  0  0  0  0  0  0  0  0  0  0  0
  130.9840   52.3299   32.2836 C   0  0  0  0  0  0  0  0  0  0  0  0
  136.7763   54.5119   30.6359 C   0  0  0  0  0  0  0  0  0  0  0  0
  132.4873   54.2031   32.2907 C   0  0  0  0  0  0  0  0  0  0  0  0
  129.8454   52.9836   31.7213 C   0  0  0  0  0  0  0  0  0  0  0  0
  1  8  1  0
  2 10  1  0
  2 11  1  0
  3  5  1  0
  3 15  1  0
  4  5  2  0
  5  7  1  0
  6  8  1  0
  7  9  1  0
  7 20  1  0
  8  9  1  0
  9 16  1  0
 10 19  1  0
 11 22  1  0
 12 19  1  0
 12 21  1  0
 13 17  1  0
 13 21  1  0
 14 17  1  0
 14 18  2  0
 14 22  1  0
 15 16  1  0
 15 21  1  0
 19 22  1  0
M  END
>  <ID>  (1) 
conformer_0

$$$$
