
     RDKit          3D

 23 26  0  0  0  0  0  0  0  0999 V2000
  136.5873   48.3185   30.9294 C   0  0  0  0  0  0  0  0  0  0  0  0
  134.8088   46.9937   32.0908 C   0  0  0  0  0  0  0  0  0  0  0  0
  136.4773   51.3115   33.0180 C   0  0  0  0  0  0  0  0  0  0  0  0
  129.8782   53.4502   31.8711 C   0  0  0  0  0  0  0  0  0  0  0  0
  132.6982   55.6250   29.6475 C   0  0  0  0  0  0  0  0  0  0  0  0
  132.5629   54.3485   31.8619 C   0  0  0  0  0  0  0  0  0  0  0  0
  131.6706   52.2486   32.8746 C   0  0  0  0  0  0  0  0  0  0  0  0
  135.6126   47.8855   33.0742 C   0  0  0  0  0  0  0  0  0  0  0  0
  134.9642   54.3194   31.8746 C   0  0  0  0  0  0  0  0  0  0  0  0
  135.6415   52.4461   32.7754 C   0  0  0  0  0  0  0  0  0  0  0  0
  133.2184   55.4429   31.0063 C   0  0  0  0  0  0  0  0  0  0  0  0
  131.3375   53.5179   32.2695 N   0  0  0  0  0  0  0  0  0  0  0  0
  134.6627   55.4110   31.1815 O   0  0  0  0  0  0  0  0  0  0  0  0
  133.8222   53.6497   32.2840 C   0  0  0  0  0  0  0  0  0  0  0  0
  136.9849   50.0343   32.7103 C   0  0  0  0  0  0  0  0  0  0  0  0
  136.0685   53.6110   32.2394 N   0  0  0  0  0  0  0  0  0  0  0  0
  129.3787   52.0276   32.0034 C   0  0  0  0  0  0  0  0  0  0  0  0
  135.6408   47.0920   30.7584 C   0  0  0  0  0  0  0  0  0  0  0  0
  129.7500   53.9251   30.4112 C   0  0  0  0  0  0  0  0  0  0  0  0
  136.2052   48.9640   32.2387 N   0  0  0  0  0  0  0  0  0  0  0  0
  128.4911   51.4747   31.2820 O   0  0  0  0  0  0  0  0  0  0  0  0
  134.3125   52.5409   32.9081 C   0  0  0  0  0  0  0  0  0  0  0  0
  130.5016   51.2752   32.6449 C   0  0  0  0  0  0  0  0  0  0  0  0
  1 18  1  0
  1 20  1  0
  2  8  1  0
  2 18  1  0
  3 10  1  0
  3 15  1  0
  4 12  1  0
  4 17  1  0
  4 19  1  0
  5 11  1  0
  6 11  1  0
  6 12  1  0
  6 14  1  0
  7 12  1  0
  7 23  1  0
  8 20  1  0
  9 13  1  0
  9 14  2  0
  9 16  1  0
 10 16  1  0
 10 22  1  0
 11 13  1  0
 14 22  1  0
 15 20  1  0
 17 21  2  0
 17 23  1  0
M  END
>  <ID>  (1) 
conformer_0

$$$$
