
     RDKit          3D

 21 23  0  0  0  0  0  0  0  0999 V2000
  134.9407   54.8036   31.0952 O   0  0  0  0  0  0  0  0  0  0  0  0
  132.9928   57.9989   28.5432 C   0  0  0  0  0  0  0  0  0  0  0  0
  137.2743   53.5279   32.0060 F   0  0  0  0  0  0  0  0  0  0  0  0
  132.2962   53.2022   32.5760 C   0  0  0  0  0  0  0  0  0  0  0  0
  132.9190   55.9554   29.8533 C   0  0  0  0  0  0  0  0  0  0  0  0
  133.6657   53.5772   32.5765 C   0  0  0  0  0  0  0  0  0  0  0  0
  133.5789   57.3145   27.4938 C   0  0  0  0  0  0  0  0  0  0  0  0
  129.1513   52.9971   31.4765 C   0  0  0  0  0  0  0  0  0  0  0  0
  131.6190   54.1508   31.6721 C   0  0  0  0  0  0  0  0  0  0  0  0
  133.5193   55.3649   28.7822 C   0  0  0  0  0  0  0  0  0  0  0  0
  129.2880   51.6435   32.0943 C   0  0  0  0  0  0  0  0  0  0  0  0
  130.6393   51.3630   32.6557 C   0  0  0  0  0  0  0  0  0  0  0  0
  131.4946   52.3464   33.2114 N   0  0  0  0  0  0  0  0  0  0  0  0
  136.7454   51.4592   33.0587 C   0  0  0  0  0  0  0  0  0  0  0  0
  134.8715   53.0363   33.2319 C   0  0  0  0  0  0  0  0  0  0  0  0
  133.8054   54.5479   31.5184 C   0  0  0  0  0  0  0  0  0  0  0  0
  132.5877   55.0360   31.0153 N   0  0  0  0  0  0  0  0  0  0  0  0
  136.1693   52.7798   32.6255 C   0  0  0  0  0  0  0  0  0  0  0  0
  130.2784   53.8344   31.3185 C   0  0  0  0  0  0  0  0  0  0  0  0
  132.6896   57.3168   29.7152 C   0  0  0  0  0  0  0  0  0  0  0  0
  133.8245   55.9713   27.6374 N   0  0  0  0  0  0  0  0  0  0  0  0
  1 16  2  0
  2  7  2  0
  2 20  1  0
  3 18  1  0
  4  6  2  0
  4  9  1  0
  4 13  1  0
  5 10  1  0
  5 17  1  0
  5 20  2  0
  6 15  1  0
  6 16  1  0
  7 21  1  0
  8 11  1  0
  8 19  1  0
  9 17  1  0
  9 19  2  0
 10 21  2  0
 11 12  1  0
 12 13  1  0
 14 18  1  0
 15 18  1  0
 16 17  1  0
M  END
>  <ID>  (1) 
conformer_0

$$$$
