
     RDKit          3D

 16 17  0  0  0  0  0  0  0  0999 V2000
  134.1613   55.4955   31.9873 C   0  0  0  0  0  0  0  0  0  0  0  0
  128.3066   52.2218   31.5489 C   0  0  0  0  0  0  0  0  0  0  0  0
  130.1403   50.9312   32.5279 C   0  0  0  0  0  0  0  0  0  0  0  0
  128.7995   51.3416   32.4699 N   0  0  0  0  0  0  0  0  0  0  0  0
  132.8991   54.9636   31.8514 N   0  0  0  0  0  0  0  0  0  0  0  0
  134.1852   57.1893   30.3440 C   0  0  0  0  0  0  0  0  0  0  0  0
  134.9254   53.4600   32.8130 C   0  0  0  0  0  0  0  0  0  0  0  0
  131.1552   51.8610   32.8667 C   0  0  0  0  0  0  0  0  0  0  0  0
  129.2547   53.0082   30.7589 C   0  0  0  0  0  0  0  0  0  0  0  0
  129.0285   53.1082   29.4893 O   0  0  0  0  0  0  0  0  0  0  0  0
  133.6610   52.9311   32.8029 C   0  0  0  0  0  0  0  0  0  0  0  0
  134.4420   56.8483   31.7826 O   0  0  0  0  0  0  0  0  0  0  0  0
  130.4120   53.6706   31.3286 C   0  0  0  0  0  0  0  0  0  0  0  0
  131.2542   53.1666   32.3219 C   0  0  0  0  0  0  0  0  0  0  0  0
  132.6341   53.7128   32.3191 C   0  0  0  0  0  0  0  0  0  0  0  0
  135.2077   54.7055   32.3907 N   0  0  0  0  0  0  0  0  0  0  0  0
  1  5  1  0
  1 12  1  0
  1 16  1  0
  2  4  2  0
  2  9  1  0
  3  4  1  0
  3  8  1  0
  5 15  2  0
  6 12  1  0
  7 11  1  0
  7 16  2  0
  8 14  1  0
  9 10  1  0
  9 13  1  0
 11 15  1  0
 13 14  1  0
 14 15  1  0
M  END
>  <ID>  (1) 
conformer_0

$$$$
