
     RDKit          3D

 16 19  0  0  0  0  0  0  0  0999 V2000
  129.8005   53.5441   30.9909 C   0  0  0  0  0  0  0  0  0  0  0  0
  133.6605   53.6270   32.3374 C   0  0  0  0  0  0  0  0  0  0  0  0
  130.9616   53.2446   31.8199 C   0  0  0  0  0  0  0  0  0  0  0  0
  128.8527   52.6446   30.7692 N   0  0  0  0  0  0  0  0  0  0  0  0
  128.5295   51.6625   31.6884 C   0  0  0  0  0  0  0  0  0  0  0  0
  135.0052   53.8696   32.6503 C   0  0  0  0  0  0  0  0  0  0  0  0
  130.4999   52.3817   32.7827 N   0  0  0  0  0  0  0  0  0  0  0  0
  131.7045   52.3722   32.6129 C   0  0  0  0  0  0  0  0  0  0  0  0
  135.3087   55.0350   32.0693 N   0  0  0  0  0  0  0  0  0  0  0  0
  129.6702   51.2487   32.5200 C   0  0  0  0  0  0  0  0  0  0  0  0
  134.1537   55.5963   31.4364 C   0  0  0  0  0  0  0  0  0  0  0  0
  133.0748   54.6280   31.6430 C   0  0  0  0  0  0  0  0  0  0  0  0
  134.0795   51.9099   33.4012 N   0  0  0  0  0  0  0  0  0  0  0  0
  135.2974   52.6848   33.3384 C   0  0  0  0  0  0  0  0  0  0  0  0
  133.0237   52.5672   32.8741 C   0  0  0  0  0  0  0  0  0  0  0  0
  131.6969   54.3994   31.4492 C   0  0  0  0  0  0  0  0  0  0  0  0
  1  3  2  0
  1  4  1  0
  2  6  2  0
  2 12  1  0
  2 15  1  0
  3  8  1  0
  3 16  1  0
  4  5  1  0
  5 10  1  0
  6  9  1  0
  6 14  1  0
  7  8  1  0
  7 10  1  0
  8 15  1  0
  9 11  1  0
 11 12  1  0
 12 16  2  0
 13 14  1  0
 13 15  1  0
M  END
>  <ID>  (1) 
conformer_0

$$$$
