
     RDKit          3D

 18 20  0  0  0  0  0  0  0  0999 V2000
  130.6915   53.8844   31.1805 C   0  0  0  0  0  0  0  0  0  0  0  0
  133.4261   56.0547   28.6303 C   0  0  0  0  0  0  0  0  0  0  0  0
  128.6369   52.5801   31.1605 C   0  0  0  0  0  0  0  0  0  0  0  0
  132.5340   54.8993   30.8882 N   0  0  0  0  0  0  0  0  0  0  0  0
  130.4193   51.8607   32.3801 C   0  0  0  0  0  0  0  0  0  0  0  0
  132.4319   53.1123   32.6070 C   0  0  0  0  0  0  0  0  0  0  0  0
  129.4279   50.8849   32.6059 C   0  0  0  0  0  0  0  0  0  0  0  0
  133.7669   55.5249   31.0128 C   0  0  0  0  0  0  0  0  0  0  0  0
  132.8835   57.4148   28.2116 C   0  0  0  0  0  0  0  0  0  0  0  0
  134.0498   54.7066   33.3194 C   0  0  0  0  0  0  0  0  0  0  0  0
  134.6838   54.9969   31.9958 C   0  0  0  0  0  0  0  0  0  0  0  0
  128.2626   51.3157   31.8111 C   0  0  0  0  0  0  0  0  0  0  0  0
  134.2528   56.2571   29.8648 C   0  0  0  0  0  0  0  0  0  0  0  0
  131.6938   51.9634   32.8786 C   0  0  0  0  0  0  0  0  0  0  0  0
  133.6163   53.3259   33.4006 C   0  0  0  0  0  0  0  0  0  0  0  0
  131.9693   54.0104   31.6388 C   0  0  0  0  0  0  0  0  0  0  0  0
  135.3263   56.9001   29.9727 O   0  0  0  0  0  0  0  0  0  0  0  0
  129.8439   52.9809   31.7406 C   0  0  0  0  0  0  0  0  0  0  0  0
  1 16  2  0
  1 18  1  0
  2  9  1  0
  2 13  1  0
  3 12  1  0
  3 18  1  0
  4  8  2  0
  4 16  1  0
  5  7  1  0
  5 14  2  0
  5 18  1  0
  6 14  1  0
  6 15  1  0
  6 16  1  0
  7 12  1  0
  8 11  1  0
  8 13  1  0
 10 11  1  0
 10 15  1  0
 13 17  2  0
M  END
>  <ID>  (1) 
conformer_0

$$$$
