
     RDKit          3D

 25 29  0  0  0  0  0  0  0  0999 V2000
  137.1724   52.2327   33.0136 C   0  0  0  0  0  0  0  0  0  0  0  0
  130.0916   52.8263   32.2692 C   0  0  0  0  0  0  0  0  0  0  0  0
  128.3529   52.7860   30.5178 C   0  0  0  0  0  0  0  0  0  0  0  0
  132.0312   54.0253   31.6278 C   0  0  0  0  0  0  0  0  0  0  0  0
  133.9297   55.3879   31.1227 C   0  0  0  0  0  0  0  0  0  0  0  0
  137.9606   50.0126   32.5997 C   0  0  0  0  0  0  0  0  0  0  0  0
  132.7545   53.2435   32.4943 C   0  0  0  0  0  0  0  0  0  0  0  0
  132.2160   52.0632   32.9774 C   0  0  0  0  0  0  0  0  0  0  0  0
  129.9530   50.6250   32.6740 C   0  0  0  0  0  0  0  0  0  0  0  0
  136.6861   49.5488   32.8266 C   0  0  0  0  0  0  0  0  0  0  0  0
  128.5962   51.0869   32.2983 C   0  0  0  0  0  0  0  0  0  0  0  0
  135.3288   56.6244   29.6381 C   0  0  0  0  0  0  0  0  0  0  0  0
  133.0493   56.4517   29.2616 C   0  0  0  0  0  0  0  0  0  0  0  0
  135.6803   50.4122   33.1372 C   0  0  0  0  0  0  0  0  0  0  0  0
  128.6814   52.4861   31.9478 C   0  0  0  0  0  0  0  0  0  0  0  0
  134.1264   53.5528   32.5979 C   0  0  0  0  0  0  0  0  0  0  0  0
  135.9204   51.7583   33.2161 C   0  0  0  0  0  0  0  0  0  0  0  0
  134.6023   54.6305   31.9671 N   0  0  0  0  0  0  0  0  0  0  0  0
  138.2006   51.3720   32.6865 C   0  0  0  0  0  0  0  0  0  0  0  0
  134.8162   52.6821   33.4812 C   0  0  0  0  0  0  0  0  0  0  0  0
  134.1005   56.2435   30.1580 N   0  0  0  0  0  0  0  0  0  0  0  0
  132.0361   55.6368   29.8266 C   0  0  0  0  0  0  0  0  0  0  0  0
  132.6200   55.0315   30.8905 C   0  0  0  0  0  0  0  0  0  0  0  0
  130.6700   53.8431   31.4695 C   0  0  0  0  0  0  0  0  0  0  0  0
  130.8877   51.7342   32.6126 C   0  0  0  0  0  0  0  0  0  0  0  0
  1 17  2  0
  1 19  1  0
  2 15  1  0
  2 24  1  0
  2 25  1  0
  3 15  1  0
  4  7  1  0
  4 23  1  0
  4 24  2  0
  5 18  1  0
  5 21  1  0
  5 23  2  0
  6 10  1  0
  6 19  2  0
  7  8  2  0
  7 16  1  0
  8 25  1  0
  9 11  1  0
  9 25  1  0
 10 14  2  0
 11 15  1  0
 12 21  1  0
 13 21  1  0
 13 22  1  0
 14 17  1  0
 16 18  2  0
 16 20  1  0
 17 20  1  0
 22 23  1  0
M  END
>  <ID>  (1) 
conformer_0

$$$$
