
     RDKit          3D

 11 11  0  0  0  0  0  0  0  0999 V2000
  130.4952   53.6316   31.2466 C   0  0  0  0  0  0  0  0  0  0  0  0
  133.7999   54.9145   32.1553 O   0  0  0  0  0  0  0  0  0  0  0  0
  133.8206   52.5533   33.4636 N   0  0  0  0  0  0  0  0  0  0  0  0
  132.7155   54.1006   32.0376 C   0  0  0  0  0  0  0  0  0  0  0  0
  132.6926   52.9074   32.7340 C   0  0  0  0  0  0  0  0  0  0  0  0
  128.1861   52.0029   31.0784 C   0  0  0  0  0  0  0  0  0  0  0  0
  131.5702   52.0965   32.7174 C   0  0  0  0  0  0  0  0  0  0  0  0
  131.6136   54.4697   31.2664 C   0  0  0  0  0  0  0  0  0  0  0  0
  130.4508   52.4762   31.9703 C   0  0  0  0  0  0  0  0  0  0  0  0
  129.1814   50.5105   32.7608 C   0  0  0  0  0  0  0  0  0  0  0  0
  129.2696   51.7083   31.9628 N   0  0  0  0  0  0  0  0  0  0  0  0
  1  8  1  0
  1  9  2  0
  2  4  1  0
  3  5  1  0
  4  5  2  0
  4  8  1  0
  5  7  1  0
  6 11  1  0
  7  9  1  0
  9 11  1  0
 10 11  1  0
M  END
>  <ID>  (1) 
conformer_0

$$$$
