
     RDKit          3D

 21 22  0  0  0  0  0  0  0  0999 V2000
  128.2024   52.7130   29.0576 N   0  0  0  0  0  0  0  0  0  0  0  0
  133.7586   55.3386   31.8103 C   0  0  0  0  0  0  0  0  0  0  0  0
  130.5700   53.6660   31.5102 C   0  0  0  0  0  0  0  0  0  0  0  0
  129.9508   53.7662   30.3161 O   0  0  0  0  0  0  0  0  0  0  0  0
  136.7435   51.4608   32.4549 C   0  0  0  0  0  0  0  0  0  0  0  0
  134.9807   54.6782   31.9671 N   0  0  0  0  0  0  0  0  0  0  0  0
  137.3943   53.6794   31.8851 O   0  0  0  0  0  0  0  0  0  0  0  0
  132.5166   53.4390   32.5225 C   0  0  0  0  0  0  0  0  0  0  0  0
  134.9904   53.3585   32.5848 C   0  0  0  0  0  0  0  0  0  0  0  0
  131.3673   52.8093   32.8381 N   0  0  0  0  0  0  0  0  0  0  0  0
  136.4498   52.8983   32.5410 C   0  0  0  0  0  0  0  0  0  0  0  0
  136.3327   50.3991   33.3983 C   0  0  0  0  0  0  0  0  0  0  0  0
  132.4800   54.5718   31.6722 C   0  0  0  0  0  0  0  0  0  0  0  0
  128.8430   52.9519   30.2475 C   0  0  0  0  0  0  0  0  0  0  0  0
  134.3622   52.2571   33.2901 N   0  0  0  0  0  0  0  0  0  0  0  0
  133.7332   53.2018   33.1227 C   0  0  0  0  0  0  0  0  0  0  0  0
  136.2423   49.0355   32.5487 C   0  0  0  0  0  0  0  0  0  0  0  0
  137.7664   50.8710   31.5144 C   0  0  0  0  0  0  0  0  0  0  0  0
  136.2772   47.9281   33.5304 C   0  0  0  0  0  0  0  0  0  0  0  0
  128.9048   52.0516   31.4399 C   0  0  0  0  0  0  0  0  0  0  0  0
  130.2013   52.4840   32.1730 C   0  0  0  0  0  0  0  0  0  0  0  0
  1 14  1  0
  2  6  1  0
  2 13  1  0
  3  4  1  0
  3 21  1  0
  4 14  1  0
  5 11  1  0
  5 12  1  0
  5 18  1  0
  6  9  2  0
  7 11  1  0
  8 10  1  0
  8 13  1  0
  8 16  1  0
  9 11  1  0
  9 16  1  0
 10 21  1  0
 12 17  1  0
 14 20  1  0
 15 16  1  0
 17 19  1  0
 20 21  1  0
M  END
>  <ID>  (1) 
conformer_0

$$$$
