
     RDKit          3D

 16 18  0  0  0  0  0  0  0  0999 V2000
  130.5321   53.2970   31.4799 C   0  0  0  0  0  0  0  0  0  0  0  0
  136.3138   53.7745   32.2745 O   0  0  0  0  0  0  0  0  0  0  0  0
  134.1217   54.4938   31.6701 C   0  0  0  0  0  0  0  0  0  0  0  0
  132.5248   52.9515   32.6672 C   0  0  0  0  0  0  0  0  0  0  0  0
  128.7618   53.5985   29.7525 C   0  0  0  0  0  0  0  0  0  0  0  0
  131.1514   52.5386   32.5240 C   0  0  0  0  0  0  0  0  0  0  0  0
  133.8915   52.6437   33.1384 C   0  0  0  0  0  0  0  0  0  0  0  0
  128.4382   52.0781   31.5862 C   0  0  0  0  0  0  0  0  0  0  0  0
  131.3842   54.8226   29.9058 O   0  0  0  0  0  0  0  0  0  0  0  0
  134.6688   55.1155   30.6833 O   0  0  0  0  0  0  0  0  0  0  0  0
  129.3481   52.9280   30.9402 N   0  0  0  0  0  0  0  0  0  0  0  0
  131.5192   54.1942   30.9443 C   0  0  0  0  0  0  0  0  0  0  0  0
  132.7106   54.2073   31.8054 C   0  0  0  0  0  0  0  0  0  0  0  0
  134.9435   53.5429   32.5020 C   0  0  0  0  0  0  0  0  0  0  0  0
  130.4534   51.3783   32.7806 C   0  0  0  0  0  0  0  0  0  0  0  0
  129.1301   51.1272   32.3869 C   0  0  0  0  0  0  0  0  0  0  0  0
  1  6  1  0
  1 11  1  0
  1 12  1  0
  2 14  1  0
  3 10  1  0
  3 13  1  0
  3 14  1  0
  4  6  1  0
  4  7  1  0
  4 13  1  0
  5 11  1  0
  6 15  1  0
  7 14  1  0
  8 11  1  0
  8 16  1  0
  9 12  2  0
 12 13  1  0
 15 16  2  0
M  END
>  <ID>  (1) 
conformer_0

$$$$
