
     RDKit          3D

 10 10  0  0  0  0  0  0  0  0999 V2000
  129.6886   50.7762   32.8202 N   0  0  0  0  0  0  0  0  0  0  0  0
  131.3784   53.7865   31.5077 C   0  0  0  0  0  0  0  0  0  0  0  0
  132.1355   52.2942   32.9527 C   0  0  0  0  0  0  0  0  0  0  0  0
  132.7579   54.1092   31.7557 N   0  0  0  0  0  0  0  0  0  0  0  0
  134.9337   55.0744   31.1881 N   0  0  0  0  0  0  0  0  0  0  0  0
  133.1982   53.1964   32.6945 C   0  0  0  0  0  0  0  0  0  0  0  0
  129.7986   51.8777   32.0935 C   0  0  0  0  0  0  0  0  0  0  0  0
  133.5222   55.1463   31.1948 C   0  0  0  0  0  0  0  0  0  0  0  0
  128.8079   52.2097   31.3013 N   0  0  0  0  0  0  0  0  0  0  0  0
  131.0234   52.6455   32.1660 C   0  0  0  0  0  0  0  0  0  0  0  0
  1  7  2  0
  2  4  1  0
  2 10  1  0
  3  6  1  0
  3 10  1  0
  4  6  1  0
  4  8  1  0
  5  8  1  0
  7  9  1  0
  7 10  1  0
M  END
>  <ID>  (1) 
conformer_0

$$$$
