
     RDKit          3D

 23 25  0  0  0  0  0  0  0  0999 V2000
  133.1394   53.5385   32.9830 C   0  0  0  0  0  0  0  0  0  0  0  0
  128.3518   51.6256   30.7500 N   0  0  0  0  0  0  0  0  0  0  0  0
  133.7448   55.6659   28.7947 C   0  0  0  0  0  0  0  0  0  0  0  0
  133.0075   55.0151   31.0580 C   0  0  0  0  0  0  0  0  0  0  0  0
  128.3252   52.4930   29.6605 N   0  0  0  0  0  0  0  0  0  0  0  0
  134.0890   57.2106   30.5661 C   0  0  0  0  0  0  0  0  0  0  0  0
  134.5434   58.1667   29.6886 C   0  0  0  0  0  0  0  0  0  0  0  0
  131.2355   53.4923   31.5036 C   0  0  0  0  0  0  0  0  0  0  0  0
  128.7570   50.3484   33.1316 C   0  0  0  0  0  0  0  0  0  0  0  0
  134.7460   55.2556   32.6929 O   0  0  0  0  0  0  0  0  0  0  0  0
  130.0202   51.1558   32.7072 C   0  0  0  0  0  0  0  0  0  0  0  0
  126.9332   51.0721   28.1192 C   0  0  0  0  0  0  0  0  0  0  0  0
  131.8033   54.5029   30.7780 C   0  0  0  0  0  0  0  0  0  0  0  0
  129.4049   51.9257   31.5410 C   0  0  0  0  0  0  0  0  0  0  0  0
  129.2720   53.4192   29.8922 C   0  0  0  0  0  0  0  0  0  0  0  0
  134.2156   56.5854   27.9282 N   0  0  0  0  0  0  0  0  0  0  0  0
  131.9008   52.9890   32.6046 C   0  0  0  0  0  0  0  0  0  0  0  0
  129.9986   53.0088   31.0156 C   0  0  0  0  0  0  0  0  0  0  0  0
  128.9350   49.1288   32.2229 F   0  0  0  0  0  0  0  0  0  0  0  0
  127.4714   52.4207   28.4625 C   0  0  0  0  0  0  0  0  0  0  0  0
  133.6616   54.6121   32.2488 C   0  0  0  0  0  0  0  0  0  0  0  0
  133.6492   55.9766   30.1485 C   0  0  0  0  0  0  0  0  0  0  0  0
  134.5940   57.8493   28.3483 C   0  0  0  0  0  0  0  0  0  0  0  0
  1 17  2  0
  1 21  1  0
  2  5  1  0
  2 14  1  0
  3 16  2  0
  3 22  1  0
  4 13  1  0
  4 21  2  0
  4 22  1  0
  5 15  1  0
  5 20  1  0
  6  7  1  0
  6 22  2  0
  7 23  2  0
  8 13  2  0
  8 17  1  0
  8 18  1  0
  9 11  1  0
  9 19  1  0
 10 21  1  0
 11 14  1  0
 12 20  1  0
 14 18  2  0
 15 18  1  0
 16 23  1  0
M  END
>  <ID>  (1) 
conformer_0

$$$$
