
     RDKit          3D

 22 23  0  0  0  0  0  0  0  0999 V2000
  132.1052   52.8822   32.8016 C   0  0  0  0  0  0  0  0  0  0  0  0
  134.6796   57.1665   30.3317 O   0  0  0  0  0  0  0  0  0  0  0  0
  131.8650   53.9509   31.9840 C   0  0  0  0  0  0  0  0  0  0  0  0
  129.1589   50.7501   32.5397 C   0  0  0  0  0  0  0  0  0  0  0  0
  130.1246   51.8069   32.2122 C   0  0  0  0  0  0  0  0  0  0  0  0
  133.1399   52.8548   33.5895 O   0  0  0  0  0  0  0  0  0  0  0  0
  136.0522   52.6484   32.8424 C   0  0  0  0  0  0  0  0  0  0  0  0
  133.5838   56.8762   32.7047 O   0  0  0  0  0  0  0  0  0  0  0  0
  137.5575   52.8325   32.7354 N   0  0  0  0  0  0  0  0  0  0  0  0
  128.7282   52.8804   30.5880 O   0  0  0  0  0  0  0  0  0  0  0  0
  132.7325   54.9870   32.0859 O   0  0  0  0  0  0  0  0  0  0  0  0
  135.5338   53.8571   32.0952 C   0  0  0  0  0  0  0  0  0  0  0  0
  139.1511   51.0743   33.0306 C   0  0  0  0  0  0  0  0  0  0  0  0
  130.7571   53.9531   31.2008 C   0  0  0  0  0  0  0  0  0  0  0  0
  135.0697   54.9754   32.7290 O   0  0  0  0  0  0  0  0  0  0  0  0
  135.2695   54.8483   29.8897 C   0  0  0  0  0  0  0  0  0  0  0  0
  129.8776   52.8518   31.3162 N   0  0  0  0  0  0  0  0  0  0  0  0
  136.2092   53.9580   30.7647 C   0  0  0  0  0  0  0  0  0  0  0  0
  131.2911   51.8158   32.8889 C   0  0  0  0  0  0  0  0  0  0  0  0
  133.8952   55.6555   32.0882 C   0  0  0  0  0  0  0  0  0  0  0  0
  134.4123   55.8370   30.6175 C   0  0  0  0  0  0  0  0  0  0  0  0
  138.1982   51.7389   32.0544 C   0  0  0  0  0  0  0  0  0  0  0  0
  1  3  1  0
  1  6  1  0
  1 19  2  0
  2 21  1  0
  3 11  1  0
  3 14  2  0
  4  5  1  0
  5 17  1  0
  5 19  1  0
  7  9  1  0
  7 12  1  0
  8 20  1  0
  9 22  1  0
 10 17  1  0
 11 20  1  0
 12 15  1  0
 12 18  1  0
 13 22  1  0
 14 17  1  0
 15 20  1  0
 16 18  1  0
 16 21  1  0
 20 21  1  0
M  END
>  <ID>  (1) 
conformer_0

$$$$
