
     RDKit          3D

 27 30  0  0  0  0  0  0  0  0999 V2000
  132.5006   51.9651   33.2821 C   0  0  0  0  0  0  0  0  0  0  0  0
  129.1295   51.3875   32.0322 C   0  0  0  0  0  0  0  0  0  0  0  0
  133.3576   53.0396   33.4988 C   0  0  0  0  0  0  0  0  0  0  0  0
  136.2468   54.5746   25.6870 O   0  0  0  0  0  0  0  0  0  0  0  0
  132.8620   57.2877   29.6799 C   0  0  0  0  0  0  0  0  0  0  0  0
  128.9401   52.5250   31.2958 C   0  0  0  0  0  0  0  0  0  0  0  0
  131.3028   52.1678   32.5722 C   0  0  0  0  0  0  0  0  0  0  0  0
  133.7279   57.1273   28.5213 C   0  0  0  0  0  0  0  0  0  0  0  0
  134.6372   55.7997   33.9096 C   0  0  0  0  0  0  0  0  0  0  0  0
  133.6534   57.2915   30.9398 C   0  0  0  0  0  0  0  0  0  0  0  0
  129.9283   53.4770   31.1656 C   0  0  0  0  0  0  0  0  0  0  0  0
  136.3488   56.2888   24.0400 C   0  0  0  0  0  0  0  0  0  0  0  0
  134.3155   57.2158   34.0290 O   0  0  0  0  0  0  0  0  0  0  0  0
  136.5936   56.0389   25.6312 C   0  0  0  0  0  0  0  0  0  0  0  0
  134.0649   55.2905   32.5823 C   0  0  0  0  0  0  0  0  0  0  0  0
  135.0384   57.0756   24.3904 C   0  0  0  0  0  0  0  0  0  0  0  0
  132.3810   55.2738   31.0291 O   0  0  0  0  0  0  0  0  0  0  0  0
  134.6733   57.9718   31.2718 O   0  0  0  0  0  0  0  0  0  0  0  0
  130.3124   51.1717   32.6904 C   0  0  0  0  0  0  0  0  0  0  0  0
  133.5678   55.9094   27.7329 C   0  0  0  0  0  0  0  0  0  0  0  0
  133.2610   56.1623   31.7311 C   0  0  0  0  0  0  0  0  0  0  0  0
  131.1150   53.2984   31.7994 C   0  0  0  0  0  0  0  0  0  0  0  0
  133.1100   54.1771   32.7863 N   0  0  0  0  0  0  0  0  0  0  0  0
  132.1740   54.1968   31.7772 C   0  0  0  0  0  0  0  0  0  0  0  0
  134.2240   55.9134   26.4079 C   0  0  0  0  0  0  0  0  0  0  0  0
  134.8657   57.8013   28.4699 O   0  0  0  0  0  0  0  0  0  0  0  0
  135.2903   56.8386   26.0350 N   0  0  0  0  0  0  0  0  0  0  0  0
  1  3  2  0
  1  7  1  0
  2  6  1  0
  2 19  2  0
  3 23  1  0
  4 14  1  0
  5  8  1  0
  5 10  1  0
  6 11  1  0
  7 19  1  0
  7 22  1  0
  8 20  1  0
  8 26  1  0
  9 13  1  0
  9 15  1  0
 10 18  2  0
 10 21  1  0
 11 22  2  0
 12 14  1  0
 12 16  1  0
 14 27  1  0
 15 21  1  0
 15 23  1  0
 16 27  1  0
 17 21  1  0
 17 24  1  0
 20 25  1  0
 22 24  1  0
 23 24  1  0
 25 27  1  0
M  END
>  <ID>  (1) 
conformer_0

$$$$
