
     RDKit          3D

 19 21  0  0  0  0  0  0  0  0999 V2000
  133.3489   52.9891   33.7769 O   0  0  0  0  0  0  0  0  0  0  0  0
  135.0746   55.5058   30.9101 N   0  0  0  0  0  0  0  0  0  0  0  0
  133.9799   55.4843   30.0623 C   0  0  0  0  0  0  0  0  0  0  0  0
  135.5485   57.4928   28.8934 F   0  0  0  0  0  0  0  0  0  0  0  0
  131.5036   52.9266   32.2775 C   0  0  0  0  0  0  0  0  0  0  0  0
  130.9578   53.6204   31.2147 C   0  0  0  0  0  0  0  0  0  0  0  0
  128.1729   51.5065   31.5526 O   0  0  0  0  0  0  0  0  0  0  0  0
  131.6429   54.5519   30.4281 S   0  0  0  0  0  0  0  0  0  0  0  0
  129.0680   53.3039   29.8666 O   0  0  0  0  0  0  0  0  0  0  0  0
  133.8779   55.8099   28.5560 C   0  0  0  0  0  0  0  0  0  0  0  0
  129.6055   53.2023   30.9698 C   0  0  0  0  0  0  0  0  0  0  0  0
  129.3346   52.1875   31.9164 N   0  0  0  0  0  0  0  0  0  0  0  0
  135.2741   56.2813   28.1284 C   0  0  0  0  0  0  0  0  0  0  0  0
  132.8253   53.3996   32.6838 C   0  0  0  0  0  0  0  0  0  0  0  0
  133.5700   54.2979   31.8714 C   0  0  0  0  0  0  0  0  0  0  0  0
  130.6044   51.8212   32.6984 C   0  0  0  0  0  0  0  0  0  0  0  0
  133.0170   54.7854   30.7114 C   0  0  0  0  0  0  0  0  0  0  0  0
  134.8065   54.7701   32.0284 N   0  0  0  0  0  0  0  0  0  0  0  0
  129.9390   50.3948   32.8034 C   0  0  0  0  0  0  0  0  0  0  0  0
  1 14  2  0
  2  3  1  0
  2 18  1  0
  3 10  1  0
  3 17  1  0
  4 13  1  0
  5  6  2  0
  5 14  1  0
  5 16  1  0
  6  8  1  0
  6 11  1  0
  7 12  1  0
  8 17  1  0
  9 11  2  0
 10 13  1  0
 11 12  1  0
 12 16  1  0
 14 15  1  0
 15 17  2  0
 15 18  1  0
 16 19  1  0
M  END
>  <ID>  (1) 
conformer_0

$$$$
