
     RDKit          3D

 14 16  0  0  0  0  0  0  0  0999 V2000
  134.3012   54.7299   31.4249 C   0  0  0  0  0  0  0  0  0  0  0  0
  129.7694   51.0282   32.4602 C   0  0  0  0  0  0  0  0  0  0  0  0
  131.3694   52.9033   32.4324 C   0  0  0  0  0  0  0  0  0  0  0  0
  130.7973   53.6254   31.3743 C   0  0  0  0  0  0  0  0  0  0  0  0
  132.7703   53.2417   32.4427 C   0  0  0  0  0  0  0  0  0  0  0  0
  129.5699   53.6615   30.5841 C   0  0  0  0  0  0  0  0  0  0  0  0
  128.8139   52.4584   30.6958 N   0  0  0  0  0  0  0  0  0  0  0  0
  135.2838   54.2186   32.1734 N   0  0  0  0  0  0  0  0  0  0  0  0
  131.1043   51.5798   32.8679 C   0  0  0  0  0  0  0  0  0  0  0  0
  128.7698   52.0323   32.0674 C   0  0  0  0  0  0  0  0  0  0  0  0
  133.7381   52.7117   33.1624 N   0  0  0  0  0  0  0  0  0  0  0  0
  134.9883   53.2109   33.0324 C   0  0  0  0  0  0  0  0  0  0  0  0
  133.0268   54.2440   31.5476 C   0  0  0  0  0  0  0  0  0  0  0  0
  131.7877   54.5953   30.9048 C   0  0  0  0  0  0  0  0  0  0  0  0
  1  8  2  0
  1 13  1  0
  2  9  1  0
  2 10  1  0
  3  4  1  0
  3  5  1  0
  3  9  1  0
  4  6  1  0
  4 14  1  0
  5 11  2  0
  5 13  1  0
  6  7  1  0
  7 10  1  0
  8 12  1  0
 11 12  1  0
 13 14  1  0
M  END
>  <ID>  (1) 
conformer_0

$$$$
