
     RDKit          3D

 15 17  0  0  0  0  0  0  0  0999 V2000
  129.5383   51.7878   32.1401 C   0  0  0  0  0  0  0  0  0  0  0  0
  133.5029   52.7571   33.2081 C   0  0  0  0  0  0  0  0  0  0  0  0
  131.3165   53.2368   32.1612 C   0  0  0  0  0  0  0  0  0  0  0  0
  132.6677   53.5092   32.4021 C   0  0  0  0  0  0  0  0  0  0  0  0
  133.1006   54.3959   31.4659 C   0  0  0  0  0  0  0  0  0  0  0  0
  134.4727   54.6789   31.4489 N   0  0  0  0  0  0  0  0  0  0  0  0
  129.0445   50.4648   32.8382 Cl  0  0  0  0  0  0  0  0  0  0  0  0
  135.4178   54.0283   32.2258 C   0  0  0  0  0  0  0  0  0  0  0  0
  136.7249   54.0728   31.9447 O   0  0  0  0  0  0  0  0  0  0  0  0
  131.9749   54.7238   30.6817 N   0  0  0  0  0  0  0  0  0  0  0  0
  134.9200   52.9271   33.0362 C   0  0  0  0  0  0  0  0  0  0  0  0
  129.6529   53.4794   30.5278 N   0  0  0  0  0  0  0  0  0  0  0  0
  130.8737   53.8839   31.0194 C   0  0  0  0  0  0  0  0  0  0  0  0
  130.5631   52.4138   32.7948 N   0  0  0  0  0  0  0  0  0  0  0  0
  128.9294   52.4755   31.0839 C   0  0  0  0  0  0  0  0  0  0  0  0
  1  7  1  0
  1 14  1  0
  1 15  1  0
  2  4  1  0
  2 11  2  0
  3  4  1  0
  3 13  2  0
  3 14  1  0
  4  5  2  0
  5  6  1  0
  5 10  1  0
  6  8  1  0
  8  9  2  0
  8 11  1  0
 10 13  1  0
 12 13  1  0
 12 15  2  0
M  END
>  <ID>  (1) 
conformer_0

$$$$
