
     RDKit          3D

 11 12  0  0  0  0  0  0  0  0999 V2000
  130.4781   53.0662   31.6529 N   0  0  0  0  0  0  0  0  0  0  0  0
  129.1966   51.3407   32.1899 C   0  0  0  0  0  0  0  0  0  0  0  0
  131.0173   54.2678   31.1254 C   0  0  0  0  0  0  0  0  0  0  0  0
  134.6768   51.8074   33.1685 O   0  0  0  0  0  0  0  0  0  0  0  0
  132.6878   52.9981   32.5949 C   0  0  0  0  0  0  0  0  0  0  0  0
  129.2361   52.5199   31.5074 C   0  0  0  0  0  0  0  0  0  0  0  0
  130.4853   51.1720   32.7893 C   0  0  0  0  0  0  0  0  0  0  0  0
  134.8784   53.9442   32.7145 O   0  0  0  0  0  0  0  0  0  0  0  0
  131.3462   52.2987   32.4590 C   0  0  0  0  0  0  0  0  0  0  0  0
  132.4870   54.3519   31.6830 C   0  0  0  0  0  0  0  0  0  0  0  0
  134.1466   52.9049   32.9476 C   0  0  0  0  0  0  0  0  0  0  0  0
  1  3  1  0
  1  6  1  0
  1  9  1  0
  2  6  1  0
  2  7  1  0
  3 10  1  0
  4 11  2  0
  5  9  1  0
  5 10  1  0
  5 11  1  0
  7  9  1  0
  8 11  1  0
M  END
>  <ID>  (1) 
conformer_0

$$$$
