
     RDKit          3D

 21 23  0  0  0  0  0  0  0  0999 V2000
  130.6495   51.1021   32.7446 C   0  0  0  0  0  0  0  0  0  0  0  0
  132.9138   53.0217   32.3844 N   0  0  0  0  0  0  0  0  0  0  0  0
  135.2966   54.6993   30.6370 C   0  0  0  0  0  0  0  0  0  0  0  0
  134.4164   58.1427   29.9820 C   0  0  0  0  0  0  0  0  0  0  0  0
  136.2053   54.7965   27.7172 C   0  0  0  0  0  0  0  0  0  0  0  0
  135.7326   55.9078   28.4859 O   0  0  0  0  0  0  0  0  0  0  0  0
  134.1607   54.1674   33.8709 O   0  0  0  0  0  0  0  0  0  0  0  0
  134.5084   56.8288   30.3950 C   0  0  0  0  0  0  0  0  0  0  0  0
  135.2757   55.7989   29.7623 C   0  0  0  0  0  0  0  0  0  0  0  0
  129.3705   52.6818   31.6399 C   0  0  0  0  0  0  0  0  0  0  0  0
  129.2736   50.5793   32.6138 C   0  0  0  0  0  0  0  0  0  0  0  0
  130.6301   52.3662   32.1676 C   0  0  0  0  0  0  0  0  0  0  0  0
  136.2093   53.5717   30.6252 C   0  0  0  0  0  0  0  0  0  0  0  0
  131.3268   54.6305   31.6304 C   0  0  0  0  0  0  0  0  0  0  0  0
  128.5601   51.5494   31.7892 C   0  0  0  0  0  0  0  0  0  0  0  0
  131.5934   53.3774   32.2664 C   0  0  0  0  0  0  0  0  0  0  0  0
  130.4842   54.5291   30.5056 C   0  0  0  0  0  0  0  0  0  0  0  0
  133.9345   56.2683   31.5454 C   0  0  0  0  0  0  0  0  0  0  0  0
  134.3445   54.9246   31.6727 C   0  0  0  0  0  0  0  0  0  0  0  0
  129.3317   53.6843   30.6852 C   0  0  0  0  0  0  0  0  0  0  0  0
  133.8498   53.9903   32.6769 C   0  0  0  0  0  0  0  0  0  0  0  0
  1 11  1  0
  1 12  1  0
  2 16  1  0
  2 21  1  0
  3  9  1  0
  3 13  1  0
  3 19  1  0
  4  8  1  0
  5  6  1  0
  6  9  1  0
  7 21  2  0
  8  9  1  0
  8 18  1  0
 10 12  1  0
 10 15  1  0
 10 20  2  0
 11 15  1  0
 12 16  1  0
 14 16  1  0
 14 17  1  0
 17 20  1  0
 18 19  1  0
 19 21  1  0
M  END
>  <ID>  (1) 
conformer_0

$$$$
