
     RDKit          3D

 33 35  0  0  0  0  0  0  0  0999 V2000
  126.8385   51.9549   27.7559 F   0  0  0  0  0  0  0  0  0  0  0  0
  134.3660   53.3531   32.8989 C   0  0  0  0  0  0  0  0  0  0  0  0
  134.9946   55.9570   29.5783 C   0  0  0  0  0  0  0  0  0  0  0  0
  128.9529   50.6136   32.1706 C   0  0  0  0  0  0  0  0  0  0  0  0
  127.5898   51.8402   28.8534 C   0  0  0  0  0  0  0  0  0  0  0  0
  135.6961   53.4692   32.3059 C   0  0  0  0  0  0  0  0  0  0  0  0
  135.7823   46.8962   32.7467 C   0  0  0  0  0  0  0  0  0  0  0  0
  134.8856   46.7412   31.3785 C   0  0  0  0  0  0  0  0  0  0  0  0
  139.7341   50.3943   32.8242 O   0  0  0  0  0  0  0  0  0  0  0  0
  138.0301   50.6985   34.4557 C   0  0  0  0  0  0  0  0  0  0  0  0
  131.8481   53.6312   32.5768 C   0  0  0  0  0  0  0  0  0  0  0  0
  138.1064   52.3389   32.5282 C   0  0  0  0  0  0  0  0  0  0  0  0
  130.0348   51.6614   32.5620 C   0  0  0  0  0  0  0  0  0  0  0  0
  132.4824   56.3111   30.0828 O   0  0  0  0  0  1  0  0  0  0  0  0
  134.0969   57.5169   31.4454 O   0  0  0  0  0  1  0  0  0  0  0  0
  130.7338   53.7904   31.5412 C   0  0  0  0  0  0  0  0  0  0  0  0
  136.0173   51.3349   33.2700 N   0  0  0  0  0  0  0  0  0  0  0  0
  138.9644   51.4161   33.4358 C   0  0  0  0  0  0  0  0  0  0  0  0
  136.6873   52.6071   32.9827 C   0  0  0  0  0  0  0  0  0  0  0  0
  136.8355   50.2179   33.6924 C   0  0  0  0  0  0  0  0  0  0  0  0
  135.6410   45.7501   32.0141 O   0  0  0  0  0  0  0  0  0  0  0  0
  136.8587   49.0674   32.7090 C   0  0  0  0  0  0  0  0  0  0  0  0
  133.5922   46.8256   31.9895 O   0  0  0  0  0  0  0  0  0  0  0  0
  135.5619   48.3599   32.8452 O   0  0  0  0  0  0  0  0  0  0  0  0
  129.7102   52.8215   31.6662 C   0  0  0  0  0  0  0  0  0  0  0  0
  134.1136   52.9771   34.0952 O   0  0  0  0  0  0  0  0  0  0  0  0
  133.7079   55.1836   31.7338 N   0  0  0  0  0  0  0  0  0  0  0  0
  128.4941   50.9694   30.7446 N   0  0  0  0  0  0  0  0  0  0  0  0
  133.2067   54.0117   32.2145 C   0  0  0  0  0  0  0  0  0  0  0  0
  128.3367   52.7863   29.4848 N   0  0  0  0  0  0  0  0  0  0  0  0
  127.7031   50.6638   29.6054 C   0  0  0  0  0  0  0  0  0  0  0  0
  128.8997   52.3061   30.5985 C   0  0  0  0  0  0  0  0  0  0  0  0
  133.7443   56.2905   30.7745 S   0  0  0  0  0  4  0  0  0  0  0  0
  1  5  1  0
  2  6  1  0
  2 26  2  0
  2 29  1  0
  3 33  1  0
  4 13  1  0
  4 28  1  0
  5 30  1  0
  5 31  1  0
  6 19  1  0
  7 21  1  0
  7 24  1  0
  8 21  1  0
  8 23  1  0
  9 18  1  0
 10 18  1  0
 10 20  1  0
 11 16  1  0
 11 29  1  0
 12 18  1  0
 12 19  1  0
 13 25  1  0
 14 33  1  0
 15 33  1  0
 16 25  1  0
 17 19  1  0
 17 20  1  0
 20 22  1  0
 22 24  1  0
 25 32  1  0
 27 29  1  0
 27 33  1  0
 28 31  1  0
 28 32  1  0
 30 32  2  0
M  END
>  <ID>  (1) 
conformer_0

$$$$
