
     RDKit          3D

 23 26  0  0  0  0  0  0  0  0999 V2000
  135.4445   53.9119   32.1167 N   0  0  0  0  0  0  0  0  0  0  0  0
  135.4116   49.8220   32.9519 O   0  0  0  0  0  0  0  0  0  0  0  0
  134.2384   52.1466   33.0431 N   0  0  0  0  0  0  0  0  0  0  0  0
  134.2827   55.5589   30.8566 C   0  0  0  0  0  0  0  0  0  0  0  0
  129.4266   53.0880   31.4352 C   0  0  0  0  0  0  0  0  0  0  0  0
  128.8473   52.9289   29.9658 C   0  0  0  0  0  0  0  0  0  0  0  0
  133.1296   53.7595   31.8476 C   0  0  0  0  0  0  0  0  0  0  0  0
  130.3657   51.2843   32.7250 C   0  0  0  0  0  0  0  0  0  0  0  0
  131.9023   54.1806   31.3812 C   0  0  0  0  0  0  0  0  0  0  0  0
  131.9232   55.2940   30.5994 N   0  0  0  0  0  0  0  0  0  0  0  0
  129.6123   53.3778   29.1012 O   0  0  0  0  0  0  0  0  0  0  0  0
  135.4092   52.7378   32.6978 C   0  0  0  0  0  0  0  0  0  0  0  0
  127.0686   50.6817   27.7250 O   0  0  0  0  0  0  0  0  0  0  0  0
  130.8027   53.4031   31.7636 N   0  0  0  0  0  0  0  0  0  0  0  0
  132.9941   52.6552   32.6378 C   0  0  0  0  0  0  0  0  0  0  0  0
  133.0697   55.9650   30.3340 N   0  0  0  0  0  0  0  0  0  0  0  0
  136.6251   52.0046   32.8967 N   0  0  0  0  0  0  0  0  0  0  0  0
  127.2221   51.8486   28.4654 C   0  0  0  0  0  0  0  0  0  0  0  0
  136.5783   50.5918   33.2095 C   0  0  0  0  0  0  0  0  0  0  0  0
  127.9457   51.9580   29.6774 O   0  0  0  0  0  0  0  0  0  0  0  0
  134.3008   54.3955   31.6138 C   0  0  0  0  0  0  0  0  0  0  0  0
  131.4544   52.3629   32.7242 C   0  0  0  0  0  0  0  0  0  0  0  0
  129.0339   51.7091   32.0288 C   0  0  0  0  0  0  0  0  0  0  0  0
  1 12  2  0
  1 21  1  0
  2 19  1  0
  3 12  1  0
  3 15  2  0
  4 16  1  0
  4 21  2  0
  5  6  1  0
  5 14  1  0
  5 23  1  0
  6 11  2  0
  6 20  1  0
  7  9  2  0
  7 15  1  0
  7 21  1  0
  8 22  1  0
  8 23  1  0
  9 10  1  0
  9 14  1  0
 10 16  2  0
 12 17  1  0
 13 18  1  0
 14 22  1  0
 15 22  1  0
 17 19  1  0
 18 20  1  0
M  END
>  <ID>  (1) 
conformer_0

$$$$
