
     RDKit          3D

 23 25  0  0  0  0  0  0  0  0999 V2000
  129.3669   53.0684   30.8153 O   0  0  0  0  0  0  0  0  0  0  0  0
  133.7404   55.6550   30.7269 C   0  0  0  0  0  0  0  0  0  0  0  0
  135.8212   52.4084   33.2187 C   0  0  0  0  0  0  0  0  0  0  0  0
  133.3300   52.3361   33.4097 N   0  0  0  0  0  0  0  0  0  0  0  0
  134.4997   52.8430   33.2334 C   0  0  0  0  0  0  0  0  0  0  0  0
  137.4400   50.4051   31.7316 C   0  0  0  0  0  0  0  0  0  0  0  0
  136.4747   47.8393   31.8757 C   0  0  0  0  0  0  0  0  0  0  0  0
  128.8981   50.9419   32.4958 C   0  0  0  0  0  0  0  0  0  0  0  0
  130.3931   53.2616   31.4280 C   0  0  0  0  0  0  0  0  0  0  0  0
  132.5886   53.8466   31.8050 C   0  0  0  0  0  0  0  0  0  0  0  0
  135.8724   48.8159   32.5547 N   0  0  0  0  0  0  0  0  0  0  0  0
  131.4277   54.0999   31.0489 C   0  0  0  0  0  0  0  0  0  0  0  0
  130.3836   51.0948   32.6838 C   0  0  0  0  0  0  0  0  0  0  0  0
  132.6231   55.8520   29.9481 C   0  0  0  0  0  0  0  0  0  0  0  0
  131.4628   55.1075   30.1123 C   0  0  0  0  0  0  0  0  0  0  0  0
  136.3562   50.0962   32.5028 C   0  0  0  0  0  0  0  0  0  0  0  0
  130.8746   52.4145   32.5230 N   0  0  0  0  0  0  0  0  0  0  0  0
  132.2595   52.7678   32.7292 C   0  0  0  0  0  0  0  0  0  0  0  0
  133.7138   54.6197   31.6313 C   0  0  0  0  0  0  0  0  0  0  0  0
  134.8261   56.5321   30.5669 C   0  0  0  0  0  0  0  0  0  0  0  0
  135.6763   51.0226   33.2788 N   0  0  0  0  0  0  0  0  0  0  0  0
  137.5713   48.0770   31.0969 C   0  0  0  0  0  0  0  0  0  0  0  0
  138.0122   49.4082   30.9921 C   0  0  0  0  0  0  0  0  0  0  0  0
  1  9  2  0
  2 14  1  0
  2 19  2  0
  2 20  1  0
  3  5  1  0
  3 21  1  0
  4  5  1  0
  4 18  2  3
  6 16  1  0
  6 23  2  0
  7 11  2  0
  7 22  1  0
  8 13  1  0
  9 12  1  0
  9 17  1  0
 10 12  1  0
 10 18  1  0
 10 19  1  0
 11 16  1  0
 12 15  2  0
 13 17  1  0
 14 15  1  0
 16 21  2  3
 17 18  1  0
 22 23  1  0
M  END
>  <ID>  (1) 
conformer_0

$$$$
