
     RDKit          3D

 20 22  0  0  0  0  0  0  0  0999 V2000
  130.6256   52.7047   32.0972 C   0  0  0  0  0  0  0  0  0  0  0  0
  129.5608   50.5317   32.7831 C   0  0  0  0  0  0  0  0  0  0  0  0
  134.4781   55.3868   29.0088 C   0  0  0  0  0  0  0  0  0  0  0  0
  133.3650   53.1890   32.9171 C   0  0  0  0  0  0  0  0  0  0  0  0
  135.7059   54.4523   28.5044 C   0  0  0  0  0  0  0  0  0  0  0  0
  132.7820   53.8053   31.8188 C   0  0  0  0  0  0  0  0  0  0  0  0
  131.3975   53.6296   31.4424 C   0  0  0  0  0  0  0  0  0  0  0  0
  133.1868   55.2215   29.8292 O   0  0  0  0  0  0  0  0  0  0  0  0
  133.5555   54.6277   31.0249 C   0  0  0  0  0  0  0  0  0  0  0  0
  134.7147   53.3868   33.1691 C   0  0  0  0  0  0  0  0  0  0  0  0
  130.8521   54.3788   30.4141 C   0  0  0  0  0  0  0  0  0  0  0  0
  129.3520   52.4472   31.6698 C   0  0  0  0  0  0  0  0  0  0  0  0
  135.3173   55.9635   30.3664 C   0  0  0  0  0  0  0  0  0  0  0  0
  135.4427   54.2499   32.3871 C   0  0  0  0  0  0  0  0  0  0  0  0
  129.5918   54.1076   29.9844 C   0  0  0  0  0  0  0  0  0  0  0  0
  136.6469   54.0134   29.2605 O   0  0  0  0  0  0  0  0  0  0  0  0
  128.8586   53.1447   30.5982 C   0  0  0  0  0  0  0  0  0  0  0  0
  128.6092   51.4931   32.3020 O   0  0  0  0  0  0  0  0  0  0  0  0
  135.5509   53.9855   27.3589 O   0  0  0  0  0  0  0  0  0  0  0  0
  134.8375   54.9285   31.3449 C   0  0  0  0  0  0  0  0  0  0  0  0
  1  7  2  0
  1 12  1  0
  2 18  1  0
  3  5  1  0
  3  8  1  0
  3 13  1  0
  4  6  1  0
  4 10  2  0
  5 16  2  0
  5 19  1  0
  6  7  1  0
  6  9  2  0
  7 11  1  0
  8  9  1  0
  9 20  1  0
 10 14  1  0
 11 15  2  0
 12 17  2  0
 12 18  1  0
 13 20  1  0
 14 20  2  0
 15 17  1  0
M  END
>  <ID>  (1) 
conformer_0

$$$$
