
     RDKit          3D

 27 29  0  0  0  0  0  0  0  0999 V2000
  132.1360   53.5046   32.0403 C   0  0  0  0  0  0  0  0  0  0  0  0
  133.3583   53.8173   32.5069 N   0  0  0  0  0  0  0  0  0  0  0  0
  129.5709   53.0264   31.1805 C   0  0  0  0  0  0  0  0  0  0  0  0
  131.4161   52.4536   32.5398 C   0  0  0  0  0  0  0  0  0  0  0  0
  132.8201   55.6289   26.2067 C   0  0  0  0  0  0  0  0  0  0  0  0
  133.6298   56.3850   27.0575 C   0  0  0  0  0  0  0  0  0  0  0  0
  136.7883   49.8011   32.9116 C   0  0  0  0  0  0  0  0  0  0  0  0
  135.2045   52.0693   33.1520 C   0  0  0  0  0  0  0  0  0  0  0  0
  135.6148   53.4496   32.9183 C   0  0  0  0  0  0  0  0  0  0  0  0
  135.6278   48.8969   32.7524 C   0  0  0  0  0  0  0  0  0  0  0  0
  134.8365   55.2689   31.7359 O   0  0  0  0  0  0  0  0  0  0  0  0
  137.4015   52.1454   32.7120 N   0  0  0  0  0  0  0  0  0  0  0  0
  133.4612   56.3724   28.4349 C   0  0  0  0  0  0  0  0  0  0  0  0
  136.9040   53.4055   32.5297 N   0  0  0  0  0  0  0  0  0  0  0  0
  136.7496   47.2372   31.3760 O   0  0  0  0  0  0  0  0  0  0  0  0
  135.9445   47.5358   32.2990 C   0  0  0  0  0  0  0  0  0  0  0  0
  135.2398   46.6379   32.8704 N   0  0  0  0  0  0  0  0  0  0  0  0
  132.5010   55.5377   29.0066 C   0  0  0  0  0  0  0  0  0  0  0  0
  129.4225   51.0377   32.6217 C   0  0  0  0  0  0  0  0  0  0  0  0
  131.8450   54.7899   26.7914 C   0  0  0  0  0  0  0  0  0  0  0  0
  130.2847   54.0637   30.6799 C   0  0  0  0  0  0  0  0  0  0  0  0
  132.3355   55.4400   30.4324 C   0  0  0  0  0  0  0  0  0  0  0  0
  136.3365   51.2393   32.8750 C   0  0  0  0  0  0  0  0  0  0  0  0
  134.5607   54.2543   32.3219 C   0  0  0  0  0  0  0  0  0  0  0  0
  131.5909   54.3333   31.0356 C   0  0  0  0  0  0  0  0  0  0  0  0
  130.1509   52.2014   32.1116 C   0  0  0  0  0  0  0  0  0  0  0  0
  131.7252   54.7480   28.1450 C   0  0  0  0  0  0  0  0  0  0  0  0
  1  2  1  0
  1  4  2  0
  1 25  1  0
  2 24  1  0
  3 21  2  0
  3 26  1  0
  4 26  1  0
  5  6  2  0
  5 20  1  0
  6 13  1  0
  7 10  1  0
  7 23  1  0
  8  9  1  0
  8 23  1  0
  9 14  1  0
  9 24  1  0
 10 16  1  0
 11 24  2  0
 12 14  1  0
 12 23  1  0
 13 18  2  0
 15 16  2  0
 16 17  1  0
 18 22  1  0
 18 27  1  0
 19 26  1  0
 20 27  2  0
 21 25  1  0
 22 25  1  0
M  END
>  <ID>  (1) 
conformer_0

$$$$
