
     RDKit          3D

 23 26  0  0  0  0  0  0  0  0999 V2000
  132.1682   54.4601   31.2357 C   0  0  0  0  0  0  0  0  0  0  0  0
  133.1647   53.5313   33.3075 C   0  0  0  0  0  0  0  0  0  0  0  0
  134.1922   53.0024   33.8881 O   0  0  0  0  0  0  0  0  0  0  0  0
  135.5480   55.8328   29.7239 N   0  0  0  0  0  0  0  0  0  0  0  0
  131.8401   53.1126   33.5634 N   0  0  0  0  0  0  0  0  0  0  0  0
  133.3762   55.3205   29.5031 C   0  0  0  0  0  0  0  0  0  0  0  0
  133.3926   55.7467   26.9461 C   0  0  0  0  0  0  0  0  0  0  0  0
  134.5773   56.1026   26.0722 C   0  0  0  0  0  0  0  0  0  0  0  0
  128.3675   52.8503   28.8874 O   0  0  0  0  0  0  0  0  0  0  0  0
  134.4106   54.7281   31.5939 C   0  0  0  0  0  0  0  0  0  0  0  0
  131.1737   52.2278   32.8006 C   0  0  0  0  0  0  0  0  0  0  0  0
  129.8852   52.4499   32.2024 C   0  0  0  0  0  0  0  0  0  0  0  0
  133.2312   54.2008   32.0322 C   0  0  0  0  0  0  0  0  0  0  0  0
  128.6144   52.7038   30.1201 C   0  0  0  0  0  0  0  0  0  0  0  0
  135.2220   56.0346   28.3892 N   0  0  0  0  0  0  0  0  0  0  0  0
  134.4777   55.2939   30.3458 C   0  0  0  0  0  0  0  0  0  0  0  0
  131.8109   51.1308   32.5502 F   0  0  0  0  0  0  0  0  0  0  0  0
  129.5620   53.4125   31.0273 C   0  0  0  0  0  0  0  0  0  0  0  0
  133.8102   55.7091   28.2577 C   0  0  0  0  0  0  0  0  0  0  0  0
  128.9969   51.2670   31.9883 C   0  0  0  0  0  0  0  0  0  0  0  0
  135.7195   56.3100   27.0501 C   0  0  0  0  0  0  0  0  0  0  0  0
  132.1483   55.0408   29.9933 N   0  0  0  0  0  0  0  0  0  0  0  0
  128.2849   51.4764   30.7206 N   0  0  0  0  0  0  0  0  0  0  0  0
  1 13  2  0
  1 22  1  0
  2  3  2  0
  2  5  1  0
  2 13  1  0
  4 15  1  0
  4 16  1  0
  5 11  1  0
  6 16  1  0
  6 19  1  0
  6 22  1  0
  7  8  1  0
  7 19  1  0
  8 21  1  0
  9 14  2  0
 10 13  1  0
 10 16  2  0
 11 12  1  0
 11 17  1  0
 12 18  1  0
 12 20  1  0
 14 18  1  0
 14 23  1  0
 15 19  1  0
 15 21  1  0
 20 23  1  0
M  END
>  <ID>  (1) 
conformer_0

$$$$
