
     RDKit          3D

 23 28  0  0  0  0  0  0  0  0999 V2000
  133.5470   55.4294   31.6047 C   0  0  0  0  0  0  0  0  0  0  0  0
  133.6135   53.2710   33.4722 O   0  0  0  0  0  0  0  0  0  0  0  0
  131.9691   54.3264   30.4291 C   0  0  0  0  0  0  0  0  0  0  0  0
  132.7653   56.0218   27.1824 C   0  0  0  0  0  0  0  0  0  0  0  0
  131.6363   52.3644   32.7321 C   0  0  0  0  0  0  0  0  0  0  0  0
  131.2128   54.4403   27.8095 C   0  0  0  0  0  0  0  0  0  0  0  0
  129.1410   53.0487   28.4621 C   0  0  0  0  0  0  0  0  0  0  0  0
  130.0047   52.9553   30.8738 C   0  0  0  0  0  0  0  0  0  0  0  0
  129.4398   51.3719   32.4692 C   0  0  0  0  0  0  0  0  0  0  0  0
  130.4130   53.6384   28.6437 C   0  0  0  0  0  0  0  0  0  0  0  0
  130.2483   52.6812   32.2666 C   0  0  0  0  0  0  0  0  0  0  0  0
  128.2449   51.6175   31.5377 C   0  0  0  0  0  0  0  0  0  0  0  0
  134.3500   55.7365   32.5690 O   0  0  0  0  0  0  0  0  0  0  0  0
  132.5683   53.4950   32.7672 C   0  0  0  0  0  0  0  0  0  0  0  0
  128.3238   52.3857   29.2061 O   0  0  0  0  0  0  0  0  0  0  0  0
  130.8775   53.5510   30.0079 C   0  0  0  0  0  0  0  0  0  0  0  0
  132.5465   55.2904   29.5802 C   0  0  0  0  0  0  0  0  0  0  0  0
  131.0676   54.5083   26.4647 C   0  0  0  0  0  0  0  0  0  0  0  0
  132.2126   55.2983   28.2492 C   0  0  0  0  0  0  0  0  0  0  0  0
  132.5565   54.3548   31.6619 C   0  0  0  0  0  0  0  0  0  0  0  0
  128.8056   52.4665   30.4250 C   0  0  0  0  0  0  0  0  0  0  0  0
  132.1065   55.5066   26.0120 C   0  0  0  0  0  0  0  0  0  0  0  0
  133.5170   56.0556   30.3377 C   0  0  0  0  0  0  0  0  0  0  0  0
  1 13  1  0
  1 20  2  0
  1 23  1  0
  2 14  2  0
  3 16  1  0
  3 17  2  0
  3 20  1  0
  4 19  1  0
  4 22  1  0
  5 11  1  0
  5 14  1  0
  6 10  1  0
  6 18  1  0
  6 19  2  0
  7 10  2  0
  7 15  1  0
  8 11  1  0
  8 16  1  0
  8 21  2  0
  9 11  1  0
  9 12  1  0
 10 16  1  0
 12 21  1  0
 14 20  1  0
 15 21  1  0
 17 19  1  0
 17 23  1  0
 18 22  1  0
M  END
>  <ID>  (1) 
conformer_0

$$$$
