
     RDKit          3D

 22 24  0  0  0  0  0  0  0  0999 V2000
  133.9615   54.0052   32.8969 C   0  0  0  0  0  0  0  0  0  0  0  0
  133.4349   56.7951   26.7047 C   0  0  0  0  0  0  0  0  0  0  0  0
  131.5297   53.4170   31.9943 C   0  0  0  0  0  0  0  0  0  0  0  0
  129.9442   51.5574   32.2552 C   0  0  0  0  0  0  0  0  0  0  0  0
  132.5105   56.3172   28.9664 C   0  0  0  0  0  0  0  0  0  0  0  0
  133.0643   54.8951   30.9717 C   0  0  0  0  0  0  0  0  0  0  0  0
  128.1143   51.4390   30.6624 O   0  0  0  0  0  0  0  0  0  0  0  0
  132.6184   57.9954   26.9087 O   0  0  0  0  0  0  0  0  0  0  0  0
  135.0804   54.9678   29.6261 C   0  0  0  0  0  0  0  0  0  0  0  0
  129.4632   53.3594   30.7927 C   0  0  0  0  0  0  0  0  0  0  0  0
  127.4073   51.8322   28.2050 N   0  0  0  0  0  0  0  0  0  0  0  0
  133.5493   56.1439   28.0562 C   0  0  0  0  0  0  0  0  0  0  0  0
  132.7687   54.1110   32.1486 N   0  0  0  0  0  0  0  0  0  0  0  0
  129.1426   52.1334   31.2460 C   0  0  0  0  0  0  0  0  0  0  0  0
  135.0125   54.4182   31.9986 N   0  0  0  0  0  0  0  0  0  0  0  0
  130.5878   53.9340   31.1726 C   0  0  0  0  0  0  0  0  0  0  0  0
  135.5270   54.7268   27.2355 C   0  0  0  0  0  0  0  0  0  0  0  0
  127.3354   51.5821   29.6226 C   0  0  0  0  0  0  0  0  0  0  0  0
  134.6738   55.3047   28.3619 C   0  0  0  0  0  0  0  0  0  0  0  0
  132.2866   55.6645   30.1279 C   0  0  0  0  0  0  0  0  0  0  0  0
  134.4386   54.8089   30.7905 C   0  0  0  0  0  0  0  0  0  0  0  0
  131.2032   52.2223   32.6184 C   0  0  0  0  0  0  0  0  0  0  0  0
  1 13  1  0
  1 15  1  0
  2  8  1  0
  2 12  1  0
  3 13  1  0
  3 16  1  0
  3 22  2  0
  4 14  2  0
  4 22  1  0
  5 12  2  0
  5 20  1  0
  6 13  1  0
  6 20  2  0
  6 21  1  0
  7 14  1  0
  7 18  1  0
  9 19  1  0
  9 21  2  0
 10 14  1  0
 10 16  2  0
 11 18  1  0
 12 19  1  0
 15 21  1  0
 17 19  1  0
M  END
>  <ID>  (1) 
conformer_0

$$$$
