
     RDKit          3D

 17 18  0  0  0  0  0  0  0  0999 V2000
  132.1999   53.6168   32.0854 N   0  0  0  0  0  0  0  0  0  0  0  0
  128.8125   52.7171   31.1574 C   0  0  0  0  0  0  0  0  0  0  0  0
  132.4710   55.7376   28.7030 C   0  0  0  0  0  0  0  0  0  0  0  0
  132.6427   55.3488   29.9981 C   0  0  0  0  0  0  0  0  0  0  0  0
  131.1070   52.9042   32.1127 C   0  0  0  0  0  0  0  0  0  0  0  0
  133.8793   55.2919   30.6048 C   0  0  0  0  0  0  0  0  0  0  0  0
  133.5961   56.1383   27.9794 C   0  0  0  0  0  0  0  0  0  0  0  0
  133.6420   53.2014   33.4172 N   0  0  0  0  0  0  0  0  0  0  0  0
  129.9408   53.5167   31.4327 C   0  0  0  0  0  0  0  0  0  0  0  0
  133.3279   53.9304   32.4209 C   0  0  0  0  0  0  0  0  0  0  0  0
  129.7561   50.9089   32.6319 C   0  0  0  0  0  0  0  0  0  0  0  0
  128.7050   51.4012   31.7615 C   0  0  0  0  0  0  0  0  0  0  0  0
  134.8606   56.1591   28.6015 C   0  0  0  0  0  0  0  0  0  0  0  0
  135.0038   55.7835   29.9077 C   0  0  0  0  0  0  0  0  0  0  0  0
  131.0562   51.5700   32.6448 C   0  0  0  0  0  0  0  0  0  0  0  0
  134.1374   54.7898   31.8272 N   0  0  0  0  0  0  0  0  0  0  0  0
  134.7173   52.9597   34.0367 C   0  0  0  0  0  0  0  0  0  0  0  0
  1  5  1  0
  1 10  1  0
  2  9  2  0
  2 12  1  0
  3  4  2  0
  3  7  1  0
  4  6  1  0
  5  9  1  0
  5 15  2  0
  6 14  2  0
  6 16  1  0
  7 13  2  0
  8 10  2  3
  8 17  1  0
 10 16  1  0
 11 12  1  0
 11 15  1  0
 13 14  1  0
M  END
>  <ID>  (1) 
conformer_0

$$$$
