
     RDKit          3D

 23 23  0  0  0  0  0  0  0  0999 V2000
  126.8413   50.7141   27.5749 C   0  0  0  0  0  0  0  0  0  0  0  0
  133.6618   51.9304   32.8165 O   0  0  0  0  0  0  0  0  0  0  0  0
  133.3789   55.9471   28.0163 C   0  0  0  0  0  0  0  0  0  0  0  0
  132.9693   55.0838   31.4610 C   0  0  0  0  0  0  0  0  0  0  0  0
  132.9910   56.4288   29.3413 O   0  0  0  0  0  0  0  0  0  0  0  0
  131.4134   53.2834   32.0188 C   0  0  0  0  0  0  0  0  0  0  0  0
  132.6940   53.9157   32.2144 N   0  0  0  0  0  0  0  0  0  0  0  0
  127.9282   51.3491   30.6084 C   0  0  0  0  0  0  0  0  0  0  0  0
  131.0280   52.0772   32.6383 C   0  0  0  0  0  0  0  0  0  0  0  0
  132.3163   55.3972   30.1422 C   0  0  0  0  0  0  0  0  0  0  0  0
  127.5919   52.1076   29.4758 N   0  0  0  0  0  0  0  0  0  0  0  0
  134.6513   53.8096   33.6481 O   0  0  0  0  0  0  0  0  0  0  0  0
  129.8143   51.4331   32.2836 C   0  0  0  0  0  0  0  0  0  0  0  0
  133.8316   55.9482   31.8807 O   0  0  0  0  0  0  0  0  0  0  0  0
  133.6164   53.1933   32.9446 C   0  0  0  0  0  0  0  0  0  0  0  0
  129.3770   53.2417   30.8035 C   0  0  0  0  0  0  0  0  0  0  0  0
  130.5038   53.8520   31.1853 C   0  0  0  0  0  0  0  0  0  0  0  0
  129.0364   52.0273   31.2484 C   0  0  0  0  0  0  0  0  0  0  0  0
  136.2921   51.3950   32.9695 C   0  0  0  0  0  0  0  0  0  0  0  0
  135.8330   52.7632   33.7130 N   0  0  0  0  0  0  0  0  0  0  0  0
  127.2610   52.1123   28.1471 C   0  0  0  0  0  0  0  0  0  0  0  0
  137.8563   51.4865   32.9748 C   0  0  0  0  0  0  0  0  0  0  0  0
  132.1402   55.5028   27.1404 C   0  0  0  0  0  0  0  0  0  0  0  0
  1 21  1  0
  2 15  2  0
  3  5  1  0
  3 23  1  0
  4  7  1  0
  4 10  1  0
  4 14  2  0
  5 10  1  0
  6  7  1  0
  6  9  2  0
  6 17  1  0
  7 15  1  0
  8 11  1  0
  8 18  1  0
  9 13  1  0
 11 21  1  0
 12 15  1  0
 12 20  1  0
 13 18  2  0
 16 17  2  0
 16 18  1  0
 19 20  1  0
 19 22  1  0
M  END
>  <ID>  (1) 
conformer_0

$$$$
