
     RDKit          3D

 18 20  0  0  0  0  0  0  0  0999 V2000
  129.3875   53.4258   31.6588 C   0  0  0  0  0  0  0  0  0  0  0  0
  128.8278   49.5807   32.6413 F   0  0  0  0  0  0  0  0  0  0  0  0
  133.8337   57.1184   29.7094 C   0  0  0  0  0  0  0  0  0  0  0  0
  128.9340   51.0823   32.4582 C   0  0  0  0  0  0  0  0  0  0  0  0
  131.7487   53.5301   32.0562 C   0  0  0  0  0  0  0  0  0  0  0  0
  128.6824   52.8727   29.4215 O   0  0  0  0  0  0  0  0  0  0  0  0
  130.5382   52.8761   32.3987 N   0  0  0  0  0  0  0  0  0  0  0  0
  132.9845   53.1544   32.5654 C   0  0  0  0  0  0  0  0  0  0  0  0
  132.7050   56.4040   30.0768 O   0  0  0  0  0  0  0  0  0  0  0  0
  134.1907   53.8223   32.1085 C   0  0  0  0  0  0  0  0  0  0  0  0
  128.7809   52.5331   30.6361 C   0  0  0  0  0  0  0  0  0  0  0  0
  134.9675   56.1129   29.3795 C   0  0  0  0  0  0  0  0  0  0  0  0
  128.5058   51.2727   31.0891 O   0  0  0  0  0  0  0  0  0  0  0  0
  134.0797   54.8227   31.1447 C   0  0  0  0  0  0  0  0  0  0  0  0
  130.4092   51.4517   32.5367 C   0  0  0  0  0  0  0  0  0  0  0  0
  132.8213   55.2679   30.7779 C   0  0  0  0  0  0  0  0  0  0  0  0
  131.6923   54.5954   31.2155 C   0  0  0  0  0  0  0  0  0  0  0  0
  135.1817   55.3686   30.5749 O   0  0  0  0  0  0  0  0  0  0  0  0
  1  7  1  0
  1 11  1  0
  2  4  1  0
  3  9  1  0
  3 12  1  0
  4 13  1  0
  4 15  1  0
  5  7  1  0
  5  8  2  0
  5 17  1  0
  6 11  2  0
  7 15  1  0
  8 10  1  0
  9 16  1  0
 10 14  2  0
 11 13  1  0
 12 18  1  0
 14 16  1  0
 14 18  1  0
 16 17  2  0
M  END
>  <ID>  (1) 
conformer_0

$$$$
