
     RDKit          3D

 10 10  0  0  0  0  0  0  0  0999 V2000
  130.5421   53.5330   31.4666 C   0  0  0  0  0  0  0  0  0  0  0  0
  129.9514   52.4916   32.1185 N   0  0  0  0  0  0  0  0  0  0  0  0
  132.1909   52.4323   32.7376 C   0  0  0  0  0  0  0  0  0  0  0  0
  133.9848   54.7530   32.0165 O   0  0  0  0  0  0  0  0  0  0  0  0
  132.5072   55.3450   30.3987 O   0  0  0  0  0  0  0  0  0  0  0  0
  132.8754   54.6420   31.4389 C   0  0  0  0  0  0  0  0  0  0  0  0
  128.7059   51.8376   31.8748 C   0  0  0  0  0  0  0  0  0  0  0  0
  129.9810   54.0310   30.4609 O   0  0  0  0  0  0  0  0  0  0  0  0
  130.9035   51.5525   32.7421 C   0  0  0  0  0  0  0  0  0  0  0  0
  131.8985   53.6778   31.9629 C   0  0  0  0  0  0  0  0  0  0  0  0
  1  2  1  0
  1  8  2  0
  1 10  1  0
  2  7  1  0
  2  9  1  0
  3  9  1  0
  3 10  1  0
  4  6  2  0
  5  6  1  0
  6 10  1  0
M  END
>  <ID>  (1) 
conformer_0

$$$$
