
     RDKit          3D

 18 20  0  0  0  0  0  0  0  0999 V2000
  136.3914   50.2584   32.6011 C   0  0  0  0  0  0  0  0  0  0  0  0
  132.8460   55.8329   30.0601 C   0  0  0  0  0  0  0  0  0  0  0  0
  131.7599   55.1034   30.3800 N   0  0  0  0  0  0  0  0  0  0  0  0
  131.8604   54.1241   31.2890 C   0  0  0  0  0  0  0  0  0  0  0  0
  130.2807   51.2463   32.6277 C   0  0  0  0  0  0  0  0  0  0  0  0
  134.1595   54.6419   31.5974 C   0  0  0  0  0  0  0  0  0  0  0  0
  134.0826   55.6603   30.6795 C   0  0  0  0  0  0  0  0  0  0  0  0
  135.7200   49.2147   32.8944 O   0  0  0  0  0  0  0  0  0  0  0  0
  137.1931   50.3222   31.6280 O   0  0  0  0  0  0  0  0  0  0  0  0
  133.9958   51.9539   32.8737 N   0  0  0  0  0  0  0  0  0  0  0  0
  133.0784   53.8568   31.8734 C   0  0  0  0  0  0  0  0  0  0  0  0
  129.5367   53.0966   31.2522 C   0  0  0  0  0  0  0  0  0  0  0  0
  131.4530   52.2676   32.6473 C   0  0  0  0  0  0  0  0  0  0  0  0
  130.8442   53.3370   31.7500 N   0  0  0  0  0  0  0  0  0  0  0  0
  136.2630   51.4817   33.5108 C   0  0  0  0  0  0  0  0  0  0  0  0
  129.0550   51.8208   31.8949 C   0  0  0  0  0  0  0  0  0  0  0  0
  135.2930   52.6153   33.0705 C   0  0  0  0  0  0  0  0  0  0  0  0
  132.8766   52.7229   32.7772 C   0  0  0  0  0  0  0  0  0  0  0  0
  1  8  2  0
  1  9  1  0
  1 15  1  0
  2  3  2  0
  2  7  1  0
  3  4  1  0
  4 11  2  0
  4 14  1  0
  5 13  1  0
  5 16  1  0
  6  7  2  0
  6 11  1  0
 10 17  1  0
 10 18  1  0
 11 18  1  0
 12 14  1  0
 12 16  1  0
 13 14  1  0
 13 18  1  0
 15 17  1  0
M  END
>  <ID>  (1) 
conformer_0

$$$$
