
     RDKit          3D

 22 22  0  0  0  0  0  0  0  0999 V2000
  135.6455   51.2966   32.6479 N   0  0  0  0  0  0  0  0  0  0  0  0
  128.1948   51.9302   31.0548 C   0  0  0  0  0  0  0  0  0  0  0  0
  133.4659   54.7473   32.1018 C   0  0  0  0  0  0  0  0  0  0  0  0
  129.4440   50.6315   32.7069 C   0  0  0  0  0  0  0  0  0  0  0  0
  132.3239   57.8215   29.7921 C   0  0  0  0  0  0  0  0  0  0  0  0
  133.1042   56.0598   28.3354 O   0  0  0  0  0  0  0  0  0  0  0  0
  134.3577   55.5939   31.6027 N   0  0  0  0  0  0  0  0  0  0  0  0
  133.0467   56.5621   29.6732 C   0  0  0  0  0  0  0  0  0  0  0  0
  134.7681   54.5012   31.8324 C   0  0  0  0  0  0  0  0  0  0  0  0
  135.3664   56.9404   30.0370 O   0  0  0  0  0  0  0  0  0  0  0  0
  133.4700   52.4621   32.9467 C   0  0  0  0  0  0  0  0  0  0  0  0
  134.3127   56.3782   30.4806 C   0  0  0  0  0  0  0  0  0  0  0  0
  134.9225   52.4288   33.2562 C   0  0  0  0  0  0  0  0  0  0  0  0
  132.7294   53.6948   32.8069 C   0  0  0  0  0  0  0  0  0  0  0  0
  135.0997   52.3479   34.6104 O   0  0  0  0  0  0  0  0  0  0  0  0
  129.1995   51.9551   32.1440 C   0  0  0  0  0  0  0  0  0  0  0  0
  130.4166   52.7616   31.8585 C   0  0  0  0  0  0  0  0  0  0  0  0
  129.8867   53.7989   30.8567 C   0  0  0  0  0  0  0  0  0  0  0  0
  135.5820   53.7368   32.7343 C   0  0  0  0  0  0  0  0  0  0  0  0
  131.2587   53.5005   32.8690 C   0  0  0  0  0  0  0  0  0  0  0  0
  132.7771   51.3187   32.6565 O   0  0  0  0  0  0  0  0  0  0  0  0
  130.8899   54.5100   30.2915 O   0  0  0  0  0  0  0  0  0  0  0  0
  1 13  1  0
  2 16  1  0
  3  9  1  0
  3 14  1  0
  4 16  1  0
  5  8  1  0
  6  8  1  0
  7  9  1  0
  7 12  1  0
  8 12  1  0
  9 19  1  0
 10 12  2  0
 11 13  1  0
 11 14  1  0
 11 21  1  0
 13 15  1  0
 13 19  1  0
 14 20  1  0
 16 17  1  0
 17 18  1  0
 17 20  1  0
 18 22  1  0
M  END
>  <ID>  (1) 
conformer_0

$$$$
