
     RDKit          3D

 17 18  0  0  0  0  0  0  0  0999 V2000
  134.1445   56.0753   30.7447 N   0  0  0  0  0  0  0  0  0  0  0  0
  134.0834   53.9429   31.5505 N   0  0  0  0  0  0  0  0  0  0  0  0
  131.0511   52.6976   32.4690 C   0  0  0  0  0  0  0  0  0  0  0  0
  136.7261   50.6959   32.9601 C   0  0  0  0  0  0  0  0  0  0  0  0
  134.8531   54.9545   31.0786 C   0  0  0  0  0  0  0  0  0  0  0  0
  128.5613   51.9936   31.5227 C   0  0  0  0  0  0  0  0  0  0  0  0
  130.4979   53.4959   31.4584 C   0  0  0  0  0  0  0  0  0  0  0  0
  132.7065   54.0738   31.8236 C   0  0  0  0  0  0  0  0  0  0  0  0
  129.2513   51.0853   32.4347 C   0  0  0  0  0  0  0  0  0  0  0  0
  136.2626   54.9967   30.7731 C   0  0  0  0  0  0  0  0  0  0  0  0
  136.2291   52.1805   33.0878 C   0  0  0  0  0  0  0  0  0  0  0  0
  131.5171   54.3793   31.0688 C   0  0  0  0  0  0  0  0  0  0  0  0
  130.6539   51.3715   32.6994 C   0  0  0  0  0  0  0  0  0  0  0  0
  132.2597   53.2121   32.8686 C   0  0  0  0  0  0  0  0  0  0  0  0
  137.0291   53.8262   31.2406 C   0  0  0  0  0  0  0  0  0  0  0  0
  136.1444   52.7801   31.7782 C   0  0  0  0  0  0  0  0  0  0  0  0
  129.2026   53.1831   31.0141 C   0  0  0  0  0  0  0  0  0  0  0  0
  1  5  2  0
  2  5  1  0
  2  8  1  0
  3  7  1  0
  3 13  1  0
  3 14  1  0
  4 11  1  0
  5 10  1  0
  6  9  2  0
  6 17  1  0
  7 12  1  0
  7 17  2  0
  8 12  1  0
  8 14  1  0
  9 13  1  0
 10 15  1  0
 11 16  1  0
 15 16  1  0
M  END
>  <ID>  (1) 
conformer_0

$$$$
