
     RDKit          3D

 27 31  0  0  0  0  0  0  0  0999 V2000
  129.8945   51.2454   32.5696 C   0  0  0  0  0  0  0  0  0  0  0  0
  135.5603   54.2947   32.0219 C   0  0  0  0  0  0  0  0  0  0  0  0
  127.1438   51.2192   28.9188 C   0  0  0  0  0  0  0  0  0  0  0  0
  133.2481   54.4031   31.4996 C   0  0  0  0  0  0  0  0  0  0  0  0
  128.8602   53.0839   29.7965 O   0  0  0  0  0  0  0  0  0  0  0  0
  133.1866   56.0575   29.8743 C   0  0  0  0  0  0  0  0  0  0  0  0
  127.7520   52.2679   29.7083 C   0  0  0  0  0  0  0  0  0  0  0  0
  126.8737   51.9167   27.6553 N   0  0  0  0  0  0  0  0  0  0  0  0
  133.9415   52.8046   33.0066 C   0  0  0  0  0  0  0  0  0  0  0  0
  129.1409   51.8088   31.6594 N   0  0  0  0  0  0  0  0  0  0  0  0
  131.1485   51.7556   32.8312 C   0  0  0  0  0  0  0  0  0  0  0  0
  133.9000   56.3288   26.2570 C   0  0  0  0  0  0  0  0  0  0  0  0
  129.3997   50.1719   33.1987 F   0  0  0  0  0  0  0  0  0  0  0  0
  132.3576   55.1710   30.7278 C   0  0  0  0  0  0  0  0  0  0  0  0
  132.8342   55.7049   25.7092 C   0  0  0  0  0  0  0  0  0  0  0  0
  131.9649   55.2284   27.8526 C   0  0  0  0  0  0  0  0  0  0  0  0
  129.5396   52.8361   30.9307 C   0  0  0  0  0  0  0  0  0  0  0  0
  130.9755   54.8220   30.7314 C   0  0  0  0  0  0  0  0  0  0  0  0
  131.8504   55.1257   26.5177 C   0  0  0  0  0  0  0  0  0  0  0  0
  133.0632   55.8908   28.4311 C   0  0  0  0  0  0  0  0  0  0  0  0
  131.5686   52.8789   32.1654 C   0  0  0  0  0  0  0  0  0  0  0  0
  134.5498   54.8664   31.3302 C   0  0  0  0  0  0  0  0  0  0  0  0
  135.2588   53.2838   32.8727 C   0  0  0  0  0  0  0  0  0  0  0  0
  132.9049   53.3445   32.2734 C   0  0  0  0  0  0  0  0  0  0  0  0
  134.0331   56.4100   27.6231 C   0  0  0  0  0  0  0  0  0  0  0  0
  134.5929   55.8538   30.3820 N   0  0  0  0  0  0  0  0  0  0  0  0
  130.7036   53.5351   31.2713 C   0  0  0  0  0  0  0  0  0  0  0  0
  1 10  2  0
  1 11  1  0
  1 13  1  0
  2 22  2  0
  2 23  1  0
  3  7  1  0
  3  8  1  0
  4 14  1  0
  4 22  1  0
  4 24  2  0
  5  7  1  0
  5 17  1  0
  6 14  1  0
  6 20  1  0
  6 26  1  0
  9 23  2  0
  9 24  1  0
 10 17  1  0
 11 21  2  0
 12 15  2  0
 12 25  1  0
 14 18  1  0
 15 19  1  0
 16 19  2  0
 16 20  1  0
 17 27  1  0
 18 27  1  0
 20 25  2  0
 21 24  1  0
 21 27  1  0
 22 26  1  0
M  END
>  <ID>  (1) 
conformer_0

$$$$
