
     RDKit          3D

 17 18  0  0  0  0  0  0  0  0999 V2000
  131.6485   52.9208   32.3364 C   0  0  0  0  0  0  0  0  0  0  0  0
  137.4839   53.6522   31.5173 O   0  0  0  0  0  0  0  0  0  0  0  0
  127.9270   52.1272   30.5940 C   0  0  0  0  0  0  0  0  0  0  0  0
  129.7158   53.5910   31.0360 C   0  0  0  0  0  0  0  0  0  0  0  0
  132.9501   53.0789   32.6828 N   0  0  0  0  0  0  0  0  0  0  0  0
  130.9190   51.7947   32.7798 C   0  0  0  0  0  0  0  0  0  0  0  0
  128.9592   50.5605   32.7431 O   0  0  0  0  0  0  0  0  0  0  0  0
  135.0625   53.8935   32.2365 N   0  0  0  0  0  0  0  0  0  0  0  0
  135.4849   53.0381   33.3573 C   0  0  0  0  0  0  0  0  0  0  0  0
  133.1506   54.9176   31.3062 N   0  0  0  0  0  0  0  0  0  0  0  0
  129.6524   51.5149   32.2080 C   0  0  0  0  0  0  0  0  0  0  0  0
  129.1263   52.3746   31.3069 N   0  0  0  0  0  0  0  0  0  0  0  0
  137.5135   52.4712   32.2171 C   0  0  0  0  0  0  0  0  0  0  0  0
  133.6958   53.9813   32.0982 C   0  0  0  0  0  0  0  0  0  0  0  0
  131.0706   53.8023   31.4381 C   0  0  0  0  0  0  0  0  0  0  0  0
  136.1844   51.8746   32.7617 C   0  0  0  0  0  0  0  0  0  0  0  0
  131.8571   54.8388   30.9601 C   0  0  0  0  0  0  0  0  0  0  0  0
  1  5  1  0
  1  6  1  0
  1 15  2  0
  2 13  1  0
  3 12  1  0
  4 12  1  0
  4 15  1  0
  5 14  2  0
  6 11  1  0
  7 11  2  0
  8  9  1  0
  8 14  1  0
  9 16  1  0
 10 14  1  0
 10 17  2  0
 11 12  1  0
 13 16  1  0
 15 17  1  0
M  END
>  <ID>  (1) 
conformer_0

$$$$
