
     RDKit          3D

 17 19  0  0  0  0  0  0  0  0999 V2000
  130.5985   53.9268   31.2373 C   0  0  0  0  0  0  0  0  0  0  0  0
  132.8265   53.1980   32.5291 C   0  0  0  0  0  0  0  0  0  0  0  0
  132.0639   53.9690   31.6008 C   0  0  0  0  0  0  0  0  0  0  0  0
  134.8486   54.3850   32.0724 C   0  0  0  0  0  0  0  0  0  0  0  0
  129.5419   52.9174   31.3920 C   0  0  0  0  0  0  0  0  0  0  0  0
  130.1551   51.7048   32.1243 C   0  0  0  0  0  0  0  0  0  0  0  0
  132.9230   56.8726   29.4423 C   0  0  0  0  0  0  0  0  0  0  0  0
  132.2619   55.8260   29.9665 C   0  0  0  0  0  0  0  0  0  0  0  0
  134.8212   56.3103   30.7127 N   0  0  0  0  0  0  0  0  0  0  0  0
  130.8620   52.1235   33.2884 N   0  0  0  0  0  0  0  0  0  0  0  0
  134.7845   58.3785   29.4168 C   0  0  0  0  0  0  0  0  0  0  0  0
  129.0898   50.6966   32.5300 C   0  0  0  0  0  0  0  0  0  0  0  0
  134.1684   53.4107   32.6851 C   0  0  0  0  0  0  0  0  0  0  0  0
  132.2281   52.1854   33.3869 C   0  0  0  0  0  0  0  0  0  0  0  0
  132.8123   54.9944   30.9286 C   0  0  0  0  0  0  0  0  0  0  0  0
  134.1492   55.2283   31.2251 C   0  0  0  0  0  0  0  0  0  0  0  0
  134.2073   57.1664   29.8631 C   0  0  0  0  0  0  0  0  0  0  0  0
  1  3  1  0
  1  5  1  0
  2  3  2  0
  2 13  1  0
  2 14  1  0
  3 15  1  0
  4 13  2  0
  4 16  1  0
  5  6  1  0
  6 10  1  0
  6 12  1  0
  7  8  1  0
  7 17  2  0
  8 15  2  0
  9 16  2  0
  9 17  1  0
 10 14  1  0
 11 17  1  0
 15 16  1  0
M  END
>  <ID>  (1) 
conformer_0

$$$$
