
     RDKit          3D

 19 22  0  0  0  0  0  0  0  0999 V2000
  136.3779   53.3978   31.9657 C   0  0  0  0  0  0  0  0  0  0  0  0
  129.6495   53.2918   31.1068 C   0  0  0  0  0  0  0  0  0  0  0  0
  132.7261   52.5330   33.1482 N   0  0  0  0  0  0  0  0  0  0  0  0
  137.4062   51.4794   33.6095 N   0  0  0  0  0  0  0  0  0  0  0  0
  138.1996   52.1659   32.7417 C   0  0  0  0  0  0  0  0  0  0  0  0
  130.4582   52.8465   32.2069 C   0  0  0  0  0  0  0  0  0  0  0  0
  135.9846   54.4126   31.1269 N   0  0  0  0  0  0  0  0  0  0  0  0
  130.1505   51.4520   32.5536 C   0  0  0  0  0  0  0  0  0  0  0  0
  135.5024   52.6975   32.8063 C   0  0  0  0  0  0  0  0  0  0  0  0
  137.7039   53.0768   31.9473 N   0  0  0  0  0  0  0  0  0  0  0  0
  132.3800   54.2032   31.7365 N   0  0  0  0  0  0  0  0  0  0  0  0
  134.6762   54.8639   31.1831 C   0  0  0  0  0  0  0  0  0  0  0  0
  128.6059   52.3112   30.9863 N   0  0  0  0  0  0  0  0  0  0  0  0
  133.7236   54.0700   31.8809 C   0  0  0  0  0  0  0  0  0  0  0  0
  136.0691   51.7939   33.6506 C   0  0  0  0  0  0  0  0  0  0  0  0
  131.7837   53.2662   32.4839 C   0  0  0  0  0  0  0  0  0  0  0  0
  134.3679   55.9684   30.6700 O   0  0  0  0  0  0  0  0  0  0  0  0
  128.7539   51.3296   32.0515 C   0  0  0  0  0  0  0  0  0  0  0  0
  134.0254   52.9879   32.7365 C   0  0  0  0  0  0  0  0  0  0  0  0
  1  7  1  0
  1  9  2  0
  1 10  1  0
  2  6  1  0
  2 13  1  0
  3 16  2  0
  3 19  1  0
  4  5  1  0
  4 15  2  0
  5 10  2  0
  6  8  1  0
  6 16  1  0
  7 12  1  0
  8 18  1  0
  9 15  1  0
  9 19  1  0
 11 14  1  0
 11 16  1  0
 12 14  1  0
 12 17  2  0
 13 18  1  0
 14 19  2  0
M  END
>  <ID>  (1) 
conformer_0

$$$$
