
     RDKit          3D

 31 37  0  0  0  0  0  0  0  0999 V2000
  133.0845   54.4775   25.8445 C   0  0  0  0  0  0  0  0  0  0  0  0
  130.6676   51.7338   32.5003 C   0  0  0  0  0  0  0  0  0  0  0  0
  132.4075   53.8827   24.5654 O   0  0  0  0  0  0  0  0  0  0  0  0
  128.7699   51.9998   31.7778 C   0  0  0  0  0  0  0  0  0  0  0  0
  135.8418   53.4068   32.9486 C   0  0  0  0  0  0  0  0  0  0  0  0
  134.1400   56.8487   28.4804 C   0  0  0  0  0  0  0  0  0  0  0  0
  132.2264   53.9131   32.4136 C   0  0  0  0  0  0  0  0  0  0  0  0
  131.8016   54.8651   26.6412 C   0  0  0  0  0  0  0  0  0  0  0  0
  133.2533   58.1560   25.3529 O   0  0  0  0  0  0  0  0  0  0  0  0
  134.1984   54.8999   31.6191 C   0  0  0  0  0  0  0  0  0  0  0  0
  134.5008   53.2780   33.2825 C   0  0  0  0  0  0  0  0  0  0  0  0
  133.6235   53.9933   32.4465 C   0  0  0  0  0  0  0  0  0  0  0  0
  133.1509   56.7655   27.4304 C   0  0  0  0  0  0  0  0  0  0  0  0
  135.6620   51.7815   34.5066 C   0  0  0  0  0  0  0  0  0  0  0  0
  129.8462   52.9225   32.0875 C   0  0  0  0  0  0  0  0  0  0  0  0
  134.1430   56.5973   29.9176 C   0  0  0  0  0  0  0  0  0  0  0  0
  133.4199   55.7860   25.0969 C   0  0  0  0  0  0  0  0  0  0  0  0
  132.1881   55.7128   27.7833 C   0  0  0  0  0  0  0  0  0  0  0  0
  131.7831   55.5252   29.0584 O   0  0  0  0  0  0  0  0  0  0  0  0
  134.3901   52.1935   34.0973 N   0  0  0  0  0  0  0  0  0  0  0  0
  136.5204   52.5965   33.7393 N   0  0  0  0  0  0  0  0  0  0  0  0
  132.1942   55.1372   30.2936 C   0  0  0  0  0  0  0  0  0  0  0  0
  131.5692   54.3821   31.2634 N   0  0  0  0  0  0  0  0  0  0  0  0
  135.4637   55.2317   31.5503 N   0  0  0  0  0  0  0  0  0  0  0  0
  130.2390   53.8813   31.0461 C   0  0  0  0  0  0  0  0  0  0  0  0
  132.4582   55.2970   24.0201 C   0  0  0  0  0  0  0  0  0  0  0  0
  136.3548   54.3794   32.1077 C   0  0  0  0  0  0  0  0  0  0  0  0
  134.7505   55.9091   24.6500 O   0  0  0  0  0  0  0  0  0  0  0  0
  133.1504   56.9921   25.9746 C   0  0  0  0  0  0  0  0  0  0  0  0
  129.3986   50.8322   32.5588 C   0  0  0  0  0  0  0  0  0  0  0  0
  133.4672   55.5684   30.6422 C   0  0  0  0  0  0  0  0  0  0  0  0
  1  3  1  0
  1  8  1  0
  1 17  1  0
  2 15  1  0
  2 30  1  0
  3 26  1  0
  4 15  1  0
  4 30  1  0
  5 11  1  0
  5 21  1  0
  5 27  2  0
  6 13  1  0
  6 16  1  0
  7 12  1  0
  7 23  1  0
  8 18  1  0
  9 29  1  0
 10 12  2  0
 10 24  1  0
 10 31  1  0
 11 12  1  0
 11 20  1  0
 13 18  1  0
 13 29  1  0
 14 20  1  0
 14 21  1  0
 15 25  1  0
 16 31  1  0
 17 26  1  0
 17 28  1  0
 17 29  1  0
 18 19  1  0
 19 22  1  0
 22 23  1  0
 22 31  1  0
 23 25  1  0
 24 27  1  0
M  END
>  <ID>  (1) 
conformer_0

$$$$
