
     RDKit          3D

 42 48  0  0  0  0  0  0  0  0999 V2000
  130.7027   54.5575   30.9318 C   0  0  0  0  0  0  0  0  0  0  0  0
  134.2881   55.5896   31.2216 N   0  0  0  0  0  0  0  0  0  0  0  0
  134.5473   52.7764   33.0244 N   0  0  0  0  0  0  0  0  0  0  0  0
  140.3281   49.8284   31.6932 C   0  0  0  0  0  0  0  0  0  0  0  0
  137.9125   55.1821   26.7176 O   0  0  0  0  0  0  0  0  0  0  0  0
  133.8677   53.7792   32.5448 C   0  0  0  0  0  0  0  0  0  0  0  0
  134.7276   54.6140   31.9229 C   0  0  0  0  0  0  0  0  0  0  0  0
  138.9254   50.3672   31.7964 C   0  0  0  0  0  0  0  0  0  0  0  0
  138.6425   51.4187   30.9346 C   0  0  0  0  0  0  0  0  0  0  0  0
  132.5081   54.0039   32.4754 C   0  0  0  0  0  0  0  0  0  0  0  0
  137.6968   52.2514   31.3542 C   0  0  0  0  0  0  0  0  0  0  0  0
  140.1029   48.4860   31.4051 N   0  0  0  0  0  0  0  0  0  0  0  0
  138.5498   53.6376   28.8034 N   0  0  0  0  0  0  0  0  0  0  0  0
  139.3942   51.6406   29.6678 C   0  0  0  0  0  0  0  0  0  0  0  0
  128.4576   51.6785   31.2821 C   0  0  0  0  0  0  0  0  0  0  0  0
  130.1478   53.3086   31.4103 C   0  0  0  0  0  0  0  0  0  0  0  0
  137.1533   53.0774   26.7159 N   0  0  0  0  0  0  0  0  0  0  0  0
  134.4076   55.4898   26.4946 C   0  0  0  0  0  0  0  0  0  0  0  0
  133.0802   56.3104   28.3530 C   0  0  0  0  0  0  0  0  0  0  0  0
  130.7368   52.5492   32.4156 C   0  0  0  0  0  0  0  0  0  0  0  0
  137.0641   52.1227   27.8609 C   0  0  0  0  0  0  0  0  0  0  0  0
  132.0321   56.6162   27.5210 C   0  0  0  0  0  0  0  0  0  0  0  0
  136.8938   54.4340   26.5814 C   0  0  0  0  0  0  0  0  0  0  0  0
  132.7285   56.5820   29.7559 C   0  0  0  0  0  0  0  0  0  0  0  0
  134.2537   55.7540   27.8444 C   0  0  0  0  0  0  0  0  0  0  0  0
  137.9856   49.9926   32.7409 N   0  0  0  0  0  0  0  0  0  0  0  0
  132.0196   54.8459   31.3928 C   0  0  0  0  0  0  0  0  0  0  0  0
  133.2980   55.7672   25.6743 C   0  0  0  0  0  0  0  0  0  0  0  0
  132.9940   55.6405   30.8073 C   0  0  0  0  0  0  0  0  0  0  0  0
  135.7814   52.9281   32.5408 C   0  0  0  0  0  0  0  0  0  0  0  0
  140.4924   49.2993   30.2771 C   0  0  0  0  0  0  0  0  0  0  0  0
  135.6754   54.9645   25.8870 C   0  0  0  0  0  0  0  0  0  0  0  0
  139.7901   47.7676   32.6492 C   0  0  0  0  0  0  0  0  0  0  0  0
  135.9177   54.1548   32.0026 N   0  0  0  0  0  0  0  0  0  0  0  0
  138.4540   52.2182   28.6272 C   0  0  0  0  0  0  0  0  0  0  0  0
  131.8164   53.0306   33.0936 N   0  0  0  0  0  0  0  0  0  0  0  0
  136.7900   51.9976   32.3187 C   0  0  0  0  0  0  0  0  0  0  0  0
  130.2572   51.2974   32.7988 C   0  0  0  0  0  0  0  0  0  0  0  0
  132.1535   56.3598   26.1757 C   0  0  0  0  0  0  0  0  0  0  0  0
  136.9111   50.7787   33.0126 C   0  0  0  0  0  0  0  0  0  0  0  0
  129.0741   50.9084   32.2236 C   0  0  0  0  0  0  0  0  0  0  0  0
  128.9883   52.8586   30.8594 C   0  0  0  0  0  0  0  0  0  0  0  0
  1 16  1  0
  1 27  1  0
  2  7  1  0
  2 29  1  0
  3  6  1  0
  3 30  2  0
  4  8  1  0
  4 12  1  0
  5 23  2  0
  6  7  2  0
  6 10  1  0
  7 34  1  0
  8  9  1  0
  8 26  1  0
  9 11  1  0
  9 14  1  0
 10 27  1  0
 10 36  1  0
 11 37  2  0
 12 31  1  0
 12 33  1  0
 13 35  1  0
 14 35  1  0
 15 41  1  0
 15 42  2  0
 16 20  2  0
 16 42  1  0
 17 21  1  0
 17 23  1  0
 18 25  2  0
 18 28  1  0
 18 32  1  0
 19 22  2  0
 19 24  1  0
 19 25  1  0
 20 36  1  0
 20 38  1  0
 21 35  1  0
 22 39  1  0
 23 32  1  0
 24 29  1  0
 26 40  2  0
 27 29  1  0
 28 39  2  0
 30 34  1  0
 30 37  1  0
 37 40  1  0
 38 41  2  0
M  END
>  <ID>  (1) 
conformer_0

$$$$
