
     RDKit          3D

 13 13  0  0  0  0  0  0  0  0999 V2000
  131.1286   53.1520   31.8013 C   0  0  0  0  0  0  0  0  0  0  0  0
  133.2005   53.1309   32.8139 C   0  0  0  0  0  0  0  0  0  0  0  0
  131.9522   52.6487   32.7621 N   0  0  0  0  0  0  0  0  0  0  0  0
  133.6528   54.0983   32.0059 N   0  0  0  0  0  0  0  0  0  0  0  0
  129.7900   52.5717   31.6896 C   0  0  0  0  0  0  0  0  0  0  0  0
  129.4968   51.7874   32.7485 N   0  0  0  0  0  0  0  0  0  0  0  0
  132.8159   54.6332   31.0600 C   0  0  0  0  0  0  0  0  0  0  0  0
  129.1570   50.4425   32.5820 C   0  0  0  0  0  0  0  0  0  0  0  0
  133.3251   55.6807   30.1228 C   0  0  0  0  0  0  0  0  0  0  0  0
  131.5376   54.1551   30.9847 C   0  0  0  0  0  0  0  0  0  0  0  0
  129.0518   52.6646   30.6925 O   0  0  0  0  0  0  0  0  0  0  0  0
  132.6161   55.8001   28.8207 C   0  0  0  0  0  0  0  0  0  0  0  0
  133.7909   56.9141   30.8358 C   0  0  0  0  0  0  0  0  0  0  0  0
  1  3  2  0
  1  5  1  0
  1 10  1  0
  2  3  1  0
  2  4  2  0
  4  7  1  0
  5  6  1  0
  5 11  2  0
  6  8  1  0
  7  9  1  0
  7 10  2  0
  9 12  1  0
  9 13  1  0
M  END
>  <ID>  (1) 
conformer_0

$$$$
