
     RDKit          3D

 27 30  0  0  0  0  0  0  0  0999 V2000
  126.9327   51.0515   28.0238 C   0  0  0  0  0  0  0  0  0  0  0  0
  133.4127   54.8774   26.5427 C   0  0  0  0  0  0  0  0  0  0  0  0
  130.8504   53.4535   31.8755 C   0  0  0  0  0  0  0  0  0  0  0  0
  134.1678   57.4730   32.3004 C   0  0  0  0  0  0  0  0  0  0  0  0
  134.7177   55.6927   28.3318 C   0  0  0  0  0  0  0  0  0  0  0  0
  127.4924   52.3852   28.6660 C   0  0  0  0  0  0  0  0  0  0  0  0
  134.6493   55.1468   27.1174 C   0  0  0  0  0  0  0  0  0  0  0  0
  133.6721   58.4257   31.4950 N   0  0  0  0  0  0  0  0  0  0  0  0
  132.4646   52.3414   33.0981 C   0  0  0  0  0  0  0  0  0  0  0  0
  128.8937   52.5316   30.9060 C   0  0  0  0  0  0  0  0  0  0  0  0
  135.7887   54.9466   26.4472 O   0  0  0  0  0  0  0  0  0  0  0  0
  129.8037   53.5820   30.9925 C   0  0  0  0  0  0  0  0  0  0  0  0
  132.0344   54.2234   31.8546 C   0  0  0  0  0  0  0  0  0  0  0  0
  131.1304   52.2713   32.6080 C   0  0  0  0  0  0  0  0  0  0  0  0
  130.1003   51.2920   32.6350 C   0  0  0  0  0  0  0  0  0  0  0  0
  134.8107   55.2107   32.3329 O   0  0  0  0  0  0  0  0  0  0  0  0
  132.2538   55.2007   27.2252 C   0  0  0  0  0  0  0  0  0  0  0  0
  134.1883   56.2899   31.6075 C   0  0  0  0  0  0  0  0  0  0  0  0
  128.2677   52.2663   29.7195 N   0  0  0  0  0  0  0  0  0  0  0  0
  133.0818   53.6019   32.5945 C   0  0  0  0  0  0  0  0  0  0  0  0
  134.3945   54.0964   32.9840 C   0  0  0  0  0  0  0  0  0  0  0  0
  133.6744   56.6234   30.2937 C   0  0  0  0  0  0  0  0  0  0  0  0
  133.3207   57.9060   30.3437 N   0  0  0  0  0  0  0  0  0  0  0  0
  132.3279   55.8062   28.4391 N   0  0  0  0  0  0  0  0  0  0  0  0
  134.9332   53.2948   33.9080 O   0  0  0  0  0  0  0  0  0  0  0  0
  133.5566   56.0106   28.9746 C   0  0  0  0  0  0  0  0  0  0  0  0
  128.8665   51.5826   31.9561 C   0  0  0  0  0  0  0  0  0  0  0  0
  1  6  1  0
  2  7  2  0
  2 17  1  0
  3 12  2  0
  3 13  1  0
  3 14  1  0
  4  8  1  0
  4 18  1  0
  5  7  1  0
  5 26  2  0
  6 19  1  0
  7 11  1  0
  8 23  1  0
  9 14  1  0
  9 20  1  0
 10 12  1  0
 10 19  1  0
 10 27  1  0
 13 20  1  0
 14 15  2  0
 15 27  1  0
 16 18  1  0
 16 21  1  0
 17 24  2  0
 18 22  2  0
 20 21  1  0
 21 25  2  0
 22 23  1  0
 22 26  1  0
 24 26  1  0
M  END
>  <ID>  (1) 
conformer_0

$$$$
