
     RDKit          3D

 20 22  0  0  0  0  0  0  0  0999 V2000
  132.5482   54.8352   31.0485 C   0  0  0  0  0  0  0  0  0  0  0  0
  130.9547   51.6766   32.6645 C   0  0  0  0  0  0  0  0  0  0  0  0
  135.8749   52.2828   33.2701 C   0  0  0  0  0  0  0  0  0  0  0  0
  132.6508   55.9614   30.3373 O   0  0  0  0  0  0  0  0  0  0  0  0
  136.6693   51.1191   33.5855 O   0  0  0  0  0  0  0  0  0  0  0  0
  129.4487   52.8861   31.3977 C   0  0  0  0  0  0  0  0  0  0  0  0
  130.4558   54.8388   30.4323 O   0  0  0  0  0  0  0  0  0  0  0  0
  138.0492   52.7761   32.1036 N   0  0  0  0  0  0  0  0  0  0  0  0
  136.6983   53.1301   32.3686 C   0  0  0  0  0  0  0  0  0  0  0  0
  136.0102   53.7010   31.1570 C   0  0  0  0  0  0  0  0  0  0  0  0
  133.4270   53.3472   32.5700 C   0  0  0  0  0  0  0  0  0  0  0  0
  128.7767   51.7512   31.7311 C   0  0  0  0  0  0  0  0  0  0  0  0
  130.9710   52.9737   31.9024 C   0  0  0  0  0  0  0  0  0  0  0  0
  132.1128   52.7794   32.5946 N   0  0  0  0  0  0  0  0  0  0  0  0
  129.6640   50.9654   32.4596 C   0  0  0  0  0  0  0  0  0  0  0  0
  134.4995   52.8043   33.5248 C   0  0  0  0  0  0  0  0  0  0  0  0
  131.3436   54.1796   31.1788 C   0  0  0  0  0  0  0  0  0  0  0  0
  135.0172   54.7410   31.3392 N   0  0  0  0  0  0  0  0  0  0  0  0
  129.3990   49.7396   32.7764 O   0  0  0  0  0  0  0  0  0  0  0  0
  133.7072   54.3612   31.6639 C   0  0  0  0  0  0  0  0  0  0  0  0
  1  4  1  0
  1 17  2  0
  1 20  1  0
  2 13  1  0
  2 15  1  0
  3  5  1  0
  3  9  1  0
  3 16  1  0
  6 12  1  0
  6 13  1  0
  7 17  1  0
  8  9  1  0
  9 10  1  0
 10 18  1  0
 11 14  2  0
 11 16  1  0
 11 20  1  0
 12 15  1  0
 13 14  1  0
 13 17  1  0
 15 19  1  0
 18 20  1  0
M  END
>  <ID>  (1) 
conformer_0

$$$$
