
     RDKit          3D

 23 26  0  0  0  0  0  0  0  0999 V2000
  136.7756   53.6299   31.7143 O   0  0  0  0  0  0  0  0  0  0  0  0
  132.6357   54.3369   31.3036 C   0  0  0  0  0  0  0  0  0  0  0  0
  135.7320   55.3872   28.1137 C   0  0  0  0  0  0  0  0  0  0  0  0
  136.3726   54.6082   29.1998 N   0  0  0  0  0  0  0  0  0  0  0  0
  132.8932   55.0188   30.1999 C   0  0  0  0  0  0  0  0  0  0  0  0
  133.2346   53.6188   32.2164 C   0  0  0  0  0  0  0  0  0  0  0  0
  137.1077   53.4887   28.5852 C   0  0  0  0  0  0  0  0  0  0  0  0
  134.6163   53.5148   32.4397 C   0  0  0  0  0  0  0  0  0  0  0  0
  135.0210   53.0856   33.7662 C   0  0  0  0  0  0  0  0  0  0  0  0
  136.1718   55.3738   26.9623 O   0  0  0  0  0  0  0  0  0  0  0  0
  132.0312   55.7580   29.4224 O   0  0  0  0  0  0  0  0  0  0  0  0
  129.1429   51.3675   32.1508 C   0  0  0  0  0  0  0  0  0  0  0  0
  130.9840   52.8206   32.5331 N   0  0  0  0  0  0  0  0  0  0  0  0
  128.9957   52.5998   31.2175 C   0  0  0  0  0  0  0  0  0  0  0  0
  130.1368   53.5176   31.5669 C   0  0  0  0  0  0  0  0  0  0  0  0
  130.5462   51.4262   32.6912 C   0  0  0  0  0  0  0  0  0  0  0  0
  134.2576   55.6831   28.3942 C   0  0  0  0  0  0  0  0  0  0  0  0
  132.2858   52.9130   33.1609 C   0  0  0  0  0  0  0  0  0  0  0  0
  138.3594   53.0780   29.3544 C   0  0  0  0  0  0  0  0  0  0  0  0
  135.5630   53.8364   31.4477 C   0  0  0  0  0  0  0  0  0  0  0  0
  135.2590   54.4242   30.1937 C   0  0  0  0  0  0  0  0  0  0  0  0
  134.1433   54.9943   29.7153 N   0  0  0  0  0  0  0  0  0  0  0  0
  132.7879   56.0974   28.1606 C   0  0  0  0  0  0  0  0  0  0  0  0
  1 20  2  0
  2  5  1  0
  2  6  2  0
  3  4  1  0
  3 10  2  0
  3 17  1  0
  4  7  1  0
  4 21  1  0
  5 11  1  0
  5 22  1  0
  6  8  1  0
  6 18  1  0
  7 19  1  0
  8  9  1  0
  8 20  1  0
 11 23  1  0
 12 14  1  0
 12 16  1  0
 13 15  1  0
 13 16  1  0
 13 18  1  0
 14 15  1  0
 17 22  1  0
 17 23  1  0
 20 21  1  0
 21 22  1  0
M  END
>  <ID>  (1) 
conformer_0

$$$$
