
     RDKit          3D

 23 27  0  0  0  0  0  0  0  0999 V2000
  134.9996   53.8440   32.4383 C   0  0  0  0  0  0  0  0  0  0  0  0
  134.3142   52.9134   33.3270 C   0  0  0  0  0  0  0  0  0  0  0  0
  128.7829   51.8230   31.6800 C   0  0  0  0  0  0  0  0  0  0  0  0
  132.8868   52.8574   33.2671 N   0  0  0  0  0  0  0  0  0  0  0  0
  132.5330   56.5857   26.3331 C   0  0  0  0  0  0  0  0  0  0  0  0
  133.4158   55.5361   29.8026 N   0  0  0  0  0  0  0  0  0  0  0  0
  136.6627   52.2899   33.0734 C   0  0  0  0  0  0  0  0  0  0  0  0
  128.9194   52.8791   30.5669 C   0  0  0  0  0  0  0  0  0  0  0  0
  134.7323   56.3517   27.9741 C   0  0  0  0  0  0  0  0  0  0  0  0
  132.0252   53.4800   32.4154 C   0  0  0  0  0  0  0  0  0  0  0  0
  134.9158   56.7137   26.6590 C   0  0  0  0  0  0  0  0  0  0  0  0
  133.4769   56.0825   28.4526 C   0  0  0  0  0  0  0  0  0  0  0  0
  134.4989   55.3159   30.5703 N   0  0  0  0  0  0  0  0  0  0  0  0
  130.6663   53.1705   32.1993 N   0  0  0  0  0  0  0  0  0  0  0  0
  132.7392   54.3295   31.4767 C   0  0  0  0  0  0  0  0  0  0  0  0
  132.3497   56.2235   27.6599 C   0  0  0  0  0  0  0  0  0  0  0  0
  129.9573   53.8238   31.0753 C   0  0  0  0  0  0  0  0  0  0  0  0
  136.4099   53.5035   32.2168 C   0  0  0  0  0  0  0  0  0  0  0  0
  132.3562   55.0454   30.4218 N   0  0  0  0  0  0  0  0  0  0  0  0
  134.0934   54.4826   31.5441 C   0  0  0  0  0  0  0  0  0  0  0  0
  130.1624   51.7821   32.3346 C   0  0  0  0  0  0  0  0  0  0  0  0
  133.8011   56.8302   25.8065 C   0  0  0  0  0  0  0  0  0  0  0  0
  135.3990   52.1335   33.9419 C   0  0  0  0  0  0  0  0  0  0  0  0
  1  2  1  0
  1 18  1  0
  1 20  1  0
  2  4  1  0
  2 23  1  0
  3  8  1  0
  3 21  1  0
  4 10  2  0
  5 16  2  0
  5 22  1  0
  6 12  1  0
  6 13  1  0
  6 19  1  0
  7 18  1  0
  7 23  1  0
  8 17  1  0
  9 11  1  0
  9 12  2  0
 10 14  1  0
 10 15  1  0
 11 22  2  0
 12 16  1  0
 13 20  1  0
 14 17  1  0
 14 21  1  0
 15 19  1  0
 15 20  2  0
M  END
>  <ID>  (1) 
conformer_0

$$$$
