
     RDKit          3D

 17 19  0  0  0  0  0  0  0  0999 V2000
  128.7326   52.9168   31.7078 C   0  0  0  0  0  0  0  0  0  0  0  0
  134.8249   52.9879   32.9089 C   0  0  0  0  0  0  0  0  0  0  0  0
  129.0307   53.0971   30.2596 C   0  0  0  0  0  0  0  0  0  0  0  0
  135.7372   55.3005   30.1630 N   0  0  0  0  0  0  0  0  0  0  0  0
  132.6676   55.2460   30.2457 N   0  0  0  0  0  0  0  0  0  0  0  0
  131.5594   53.8839   31.7000 N   0  0  0  0  0  0  0  0  0  0  0  0
  133.3698   52.9921   32.8457 C   0  0  0  0  0  0  0  0  0  0  0  0
  130.0206   50.9906   32.6365 C   0  0  0  0  0  0  0  0  0  0  0  0
  132.0275   52.4404   33.4279 O   0  0  0  0  0  0  0  0  0  0  0  0
  130.9527   53.1344   32.7477 C   0  0  0  0  0  0  0  0  0  0  0  0
  128.7025   50.5142   32.1225 C   0  0  0  0  0  0  0  0  0  0  0  0
  131.4967   54.8400   30.6903 C   0  0  0  0  0  0  0  0  0  0  0  0
  132.8652   53.7626   31.8607 C   0  0  0  0  0  0  0  0  0  0  0  0
  133.5519   54.5605   30.9759 C   0  0  0  0  0  0  0  0  0  0  0  0
  135.5819   53.7484   32.0311 C   0  0  0  0  0  0  0  0  0  0  0  0
  129.7934   52.5035   32.5518 N   0  0  0  0  0  0  0  0  0  0  0  0
  134.9742   54.5683   31.0387 C   0  0  0  0  0  0  0  0  0  0  0  0
  1  3  1  0
  1 16  1  0
  2  7  2  0
  2 15  1  0
  4 17  1  0
  5 12  1  0
  5 14  1  0
  6 10  1  0
  6 12  1  0
  6 13  1  0
  7  9  1  0
  7 13  1  0
  8 11  1  0
  8 16  1  0
  9 10  1  0
 10 16  1  0
 13 14  2  0
 14 17  1  0
 15 17  2  0
M  END
>  <ID>  (1) 
conformer_0

$$$$
