
     RDKit          3D

 15 17  0  0  0  0  0  0  0  0999 V2000
  134.8049   55.6045   30.7527 N   0  0  0  0  0  0  0  0  0  0  0  0
  134.5612   54.6161   31.6490 C   0  0  0  0  0  0  0  0  0  0  0  0
  128.9221   52.3641   31.4228 C   0  0  0  0  0  0  0  0  0  0  0  0
  132.1123   54.5120   30.9528 C   0  0  0  0  0  0  0  0  0  0  0  0
  133.4337   52.6903   33.7270 O   0  0  0  0  0  0  0  0  0  0  0  0
  133.7487   56.0371   29.9632 C   0  0  0  0  0  0  0  0  0  0  0  0
  129.4704   51.4120   32.2668 C   0  0  0  0  0  0  0  0  0  0  0  0
  131.4888   52.7006   32.3334 C   0  0  0  0  0  0  0  0  0  0  0  0
  135.5852   54.1047   32.4349 N   0  0  0  0  0  0  0  0  0  0  0  0
  133.2524   54.0987   31.7935 C   0  0  0  0  0  0  0  0  0  0  0  0
  132.4613   55.5276   30.0697 C   0  0  0  0  0  0  0  0  0  0  0  0
  130.7751   51.6114   32.7415 C   0  0  0  0  0  0  0  0  0  0  0  0
  129.6813   53.4463   30.9626 C   0  0  0  0  0  0  0  0  0  0  0  0
  132.7916   53.0765   32.7159 N   0  0  0  0  0  0  0  0  0  0  0  0
  130.9975   53.6302   31.3236 C   0  0  0  0  0  0  0  0  0  0  0  0
  1  2  1  0
  1  6  2  0
  2  9  2  0
  2 10  1  0
  3  7  2  0
  3 13  1  0
  4 10  1  0
  4 11  2  0
  4 15  1  0
  5 14  1  0
  6 11  1  0
  7 12  1  0
  8 12  2  0
  8 14  1  0
  8 15  1  0
 10 14  1  0
 13 15  2  0
M  END
>  <ID>  (1) 
conformer_0

$$$$
