
     RDKit          3D

 21 23  0  0  0  0  0  0  0  0999 V2000
  135.0802   56.1295   29.6603 O   0  0  0  0  0  0  0  0  0  0  0  0
  129.2151   50.2401   32.7955 C   0  0  0  0  0  0  0  0  0  0  0  0
  128.7023   51.4570   32.0980 C   0  0  0  0  0  0  0  0  0  0  0  0
  136.2707   53.4465   32.4214 C   0  0  0  0  0  0  0  0  0  0  0  0
  137.6197   52.7578   32.1547 C   0  0  0  0  0  0  0  0  0  0  0  0
  131.2691   53.8869   31.2881 C   0  0  0  0  0  0  0  0  0  0  0  0
  131.8307   57.4891   29.3759 C   0  0  0  0  0  0  0  0  0  0  0  0
  131.9980   53.0871   32.1545 C   0  0  0  0  0  0  0  0  0  0  0  0
  131.8574   54.9144   30.6554 C   0  0  0  0  0  0  0  0  0  0  0  0
  129.9437   53.4197   31.1856 C   0  0  0  0  0  0  0  0  0  0  0  0
  133.8456   56.0970   29.8719 C   0  0  0  0  0  0  0  0  0  0  0  0
  129.8933   52.3092   31.9840 C   0  0  0  0  0  0  0  0  0  0  0  0
  133.2111   55.1329   30.7748 C   0  0  0  0  0  0  0  0  0  0  0  0
  136.1434   51.1773   33.1602 C   0  0  0  0  0  0  0  0  0  0  0  0
  137.4112   51.2447   32.3496 C   0  0  0  0  0  0  0  0  0  0  0  0
  135.4545   52.3895   32.9118 N   0  0  0  0  0  0  0  0  0  0  0  0
  133.9679   54.3724   31.6701 C   0  0  0  0  0  0  0  0  0  0  0  0
  132.9540   56.6742   28.9919 O   0  0  0  0  0  0  0  0  0  0  0  0
  131.1424   52.0652   32.6258 C   0  0  0  0  0  0  0  0  0  0  0  0
  133.3102   53.3893   32.3863 O   0  0  0  0  0  0  0  0  0  0  0  0
  135.4794   54.6009   31.8745 C   0  0  0  0  0  0  0  0  0  0  0  0
  1 11  2  0
  2  3  1  0
  3 12  1  0
  4  5  1  0
  4 16  1  0
  4 21  1  0
  5 15  1  0
  6  8  1  0
  6  9  2  0
  6 10  1  0
  7 18  1  0
  8 19  1  0
  8 20  1  0
  9 13  1  0
 10 12  1  0
 11 13  1  0
 11 18  1  0
 12 19  1  0
 13 17  2  0
 14 15  1  0
 14 16  1  0
 17 20  1  0
 17 21  1  0
M  END
>  <ID>  (1) 
conformer_0

$$$$
