
     RDKit          3D

 21 23  0  0  0  0  0  0  0  0999 V2000
  129.7822   50.8943   32.7138 C   0  0  0  0  0  0  0  0  0  0  0  0
  137.9038   50.9357   31.1419 C   0  0  0  0  0  0  0  0  0  0  0  0
  134.8306   55.2596   30.4900 C   0  0  0  0  0  0  0  0  0  0  0  0
  128.8287   51.4866   31.7859 N   0  0  0  0  0  0  0  0  0  0  0  0
  129.4299   52.6234   31.2173 C   0  0  0  0  0  0  0  0  0  0  0  0
  135.7063   54.6172   31.5293 C   0  0  0  0  0  0  0  0  0  0  0  0
  137.8864   51.7238   32.2962 N   0  0  0  0  0  0  0  0  0  0  0  0
  132.8943   54.0155   31.6381 N   0  0  0  0  0  0  0  0  0  0  0  0
  130.9447   51.7226   32.6806 C   0  0  0  0  0  0  0  0  0  0  0  0
  128.8766   53.3332   30.2943 N   0  0  0  0  0  0  0  0  0  0  0  0
  131.2444   54.7226   30.4110 C   0  0  0  0  0  0  0  0  0  0  0  0
  132.2659   55.4734   30.1067 N   0  0  0  0  0  0  0  0  0  0  0  0
  133.3419   54.9787   30.7805 C   0  0  0  0  0  0  0  0  0  0  0  0
  132.1468   56.6081   29.2651 C   0  0  0  0  0  0  0  0  0  0  0  0
  137.1386   53.0463   29.9457 C   0  0  0  0  0  0  0  0  0  0  0  0
  130.7473   52.7523   31.7835 C   0  0  0  0  0  0  0  0  0  0  0  0
  136.4765   53.3861   31.2423 C   0  0  0  0  0  0  0  0  0  0  0  0
  131.6056   53.7710   31.3353 C   0  0  0  0  0  0  0  0  0  0  0  0
  137.6765   51.5956   29.7962 C   0  0  0  0  0  0  0  0  0  0  0  0
  138.0120   49.5634   31.0796 N   0  0  0  0  0  0  0  0  0  0  0  0
  137.3296   53.0154   32.4563 C   0  0  0  0  0  0  0  0  0  0  0  0
  1  4  1  0
  1  9  1  0
  2  7  1  0
  2 19  1  0
  2 20  2  0
  3  6  1  0
  3 13  1  0
  4  5  1  0
  5 10  2  0
  5 16  1  0
  6 17  1  0
  7 21  1  0
  8 13  2  0
  8 18  1  0
  9 16  1  0
 11 12  1  0
 11 18  1  0
 12 13  1  0
 12 14  1  0
 15 17  1  0
 15 19  1  0
 16 18  2  3
 17 21  1  0
M  END
>  <ID>  (1) 
conformer_0

$$$$
