
     RDKit          3D

 29 31  0  0  0  0  0  0  0  0999 V2000
  135.1069   53.0310   34.0421 C   0  0  0  0  0  0  0  0  0  0  0  0
  131.1182   54.0815   31.4684 C   0  0  0  0  0  0  0  0  0  0  0  0
  133.1059   54.4310   26.0173 O   0  0  0  0  0  0  0  0  0  0  0  0
  132.3568   55.7837   29.9178 C   0  0  0  0  0  0  0  0  0  0  0  0
  131.3886   52.9663   32.3658 C   0  0  0  0  0  0  0  0  0  0  0  0
  137.3022   50.2848   33.2380 C   0  0  0  0  0  0  0  0  0  0  0  0
  129.2045   52.7557   31.5464 C   0  0  0  0  0  0  0  0  0  0  0  0
  136.5143   51.2851   34.0127 O   0  0  0  0  0  0  0  0  0  0  0  0
  133.0490   55.3324   32.1114 C   0  0  0  0  0  0  0  0  0  0  0  0
  136.8239   48.1293   31.8671 C   0  0  0  0  0  0  0  0  0  0  0  0
  132.2334   55.4134   28.5110 C   0  0  0  0  0  0  0  0  0  0  0  0
  133.3623   56.0359   27.7143 C   0  0  0  0  0  0  0  0  0  0  0  0
  129.8442   53.8635   30.8606 C   0  0  0  0  0  0  0  0  0  0  0  0
  132.7109   52.9923   32.9090 C   0  0  0  0  0  0  0  0  0  0  0  0
  136.6941   48.9391   34.0635 C   0  0  0  0  0  0  0  0  0  0  0  0
  130.2651   52.1144   32.3027 C   0  0  0  0  0  0  0  0  0  0  0  0
  136.2105   49.3706   32.6628 C   0  0  0  0  0  0  0  0  0  0  0  0
  134.8454   54.1955   33.2005 O   0  0  0  0  0  0  0  0  0  0  0  0
  134.1159   56.8878   28.6112 C   0  0  0  0  0  0  0  0  0  0  0  0
  129.8263   50.7873   32.7166 C   0  0  0  0  0  0  0  0  0  0  0  0
  133.5108   56.7191   30.0295 C   0  0  0  0  0  0  0  0  0  0  0  0
  133.5475   54.1269   32.6865 C   0  0  0  0  0  0  0  0  0  0  0  0
  134.8268   56.2378   29.6821 C   0  0  0  0  0  0  0  0  0  0  0  0
  135.0863   55.3897   26.2983 O   0  0  0  0  0  0  0  0  0  0  0  0
  132.0553   55.0515   31.1451 N   0  0  0  0  0  0  0  0  0  0  0  0
  135.6964   52.0454   33.0393 C   0  0  0  0  0  0  0  0  0  0  0  0
  134.6668   47.0067   32.1892 C   0  0  0  0  0  0  0  0  0  0  0  0
  133.9105   55.1719   26.6064 C   0  0  0  0  0  0  0  0  0  0  0  0
  136.1678   46.8569   32.4668 C   0  0  0  0  0  0  0  0  0  0  0  0
  1 18  1  0
  1 26  1  0
  2  5  2  0
  2 13  1  0
  2 25  1  0
  3 28  2  0
  4 11  1  0
  4 21  1  0
  4 25  1  0
  5 14  1  0
  5 16  1  0
  6  8  1  0
  6 17  1  0
  7 13  1  0
  7 16  1  0
  8 26  1  0
  9 22  1  0
  9 25  1  0
 10 17  1  0
 10 29  1  0
 11 12  1  0
 12 19  1  0
 12 28  1  0
 14 22  2  0
 15 17  1  0
 16 20  1  0
 18 22  1  0
 19 23  1  0
 21 23  1  0
 24 28  1  0
 27 29  1  0
M  END
>  <ID>  (1) 
conformer_0

$$$$
