
     RDKit          3D

 25 27  0  0  0  0  0  0  0  0999 V2000
  133.5469   54.8003   30.6823 C   0  0  0  0  0  0  0  0  0  0  0  0
  127.7606   51.8299   29.9416 C   0  0  0  0  0  0  0  0  0  0  0  0
  135.9883   48.4006   33.3369 C   0  0  0  0  0  0  0  0  0  0  0  0
  131.8204   53.9701   31.8008 C   0  0  0  0  0  0  0  0  0  0  0  0
  132.9940   53.5102   32.3303 N   0  0  0  0  0  0  0  0  0  0  0  0
  135.3783   47.1797   32.7298 C   0  0  0  0  0  0  0  0  0  0  0  0
  135.8905   52.7769   32.6009 O   0  0  0  0  0  0  0  0  0  0  0  0
  136.6677   49.3365   32.3653 C   0  0  0  0  0  0  0  0  0  0  0  0
  134.1864   46.8956   32.1394 O   0  0  0  0  0  0  0  0  0  0  0  0
  136.1343   45.9475   33.0435 C   0  0  0  0  0  0  0  0  0  0  0  0
  134.0330   53.8998   31.5919 C   0  0  0  0  0  0  0  0  0  0  0  0
  132.1456   54.8950   30.8007 C   0  0  0  0  0  0  0  0  0  0  0  0
  128.6205   52.2455   31.0238 C   0  0  0  0  0  0  0  0  0  0  0  0
  129.1042   51.2330   32.2258 S   0  0  0  0  0  0  0  0  0  0  0  0
  136.2038   54.0297   30.6171 C   0  0  0  0  0  0  0  0  0  0  0  0
  127.3576   52.0063   28.5405 C   0  0  0  0  0  0  0  0  0  0  0  0
  137.4467   53.6801   30.4667 O   0  0  0  0  0  0  0  0  0  0  0  0
  130.6066   51.9201   32.5550 C   0  0  0  0  0  0  0  0  0  0  0  0
  129.5284   53.4039   30.9434 C   0  0  0  0  0  0  0  0  0  0  0  0
  136.8964   50.7344   33.1366 C   0  0  0  0  0  0  0  0  0  0  0  0
  134.4080   55.4028   29.8000 C   0  0  0  0  0  0  0  0  0  0  0  0
  130.5737   53.3577   32.0309 C   0  0  0  0  0  0  0  0  0  0  0  0
  135.3352   53.5631   31.6173 C   0  0  0  0  0  0  0  0  0  0  0  0
  136.8071   51.8149   32.0714 C   0  0  0  0  0  0  0  0  0  0  0  0
  135.7115   54.9835   29.7682 C   0  0  0  0  0  0  0  0  0  0  0  0
  1 11  2  0
  1 12  1  0
  1 21  1  0
  2 13  1  0
  2 16  1  0
  3  6  1  0
  3  8  1  0
  4  5  1  0
  4 12  1  0
  4 22  1  0
  5 11  1  0
  6  9  1  0
  6 10  1  0
  7 23  1  0
  7 24  1  0
  8 20  1  0
 11 23  1  0
 13 14  1  0
 13 19  1  0
 14 18  1  0
 15 17  1  0
 15 23  2  0
 15 25  1  0
 18 22  1  0
 19 22  1  0
 20 24  1  0
 21 25  2  0
M  END
>  <ID>  (1) 
conformer_0

$$$$
