
     RDKit          3D

 13 15  0  0  0  0  0  0  0  0999 V2000
  133.5323   55.8461   30.4139 C   0  0  0  0  0  0  0  0  0  0  0  0
  131.1998   53.5469   31.7674 C   0  0  0  0  0  0  0  0  0  0  0  0
  131.8175   52.5538   32.6852 C   0  0  0  0  0  0  0  0  0  0  0  0
  133.3744   53.1558   32.8211 C   0  0  0  0  0  0  0  0  0  0  0  0
  128.8940   52.5779   31.6019 C   0  0  0  0  0  0  0  0  0  0  0  0
  133.9750   56.9150   29.6035 C   0  0  0  0  0  0  0  0  0  0  0  0
  132.1913   54.3764   31.2708 N   0  0  0  0  0  0  0  0  0  0  0  0
  132.3029   55.3557   30.3760 N   0  0  0  0  0  0  0  0  0  0  0  0
  129.4396   51.3565   32.2646 C   0  0  0  0  0  0  0  0  0  0  0  0
  134.2128   55.1730   31.3360 N   0  0  0  0  0  0  0  0  0  0  0  0
  129.8932   53.5668   31.2012 C   0  0  0  0  0  0  0  0  0  0  0  0
  133.3764   54.2364   31.8609 C   0  0  0  0  0  0  0  0  0  0  0  0
  130.8465   51.3852   32.7106 C   0  0  0  0  0  0  0  0  0  0  0  0
  1  6  1  0
  1  8  2  0
  1 10  1  0
  2  3  1  0
  2  7  1  0
  2 11  2  0
  3  4  1  0
  3 13  1  0
  4 12  1  0
  5  9  2  0
  5 11  1  0
  7  8  1  0
  7 12  1  0
  9 13  1  0
 10 12  2  0
M  END
>  <ID>  (1) 
conformer_0

$$$$
