
     RDKit          3D

 29 30  0  0  0  0  0  0  0  0999 V2000
  131.5353   55.5741   29.2431 O   0  0  0  0  0  0  0  0  0  0  0  0
  134.9365   56.2865   26.5129 O   0  0  0  0  0  0  0  0  0  0  0  0
  131.9754   54.2493   31.0640 C   0  0  0  0  0  0  0  0  0  0  0  0
  133.1220   54.9429   26.9338 O   0  0  0  0  0  0  0  0  0  0  0  0
  130.8348   52.1713   32.6183 O   0  0  0  0  0  0  0  0  0  0  0  0
  135.6843   52.4313   32.9175 N   0  0  0  0  0  0  0  0  0  0  0  0
  137.0906   50.5954   32.1939 C   0  0  0  0  0  0  0  0  0  0  0  0
  134.8304   55.6185   30.7302 C   0  0  0  0  0  0  0  0  0  0  0  0
  136.0007   51.0821   33.2205 C   0  0  0  0  0  0  0  0  0  0  0  0
  138.0013   47.1369   32.8315 C   0  0  0  0  0  0  0  0  0  0  0  0
  138.0041   49.5977   32.9791 C   0  0  0  0  0  0  0  0  0  0  0  0
  133.7376   55.6961   29.8746 C   0  0  0  0  0  0  0  0  0  0  0  0
  134.0617   53.9652   32.3191 C   0  0  0  0  0  0  0  0  0  0  0  0
  129.9924   52.9005   31.6760 C   0  0  0  0  0  0  0  0  0  0  0  0
  133.9056   55.8612   27.3426 C   0  0  0  0  0  0  0  0  0  0  0  0
  134.0061   56.5175   28.6300 C   0  0  0  0  0  0  0  0  0  0  0  0
  136.2814   55.8844   26.9844 C   0  0  0  0  0  0  0  0  0  0  0  0
  132.6975   53.6540   32.0788 C   0  0  0  0  0  0  0  0  0  0  0  0
  134.8893   54.8411   31.7020 C   0  0  0  0  0  0  0  0  0  0  0  0
  129.8281   50.9301   32.6579 C   0  0  0  0  0  0  0  0  0  0  0  0
  137.2426   48.3592   33.1223 N   0  0  0  0  0  0  0  0  0  0  0  0
  128.8452   51.8435   31.7617 C   0  0  0  0  0  0  0  0  0  0  0  0
  132.0270   52.7825   32.9093 N   0  0  0  0  0  0  0  0  0  0  0  0
  136.1938   54.6242   27.7982 O   0  0  0  0  0  0  0  0  0  0  0  0
  134.7177   53.2817   33.4724 C   0  0  0  0  0  0  0  0  0  0  0  0
  135.8080   48.1781   32.9332 C   0  0  0  0  0  0  0  0  0  0  0  0
  132.4727   55.1409   30.0686 C   0  0  0  0  0  0  0  0  0  0  0  0
  130.5280   53.9970   31.0177 C   0  0  0  0  0  0  0  0  0  0  0  0
  135.6188   46.6176   33.1964 Cl  0  0  0  0  0  0  0  0  0  0  0  0
  1 27  1  0
  2 15  1  0
  2 17  1  0
  3 18  1  0
  3 27  1  0
  3 28  1  0
  4 15  2  0
  5 14  1  0
  5 23  1  0
  6  9  1  0
  6 25  1  0
  7  9  1  0
  7 11  1  0
  8 12  1  0
  8 19  2  0
 10 21  1  0
 11 21  1  0
 12 16  1  0
 12 27  2  0
 13 18  1  0
 13 19  1  0
 13 25  1  0
 14 22  1  0
 14 28  1  0
 15 16  1  0
 17 24  1  0
 18 23  2  0
 20 22  1  0
 21 26  1  0
 26 29  1  0
M  END
>  <ID>  (1) 
conformer_0

$$$$
