
     RDKit          3D

 18 20  0  0  0  0  0  0  0  0999 V2000
  132.5074   54.6639   31.0063 C   0  0  0  0  0  0  0  0  0  0  0  0
  130.8153   52.2735   32.2949 C   0  0  0  0  0  0  0  0  0  0  0  0
  134.4540   57.5521   28.5204 C   0  0  0  0  0  0  0  0  0  0  0  0
  130.4332   53.2429   31.3575 C   0  0  0  0  0  0  0  0  0  0  0  0
  131.1570   54.3056   30.8267 C   0  0  0  0  0  0  0  0  0  0  0  0
  128.4460   51.9611   31.0232 C   0  0  0  0  0  0  0  0  0  0  0  0
  133.0831   55.5765   30.1663 N   0  0  0  0  0  0  0  0  0  0  0  0
  135.1402   56.6160   29.2972 O   0  0  0  0  0  0  0  0  0  0  0  0
  134.4025   55.8948   30.2263 C   0  0  0  0  0  0  0  0  0  0  0  0
  129.1606   53.1024   30.7138 C   0  0  0  0  0  0  0  0  0  0  0  0
  132.9806   53.1431   32.9763 C   0  0  0  0  0  0  0  0  0  0  0  0
  129.8566   51.4994   32.8414 N   0  0  0  0  0  0  0  0  0  0  0  0
  128.5899   51.4188   32.3172 C   0  0  0  0  0  0  0  0  0  0  0  0
  131.9907   52.3323   33.0134 N   0  0  0  0  0  0  0  0  0  0  0  0
  133.1047   57.7146   28.7850 O   0  0  0  0  0  0  0  0  0  0  0  0
  133.3457   54.1171   32.0242 C   0  0  0  0  0  0  0  0  0  0  0  0
  135.1328   55.4305   31.2686 C   0  0  0  0  0  0  0  0  0  0  0  0
  134.6309   54.5769   32.1248 C   0  0  0  0  0  0  0  0  0  0  0  0
  1  5  2  0
  1  7  1  0
  1 16  1  0
  2  4  1  0
  2 12  2  0
  2 14  1  0
  3  8  1  0
  3 15  1  0
  4  5  1  0
  4 10  2  0
  6 10  1  0
  6 13  1  0
  7  9  2  0
  8  9  1  0
  9 17  1  0
 11 14  2  0
 11 16  1  0
 12 13  1  0
 16 18  1  0
 17 18  2  0
M  END
>  <ID>  (1) 
conformer_0

$$$$
