
     RDKit          3D

 20 22  0  0  0  0  0  0  0  0999 V2000
  128.9567   51.3185   31.7192 O   0  0  0  0  0  0  0  0  0  0  0  0
  134.2639   54.2942   32.5133 N   0  0  0  0  0  0  0  0  0  0  0  0
  131.4703   51.8084   32.8662 C   0  0  0  0  0  0  0  0  0  0  0  0
  129.7626   53.5984   31.9146 C   0  0  0  0  0  0  0  0  0  0  0  0
  128.9757   52.6231   31.2626 C   0  0  0  0  0  0  0  0  0  0  0  0
  133.3109   53.5547   33.0223 C   0  0  0  0  0  0  0  0  0  0  0  0
  135.1788   55.4481   30.6424 N   0  0  0  0  0  0  0  0  0  0  0  0
  131.5725   54.7599   30.7544 C   0  0  0  0  0  0  0  0  0  0  0  0
  135.5590   56.4797   28.5317 N   0  0  0  0  0  0  0  0  0  0  0  0
  134.7758   55.9503   29.4729 C   0  0  0  0  0  0  0  0  0  0  0  0
  132.1022   53.1336   32.4837 C   0  0  0  0  0  0  0  0  0  0  0  0
  133.3371   55.7663   29.3547 S   0  0  0  0  0  0  0  0  0  0  0  0
  127.6540   51.6804   29.5464 O   0  0  0  0  0  0  0  0  0  0  0  0
  132.9489   55.0632   30.5664 C   0  0  0  0  0  0  0  0  0  0  0  0
  134.1157   54.8858   31.3214 C   0  0  0  0  0  0  0  0  0  0  0  0
  131.1446   53.8209   31.6655 C   0  0  0  0  0  0  0  0  0  0  0  0
  130.1050   51.0932   32.6122 C   0  0  0  0  0  0  0  0  0  0  0  0
  126.8312   50.7635   27.4079 C   0  0  0  0  0  0  0  0  0  0  0  0
  127.0977   52.0047   28.1949 C   0  0  0  0  0  0  0  0  0  0  0  0
  128.3898   52.8151   29.9757 C   0  0  0  0  0  0  0  0  0  0  0  0
  1  5  1  0
  1 17  1  0
  2  6  2  0
  2 15  1  0
  3 11  2  0
  3 17  1  0
  4  5  1  0
  4 16  1  0
  5 20  1  0
  6 11  1  0
  7 10  1  0
  7 15  1  0
  8 14  1  0
  8 16  2  0
  9 10  2  0
 10 12  1  0
 11 16  1  0
 12 14  1  0
 13 19  1  0
 13 20  1  0
 14 15  2  0
 18 19  1  0
M  END
>  <ID>  (1) 
conformer_0

$$$$
