
     RDKit          3D

 25 27  0  0  0  0  0  0  0  0999 V2000
  131.1943   54.0409   31.0444 C   0  0  0  0  0  0  0  0  0  0  0  0
  129.9497   53.6118   29.1323 N   0  0  0  0  0  0  0  0  0  0  0  0
  128.9386   53.0521   28.4353 C   0  0  0  0  0  0  0  0  0  0  0  0
  130.1529   53.3382   30.4034 C   0  0  0  0  0  0  0  0  0  0  0  0
  135.0210   46.9478   32.3527 C   0  0  0  0  0  0  0  0  0  0  0  0
  129.8306   51.9500   32.2834 C   0  0  0  0  0  0  0  0  0  0  0  0
  134.7691   55.3033   32.8034 C   0  0  0  0  0  0  0  0  0  0  0  0
  135.5470   54.0562   32.9740 C   0  0  0  0  0  0  0  0  0  0  0  0
  134.7691   45.5777   30.3285 C   0  0  0  0  0  0  0  0  0  0  0  0
  129.2607   50.6856   32.8217 C   0  0  0  0  0  0  0  0  0  0  0  0
  130.8102   52.6470   32.8574 N   0  0  0  0  0  0  0  0  0  0  0  0
  131.5741   53.5974   32.2795 C   0  0  0  0  0  0  0  0  0  0  0  0
  136.2905   51.8204   33.3323 C   0  0  0  0  0  0  0  0  0  0  0  0
  134.6480   46.9115   30.9013 C   0  0  0  0  0  0  0  0  0  0  0  0
  132.9379   55.7542   31.1413 C   0  0  0  0  0  0  0  0  0  0  0  0
  128.3624   51.7886   30.3920 N   0  0  0  0  0  0  0  0  0  0  0  0
  133.4790   55.0521   32.2018 C   0  0  0  0  0  0  0  0  0  0  0  0
  135.3390   48.2341   32.9028 N   0  0  0  0  0  0  0  0  0  0  0  0
  132.8236   53.9559   32.6488 N   0  0  0  0  0  0  0  0  0  0  0  0
  136.1509   49.4006   32.6089 C   0  0  0  0  0  0  0  0  0  0  0  0
  127.9644   52.3379   29.2128 C   0  0  0  0  0  0  0  0  0  0  0  0
  129.3900   52.3782   30.9876 C   0  0  0  0  0  0  0  0  0  0  0  0
  136.1021   50.4178   33.7183 C   0  0  0  0  0  0  0  0  0  0  0  0
  131.8094   55.1436   30.4527 C   0  0  0  0  0  0  0  0  0  0  0  0
  135.0329   52.7227   33.4065 C   0  0  0  0  0  0  0  0  0  0  0  0
  1  4  1  0
  1 12  1  0
  1 24  2  0
  2  3  1  0
  2  4  2  0
  3 21  1  0
  4 22  1  0
  5 14  1  0
  5 18  1  0
  6 10  1  0
  6 11  2  0
  6 22  1  0
  7  8  1  0
  7 17  1  0
  8 25  1  0
  9 14  1  0
 11 12  1  0
 12 19  1  0
 13 23  1  0
 13 25  1  0
 15 17  1  0
 15 24  1  0
 16 21  1  0
 16 22  2  0
 17 19  2  0
 18 20  1  0
 20 23  1  0
M  END
>  <ID>  (1) 
conformer_0

$$$$
