
     RDKit          3D

 11 12  0  0  0  0  0  0  0  0999 V2000
  130.4845   53.7019   31.2182 C   0  0  0  0  0  0  0  0  0  0  0  0
  129.8636   51.5061   32.2947 C   0  0  0  0  0  0  0  0  0  0  0  0
  133.4164   55.9125   30.4348 C   0  0  0  0  0  0  0  0  0  0  0  0
  133.8560   54.4509   32.2201 C   0  0  0  0  0  0  0  0  0  0  0  0
  130.6983   52.6453   32.2326 N   0  0  0  0  0  0  0  0  0  0  0  0
  132.0216   52.7587   32.7560 C   0  0  0  0  0  0  0  0  0  0  0  0
  131.7343   54.3680   31.1108 C   0  0  0  0  0  0  0  0  0  0  0  0
  132.1462   55.3711   30.2670 C   0  0  0  0  0  0  0  0  0  0  0  0
  134.2916   55.4798   31.4143 N   0  0  0  0  0  0  0  0  0  0  0  0
  132.6144   53.8718   32.0507 C   0  0  0  0  0  0  0  0  0  0  0  0
  128.5679   51.8269   31.5922 N   0  0  0  0  0  0  0  0  0  0  0  0
  1  5  1  0
  1  7  1  0
  2  5  1  0
  2 11  1  0
  3  8  1  0
  3  9  2  0
  4  9  1  0
  4 10  2  0
  5  6  1  0
  6 10  1  0
  7  8  2  0
  7 10  1  0
M  END
>  <ID>  (1) 
conformer_0

$$$$
