
     RDKit          3D

 15 17  0  0  0  0  0  0  0  0999 V2000
  133.6996   53.3359   33.3744 C   0  0  0  0  0  0  0  0  0  0  0  0
  128.9487   51.6963   31.8736 C   0  0  0  0  0  0  0  0  0  0  0  0
  129.8506   51.0613   32.7155 C   0  0  0  0  0  0  0  0  0  0  0  0
  130.6621   53.2649   31.2691 C   0  0  0  0  0  0  0  0  0  0  0  0
  134.8817   55.1937   31.2108 O   0  0  0  0  0  0  0  0  0  0  0  0
  133.7103   55.1424   30.6041 C   0  0  0  0  0  0  0  0  0  0  0  0
  132.7825   53.4015   32.3426 C   0  0  0  0  0  0  0  0  0  0  0  0
  131.4973   52.7096   32.2837 C   0  0  0  0  0  0  0  0  0  0  0  0
  131.4292   54.2086   30.5321 C   0  0  0  0  0  0  0  0  0  0  0  0
  133.4362   55.8584   29.4616 C   0  0  0  0  0  0  0  0  0  0  0  0
  132.7363   54.2970   31.1591 C   0  0  0  0  0  0  0  0  0  0  0  0
  131.0496   51.6323   32.9474 N   0  0  0  0  0  0  0  0  0  0  0  0
  129.3876   52.8125   31.1986 C   0  0  0  0  0  0  0  0  0  0  0  0
  132.1549   55.7693   28.8880 C   0  0  0  0  0  0  0  0  0  0  0  0
  131.1898   54.9645   29.4497 C   0  0  0  0  0  0  0  0  0  0  0  0
  1  7  1  0
  2  3  2  0
  2 13  1  0
  3 12  1  0
  4  8  1  0
  4  9  1  0
  4 13  2  0
  5  6  1  0
  6 10  2  0
  6 11  1  0
  7  8  1  0
  7 11  2  0
  8 12  2  0
  9 11  1  0
  9 15  2  0
 10 14  1  0
 14 15  1  0
M  END
>  <ID>  (1) 
conformer_0

$$$$
