
     RDKit          3D

 36 40  0  0  0  0  0  0  0  0999 V2000
  136.6952   50.5207   33.4090 C   0  0  0  0  0  0  0  0  0  0  0  0
  132.0728   57.8904   28.2332 C   0  0  0  0  0  0  0  0  0  0  0  0
  129.8336   52.7125   31.2876 N   0  0  0  0  0  0  0  0  0  0  0  0
  133.1179   53.5742   32.3393 C   0  0  0  0  0  0  0  0  0  0  0  0
  134.7989   47.1223   32.0684 C   0  0  0  0  0  0  0  0  0  0  0  0
  129.1309   50.6964   32.7255 C   0  0  0  0  0  0  0  0  0  0  0  0
  130.8581   53.6805   31.3500 N   0  0  0  0  0  0  0  0  0  0  0  0
  130.0439   51.8129   32.3283 C   0  0  0  0  0  0  0  0  0  0  0  0
  131.2518   52.1343   32.9131 N   0  0  0  0  0  0  0  0  0  0  0  0
  136.1659   51.7638   33.8141 N   0  0  0  0  0  0  0  0  0  0  0  0
  128.9084   53.0658   29.0609 N   0  0  0  0  0  0  0  0  0  0  0  0
  133.1796   54.5990   31.5929 N   0  0  0  0  0  0  0  0  0  0  0  0
  136.5155   45.6139   32.2592 C   0  0  0  0  0  0  0  0  0  0  0  0
  136.8760   48.0897   33.2551 C   0  0  0  0  0  0  0  0  0  0  0  0
  127.3188   51.4989   29.0940 C   0  0  0  0  0  0  0  0  0  0  0  0
  133.8312   56.1139   30.0174 C   0  0  0  0  0  0  0  0  0  0  0  0
  135.5927   45.1371   31.1580 C   0  0  0  0  0  0  0  0  0  0  0  0
  127.9980   51.5049   30.2835 N   0  0  0  0  0  0  0  0  0  0  0  0
  127.8740   52.4486   28.2735 C   0  0  0  0  0  0  0  0  0  0  0  0
  132.3793   57.9846   29.5288 C   0  0  0  0  0  0  0  0  0  0  0  0
  136.6962   52.8932   32.8809 C   0  0  0  0  0  0  0  0  0  0  0  0
  136.0306   49.3244   33.5586 N   0  0  0  0  0  0  0  0  0  0  0  0
  137.7442   50.5506   32.8643 O   0  0  0  0  0  0  0  0  0  0  0  0
  134.2570   53.0957   32.8624 C   0  0  0  0  0  0  0  0  0  0  0  0
  133.9924   55.6946   28.7259 C   0  0  0  0  0  0  0  0  0  0  0  0
  133.4564   56.0705   27.6563 C   0  0  0  0  0  0  0  0  0  0  0  0
  128.9407   52.4808   30.2617 C   0  0  0  0  0  0  0  0  0  0  0  0
  132.0392   56.9662   26.0842 O   0  0  0  0  0  0  0  0  0  0  0  0
  133.0455   57.1973   30.3380 C   0  0  0  0  0  0  0  0  0  0  0  0
  135.4358   53.5646   32.3848 C   0  0  0  0  0  0  0  0  0  0  0  0
  135.4189   54.5573   31.4184 C   0  0  0  0  0  0  0  0  0  0  0  0
  131.7657   53.2150   32.2318 C   0  0  0  0  0  0  0  0  0  0  0  0
  136.2519   47.1417   32.2802 C   0  0  0  0  0  0  0  0  0  0  0  0
  134.5201   46.0695   31.1395 N   0  0  0  0  0  0  0  0  0  0  0  0
  134.2343   55.1264   31.0252 C   0  0  0  0  0  0  0  0  0  0  0  0
  132.4972   56.9837   27.3025 C   0  0  0  0  0  0  0  0  0  0  0  0
  1 10  1  0
  1 22  1  0
  1 23  2  0
  2 20  1  0
  2 36  2  0
  3  7  1  0
  3  8  1  0
  3 27  1  0
  4 12  1  0
  4 24  1  0
  4 32  2  3
  5 33  1  0
  5 34  1  0
  6  8  1  0
  7 32  1  0
  8  9  2  0
  9 32  1  0
 10 21  1  0
 11 19  1  0
 11 27  2  0
 12 35  2  0
 13 17  1  0
 13 33  1  0
 14 22  1  0
 14 33  1  0
 15 18  1  0
 15 19  1  0
 16 25  1  0
 16 29  1  0
 16 35  1  0
 17 34  1  0
 18 27  1  0
 20 29  2  0
 21 30  1  0
 24 30  2  0
 25 26  2  0
 26 36  1  0
 28 36  1  0
 30 31  1  0
 31 35  1  0
M  END
>  <ID>  (1) 
conformer_0

$$$$
