
     RDKit          3D

 31 34  0  0  0  0  0  0  0  0999 V2000
  134.9959   53.2883   33.1005 C   0  0  0  0  0  0  0  0  0  0  0  0
  128.3974   51.7164   30.8375 O   0  0  0  0  0  0  0  0  0  0  0  0
  133.7347   56.2357   30.0429 C   0  0  0  0  0  0  0  0  0  0  0  0
  136.1917   49.4982   32.6997 C   0  0  0  0  0  0  0  0  0  0  0  0
  132.8426   56.3471   27.9319 C   0  0  0  0  0  0  0  0  0  0  0  0
  135.2613   56.7845   28.2248 C   0  0  0  0  0  0  0  0  0  0  0  0
  129.2650   50.5028   32.9191 F   0  0  0  0  0  0  0  0  0  0  0  0
  136.3059   46.2999   32.0079 O   0  0  0  0  0  0  0  0  0  0  0  0
  133.2973   54.6357   32.1332 C   0  0  0  0  0  0  0  0  0  0  0  0
  134.9775   56.8438   29.6800 C   0  0  0  0  0  0  0  0  0  0  0  0
  133.0896   55.5103   29.1363 C   0  0  0  0  0  0  0  0  0  0  0  0
  134.1554   46.8372   32.2444 O   0  0  0  0  0  0  0  0  0  0  0  0
  137.0309   50.3325   33.7618 C   0  0  0  0  0  0  0  0  0  0  0  0
  133.0135   57.7347   28.1711 C   0  0  0  0  0  0  0  0  0  0  0  0
  134.5992   56.4609   31.0456 C   0  0  0  0  0  0  0  0  0  0  0  0
  133.5717   53.4314   32.8113 C   0  0  0  0  0  0  0  0  0  0  0  0
  131.1176   53.7950   31.8755 C   0  0  0  0  0  0  0  0  0  0  0  0
  130.1494   51.6380   32.4556 C   0  0  0  0  0  0  0  0  0  0  0  0
  136.8038   51.7321   33.4548 O   0  0  0  0  0  0  0  0  0  0  0  0
  132.1331   54.7263   31.3092 C   0  0  0  0  0  0  0  0  0  0  0  0
  129.8211   53.6806   31.2200 C   0  0  0  0  0  0  0  0  0  0  0  0
  129.1569   52.4356   31.6072 C   0  0  0  0  0  0  0  0  0  0  0  0
  135.3723   47.0839   32.4614 C   0  0  0  0  0  0  0  0  0  0  0  0
  131.2428   52.6277   32.7703 C   0  0  0  0  0  0  0  0  0  0  0  0
  134.1475   55.7949   32.3059 S   0  0  0  0  0  0  0  0  0  0  0  0
  132.4547   55.7436   30.2812 N   0  0  0  0  0  0  0  0  0  0  0  0
  135.3583   51.8711   33.3309 C   0  0  0  0  0  0  0  0  0  0  0  0
  135.8380   48.1633   33.3452 C   0  0  0  0  0  0  0  0  0  0  0  0
  132.6394   52.3754   33.0666 C   0  0  0  0  0  0  0  0  0  0  0  0
  135.9904   54.0101   32.6861 O   0  0  0  0  0  0  0  0  0  0  0  0
  134.0033   57.0336   27.4641 C   0  0  0  0  0  0  0  0  0  0  0  0
  1 16  1  0
  1 27  1  0
  1 30  1  0
  2 22  1  0
  3 10  1  0
  3 11  1  0
  3 15  1  0
  4 13  1  0
  4 28  1  0
  5 11  1  0
  5 14  1  0
  6 10  1  0
  6 31  1  0
  7 18  1  0
  8 23  2  0
  9 16  1  0
  9 20  1  0
  9 25  1  0
 11 26  1  0
 12 23  1  0
 13 19  1  0
 14 31  1  0
 15 25  1  0
 16 29  2  0
 17 20  1  0
 17 21  1  0
 17 24  1  0
 18 22  1  0
 18 24  1  0
 19 27  1  0
 20 26  1  0
 21 22  1  0
 23 28  1  0
 24 29  1  0
M  END
>  <ID>  (1) 
conformer_0

$$$$
