
     RDKit          3D

 16 18  0  0  0  0  0  0  0  0999 V2000
  128.4822   52.6222   30.3159 N   0  0  0  0  0  0  0  0  0  0  0  0
  131.5482   54.2573   31.3953 N   0  0  0  0  0  0  0  0  0  0  0  0
  136.3765   53.7358   32.2265 O   0  0  0  0  0  0  0  0  0  0  0  0
  133.7693   56.0427   31.4127 O   0  0  0  0  0  0  0  0  0  0  0  0
  134.3030   52.7549   33.1839 C   0  0  0  0  0  0  0  0  0  0  0  0
  130.4796   52.4486   32.0741 C   0  0  0  0  0  0  0  0  0  0  0  0
  129.4442   53.5182   30.2518 C   0  0  0  0  0  0  0  0  0  0  0  0
  131.6695   52.5052   32.8398 C   0  0  0  0  0  0  0  0  0  0  0  0
  135.5974   54.3000   31.0727 C   0  0  0  0  0  0  0  0  0  0  0  0
  135.7339   52.6102   32.8116 C   0  0  0  0  0  0  0  0  0  0  0  0
  129.4775   51.5729   32.1544 N   0  0  0  0  0  0  0  0  0  0  0  0
  130.4666   53.4721   31.1583 C   0  0  0  0  0  0  0  0  0  0  0  0
  133.6566   53.9686   32.6479 C   0  0  0  0  0  0  0  0  0  0  0  0
  134.3066   54.8745   31.7090 C   0  0  0  0  0  0  0  0  0  0  0  0
  128.5005   51.6901   31.2752 C   0  0  0  0  0  0  0  0  0  0  0  0
  132.2407   53.7740   32.4785 C   0  0  0  0  0  0  0  0  0  0  0  0
  1  7  2  0
  1 15  1  0
  2 12  1  0
  2 16  1  0
  3  9  1  0
  3 10  1  0
  4 14  1  0
  5 10  1  0
  5 13  1  0
  6  8  1  0
  6 11  1  0
  6 12  2  0
  7 12  1  0
  8 16  1  0
  9 14  1  0
 11 15  2  0
 13 14  1  0
 13 16  1  0
M  END
>  <ID>  (1) 
conformer_0

$$$$
