
     RDKit          3D

 16 17  0  0  0  0  0  0  0  0999 V2000
  131.9476   52.1855   32.9139 C   0  0  0  0  0  0  0  0  0  0  0  0
  130.2139   53.5297   31.1111 C   0  0  0  0  0  0  0  0  0  0  0  0
  134.4368   55.7360   29.6231 C   0  0  0  0  0  0  0  0  0  0  0  0
  128.1386   52.6227   31.0643 F   0  0  0  0  0  0  0  0  0  0  0  0
  133.6778   55.0309   30.5404 C   0  0  0  0  0  0  0  0  0  0  0  0
  132.3555   56.4310   28.6447 C   0  0  0  0  0  0  0  0  0  0  0  0
  131.6658   55.6776   29.5713 C   0  0  0  0  0  0  0  0  0  0  0  0
  132.2834   54.9076   30.5305 C   0  0  0  0  0  0  0  0  0  0  0  0
  129.7296   51.4346   32.2387 C   0  0  0  0  0  0  0  0  0  0  0  0
  133.7605   56.4554   28.6228 C   0  0  0  0  0  0  0  0  0  0  0  0
  129.4062   52.5245   31.4778 C   0  0  0  0  0  0  0  0  0  0  0  0
  131.5147   53.9422   31.3237 C   0  0  0  0  0  0  0  0  0  0  0  0
  134.4632   53.6158   33.1000 C   0  0  0  0  0  0  0  0  0  0  0  0
  132.2058   53.4106   32.4058 C   0  0  0  0  0  0  0  0  0  0  0  0
  133.1494   54.2430   33.0153 O   0  0  0  0  0  0  0  0  0  0  0  0
  130.9468   51.3324   32.8467 C   0  0  0  0  0  0  0  0  0  0  0  0
  1 14  1  0
  1 16  2  0
  2 11  2  0
  2 12  1  0
  3  5  2  0
  3 10  1  0
  4 11  1  0
  5  8  1  0
  6  7  1  0
  6 10  2  0
  7  8  2  0
  8 12  1  0
  9 11  1  0
  9 16  1  0
 12 14  1  0
 13 15  1  0
 14 15  1  0
M  END
>  <ID>  (1) 
conformer_0

$$$$
