
     RDKit          3D

 19 22  0  0  0  0  0  0  0  0999 V2000
  129.5986   50.5645   32.6157 C   0  0  0  0  0  0  0  0  0  0  0  0
  134.3810   56.4518   29.1520 C   0  0  0  0  0  0  0  0  0  0  0  0
  130.7596   51.3155   32.6595 C   0  0  0  0  0  0  0  0  0  0  0  0
  128.4619   51.4621   32.1731 C   0  0  0  0  0  0  0  0  0  0  0  0
  131.1787   53.5629   31.5721 C   0  0  0  0  0  0  0  0  0  0  0  0
  133.9056   55.7066   30.2490 C   0  0  0  0  0  0  0  0  0  0  0  0
  128.9981   52.3975   31.2640 O   0  0  0  0  0  0  0  0  0  0  0  0
  133.6295   53.5987   32.9163 C   0  0  0  0  0  0  0  0  0  0  0  0
  133.4216   54.4202   31.8215 C   0  0  0  0  0  0  0  0  0  0  0  0
  134.4146   55.1823   31.3059 N   0  0  0  0  0  0  0  0  0  0  0  0
  132.1698   54.4819   31.1541 C   0  0  0  0  0  0  0  0  0  0  0  0
  132.4010   55.4375   30.1234 C   0  0  0  0  0  0  0  0  0  0  0  0
  133.2652   56.8445   28.3799 C   0  0  0  0  0  0  0  0  0  0  0  0
  134.6727   53.8422   33.6715 O   0  0  0  0  0  0  0  0  0  0  0  0
  131.5280   52.5402   32.4501 C   0  0  0  0  0  0  0  0  0  0  0  0
  129.7566   53.6043   31.1650 C   0  0  0  0  0  0  0  0  0  0  0  0
  135.6308   56.5780   28.9406 O   0  0  0  0  0  0  0  0  0  0  0  0
  132.0633   56.2310   28.9807 C   0  0  0  0  0  0  0  0  0  0  0  0
  132.7003   52.5770   33.1900 C   0  0  0  0  0  0  0  0  0  0  0  0
  1  3  1  0
  1  4  1  0
  2  6  1  0
  2 13  1  0
  2 17  2  0
  3 15  1  0
  4  7  1  0
  5 11  1  0
  5 15  1  0
  5 16  1  0
  6 10  1  0
  6 12  2  0
  7 16  1  0
  8  9  1  0
  8 14  1  0
  8 19  2  0
  9 10  1  0
  9 11  2  0
 11 12  1  0
 12 18  1  0
 13 18  1  0
 15 19  1  0
M  END
>  <ID>  (1) 
conformer_0

$$$$
