
     RDKit          3D

 17 18  0  0  0  0  0  0  0  0999 V2000
  133.2115   52.9157   32.9915 C   0  0  0  0  0  0  0  0  0  0  0  0
  134.2607   55.1921   32.5080 C   0  0  0  0  0  0  0  0  0  0  0  0
  135.3064   55.1252   28.1242 C   0  0  0  0  0  0  0  0  0  0  0  0
  132.5418   55.6981   30.8332 C   0  0  0  0  0  0  0  0  0  0  0  0
  133.9010   56.1468   31.3780 C   0  0  0  0  0  0  0  0  0  0  0  0
  131.1072   53.6851   31.4369 C   0  0  0  0  0  0  0  0  0  0  0  0
  133.4420   56.5258   28.7620 O   0  0  0  0  0  0  0  0  0  0  0  0
  132.2029   55.9279   29.4372 C   0  0  0  0  0  0  0  0  0  0  0  0
  134.3848   52.5199   33.7014 C   0  0  0  0  0  0  0  0  0  0  0  0
  129.7719   51.8835   32.0230 N   0  0  0  0  0  0  0  0  0  0  0  0
  132.0694   52.1052   32.9229 C   0  0  0  0  0  0  0  0  0  0  0  0
  133.8431   55.5393   27.6912 C   0  0  0  0  0  0  0  0  0  0  0  0
  129.2843   50.7413   32.6909 C   0  0  0  0  0  0  0  0  0  0  0  0
  128.7392   52.4686   31.1370 C   0  0  0  0  0  0  0  0  0  0  0  0
  132.2355   54.4588   31.5009 C   0  0  0  0  0  0  0  0  0  0  0  0
  133.2469   54.1371   32.3603 C   0  0  0  0  0  0  0  0  0  0  0  0
  130.9966   52.5403   32.1426 C   0  0  0  0  0  0  0  0  0  0  0  0
  1  9  1  0
  1 11  2  0
  1 16  1  0
  2  5  1  0
  2 16  1  0
  3 12  1  0
  4  5  1  0
  4  8  1  0
  4 15  1  0
  6 15  1  0
  6 17  2  0
  7  8  1  0
  7 12  1  0
 10 13  1  0
 10 14  1  0
 10 17  1  0
 11 17  1  0
 15 16  2  0
M  END
>  <ID>  (1) 
conformer_0

$$$$
