
     RDKit          3D

 14 15  0  0  0  0  0  0  0  0999 V2000
  128.7158   52.7760   31.2674 C   0  0  0  0  0  0  0  0  0  0  0  0
  135.1626   55.9306   30.7186 O   0  0  0  0  0  0  0  0  0  0  0  0
  135.7934   54.0178   31.9607 C   0  0  0  0  0  0  0  0  0  0  0  0
  133.1037   53.4175   32.3060 C   0  0  0  0  0  0  0  0  0  0  0  0
  131.4744   51.7866   32.8691 C   0  0  0  0  0  0  0  0  0  0  0  0
  130.8448   54.0922   31.8032 C   0  0  0  0  0  0  0  0  0  0  0  0
  134.8130   54.8668   31.3926 C   0  0  0  0  0  0  0  0  0  0  0  0
  131.7073   53.1141   32.4390 N   0  0  0  0  0  0  0  0  0  0  0  0
  128.8744   51.5443   32.0658 C   0  0  0  0  0  0  0  0  0  0  0  0
  133.4807   54.5362   31.6125 C   0  0  0  0  0  0  0  0  0  0  0  0
  130.2084   51.0978   32.5523 C   0  0  0  0  0  0  0  0  0  0  0  0
  135.4035   52.8983   32.6747 C   0  0  0  0  0  0  0  0  0  0  0  0
  134.0464   52.5849   32.8539 C   0  0  0  0  0  0  0  0  0  0  0  0
  129.9229   53.4912   30.7638 C   0  0  0  0  0  0  0  0  0  0  0  0
  1  9  2  0
  1 14  1  0
  2  7  1  0
  3  7  2  0
  3 12  1  0
  4  8  1  0
  4 10  2  0
  4 13  1  0
  5  8  1  0
  5 11  2  0
  6  8  1  0
  6 14  1  0
  7 10  1  0
  9 11  1  0
 12 13  2  0
M  END
>  <ID>  (1) 
conformer_0

$$$$
