
     RDKit          3D

 20 22  0  0  0  0  0  0  0  0999 V2000
  132.7992   56.7992   27.4793 C   0  0  0  0  0  0  0  0  0  0  0  0
  132.3446   56.6025   29.8888 C   0  0  0  0  0  0  0  0  0  0  0  0
  130.9335   53.3675   31.4952 C   0  0  0  0  0  0  0  0  0  0  0  0
  129.4454   51.1988   32.3961 C   0  0  0  0  0  0  0  0  0  0  0  0
  133.3361   55.5613   29.8500 N   0  0  0  0  0  0  0  0  0  0  0  0
  131.4720   52.4442   32.4029 C   0  0  0  0  0  0  0  0  0  0  0  0
  135.1445   52.8897   33.1955 C   0  0  0  0  0  0  0  0  0  0  0  0
  131.8120   54.3057   31.0326 C   0  0  0  0  0  0  0  0  0  0  0  0
  133.0916   54.6209   30.8937 C   0  0  0  0  0  0  0  0  0  0  0  0
  133.1336   57.7069   26.5227 N   0  0  0  0  0  0  0  0  0  0  0  0
  135.5120   54.3787   31.5601 C   0  0  0  0  0  0  0  0  0  0  0  0
  132.5490   55.6105   27.2547 O   0  0  0  0  0  0  0  0  0  0  0  0
  129.6082   53.2365   31.1351 C   0  0  0  0  0  0  0  0  0  0  0  0
  128.8857   52.1487   31.5840 C   0  0  0  0  0  0  0  0  0  0  0  0
  132.7604   52.6072   32.8738 C   0  0  0  0  0  0  0  0  0  0  0  0
  130.7367   51.3628   32.8253 C   0  0  0  0  0  0  0  0  0  0  0  0
  133.9258   53.1827   32.6336 C   0  0  0  0  0  0  0  0  0  0  0  0
  134.1887   54.1657   31.6191 N   0  0  0  0  0  0  0  0  0  0  0  0
  136.1060   53.6479   32.5240 N   0  0  0  0  0  0  0  0  0  0  0  0
  132.2916   57.4620   28.7058 C   0  0  0  0  0  0  0  0  0  0  0  0
  1 10  1  0
  1 12  2  0
  1 20  1  0
  2  5  1  0
  2 20  1  0
  3  6  1  0
  3  8  1  0
  3 13  2  0
  4 14  1  0
  4 16  2  0
  5  9  2  3
  6 15  1  0
  6 16  1  0
  7 17  1  0
  7 19  1  0
  8  9  1  0
  9 18  1  0
 11 18  1  0
 11 19  1  0
 13 14  1  0
 15 17  2  0
 17 18  1  0
M  END
>  <ID>  (1) 
conformer_0

$$$$
