
     RDKit          3D

 11 12  0  0  0  0  0  0  0  0999 V2000
  129.2431   52.9804   31.1343 O   0  0  0  0  0  0  0  0  0  0  0  0
  133.4420   55.6408   30.9525 O   0  0  0  0  0  0  0  0  0  0  0  0
  128.9539   51.7733   31.9225 C   0  0  0  0  0  0  0  0  0  0  0  0
  130.2943   51.3859   32.5423 C   0  0  0  0  0  0  0  0  0  0  0  0
  133.3133   52.0213   33.2466 O   0  0  0  0  0  0  0  0  0  0  0  0
  130.4830   53.5107   31.4674 C   0  0  0  0  0  0  0  0  0  0  0  0
  132.4734   52.8628   32.8053 C   0  0  0  0  0  0  0  0  0  0  0  0
  132.8162   54.2869   32.7516 C   0  0  0  0  0  0  0  0  0  0  0  0
  131.2559   52.4537   32.1878 C   0  0  0  0  0  0  0  0  0  0  0  0
  131.3056   54.5203   30.7944 C   0  0  0  0  0  0  0  0  0  0  0  0
  132.6543   54.8039   31.3920 C   0  0  0  0  0  0  0  0  0  0  0  0
  1  3  1  0
  1  6  1  0
  2 11  2  0
  3  4  1  0
  4  9  1  0
  5  7  2  0
  6  9  1  0
  6 10  1  0
  7  8  1  0
  7  9  1  0
  8 11  1  0
 10 11  1  0
M  END
>  <ID>  (1) 
conformer_0

$$$$
