
     RDKit          3D

 28 32  0  0  0  0  0  0  0  0999 V2000
  133.4967   57.9484   25.8704 C   0  0  0  0  0  0  0  0  0  0  0  0
  132.7411   54.1776   31.3302 C   0  0  0  0  0  0  0  0  0  0  0  0
  138.5468   52.2487   31.6506 C   0  0  0  0  0  0  0  0  0  0  0  0
  132.4165   57.6590   26.9515 C   0  0  0  0  0  0  0  0  0  0  0  0
  129.1847   50.8826   32.4897 C   0  0  0  0  0  0  0  0  0  0  0  0
  133.8575   55.8777   29.8128 C   0  0  0  0  0  0  0  0  0  0  0  0
  135.2026   53.5151   32.2680 C   0  0  0  0  0  0  0  0  0  0  0  0
  135.0937   56.4258   29.1726 C   0  0  0  0  0  0  0  0  0  0  0  0
  134.5981   57.5613   28.2332 C   0  0  0  0  0  0  0  0  0  0  0  0
  136.3412   54.3803   30.5909 O   0  0  0  0  0  0  0  0  0  0  0  0
  134.4549   56.8812   25.8391 O   0  0  0  0  0  0  0  0  0  0  0  0
  131.0609   52.3527   32.4798 C   0  0  0  0  0  0  0  0  0  0  0  0
  130.4279   51.1669   32.8273 O   0  0  0  0  0  0  0  0  0  0  0  0
  132.2814   52.4548   32.9503 C   0  0  0  0  0  0  0  0  0  0  0  0
  133.8703   54.7866   30.7585 N   0  0  0  0  0  0  0  0  0  0  0  0
  131.3493   54.2629   31.0609 C   0  0  0  0  0  0  0  0  0  0  0  0
  137.3618   53.2606   31.3521 C   0  0  0  0  0  0  0  0  0  0  0  0
  136.7095   52.0059   33.4461 O   0  0  0  0  0  0  0  0  0  0  0  0
  129.1660   53.2162   31.6045 O   0  0  0  0  0  0  0  0  0  0  0  0
  135.0994   54.2922   31.1656 C   0  0  0  0  0  0  0  0  0  0  0  0
  128.5368   51.9512   31.7073 C   0  0  0  0  0  0  0  0  0  0  0  0
  133.1934   57.2621   28.0857 N   0  0  0  0  0  0  0  0  0  0  0  0
  134.1532   53.1158   33.0362 C   0  0  0  0  0  0  0  0  0  0  0  0
  130.5292   53.3139   31.6815 C   0  0  0  0  0  0  0  0  0  0  0  0
  136.5966   53.1236   32.6178 C   0  0  0  0  0  0  0  0  0  0  0  0
  133.0340   53.3182   32.3401 C   0  0  0  0  0  0  0  0  0  0  0  0
  132.7119   56.3634   29.0945 C   0  0  0  0  0  0  0  0  0  0  0  0
  134.3880   52.7503   34.2098 O   0  0  0  0  0  0  0  0  0  0  0  0
  1  4  1  0
  1 11  1  0
  2 15  1  0
  2 16  1  0
  2 26  1  0
  3 17  1  0
  4 22  1  0
  5 13  1  0
  5 21  1  0
  6  8  1  0
  6 15  1  0
  6 27  1  0
  7 20  2  0
  7 23  1  0
  7 25  1  0
  8  9  1  0
  9 22  1  0
 10 17  1  0
 10 20  1  0
 12 13  1  0
 12 14  1  0
 12 24  1  0
 14 26  2  0
 15 20  1  0
 16 24  2  0
 17 25  1  0
 18 25  1  0
 19 21  1  0
 19 24  1  0
 22 27  1  0
 23 26  1  0
 23 28  2  0
M  END
>  <ID>  (1) 
conformer_0

$$$$
