
     RDKit          3D

 15 17  0  0  0  0  0  0  0  0999 V2000
  135.0100   54.3404   32.9825 O   0  0  0  0  0  0  0  0  0  0  0  0
  131.7267   53.8504   31.4896 C   0  0  0  0  0  0  0  0  0  0  0  0
  131.0159   54.3810   30.4281 C   0  0  0  0  0  0  0  0  0  0  0  0
  132.7934   55.8172   29.8386 C   0  0  0  0  0  0  0  0  0  0  0  0
  128.7208   51.8285   31.7019 C   0  0  0  0  0  0  0  0  0  0  0  0
  133.0544   54.3179   31.7060 C   0  0  0  0  0  0  0  0  0  0  0  0
  130.8514   51.5488   32.7663 C   0  0  0  0  0  0  0  0  0  0  0  0
  131.5217   55.3377   29.5924 C   0  0  0  0  0  0  0  0  0  0  0  0
  129.5093   50.8652   32.5836 C   0  0  0  0  0  0  0  0  0  0  0  0
  133.6642   52.6003   33.2334 N   0  0  0  0  0  0  0  0  0  0  0  0
  129.4857   53.0651   31.5746 C   0  0  0  0  0  0  0  0  0  0  0  0
  133.9243   53.7691   32.7125 C   0  0  0  0  0  0  0  0  0  0  0  0
  133.5400   55.3289   30.8989 C   0  0  0  0  0  0  0  0  0  0  0  0
  130.8230   52.8709   32.1471 N   0  0  0  0  0  0  0  0  0  0  0  0
  129.6690   53.8330   30.3411 C   0  0  0  0  0  0  0  0  0  0  0  0
  1 12  2  0
  2  3  2  0
  2  6  1  0
  2 14  1  0
  3  8  1  0
  3 15  1  0
  4  8  2  0
  4 13  1  0
  5  9  1  0
  5 11  1  0
  6 12  1  0
  6 13  2  0
  7  9  1  0
  7 14  1  0
 10 12  1  0
 11 14  1  0
 11 15  1  0
M  END
>  <ID>  (1) 
conformer_0

$$$$
