
     RDKit          3D

 30 34  0  0  0  0  0  0  0  0999 V2000
  134.0857   54.0975   31.8636 C   0  0  0  0  0  0  0  0  0  0  0  0
  132.1720   56.3208   26.7153 N   0  0  0  0  0  0  0  0  0  0  0  0
  133.4358   53.1504   32.6071 C   0  0  0  0  0  0  0  0  0  0  0  0
  132.2689   57.5544   27.2029 C   0  0  0  0  0  0  0  0  0  0  0  0
  129.7991   53.1770   31.6548 C   0  0  0  0  0  0  0  0  0  0  0  0
  135.7894   52.2705   32.9442 C   0  0  0  0  0  0  0  0  0  0  0  0
  132.6556   57.4658   28.5372 C   0  0  0  0  0  0  0  0  0  0  0  0
  130.6161   54.1450   30.8975 S   0  0  0  0  0  0  0  0  0  0  0  0
  134.9312   47.6475   32.4612 C   0  0  0  0  0  0  0  0  0  0  0  0
  136.1609   53.4843   32.4896 C   0  0  0  0  0  0  0  0  0  0  0  0
  130.6958   51.2147   32.7561 C   0  0  0  0  0  0  0  0  0  0  0  0
  133.2157   55.6730   30.1073 N   0  0  0  0  0  0  0  0  0  0  0  0
  136.4770   50.9838   32.8403 C   0  0  0  0  0  0  0  0  0  0  0  0
  130.7909   52.6563   32.5973 N   0  0  0  0  0  0  0  0  0  0  0  0
  135.8311   48.6712   32.2039 C   0  0  0  0  0  0  0  0  0  0  0  0
  132.0451   53.1299   32.3861 C   0  0  0  0  0  0  0  0  0  0  0  0
  133.1432   54.7544   31.0586 N   0  0  0  0  0  0  0  0  0  0  0  0
  131.7688   56.1461   25.3046 C   0  0  0  0  0  0  0  0  0  0  0  0
  132.7980   56.1535   28.8535 C   0  0  0  0  0  0  0  0  0  0  0  0
  134.8418   46.5320   31.6278 C   0  0  0  0  0  0  0  0  0  0  0  0
  137.6631   50.9944   32.5919 O   0  0  0  0  0  0  0  0  0  0  0  0
  132.5314   55.4260   27.7567 N   0  0  0  0  0  0  0  0  0  0  0  0
  135.6895   46.3709   30.5477 C   0  0  0  0  0  0  0  0  0  0  0  0
  131.8951   54.1329   31.3837 C   0  0  0  0  0  0  0  0  0  0  0  0
  136.6734   47.3268   30.3503 C   0  0  0  0  0  0  0  0  0  0  0  0
  136.7021   48.4798   31.1611 C   0  0  0  0  0  0  0  0  0  0  0  0
  129.2311   50.8889   32.5226 C   0  0  0  0  0  0  0  0  0  0  0  0
  128.7405   52.0559   31.6279 C   0  0  0  0  0  0  0  0  0  0  0  0
  135.8003   49.8277   32.9564 N   0  0  0  0  0  0  0  0  0  0  0  0
  135.3989   54.3646   31.9160 N   0  0  0  0  0  0  0  0  0  0  0  0
  1  3  1  0
  1 17  1  0
  1 30  1  0
  2  4  1  0
  2 18  1  0
  2 22  1  0
  3 16  1  0
  4  7  1  0
  5  8  1  0
  5 14  1  0
  5 28  1  0
  6 10  1  0
  6 13  1  0
  7 19  1  0
  8 24  1  0
  9 15  2  0
  9 20  1  0
 10 30  2  3
 11 14  1  0
 11 27  1  0
 12 17  1  0
 12 19  2  3
 13 21  2  0
 13 29  1  0
 14 16  1  0
 15 26  1  0
 15 29  1  0
 16 24  2  0
 17 24  1  0
 19 22  1  0
 20 23  2  0
 23 25  1  0
 25 26  2  0
 27 28  1  0
M  END
>  <ID>  (1) 
conformer_0

$$$$
