
     RDKit          3D

 23 25  0  0  0  0  0  0  0  0999 V2000
  137.5315   51.0900   32.7124 C   0  0  0  0  0  0  0  0  0  0  0  0
  136.8268   53.8587   31.9320 O   0  0  0  0  0  0  0  0  0  0  0  0
  132.3006   52.8783   33.0449 N   0  0  0  0  0  0  0  0  0  0  0  0
  135.8652   53.4380   32.5904 C   0  0  0  0  0  0  0  0  0  0  0  0
  130.1989   52.9532   31.7961 N   0  0  0  0  0  0  0  0  0  0  0  0
  137.7695   49.5974   32.7082 C   0  0  0  0  0  0  0  0  0  0  0  0
  135.9379   52.6315   33.6687 N   0  0  0  0  0  0  0  0  0  0  0  0
  138.8295   51.8991   32.4416 C   0  0  0  0  0  0  0  0  0  0  0  0
  131.8868   54.3028   31.1705 C   0  0  0  0  0  0  0  0  0  0  0  0
  134.3851   54.9758   31.3734 C   0  0  0  0  0  0  0  0  0  0  0  0
  136.6993   48.7000   31.8610 C   0  0  0  0  0  0  0  0  0  0  0  0
  135.7619   48.1714   32.9817 N   0  0  0  0  0  0  0  0  0  0  0  0
  136.8070   51.5513   33.9198 C   0  0  0  0  0  0  0  0  0  0  0  0
  129.2268   52.0775   32.3288 O   0  0  0  0  0  0  0  0  0  0  0  0
  133.0059   55.1740   30.9801 C   0  0  0  0  0  0  0  0  0  0  0  0
  135.9276   47.3655   30.9305 C   0  0  0  0  0  0  0  0  0  0  0  0
  130.7821   54.4936   30.3465 N   0  0  0  0  0  0  0  0  0  0  0  0
  135.1209   47.0430   32.2026 C   0  0  0  0  0  0  0  0  0  0  0  0
  129.7634   50.7534   32.6536 C   0  0  0  0  0  0  0  0  0  0  0  0
  134.4738   53.8413   32.2502 C   0  0  0  0  0  0  0  0  0  0  0  0
  129.7529   53.7171   30.7181 C   0  0  0  0  0  0  0  0  0  0  0  0
  131.4912   53.3105   32.0832 C   0  0  0  0  0  0  0  0  0  0  0  0
  133.5343   53.3705   33.1917 C   0  0  0  0  0  0  0  0  0  0  0  0
  1  6  1  0
  1  8  1  0
  1 13  1  0
  2  4  2  0
  3 22  2  0
  3 23  1  0
  4  7  1  0
  4 20  1  0
  5 14  1  0
  5 21  1  0
  5 22  1  0
  6 11  1  0
  7 13  1  0
  9 15  1  0
  9 17  1  0
  9 22  1  0
 10 15  1  0
 10 20  1  0
 11 12  1  0
 11 16  1  0
 12 18  1  0
 14 19  1  0
 16 18  1  0
 17 21  1  0
 20 23  1  0
M  END
>  <ID>  (1) 
conformer_0

$$$$
