
     RDKit          3D

 28 29  0  0  0  0  0  0  0  0999 V2000
  129.4264   52.6788   31.0287 C   0  0  0  0  0  0  0  0  0  0  0  0
  128.4190   52.3013   30.2225 O   0  0  0  0  0  0  0  0  0  0  0  0
  133.8597   55.4572   33.1550 O   0  0  0  0  0  0  0  0  0  0  0  0
  134.5634   56.3651   30.6764 N   0  0  0  0  0  0  0  0  0  0  0  0
  134.8947   46.6825   32.0642 C   0  0  0  0  0  0  0  0  0  0  0  0
  130.9192   52.1448   32.8319 N   0  0  0  0  0  0  0  0  0  0  0  0
  131.7498   53.1504   32.6002 C   0  0  0  0  0  0  0  0  0  0  0  0
  131.2812   54.0415   31.6414 C   0  0  0  0  0  0  0  0  0  0  0  0
  129.0067   50.7511   32.5650 C   0  0  0  0  0  0  0  0  0  0  0  0
  136.3550   48.6861   32.5878 C   0  0  0  0  0  0  0  0  0  0  0  0
  134.2414   53.1623   32.8048 C   0  0  0  0  0  0  0  0  0  0  0  0
  135.6196   50.9970   33.2890 C   0  0  0  0  0  0  0  0  0  0  0  0
  133.5188   55.2785   30.7528 C   0  0  0  0  0  0  0  0  0  0  0  0
  128.1784   52.8128   28.9948 C   0  0  0  0  0  0  0  0  0  0  0  0
  135.0996   52.2817   33.7511 N   0  0  0  0  0  0  0  0  0  0  0  0
  130.1672   53.8094   30.8758 C   0  0  0  0  0  0  0  0  0  0  0  0
  136.8017   48.7686   31.2849 O   0  0  0  0  0  0  0  0  0  0  0  0
  129.7952   51.8680   32.1046 C   0  0  0  0  0  0  0  0  0  0  0  0
  134.6206   56.7604   28.4518 N   0  0  0  0  0  0  0  0  0  0  0  0
  135.2665   47.7891   33.0397 C   0  0  0  0  0  0  0  0  0  0  0  0
  134.0181   54.5509   32.0706 C   0  0  0  0  0  0  0  0  0  0  0  0
  132.6392   55.6372   29.4257 C   0  0  0  0  0  0  0  0  0  0  0  0
  127.3572   51.9683   28.1253 O   0  0  0  0  0  0  0  0  0  0  0  0
  132.9583   53.0327   33.5090 C   0  0  0  0  0  0  0  0  0  0  0  0
  132.7479   56.3385   27.1045 O   0  0  0  0  0  0  0  0  0  0  0  0
  133.3534   56.2735   28.2627 C   0  0  0  0  0  0  0  0  0  0  0  0
  135.2595   56.5642   29.5993 N   0  0  0  0  0  0  0  0  0  0  0  0
  136.6641   49.8801   33.4957 C   0  0  0  0  0  0  0  0  0  0  0  0
  1  2  1  0
  1 16  2  0
  1 18  1  0
  2 14  1  0
  3 21  1  0
  4 13  1  0
  4 27  1  0
  5 20  1  0
  6  7  2  0
  6 18  1  0
  7  8  1  0
  7 24  1  0
  8 16  1  0
  9 18  1  0
 10 17  1  0
 10 20  1  0
 10 28  1  0
 11 15  1  0
 11 21  1  0
 11 24  1  0
 12 15  1  0
 12 28  1  0
 13 21  1  0
 13 22  1  0
 14 23  1  0
 19 26  1  0
 19 27  1  0
 22 26  1  0
 25 26  2  0
M  END
>  <ID>  (1) 
conformer_0

$$$$
