
     RDKit          3D

 16 18  0  0  0  0  0  0  0  0999 V2000
  133.5664   56.6992   28.9672 N   0  0  0  0  0  0  0  0  0  0  0  0
  134.5917   56.2284   30.7822 N   0  0  0  0  0  0  0  0  0  0  0  0
  134.7218   56.9686   29.6398 C   0  0  0  0  0  0  0  0  0  0  0  0
  129.5662   52.7744   31.6871 N   0  0  0  0  0  0  0  0  0  0  0  0
  133.3544   53.9951   32.8102 C   0  0  0  0  0  0  0  0  0  0  0  0
  130.8410   53.2064   31.9154 C   0  0  0  0  0  0  0  0  0  0  0  0
  131.5346   54.1952   31.2873 C   0  0  0  0  0  0  0  0  0  0  0  0
  130.6405   51.1209   32.7964 C   0  0  0  0  0  0  0  0  0  0  0  0
  129.3275   51.4541   32.1799 C   0  0  0  0  0  0  0  0  0  0  0  0
  132.8557   54.5732   31.6512 C   0  0  0  0  0  0  0  0  0  0  0  0
  132.8074   57.2316   27.8638 C   0  0  0  0  0  0  0  0  0  0  0  0
  132.8305   55.7771   29.6223 N   0  0  0  0  0  0  0  0  0  0  0  0
  132.8382   52.7109   33.1392 C   0  0  0  0  0  0  0  0  0  0  0  0
  131.5381   52.2569   32.7292 C   0  0  0  0  0  0  0  0  0  0  0  0
  133.5004   55.5316   30.7721 C   0  0  0  0  0  0  0  0  0  0  0  0
  128.8103   53.2665   30.5827 C   0  0  0  0  0  0  0  0  0  0  0  0
  1  3  1  0
  1 11  1  0
  1 12  1  0
  2  3  1  0
  2 15  1  0
  4  6  1  0
  4  9  1  0
  4 16  1  0
  5 10  1  0
  5 13  1  0
  6  7  1  0
  6 14  1  0
  7 10  1  0
  8  9  1  0
  8 14  1  0
 10 15  2  3
 12 15  1  0
 13 14  2  0
M  END
>  <ID>  (1) 
conformer_0

$$$$
