
     RDKit          3D

 19 20  0  0  0  0  0  0  0  0999 V2000
  127.4447   51.5692   29.0359 O   0  0  0  0  0  0  0  0  0  0  0  0
  131.8686   53.4660   32.1157 N   0  0  0  0  0  0  0  0  0  0  0  0
  130.2798   51.7041   32.5573 C   0  0  0  0  0  0  0  0  0  0  0  0
  128.4328   51.1710   31.0309 N   0  0  0  0  0  0  0  0  0  0  0  0
  132.3724   54.3269   31.2358 C   0  0  0  0  0  0  0  0  0  0  0  0
  136.0101   55.0209   29.3145 C   0  0  0  0  0  0  0  0  0  0  0  0
  132.4772   52.8869   33.1983 N   0  0  0  0  0  0  0  0  0  0  0  0
  134.7018   54.4144   31.2699 C   0  0  0  0  0  0  0  0  0  0  0  0
  130.4199   53.0615   31.9949 C   0  0  0  0  0  0  0  0  0  0  0  0
  128.2200   51.9248   29.9536 C   0  0  0  0  0  0  0  0  0  0  0  0
  135.9693   54.7404   30.8001 N   0  0  0  0  0  0  0  0  0  0  0  0
  129.0668   53.0471   29.8436 N   0  0  0  0  0  0  0  0  0  0  0  0
  129.0423   51.0598   32.1573 C   0  0  0  0  0  0  0  0  0  0  0  0
  137.1584   53.9571   31.2781 C   0  0  0  0  0  0  0  0  0  0  0  0
  128.9982   49.5835   32.5548 F   0  0  0  0  0  0  0  0  0  0  0  0
  133.4815   54.8257   30.7119 N   0  0  0  0  0  0  0  0  0  0  0  0
  129.7560   53.5959   30.8775 C   0  0  0  0  0  0  0  0  0  0  0  0
  134.6516   53.6691   32.4171 C   0  0  0  0  0  0  0  0  0  0  0  0
  133.8115   53.0862   33.1956 C   0  0  0  0  0  0  0  0  0  0  0  0
  1 10  2  0
  2  5  1  0
  2  7  1  0
  2  9  1  0
  3  9  1  0
  3 13  1  0
  4 10  1  0
  4 13  1  0
  5 16  2  0
  6 11  1  0
  7 19  1  0
  8 11  1  0
  8 16  1  0
  8 18  1  0
  9 17  1  0
 10 12  1  0
 11 14  1  0
 12 17  1  0
 13 15  1  0
 18 19  2  0
M  END
>  <ID>  (1) 
conformer_0

$$$$
