
     RDKit          3D

 23 25  0  0  0  0  0  0  0  0999 V2000
  130.1922   51.2299   32.7046 C   0  0  0  0  0  0  0  0  0  0  0  0
  135.4720   52.5697   33.0792 C   0  0  0  0  0  0  0  0  0  0  0  0
  135.9003   51.0702   32.7997 C   0  0  0  0  0  0  0  0  0  0  0  0
  131.1749   52.1599   32.6500 N   0  0  0  0  0  0  0  0  0  0  0  0
  134.7028   48.0095   32.8078 C   0  0  0  0  0  0  0  0  0  0  0  0
  133.6177   53.8608   32.2088 C   0  0  0  0  0  0  0  0  0  0  0  0
  134.3904   46.8151   32.2851 N   0  0  0  0  0  0  0  0  0  0  0  0
  133.3478   55.9807   30.5555 N   0  0  0  0  0  0  0  0  0  0  0  0
  128.9858   52.5735   31.2306 C   0  0  0  0  0  0  0  0  0  0  0  0
  130.0181   53.4556   31.1271 C   0  0  0  0  0  0  0  0  0  0  0  0
  134.5019   55.8428   31.2501 N   0  0  0  0  0  0  0  0  0  0  0  0
  135.9351   48.4518   32.3001 C   0  0  0  0  0  0  0  0  0  0  0  0
  132.3497   55.1342   30.7341 C   0  0  0  0  0  0  0  0  0  0  0  0
  133.5337   51.4530   32.7812 O   0  0  0  0  0  0  0  0  0  0  0  0
  135.3949   45.2412   30.7374 C   0  0  0  0  0  0  0  0  0  0  0  0
  135.3672   46.4602   31.4833 N   0  0  0  0  0  0  0  0  0  0  0  0
  136.3786   47.4455   31.4738 C   0  0  0  0  0  0  0  0  0  0  0  0
  136.5619   49.7513   32.5627 C   0  0  0  0  0  0  0  0  0  0  0  0
  129.0593   51.4193   31.9932 C   0  0  0  0  0  0  0  0  0  0  0  0
  132.3828   54.0635   31.5805 C   0  0  0  0  0  0  0  0  0  0  0  0
  131.1850   53.2398   31.7914 C   0  0  0  0  0  0  0  0  0  0  0  0
  134.5934   54.8084   32.0755 N   0  0  0  0  0  0  0  0  0  0  0  0
  134.0127   52.6428   32.9042 C   0  0  0  0  0  0  0  0  0  0  0  0
  1  4  2  0
  1 19  1  0
  2  3  1  0
  2 23  1  0
  3 18  1  0
  4 21  1  0
  5  7  1  0
  5 12  1  0
  6 20  1  0
  6 22  2  0
  6 23  1  0
  7 16  1  0
  8 11  1  0
  8 13  2  0
  9 10  1  0
  9 19  2  0
 10 21  2  0
 11 22  1  0
 12 17  1  0
 12 18  1  0
 13 20  1  0
 14 23  1  0
 15 16  1  0
 16 17  1  0
 20 21  1  0
M  END
>  <ID>  (1) 
conformer_0

$$$$
