
     RDKit          3D

 16 17  0  0  0  0  0  0  0  0999 V2000
  128.5778   51.7463   32.0262 O   0  0  0  0  0  0  0  0  0  0  0  0
  134.6350   54.5552   31.6122 C   0  0  0  0  0  0  0  0  0  0  0  0
  130.5013   53.0052   31.9029 N   0  0  0  0  0  0  0  0  0  0  0  0
  133.2076   54.2591   31.8057 C   0  0  0  0  0  0  0  0  0  0  0  0
  135.6439   53.7274   32.3201 C   0  0  0  0  0  0  0  0  0  0  0  0
  130.9123   54.1640   31.2241 C   0  0  0  0  0  0  0  0  0  0  0  0
  129.1321   52.8305   31.4186 C   0  0  0  0  0  0  0  0  0  0  0  0
  129.6421   50.8895   32.5637 C   0  0  0  0  0  0  0  0  0  0  0  0
  135.1191   52.6303   33.1773 C   0  0  0  0  0  0  0  0  0  0  0  0
  135.0490   55.7826   31.2436 O   0  0  0  0  0  0  0  0  0  0  0  0
  130.8799   51.7510   32.5928 C   0  0  0  0  0  0  0  0  0  0  0  0
  133.6932   52.6254   33.5975 C   0  0  0  0  0  0  0  0  0  0  0  0
  135.5842   51.3288   33.0262 O   0  0  0  0  0  0  0  0  0  0  0  0
  132.1460   54.6705   30.9992 N   0  0  0  0  0  0  0  0  0  0  0  0
  132.8263   53.4497   32.8480 N   0  0  0  0  0  0  0  0  0  0  0  0
  136.7854   53.3793   31.5233 O   0  0  0  0  0  0  0  0  0  0  0  0
  1  7  1  0
  1  8  1  0
  2  4  1  0
  2  5  1  0
  2 10  1  0
  3  6  1  0
  3  7  1  0
  3 11  1  0
  4 14  1  0
  4 15  2  0
  5  9  1  0
  5 16  1  0
  6 14  1  0
  8 11  1  0
  9 12  1  0
  9 13  1  0
 12 15  1  0
M  END
>  <ID>  (1) 
conformer_0

$$$$
