
     RDKit          3D

 16 17  0  0  0  0  0  0  0  0999 V2000
  131.9890   54.2328   31.4806 C   0  0  0  0  0  0  0  0  0  0  0  0
  132.7822   55.6642   30.0470 C   0  0  0  0  0  0  0  0  0  0  0  0
  129.7291   53.6596   31.9362 C   0  0  0  0  0  0  0  0  0  0  0  0
  133.7841   55.4884   30.9744 C   0  0  0  0  0  0  0  0  0  0  0  0
  133.2553   54.5329   31.8416 N   0  0  0  0  0  0  0  0  0  0  0  0
  132.8985   56.4770   28.8066 C   0  0  0  0  0  0  0  0  0  0  0  0
  128.9646   51.3960   32.1310 C   0  0  0  0  0  0  0  0  0  0  0  0
  134.3007   56.8195   28.4932 C   0  0  0  0  0  0  0  0  0  0  0  0
  129.0224   52.5744   31.1480 C   0  0  0  0  0  0  0  0  0  0  0  0
  131.1231   53.2991   32.1426 C   0  0  0  0  0  0  0  0  0  0  0  0
  131.4902   52.0362   32.6549 C   0  0  0  0  0  0  0  0  0  0  0  0
  130.3544   51.0399   32.6084 C   0  0  0  0  0  0  0  0  0  0  0  0
  133.9266   54.0292   33.0049 C   0  0  0  0  0  0  0  0  0  0  0  0
  131.8872   57.5431   28.7251 C   0  0  0  0  0  0  0  0  0  0  0  0
  134.8878   56.0083   31.1457 O   0  0  0  0  0  0  0  0  0  0  0  0
  131.6984   54.9446   30.4029 N   0  0  0  0  0  0  0  0  0  0  0  0
  1  5  1  0
  1 10  1  0
  1 16  2  0
  2  4  1  0
  2  6  1  0
  2 16  1  0
  3  9  1  0
  3 10  1  0
  4  5  1  0
  4 15  2  0
  5 13  1  0
  6  8  1  0
  6 14  1  0
  7  9  1  0
  7 12  1  0
 10 11  1  0
 11 12  1  0
M  END
>  <ID>  (1) 
conformer_0

$$$$
