
     RDKit          3D

 29 31  0  0  0  0  0  0  0  0999 V2000
  132.2694   55.9147   25.8279 C   0  0  0  0  0  0  0  0  0  0  0  0
  135.1243   53.8194   32.4832 C   0  0  0  0  0  0  0  0  0  0  0  0
  131.9956   54.4459   31.3472 C   0  0  0  0  0  0  0  0  0  0  0  0
  133.8579   47.2473   32.1035 O   0  0  0  0  0  0  0  0  0  0  0  0
  134.0698   54.7721   32.4925 C   0  0  0  0  0  0  0  0  0  0  0  0
  129.1243   51.4444   32.1698 C   0  0  0  0  0  0  0  0  0  0  0  0
  131.0759   53.3612   31.7607 C   0  0  0  0  0  0  0  0  0  0  0  0
  135.6966   49.4754   32.6558 N   0  0  0  0  0  0  0  0  0  0  0  0
  130.9699   54.2225   26.9587 C   0  0  0  0  0  0  0  0  0  0  0  0
  135.1041   47.0724   32.3530 C   0  0  0  0  0  0  0  0  0  0  0  0
  136.1404   48.1229   32.5271 C   0  0  0  0  0  0  0  0  0  0  0  0
  134.3193   56.0365   32.4048 O   0  0  0  0  0  0  0  0  0  0  0  0
  132.7108   54.3526   32.6701 C   0  0  0  0  0  0  0  0  0  0  0  0
  135.3797   45.8079   32.1415 O   0  0  0  0  0  0  0  0  0  0  0  0
  129.7824   53.5418   31.2639 C   0  0  0  0  0  0  0  0  0  0  0  0
  136.1902   53.8893   31.7041 N   0  0  0  0  0  0  0  0  0  0  0  0
  136.2652   51.8338   32.6085 C   0  0  0  0  0  0  0  0  0  0  0  0
  135.1858   52.6050   33.1076 C   0  0  0  0  0  0  0  0  0  0  0  0
  136.6888   50.4857   32.9186 C   0  0  0  0  0  0  0  0  0  0  0  0
  131.3898   52.1646   32.5115 C   0  0  0  0  0  0  0  0  0  0  0  0
  132.5776   55.5696   28.1153 C   0  0  0  0  0  0  0  0  0  0  0  0
  132.8982   56.2623   26.9954 C   0  0  0  0  0  0  0  0  0  0  0  0
  133.2419   55.8777   29.4258 C   0  0  0  0  0  0  0  0  0  0  0  0
  131.3248   54.9074   25.7979 C   0  0  0  0  0  0  0  0  0  0  0  0
  136.8846   52.7473   31.7329 C   0  0  0  0  0  0  0  0  0  0  0  0
  132.8504   54.8048   30.2945 N   0  0  0  0  0  0  0  0  0  0  0  0
  131.6158   54.5326   28.0958 C   0  0  0  0  0  0  0  0  0  0  0  0
  130.3672   51.2190   32.6822 C   0  0  0  0  0  0  0  0  0  0  0  0
  128.8610   52.6015   31.4453 C   0  0  0  0  0  0  0  0  0  0  0  0
  1 22  2  0
  1 24  1  0
  2  5  1  0
  2 16  1  0
  2 18  1  0
  3  7  1  0
  3 13  1  0
  3 26  1  0
  4 10  2  0
  5 12  1  0
  5 13  1  0
  6 28  2  0
  6 29  1  0
  7 15  1  0
  7 20  2  0
  8 11  2  3
  8 19  1  0
  9 24  2  0
  9 27  1  0
 10 11  1  0
 10 14  1  0
 15 29  2  0
 16 25  1  0
 17 18  1  0
 17 19  1  0
 17 25  1  0
 20 28  1  0
 21 22  1  0
 21 23  1  0
 21 27  2  0
 23 26  1  0
M  END
>  <ID>  (1) 
conformer_0

$$$$
