
     RDKit          3D

 25 27  0  0  0  0  0  0  0  0999 V2000
  134.6570   56.1849   27.2258 C   0  0  0  0  0  0  0  0  0  0  0  0
  132.3409   56.7389   27.4599 C   0  0  0  0  0  0  0  0  0  0  0  0
  132.9961   53.0169   33.1067 N   0  0  0  0  0  0  0  0  0  0  0  0
  129.2169   50.6089   32.8383 C   0  0  0  0  0  0  0  0  0  0  0  0
  130.5115   51.2375   32.5370 C   0  0  0  0  0  0  0  0  0  0  0  0
  135.0594   54.0947   32.6155 C   0  0  0  0  0  0  0  0  0  0  0  0
  130.5789   52.5105   33.0737 N   0  0  0  0  0  0  0  0  0  0  0  0
  132.3609   57.2655   26.1640 C   0  0  0  0  0  0  0  0  0  0  0  0
  132.5663   55.1718   30.0849 C   0  0  0  0  0  0  0  0  0  0  0  0
  135.7938   55.6327   27.8624 F   0  0  0  0  0  0  0  0  0  0  0  0
  128.8121   52.5750   31.2128 C   0  0  0  0  0  0  0  0  0  0  0  0
  134.3324   54.7180   31.6354 C   0  0  0  0  0  0  0  0  0  0  0  0
  129.1089   51.3082   31.7479 C   0  0  0  0  0  0  0  0  0  0  0  0
  135.3201   54.8733   31.9343 N   0  0  0  0  0  0  0  0  0  0  0  0
  133.4439   56.2069   28.0244 C   0  0  0  0  0  0  0  0  0  0  0  0
  129.7399   53.7240   31.2820 C   0  0  0  0  0  0  0  0  0  0  0  0
  128.1867   52.4520   29.9784 O   0  0  0  0  0  0  0  0  0  0  0  0
  131.4090   55.2401   29.7516 O   0  0  0  0  0  0  0  0  0  0  0  0
  134.6785   56.6888   25.9849 C   0  0  0  0  0  0  0  0  0  0  0  0
  130.8720   53.5240   32.1571 C   0  0  0  0  0  0  0  0  0  0  0  0
  133.5397   55.6997   29.3249 N   0  0  0  0  0  0  0  0  0  0  0  0
  133.0266   54.5394   31.2752 C   0  0  0  0  0  0  0  0  0  0  0  0
  132.3153   53.6733   32.1642 C   0  0  0  0  0  0  0  0  0  0  0  0
  133.5354   57.2329   25.4269 C   0  0  0  0  0  0  0  0  0  0  0  0
  134.3347   53.1808   33.3663 C   0  0  0  0  0  0  0  0  0  0  0  0
  1 10  1  0
  1 15  2  0
  1 19  1  0
  2  8  2  0
  2 15  1  0
  3 23  2  0
  3 25  1  0
  4  5  1  0
  4 13  1  0
  5  7  1  0
  6 14  1  0
  6 25  1  0
  7 20  1  0
  8 24  1  0
  9 18  2  0
  9 21  1  0
  9 22  1  0
 11 13  1  0
 11 16  1  0
 11 17  1  0
 12 14  1  0
 12 22  1  0
 15 21  1  0
 16 20  1  0
 19 24  2  0
 20 23  1  0
 22 23  1  0
M  END
>  <ID>  (1) 
conformer_0

$$$$
