
     RDKit          3D

 26 27  0  0  0  0  0  0  0  0999 V2000
  133.8526   53.9461   32.1612 C   0  0  0  0  0  0  0  0  0  0  0  0
  133.3396   55.6396   30.1228 C   0  0  0  0  0  0  0  0  0  0  0  0
  129.6730   53.6083   30.3167 N   0  0  0  0  0  0  0  0  0  0  0  0
  127.9578   51.2577   30.3087 C   0  0  0  0  0  0  0  0  0  0  0  0
  130.1936   51.0180   32.7230 C   0  0  0  0  0  0  0  0  0  0  0  0
  133.9918   53.0251   33.1994 C   0  0  0  0  0  0  0  0  0  0  0  0
  132.5352   54.1086   31.7247 C   0  0  0  0  0  0  0  0  0  0  0  0
  128.6091   52.5599   29.8853 N   0  0  0  0  0  0  0  0  0  0  0  0
  137.2502   50.1813   32.8988 C   0  0  0  0  0  0  0  0  0  0  0  0
  134.8436   54.6722   31.5802 C   0  0  0  0  0  0  0  0  0  0  0  0
  138.2827   49.3356   32.7248 N   0  0  0  0  0  0  0  0  0  0  0  0
  132.3071   54.9731   30.7136 C   0  0  0  0  0  0  0  0  0  0  0  0
  127.1313   50.8635   29.3491 C   0  0  0  0  0  0  0  0  0  0  0  0
  130.2851   53.3094   31.6632 C   0  0  0  0  0  0  0  0  0  0  0  0
  129.4167   52.1870   32.1863 C   0  0  0  0  0  0  0  0  0  0  0  0
  132.9787   56.4489   28.9235 C   0  0  0  0  0  0  0  0  0  0  0  0
  136.2024   49.8148   32.5048 C   0  0  0  0  0  0  0  0  0  0  0  0
  134.6393   55.5415   30.6029 N   0  0  0  0  0  0  0  0  0  0  0  0
  137.3418   51.4164   33.6257 C   0  0  0  0  0  0  0  0  0  0  0  0
  138.0918   48.1348   32.0907 N   0  0  0  0  0  0  0  0  0  0  0  0
  131.5241   53.3872   32.3341 N   0  0  0  0  0  0  0  0  0  0  0  0
  136.2673   52.2611   33.7128 C   0  0  0  0  0  0  0  0  0  0  0  0
  128.0588   52.8239   28.6297 C   0  0  0  0  0  0  0  0  0  0  0  0
  133.8669   57.4168   28.6056 N   0  0  0  0  0  0  0  0  0  0  0  0
  135.0417   52.3020   33.2245 C   0  0  0  0  0  0  0  0  0  0  0  0
  127.1650   51.8161   28.2531 C   0  0  0  0  0  0  0  0  0  0  0  0
  1  6  1  0
  1  7  1  0
  1 10  1  0
  2 12  1  0
  2 16  1  0
  2 18  1  0
  3  8  1  0
  3 14  1  0
  4  8  1  0
  4 13  1  0
  5 15  1  0
  6 25  1  0
  7 12  2  0
  7 21  1  0
  8 23  1  0
  9 11  2  3
  9 17  1  0
  9 19  1  0
 10 18  2  0
 11 20  1  0
 13 26  1  0
 14 15  1  0
 14 21  2  3
 16 24  1  0
 19 22  1  0
 22 25  2  3
 23 26  1  0
M  END
>  <ID>  (1) 
conformer_0

$$$$
