
     RDKit          3D

 30 33  0  0  0  0  0  0  0  0999 V2000
  133.5426   57.1698   27.4196 N   0  0  0  0  0  0  0  0  0  0  0  0
  135.2351   55.1325   31.0676 C   0  0  0  0  0  0  0  0  0  0  0  0
  133.0999   55.2339   30.3699 C   0  0  0  0  0  0  0  0  0  0  0  0
  136.3329   52.8622   31.9604 O   0  0  0  0  0  0  0  0  0  0  0  0
  137.1292   53.1890   30.7841 C   0  0  0  0  0  0  0  0  0  0  0  0
  133.7464   52.9724   33.7105 N   0  0  0  0  0  0  0  0  0  0  0  0
  137.5557   51.8115   30.1546 C   0  0  0  0  0  0  0  0  0  0  0  0
  136.8558   51.9369   32.8788 C   0  0  0  0  0  0  0  0  0  0  0  0
  133.3465   56.0149   28.0377 C   0  0  0  0  0  0  0  0  0  0  0  0
  133.8657   55.6811   29.2758 C   0  0  0  0  0  0  0  0  0  0  0  0
  130.4307   52.0748   32.3054 N   0  0  0  0  0  0  0  0  0  0  0  0
  137.4153   50.6259   32.4410 C   0  0  0  0  0  0  0  0  0  0  0  0
  132.5450   55.8791   26.0011 N   0  0  0  0  0  0  0  0  0  0  0  0
  135.2460   55.6283   29.7258 C   0  0  0  0  0  0  0  0  0  0  0  0
  130.1642   50.7354   32.8031 C   0  0  0  0  0  0  0  0  0  0  0  0
  129.8477   53.8079   30.7535 C   0  0  0  0  0  0  0  0  0  0  0  0
  136.0337   51.8717   34.0531 N   0  0  0  0  0  0  0  0  0  0  0  0
  133.0834   57.1060   26.1648 C   0  0  0  0  0  0  0  0  0  0  0  0
  137.0104   49.5339   33.1274 O   0  0  0  0  0  0  0  0  0  0  0  0
  131.7230   55.1896   30.2147 N   0  0  0  0  0  0  0  0  0  0  0  0
  129.5393   52.6787   31.4915 C   0  0  0  0  0  0  0  0  0  0  0  0
  132.6438   55.1948   27.1850 C   0  0  0  0  0  0  0  0  0  0  0  0
  131.6741   52.6663   32.6531 C   0  0  0  0  0  0  0  0  0  0  0  0
  137.6525   50.4447   30.9583 C   0  0  0  0  0  0  0  0  0  0  0  0
  132.5993   52.2827   33.5606 N   0  0  0  0  0  0  0  0  0  0  0  0
  134.9989   52.7679   34.2281 C   0  0  0  0  0  0  0  0  0  0  0  0
  128.7871   50.4294   32.5552 C   0  0  0  0  0  0  0  0  0  0  0  0
  133.9107   54.9357   31.3988 C   0  0  0  0  0  0  0  0  0  0  0  0
  131.1213   54.2423   30.9668 C   0  0  0  0  0  0  0  0  0  0  0  0
  131.8737   53.6784   31.8953 C   0  0  0  0  0  0  0  0  0  0  0  0
  1  9  1  0
  1 18  1  0
  2 14  1  0
  2 28  1  0
  3 10  2  0
  3 20  1  0
  3 28  1  0
  4  5  1  0
  4  8  1  0
  5  7  1  0
  6 25  2  3
  6 26  1  0
  7 24  1  0
  8 12  1  0
  8 17  1  0
  9 10  1  0
  9 22  1  0
 10 14  1  0
 11 15  1  0
 11 21  1  0
 11 23  1  0
 12 19  1  0
 12 24  1  0
 13 18  1  0
 13 22  1  0
 15 27  1  0
 16 21  1  0
 16 29  1  0
 17 26  1  0
 20 29  1  0
 23 25  1  0
 23 30  2  0
 29 30  1  0
M  END
>  <ID>  (1) 
conformer_0

$$$$
