
     RDKit          3D

 27 28  0  0  0  0  0  0  0  0999 V2000
  -12.7559   -6.2349  -24.1444 C   0  0  0  0  0  0  0  0  0  0  0  0
  -14.1353    0.1362  -24.6232 C   0  0  0  0  0  0  0  0  0  0  0  0
  -14.9940    0.5184  -23.5089 C   0  0  0  0  0  0  0  0  0  0  0  0
  -14.9899   -3.8565  -22.6937 C   0  0  0  0  0  0  0  0  0  0  0  0
  -16.2727    3.1721  -19.8980 P   0  0  0  0  0  0  0  0  0  0  0  0
  -15.1316    2.4101  -18.7470 O   0  0  0  0  0  0  0  0  0  0  0  0
  -14.5014   -3.6269  -23.8420 N   0  0  0  0  0  0  0  0  0  0  0  0
  -11.8183   -7.1103  -24.8561 N   0  0  0  0  0  0  0  0  0  0  0  0
  -13.7350   -1.5225  -24.0357 O   0  0  0  0  0  0  0  0  0  0  0  0
  -13.2309   -7.4926  -23.2348 N   0  0  0  0  0  0  0  0  0  0  0  0
  -17.8876    0.7123  -22.0175 O   0  0  0  0  0  0  0  0  0  0  0  0
  -14.3496   -7.4504  -21.5218 O   0  0  0  0  0  0  0  0  0  0  0  0
  -15.8677    0.5411  -22.8555 O   0  0  0  0  0  0  0  0  0  0  0  0
  -15.9224    4.6263  -19.8067 O   0  0  0  0  0  0  0  0  0  0  0  0
  -14.9964   -4.7897  -22.0491 N   0  0  0  0  0  0  0  0  0  0  0  0
  -15.4801   -0.5228  -25.2306 C   0  0  1  0  0  0  0  0  0  0  0  0
  -14.1250   -6.3712  -22.4828 C   0  0  0  0  0  0  0  0  0  0  0  0
  -17.6270    3.5319  -21.8777 O   0  0  0  0  0  0  0  0  0  0  0  0
  -16.9886    1.4812  -22.0647 P   0  0  0  0  0  5  0  0  0  0  0  0
  -14.1606   -1.9840  -26.9171 O   0  0  0  0  0  0  0  0  0  0  0  0
  -17.4490    2.9778  -19.3480 O   0  0  0  0  0  0  0  0  0  0  0  0
  -12.6016   -5.2161  -24.6161 N   0  0  0  0  0  0  0  0  0  0  0  0
  -15.9493    1.9873  -21.2261 O   0  0  0  0  0  0  0  0  0  0  0  0
  -14.4707    0.2295  -26.6114 O   0  0  0  0  0  0  0  0  0  0  0  0
  -13.9740   -5.0413  -23.4734 C   0  0  0  0  0  3  0  0  0  0  0  0
  -14.4728   -1.6757  -25.6134 C   0  0  1  0  0  0  0  0  0  0  0  0
  -14.5981   -2.6330  -24.6019 C   0  0  1  0  0  0  0  0  0  0  0  0
  3  2  1  0
  6  5  1  0
  7  4  1  0
  8  1  2  3
 10  1  1  0
 13  3  1  0
 14  5  1  0
 15  4  2  0
 16  2  1  0
 17 10  1  0
 17 12  1  0
 17 15  1  0
 19  6  1  0
 19 11  1  0
 19 13  1  0
 19 18  1  0
 21  5  1  0
 22  1  1  0
 23 19  1  0
 16 24  1  6
 25  7  1  0
 25 17  1  0
 26  9  1  0
 26 16  1  0
 26 20  1  6
 27  7  1  6
 27  9  1  0
 27 26  1  0
M  RAD  1  25   2
M  END
>  <ID>  (1) 
conformer_0

$$$$
