
     RDKit          3D

 28 32  0  0  0  0  0  0  0  0999 V2000
  -14.8006   -1.6197  -25.5212 C   0  0  0  0  0  0  0  0  0  0  0  0
  -12.1933   -6.3292  -24.5630 C   0  0  0  0  0  0  0  0  0  0  0  0
  -15.6637   -0.3773  -24.8642 C   0  0  0  0  0  0  0  0  0  0  0  0
  -13.7016   -6.7425  -22.6644 C   0  0  0  0  0  0  0  0  0  0  0  0
  -12.8469   -7.4004  -23.6637 N   0  0  0  0  0  0  0  0  0  0  0  0
  -17.0184    2.0596  -22.3439 P   0  0  0  0  0  0  0  0  0  0  0  0
  -15.3166    2.4464  -18.8896 O   0  0  0  0  0  0  0  0  0  0  0  0
  -17.6625    0.7223  -21.6135 O   0  0  0  0  0  0  0  0  0  0  0  0
  -14.4670   -3.3084  -23.5755 N   0  0  0  0  0  0  0  0  0  0  0  0
  -17.6024    2.7838  -19.4145 O   0  0  0  0  0  0  0  0  0  0  0  0
  -12.7773   -4.8189  -24.5059 N   0  0  0  0  0  0  0  0  0  0  0  0
  -14.2014   -7.5679  -21.6552 O   0  0  0  0  0  0  0  0  0  0  0  0
  -15.0208   -4.7428  -21.9326 N   0  0  0  0  0  0  0  0  0  0  0  0
  -14.3601   -5.4304  -22.5037 C   0  0  0  0  0  0  0  0  0  0  0  0
  -15.9965    1.5100  -23.2987 O   0  0  0  0  0  0  0  0  0  0  0  0
  -13.8974   -1.1793  -23.6516 O   0  0  0  0  0  0  0  0  0  0  0  0
  -15.6568   -0.5058  -26.5584 O   0  0  0  0  0  0  0  0  0  0  0  0
  -16.1290    4.5051  -20.1464 O   0  0  0  0  0  0  0  0  0  0  0  0
  -15.0841    1.0914  -23.8773 C   0  0  0  0  0  0  0  0  0  0  0  0
  -11.6581   -6.6938  -25.1307 N   0  0  0  0  0  0  0  0  0  0  0  0
  -17.6565    3.2074  -22.8181 O   0  0  0  0  0  0  0  0  0  0  0  0
  -16.4702    2.9889  -19.8913 P   0  0  0  0  0  5  0  0  0  0  0  0
  -13.4609   -1.1099  -26.3424 O   0  0  0  0  0  0  0  0  0  0  0  0
  -16.0108    2.3080  -21.1983 O   0  0  0  0  0  0  0  0  0  0  0  0
  -13.5546   -4.8084  -23.7364 C   0  0  0  0  0  0  0  0  0  0  0  0
  -14.3350   -2.4485  -24.3195 C   0  0  0  0  0  0  0  0  0  0  0  0
  -13.9552   -0.1959  -24.5366 C   0  0  0  0  0  0  0  0  0  0  0  0
  -15.0259   -3.4991  -22.5652 C   0  0  0  0  0  0  0  0  0  0  0  0
  3  1  1  0
  5  2  2  0
  5  4  1  0
  8  6  1  0
 11  2  1  0
 12  4  2  0
 14  4  1  0
 14 13  1  0
 15  6  1  0
 17  3  1  0
 19  3  1  0
 19 15  1  0
 20  2  1  0
 21  6  1  0
 22  7  1  0
 22 10  1  0
 22 18  1  0
 22 21  1  0
 23  1  1  0
 24 22  1  0
 25  9  1  0
 25 11  1  0
 25 14  2  0
 26  1  1  0
 26  9  1  0
 26 16  1  0
 27  1  1  0
 27  3  1  0
 27 16  1  0
 27 19  1  0
 28  9  1  0
 28 13  2  0
M  END
>  <ID>  (1) 
conformer_0

$$$$
