
     RDKit          3D

 27 29  0  0  0  0  0  0  0  0999 V2000
  -12.3582   -6.4505  -24.5002 C   0  0  0  0  0  0  0  0  0  0  0  0
  -14.4769   -2.1419  -24.8778 C   0  0  0  0  0  0  0  0  0  0  0  0
  -15.2876   -1.4181  -25.4010 C   0  0  0  0  0  0  0  0  0  0  0  0
  -14.0037   -4.4976  -23.5742 C   0  0  0  0  0  0  0  0  0  0  0  0
  -17.6851    0.7034  -21.7013 O   0  0  0  0  0  0  0  0  0  0  0  0
  -15.6935    1.0908  -22.8687 O   0  0  0  0  0  0  0  0  0  0  0  0
  -16.2832    3.0655  -19.8504 P   0  0  0  0  0  5  0  0  0  0  0  0
  -14.5392   -3.3586  -23.7183 N   0  0  0  0  0  0  0  0  0  0  0  0
  -14.9318   -0.1246  -24.8506 C   0  0  0  0  0  0  0  0  0  0  0  0
  -15.2028    2.5171  -18.7215 O   0  0  0  0  0  0  0  0  0  0  0  0
  -15.0868   -4.6787  -22.0121 N   0  0  0  0  0  0  0  0  0  0  0  0
  -14.2692   -7.4546  -21.4731 O   0  0  0  0  0  0  0  0  0  0  0  0
  -13.5840   -1.2441  -23.9375 O   0  0  0  0  0  0  0  0  0  0  0  0
  -17.6042    2.8919  -19.4338 O   0  0  0  0  0  0  0  0  0  0  0  0
  -14.2387   -6.3479  -22.1574 C   0  0  0  0  0  0  0  0  0  0  0  0
  -13.0296   -7.2150  -23.5157 N   0  0  0  0  0  0  0  0  0  0  0  0
  -11.7638   -6.8615  -24.9130 N   0  0  0  0  0  0  0  0  0  0  0  0
  -15.8459    4.5346  -20.2841 O   0  0  0  0  0  0  0  0  0  0  0  0
  -15.5005   -0.2218  -26.6844 O   0  0  0  0  0  0  0  0  0  0  0  0
  -17.3917    2.8001  -23.0266 O   0  0  0  0  0  0  0  0  0  0  0  0
  -16.9522    1.7542  -22.0714 P   0  0  0  0  0  0  0  0  0  0  0  0
  -15.1820   -3.6537  -22.4607 C   0  0  0  0  0  0  0  0  0  0  0  0
  -16.0658    2.3070  -20.9769 O   0  0  0  0  0  0  0  0  0  0  0  0
  -12.8207   -4.9050  -24.5390 N   0  0  0  0  0  0  0  0  0  0  0  0
  -14.7672    0.6090  -23.5591 C   0  0  0  0  0  0  0  0  0  0  0  0
  -14.8828   -2.3232  -26.6544 O   0  0  0  0  0  0  0  0  0  0  0  0
  -13.6686   -5.8480  -23.1642 C   0  0  0  0  0  0  0  0  0  0  0  0
  3  2  1  0
  8  2  1  0
  8  4  1  0
  9  3  1  0
 10  7  1  0
 13  2  1  0
 14  7  1  0
 15 11  1  0
 15 12  2  0
 16  1  1  0
 17  1  1  0
 18  7  1  0
 19  3  1  0
 20  7  1  0
 21  5  1  0
 21  6  1  0
 21 20  1  0
 22  8  1  0
 22 11  2  0
 23  7  1  0
 24  1  1  0
 24  4  1  0
 25  6  1  0
 25  9  1  0
 26  3  1  0
 27  1  1  0
 27  4  1  0
 27 15  1  0
 27 16  1  0
M  END
>  <ID>  (1) 
conformer_0

$$$$
