
     RDKit          3D

 26 26  0  0  0  0  0  0  0  0999 V2000
  -15.1643   -1.2234  -25.3742 C   0  0  0  0  0  0  0  0  0  0  0  0
  -14.0357   -6.4202  -22.3271 C   0  0  0  0  0  0  0  0  0  0  0  0
  -14.8175   -0.0925  -24.9457 C   0  0  0  0  0  0  0  0  0  0  0  0
  -14.7228   -3.8974  -22.7675 C   0  0  0  0  0  0  0  0  0  0  0  0
  -16.4515    3.1945  -19.9032 P   0  0  0  0  0  5  0  0  0  0  0  0
  -17.5727    0.6963  -21.3283 O   0  0  0  0  0  0  0  0  0  0  0  0
  -12.9930   -7.3013  -23.5023 N   0  0  0  0  0  0  0  0  0  0  0  0
  -13.4837   -1.3016  -23.9082 O   0  0  0  0  0  0  0  0  0  0  0  0
  -14.3357   -3.4045  -23.6945 N   0  0  0  0  0  0  0  0  0  0  0  0
  -15.0158   -4.6230  -21.9898 N   0  0  0  0  0  0  0  0  0  0  0  0
  -14.2817   -7.5221  -21.4410 O   0  0  0  0  0  0  0  0  0  0  0  0
  -14.6280    0.4915  -23.5578 C   0  0  0  0  0  0  0  0  0  0  0  0
  -15.6975    0.7601  -22.9151 O   0  0  0  0  0  0  0  0  0  0  0  0
  -13.8932   -5.1114  -23.2704 C   0  0  1  0  0  0  0  0  0  0  0  0
  -11.5533   -6.8124  -24.7162 N   0  0  0  0  0  0  0  0  0  0  0  0
  -16.0569    4.5316  -20.5091 O   0  0  0  0  0  0  0  0  0  0  0  0
  -17.5068    3.1253  -19.1622 O   0  0  0  0  0  0  0  0  0  0  0  0
  -14.1372   -0.8257  -26.7992 O   0  0  0  0  0  0  0  0  0  0  0  0
  -15.5926    2.7130  -19.1041 O   0  0  0  0  0  0  0  0  0  0  0  0
  -16.8554    1.6217  -22.0896 P   0  0  0  0  0  0  0  0  0  0  0  0
  -16.3810   -1.6609  -26.0762 O   0  0  0  0  0  0  0  0  0  0  0  0
  -17.4188    2.2367  -23.1370 O   0  0  0  0  0  0  0  0  0  0  0  0
  -12.6632   -6.3582  -24.0835 C   0  0  0  0  0  0  0  0  0  0  0  0
  -15.9185    2.2170  -21.2399 O   0  0  0  0  0  0  0  0  0  0  0  0
  -13.0127   -4.9288  -24.3750 N   0  0  0  0  0  0  0  0  0  0  0  0
  -14.0871   -2.1430  -24.8004 C   0  0  1  0  0  0  0  0  0  0  0  0
  3  1  1  0
  7  2  1  0
  9  4  1  0
 10  4  2  3
 11  2  2  0
 12  3  1  0
 13 12  1  0
 14  2  1  0
 14  4  1  0
 16  5  1  0
 17  5  1  0
 18  1  1  0
 19  5  1  0
 20  6  1  0
 20 13  1  0
 21  1  1  0
 22  5  1  0
 22 20  1  0
 23  7  1  0
 23 15  1  0
 24  5  1  0
 14 25  1  1
 25 23  1  0
 26  1  1  0
 26  8  1  1
 26  9  1  0
M  END
>  <ID>  (1) 
conformer_0

$$$$
