
     RDKit          3D

 26 27  0  0  0  0  0  0  0  0999 V2000
  -12.4514   -6.2677  -24.2095 C   0  0  0  0  0  0  0  0  0  0  0  0
  -13.9909   -0.0184  -24.8037 C   0  0  2  0  0  0  0  0  0  0  0  0
  -14.8468    0.3766  -23.8444 C   0  0  0  0  0  0  0  0  0  0  0  0
  -13.8657   -5.0232  -23.3522 C   0  0  0  0  0  0  0  0  0  0  0  0
  -17.6655    0.5906  -21.4645 O   0  0  0  0  0  0  0  0  0  0  0  0
  -16.4557    3.0866  -19.8536 P   0  0  0  0  0  5  0  0  0  0  0  0
  -16.2381    2.7046  -21.0975 O   0  0  0  0  0  0  0  0  0  0  0  0
  -14.5893   -3.3781  -23.6856 N   0  0  0  0  0  0  0  0  0  0  0  0
  -11.6546   -7.2628  -24.9067 N   0  0  0  0  0  0  0  0  0  0  0  0
  -15.4064    2.4577  -18.9426 O   0  0  0  0  0  0  0  0  0  0  0  0
  -12.9195   -7.4463  -23.3080 N   0  0  0  0  0  0  0  0  0  0  0  0
  -17.7407    2.7782  -19.2506 O   0  0  0  0  0  0  0  0  0  0  0  0
  -13.9251   -6.3335  -22.4511 C   0  0  1  0  0  0  0  0  0  0  0  0
  -14.2122   -7.3950  -21.5132 O   0  0  0  0  0  0  0  0  0  0  0  0
  -14.9377   -4.7585  -22.0687 N   0  0  0  0  0  0  0  0  0  0  0  0
  -13.8525   -1.5494  -24.0102 O   0  0  0  0  0  0  0  0  0  0  0  0
  -16.0139   -0.7064  -26.6934 O   0  0  0  0  0  0  0  0  0  0  0  0
  -15.8674    0.7733  -22.9144 O   0  0  0  0  0  0  0  0  0  0  0  0
  -14.6635   -1.9215  -24.6768 C   0  0  2  0  0  0  0  0  0  0  0  0
  -13.3976   -0.1851  -26.3308 O   0  0  0  0  0  0  0  0  0  0  0  0
  -16.9894    1.8060  -22.0868 P   0  0  0  0  0  0  0  0  0  0  0  0
  -17.4657    2.7013  -22.9412 O   0  0  0  0  0  0  0  0  0  0  0  0
  -16.3589    4.5651  -19.3884 O   0  0  0  0  0  0  0  0  0  0  0  0
  -14.9685   -3.7815  -22.8341 C   0  0  0  0  0  0  0  0  0  0  0  0
  -12.5330   -5.4336  -24.6041 N   0  0  0  0  0  0  0  0  0  0  0  0
  -15.6776   -0.8089  -25.2755 C   0  0  1  0  0  0  0  0  0  0  0  0
  3  2  1  0
  7  6  1  0
  9  1  2  3
 10  6  1  0
 11  1  1  0
 12  6  1  0
 13  4  1  0
 13 11  1  0
 13 14  1  6
 15 13  1  0
 16  2  1  0
 18  3  1  0
 19  8  1  1
 19 16  1  0
  2 20  1  1
 21  5  1  0
 21 18  1  0
 22  6  1  0
 22 21  1  0
 23  6  1  0
 24  4  1  0
 24  8  1  0
 24 15  2  0
 25  1  1  0
 26  2  1  0
 26 17  1  6
 26 19  1  0
M  END
>  <ID>  (1) 
conformer_0

$$$$
