
     RDKit          3D

 27 30  0  0  0  0  0  0  0  0999 V2000
  -14.4577    0.1132  -24.8899 C   0  0  0  0  0  0  0  0  0  0  0  0
  -12.3702   -6.2713  -24.1553 C   0  0  0  0  0  0  0  0  0  0  0  0
  -14.7584    0.6514  -23.4410 C   0  0  0  0  0  0  0  0  0  0  0  0
  -13.8366   -4.6157  -23.7508 C   0  0  0  0  0  0  0  0  0  0  0  0
  -16.4297    3.1264  -19.8677 P   0  0  0  0  0  5  0  0  0  0  0  0
  -17.6528    0.4620  -21.4762 O   0  0  0  0  0  0  0  0  0  0  0  0
  -14.7053   -3.1843  -23.7441 N   0  0  0  0  0  0  0  0  0  0  0  0
  -12.9773   -7.2142  -23.2885 N   0  0  0  0  0  0  0  0  0  0  0  0
  -17.1801    2.6545  -22.6277 O   0  0  0  0  0  0  0  0  0  0  0  0
  -15.2565   -4.4292  -22.1101 N   0  0  0  0  0  0  0  0  0  0  0  0
  -15.2932    2.4187  -18.7425 O   0  0  0  0  0  0  0  0  0  0  0  0
  -15.9210    4.5102  -20.1911 O   0  0  0  0  0  0  0  0  0  0  0  0
  -13.6246   -1.1784  -23.8535 O   0  0  0  0  0  0  0  0  0  0  0  0
  -11.5401   -6.6965  -24.6454 N   0  0  0  0  0  0  0  0  0  0  0  0
  -14.4964   -7.1538  -21.4900 O   0  0  0  0  0  0  0  0  0  0  0  0
  -15.6211   -0.6326  -25.3780 C   0  0  0  0  0  0  0  0  0  0  0  0
  -14.4539   -5.0978  -22.6505 C   0  0  0  0  0  0  0  0  0  0  0  0
  -15.1264    0.5933  -26.6140 O   0  0  0  0  0  0  0  0  0  0  0  0
  -17.5856    3.0954  -19.3807 O   0  0  0  0  0  0  0  0  0  0  0  0
  -16.8395    1.6968  -21.9066 P   0  0  0  0  0  0  0  0  0  0  0  0
  -15.6639    0.8717  -22.7713 O   0  0  0  0  0  0  0  0  0  0  0  0
  -15.3857   -3.2137  -22.8532 C   0  0  0  0  0  0  0  0  0  0  0  0
  -14.6079   -1.8435  -24.8024 C   0  0  0  0  0  0  0  0  0  0  0  0
  -16.0806    2.1440  -20.8752 O   0  0  0  0  0  0  0  0  0  0  0  0
  -12.8700   -5.0037  -24.4806 N   0  0  0  0  0  0  0  0  0  0  0  0
  -14.7971   -1.3933  -26.9472 O   0  0  0  0  0  0  0  0  0  0  0  0
  -13.9198   -6.5425  -22.4261 C   0  0  0  0  0  0  0  0  0  0  0  0
  3  1  1  0
  7  4  1  0
  8  2  1  0
  9  5  1  0
 11  5  1  0
 12  5  1  0
 13  1  1  0
 14  2  1  0
 16  1  1  0
 17  4  2  0
 17 10  1  0
 18 16  1  0
 19  5  1  0
 20  6  1  0
 20  9  1  0
 21  3  1  0
 21 20  1  0
 22  7  1  0
 22 10  2  0
 23  1  1  0
 23  7  1  0
 23 13  1  0
 23 16  1  0
 24  5  1  0
 25  2  1  0
 25  4  1  0
 26 16  1  0
 27  8  1  0
 27 15  2  0
 27 17  1  0
M  END
>  <ID>  (1) 
conformer_0

$$$$
