
     RDKit          3D

 26 28  0  0  0  0  0  0  0  0999 V2000
  -12.5692   -6.3380  -24.2449 C   0  0  0  0  0  0  0  0  0  0  0  0
  -14.7426   -0.2912  -24.8560 C   0  0  2  0  0  0  0  0  0  0  0  0
  -15.2442   -1.5700  -25.2977 C   0  0  0  0  0  0  0  0  0  0  0  0
  -13.7621   -5.1905  -23.4612 C   0  0  2  0  0  0  0  0  0  0  0  0
  -12.8164   -7.3665  -23.4900 N   0  0  0  0  0  0  0  0  0  0  0  0
  -17.6662    0.3609  -21.3236 O   0  0  0  0  0  0  0  0  0  0  0  0
  -16.1948    2.8003  -19.6821 P   0  0  0  0  0  5  0  0  0  0  0  0
  -15.1379    2.4149  -18.6385 O   0  0  0  0  0  0  0  0  0  0  0  0
  -14.9874   -4.7988  -22.0717 N   0  0  0  0  0  0  0  0  0  0  0  0
  -14.3470   -3.6411  -23.8685 N   0  0  0  0  0  0  0  0  0  0  0  0
  -13.6616   -1.4165  -24.0622 O   0  0  0  0  0  0  0  0  0  0  0  0
  -17.5566    2.6237  -19.5117 O   0  0  0  0  0  0  0  0  0  0  0  0
  -11.6227   -6.8958  -25.0395 N   0  0  0  0  0  0  0  0  0  0  0  0
  -14.1284   -7.6308  -21.5608 O   0  0  0  0  0  0  0  0  0  0  0  0
  -13.9457   -6.5226  -22.4281 C   0  0  0  0  0  0  0  0  0  0  0  0
  -15.8567    2.1372  -20.9725 O   0  0  0  0  0  0  0  0  0  0  0  0
  -15.0252    0.6702  -23.8075 C   0  0  0  0  0  0  0  0  0  0  0  0
  -14.5202   -0.9011  -26.8321 O   0  0  0  0  0  0  0  0  0  0  0  0
  -16.4835   -2.3097  -25.7132 O   0  0  0  0  0  0  0  0  0  0  0  0
  -17.7340    2.5190  -22.5372 O   0  0  0  0  0  0  0  0  0  0  0  0
  -16.1606    4.2807  -19.7571 O   0  0  0  0  0  0  0  0  0  0  0  0
  -17.0308    1.5505  -21.9071 P   0  0  0  0  0  0  0  0  0  0  0  0
  -14.8122   -4.1540  -22.7448 C   0  0  0  0  0  0  0  0  0  0  0  0
  -15.9706    1.1240  -22.9674 O   0  0  0  0  0  0  0  0  0  0  0  0
  -14.3644   -2.4562  -24.9675 C   0  0  2  0  0  0  0  0  0  0  0  0
  -12.8011   -5.1051  -24.6301 N   0  0  0  0  0  0  0  0  0  0  0  0
  3  2  1  0
  5  1  2  0
  8  7  1  0
 10  4  1  0
 11  2  1  0
 12  7  1  0
 13  1  1  0
 15  4  1  0
 15  5  1  0
 15 14  2  0
 16  7  1  0
  2 17  1  1
 18  3  1  0
 19  3  1  0
 20  7  1  0
 21  7  1  0
 22  6  1  0
 22 20  1  0
 23  4  1  0
 23  9  2  3
 23 10  1  0
 24 17  1  0
 24 22  1  0
 25  3  1  0
 25 10  1  1
 25 11  1  0
 26  1  1  0
  4 26  1  1
M  END
>  <ID>  (1) 
conformer_0

$$$$
