
     RDKit          3D

 26 26  0  0  0  0  0  0  0  0999 V2000
  -14.5044   -2.0970  -24.6307 C   0  0  2  0  0  0  0  0  0  0  0  0
  -12.3900   -6.1351  -24.3662 C   0  0  0  0  0  0  0  0  0  0  0  0
  -14.9479   -1.2669  -25.7500 C   0  0  2  0  0  0  0  0  0  0  0  0
  -14.9721   -3.6040  -22.8156 C   0  0  0  0  0  0  0  0  0  0  0  0
  -12.7875   -7.3307  -23.7155 N   0  0  0  0  0  0  0  0  0  0  0  0
  -17.7049    0.2901  -21.3708 O   0  0  0  0  0  0  0  0  0  0  0  0
  -17.0762    1.6349  -22.0359 P   0  0  0  0  0  0  0  0  0  0  0  0
  -16.1214    2.3085  -21.0176 O   0  0  0  0  0  0  0  0  0  0  0  0
  -14.2904   -7.2288  -21.6734 O   0  0  0  0  0  0  0  0  0  0  0  0
  -14.6291   -3.1332  -23.7322 N   0  0  0  0  0  0  0  0  0  0  0  0
  -15.2958    2.6131  -18.8764 O   0  0  0  0  0  0  0  0  0  0  0  0
  -15.0593   -4.4627  -22.1842 N   0  0  0  0  0  0  0  0  0  0  0  0
  -17.6841    2.6618  -19.2814 O   0  0  0  0  0  0  0  0  0  0  0  0
  -11.4264   -6.4866  -25.0704 N   0  0  0  0  0  0  0  0  0  0  0  0
  -13.9574   -6.1004  -22.6956 C   0  0  0  0  0  0  0  0  0  0  0  0
  -14.9545    0.6812  -23.1387 C   0  0  0  0  0  0  0  0  0  0  0  0
  -13.8052   -1.1389  -23.8238 O   0  0  0  0  0  0  0  0  0  0  0  0
  -14.7548   -0.2911  -26.7383 O   0  0  0  0  0  0  0  0  0  0  0  0
  -17.8284    2.2051  -22.8725 O   0  0  0  0  0  0  0  0  0  0  0  0
  -12.7886   -4.6873  -24.5929 N   0  0  0  0  0  0  0  0  0  0  0  0
  -16.3631    2.9726  -19.8601 P   0  0  0  0  0  5  0  0  0  0  0  0
  -13.8238   -4.9013  -23.5434 C   0  0  0  0  0  0  0  0  0  0  0  0
  -15.8243    1.3307  -22.9305 O   0  0  0  0  0  0  0  0  0  0  0  0
  -15.7263   -0.0090  -25.0353 C   0  0  0  0  0  0  0  0  0  0  0  0
  -16.7597    4.1525  -20.3082 O   0  0  0  0  0  0  0  0  0  0  0  0
  -14.1016    0.0052  -24.4449 C   0  0  1  0  0  0  0  0  0  0  0  0
  3  1  1  0
  5  2  2  3
  7  6  1  0
  1 10  1  1
 10  4  1  0
 12  4  2  3
 14  2  1  0
 15  9  2  0
 17  1  1  0
  3 18  1  1
 19  7  1  0
 20  2  1  0
 21  8  1  0
 21 11  1  0
 21 13  1  0
 21 19  1  0
 22  4  1  0
 22 15  2  0
 22 20  1  0
 23  7  1  0
 23 16  1  0
 24  3  1  0
 25 21  1  0
 26 16  1  1
 26 17  1  0
 26 24  1  0
M  END
>  <ID>  (1) 
conformer_0

$$$$
