
     RDKit          3D

 26 27  0  0  0  0  0  0  0  0999 V2000
  -12.7635   -6.2005  -24.1113 C   0  0  1  0  0  0  0  0  0  0  0  0
  -14.2638   -1.8126  -24.6161 C   0  0  2  0  0  0  0  0  0  0  0  0
  -15.1445   -1.1557  -25.2751 C   0  0  0  0  0  0  0  0  0  0  0  0
  -14.0790   -4.8809  -23.3935 C   0  0  2  0  0  0  0  0  0  0  0  0
  -17.5875    0.5563  -21.3408 O   0  0  0  0  0  0  0  0  0  0  0  0
  -16.3066    3.0884  -20.0212 P   0  0  0  0  0  5  0  0  0  0  0  0
  -15.2259    2.5626  -18.9055 O   0  0  0  0  0  0  0  0  0  0  0  0
  -14.6674   -3.2025  -23.6564 N   0  0  0  0  0  0  0  0  0  0  0  0
  -13.2113   -7.3815  -23.3286 N   0  0  0  0  0  0  0  0  0  0  0  0
  -11.8438   -6.9724  -24.6990 N   0  0  0  0  0  0  0  0  0  0  0  0
  -17.3775    2.9362  -19.4793 O   0  0  0  0  0  0  0  0  0  0  0  0
  -14.3061   -7.2183  -21.4729 O   0  0  0  0  0  0  0  0  0  0  0  0
  -13.5744   -1.0172  -23.6487 O   0  0  0  0  0  0  0  0  0  0  0  0
  -15.0788   -4.5241  -22.0914 N   0  0  0  0  0  0  0  0  0  0  0  0
  -15.9035    0.8941  -23.0765 O   0  0  0  0  0  0  0  0  0  0  0  0
  -14.1920   -6.1972  -22.4393 C   0  0  0  0  0  0  0  0  0  0  0  0
  -15.9028    4.5302  -20.7671 O   0  0  0  0  0  0  0  0  0  0  0  0
  -14.4707    0.4939  -23.5055 C   0  0  2  0  0  0  0  0  0  0  0  0
  -15.5883   -0.4739  -26.6150 O   0  0  0  0  0  0  0  0  0  0  0  0
  -12.9354   -4.9530  -24.4749 N   0  0  0  0  0  0  0  0  0  0  0  0
  -17.5743    2.6727  -22.9398 O   0  0  0  0  0  0  0  0  0  0  0  0
  -15.9302    2.2743  -21.2535 O   0  0  0  0  0  0  0  0  0  0  0  0
  -16.9157    1.8463  -22.2696 P   0  0  0  0  0  0  0  0  0  0  0  0
  -15.0377   -3.5915  -22.7946 C   0  0  0  0  0  0  0  0  0  0  0  0
  -15.8257    0.0162  -24.5187 C   0  0  0  0  0  0  0  0  0  0  0  0
  -14.1584   -1.9215  -26.5156 O   0  0  0  0  0  0  0  0  0  0  0  0
  3  2  1  0
  7  6  1  0
  2  8  1  1
  9  1  1  0
  1 10  1  6
 11  6  1  0
 13  2  1  0
 16  4  1  0
 16  9  1  0
 16 12  2  0
 17  6  1  0
 18 13  1  0
 18 15  1  1
 19  3  1  0
 20  1  1  0
  4 20  1  1
 21  6  1  0
 22  6  1  0
 23  5  1  0
 23 15  1  0
 23 21  1  0
 24  4  1  0
 24  8  1  0
 24 14  2  3
 25  3  1  0
 25 18  1  0
 26  3  1  0
M  END
>  <ID>  (1) 
conformer_0

$$$$
