
     RDKit          3D

 26 29  0  0  0  0  0  0  0  0999 V2000
  -12.7286   -6.1500  -23.9536 C   0  0  0  0  0  0  0  0  0  0  0  0
  -15.3776   -1.6637  -25.4160 C   0  0  0  0  0  0  0  0  0  0  0  0
  -14.6307   -2.4596  -25.0715 C   0  0  0  0  0  0  0  0  0  0  0  0
  -13.9314   -4.8367  -23.4475 C   0  0  0  0  0  0  0  0  0  0  0  0
  -16.4436    2.9358  -19.9341 P   0  0  0  0  0  5  0  0  0  0  0  0
  -16.9722    2.4816  -23.4759 O   0  0  0  0  0  0  0  0  0  0  0  0
  -11.7743   -7.2645  -24.4867 N   0  0  0  0  0  0  0  0  0  0  0  0
  -17.4967    0.6172  -21.5882 O   0  0  0  0  0  0  0  0  0  0  0  0
  -15.3363    2.4257  -18.9276 O   0  0  0  0  0  0  0  0  0  0  0  0
  -15.0784   -4.5107  -21.9854 N   0  0  0  0  0  0  0  0  0  0  0  0
  -13.5309   -1.4838  -24.1133 O   0  0  0  0  0  0  0  0  0  0  0  0
  -17.6102    2.7271  -19.5976 O   0  0  0  0  0  0  0  0  0  0  0  0
  -14.5436   -3.5234  -23.8920 N   0  0  0  0  0  0  0  0  0  0  0  0
  -14.3823   -7.3122  -21.4705 O   0  0  0  0  0  0  0  0  0  0  0  0
  -14.5938   -0.4973  -24.9631 C   0  0  0  0  0  0  0  0  0  0  0  0
  -14.1695   -6.1000  -22.2680 C   0  0  0  0  0  0  0  0  0  0  0  0
  -13.2975   -7.0794  -23.0187 N   0  0  0  0  0  0  0  0  0  0  0  0
  -14.6489   -0.5480  -26.7690 O   0  0  0  0  0  0  0  0  0  0  0  0
  -16.5029   -2.4578  -25.9479 O   0  0  0  0  0  0  0  0  0  0  0  0
  -16.5662    1.6906  -22.3810 P   0  0  0  0  0  0  0  0  0  0  0  0
  -15.2798    0.8518  -22.9050 O   0  0  0  0  0  0  0  0  0  0  0  0
  -16.2830    4.4474  -19.8229 O   0  0  0  0  0  0  0  0  0  0  0  0
  -15.9204    2.4254  -21.2734 O   0  0  0  0  0  0  0  0  0  0  0  0
  -14.9710   -3.8604  -22.7101 C   0  0  0  0  0  0  0  0  0  0  0  0
  -12.5042   -5.4438  -24.6190 N   0  0  0  0  0  0  0  0  0  0  0  0
  -14.4614    0.3037  -23.8556 C   0  0  0  0  0  0  0  0  0  0  0  0
  3  2  1  0
  4  1  1  0
  6  5  1  0
  7  1  1  0
  9  5  1  0
 11  3  1  0
 12  5  1  0
 13  3  1  0
 13  4  1  0
 15  2  1  0
 15 11  1  0
 16  4  1  0
 16 10  1  0
 16 14  1  0
 17  1  1  0
 17 16  1  0
 18 15  1  0
 19  2  1  0
 20  6  1  0
 20  8  1  0
 21 20  1  0
 22  5  1  0
 23  5  1  0
 24  4  1  0
 24 10  2  0
 24 13  1  0
 25  1  1  0
 26 15  1  0
 26 21  1  0
M  END
>  <ID>  (1) 
conformer_0

$$$$
