
     RDKit          3D

 28 30  0  0  0  0  0  0  0  0999 V2000
  -12.2049   -6.3200  -24.4935 C   0  0  2  0  0  0  0  0  0  0  0  0
  -15.9836   -0.2725  -24.6350 C   0  0  2  0  0  0  0  0  0  0  0  0
  -14.2999    0.1353  -25.0343 C   0  0  1  0  0  0  0  0  0  0  0  0
  -14.0725   -4.3813  -23.3639 C   0  0  2  0  0  0  0  0  0  0  0  0
  -12.9445   -7.3209  -23.3933 N   0  0  0  0  0  0  0  0  0  0  0  0
  -16.3133    2.9987  -20.0321 P   0  0  0  0  0  5  0  0  0  0  0  0
  -17.6140    0.4873  -21.4222 O   0  0  0  0  0  0  0  0  0  0  0  0
  -11.6714   -6.7046  -24.9228 N   0  0  0  0  0  0  0  0  0  0  0  0
  -15.1210   -4.5726  -21.9567 N   0  0  0  0  0  0  0  0  0  0  0  0
  -16.2175    0.5548  -23.3607 O   0  0  0  0  0  0  0  0  0  0  0  0
  -14.5892   -3.1058  -23.4387 N   0  0  0  0  0  0  0  0  0  0  0  0
  -13.6526   -1.1309  -23.6647 O   0  0  0  0  0  0  0  0  0  0  0  0
  -16.0960    2.4109  -21.4252 O   0  0  0  0  0  0  0  0  0  0  0  0
  -14.3524   -7.3784  -21.5442 O   0  0  0  0  0  0  0  0  0  0  0  0
  -17.5776    2.7843  -19.5809 O   0  0  0  0  0  0  0  0  0  0  0  0
  -14.3127   -6.3354  -22.1487 C   0  0  0  0  0  0  0  0  0  0  0  0
  -15.3932    2.4378  -19.0759 O   0  0  0  0  0  0  0  0  0  0  0  0
  -14.3970   -0.0233  -26.6815 O   0  0  0  0  0  0  0  0  0  0  0  0
  -14.4879    0.9317  -23.5763 C   0  0  0  0  0  0  0  0  0  0  0  0
  -12.9579   -4.7861  -24.3696 N   0  0  0  0  0  0  0  0  0  0  0  0
  -15.9191    4.4550  -20.1417 O   0  0  0  0  0  0  0  0  0  0  0  0
  -17.0257    1.6787  -22.3340 P   0  0  0  0  0  0  0  0  0  0  0  0
  -17.5450    2.3607  -23.2181 O   0  0  0  0  0  0  0  0  0  0  0  0
  -15.2216   -3.4791  -22.4724 C   0  0  0  0  0  0  0  0  0  0  0  0
  -14.4993   -2.0866  -26.6359 O   0  0  0  0  0  0  0  0  0  0  0  0
  -14.2748   -1.9760  -24.1318 C   0  0  0  0  0  0  0  0  0  0  0  0
  -15.0763   -1.5665  -25.5027 C   0  0  2  0  0  0  0  0  0  0  0  0
  -13.6205   -5.9116  -23.2004 C   0  0  1  0  0  0  0  0  0  0  0  0
  3  2  1  0
  5  1  1  0
  1  8  1  1
  2 10  1  1
  4 11  1  6
 13  6  1  0
 15  6  1  0
 16 14  2  0
 17  6  1  0
 18  3  1  0
  3 19  1  6
 20  1  1  0
 20  4  1  0
 21  6  1  0
 22  7  1  0
 22 10  1  0
 23  6  1  0
 23 22  1  0
 24  9  2  3
 24 11  1  0
 26 11  1  0
 26 12  2  0
 27  2  1  0
 27  3  1  0
 27 25  1  6
 27 26  1  0
 28  1  1  0
 28  4  1  0
 28  5  1  0
 28 16  1  1
M  END
>  <ID>  (1) 
conformer_0

$$$$
