
     RDKit          3D

 28 29  0  0  0  0  0  0  0  0999 V2000
  -14.5288   -1.9535  -24.2282 C   0  0  2  0  0  0  0  0  0  0  0  0
  -12.1704   -6.3966  -24.5509 C   0  0  0  0  0  0  0  0  0  0  0  0
  -14.1114    0.3613  -24.4042 C   0  0  2  0  0  0  0  0  0  0  0  0
  -15.1840   -3.0917  -22.4813 C   0  0  0  0  0  0  0  0  0  0  0  0
  -12.8789   -7.2403  -23.4433 N   0  0  0  0  0  0  0  0  0  0  0  0
  -17.5890    0.5791  -21.4842 O   0  0  0  0  0  0  0  0  0  0  0  0
  -14.6721   -3.0106  -23.3874 N   0  0  0  0  0  0  0  0  0  0  0  0
  -16.4343    3.1725  -20.1263 P   0  0  0  0  0  5  0  0  0  0  0  0
  -16.0366    2.6907  -21.2672 O   0  0  0  0  0  0  0  0  0  0  0  0
  -15.1193   -4.6067  -21.9250 N   0  0  0  0  0  0  0  0  0  0  0  0
  -17.5420    2.7567  -19.5025 O   0  0  0  0  0  0  0  0  0  0  0  0
  -15.3519    2.4238  -18.9582 O   0  0  0  0  0  0  0  0  0  0  0  0
  -14.2446   -7.3172  -21.6751 O   0  0  0  0  0  0  0  0  0  0  0  0
  -11.6707   -6.6937  -25.2104 N   0  0  0  0  0  0  0  0  0  0  0  0
  -13.8014   -6.5316  -22.4984 C   0  0  0  0  0  0  0  0  0  0  0  0
  -13.6470   -1.0411  -23.8247 O   0  0  0  0  0  0  0  0  0  0  0  0
  -14.8093    1.0967  -23.3556 C   0  0  0  0  0  0  0  0  0  0  0  0
  -16.0437    4.6663  -20.2764 O   0  0  0  0  0  0  0  0  0  0  0  0
  -16.7716   -1.4967  -25.6653 O   0  0  0  0  0  0  0  0  0  0  0  0
  -12.9825   -4.7374  -24.5197 N   0  0  0  0  0  0  0  0  0  0  0  0
  -14.6534   -0.5152  -26.6061 O   0  0  0  0  0  0  0  0  0  0  0  0
  -15.9848    1.2469  -23.0222 O   0  0  0  0  0  0  0  0  0  0  0  0
  -17.0304    1.9004  -22.1393 P   0  0  0  0  0  0  0  0  0  0  0  0
  -14.4971   -4.8120  -22.5813 C   0  0  2  0  0  0  0  0  0  0  0  0
  -17.6992    2.9246  -22.7137 O   0  0  0  0  0  0  0  0  0  0  0  0
  -15.3185   -1.5411  -25.3868 C   0  0  0  0  0  0  0  0  0  0  0  0
  -15.6435   -0.0404  -24.9831 C   0  0  0  0  0  0  0  0  0  0  0  0
  -13.3970   -4.9907  -23.7115 C   0  0  0  0  0  0  0  0  0  0  0  0
  5  2  2  0
  7  1  1  0
  7  4  2  3
  9  8  1  0
 10  4  1  0
 11  8  1  0
 12  8  1  0
 14  2  1  0
 15  5  1  0
 15 13  2  0
  1 16  1  1
 16  3  1  0
  3 17  1  1
 18  8  1  0
 20  2  1  0
 22 17  1  0
 23  6  1  0
 23 22  1  0
 24 10  1  1
 24 15  1  0
 25  8  1  0
 25 23  1  0
 26  1  1  0
 26 19  1  0
 26 21  1  0
 27  3  1  0
 27 26  1  0
 28 20  1  0
 28 24  1  0
M  END
>  <ID>  (1) 
conformer_0

$$$$
