
     RDKit          3D

 26 26  0  0  0  0  0  0  0  0999 V2000
  -12.6789   -6.0664  -24.2381 C   0  0  0  0  0  0  0  0  0  0  0  0
  -14.9362   -1.3828  -25.3802 C   0  0  0  0  0  0  0  0  0  0  0  0
  -15.2000    0.0230  -24.6903 C   0  0  0  0  0  0  0  0  0  0  0  0
  -14.9870   -3.6360  -22.8398 C   0  0  0  0  0  0  0  0  0  0  0  0
  -13.0082   -7.1652  -23.5498 N   0  0  0  0  0  0  0  0  0  0  0  0
  -14.4366   -3.3348  -23.8342 N   0  0  0  0  0  0  0  0  0  0  0  0
  -16.9154    1.8599  -22.3187 P   0  0  1  0  0  4  0  0  0  0  0  0
  -15.2309    2.4052  -18.7664 O   0  0  0  0  0  1  0  0  0  0  0  0
  -17.5795    0.4546  -21.3594 O   0  0  0  0  0  0  0  0  0  0  0  0
  -17.6160    2.8596  -19.4028 O   0  0  0  0  0  0  0  0  0  0  0  0
  -14.3741   -7.3055  -21.6940 O   0  0  0  0  0  0  0  0  0  0  0  0
  -11.7121   -6.9306  -25.1806 N   0  0  0  0  0  0  0  0  0  0  0  0
  -13.3702   -1.1610  -23.9114 O   0  0  0  0  0  0  0  0  0  0  0  0
  -15.1396   -4.4964  -22.0501 N   0  0  0  0  0  0  0  0  0  0  0  0
  -17.6708    2.3776  -23.0766 O   0  0  0  0  0  1  0  0  0  0  0  0
  -14.1448   -6.1328  -22.5363 C   0  0  0  0  0  0  0  0  0  0  0  0
  -14.4613    0.5073  -23.6377 C   0  0  0  0  0  0  0  0  0  0  0  0
  -14.1327   -1.4931  -26.8117 O   0  0  0  0  0  0  0  0  0  0  0  0
  -16.3583    2.9337  -19.8048 P   0  0  0  0  0  4  0  0  0  0  0  0
  -16.0215    4.4005  -20.0473 O   0  0  0  0  0  0  0  0  0  0  0  0
  -16.1878    2.3917  -21.1330 O   0  0  0  0  0  0  0  0  0  0  0  0
  -15.8700    1.1531  -23.0643 O   0  0  0  0  0  0  0  0  0  0  0  0
  -12.6725   -5.0631  -24.6262 N   0  0  0  0  0  0  0  0  0  0  0  0
  -13.9882   -4.8524  -23.4605 C   0  0  2  0  0  0  0  0  0  0  0  0
  -14.2017   -2.0768  -24.8560 C   0  0  2  0  0  0  0  0  0  0  0  0
  -15.9637   -1.1828  -26.3068 O   0  0  0  0  0  0  0  0  0  0  0  0
  3  2  1  0
  5  1  2  0
  6  4  1  0
  7  9  1  1
 12  1  1  0
 14  4  2  3
 15  7  1  0
 16  5  1  0
 16 11  2  0
 17  3  1  0
 18  2  1  0
 19  8  1  0
 19 10  1  0
 20 19  1  0
 21  7  1  0
 21 19  1  0
 22  7  1  0
 22 17  1  0
 23  1  1  0
 24  6  1  1
 24 16  1  0
 24 23  1  0
 25  2  1  0
 25  6  1  0
 25 13  1  1
 26  2  1  0
M  RAD  4   7   2   8   2  15   2  19   2
M  END
>  <ID>  (1) 
conformer_0

$$$$
