
     RDKit          3D

 23 22  0  0  0  0  0  0  0  0999 V2000
  -14.7342   -1.8717  -24.9260 C   0  0  1  0  0  0  0  0  0  0  0  0
  -12.4641   -6.3247  -24.1535 C   0  0  0  0  0  0  0  0  0  0  0  0
  -15.3200   -0.7261  -25.1073 C   0  0  0  0  0  0  0  0  0  0  0  0
  -13.8506   -6.2986  -22.5583 C   0  0  0  0  0  0  0  0  0  0  0  0
  -15.4127    2.4385  -19.1022 O   0  0  0  0  0  1  0  0  0  0  0  0
  -17.5943    0.4854  -21.4226 O   0  0  0  0  0  0  0  0  0  0  0  0
  -16.6748    1.8724  -22.2816 P   0  0  2  0  0  4  0  0  0  0  0  0
  -13.6203   -1.5128  -23.9427 O   0  0  0  0  0  0  0  0  0  0  0  0
  -14.3787   -3.4364  -23.7303 N   0  0  0  0  0  0  0  0  0  0  0  0
  -11.7752   -6.8069  -24.6548 N   0  0  0  0  0  0  0  0  0  0  0  0
  -12.9286   -7.3512  -23.4467 N   0  0  0  0  0  0  0  0  0  0  0  0
  -17.7153    2.7125  -19.5770 O   0  0  0  0  0  0  0  0  0  0  0  0
  -14.2046   -7.3460  -21.6158 O   0  0  0  0  0  0  0  0  0  0  0  0
  -13.7756   -5.0146  -23.3775 C   0  0  0  0  0  0  0  0  0  0  0  0
  -16.2888    2.8812  -21.9358 O   0  0  0  0  0  0  0  0  0  0  0  0
  -14.9370   -4.7227  -22.1536 N   0  0  0  0  0  0  0  0  0  0  0  0
  -14.5789    0.3012  -24.0843 C   0  0  0  0  0  0  0  0  0  0  0  0
  -14.7953   -0.2300  -26.5862 O   0  0  0  0  0  0  0  0  0  0  0  0
  -16.6784   -2.1517  -25.9268 O   0  0  0  0  0  0  0  0  0  0  0  0
  -16.2223    4.4432  -19.6623 O   0  0  0  0  0  0  0  0  0  0  0  0
  -16.4358    2.9118  -19.7955 P   0  0  0  0  0  4  0  0  0  0  0  0
  -16.0978    1.4086  -23.1934 O   0  0  0  0  0  1  0  0  0  0  0  0
  -14.8596   -3.7442  -22.7824 C   0  0  0  0  0  0  0  0  0  0  0  0
  3  1  1  0
  7  6  1  1
  1  8  1  1
  9  1  1  0
 10  2  1  0
 11  2  2  3
 11  4  1  0
 13  4  2  0
 14  4  1  0
 15  7  1  0
 16 14  2  3
 17  3  1  0
 17  7  1  0
 18  3  1  0
 19  3  1  0
 21  5  1  0
 21 12  1  0
 21 15  1  0
 21 20  1  0
 22  7  1  0
 23  9  2  3
 23 16  1  0
M  RAD  4   5   2   7   2  21   2  22   2
M  END
>  <ID>  (1) 
conformer_0

$$$$
