
     RDKit          3D

 25 27  0  0  0  0  0  0  0  0999 V2000
  -12.6929   -6.2191  -24.1931 C   0  0  0  0  0  0  0  0  0  0  0  0
  -15.0479    0.7581  -23.6677 C   0  0  0  0  0  0  0  0  0  0  0  0
  -14.2280   -0.0232  -24.5152 C   0  0  0  0  0  0  0  0  0  0  0  0
  -13.9568   -4.8834  -23.6003 C   0  0  0  0  0  3  0  0  0  0  0  0
  -13.1392   -7.5287  -23.4799 N   0  0  0  0  0  0  0  0  0  0  0  0
  -14.6558   -3.2184  -23.8922 N   0  0  0  0  0  0  0  0  0  0  0  0
  -17.6582    0.5642  -21.3706 O   0  0  0  0  0  0  0  0  0  0  0  0
  -15.1810    2.3978  -18.6618 O   0  0  0  0  0  0  0  0  0  0  0  0
  -16.9694    1.9065  -22.2388 P   0  0  0  0  0  0  0  0  0  0  0  0
  -14.6242   -0.4050  -26.7210 O   0  0  0  0  0  0  0  0  0  0  0  0
  -15.0413   -4.5787  -22.2229 N   0  0  0  0  0  0  0  0  0  0  0  0
  -14.2393   -7.2258  -21.5679 O   0  0  0  0  0  0  0  0  0  0  0  0
  -11.7234   -6.9023  -24.8097 N   0  0  0  0  0  0  0  0  0  0  0  0
  -17.8081    2.6786  -22.9525 O   0  0  0  0  0  0  0  0  0  0  0  0
  -17.5603    2.8663  -19.4686 O   0  0  0  0  0  0  0  0  0  0  0  0
  -13.4401   -1.2432  -24.2304 O   0  0  0  0  0  0  0  0  0  0  0  0
  -14.0896   -6.1677  -22.5993 C   0  0  0  0  0  0  0  0  0  0  0  0
  -15.3470   -0.8114  -25.2162 C   0  0  0  0  0  0  0  0  0  0  0  0
  -16.3040    2.8966  -19.8336 P   0  0  0  0  0  5  0  0  0  0  0  0
  -16.0054    1.2648  -23.0714 O   0  0  0  0  0  0  0  0  0  0  0  0
  -15.9349    4.3155  -20.3620 O   0  0  0  0  0  0  0  0  0  0  0  0
  -12.8131   -4.9690  -24.5983 N   0  0  0  0  0  0  0  0  0  0  0  0
  -14.9984   -3.6873  -22.8740 C   0  0  0  0  0  0  0  0  0  0  0  0
  -16.0866    2.1369  -21.0341 O   0  0  0  0  0  0  0  0  0  0  0  0
  -14.5937   -2.1356  -24.7597 C   0  0  0  0  0  0  0  0  0  0  0  0
  3  2  1  0
  5  1  2  0
  9  7  1  0
 13  1  1  0
 14  9  1  0
 16  3  1  0
 17  4  1  0
 17  5  1  0
 17 11  1  0
 17 12  1  0
 18  3  1  0
 18 10  1  0
 19  8  1  0
 19 14  1  0
 19 15  1  0
 20  2  1  0
 20  9  1  0
 21 19  1  0
 22  1  1  0
 22  4  1  0
 23  4  1  0
 23  6  1  0
 23 11  2  0
 24 19  1  0
 25  6  1  0
 25 16  1  0
 25 18  1  0
M  RAD  1   4   2
M  END
>  <ID>  (1) 
conformer_0

$$$$
