
     RDKit          3D

 26 28  0  0  0  0  0  0  0  0999 V2000
  -14.9560   -0.1029  -24.7048 C   0  0  0  0  0  0  0  0  0  0  0  0
  -14.1228   -6.1250  -22.4013 C   0  0  0  0  0  0  0  0  0  0  0  0
  -14.5211    0.5169  -23.6335 C   0  0  0  0  0  0  0  0  0  0  0  0
  -14.8988   -3.6856  -22.8307 C   0  0  0  0  0  0  0  0  0  0  0  0
  -16.3110    3.1651  -20.0441 P   0  0  0  0  0  5  0  0  0  0  0  0
  -17.6054    0.4431  -21.6161 O   0  0  0  0  0  0  0  0  0  0  0  0
  -16.0144    2.3945  -21.0864 O   0  0  0  0  0  0  0  0  0  0  0  0
  -13.5539   -1.2605  -24.0305 O   0  0  0  0  0  0  0  0  0  0  0  0
  -14.2700   -7.3073  -21.5587 O   0  0  0  0  0  0  0  0  0  0  0  0
  -15.3965    2.4655  -18.9355 O   0  0  0  0  0  0  0  0  0  0  0  0
  -14.4890   -3.2283  -23.8210 N   0  0  0  0  0  0  0  0  0  0  0  0
  -11.9503   -7.1025  -24.6330 N   0  0  0  0  0  0  0  0  0  0  0  0
  -17.6429    2.9253  -19.5930 O   0  0  0  0  0  0  0  0  0  0  0  0
  -15.0566   -4.4999  -22.0949 N   0  0  0  0  0  0  0  0  0  0  0  0
  -15.3816   -1.4197  -25.5261 C   0  0  0  0  0  0  0  0  0  0  0  0
  -13.1236   -7.3056  -23.2478 N   0  0  0  0  0  0  0  0  0  0  0  0
  -15.3716   -2.7005  -26.7267 O   0  0  0  0  0  0  0  0  0  0  0  0
  -12.7096   -6.1689  -24.0579 C   0  0  0  0  0  0  0  0  0  0  0  0
  -16.8327    1.5799  -22.0662 P   0  0  0  0  0  0  0  0  0  0  0  0
  -16.1854    4.6197  -20.1264 O   0  0  0  0  0  0  0  0  0  0  0  0
  -17.3419    2.0719  -23.2348 O   0  0  0  0  0  0  0  0  0  0  0  0
  -14.6937   -0.6412  -26.8918 O   0  0  0  0  0  0  0  0  0  0  0  0
  -15.5598    0.9369  -22.8542 O   0  0  0  0  0  0  0  0  0  0  0  0
  -13.9312   -4.7665  -23.4647 C   0  0  0  0  0  3  0  0  0  0  0  0
  -12.7801   -5.1659  -24.5284 N   0  0  0  0  0  0  0  0  0  0  0  0
  -14.6334   -2.1758  -25.0219 C   0  0  0  0  0  0  0  0  0  0  0  0
  3  1  1  0
  7  5  1  0
  9  2  1  0
 10  5  1  0
 11  4  1  0
 13  5  1  0
 14  2  1  0
 14  4  2  0
 15  1  1  0
 16  2  1  0
 16 12  1  0
 17 15  1  0
 18 12  1  0
 18 16  1  0
 19  6  1  0
 20  5  1  0
 21  5  1  0
 21 19  1  0
 22 15  1  0
 23  3  1  0
 23 19  1  0
 24  2  1  0
 24  4  1  0
 25 18  1  0
 25 24  1  0
 26  8  1  0
 26 11  1  0
 26 15  1  0
M  RAD  1  24   2
M  END
>  <ID>  (1) 
conformer_0

$$$$
