
     RDKit          3D

 27 30  0  0  0  0  0  0  0  0999 V2000
  -13.5969   -5.6674  -23.1312 C   0  0  2  0  0  0  0  0  0  0  0  0
  -14.7901    0.0527  -24.5373 C   0  0  1  0  0  0  0  0  0  0  0  0
  -14.8050    0.7907  -23.5240 C   0  0  1  0  0  0  0  0  0  0  0  0
  -13.9412   -4.4474  -23.6358 C   0  0  2  0  0  0  0  0  0  0  0  0
  -17.6349    0.6030  -21.4047 O   0  0  0  0  0  0  0  0  0  0  0  0
  -16.4027    3.1144  -19.8258 P   0  0  0  0  0  4  0  0  0  0  0  0
  -14.5424   -3.2869  -23.8039 N   0  0  0  0  0  0  0  0  0  0  0  0
  -16.1544    2.4558  -21.0549 O   0  0  0  0  0  0  0  0  0  0  0  0
  -11.8535   -7.1238  -25.2096 N   0  0  0  0  0  0  0  0  0  0  0  0
  -15.2944    2.5217  -18.8388 O   0  0  0  0  0  1  0  0  0  0  0  0
  -17.6212    2.8399  -19.3641 O   0  0  0  0  0  0  0  0  0  0  0  0
  -15.0210   -4.5651  -22.0748 N   0  0  0  0  0  0  0  0  0  0  0  0
  -13.6396   -1.2275  -23.9295 O   0  0  0  0  0  0  0  0  0  0  0  0
  -14.2390   -7.4059  -21.5385 O   0  0  0  0  0  0  0  0  0  0  0  0
  -12.9623   -7.2203  -23.2557 N   0  0  0  0  0  0  0  0  0  0  0  0
  -14.1668   -6.3146  -22.1211 C   0  0  0  0  0  0  0  0  0  0  0  0
  -14.5946   -0.2578  -26.7119 O   0  0  0  0  0  0  0  0  0  0  0  0
  -15.3722   -1.1411  -25.3768 C   0  0  0  0  0  0  0  0  0  0  0  0
  -16.1763    4.5942  -20.1572 O   0  0  0  0  0  0  0  0  0  0  0  0
  -16.9387    1.7242  -22.0114 P   0  0  0  0  0  0  0  0  0  0  0  0
  -17.7110    2.0898  -23.1225 O   0  0  0  0  0  0  0  0  0  0  0  0
  -12.8837   -5.2298  -24.7725 N   0  0  0  0  0  0  0  0  0  0  0  0
  -12.3745   -6.4129  -24.4308 C   0  0  2  0  0  0  0  0  0  0  0  0
  -15.6858   -2.0481  -26.3946 O   0  0  0  0  0  0  0  0  0  0  0  0
  -14.5544   -2.0978  -24.7255 C   0  0  2  0  0  0  0  0  0  0  0  0
  -15.6496    1.2057  -22.7661 O   0  0  0  0  0  0  0  0  0  0  0  0
  -15.1595   -3.6683  -22.6203 C   0  0  0  0  0  0  0  0  0  0  0  0
  3  2  1  0
  4  1  1  0
  7  4  1  0
  8  6  1  0
 10  6  1  0
 11  6  1  0
  2 13  1  1
 15  1  1  0
  1 16  1  1
 16 14  2  0
 18  2  1  0
 18 17  1  0
 19  6  1  0
 20  5  1  0
 20  8  1  0
 21  3  1  0
 21 20  1  0
  4 22  1  1
 23  1  1  0
 23  9  1  6
 23 15  1  0
 23 22  1  0
 24 18  1  0
 25  7  1  1
 25 13  1  0
 25 18  1  0
  3 26  1  1
 27  4  1  0
 27  7  1  0
 27 12  2  3
M  RAD  2   6   2  10   2
M  END
>  <ID>  (1) 
conformer_0

$$$$
