
     RDKit          3D

 28 30  0  0  0  0  0  0  0  0999 V2000
  -14.4162   -2.4156  -24.9134 C   0  0  0  0  0  0  0  0  0  0  0  0
  -13.6292   -4.7043  -23.9329 C   0  0  0  0  0  0  0  0  0  0  0  0
  -15.5532   -1.4903  -25.7522 C   0  0  0  0  0  0  0  0  0  0  0  0
  -15.2210   -3.2991  -22.8475 C   0  0  0  0  0  0  0  0  0  0  0  0
  -16.3124    3.0597  -19.7563 P   0  0  0  0  0  5  0  0  0  0  0  0
  -12.7705   -7.0682  -23.5351 N   0  0  0  0  0  0  0  0  0  0  0  0
  -15.1581    2.5515  -18.6530 O   0  0  0  0  0  0  0  0  0  0  0  0
  -17.6105    0.5714  -21.4676 O   0  0  0  0  0  0  0  0  0  0  0  0
  -17.5282    2.7483  -19.4721 O   0  0  0  0  0  0  0  0  0  0  0  0
  -14.5679   -3.2610  -23.7700 N   0  0  0  0  0  0  0  0  0  0  0  0
  -14.1643   -7.3065  -21.7147 O   0  0  0  0  0  0  0  0  0  0  0  0
  -13.7828   -6.4455  -22.6760 C   0  0  0  0  0  0  0  0  0  0  0  0
  -15.7920    2.1807  -20.8998 O   0  0  0  0  0  0  0  0  0  0  0  0
  -15.1247   -4.5223  -22.0489 N   0  0  0  0  0  0  0  0  0  0  0  0
  -11.4280   -6.3283  -24.8745 N   0  0  0  0  0  0  0  0  0  0  0  0
  -13.7184   -1.2731  -24.0652 O   0  0  0  0  0  0  0  0  0  0  0  0
  -15.7051    0.2468  -24.6937 C   0  0  0  0  0  0  0  0  0  0  0  0
  -14.9794   -0.0193  -26.6998 O   0  0  0  0  0  0  0  0  0  0  0  0
  -16.7729    1.6748  -21.9183 P   0  0  0  0  0  0  0  0  0  0  0  0
  -16.2873    4.3949  -20.0376 O   0  0  0  0  0  0  0  0  0  0  0  0
  -12.1678   -6.1855  -24.4355 C   0  0  0  0  0  0  0  0  0  0  0  0
  -15.5910    0.6988  -22.7288 O   0  0  0  0  0  0  0  0  0  0  0  0
  -12.8197   -4.6932  -24.5996 N   0  0  0  0  0  0  0  0  0  0  0  0
  -16.9012    2.5460  -22.8399 O   0  0  0  0  0  0  0  0  0  0  0  0
  -14.9232   -2.1314  -26.7284 O   0  0  0  0  0  0  0  0  0  0  0  0
  -14.6999    0.6118  -23.2951 C   0  0  0  0  0  0  0  0  0  0  0  0
  -14.4494   -5.0755  -22.6835 C   0  0  0  0  0  0  0  0  0  0  0  0
  -14.3137   -0.7012  -24.8856 C   0  0  0  0  0  0  0  0  0  0  0  0
  3  1  1  0
  7  5  1  0
  9  5  1  0
 10  1  1  0
 10  2  1  0
 10  4  1  0
 12  6  1  0
 12 11  2  0
 13  5  1  0
 14  4  2  0
 16  1  1  0
 18  3  1  0
 19  8  1  0
 20  5  1  0
 21  6  2  0
 21 15  1  0
 22 19  1  0
 23  2  1  0
 23 21  1  0
 24  5  1  0
 24 19  1  0
 25  3  1  0
 26 17  1  0
 26 22  1  0
 27  2  2  0
 27 12  1  0
 27 14  1  0
 28  3  1  0
 28 16  1  0
 28 17  1  0
M  END
>  <ID>  (1) 
conformer_0

$$$$
