
     RDKit          3D

 27 30  0  0  0  0  0  0  0  0999 V2000
  -12.6843   -6.0976  -24.0604 C   0  0  0  0  0  0  0  0  0  0  0  0
  -14.3571   -1.7983  -24.5435 C   0  0  0  0  0  0  0  0  0  0  0  0
  -15.5569   -2.0169  -25.1327 C   0  0  0  0  0  0  0  0  0  0  0  0
  -14.9928   -3.8504  -22.6949 C   0  0  0  0  0  0  0  0  0  0  0  0
  -17.0030    1.8389  -22.3318 P   0  0  0  0  0  0  0  0  0  0  0  0
  -12.9006   -4.7340  -24.5839 N   0  0  0  0  0  0  0  0  0  0  0  0
  -15.1603   -4.5945  -22.0109 N   0  0  0  0  0  0  0  0  0  0  0  0
  -12.0432   -6.9651  -24.3871 N   0  0  0  0  0  0  0  0  0  0  0  0
  -13.5702   -1.0760  -23.8098 O   0  0  0  0  0  0  0  0  0  0  0  0
  -15.1156    2.3059  -18.6437 O   0  0  0  0  0  1  0  0  0  0  0  0
  -17.6981    0.5486  -21.6385 O   0  0  0  0  0  0  0  0  0  0  0  0
  -14.5840   -3.2406  -23.7859 N   0  0  0  0  0  0  0  0  0  0  0  0
  -14.3166   -7.3008  -21.5416 O   0  0  0  0  0  0  0  0  0  0  0  0
  -17.4872    2.6967  -19.7310 O   0  0  0  0  0  0  0  0  0  0  0  0
  -15.8890    2.1509  -21.0514 O   0  0  0  0  0  0  0  0  0  0  0  0
  -15.1779   -0.5672  -25.6101 C   0  0  0  0  0  0  0  0  0  0  0  0
  -14.1067   -6.0383  -22.3852 C   0  0  0  0  0  0  0  0  0  0  0  0
  -14.6969   -0.1889  -26.7766 O   0  0  0  0  0  0  0  0  0  0  0  0
  -16.0519    2.7037  -19.8441 P   0  0  0  0  0  4  0  0  0  0  0  0
  -16.0883   -2.2619  -26.2287 O   0  0  0  0  0  0  0  0  0  0  0  0
  -17.4478    2.5448  -23.3271 O   0  0  0  0  0  0  0  0  0  0  0  0
  -15.9371    4.1284  -20.2377 O   0  0  0  0  0  0  0  0  0  0  0  0
  -13.9057   -4.6988  -23.4817 C   0  0  0  0  0  0  0  0  0  0  0  0
  -13.1541   -7.2112  -23.1892 N   0  0  0  0  0  0  0  0  0  0  0  0
  -15.7561    1.2240  -23.0131 O   0  0  0  0  0  0  0  0  0  0  0  0
  -14.4789    0.6385  -24.5935 C   0  0  0  0  0  0  0  0  0  0  0  0
  -14.9040    0.5447  -23.3633 C   0  0  0  0  0  0  0  0  0  0  0  0
  3  2  1  0
  6  1  2  0
  7  4  2  0
  8  1  1  0
  9  2  1  0
 11  5  1  0
 12  2  1  0
 12  4  1  0
 15  5  1  0
 16  2  1  0
 16  3  1  0
 17  7  1  0
 17 13  1  0
 18 16  1  0
 19 10  1  0
 19 14  1  0
 19 15  1  0
 20  3  1  0
 21  5  1  0
 22 19  1  0
 23  4  1  0
 23  6  1  0
 23 12  1  0
 23 17  1  0
 24  1  1  0
 24 17  1  0
 26 16  1  0
 27 21  1  0
 27 25  1  0
 27 26  1  0
M  RAD  2  10   2  19   2
M  END
>  <ID>  (1) 
conformer_0

$$$$
