
     RDKit          3D

 26 27  0  0  0  0  0  0  0  0999 V2000
  -12.4594   -6.1221  -24.2105 C   0  0  0  0  0  0  0  0  0  0  0  0
  -15.6115   -1.3419  -25.4483 C   0  0  0  0  0  0  0  0  0  0  0  0
  -14.6512   -2.1588  -24.6895 C   0  0  0  0  0  0  0  0  0  0  0  0
  -13.7946   -5.0495  -23.3041 C   0  0  0  0  0  3  0  0  0  0  0  0
  -12.7877   -7.2475  -23.4392 N   0  0  0  0  0  0  0  0  0  0  0  0
  -15.9222    1.9852  -20.8194 O   0  0  0  0  0  0  0  0  0  0  0  0
  -16.2116    2.9221  -19.9146 P   0  0  0  0  0  4  0  0  0  0  0  0
  -14.6387   -3.3816  -23.5345 N   0  0  0  0  0  0  0  0  0  0  0  0
  -15.1628    2.5383  -18.7184 O   0  0  0  0  0  1  0  0  0  0  0  0
  -11.5434   -6.6820  -25.1110 N   0  0  0  0  0  0  0  0  0  0  0  0
  -17.6896    0.3754  -21.3426 O   0  0  0  0  0  0  0  0  0  0  0  0
  -14.2250   -7.4680  -21.5734 O   0  0  0  0  0  0  0  0  0  0  0  0
  -15.1758   -0.1875  -24.7397 C   0  0  0  0  0  0  0  0  0  0  0  0
  -14.9851   -4.9069  -21.9407 N   0  0  0  0  0  0  0  0  0  0  0  0
  -13.9372   -6.3646  -22.4145 C   0  0  0  0  0  0  0  0  0  0  0  0
  -14.1417   -1.4782  -23.7768 O   0  0  0  0  0  0  0  0  0  0  0  0
  -17.6015    2.7061  -19.5471 O   0  0  0  0  0  0  0  0  0  0  0  0
  -15.1206   -1.7094  -26.6889 O   0  0  0  0  0  0  0  0  0  0  0  0
  -17.0079    1.4258  -22.0578 P   0  0  0  0  0  5  0  0  0  0  0  0
  -12.8301   -4.8218  -24.5790 N   0  0  0  0  0  0  0  0  0  0  0  0
  -15.9235    0.4167  -23.0442 O   0  0  0  0  0  0  0  0  0  0  0  0
  -16.2843    4.2601  -20.2859 O   0  0  0  0  0  0  0  0  0  0  0  0
  -18.0716    1.3717  -22.9796 O   0  0  0  0  0  0  0  0  0  0  0  0
  -14.9371   -3.8960  -22.5946 C   0  0  0  0  0  0  0  0  0  0  0  0
  -14.5265    0.6644  -23.8508 C   0  0  0  0  0  0  0  0  0  0  0  0
  -15.9363    2.6681  -22.9041 O   0  0  0  0  0  0  0  0  0  0  0  0
  3  2  1  0
  5  1  2  0
  7  6  1  0
  8  3  1  0
  9  7  1  0
 10  1  1  0
 13  2  1  0
 15  4  1  0
 15  5  1  0
 15 12  1  0
 15 14  1  0
 16  3  1  0
 17  7  1  0
 18  2  1  0
 19  6  1  0
 19 11  1  0
 20  1  1  0
 20  4  1  0
 21 19  1  0
 22  7  1  0
 23 19  1  0
 24  4  1  0
 24  8  1  0
 24 14  2  0
 25 13  1  0
 25 21  1  0
 26 23  1  0
M  RAD  3   4   2   7   2   9   2
M  END
>  <ID>  (1) 
conformer_0

$$$$
