
     RDKit          3D

 26 27  0  0  0  0  0  0  0  0999 V2000
  -12.6362   -6.2189  -24.2607 C   0  0  1  0  0  0  0  0  0  0  0  0
  -14.3266   -2.0709  -24.8820 C   0  0  1  0  0  0  0  0  0  0  0  0
  -15.3887   -0.9056  -25.3975 C   0  0  0  0  0  0  0  0  0  0  0  0
  -13.8137   -4.9771  -23.4930 C   0  0  2  0  0  0  0  0  0  0  0  0
  -17.6606    0.4214  -21.3600 O   0  0  0  0  0  0  0  0  0  0  0  0
  -16.3807    3.1385  -20.0132 P   0  0  0  0  0  5  0  0  0  0  0  0
  -16.1843    2.3748  -21.1651 O   0  0  0  0  0  0  0  0  0  0  0  0
  -14.9268   -4.5253  -22.1421 N   0  0  0  0  0  0  0  0  0  0  0  0
  -13.1394   -7.5125  -23.5930 N   0  0  0  0  0  0  0  0  0  0  0  0
  -15.2727    2.4930  -18.8808 O   0  0  0  0  0  0  0  0  0  0  0  0
  -14.3216   -7.3388  -21.5648 O   0  0  0  0  0  0  0  0  0  0  0  0
  -15.8772    4.6236  -20.1569 O   0  0  0  0  0  0  0  0  0  0  0  0
  -13.4160   -1.3047  -24.0888 O   0  0  0  0  0  0  0  0  0  0  0  0
  -11.8074   -6.6931  -24.8541 N   0  0  0  0  0  0  0  0  0  0  0  0
  -14.3318   -3.2334  -23.8997 N   0  0  0  0  0  0  0  0  0  0  0  0
  -14.0836   -6.3033  -22.4546 C   0  0  0  0  0  0  0  0  0  0  0  0
  -14.4389   -0.0145  -24.6966 C   0  0  2  0  0  0  0  0  0  0  0  0
  -17.0903    1.3139  -22.0515 P   0  0  0  0  0  0  0  0  0  0  0  0
  -17.5535    3.0416  -19.4000 O   0  0  0  0  0  0  0  0  0  0  0  0
  -14.5597   -0.3328  -26.8734 O   0  0  0  0  0  0  0  0  0  0  0  0
  -15.8870    0.5865  -22.8507 O   0  0  0  0  0  0  0  0  0  0  0  0
  -17.6708    2.1675  -22.9661 O   0  0  0  0  0  0  0  0  0  0  0  0
  -12.8308   -4.7687  -24.6909 N   0  0  0  0  0  0  0  0  0  0  0  0
  -16.4167   -1.4129  -26.0694 O   0  0  0  0  0  0  0  0  0  0  0  0
  -14.7052   -3.8098  -22.8742 C   0  0  0  0  0  0  0  0  0  0  0  0
  -14.5670    0.5521  -23.4254 C   0  0  0  0  0  0  0  0  0  0  0  0
  3  2  1  0
  7  6  1  0
  9  1  1  0
 10  6  1  0
 12  6  1  0
 13  2  1  0
  1 14  1  6
  2 15  1  1
 16  4  1  0
 16  9  1  0
 16 11  2  0
 17  3  1  0
 17 13  1  0
 18  5  1  0
 19  6  1  0
 20  3  1  0
 21 18  1  0
 22  6  1  0
 22 18  1  0
 23  1  1  0
  4 23  1  1
 24  3  1  0
 25  4  1  0
 25  8  2  3
 25 15  1  0
 17 26  1  1
 26 21  1  0
M  END
>  <ID>  (1) 
conformer_0

$$$$
