
     RDKit          3D

 26 26  0  0  0  0  0  0  0  0999 V2000
  -12.6770   -6.1398  -24.2316 C   0  0  1  0  0  0  0  0  0  0  0  0
  -14.9826    0.0279  -24.5846 C   0  0  0  0  0  0  0  0  0  0  0  0
  -15.2939   -1.0958  -25.4443 C   0  0  0  0  0  0  0  0  0  0  0  0
  -13.8806   -4.8902  -23.4945 C   0  0  2  0  0  0  0  0  0  0  0  0
  -12.9036   -7.2336  -23.6206 N   0  0  0  0  0  0  0  0  0  0  0  0
  -16.2896    3.2354  -20.0823 P   0  0  0  0  0  5  0  0  0  0  0  0
  -17.7294    0.3940  -21.5387 O   0  0  0  0  0  0  0  0  0  0  0  0
  -17.6419    2.7159  -22.3422 O   0  0  0  0  0  0  0  0  0  0  0  0
  -13.7253   -1.2285  -23.8009 O   0  0  0  0  0  0  0  0  0  0  0  0
  -15.0237   -4.5546  -22.1125 N   0  0  0  0  0  0  0  0  0  0  0  0
  -15.1825    2.5946  -18.7997 O   0  0  0  0  0  0  0  0  0  0  0  0
  -14.1758   -7.4477  -21.6260 O   0  0  0  0  0  0  0  0  0  0  0  0
  -14.5353   -3.2746  -23.7946 N   0  0  0  0  0  0  0  0  0  0  0  0
  -11.7016   -6.8167  -25.3237 N   0  0  0  0  0  0  0  0  0  0  0  0
  -14.6650    0.5599  -23.3561 C   0  0  0  0  0  0  0  0  0  0  0  0
  -15.8089    4.5530  -20.8842 O   0  0  0  0  0  0  0  0  0  0  0  0
  -14.0366   -6.2586  -22.4401 C   0  0  0  0  0  0  0  0  0  0  0  0
  -17.3060    3.2859  -19.3232 O   0  0  0  0  0  0  0  0  0  0  0  0
  -14.4386   -0.2644  -26.7259 O   0  0  0  0  0  0  0  0  0  0  0  0
  -17.0872    1.4807  -21.8324 P   0  0  0  0  0  0  0  0  0  0  0  0
  -15.7485    0.8467  -22.6660 O   0  0  0  0  0  0  0  0  0  0  0  0
  -12.8790   -4.9755  -24.7389 N   0  0  0  0  0  0  0  0  0  0  0  0
  -14.8754   -3.7731  -22.8256 C   0  0  0  0  0  0  0  0  0  0  0  0
  -15.7812   -2.0028  -26.3348 O   0  0  0  0  0  0  0  0  0  0  0  0
  -16.0455    2.1736  -20.8914 O   0  0  0  0  0  0  0  0  0  0  0  0
  -14.4740   -2.0458  -24.8599 C   0  0  1  0  0  0  0  0  0  0  0  0
  3  2  1  0
  5  1  1  0
  8  6  1  0
 11  6  1  0
  1 14  1  6
 15  2  1  0
 16  6  1  0
 17  4  1  0
 17  5  1  0
 17 12  2  0
 18  6  1  0
 19  3  1  0
 20  7  1  0
 20  8  1  0
 21 15  1  0
 21 20  1  0
 22  1  1  0
  4 22  1  1
 23  4  1  0
 23 10  2  3
 23 13  1  0
 24  3  1  0
 25  6  1  0
 26  3  1  0
 26  9  1  1
 26 13  1  0
M  END
>  <ID>  (1) 
conformer_0

$$$$
