
     RDKit          3D

 27 29  0  0  0  0  0  0  0  0999 V2000
  -12.4421   -6.1256  -24.2292 C   0  0  0  0  0  0  0  0  0  0  0  0
  -14.7360   -2.3663  -24.5538 C   0  0  2  0  0  0  0  0  0  0  0  0
  -14.0930   -0.2863  -24.8412 C   0  0  2  0  0  0  0  0  0  0  0  0
  -13.9299   -5.0094  -23.3496 C   0  0  2  0  0  0  0  0  0  0  0  0
  -17.5651    0.4268  -21.3152 O   0  0  0  0  0  0  0  0  0  0  0  0
  -16.2060    3.0286  -20.1521 P   0  0  0  0  0  4  0  0  0  0  0  0
  -12.9028   -7.2654  -23.3923 N   0  0  0  0  0  0  0  0  0  0  0  0
  -15.8473    0.7768  -22.9625 O   0  0  0  0  0  0  0  0  0  0  0  0
  -14.7264   -3.2682  -23.7113 N   0  0  0  0  0  0  0  0  0  0  0  0
  -14.2767   -7.4262  -21.5647 O   0  0  0  0  0  0  0  0  0  0  0  0
  -15.2157    2.4567  -18.8466 O   0  0  0  0  0  1  0  0  0  0  0  0
  -11.6154   -6.7059  -25.0070 N   0  0  0  0  0  0  0  0  0  0  0  0
  -15.1498   -4.5699  -22.0281 N   0  0  0  0  0  0  0  0  0  0  0  0
  -14.0745   -6.1976  -22.3938 C   0  0  0  0  0  0  0  0  0  0  0  0
  -13.6295   -1.3652  -24.1171 O   0  0  0  0  0  0  0  0  0  0  0  0
  -15.7552    4.4836  -20.9213 O   0  0  0  0  0  0  0  0  0  0  0  0
  -14.5608    0.6923  -23.4601 C   0  0  2  0  0  0  0  0  0  0  0  0
  -14.8655   -0.0915  -26.6624 O   0  0  0  0  0  0  0  0  0  0  0  0
  -17.1642    3.1653  -19.4149 O   0  0  0  0  0  0  0  0  0  0  0  0
  -17.8978    2.3493  -22.7176 O   0  0  0  0  0  1  0  0  0  0  0  0
  -12.7170   -4.6545  -24.6193 N   0  0  0  0  0  0  0  0  0  0  0  0
  -17.0279    1.5041  -21.9515 P   0  0  1  0  0  4  0  0  0  0  0  0
  -15.9213    2.1702  -21.1711 O   0  0  0  0  0  0  0  0  0  0  0  0
  -15.0447   -3.7351  -22.7141 C   0  0  0  0  0  0  0  0  0  0  0  0
  -16.5272   -1.3962  -26.1855 O   0  0  0  0  0  0  0  0  0  0  0  0
  -15.5340   -1.5315  -25.5584 C   0  0  0  0  0  0  0  0  0  0  0  0
  -15.7557   -0.1929  -24.6431 C   0  0  2  0  0  0  0  0  0  0  0  0
  7  1  2  0
  2  9  1  1
 11  6  1  0
 12  1  1  0
 14  4  1  0
 14  7  1  0
 14 10  2  0
 15  2  1  0
  3 15  1  1
 16  6  1  0
 17  3  1  0
 17  8  1  1
 19  6  1  0
 21  1  1  0
  4 21  1  1
 22  5  1  1
 22  8  1  0
 22 20  1  0
 23  6  1  0
 23 22  1  0
 24  4  1  0
 24  9  1  0
 24 13  2  3
 26  2  1  0
 26 18  1  0
 26 25  1  0
 27  3  1  0
 27 17  1  0
 27 26  1  1
M  RAD  4   6   2  11   2  20   2  22   2
M  END
>  <ID>  (1) 
conformer_0

$$$$
