
     RDKit          3D

 25 26  0  0  0  0  0  0  0  0999 V2000
  -15.8555   -1.0892  -25.3862 C   0  0  1  0  0  0  0  0  0  0  0  0
  -13.9025   -4.8888  -23.3631 C   0  0  0  0  0  0  0  0  0  0  0  0
  -14.9809   -3.6814  -22.7325 C   0  0  0  0  0  0  0  0  0  0  0  0
  -14.9621   -2.2403  -24.9575 C   0  0  2  0  0  0  0  0  0  0  0  0
  -16.3210    3.2362  -19.9444 P   0  0  0  0  0  4  0  0  0  0  0  0
  -12.7275   -7.1643  -23.4992 N   0  0  0  0  0  0  0  0  0  0  0  0
  -17.5670    0.5585  -21.4146 O   0  0  0  0  0  0  0  0  0  0  0  0
  -14.7649   -3.2186  -23.6780 N   0  0  0  0  0  0  0  0  0  0  0  0
  -15.0356   -4.4185  -21.9689 N   0  0  0  0  0  0  0  0  0  0  0  0
  -14.1294   -7.3213  -21.6460 O   0  0  0  0  0  0  0  0  0  0  0  0
  -15.6114    0.6934  -22.7267 O   0  0  0  0  0  0  0  0  0  0  0  0
  -17.5164    2.8778  -19.6947 O   0  0  0  0  0  0  0  0  0  0  0  0
  -11.6211   -6.8163  -25.1362 N   0  0  0  0  0  0  0  0  0  0  0  0
  -13.9043   -6.1571  -22.5346 C   0  0  0  0  0  0  0  0  0  0  0  0
  -13.6432   -1.3068  -24.1114 O   0  0  0  0  0  0  0  0  0  0  0  0
  -14.7604   -0.3472  -26.8522 O   0  0  0  0  0  0  0  0  0  0  0  0
  -14.4600   -0.5459  -25.0301 C   0  0  1  0  0  0  0  0  0  0  0  0
  -16.2050    2.6647  -22.4094 O   0  0  0  0  0  0  0  0  0  0  0  0
  -16.0583    4.6532  -19.6531 O   0  0  0  0  0  0  0  0  0  0  0  0
  -16.6809   -2.3040  -26.0821 O   0  0  0  0  0  0  0  0  0  0  0  0
  -16.5528    1.4425  -21.9137 P   0  0  0  0  0  0  0  0  0  0  0  0
  -12.9339   -4.8244  -24.6414 N   0  0  0  0  0  0  0  0  0  0  0  0
  -15.6590    2.2996  -20.2220 O   0  0  0  0  0  1  0  0  0  0  0  0
  -12.4361   -6.1451  -24.3348 C   0  0  0  0  0  0  0  0  0  0  0  0
  -14.8090    0.3715  -23.9419 C   0  0  0  0  0  0  0  0  0  0  0  0
  3  2  1  0
  4  1  1  0
  8  3  1  0
  4  8  1  1
  9  3  2  3
 12  5  1  0
 14  2  1  0
 14  6  1  0
 14 10  2  0
 15  4  1  0
 17  1  1  0
 17 15  1  0
 17 16  1  6
 18  5  1  0
 19  5  1  0
  1 20  1  6
 21  7  1  0
 21 11  1  0
 21 18  1  0
 22  2  1  0
 23  5  1  0
 24  6  2  0
 24 13  1  0
 24 22  1  0
 25 11  1  0
 25 17  1  0
M  RAD  2   5   2  23   2
M  END
>  <ID>  (1) 
conformer_0

$$$$
