
     RDKit          3D

 28 31  0  0  0  0  0  0  0  0999 V2000
  -12.3725   -6.3337  -24.5135 C   0  0  0  0  0  0  0  0  0  0  0  0
  -16.0435    0.0384  -24.4965 C   0  0  1  0  0  0  0  0  0  0  0  0
  -15.7301   -1.5349  -25.3270 C   0  0  1  0  0  0  0  0  0  0  0  0
  -13.6056   -5.6803  -23.2334 C   0  0  1  0  0  0  0  0  0  0  0  0
  -16.2950    3.1527  -19.9697 P   0  0  0  0  0  5  0  0  0  0  0  0
  -13.0056   -7.3801  -23.4292 N   0  0  0  0  0  0  0  0  0  0  0  0
  -15.8765    2.1936  -20.8386 O   0  0  0  0  0  0  0  0  0  0  0  0
  -17.6491    0.5126  -21.5110 O   0  0  0  0  0  0  0  0  0  0  0  0
  -15.2328    2.5009  -18.7424 O   0  0  0  0  0  0  0  0  0  0  0  0
  -11.8434   -6.7338  -24.9834 N   0  0  0  0  0  0  0  0  0  0  0  0
  -14.9944   -4.6052  -21.9928 N   0  0  0  0  0  0  0  0  0  0  0  0
  -13.6554   -1.0876  -23.7890 O   0  0  0  0  0  0  0  0  0  0  0  0
  -14.2967   -7.3442  -21.5547 O   0  0  0  0  0  0  0  0  0  0  0  0
  -14.5370   -3.0558  -23.5094 N   0  0  0  0  0  0  0  0  0  0  0  0
  -14.1876   -6.4070  -22.1569 C   0  0  0  0  0  0  0  0  0  0  0  0
  -17.5570    2.9467  -19.6736 O   0  0  0  0  0  0  0  0  0  0  0  0
  -14.2587   -0.0177  -26.6617 O   0  0  0  0  0  0  0  0  0  0  0  0
  -14.6534    0.7955  -23.7330 C   0  0  0  0  0  0  0  0  0  0  0  0
  -13.1339   -4.6742  -24.6071 N   0  0  0  0  0  0  0  0  0  0  0  0
  -16.0278    4.6058  -20.0032 O   0  0  0  0  0  0  0  0  0  0  0  0
  -15.5559    0.5920  -22.8610 O   0  0  0  0  0  0  0  0  0  0  0  0
  -16.7706    1.6083  -21.8372 P   0  0  0  0  0  0  0  0  0  0  0  0
  -14.0588   -4.3227  -23.4312 C   0  0  0  0  0  0  0  0  0  0  0  0
  -14.3986   -2.0437  -24.3427 C   0  0  1  0  0  0  0  0  0  0  0  0
  -15.4398   -1.8340  -26.3598 O   0  0  0  0  0  0  0  0  0  0  0  0
  -16.4516    2.6363  -22.6910 O   0  0  0  0  0  0  0  0  0  0  0  0
  -14.4581   -0.4148  -25.2804 C   0  0  1  0  0  0  0  0  0  0  0  0
  -15.1030   -3.4320  -22.4143 C   0  0  0  0  0  0  0  0  0  0  0  0
  3  2  1  0
  6  1  2  3
  6  4  1  0
  7  5  1  0
  9  5  1  0
 10  1  1  0
  4 15  1  6
 15 13  2  0
 16  5  1  0
  2 18  1  1
 19  4  1  0
 20  5  1  0
 21 18  1  0
 22  8  1  0
 22 21  1  0
 23  4  1  0
 23 14  1  0
 23 19  1  0
 24  3  1  0
 24 12  1  1
 24 14  1  0
  3 25  1  1
 26  5  1  0
 26 22  1  0
 27  2  1  0
 27  3  1  0
 27 17  1  6
 27 24  1  0
 28 11  2  3
 28 14  1  0
 28 23  1  0
M  END
>  <ID>  (1) 
conformer_0

$$$$
