
     RDKit          3D

 26 26  0  0  0  0  0  0  0  0999 V2000
  -15.2592   -1.2555  -25.4155 C   0  0  0  0  0  0  0  0  0  0  0  0
  -12.5818   -6.1985  -24.1481 C   0  0  0  0  0  0  0  0  0  0  0  0
  -15.3116   -0.1060  -24.7059 C   0  0  0  0  0  0  0  0  0  0  0  0
  -13.8787   -5.0344  -23.2715 C   0  0  0  0  0  0  0  0  0  0  0  0
  -17.5305    0.4437  -21.2774 O   0  0  0  0  0  0  0  0  0  0  0  0
  -12.9403   -7.3128  -23.4263 N   0  0  0  0  0  0  0  0  0  0  0  0
  -11.5494   -7.1066  -25.0740 N   0  0  0  0  0  0  0  0  0  0  0  0
  -17.0765    1.3535  -21.9509 P   0  0  0  0  0  0  0  0  0  0  0  0
  -15.1898    2.6670  -18.8920 O   0  0  0  0  0  0  0  0  0  0  0  0
  -13.6021   -1.4615  -23.9115 O   0  0  0  0  0  0  0  0  0  0  0  0
  -15.0218   -4.7730  -21.9314 N   0  0  0  0  0  0  0  0  0  0  0  0
  -14.0140   -6.3179  -22.3923 C   0  0  1  0  0  0  0  0  0  0  0  0
  -14.3114   -7.4670  -21.5307 O   0  0  0  0  0  0  0  0  0  0  0  0
  -14.4638   -3.3971  -23.5936 N   0  0  0  0  0  0  0  0  0  0  0  0
  -16.2362    2.6202  -21.4834 O   0  0  0  0  0  0  0  0  0  0  0  0
  -14.4443    0.4299  -23.5349 C   0  0  0  0  0  0  0  0  0  0  0  0
  -15.9075    4.7635  -20.0843 O   0  0  0  0  0  0  0  0  0  0  0  0
  -17.4243    2.9698  -19.3368 O   0  0  0  0  0  0  0  0  0  0  0  0
  -14.3258   -1.0749  -26.8360 O   0  0  0  0  0  0  0  0  0  0  0  0
  -16.2789    3.3318  -19.9403 P   0  0  0  0  0  5  0  0  0  0  0  0
  -16.0532    0.4930  -22.9857 O   0  0  0  0  0  0  0  0  0  0  0  0
  -14.8948   -3.8407  -22.6805 C   0  0  0  0  0  0  0  0  0  0  0  0
  -17.8772    2.1145  -22.8513 O   0  0  0  0  0  0  0  0  0  0  0  0
  -12.6174   -5.3259  -24.6317 N   0  0  0  0  0  0  0  0  0  0  0  0
  -14.2576   -2.0243  -24.6991 C   0  0  1  0  0  0  0  0  0  0  0  0
  -16.3044   -1.5827  -26.4479 O   0  0  0  0  0  0  0  0  0  0  0  0
  3  1  1  0
  6  2  1  0
  7  2  2  3
  8  5  1  0
 12  4  1  0
 12  6  1  0
 12 11  1  0
 12 13  1  1
 16  3  1  0
 19  1  1  0
 20  9  1  0
 20 15  1  0
 20 17  1  0
 20 18  1  0
 21  8  1  0
 21 16  1  0
 22  4  1  0
 22 11  2  0
 22 14  1  0
 23  8  1  0
 23 20  1  0
 24  2  1  0
 25  1  1  0
 25 10  1  1
 25 14  1  0
 26  1  1  0
M  END
>  <ID>  (1) 
conformer_0

$$$$
