
     RDKit          3D

 26 25  0  0  0  0  0  0  0  0999 V2000
  -12.6595   -6.2134  -24.1457 C   0  0  0  0  0  0  0  0  0  0  0  0
  -14.3682   -1.7571  -24.3467 C   0  0  0  0  0  0  0  0  0  0  0  0
  -14.3934    0.5934  -24.9584 C   0  0  0  0  0  0  0  0  0  0  0  0
  -13.9419   -4.9553  -23.3399 C   0  0  0  0  0  0  0  0  0  0  0  0
  -12.9835   -7.4695  -23.6075 N   0  0  0  0  0  0  0  0  0  0  0  0
  -16.2238    2.9616  -19.7728 P   0  0  0  0  0  4  0  0  0  0  0  0
  -15.1885    2.4037  -18.6661 O   0  0  0  0  0  1  0  0  0  0  0  0
  -17.5524    0.5124  -21.4324 O   0  0  0  0  0  0  0  0  0  0  0  0
  -14.9747   -4.6036  -22.1903 N   0  0  0  0  0  0  0  0  0  0  0  0
  -14.3346   -7.4387  -21.6361 O   0  0  0  0  0  0  0  0  0  0  0  0
  -11.7770   -6.4421  -24.8534 N   0  0  0  0  0  0  0  0  0  0  0  0
  -17.5566    2.8462  -19.6797 O   0  0  0  0  0  0  0  0  0  0  0  0
  -13.6829   -1.2801  -24.0362 O   0  0  0  0  0  0  0  0  0  0  0  0
  -15.6694    0.1418  -22.9481 O   0  0  0  0  0  0  0  0  0  0  0  0
  -14.1343   -6.3339  -22.4940 C   0  0  0  0  0  0  0  0  0  0  0  0
  -15.2064   -0.8117  -26.8396 O   0  0  0  0  0  0  0  0  0  0  0  0
  -14.8905    0.8304  -23.4883 C   0  0  2  0  0  0  0  0  0  0  0  0
  -14.5052   -2.9839  -23.6326 N   0  0  0  0  0  0  0  0  0  0  0  0
  -15.8649    4.3467  -20.1355 O   0  0  0  0  0  0  0  0  0  0  0  0
  -16.7338    1.3379  -21.8829 P   0  0  0  0  0  0  0  0  0  0  0  0
  -13.2276   -4.6215  -24.3998 N   0  0  0  0  0  0  0  0  0  0  0  0
  -15.7999    1.9549  -21.0543 O   0  0  0  0  0  0  0  0  0  0  0  0
  -16.9579    2.0521  -23.1459 O   0  0  0  0  0  0  0  0  0  0  0  0
  -14.8703   -3.5761  -22.8280 C   0  0  0  0  0  0  0  0  0  0  0  0
  -15.8327   -0.0591  -25.1341 C   0  0  0  0  0  0  0  0  0  0  0  0
  -14.9860   -1.4177  -25.5957 C   0  0  2  0  0  0  0  0  0  0  0  0
  5  1  2  3
  7  6  1  0
  9  4  1  0
 11  1  1  0
 12  6  1  0
 13  2  2  0
 15  4  2  0
 15 10  2  0
 17  3  1  0
 17 14  1  6
 18  2  1  0
 19  6  1  0
 20  8  1  0
 21  1  1  0
 21  4  1  0
 22  6  1  0
 22 20  1  0
 23 17  1  0
 23 20  1  0
 24  9  1  0
 24 18  2  3
 25  3  1  0
 26  2  1  0
 26 16  1  6
 26 25  1  0
M  RAD  2   6   2   7   2
M  END
>  <ID>  (1) 
conformer_0

$$$$
