
     RDKit          3D

 28 30  0  0  0  0  0  0  0  0999 V2000
  -12.3988   -6.3639  -24.4645 C   0  0  0  0  0  0  0  0  0  0  0  0
  -14.1375   -0.3185  -24.6688 C   0  0  0  0  0  0  0  0  0  0  0  0
  -15.6827   -0.2601  -24.8442 C   0  0  0  0  0  0  0  0  0  0  0  0
  -13.6852   -4.7729  -23.8159 C   0  0  0  0  0  0  0  0  0  0  0  0
  -17.5137    0.4678  -21.3743 O   0  0  0  0  0  0  0  0  0  0  0  0
  -12.9864   -7.1390  -23.4180 N   0  0  0  0  0  0  0  0  0  0  0  0
  -14.6093   -3.3310  -23.7015 N   0  0  0  0  0  0  0  0  0  0  0  0
  -16.0843    2.4983  -21.1031 O   0  0  0  0  0  0  0  0  0  0  0  0
  -16.2955    3.4388  -19.9178 P   0  0  0  0  0  4  0  0  0  0  0  0
  -15.0818   -4.4448  -21.9443 N   0  0  0  0  0  0  0  0  0  0  0  0
  -15.3158    2.5270  -18.8990 O   0  0  0  0  0  1  0  0  0  0  0  0
  -14.1426   -7.3452  -21.5259 O   0  0  0  0  0  0  0  0  0  0  0  0
  -13.5724   -1.1469  -23.7622 O   0  0  0  0  0  0  0  0  0  0  0  0
  -15.9922    4.8211  -20.0341 O   0  0  0  0  0  0  0  0  0  0  0  0
  -13.8047   -6.4992  -22.4502 C   0  0  0  0  0  0  0  0  0  0  0  0
  -14.8851    0.8857  -23.2968 C   0  0  0  0  0  0  0  0  0  0  0  0
  -11.8863   -7.0752  -25.1973 N   0  0  0  0  0  0  0  0  0  0  0  0
  -17.5776    3.0517  -19.3622 O   0  0  0  0  0  0  0  0  0  0  0  0
  -14.1051   -0.6421  -26.6216 O   0  0  0  0  0  0  0  0  0  0  0  0
  -16.9015    1.5768  -21.7689 P   0  0  0  0  0  0  0  0  0  0  0  0
  -15.5852    0.7155  -22.6534 O   0  0  0  0  0  0  0  0  0  0  0  0
  -12.7983   -5.0177  -24.7632 N   0  0  0  0  0  0  0  0  0  0  0  0
  -14.4521   -5.0409  -22.6185 C   0  0  0  0  0  0  0  0  0  0  0  0
  -16.1154   -1.7653  -26.2791 O   0  0  0  0  0  0  0  0  0  0  0  0
  -17.6616    2.1636  -22.8363 O   0  0  0  0  0  0  0  0  0  0  0  0
  -15.2451   -1.7536  -25.5188 C   0  0  0  0  0  0  0  0  0  0  0  0
  -14.3398   -2.3503  -24.6552 C   0  0  0  0  0  0  0  0  0  0  0  0
  -15.2111   -3.2042  -22.6295 C   0  0  0  0  0  0  0  0  0  0  0  0
  3  2  1  0
  6  1  2  0
  7  4  1  0
  9  8  1  0
 11  9  1  0
 13  2  1  0
 14  9  1  0
 15  6  1  0
 15 12  2  0
 16  2  1  0
 17  1  1  0
 18  9  1  0
 20  5  1  0
 20  8  1  0
 21 16  1  0
 22  1  1  0
 22  4  1  0
 23  4  2  0
 23 10  1  0
 23 15  1  0
 25 16  1  0
 25 20  1  0
 26  3  1  0
 26 19  1  0
 26 24  1  0
 27  7  1  0
 27 13  1  0
 27 26  1  0
 28  7  1  0
 28 10  2  0
M  RAD  2   9   2  11   2
M  END
>  <ID>  (1) 
conformer_0

$$$$
