
     RDKit          3D

 28 30  0  0  0  0  0  0  0  0999 V2000
  -14.7992    0.9124  -23.2889 C   0  0  0  0  0  0  0  0  0  0  0  0
  -12.5060   -6.3825  -24.2926 C   0  0  0  0  0  0  0  0  0  0  0  0
  -16.0596   -0.0278  -24.5443 C   0  0  0  0  0  0  0  0  0  0  0  0
  -13.7926   -4.7715  -23.7915 C   0  0  0  0  0  0  0  0  0  0  0  0
  -13.0456   -7.4560  -23.4050 N   0  0  0  0  0  0  0  0  0  0  0  0
  -16.2387    3.0104  -19.8574 P   0  0  0  0  0  5  0  0  0  0  0  0
  -17.6716    0.4985  -21.2427 O   0  0  0  0  0  0  0  0  0  0  0  0
  -15.9347    0.9105  -22.8897 O   0  0  0  0  0  0  0  0  0  0  0  0
  -14.6327   -3.3416  -23.6688 N   0  0  0  0  0  0  0  0  0  0  0  0
  -13.7134   -1.3415  -24.0127 O   0  0  0  0  0  0  0  0  0  0  0  0
  -15.1950    2.4454  -18.7214 O   0  0  0  0  0  0  0  0  0  0  0  0
  -15.1956   -4.7672  -22.0952 N   0  0  0  0  0  0  0  0  0  0  0  0
  -11.8004   -6.8378  -25.0063 N   0  0  0  0  0  0  0  0  0  0  0  0
  -14.2776   -7.4592  -21.5734 O   0  0  0  0  0  0  0  0  0  0  0  0
  -17.5677    2.8709  -19.5835 O   0  0  0  0  0  0  0  0  0  0  0  0
  -13.9444   -6.7519  -22.5224 C   0  0  0  0  0  0  0  0  0  0  0  0
  -14.7831   -0.2339  -26.7392 O   0  0  0  0  0  0  0  0  0  0  0  0
  -15.4461   -1.3405  -25.3961 C   0  0  0  0  0  0  0  0  0  0  0  0
  -15.9037    4.4066  -20.3055 O   0  0  0  0  0  0  0  0  0  0  0  0
  -12.8805   -4.9535  -24.5142 N   0  0  0  0  0  0  0  0  0  0  0  0
  -16.9272    1.7464  -21.8262 P   0  0  0  0  0  0  0  0  0  0  0  0
  -15.9215    2.2114  -20.9762 O   0  0  0  0  0  0  0  0  0  0  0  0
  -16.2790   -1.8039  -26.0901 O   0  0  0  0  0  0  0  0  0  0  0  0
  -15.3667   -3.4266  -22.6510 C   0  0  0  0  0  0  0  0  0  0  0  0
  -14.6192   -2.3002  -24.3753 C   0  0  0  0  0  0  0  0  0  0  0  0
  -17.5546    2.3606  -22.7194 O   0  0  0  0  0  0  0  0  0  0  0  0
  -14.1901    0.0809  -24.6436 C   0  0  0  0  0  0  0  0  0  0  0  0
  -14.4755   -5.3112  -22.6437 C   0  0  0  0  0  0  0  0  0  0  0  0
  5  2  2  0
  8  1  1  0
  9  4  1  0
 11  6  1  0
 13  2  1  0
 15  6  1  0
 16  5  1  0
 16 14  2  0
 18  3  1  0
 18 17  1  0
 19  6  1  0
 20  2  1  0
 20  4  1  0
 21  7  1  0
 21  8  1  0
 22  6  1  0
 23 18  1  0
 24  9  1  0
 24 12  2  0
 25  9  1  0
 25 10  1  0
 25 18  1  0
 26  6  1  0
 26 21  1  0
 27  1  1  0
 27  3  1  0
 27 10  1  0
 28  4  2  0
 28 12  1  0
 28 16  1  0
M  END
>  <ID>  (1) 
conformer_0

$$$$
