
     RDKit          3D

 26 28  0  0  0  0  0  0  0  0999 V2000
  -15.4720   -1.0752  -25.3367 C   0  0  0  0  0  0  0  0  0  0  0  0
  -14.0008   -6.1504  -22.5623 C   0  0  0  0  0  0  0  0  0  0  0  0
  -14.6529   -0.1155  -24.7044 C   0  0  2  0  0  0  0  0  0  0  0  0
  -15.0889   -3.6161  -22.8277 C   0  0  0  0  0  0  0  0  0  0  0  0
  -17.4321    0.5791  -21.3942 O   0  0  0  0  0  0  0  0  0  0  0  0
  -12.8174   -7.2488  -23.5517 N   0  0  0  0  0  0  0  0  0  0  0  0
  -16.3013    3.2098  -19.8722 P   0  0  0  0  0  5  0  0  0  0  0  0
  -14.7356   -3.2620  -23.7475 N   0  0  0  0  0  0  0  0  0  0  0  0
  -15.9248    2.6223  -21.2027 O   0  0  0  0  0  0  0  0  0  0  0  0
  -14.1556   -7.3024  -21.5660 O   0  0  0  0  0  0  0  0  0  0  0  0
  -15.1261   -4.5399  -22.1183 N   0  0  0  0  0  0  0  0  0  0  0  0
  -15.2779    2.4441  -18.7883 O   0  0  0  0  0  0  0  0  0  0  0  0
  -13.5250   -1.2770  -23.9764 O   0  0  0  0  0  0  0  0  0  0  0  0
  -15.9786    4.7009  -19.8455 O   0  0  0  0  0  0  0  0  0  0  0  0
  -11.5790   -6.9059  -25.1038 N   0  0  0  0  0  0  0  0  0  0  0  0
  -14.6876    0.7238  -23.6007 C   0  0  0  0  0  0  0  0  0  0  0  0
  -12.6314   -6.1606  -24.2099 C   0  0  0  0  0  0  0  0  0  0  0  0
  -14.6616   -0.6543  -26.8462 O   0  0  0  0  0  0  0  0  0  0  0  0
  -16.7700    1.6826  -21.9551 P   0  0  0  0  0  0  0  0  0  0  0  0
  -17.4182    2.2493  -22.9864 O   0  0  0  0  0  0  0  0  0  0  0  0
  -17.5391    3.0087  -19.4882 O   0  0  0  0  0  0  0  0  0  0  0  0
  -15.5333    0.8828  -22.7116 O   0  0  0  0  0  0  0  0  0  0  0  0
  -16.4103   -1.8285  -26.1484 O   0  0  0  0  0  0  0  0  0  0  0  0
  -14.0415   -4.8903  -23.4369 C   0  0  1  0  0  0  0  0  0  0  0  0
  -14.5429   -2.0084  -24.8763 C   0  0  2  0  0  0  0  0  0  0  0  0
  -12.8338   -5.2989  -24.4433 N   0  0  0  0  0  0  0  0  0  0  0  0
  3  1  1  0
  6  2  1  0
  8  4  1  0
  9  7  1  0
 10  2  2  0
 11  4  2  3
 12  7  1  0
 13  3  1  0
 14  7  1  0
  3 16  1  6
 17  6  2  0
 17 15  1  0
 18  1  1  0
 19  5  1  0
 20  7  1  0
 20 19  1  0
 21  7  1  0
 22 16  1  0
 22 19  1  0
 23  1  1  0
 24  2  1  0
 24  4  1  0
 25  1  1  0
 25  3  1  0
 25  8  1  1
 25 13  1  0
 26 17  1  0
 24 26  1  1
M  END
>  <ID>  (1) 
conformer_0

$$$$
