
     RDKit          3D

 28 29  0  0  0  0  0  0  0  0999 V2000
  -15.6335   -1.2714  -25.4932 C   0  0  0  0  0  0  0  0  0  0  0  0
  -12.1183   -6.4308  -24.5902 C   0  0  0  0  0  0  0  0  0  0  0  0
  -15.2578    0.7310  -24.7908 C   0  0  1  0  0  0  0  0  0  0  0  0
  -13.3496   -5.1681  -23.8170 C   0  0  0  0  0  0  0  0  0  0  0  0
  -16.1760    2.7369  -21.3554 O   0  0  0  0  0  0  0  0  0  0  0  0
  -16.4253    3.2077  -19.9048 P   0  0  0  0  0  5  0  0  0  0  0  0
  -12.7538   -7.3637  -23.5707 N   0  0  0  0  0  0  0  0  0  0  0  0
  -17.5080    0.4708  -21.4447 O   0  0  0  0  0  0  0  0  0  0  0  0
  -15.3122    2.5073  -18.9629 O   0  0  0  0  0  0  0  0  0  0  0  0
  -14.6859   -3.2070  -23.5779 N   0  0  0  0  0  0  0  0  0  0  0  0
  -17.6450    2.8527  -19.4098 O   0  0  0  0  0  0  0  0  0  0  0  0
  -14.2475   -7.2962  -21.5552 O   0  0  0  0  0  0  0  0  0  0  0  0
  -13.7722   -6.5719  -22.4882 C   0  0  0  0  0  0  0  0  0  0  0  0
  -11.5708   -6.5948  -25.3022 N   0  0  0  0  0  0  0  0  0  0  0  0
  -15.0145   -4.7158  -22.0141 N   0  0  0  0  0  0  0  0  0  0  0  0
  -13.8420   -1.1470  -23.7707 O   0  0  0  0  0  0  0  0  0  0  0  0
  -16.2898    4.7785  -19.7577 O   0  0  0  0  0  0  0  0  0  0  0  0
  -17.0094    1.7325  -22.3508 P   0  0  0  0  0  0  0  0  0  0  0  0
  -14.6045    0.5535  -23.4885 C   0  0  0  0  0  0  0  0  0  0  0  0
  -13.7691   -0.5915  -26.7397 O   0  0  0  0  0  0  0  0  0  0  0  0
  -17.9316    2.2942  -23.1936 O   0  0  0  0  0  0  0  0  0  0  0  0
  -12.9045   -4.7564  -24.6537 N   0  0  0  0  0  0  0  0  0  0  0  0
  -14.4203   -4.8707  -22.7280 C   0  0  1  0  0  0  0  0  0  0  0  0
  -15.9290    1.1893  -23.1296 O   0  0  0  0  0  0  0  0  0  0  0  0
  -14.5886   -2.2299  -24.4734 C   0  0  2  0  0  0  0  0  0  0  0  0
  -15.5076    0.3617  -26.7179 O   0  0  0  0  0  0  0  0  0  0  0  0
  -15.1991   -3.2987  -22.7270 C   0  0  0  0  0  0  0  0  0  0  0  0
  -14.2021   -0.5460  -25.2919 C   0  0  1  0  0  0  0  0  0  0  0  0
  6  5  1  0
  7  2  2  0
  9  6  1  0
 11  6  1  0
 13  7  1  0
 13 12  2  0
 14  2  1  0
 17  6  1  0
 18  8  1  0
 19  3  1  0
 21  6  1  0
 21 18  1  0
 22  2  1  0
 22  4  1  0
 23  4  1  0
 23 13  1  0
 23 15  1  1
 24 18  1  0
 24 19  1  0
 25  1  1  1
 25 10  1  0
 25 16  1  0
  3 26  1  6
 27 10  2  3
 27 15  1  0
 28  1  1  0
 28  3  1  0
 28 16  1  0
 28 20  1  6
M  END
>  <ID>  (1) 
conformer_0

$$$$
