
     RDKit          3D

 27 28  0  0  0  0  0  0  0  0999 V2000
  -15.1779   -0.4087  -25.3605 C   0  0  1  0  0  0  0  0  0  0  0  0
  -12.7471   -6.1851  -24.0655 C   0  0  2  0  0  0  0  0  0  0  0  0
  -14.1175    0.3185  -24.1891 C   0  0  2  0  0  0  0  0  0  0  0  0
  -14.1318   -6.1667  -22.3889 C   0  0  0  0  0  0  0  0  0  0  0  0
  -16.3414    3.0161  -19.8768 P   0  0  0  0  0  4  0  0  0  0  0  0
  -17.5886    0.6002  -21.3893 O   0  0  0  0  0  0  0  0  0  0  0  0
  -15.2560    2.5709  -18.8224 O   0  0  0  0  0  1  0  0  0  0  0  0
  -11.9542   -7.1110  -24.4946 N   0  0  0  0  0  0  0  0  0  0  0  0
  -14.5125   -3.2705  -23.6462 N   0  0  0  0  0  0  0  0  0  0  0  0
  -15.0969   -4.4943  -21.9744 N   0  0  0  0  0  0  0  0  0  0  0  0
  -13.5006   -1.2078  -23.8151 O   0  0  0  0  0  0  0  0  0  0  0  0
  -17.4745    2.8627  -19.5366 O   0  0  0  0  0  0  0  0  0  0  0  0
  -14.3802   -7.2562  -21.4544 O   0  0  0  0  0  0  0  0  0  0  0  0
  -15.7612    1.0932  -22.9104 O   0  0  0  0  0  0  0  0  0  0  0  0
  -15.2118    0.7413  -23.5550 C   0  0  0  0  0  0  0  0  0  0  0  0
  -14.0169   -4.8542  -23.2852 C   0  0  0  0  0  0  0  0  0  0  0  0
  -13.3315   -7.4899  -23.2135 N   0  0  0  0  0  0  0  0  0  0  0  0
  -14.6064   -0.7681  -26.7486 O   0  0  0  0  0  0  0  0  0  0  0  0
  -16.1045    4.4622  -20.7634 O   0  0  0  0  0  0  0  0  0  0  0  0
  -17.5659    2.5980  -23.0322 O   0  0  0  0  0  0  0  0  0  0  0  0
  -12.8589   -5.1214  -24.4174 N   0  0  0  0  0  0  0  0  0  0  0  0
  -16.4905   -1.8332  -25.8652 O   0  0  0  0  0  0  0  0  0  0  0  0
  -16.8825    1.8969  -22.1285 P   0  0  0  0  0  0  0  0  0  0  0  0
  -15.9267    2.3267  -21.1031 O   0  0  0  0  0  0  0  0  0  0  0  0
  -14.9897   -3.5725  -22.5938 C   0  0  0  0  0  0  0  0  0  0  0  0
  -14.2076   -2.1852  -24.5234 C   0  0  2  0  0  0  0  0  0  0  0  0
  -15.5110   -1.6188  -25.0211 C   0  0  1  0  0  0  0  0  0  0  0  0
  3  1  1  0
  7  5  1  0
  2  8  1  6
 11  3  1  0
 12  5  1  0
 13  4  2  0
  3 15  1  1
 15 14  2  0
 16  4  1  0
 16  9  1  0
 17  2  1  0
 17  4  1  0
  1 18  1  6
 19  5  1  0
 20 15  1  0
 21  2  1  0
 21 16  1  0
 23  6  1  0
 23 20  1  0
 24  5  1  0
 24 23  1  0
 25  9  1  0
 25 10  2  3
 26  9  1  1
 26 11  1  0
 27  1  1  0
 27 22  1  6
 27 26  1  0
M  RAD  2   5   2   7   2
M  END
>  <ID>  (1) 
conformer_0

$$$$
