
     RDKit          3D

 26 28  0  0  0  0  0  0  0  0999 V2000
  -15.5468   -1.2278  -25.0680 C   0  0  0  0  0  0  0  0  0  0  0  0
  -12.5270   -6.1975  -24.4160 C   0  0  0  0  0  0  0  0  0  0  0  0
  -14.6576   -0.0329  -24.5002 C   0  0  0  0  0  0  0  0  0  0  0  0
  -13.8770   -6.0589  -22.7117 C   0  0  0  0  0  0  0  0  0  0  0  0
  -17.6989    0.4416  -21.3424 O   0  0  0  0  0  0  0  0  0  0  0  0
  -16.3622    3.2011  -19.9528 P   0  0  0  0  0  5  0  0  0  0  0  0
  -15.9816    0.7494  -22.7226 O   0  0  0  0  0  0  0  0  0  0  0  0
  -11.8109   -7.2975  -25.0892 N   0  0  0  0  0  0  0  0  0  0  0  0
  -15.2034    2.4724  -18.6933 O   0  0  0  0  0  0  0  0  0  0  0  0
  -14.1621   -7.2414  -21.6969 O   0  0  0  0  0  0  0  0  0  0  0  0
  -14.8219   -4.5766  -22.2558 N   0  0  0  0  0  0  0  0  0  0  0  0
  -14.4097   -3.1238  -23.6510 N   0  0  0  0  0  0  0  0  0  0  0  0
  -15.8977    4.5605  -20.3604 O   0  0  0  0  0  0  0  0  0  0  0  0
  -13.4788   -1.0632  -23.8811 O   0  0  0  0  0  0  0  0  0  0  0  0
  -17.6003    2.9933  -19.2259 O   0  0  0  0  0  0  0  0  0  0  0  0
  -14.6612    0.6913  -23.4460 C   0  0  0  0  0  0  0  0  0  0  0  0
  -13.7587   -4.8547  -23.6046 C   0  0  0  0  0  3  0  0  0  0  0  0
  -16.4203   -2.4435  -25.6623 O   0  0  0  0  0  0  0  0  0  0  0  0
  -17.8317    3.1202  -22.0192 O   0  0  0  0  0  0  0  0  0  0  0  0
  -17.0807    1.5251  -21.7449 P   0  0  0  0  0  0  0  0  0  0  0  0
  -13.2017   -7.4461  -23.4719 N   0  0  0  0  0  0  0  0  0  0  0  0
  -16.1756    2.1245  -20.8440 O   0  0  0  0  0  0  0  0  0  0  0  0
  -14.6915   -3.5873  -22.6917 C   0  0  0  0  0  0  0  0  0  0  0  0
  -12.6888   -5.3606  -24.7622 N   0  0  0  0  0  0  0  0  0  0  0  0
  -15.4554   -0.5621  -26.4056 O   0  0  0  0  0  0  0  0  0  0  0  0
  -14.5717   -1.9927  -24.5678 C   0  0  0  0  0  0  0  0  0  0  0  0
  3  1  1  0
  8  2  1  0
  9  6  1  0
 10  4  1  0
 11  4  1  0
 13  6  1  0
 14  3  1  0
 15  6  1  0
 16  3  1  0
 16  7  1  0
 17  4  1  0
 17 11  1  0
 18  1  1  0
 19  6  1  0
 20  5  1  0
 20  7  1  0
 21  2  2  0
 21  4  1  0
 22  6  1  0
 22 20  1  0
 23 11  1  0
 23 12  1  0
 24  2  1  0
 24 17  1  0
 25  1  1  0
 26  1  1  0
 26 12  1  0
 26 14  1  0
M  RAD  1  17   2
M  END
>  <ID>  (1) 
conformer_0

$$$$
