
     RDKit          3D

 27 29  0  0  0  0  0  0  0  0999 V2000
  -14.4006   -2.3801  -24.5718 C   0  0  0  0  0  0  0  0  0  0  0  0
  -12.5760   -6.2528  -24.3333 C   0  0  0  0  0  0  0  0  0  0  0  0
  -15.5519   -1.4669  -25.3213 C   0  0  0  0  0  0  0  0  0  0  0  0
  -13.7680   -5.0010  -23.5691 C   0  0  0  0  0  3  0  0  0  0  0  0
  -17.6875    0.5961  -21.4045 O   0  0  0  0  0  0  0  0  0  0  0  0
  -12.9875   -7.4611  -23.5993 N   0  0  0  0  0  0  0  0  0  0  0  0
  -16.9381    2.0515  -22.2182 P   0  0  0  0  0  0  0  0  0  0  0  0
  -15.2125    2.3385  -18.6734 O   0  0  0  0  0  0  0  0  0  0  0  0
  -14.8209   -4.6533  -22.2268 N   0  0  0  0  0  0  0  0  0  0  0  0
  -14.4539   -3.2473  -23.8042 N   0  0  0  0  0  0  0  0  0  0  0  0
  -14.1398   -7.3883  -21.6384 O   0  0  0  0  0  0  0  0  0  0  0  0
  -17.6406    2.7617  -19.5204 O   0  0  0  0  0  0  0  0  0  0  0  0
  -11.7368   -6.8800  -25.0192 N   0  0  0  0  0  0  0  0  0  0  0  0
  -15.9521    2.2685  -21.0249 O   0  0  0  0  0  0  0  0  0  0  0  0
  -13.6566   -1.2419  -23.8994 O   0  0  0  0  0  0  0  0  0  0  0  0
  -14.2041   -0.5388  -24.8583 C   0  0  0  0  0  0  0  0  0  0  0  0
  -13.9256   -6.3087  -22.5791 C   0  0  0  0  0  0  0  0  0  0  0  0
  -14.9567   -0.1776  -26.5396 O   0  0  0  0  0  0  0  0  0  0  0  0
  -15.9886    4.2769  -19.9483 O   0  0  0  0  0  0  0  0  0  0  0  0
  -12.7890   -4.8605  -24.6649 N   0  0  0  0  0  0  0  0  0  0  0  0
  -16.3531    2.8027  -19.7655 P   0  0  0  0  0  5  0  0  0  0  0  0
  -17.4759    2.8646  -22.9491 O   0  0  0  0  0  0  0  0  0  0  0  0
  -14.7199   -3.7973  -22.8682 C   0  0  0  0  0  0  0  0  0  0  0  0
  -15.9457    1.1168  -22.8544 O   0  0  0  0  0  0  0  0  0  0  0  0
  -14.5249    0.6854  -23.2049 C   0  0  0  0  0  0  0  0  0  0  0  0
  -15.4557   -2.2086  -26.3348 O   0  0  0  0  0  0  0  0  0  0  0  0
  -15.4713    0.2741  -24.3085 C   0  0  0  0  0  0  0  0  0  0  0  0
  3  1  1  0
  6  2  2  0
  7  5  1  0
 10  1  1  0
 13  2  1  0
 15  1  1  0
 16  3  1  0
 16 15  1  0
 17  4  1  0
 17  6  1  0
 17  9  1  0
 17 11  1  0
 18  3  1  0
 20  2  1  0
 20  4  1  0
 21  8  1  0
 21 12  1  0
 21 14  1  0
 21 19  1  0
 22  7  1  0
 22 21  1  0
 23  4  1  0
 23  9  2  0
 23 10  1  0
 24  7  1  0
 25 24  1  0
 26  3  1  0
 27 16  1  0
 27 25  1  0
M  RAD  1   4   2
M  END
>  <ID>  (1) 
conformer_0

$$$$
