
     RDKit          3D

 28 30  0  0  0  0  0  0  0  0999 V2000
  -14.9204   -1.8624  -25.6524 C   0  0  0  0  0  0  0  0  0  0  0  0
  -12.1916   -6.3431  -24.6350 C   0  0  0  0  0  0  0  0  0  0  0  0
  -14.4846   -2.4651  -24.6622 C   0  0  0  0  0  0  0  0  0  0  0  0
  -14.1211   -6.3267  -22.2896 C   0  0  0  0  0  0  0  0  0  0  0  0
  -16.3970    2.9109  -19.8624 P   0  0  0  0  0  5  0  0  0  0  0  0
  -17.6505    0.2941  -21.3393 O   0  0  0  0  0  0  0  0  0  0  0  0
  -14.3567   -3.4304  -23.6995 N   0  0  0  0  0  0  0  0  0  0  0  0
  -15.7744    0.7840  -22.7923 O   0  0  0  0  0  0  0  0  0  0  0  0
  -12.8808   -7.1925  -23.6663 N   0  0  0  0  0  0  0  0  0  0  0  0
  -14.4699    0.0080  -24.4123 C   0  0  0  0  0  0  0  0  0  0  0  0
  -15.2325    2.4156  -18.7465 O   0  0  0  0  0  0  0  0  0  0  0  0
  -17.5865    2.9101  -19.2980 O   0  0  0  0  0  0  0  0  0  0  0  0
  -13.6388   -1.2100  -24.1352 O   0  0  0  0  0  0  0  0  0  0  0  0
  -14.1941   -7.4280  -21.7308 O   0  0  0  0  0  0  0  0  0  0  0  0
  -13.3950   -5.7798  -23.3751 C   0  0  0  0  0  0  0  0  0  0  0  0
  -11.4172   -6.8197  -25.0765 N   0  0  0  0  0  0  0  0  0  0  0  0
  -14.6182   -1.6037  -26.9597 O   0  0  0  0  0  0  0  0  0  0  0  0
  -14.9885   -4.8301  -22.0623 N   0  0  0  0  0  0  0  0  0  0  0  0
  -17.9767    2.0414  -22.7323 O   0  0  0  0  0  0  0  0  0  0  0  0
  -16.6973   -1.4253  -25.6866 O   0  0  0  0  0  0  0  0  0  0  0  0
  -16.5781    4.1471  -20.9360 O   0  0  0  0  0  0  0  0  0  0  0  0
  -17.0456    1.6237  -21.9003 P   0  0  0  0  0  0  0  0  0  0  0  0
  -13.9448   -4.4956  -23.4692 C   0  0  0  0  0  0  0  0  0  0  0  0
  -16.0827    1.9648  -20.8731 O   0  0  0  0  0  0  0  0  0  0  0  0
  -15.0596    1.0743  -23.4286 C   0  0  0  0  0  0  0  0  0  0  0  0
  -12.8024   -5.1889  -24.5210 N   0  0  0  0  0  0  0  0  0  0  0  0
  -15.0602   -3.5156  -22.4235 C   0  0  0  0  0  0  0  0  0  0  0  0
  -15.5861   -0.5327  -25.1698 C   0  0  0  0  0  0  0  0  0  0  0  0
  3  1  1  0
  7  3  1  0
  9  2  2  0
 11  5  1  0
 12  5  1  0
 13  3  1  0
 13 10  1  0
 14  4  2  0
 15  4  1  0
 15  9  1  0
 16  2  1  0
 17  1  1  0
 18  4  1  0
 19  5  1  0
 21  5  1  0
 22  6  1  0
 22  8  1  0
 22 19  1  0
 23  7  1  0
 23 15  1  0
 24  5  1  0
 25  8  1  0
 25 10  1  0
 26  2  1  0
 26 15  1  0
 27  7  1  0
 27 18  1  0
 28  1  1  0
 28 10  1  0
 28 20  1  0
M  END
>  <ID>  (1) 
conformer_0

$$$$
