
     RDKit          3D

 26 27  0  0  0  0  0  0  0  0999 V2000
  -14.4675   -2.2029  -24.7551 C   0  0  0  0  0  0  0  0  0  0  0  0
  -12.7303   -6.1918  -24.0608 C   0  0  0  0  0  0  0  0  0  0  0  0
  -15.3179   -1.3112  -25.4901 C   0  0  0  0  0  0  0  0  0  0  0  0
  -13.8296   -4.9147  -23.3761 C   0  0  0  0  0  3  0  0  0  0  0  0
  -17.5665    0.4386  -21.3895 O   0  0  0  0  0  0  0  0  0  0  0  0
  -15.2935    2.4352  -18.8718 O   0  0  0  0  0  0  0  0  0  0  0  0
  -16.9208    1.8738  -22.4649 P   0  0  0  0  0  0  0  0  0  0  0  0
  -14.4629   -3.3302  -23.7487 N   0  0  0  0  0  0  0  0  0  0  0  0
  -11.8878   -7.0755  -24.9652 N   0  0  0  0  0  0  0  0  0  0  0  0
  -17.6548    2.6283  -19.5960 O   0  0  0  0  0  0  0  0  0  0  0  0
  -13.6241   -1.3166  -24.1306 O   0  0  0  0  0  0  0  0  0  0  0  0
  -14.0705   -7.3052  -21.4811 O   0  0  0  0  0  0  0  0  0  0  0  0
  -13.0599   -7.4170  -23.2571 N   0  0  0  0  0  0  0  0  0  0  0  0
  -16.1134    2.6206  -21.4178 O   0  0  0  0  0  0  0  0  0  0  0  0
  -14.9072   -4.5882  -22.1338 N   0  0  0  0  0  0  0  0  0  0  0  0
  -14.8766   -0.1659  -26.8765 O   0  0  0  0  0  0  0  0  0  0  0  0
  -14.8989   -0.0560  -24.9040 C   0  0  0  0  0  0  0  0  0  0  0  0
  -13.9803   -6.2307  -22.3112 C   0  0  0  0  0  0  0  0  0  0  0  0
  -16.4370    2.8392  -19.8733 P   0  0  0  0  0  5  0  0  0  0  0  0
  -17.9488    2.1236  -23.2036 O   0  0  0  0  0  0  0  0  0  0  0  0
  -12.8254   -5.0438  -24.6001 N   0  0  0  0  0  0  0  0  0  0  0  0
  -16.4338    4.3881  -19.6604 O   0  0  0  0  0  0  0  0  0  0  0  0
  -15.7938    1.2906  -23.2835 O   0  0  0  0  0  0  0  0  0  0  0  0
  -15.5725   -2.4049  -26.2355 O   0  0  0  0  0  0  0  0  0  0  0  0
  -14.8139   -3.7584  -22.8258 C   0  0  0  0  0  0  0  0  0  0  0  0
  -14.5791    0.4535  -23.6936 C   0  0  0  0  0  0  0  0  0  0  0  0
  3  1  1  0
  7  5  1  0
  8  1  1  0
  9  2  1  0
 11  1  2  0
 13  2  2  0
 16  3  1  0
 17  3  1  0
 18  4  1  0
 18 12  1  0
 18 13  1  0
 18 15  1  0
 19  6  1  0
 19 10  1  0
 19 14  1  0
 20  7  1  0
 20 19  1  0
 21  2  1  0
 21  4  1  0
 22 19  1  0
 23  7  1  0
 24  3  1  0
 25  4  1  0
 25  8  1  0
 25 15  2  0
 26 17  1  0
 26 23  1  0
M  RAD  1   4   2
M  END
>  <ID>  (1) 
conformer_0

$$$$
