
     RDKit          3D

 28 30  0  0  0  0  0  0  0  0999 V2000
  -14.3310   -2.2044  -24.6389 C   0  0  0  0  0  0  0  0  0  0  0  0
  -12.4114   -6.3527  -24.2794 C   0  0  0  0  0  0  0  0  0  0  0  0
  -13.9437    0.0913  -24.3734 C   0  0  0  0  0  0  0  0  0  0  0  0
  -14.4614   -5.1526  -22.7326 C   0  0  0  0  0  0  0  0  0  0  0  0
  -17.6612    0.4953  -21.4650 O   0  0  0  0  0  0  0  0  0  0  0  0
  -16.2893    3.0983  -19.9400 P   0  0  0  0  0  5  0  0  0  0  0  0
  -17.0476    2.9581  -22.4241 O   0  0  0  0  0  0  0  0  0  0  0  0
  -14.5252   -3.2602  -23.8103 N   0  0  0  0  0  0  0  0  0  0  0  0
  -13.1641   -7.2652  -23.2728 N   0  0  0  0  0  0  0  0  0  0  0  0
  -15.1730    2.4632  -18.6336 O   0  0  0  0  0  0  0  0  0  0  0  0
  -17.5386    2.8988  -19.3551 O   0  0  0  0  0  0  0  0  0  0  0  0
  -15.1265   -4.4889  -22.1173 N   0  0  0  0  0  0  0  0  0  0  0  0
  -14.3606   -7.2638  -21.4945 O   0  0  0  0  0  0  0  0  0  0  0  0
  -11.8301   -6.9216  -24.6736 N   0  0  0  0  0  0  0  0  0  0  0  0
  -13.4087   -1.2421  -24.0808 O   0  0  0  0  0  0  0  0  0  0  0  0
  -13.9638   -6.4772  -22.3836 C   0  0  0  0  0  0  0  0  0  0  0  0
  -14.9033    0.8748  -23.3649 C   0  0  0  0  0  0  0  0  0  0  0  0
  -14.7959   -0.3135  -26.8028 O   0  0  0  0  0  0  0  0  0  0  0  0
  -15.9172    4.5612  -20.2375 O   0  0  0  0  0  0  0  0  0  0  0  0
  -15.8307    0.8585  -22.8511 O   0  0  0  0  0  0  0  0  0  0  0  0
  -12.7413   -4.8519  -24.6592 N   0  0  0  0  0  0  0  0  0  0  0  0
  -16.8673    1.6497  -21.9211 P   0  0  0  0  0  0  0  0  0  0  0  0
  -15.1095   -3.3684  -22.7517 C   0  0  0  0  0  0  0  0  0  0  0  0
  -15.6550   -2.3278  -26.4133 O   0  0  0  0  0  0  0  0  0  0  0  0
  -15.2249   -1.6663  -25.5541 C   0  0  0  0  0  0  0  0  0  0  0  0
  -15.9674    2.2760  -20.7994 O   0  0  0  0  0  0  0  0  0  0  0  0
  -13.6312   -4.7276  -23.9183 C   0  0  0  0  0  0  0  0  0  0  0  0
  -15.5403   -0.4352  -24.9978 C   0  0  0  0  0  0  0  0  0  0  0  0
  7  6  1  0
  8  1  1  0
  9  2  1  0
 10  6  1  0
 11  6  1  0
 12  4  1  0
 14  2  1  0
 15  1  1  0
 15  3  1  0
 16  4  1  0
 16  9  1  0
 16 13  2  0
 17  3  1  0
 19  6  1  0
 20 17  1  0
 21  2  1  0
 22  5  1  0
 22  7  1  0
 22 20  1  0
 23  8  1  0
 23 12  2  0
 25  1  1  0
 25 18  1  0
 25 24  1  0
 26  6  1  0
 27  4  2  0
 27  8  1  0
 27 21  1  0
 28  3  1  0
 28 25  1  0
M  END
>  <ID>  (1) 
conformer_0

$$$$
