
     RDKit          3D

 26 27  0  0  0  0  0  0  0  0999 V2000
  -15.1506   -1.2085  -25.3902 C   0  0  0  0  0  0  0  0  0  0  0  0
  -12.7217   -6.1900  -24.0439 C   0  0  0  0  0  0  0  0  0  0  0  0
  -14.6801   -0.0212  -24.6861 C   0  0  2  0  0  0  0  0  0  0  0  0
  -13.9909   -4.9603  -23.2304 C   0  0  0  0  0  0  0  0  0  0  0  0
  -16.3436    2.9821  -19.8311 P   0  0  0  0  0  4  0  0  0  0  0  0
  -17.6847    0.6612  -21.7847 O   0  0  0  0  0  0  0  0  0  0  0  0
  -16.1987    2.4842  -21.1927 O   0  0  0  0  0  0  0  0  0  0  0  0
  -11.8201   -7.1681  -24.7586 N   0  0  0  0  0  0  0  0  0  0  0  0
  -14.5260   -3.3102  -23.5123 N   0  0  0  0  0  0  0  0  0  0  0  0
  -15.3020    2.3836  -18.9279 O   0  0  0  0  0  1  0  0  0  0  0  0
  -13.2071   -7.3437  -23.1345 N   0  0  0  0  0  0  0  0  0  0  0  0
  -17.6512    2.8289  -19.3835 O   0  0  0  0  0  0  0  0  0  0  0  0
  -13.4573   -1.0997  -23.8016 O   0  0  0  0  0  0  0  0  0  0  0  0
  -14.6275    0.7949  -23.5184 C   0  0  2  0  0  0  0  0  0  0  0  0
  -14.4119   -7.3928  -21.4710 O   0  0  0  0  0  0  0  0  0  0  0  0
  -15.1512   -4.6770  -21.9284 N   0  0  0  0  0  0  0  0  0  0  0  0
  -14.1919   -6.2089  -22.2818 C   0  0  1  0  0  0  0  0  0  0  0  0
  -14.5069   -0.3524  -26.7568 O   0  0  0  0  0  0  0  0  0  0  0  0
  -17.0195    1.6042  -22.1344 P   0  0  0  0  0  0  0  0  0  0  0  0
  -16.1478    4.4376  -19.7001 O   0  0  0  0  0  0  0  0  0  0  0  0
  -15.5446    0.7738  -22.7646 O   0  0  0  0  0  0  0  0  0  0  0  0
  -15.0204   -3.7480  -22.6234 C   0  0  0  0  0  0  0  0  0  0  0  0
  -12.7004   -5.3434  -24.4656 N   0  0  0  0  0  0  0  0  0  0  0  0
  -14.4121   -2.0296  -24.6817 C   0  0  2  0  0  0  0  0  0  0  0  0
  -17.2739    1.7117  -23.5567 O   0  0  0  0  0  0  0  0  0  0  0  0
  -14.7033   -2.2008  -26.5710 O   0  0  0  0  0  0  0  0  0  0  0  0
  3  1  1  0
  7  5  1  0
  8  2  2  3
 10  5  1  0
 11  2  1  0
 12  5  1  0
  3 13  1  1
 14  3  1  0
 17  4  1  0
 17 11  1  0
 17 15  1  6
 17 16  1  0
 18  1  1  0
 19  6  1  0
 19  7  1  0
 20  5  1  0
 14 21  1  1
 22  4  1  0
 22  9  1  0
 22 16  2  0
 23  2  1  0
 24  1  1  0
 24  9  1  1
 24 13  1  0
 25 14  1  0
 25 19  1  0
 26  1  1  0
M  RAD  2   5   2  10   2
M  END
>  <ID>  (1) 
conformer_0

$$$$
