
     RDKit          3D

 28 29  0  0  0  0  0  0  0  0999 V2000
  -12.2274   -6.3650  -24.3556 C   0  0  0  0  0  0  0  0  0  0  0  0
  -15.5495   -1.3927  -25.4437 C   0  0  2  0  0  0  0  0  0  0  0  0
  -13.7553   -0.6121  -25.0277 C   0  0  1  0  0  0  0  0  0  0  0  0
  -12.9828   -7.2829  -23.3473 N   0  0  0  0  0  0  0  0  0  0  0  0
  -13.5209   -4.7627  -23.9918 C   0  0  0  0  0  0  0  0  0  0  0  0
  -17.6933    0.5763  -21.3727 O   0  0  0  0  0  0  0  0  0  0  0  0
  -16.8105    2.0534  -22.1113 P   0  0  0  0  0  0  0  0  0  0  0  0
  -17.2182    2.7694  -22.8085 O   0  0  0  0  0  0  0  0  0  0  0  0
  -15.0627   -4.5473  -22.2372 N   0  0  0  0  0  0  0  0  0  0  0  0
  -17.6661    2.9838  -19.3263 O   0  0  0  0  0  0  0  0  0  0  0  0
  -15.4562    2.4608  -18.7985 O   0  0  0  0  0  0  0  0  0  0  0  0
  -11.5919   -6.6926  -24.8109 N   0  0  0  0  0  0  0  0  0  0  0  0
  -13.9092   -6.5649  -22.4989 C   0  0  0  0  0  0  0  0  0  0  0  0
  -14.6416   -3.1458  -23.7540 N   0  0  0  0  0  0  0  0  0  0  0  0
  -14.3712   -7.3376  -21.6153 O   0  0  0  0  0  0  0  0  0  0  0  0
  -13.2794   -1.0956  -23.7946 O   0  0  0  0  0  0  0  0  0  0  0  0
  -13.6658   -0.0895  -26.4621 O   0  0  0  0  0  0  0  0  0  0  0  0
  -14.1941    0.5622  -23.3353 C   0  0  0  0  0  0  0  0  0  0  0  0
  -12.7941   -4.6275  -24.6544 N   0  0  0  0  0  0  0  0  0  0  0  0
  -16.0990    4.3460  -20.9986 O   0  0  0  0  0  0  0  0  0  0  0  0
  -15.6308    0.9404  -22.7976 O   0  0  0  0  0  0  0  0  0  0  0  0
  -15.1440   -3.4016  -22.9122 C   0  0  0  0  0  0  0  0  0  0  0  0
  -16.5296    2.8929  -19.7758 P   0  0  0  0  0  5  0  0  0  0  0  0
  -14.3510   -2.1758  -24.6992 C   0  0  2  0  0  0  0  0  0  0  0  0
  -16.1033    2.2790  -20.9253 O   0  0  0  0  0  0  0  0  0  0  0  0
  -14.6861   -1.7823  -26.5385 O   0  0  0  0  0  0  0  0  0  0  0  0
  -15.4543    0.0308  -23.9926 C   0  0  2  0  0  0  0  0  0  0  0  0
  -14.3288   -5.1226  -22.7844 C   0  0  0  0  0  0  0  0  0  0  0  0
  4  1  2  0
  7  6  1  0
  8  7  1  0
 12  1  1  0
 13  4  1  0
 15 13  2  0
 16  3  1  0
  3 17  1  6
 19  1  1  0
 19  5  1  0
 21  7  1  0
 22  9  1  0
 22 14  2  3
 23  8  1  0
 23 10  1  0
 23 11  1  0
 23 20  1  0
 24  2  1  0
 24  3  1  0
 24 14  1  0
 24 16  1  6
 25 23  1  0
  2 26  1  6
 27  2  1  0
 27 18  1  1
 27 21  1  0
 28  5  1  0
 28  9  2  3
 28 13  1  0
M  END
>  <ID>  (1) 
conformer_0

$$$$
