
     RDKit          3D

 26 28  0  0  0  0  0  0  0  0999 V2000
  -12.4602   -6.2111  -24.3423 C   0  0  0  0  0  0  0  0  0  0  0  0
  -14.2962   -0.7822  -25.1088 C   0  0  0  0  0  0  0  0  0  0  0  0
  -15.5755   -0.4823  -25.0321 C   0  0  0  0  0  0  0  0  0  0  0  0
  -13.9507   -4.9802  -23.4436 C   0  0  0  0  0  3  0  0  0  0  0  0
  -16.1554    3.1762  -19.9679 P   0  0  0  0  0  5  0  0  0  0  0  0
  -17.6488    0.5027  -21.3607 O   0  0  0  0  0  0  0  0  0  0  0  0
  -12.8908   -7.2485  -23.6290 N   0  0  0  0  0  0  0  0  0  0  0  0
  -14.6734   -3.3953  -23.6891 N   0  0  0  0  0  0  0  0  0  0  0  0
  -17.0363    3.1852  -22.1325 O   0  0  0  0  0  0  0  0  0  0  0  0
  -14.2366   -7.3736  -21.7090 O   0  0  0  0  0  0  0  0  0  0  0  0
  -15.1427    2.4620  -18.6707 O   0  0  0  0  0  0  0  0  0  0  0  0
  -11.5975   -6.8016  -25.1082 N   0  0  0  0  0  0  0  0  0  0  0  0
  -13.7068   -1.2948  -23.9159 O   0  0  0  0  0  0  0  0  0  0  0  0
  -15.0822   -4.7644  -22.0100 N   0  0  0  0  0  0  0  0  0  0  0  0
  -17.4327    2.7158  -19.5904 O   0  0  0  0  0  0  0  0  0  0  0  0
  -14.0130   -6.2119  -22.6273 C   0  0  0  0  0  0  0  0  0  0  0  0
  -14.7154    0.6144  -23.7696 C   0  0  0  0  0  0  0  0  0  0  0  0
  -13.9803   -1.3775  -26.7656 O   0  0  0  0  0  0  0  0  0  0  0  0
  -16.0246    4.6606  -19.7453 O   0  0  0  0  0  0  0  0  0  0  0  0
  -15.9379    0.8726  -22.9318 O   0  0  0  0  0  0  0  0  0  0  0  0
  -12.6982   -4.8365  -24.5453 N   0  0  0  0  0  0  0  0  0  0  0  0
  -16.8213    1.6004  -21.8423 P   0  0  0  0  0  0  0  0  0  0  0  0
  -15.0800   -3.7131  -22.6487 C   0  0  0  0  0  0  0  0  0  0  0  0
  -15.5978    2.1355  -21.0287 O   0  0  0  0  0  0  0  0  0  0  0  0
  -14.7938   -2.3056  -24.9518 C   0  0  0  0  0  0  0  0  0  0  0  0
  -15.5456   -0.2571  -26.6616 O   0  0  0  0  0  0  0  0  0  0  0  0
  3  2  1  0
  7  1  2  0
  8  4  1  0
  9  5  1  0
 11  5  1  0
 12  1  1  0
 13  2  1  0
 15  5  1  0
 16  4  1  0
 16  7  1  0
 16 10  1  0
 16 14  1  0
 17  3  1  0
 18  2  1  0
 19  5  1  0
 20 17  1  0
 21  1  1  0
 21  4  1  0
 22  6  1  0
 22 20  1  0
 23  8  1  0
 23 14  2  0
 24  5  1  0
 24 22  1  0
 25  2  1  0
 25  8  1  0
 25 13  1  0
 26  3  1  0
M  RAD  1   4   2
M  END
>  <ID>  (1) 
conformer_0

$$$$
