
     RDKit          3D

 30 33  0  0  0  0  0  0  0  0999 V2000
  -12.2760   -6.2454  -24.4954 C   0  0  0  0  0  0  0  0  0  0  0  0
  -14.2881   -1.4061  -25.0766 C   0  0  0  0  0  0  0  0  0  0  0  0
  -15.3732   -2.2701  -24.8248 C   0  0  0  0  0  0  0  0  0  0  0  0
  -13.5219   -5.7951  -23.2621 C   0  0  0  0  0  0  0  0  0  0  0  0
  -16.2708    3.0723  -20.0195 P   0  0  0  0  0  5  0  0  0  0  0  0
  -17.8279    0.5937  -21.6577 O   0  0  0  0  0  0  0  0  0  0  0  0
  -15.7993    2.3356  -21.0625 O   0  0  0  0  0  0  0  0  0  0  0  0
  -11.6481   -6.5382  -25.6605 N   0  0  0  0  0  0  0  0  0  0  0  0
  -15.2142    2.4894  -18.7785 O   0  0  0  0  0  0  0  0  0  0  0  0
  -14.8520   -3.2714  -23.6637 N   0  0  0  0  0  0  0  0  0  0  0  0
  -17.5334    2.7175  -19.5832 O   0  0  0  0  0  0  0  0  0  0  0  0
  -14.3463   -7.2679  -21.5304 O   0  0  0  0  0  0  0  0  0  0  0  0
  -15.0490   -4.6665  -22.0015 N   0  0  0  0  0  0  0  0  0  0  0  0
  -15.0262    0.9475  -23.5236 C   0  0  0  0  0  0  0  0  0  0  0  0
  -14.3807   -6.1082  -22.2014 C   0  0  0  0  0  0  0  0  0  0  0  0
  -13.1927   -7.3684  -23.1369 N   0  0  0  0  0  0  0  0  0  0  0  0
  -13.0707   -1.6989  -25.8147 O   0  0  0  0  0  0  0  0  0  0  0  0
  -13.8525   -0.9439  -23.5120 O   0  0  0  0  0  0  0  0  0  0  0  0
  -17.1356    1.6110  -22.2075 P   0  0  0  0  0  0  0  0  0  0  0  0
  -12.9536   -4.5553  -24.6110 N   0  0  0  0  0  0  0  0  0  0  0  0
  -16.0356    4.5821  -19.9891 O   0  0  0  0  0  0  0  0  0  0  0  0
  -16.5253   -1.8931  -25.7695 O   0  0  0  0  0  0  0  0  0  0  0  0
  -17.4728    2.8951  -22.6195 O   0  0  0  0  0  0  0  0  0  0  0  0
  -15.8926   -0.4696  -25.1020 C   0  0  0  0  0  0  0  0  0  0  0  0
  -16.1657    1.0978  -23.0683 O   0  0  0  0  0  0  0  0  0  0  0  0
  -14.2063   -4.4034  -23.5854 C   0  0  0  0  0  0  0  0  0  0  0  0
  -14.2807   -0.2826  -26.4645 O   0  0  0  0  0  0  0  0  0  0  0  0
  -13.9620    0.0829  -24.2486 C   0  0  0  0  0  0  0  0  0  0  0  0
  -11.9059   -6.9358  -23.8884 N   0  0  0  0  0  0  0  0  0  0  0  0
  -15.2322   -3.4644  -22.4413 C   0  0  0  0  0  0  0  0  0  0  0  0
  3  2  1  0
  4  1  1  0
  7  5  1  0
  8  1  1  0
  9  5  1  0
 10  3  1  0
 11  5  1  0
 15  4  1  0
 15 12  2  0
 15 13  1  0
 16  4  1  0
 17  2  1  0
 19  6  1  0
 20  1  1  0
 21  5  1  0
 22  3  1  0
 23  5  1  0
 23 19  1  0
 24  3  1  0
 25 14  1  0
 25 19  1  0
 26  4  1  0
 26 10  1  0
 26 20  1  0
 27  2  1  0
 28  2  1  0
 28 14  1  0
 28 18  1  0
 29  1  1  0
 29 16  1  0
 30 10  1  0
 30 13  2  0
 30 26  1  0
M  END
>  <ID>  (1) 
conformer_0

$$$$
