
     RDKit          3D

 28 29  0  0  0  0  0  0  0  0999 V2000
  -16.0942    0.2893  -24.2388 C   0  0  1  0  0  0  0  0  0  0  0  0
  -12.2836   -6.3150  -24.4652 C   0  0  0  0  0  0  0  0  0  0  0  0
  -15.2780   -0.8478  -25.3894 C   0  0  1  0  0  0  0  0  0  0  0  0
  -13.7232   -5.7444  -23.1530 C   0  0  0  0  0  0  0  0  0  0  0  0
  -17.6321    0.6357  -21.4078 O   0  0  0  0  0  0  0  0  0  0  0  0
  -15.2658    2.4786  -18.7883 O   0  0  0  0  0  0  0  0  0  0  0  0
  -16.4087    3.0157  -19.8175 P   0  0  0  0  0  5  0  0  0  0  0  0
  -13.0008   -7.4163  -23.4979 N   0  0  0  0  0  0  0  0  0  0  0  0
  -11.6218   -6.8553  -25.0796 N   0  0  0  0  0  0  0  0  0  0  0  0
  -14.4264   -3.3682  -23.7063 N   0  0  0  0  0  0  0  0  0  0  0  0
  -13.7620   -1.3592  -23.7897 O   0  0  0  0  0  0  0  0  0  0  0  0
  -17.5637    2.8811  -19.3391 O   0  0  0  0  0  0  0  0  0  0  0  0
  -14.2762   -7.4999  -21.6305 O   0  0  0  0  0  0  0  0  0  0  0  0
  -15.0726   -4.7332  -22.0451 N   0  0  0  0  0  0  0  0  0  0  0  0
  -14.1828   -6.5387  -22.2838 C   0  0  0  0  0  0  0  0  0  0  0  0
  -15.9382    1.0879  -23.1109 O   0  0  0  0  0  0  0  0  0  0  0  0
  -14.9136   -0.1919  -26.6065 O   0  0  0  0  0  0  0  0  0  0  0  0
  -16.0116    4.5116  -19.9824 O   0  0  0  0  0  0  0  0  0  0  0  0
  -14.2420   -2.4891  -24.6550 C   0  0  0  0  0  0  0  0  0  0  0  0
  -12.6883   -4.9382  -24.5795 N   0  0  0  0  0  0  0  0  0  0  0  0
  -17.6044    2.9364  -22.5763 O   0  0  0  0  0  0  0  0  0  0  0  0
  -16.9956    1.7918  -22.1558 P   0  0  0  0  0  0  0  0  0  0  0  0
  -15.9670    2.3309  -21.1687 O   0  0  0  0  0  0  0  0  0  0  0  0
  -13.9912   -4.4199  -23.6225 C   0  0  1  0  0  0  0  0  0  0  0  0
  -13.8289   -0.9637  -25.1622 C   0  0  2  0  0  0  0  0  0  0  0  0
  -14.3954    0.3522  -23.6606 C   0  0  0  0  0  0  0  0  0  0  0  0
  -13.6682   -1.6501  -26.6524 O   0  0  0  0  0  0  0  0  0  0  0  0
  -15.2335   -3.6095  -22.5208 C   0  0  0  0  0  0  0  0  0  0  0  0
  3  1  1  0
  7  6  1  0
  8  2  2  0
  8  4  1  0
  9  2  1  0
 12  7  1  0
 15  4  2  0
 15 13  2  0
 16  1  1  0
  3 17  1  6
 18  7  1  0
 19 10  1  0
 19 11  1  0
 20  2  1  0
 21  7  1  0
 22  5  1  0
 22 16  1  0
 22 21  1  0
 23  7  1  0
 24  4  1  0
 24 10  1  1
 24 20  1  0
 25  3  1  0
 25 11  1  0
 25 19  1  0
  1 26  1  6
 25 27  1  6
 28 10  1  0
 28 14  2  3
M  END
>  <ID>  (1) 
conformer_0

$$$$
