
     RDKit          3D

 26 27  0  0  0  0  0  0  0  0999 V2000
  -15.3834   -1.5024  -25.3254 C   0  0  0  0  0  0  0  0  0  0  0  0
  -12.6373   -6.1957  -24.0438 C   0  0  0  0  0  0  0  0  0  0  0  0
  -14.9573   -0.2239  -25.0408 C   0  0  0  0  0  0  0  0  0  0  0  0
  -13.9678   -4.9533  -23.2171 C   0  0  2  0  0  0  0  0  0  0  0  0
  -17.5750    0.3338  -21.4237 O   0  0  0  0  0  0  0  0  0  0  0  0
  -16.3211    3.1960  -19.9957 P   0  0  0  0  0  0  0  0  0  0  0  0
  -16.0486    2.2846  -21.0642 O   0  0  0  0  0  0  0  0  0  0  0  0
  -13.4544   -1.4562  -23.9154 O   0  0  0  0  0  0  0  0  0  0  0  0
  -15.1426   -4.8122  -21.9817 N   0  0  0  0  0  0  0  0  0  0  0  0
  -15.2947    2.4406  -18.8315 O   0  0  0  0  0  0  0  0  0  0  0  0
  -14.4322   -3.4848  -23.6680 N   0  0  0  0  0  0  0  0  0  0  0  0
  -12.8613   -7.2011  -23.2835 N   0  0  0  0  0  0  0  0  0  0  0  0
  -15.9556    4.7060  -19.9403 O   0  0  0  0  0  0  0  0  0  0  0  0
  -11.6219   -7.2828  -25.0107 N   0  0  0  0  0  0  0  0  0  0  0  0
  -14.2543   -7.5367  -21.5933 O   0  0  0  0  0  0  0  0  0  0  0  0
  -14.3779    0.5593  -24.0153 C   0  0  0  0  0  0  0  0  0  0  0  0
  -14.0649   -6.2825  -22.3399 C   0  0  2  0  0  0  0  0  0  0  0  0
  -17.0094    1.3350  -21.9700 P   0  0  0  0  0  5  0  0  0  0  0  0
  -17.5354    3.0910  -19.3589 O   0  0  0  0  0  0  0  0  0  0  0  0
  -16.1680   -2.3453  -26.2623 O   0  0  0  0  0  0  0  0  0  0  0  0
  -15.7780    0.7465  -22.8810 O   0  0  0  0  0  0  0  0  0  0  0  0
  -17.7765    2.4145  -22.6251 O   0  0  0  0  0  0  0  0  0  0  0  0
  -15.1550   -3.8072  -22.5677 C   0  0  0  0  0  0  0  0  0  0  0  0
  -14.3887   -2.2621  -24.7049 C   0  0  1  0  0  0  0  0  0  0  0  0
  -14.6901   -0.7052  -26.8190 O   0  0  0  0  0  0  0  0  0  0  0  0
  -12.6318   -5.6371  -24.4957 N   0  0  0  0  0  0  0  0  0  0  0  0
  3  1  1  0
  7  6  1  0
  9  4  1  0
  4 11  1  6
 12  2  1  0
 13  6  1  0
 14  2  2  3
 16  3  1  0
 17  4  1  0
 17  9  1  0
 17 12  1  0
 17 15  1  1
 18  5  1  0
 18  7  1  0
 18 10  1  0
 19  6  1  0
 20  1  1  0
 21 16  1  0
 21 18  1  0
 22 18  1  0
 23  9  1  0
 23 11  1  0
 24  1  1  0
 24  8  1  1
 24 11  1  0
 25  1  1  0
 26  2  1  0
M  END
>  <ID>  (1) 
conformer_0

$$$$
