
     RDKit          3D

 26 26  0  0  0  0  0  0  0  0999 V2000
  -12.6971   -6.1972  -24.0424 C   0  0  0  0  0  0  0  0  0  0  0  0
  -15.2341   -1.3308  -25.2481 C   0  0  0  0  0  0  0  0  0  0  0  0
  -14.3254    0.5189  -24.0791 C   0  0  1  0  0  0  0  0  0  0  0  0
  -14.0943   -6.1074  -22.3461 C   0  0  0  0  0  0  0  0  0  0  0  0
  -16.2975    3.1497  -19.8661 P   0  0  0  0  0  4  0  0  0  0  0  0
  -15.4476    0.9856  -22.7591 O   0  0  0  0  0  0  0  0  0  0  0  0
  -17.5112    0.7250  -21.4193 O   0  0  0  0  0  0  0  0  0  0  0  0
  -13.1393   -7.3257  -23.2377 N   0  0  0  0  0  0  0  0  0  0  0  0
  -15.2482    2.4464  -18.9189 O   0  0  0  0  0  1  0  0  0  0  0  0
  -11.9660   -7.2284  -24.7768 N   0  0  0  0  0  0  0  0  0  0  0  0
  -14.6288   -3.1645  -23.5575 N   0  0  0  0  0  0  0  0  0  0  0  0
  -14.2316   -7.3321  -21.5740 O   0  0  0  0  0  0  0  0  0  0  0  0
  -17.5889    2.7943  -19.6963 O   0  0  0  0  0  0  0  0  0  0  0  0
  -15.0517   -4.3926  -21.9763 N   0  0  0  0  0  0  0  0  0  0  0  0
  -13.5481   -1.1029  -23.8281 O   0  0  0  0  0  0  0  0  0  0  0  0
  -14.5068   -0.7493  -26.6440 O   0  0  0  0  0  0  0  0  0  0  0  0
  -14.0892   -4.8222  -23.1735 C   0  0  0  0  0  0  0  0  0  0  0  0
  -14.3259   -1.8067  -24.6728 C   0  0  2  0  0  0  0  0  0  0  0  0
  -16.6332   -2.1974  -25.6625 O   0  0  0  0  0  0  0  0  0  0  0  0
  -16.1630    4.6449  -19.5712 O   0  0  0  0  0  0  0  0  0  0  0  0
  -16.0008    2.9248  -21.2089 O   0  0  0  0  0  0  0  0  0  0  0  0
  -16.7962    1.9525  -22.0058 P   0  0  0  0  0  0  0  0  0  0  0  0
  -12.7352   -5.2956  -24.4028 N   0  0  0  0  0  0  0  0  0  0  0  0
  -14.9975   -3.4687  -22.6147 C   0  0  0  0  0  0  0  0  0  0  0  0
  -15.8064    0.1659  -24.5278 C   0  0  2  0  0  0  0  0  0  0  0  0
  -16.9987    2.0839  -23.3136 O   0  0  0  0  0  0  0  0  0  0  0  0
  3  6  1  1
  8  1  1  0
  8  4  1  0
  9  5  1  0
 10  1  2  3
 12  4  2  0
 13  5  1  0
 15  3  1  0
 16  2  1  0
 17  4  1  0
 17 14  2  3
 18  2  1  0
 18 11  1  0
 18 15  1  1
 19  2  1  0
 20  5  1  0
 21  5  1  0
 22  7  1  0
 22 21  1  0
 23  1  1  0
 24 11  2  3
 24 14  1  0
 25  2  1  0
 25  3  1  0
 26 22  1  0
 25 26  1  1
M  RAD  2   5   2   9   2
M  END
>  <ID>  (1) 
conformer_0

$$$$
