
     RDKit          3D

 26 26  0  0  0  0  0  0  0  0999 V2000
  -15.1970   -1.2290  -25.1959 C   0  0  0  0  0  0  0  0  0  0  0  0
  -12.5996   -6.0906  -24.2304 C   0  0  0  0  0  0  0  0  0  0  0  0
  -14.9864    0.0042  -24.5443 C   0  0  0  0  0  0  0  0  0  0  0  0
  -14.0181   -4.8016  -23.5145 C   0  0  0  0  0  3  0  0  0  0  0  0
  -14.5727   -3.3242  -23.7255 N   0  0  0  0  0  0  0  0  0  0  0  0
  -17.6816    0.5804  -21.5635 O   0  0  0  0  0  0  0  0  0  0  0  0
  -16.3377    3.1583  -19.9682 P   0  0  0  0  0  5  0  0  0  0  0  0
  -15.9882    0.9910  -22.9521 O   0  0  0  0  0  0  0  0  0  0  0  0
  -11.6314   -6.9576  -24.7001 N   0  0  0  0  0  0  0  0  0  0  0  0
  -15.2507    2.4942  -18.7591 O   0  0  0  0  0  0  0  0  0  0  0  0
  -14.2209   -7.2902  -21.6003 O   0  0  0  0  0  0  0  0  0  0  0  0
  -13.0697   -7.1763  -23.4548 N   0  0  0  0  0  0  0  0  0  0  0  0
  -15.1358   -4.6117  -22.1998 N   0  0  0  0  0  0  0  0  0  0  0  0
  -13.4972   -1.1960  -23.6642 O   0  0  0  0  0  0  0  0  0  0  0  0
  -15.8058    4.5224  -20.1773 O   0  0  0  0  0  0  0  0  0  0  0  0
  -14.1049   -6.1277  -22.6139 C   0  0  2  0  0  0  0  0  0  0  0  0
  -14.1065   -0.5137  -26.5973 O   0  0  0  0  0  0  0  0  0  0  0  0
  -17.6375    2.9654  -19.4315 O   0  0  0  0  0  0  0  0  0  0  0  0
  -17.5708    3.1349  -22.2148 O   0  0  0  0  0  0  0  0  0  0  0  0
  -14.6886    0.6353  -23.3656 C   0  0  0  0  0  0  0  0  0  0  0  0
  -12.5579   -4.8798  -24.6091 N   0  0  0  0  0  0  0  0  0  0  0  0
  -17.0502    1.5713  -21.9166 P   0  0  0  0  0  0  0  0  0  0  0  0
  -16.0303    2.0735  -20.9272 O   0  0  0  0  0  0  0  0  0  0  0  0
  -15.1268   -3.6995  -22.7913 C   0  0  0  0  0  0  0  0  0  0  0  0
  -16.2151   -0.7331  -26.0022 O   0  0  0  0  0  0  0  0  0  0  0  0
  -14.1543   -1.9545  -24.5299 C   0  0  2  0  0  0  0  0  0  0  0  0
  3  1  1  0
  5  4  1  0
  9  2  2  3
 10  7  1  0
 12  2  1  0
 15  7  1  0
 16  4  1  0
 16 11  1  1
 16 12  1  0
 16 13  1  0
 17  1  1  0
 18  7  1  0
 19  7  1  0
 20  3  1  0
 20  8  1  0
 21  2  1  0
 22  6  1  0
 22  8  1  0
 23  7  1  0
 23 22  1  0
 24  5  1  0
 24 13  2  0
 25  1  1  0
 26  1  1  0
 26  5  1  0
 26 14  1  1
M  RAD  1   4   2
M  END
>  <ID>  (1) 
conformer_0

$$$$
