
     RDKit          3D

 28 30  0  0  0  0  0  0  0  0999 V2000
  -12.4039   -6.2391  -24.4755 C   0  0  0  0  0  0  0  0  0  0  0  0
  -15.5736    0.1348  -24.3097 C   0  0  0  0  0  0  0  0  0  0  0  0
  -15.1198   -1.4753  -25.5930 C   0  0  0  0  0  0  0  0  0  0  0  0
  -14.3988   -5.1973  -22.6662 C   0  0  0  0  0  0  0  0  0  0  0  0
  -12.8897   -7.3118  -23.7229 N   0  0  0  0  0  0  0  0  0  0  0  0
  -17.6296    0.4705  -21.3680 O   0  0  0  0  0  0  0  0  0  0  0  0
  -16.2264    3.2270  -19.9618 P   0  0  0  0  0  4  0  0  0  0  0  0
  -15.2700    2.5526  -18.8504 O   0  0  0  0  0  1  0  0  0  0  0  0
  -14.7060   -3.2513  -23.6866 N   0  0  0  0  0  0  0  0  0  0  0  0
  -15.0831   -4.6617  -22.0178 N   0  0  0  0  0  0  0  0  0  0  0  0
  -14.1583   -7.4215  -21.7621 O   0  0  0  0  0  0  0  0  0  0  0  0
  -15.7195    0.5768  -22.7381 O   0  0  0  0  0  0  0  0  0  0  0  0
  -13.6086   -1.2668  -23.7923 O   0  0  0  0  0  0  0  0  0  0  0  0
  -11.6792   -6.7857  -25.3103 N   0  0  0  0  0  0  0  0  0  0  0  0
  -15.8803    4.6128  -20.1965 O   0  0  0  0  0  0  0  0  0  0  0  0
  -14.5824    0.7013  -23.2192 C   0  0  0  0  0  0  0  0  0  0  0  0
  -14.8279   -1.9414  -26.7392 O   0  0  0  0  0  0  0  0  0  0  0  0
  -13.8085   -6.6200  -22.6908 C   0  0  0  0  0  0  0  0  0  0  0  0
  -16.9920    1.4357  -21.9399 P   0  0  0  0  0  0  0  0  0  0  0  0
  -17.5601    3.0445  -19.7328 O   0  0  0  0  0  0  0  0  0  0  0  0
  -12.8235   -4.8421  -24.6315 N   0  0  0  0  0  0  0  0  0  0  0  0
  -15.9506    2.3134  -21.1995 O   0  0  0  0  0  0  0  0  0  0  0  0
  -15.3081   -3.3351  -22.6816 C   0  0  0  0  0  0  0  0  0  0  0  0
  -14.3804    0.0329  -26.5770 O   0  0  0  0  0  0  0  0  0  0  0  0
  -17.5326    1.7713  -23.0349 O   0  0  0  0  0  0  0  0  0  0  0  0
  -14.4698   -2.2683  -24.3967 C   0  0  0  0  0  0  0  0  0  0  0  0
  -13.7785   -4.6038  -23.8747 C   0  0  0  0  0  0  0  0  0  0  0  0
  -14.1687   -0.3540  -25.0058 C   0  0  0  0  0  0  0  0  0  0  0  0
  5  1  1  0
  8  7  1  0
 10  4  1  0
 14  1  1  0
 15  7  1  0
 16  2  1  0
 16 12  1  0
 17  3  1  0
 18  4  1  0
 18  5  1  0
 18 11  2  0
 19  6  1  0
 20  7  1  0
 21  1  1  0
 22  7  1  0
 22 19  1  0
 23  9  1  0
 23 10  2  0
 25  2  1  0
 25 19  1  0
 26  3  1  0
 26  9  1  0
 26 13  1  0
 27  4  2  0
 27  9  1  0
 27 21  1  0
 28  2  1  0
 28  3  1  0
 28 13  1  0
 28 24  1  0
M  RAD  2   7   2   8   2
M  END
>  <ID>  (1) 
conformer_0

$$$$
