
     RDKit          3D

 26 29  0  0  0  0  0  0  0  0999 V2000
  -12.8303   -6.1002  -23.9521 C   0  0  0  0  0  0  0  0  0  0  0  0
  -14.7770    0.8486  -23.3777 C   0  0  0  0  0  0  0  0  0  0  0  0
  -16.1576    0.0408  -24.5262 C   0  0  0  0  0  0  0  0  0  0  0  0
  -13.9792   -4.6924  -23.3959 C   0  0  0  0  0  3  0  0  0  0  0  0
  -16.3797    3.1112  -19.8256 P   0  0  0  0  0  4  0  0  0  0  0  0
  -15.9475    1.2419  -22.6557 O   0  0  0  0  0  0  0  0  0  0  0  0
  -17.3811    2.9942  -19.2080 O   0  0  0  0  0  0  0  0  0  0  0  0
  -13.2322   -7.3774  -23.2578 N   0  0  0  0  0  0  0  0  0  0  0  0
  -15.3372    2.3893  -18.9734 O   0  0  0  0  0  1  0  0  0  0  0  0
  -17.5138    0.4879  -21.2150 O   0  0  0  0  0  0  0  0  0  0  0  0
  -14.4069   -3.1627  -23.7279 N   0  0  0  0  0  0  0  0  0  0  0  0
  -11.7999   -7.0979  -24.6345 N   0  0  0  0  0  0  0  0  0  0  0  0
  -13.5930   -1.0648  -24.1880 O   0  0  0  0  0  0  0  0  0  0  0  0
  -15.1041   -4.4883  -22.0816 N   0  0  0  0  0  0  0  0  0  0  0  0
  -14.2344   -7.3829  -21.5562 O   0  0  0  0  0  0  0  0  0  0  0  0
  -14.1500   -6.1049  -22.3687 C   0  0  0  0  0  0  0  0  0  0  0  0
  -14.5384   -0.3392  -24.8435 C   0  0  0  0  0  0  0  0  0  0  0  0
  -14.9684   -1.2999  -26.9232 O   0  0  0  0  0  0  0  0  0  0  0  0
  -16.0065    3.0268  -21.3174 O   0  0  0  0  0  0  0  0  0  0  0  0
  -16.7870   -1.8615  -25.8026 O   0  0  0  0  0  0  0  0  0  0  0  0
  -14.9136   -3.6064  -22.6984 C   0  0  0  0  0  0  0  0  0  0  0  0
  -17.6803    2.8665  -21.3304 O   0  0  0  0  0  0  0  0  0  0  0  0
  -12.8286   -5.2044  -24.4532 N   0  0  0  0  0  0  0  0  0  0  0  0
  -16.7457    1.9039  -21.8026 P   0  0  0  0  0  5  0  0  0  0  0  0
  -15.5558   -1.5628  -25.5108 C   0  0  0  0  0  0  0  0  0  0  0  0
  -14.3413   -2.2625  -24.7101 C   0  0  0  0  0  0  0  0  0  0  0  0
  3  2  1  0
  6  2  1  0
  7  5  1  0
  8  1  2  0
  9  5  1  0
 12  1  1  0
 16  4  1  0
 16  8  1  0
 16 14  1  0
 16 15  1  0
 17  2  1  0
 17  3  1  0
 17 13  1  0
 19  5  1  0
 21  4  1  0
 21 11  1  0
 21 14  2  0
 23  1  1  0
 23  4  1  0
 24  6  1  0
 24 10  1  0
 24 19  1  0
 24 22  1  0
 25 17  1  0
 25 18  1  0
 25 20  1  0
 26 11  1  0
 26 13  1  0
 26 25  1  0
M  RAD  3   4   2   5   2   9   2
M  END
>  <ID>  (1) 
conformer_0

$$$$
