
     RDKit          3D

 24 25  0  0  0  0  0  0  0  0999 V2000
  -12.5305   -6.2880  -24.3330 C   0  0  0  0  0  0  0  0  0  0  0  0
  -14.4629    0.4464  -23.5900 C   0  0  0  0  0  0  0  0  0  0  0  0
  -15.7561    0.2511  -24.4122 C   0  0  0  0  0  0  0  0  0  0  0  0
  -15.0994   -3.7929  -22.9716 C   0  0  0  0  0  0  0  0  0  0  0  0
  -17.6160    0.6317  -21.3265 O   0  0  0  0  0  0  0  0  0  0  0  0
  -14.4914   -3.3476  -23.8183 N   0  0  0  0  0  0  0  0  0  0  0  0
  -16.9949    2.1885  -21.9935 P   0  0  0  0  0  0  0  0  0  0  0  0
  -13.0973   -7.5323  -23.6126 N   0  0  0  0  0  0  0  0  0  0  0  0
  -14.2710   -7.3438  -21.5742 O   0  0  0  0  0  0  0  0  0  0  0  0
  -13.7377   -1.3813  -23.7979 O   0  0  0  0  0  0  0  0  0  0  0  0
  -17.2437    2.9166  -19.4561 O   0  0  0  0  0  0  0  0  0  0  0  0
  -11.5982   -6.7593  -24.7317 N   0  0  0  0  0  0  0  0  0  0  0  0
  -14.0478   -6.3345  -22.6713 C   0  0  0  0  0  0  0  0  0  0  0  0
  -15.9644    1.1172  -22.7109 O   0  0  0  0  0  0  0  0  0  0  0  0
  -14.7706   -0.7228  -26.6476 O   0  0  0  0  0  0  0  0  0  0  0  0
  -15.0565   -4.7698  -22.2119 N   0  0  0  0  0  0  0  0  0  0  0  0
  -14.9408   -0.7830  -25.3026 C   0  0  0  0  0  0  0  0  0  0  0  0
  -17.8726    3.2100  -22.3942 O   0  0  0  0  0  1  0  0  0  0  0  0
  -16.0003    2.8486  -21.3203 O   0  0  0  0  0  0  0  0  0  0  0  0
  -12.7844   -4.9825  -24.5041 N   0  0  0  0  0  0  0  0  0  0  0  0
  -16.2303    2.9214  -19.8137 P   0  0  0  0  0  4  0  0  0  0  0  0
  -13.8996   -5.0072  -23.5415 C   0  0  0  0  0  3  0  0  0  0  0  0
  -15.3919    2.3029  -19.1263 O   0  0  0  0  0  0  0  0  0  0  0  0
  -14.2878   -2.0061  -24.6481 C   0  0  0  0  0  0  0  0  0  0  0  0
  3  2  1  0
  6  4  1  0
  7  5  1  0
  8  1  2  0
 12  1  1  0
 13  8  1  0
 13  9  1  0
 14  2  1  0
 14  7  1  0
 16  4  2  0
 16 13  1  0
 17  3  1  0
 17 15  1  0
 19  7  1  0
 20  1  1  0
 21 11  1  0
 21 18  1  0
 21 19  1  0
 22  4  1  0
 22 13  1  0
 22 20  1  0
 23 21  1  0
 24  6  1  0
 24 10  1  0
 24 17  1  0
M  RAD  3  18   2  21   2  22   2
M  END
>  <ID>  (1) 
conformer_0

$$$$
