
     RDKit          3D

 28 30  0  0  0  0  0  0  0  0999 V2000
  -12.4237   -6.4250  -24.4936 C   0  0  0  0  0  0  0  0  0  0  0  0
  -14.2336   -2.3503  -24.7940 C   0  0  0  0  0  0  0  0  0  0  0  0
  -14.0467   -0.1190  -24.4487 C   0  0  0  0  0  0  0  0  0  0  0  0
  -14.4377   -5.2667  -22.5488 C   0  0  0  0  0  0  0  0  0  0  0  0
  -17.5522    0.5785  -21.3352 O   0  0  0  0  0  0  0  0  0  0  0  0
  -16.8401    1.9297  -22.1664 P   0  0  0  0  0  0  0  0  0  0  0  0
  -15.1816    2.4257  -18.6640 O   0  0  0  0  0  0  0  0  0  0  0  0
  -12.9763   -7.2337  -23.5020 N   0  0  0  0  0  0  0  0  0  0  0  0
  -14.1845   -7.4028  -21.5294 O   0  0  0  0  0  0  0  0  0  0  0  0
  -15.0942   -4.4392  -21.9787 N   0  0  0  0  0  0  0  0  0  0  0  0
  -14.5753   -3.3393  -23.7120 N   0  0  0  0  0  0  0  0  0  0  0  0
  -11.5432   -5.9757  -25.0451 N   0  0  0  0  0  0  0  0  0  0  0  0
  -17.5544    2.7846  -19.4488 O   0  0  0  0  0  0  0  0  0  0  0  0
  -14.6503    0.8126  -23.3230 C   0  0  0  0  0  0  0  0  0  0  0  0
  -13.8436   -6.5982  -22.4821 C   0  0  0  0  0  0  0  0  0  0  0  0
  -15.8455    0.9492  -23.0902 O   0  0  0  0  0  0  0  0  0  0  0  0
  -13.6111   -1.2640  -23.9860 O   0  0  0  0  0  0  0  0  0  0  0  0
  -14.9214   -1.6035  -26.7967 O   0  0  0  0  0  0  0  0  0  0  0  0
  -17.6628    2.8164  -22.6694 O   0  0  0  0  0  0  0  0  0  0  0  0
  -15.9985    4.4896  -20.1281 O   0  0  0  0  0  0  0  0  0  0  0  0
  -16.2681    3.0072  -19.8641 P   0  0  0  0  0  5  0  0  0  0  0  0
  -15.8323    2.3260  -21.0943 O   0  0  0  0  0  0  0  0  0  0  0  0
  -13.2583   -4.7622  -24.5116 N   0  0  0  0  0  0  0  0  0  0  0  0
  -15.1342   -3.3584  -22.6951 C   0  0  0  0  0  0  0  0  0  0  0  0
  -15.0173   -1.6517  -25.6062 C   0  0  0  0  0  0  0  0  0  0  0  0
  -15.7899   -0.6664  -24.7613 C   0  0  0  0  0  0  0  0  0  0  0  0
  -13.7314   -4.8147  -23.7965 C   0  0  0  0  0  0  0  0  0  0  0  0
  -12.5746   -7.7439  -25.5001 N   0  0  0  0  0  0  0  0  0  0  0  0
  6  5  1  0
  8  1  1  0
 10  4  1  0
 11  2  1  0
 12  1  1  0
 14  3  1  0
 15  4  1  0
 15  8  1  0
 15  9  2  0
 16  6  1  0
 16 14  1  0
 17  2  1  0
 17  3  1  0
 19  6  1  0
 21  7  1  0
 21 13  1  0
 21 19  1  0
 21 20  1  0
 22 21  1  0
 23  1  1  0
 24 10  2  0
 24 11  1  0
 25  2  1  0
 25 18  1  0
 26  3  1  0
 26 25  1  0
 27  4  2  0
 27 11  1  0
 27 23  1  0
 28  1  1  0
M  END
>  <ID>  (1) 
conformer_0

$$$$
