
     RDKit          3D

 27 27  0  0  0  0  0  0  0  0999 V2000
  -12.7461   -6.1514  -24.0264 C   0  0  2  0  0  0  0  0  0  0  0  0
  -14.1641   -2.0148  -24.9344 C   0  0  2  0  0  0  0  0  0  0  0  0
  -15.4416   -1.5575  -25.4675 C   0  0  0  0  0  0  0  0  0  0  0  0
  -13.9642   -4.8732  -23.3361 C   0  0  0  0  0  0  0  0  0  0  0  0
  -16.3763    3.1022  -19.8442 P   0  0  0  0  0  5  0  0  0  0  0  0
  -14.3736   -3.3230  -23.8258 N   0  0  0  0  0  0  0  0  0  0  0  0
  -17.5214    0.4604  -21.4811 O   0  0  0  0  0  0  0  0  0  0  0  0
  -15.4570    0.5840  -23.1142 O   0  0  0  0  0  0  0  0  0  0  0  0
  -12.1249   -7.2262  -24.6037 N   0  0  0  0  0  0  0  0  0  0  0  0
  -15.3044    2.5094  -18.7234 O   0  0  0  0  0  0  0  0  0  0  0  0
  -15.0243   -4.5146  -22.0303 N   0  0  0  0  0  0  0  0  0  0  0  0
  -17.6497    2.7984  -19.5797 O   0  0  0  0  0  0  0  0  0  0  0  0
  -14.2811   -7.3203  -21.4424 O   0  0  0  0  0  0  0  0  0  0  0  0
  -13.3496   -1.2782  -23.9973 O   0  0  0  0  0  0  0  0  0  0  0  0
  -15.2826   -0.2560  -25.0159 C   0  0  0  0  0  0  0  0  0  0  0  0
  -14.1128   -6.1899  -22.2896 C   0  0  0  0  0  0  0  0  0  0  0  0
  -16.7233    1.3326  -22.0466 P   0  0  2  0  0  4  0  0  0  0  0  0
  -16.1171    4.5623  -19.6516 O   0  0  0  0  0  0  0  0  0  0  0  0
  -14.3236   -0.7595  -26.9170 O   0  0  0  0  0  0  0  0  0  0  0  0
  -13.1450   -7.1925  -23.1632 N   0  0  0  0  0  0  0  0  0  0  0  0
  -15.7155    1.7097  -20.9042 O   0  0  0  0  0  0  0  0  0  0  0  0
  -12.7436   -5.1818  -24.5726 N   0  0  0  0  0  0  0  0  0  0  0  0
  -17.2266    1.7532  -23.2185 O   0  0  0  0  0  1  0  0  0  0  0  0
  -14.8233   -3.6549  -22.7736 C   0  0  0  0  0  0  0  0  0  0  0  0
  -16.2200   -1.7218  -26.4243 O   0  0  0  0  0  0  0  0  0  0  0  0
  -14.4162    0.5541  -23.9899 C   0  0  0  0  0  0  0  0  0  0  0  0
  -16.4217    3.4125  -21.7400 O   0  0  0  0  0  0  0  0  0  0  0  0
  3  2  1  0
  6  2  1  0
  9  1  1  0
 10  5  1  0
 12  5  1  0
  2 14  1  1
 15  3  1  0
 16  4  1  0
 16 13  2  0
 17  7  1  1
 17  8  1  0
 18  5  1  0
 19  3  1  0
 20  1  1  0
 20  9  1  0
 20 16  1  0
 21  5  1  0
 21 17  1  0
  1 22  1  6
 23 17  1  0
 24  4  1  0
 24  6  1  0
 24 11  2  3
 25  3  1  0
 26  8  1  0
 26 15  1  0
 27  5  1  0
M  RAD  2  17   2  23   2
M  END
>  <ID>  (1) 
conformer_0

$$$$
