
     RDKit          3D

 26 28  0  0  0  0  0  0  0  0999 V2000
  -14.5761   -1.9944  -25.0588 C   0  0  0  0  0  0  0  0  0  0  0  0
  -12.8058   -6.1134  -23.9242 C   0  0  0  0  0  0  0  0  0  0  0  0
  -15.2995   -1.0575  -25.3815 C   0  0  0  0  0  0  0  0  0  0  0  0
  -14.9793   -3.5831  -22.8803 C   0  0  0  0  0  0  0  0  0  0  0  0
  -14.5514   -3.2664  -23.8722 N   0  0  0  0  0  0  0  0  0  0  0  0
  -17.7255    0.4926  -21.3254 O   0  0  0  0  0  0  0  0  0  0  0  0
  -16.3962    3.0581  -19.9340 P   0  0  0  0  0  4  0  0  0  0  0  0
  -11.9899   -7.0539  -24.4732 N   0  0  0  0  0  0  0  0  0  0  0  0
  -17.6557    1.7711  -23.2157 O   0  0  0  0  0  0  0  0  0  0  0  0
  -14.2590   -7.2165  -21.3765 O   0  0  0  0  0  0  0  0  0  0  0  0
  -14.2451    0.0299  -24.7467 C   0  0  0  0  0  0  0  0  0  0  0  0
  -16.0367    2.2153  -21.3094 O   0  0  0  0  0  0  0  0  0  0  0  0
  -13.2320   -7.3563  -22.9394 N   0  0  0  0  0  0  0  0  0  0  0  0
  -13.5562   -1.2745  -23.9862 O   0  0  0  0  0  0  0  0  0  0  0  0
  -15.0695   -4.4508  -22.0991 N   0  0  0  0  0  0  0  0  0  0  0  0
  -14.1437   -6.1150  -22.2947 C   0  0  0  0  0  0  0  0  0  0  0  0
  -16.6199    4.2447  -20.8740 O   0  0  0  0  0  0  0  0  0  0  0  0
  -14.1774   -0.5462  -26.7807 O   0  0  0  0  0  0  0  0  0  0  0  0
  -16.0736   -2.1186  -26.4082 O   0  0  0  0  0  0  0  0  0  0  0  0
  -12.8798   -5.1390  -24.5389 N   0  0  0  0  0  0  0  0  0  0  0  0
  -17.0131    1.5463  -21.8142 P   0  0  0  0  0  0  0  0  0  0  0  0
  -15.5807    2.4711  -19.2380 O   0  0  0  0  0  1  0  0  0  0  0  0
  -17.6328    2.7030  -19.6476 O   0  0  0  0  0  0  0  0  0  0  0  0
  -14.8171    0.8600  -23.6457 C   0  0  0  0  0  0  0  0  0  0  0  0
  -14.0536   -4.7936  -23.3945 C   0  0  0  0  0  3  0  0  0  0  0  0
  -15.7803    0.6569  -22.9631 O   0  0  0  0  0  0  0  0  0  0  0  0
  3  1  1  0
  5  1  1  0
  5  4  1  0
  8  2  1  0
 11  3  1  0
 12  7  1  0
 13  2  2  0
 14  1  1  0
 14 11  1  0
 15  4  2  0
 16 10  1  0
 16 13  1  0
 16 15  1  0
 17  7  1  0
 18  3  1  0
 19  3  1  0
 20  2  1  0
 21  6  1  0
 21  9  1  0
 21 12  1  0
 22  7  1  0
 23  7  1  0
 24  9  1  0
 24 11  1  0
 25  4  1  0
 25 16  1  0
 25 20  1  0
 26 24  1  0
M  RAD  3   7   2  22   2  25   2
M  END
>  <ID>  (1) 
conformer_0

$$$$
