
     RDKit          3D

 26 26  0  0  0  0  0  0  0  0999 V2000
  -12.6774   -6.2074  -24.0606 C   0  0  1  0  0  0  0  0  0  0  0  0
  -15.0290   -1.1439  -25.5841 C   0  0  0  0  0  0  0  0  0  0  0  0
  -15.1113   -0.0354  -24.8623 C   0  0  0  0  0  0  0  0  0  0  0  0
  -13.9870   -4.9361  -23.2360 C   0  0  2  0  0  0  0  0  0  0  0  0
  -17.7678    0.5846  -21.8060 O   0  0  0  0  0  0  0  0  0  0  0  0
  -13.1670   -7.3471  -23.2206 N   0  0  0  0  0  0  0  0  0  0  0  0
  -16.4598    2.9863  -19.9902 P   0  0  0  0  0  5  0  0  0  0  0  0
  -15.2864    2.3957  -18.7732 O   0  0  0  0  0  0  0  0  0  0  0  0
  -14.5496   -3.2366  -23.6084 N   0  0  0  0  0  0  0  0  0  0  0  0
  -17.5975    2.8708  -19.4204 O   0  0  0  0  0  0  0  0  0  0  0  0
  -15.0581   -4.3905  -21.9561 N   0  0  0  0  0  0  0  0  0  0  0  0
  -11.7828   -6.7620  -24.5731 N   0  0  0  0  0  0  0  0  0  0  0  0
  -13.4825   -1.3246  -24.0882 O   0  0  0  0  0  0  0  0  0  0  0  0
  -17.1667    2.7702  -22.7368 O   0  0  0  0  0  0  0  0  0  0  0  0
  -14.1111   -6.2217  -22.3534 C   0  0  0  0  0  0  0  0  0  0  0  0
  -14.3775   -7.3764  -21.4721 O   0  0  0  0  0  0  0  0  0  0  0  0
  -14.4015    0.3235  -23.6720 C   0  0  0  0  0  0  0  0  0  0  0  0
  -15.8483    4.4356  -20.0877 O   0  0  0  0  0  0  0  0  0  0  0  0
  -14.7284    0.0196  -26.7258 O   0  0  0  0  0  0  0  0  0  0  0  0
  -16.9265    1.4860  -22.2580 P   0  0  0  0  0  0  0  0  0  0  0  0
  -12.9028   -4.7909  -24.5687 N   0  0  0  0  0  0  0  0  0  0  0  0
  -15.7849    0.7911  -23.0875 O   0  0  0  0  0  0  0  0  0  0  0  0
  -14.8980   -3.5448  -22.6826 C   0  0  0  0  0  0  0  0  0  0  0  0
  -15.9760    2.1056  -21.0760 O   0  0  0  0  0  0  0  0  0  0  0  0
  -14.3400   -2.1080  -24.7198 C   0  0  0  0  0  0  0  0  0  0  0  0
  -14.7662   -1.9573  -26.8424 O   0  0  0  0  0  0  0  0  0  0  0  0
  3  2  1  0
  6  1  1  0
  8  7  1  0
 10  7  1  0
  1 12  1  6
 14  7  1  0
 15  4  1  0
 15  6  1  0
 16 15  2  0
 17  3  1  0
 18  7  1  0
 19  2  1  0
 20  5  1  0
 20 14  1  0
 21  1  1  0
  4 21  1  1
 22 17  1  0
 22 20  1  0
 23  4  1  0
 23  9  1  0
 23 11  2  3
 24  7  1  0
 25  2  1  0
 25  9  1  0
 25 13  2  0
 26  2  1  0
M  END
>  <ID>  (1) 
conformer_0

$$$$
