
     RDKit          3D

 23 22  0  0  0  0  0  0  0  0999 V2000
  -12.3698   -6.2641  -24.5439 C   0  0  0  0  0  0  0  0  0  0  0  0
  -14.6184    0.4782  -23.9530 C   0  0  0  0  0  0  0  0  0  0  0  0
  -15.2379   -0.7152  -25.0354 C   0  0  2  0  0  0  0  0  0  0  0  0
  -13.7858   -5.0537  -23.5779 C   0  0  0  0  0  0  0  0  0  0  0  0
  -14.6342   -3.4694  -23.6812 N   0  0  0  0  0  0  0  0  0  0  0  0
  -12.7567   -7.1469  -23.7399 N   0  0  0  0  0  0  0  0  0  0  0  0
  -16.4387    2.9132  -19.8157 P   0  0  0  0  0  5  0  0  0  0  0  0
  -17.7330    0.4171  -21.4254 O   0  0  0  0  0  0  0  0  0  0  0  0
  -15.2650    2.4051  -18.6386 O   0  0  0  0  0  0  0  0  0  0  0  0
  -14.2565   -7.3988  -21.7643 O   0  0  0  0  0  0  0  0  0  0  0  0
  -13.6915   -1.3156  -24.1822 O   0  0  0  0  0  0  0  0  0  0  0  0
  -15.7526    0.9170  -22.9022 O   0  0  0  0  0  0  0  0  0  0  0  0
  -12.3501   -5.4017  -24.9991 N   0  0  0  0  0  0  0  0  0  0  0  0
  -13.8925   -6.2978  -22.7267 C   0  0  0  0  0  0  0  0  0  0  0  0
  -15.8747    4.2628  -20.5189 O   0  0  0  0  0  0  0  0  0  0  0  0
  -14.9833   -4.7330  -22.0603 N   0  0  0  0  0  0  0  0  0  0  0  0
  -14.9505   -1.9264  -25.0182 C   0  0  2  0  0  0  0  0  0  0  0  0
  -17.7750    2.7282  -22.3280 O   0  0  0  0  0  0  0  0  0  0  0  0
  -15.7324   -0.9260  -26.6144 O   0  0  0  0  0  0  0  0  0  0  0  0
  -17.6263    3.0346  -19.3023 O   0  0  0  0  0  0  0  0  0  0  0  0
  -14.9377   -3.8568  -22.7140 C   0  0  0  0  0  0  0  0  0  0  0  0
  -16.0105    2.0315  -20.8841 O   0  0  0  0  0  0  0  0  0  0  0  0
  -17.0145    1.6748  -21.9664 P   0  0  0  0  0  0  0  0  0  0  0  0
  3  2  1  0
  5  4  1  0
  6  1  1  0
  9  7  1  0
 12  2  1  0
 13  1  1  0
 14  4  1  0
 14  6  1  0
 14 10  2  0
 15  7  1  0
 17  3  1  0
 17  5  1  0
 17 11  1  1
 18  7  1  0
  3 19  1  6
 20  7  1  0
 21  5  1  0
 21 16  2  3
 22  7  1  0
 23  8  1  0
 23 12  1  0
 23 18  1  0
M  END
>  <ID>  (1) 
conformer_0

$$$$
