
     RDKit          3D

 28 30  0  0  0  0  0  0  0  0999 V2000
  -14.4457   -5.1946  -22.6125 C   0  0  0  0  0  0  0  0  0  0  0  0
  -14.4631   -0.7989  -25.1783 C   0  0  0  0  0  0  0  0  0  0  0  0
  -15.4089    0.4563  -24.4144 C   0  0  0  0  0  0  0  0  0  0  0  0
  -15.2350   -3.3819  -22.7333 C   0  0  0  0  0  0  0  0  0  0  0  0
  -16.2139    3.1290  -19.9010 P   0  0  0  0  0  5  0  0  0  0  0  0
  -15.2610    2.4436  -18.8602 O   0  0  0  0  0  0  0  0  0  0  0  0
  -17.6563    0.6460  -21.5387 O   0  0  0  0  0  0  0  0  0  0  0  0
  -13.4670   -1.1143  -24.0988 O   0  0  0  0  0  0  0  0  0  0  0  0
  -14.4944   -3.2619  -23.6898 N   0  0  0  0  0  0  0  0  0  0  0  0
  -13.1169   -7.2549  -23.0995 N   0  0  0  0  0  0  0  0  0  0  0  0
  -11.9654   -6.9606  -24.7677 N   0  0  0  0  0  0  0  0  0  0  0  0
  -15.1572   -4.5225  -22.0356 N   0  0  0  0  0  0  0  0  0  0  0  0
  -14.3342   -7.3921  -21.4775 O   0  0  0  0  0  0  0  0  0  0  0  0
  -17.5234    2.7755  -19.6286 O   0  0  0  0  0  0  0  0  0  0  0  0
  -14.0207   -6.5687  -22.2448 C   0  0  0  0  0  0  0  0  0  0  0  0
  -14.4940    0.6854  -23.2831 C   0  0  0  0  0  0  0  0  0  0  0  0
  -15.8803    1.0329  -22.9011 O   0  0  0  0  0  0  0  0  0  0  0  0
  -15.0331   -0.3699  -26.7842 O   0  0  0  0  0  0  0  0  0  0  0  0
  -17.0316    1.7741  -22.1408 P   0  0  0  0  0  0  0  0  0  0  0  0
  -15.8932    4.5393  -20.0683 O   0  0  0  0  0  0  0  0  0  0  0  0
  -12.8690   -4.8913  -24.5574 N   0  0  0  0  0  0  0  0  0  0  0  0
  -17.6523    2.6893  -22.9506 O   0  0  0  0  0  0  0  0  0  0  0  0
  -15.9882    2.5443  -21.2122 O   0  0  0  0  0  0  0  0  0  0  0  0
  -12.5237   -6.3632  -24.1688 C   0  0  0  0  0  0  0  0  0  0  0  0
  -14.2237   -2.4200  -24.5646 C   0  0  0  0  0  0  0  0  0  0  0  0
  -14.3858   -2.2733  -26.7722 O   0  0  0  0  0  0  0  0  0  0  0  0
  -13.7525   -4.6832  -23.7423 C   0  0  0  0  0  0  0  0  0  0  0  0
  -15.5880   -1.3902  -25.5097 C   0  0  0  0  0  0  0  0  0  0  0  0
  3  2  1  0
  6  5  1  0
  8  2  1  0
  9  4  1  0
 12  1  1  0
 12  4  2  0
 14  5  1  0
 15  1  1  0
 15 10  1  0
 15 13  2  0
 16  3  1  0
 17 16  1  0
 19  7  1  0
 19 17  1  0
 20  5  1  0
 22  5  1  0
 22 19  1  0
 23  5  1  0
 24 10  2  0
 24 11  1  0
 24 21  1  0
 25  2  1  0
 25  8  1  0
 25  9  1  0
 27  1  2  0
 27  9  1  0
 27 21  1  0
 28  2  1  0
 28 18  1  0
 28 26  1  0
M  END
>  <ID>  (1) 
conformer_0

$$$$
