
     RDKit          3D

 26 26  0  0  0  0  0  0  0  0999 V2000
  -15.0659    0.2290  -24.7095 C   0  0  0  0  0  0  0  0  0  0  0  0
  -12.7850   -6.2809  -24.1151 C   0  0  1  0  0  0  0  0  0  0  0  0
  -14.2939    0.5550  -23.7623 C   0  0  0  0  0  0  0  0  0  0  0  0
  -13.9880   -4.9117  -23.3371 C   0  0  2  0  0  0  0  0  0  0  0  0
  -16.3747    2.9901  -19.8152 P   0  0  0  0  0  5  0  0  0  0  0  0
  -17.5930    0.3901  -21.4219 O   0  0  0  0  0  0  0  0  0  0  0  0
  -16.0018    2.1729  -21.0087 O   0  0  0  0  0  0  0  0  0  0  0  0
  -13.2025   -7.5133  -23.3908 N   0  0  0  0  0  0  0  0  0  0  0  0
  -11.9050   -7.0033  -24.9153 N   0  0  0  0  0  0  0  0  0  0  0  0
  -15.2610    2.4447  -18.7294 O   0  0  0  0  0  0  0  0  0  0  0  0
  -14.5357   -3.2523  -23.7210 N   0  0  0  0  0  0  0  0  0  0  0  0
  -17.6998    2.8549  -19.4719 O   0  0  0  0  0  0  0  0  0  0  0  0
  -13.5310   -1.3071  -24.1160 O   0  0  0  0  0  0  0  0  0  0  0  0
  -14.3153   -0.3674  -26.8597 O   0  0  0  0  0  0  0  0  0  0  0  0
  -14.3633   -7.2745  -21.5475 O   0  0  0  0  0  0  0  0  0  0  0  0
  -15.0503   -4.4523  -22.0747 N   0  0  0  0  0  0  0  0  0  0  0  0
  -14.1378   -6.2147  -22.4235 C   0  0  0  0  0  0  0  0  0  0  0  0
  -15.1050   -1.1428  -25.5516 C   0  0  0  0  0  0  0  0  0  0  0  0
  -16.0217    4.3473  -19.8827 O   0  0  0  0  0  0  0  0  0  0  0  0
  -16.8903    1.5446  -21.9664 P   0  0  0  0  0  0  0  0  0  0  0  0
  -16.0677   -2.0635  -26.1047 O   0  0  0  0  0  0  0  0  0  0  0  0
  -17.4995    2.2860  -22.9754 O   0  0  0  0  0  0  0  0  0  0  0  0
  -12.9141   -5.1700  -24.4599 N   0  0  0  0  0  0  0  0  0  0  0  0
  -14.9572   -3.5689  -22.7603 C   0  0  0  0  0  0  0  0  0  0  0  0
  -14.4228   -1.9573  -24.8834 C   0  0  0  0  0  0  0  0  0  0  0  0
  -15.6863    1.0216  -23.0353 O   0  0  0  0  0  0  0  0  0  0  0  0
  3  1  1  0
  7  5  1  0
  8  2  1  0
  2  9  1  6
 10  5  1  0
 12  5  1  0
 17  4  1  0
 17  8  1  0
 17 15  2  0
 18  1  1  0
 18 14  1  0
 19  5  1  0
 20  6  1  0
 21 18  1  0
 22  5  1  0
 22 20  1  0
 23  2  1  0
  4 23  1  1
 24  4  1  0
 24 11  1  0
 24 16  2  3
 25 11  1  0
 25 13  2  0
 25 18  1  0
 26  3  1  0
 26 20  1  0
M  END
>  <ID>  (1) 
conformer_0

$$$$
