
     RDKit          3D

 27 28  0  0  0  0  0  0  0  0999 V2000
  -12.7372   -6.2540  -24.0693 C   0  0  0  0  0  0  0  0  0  0  0  0
  -15.1106   -0.4462  -25.3910 C   0  0  1  0  0  0  0  0  0  0  0  0
  -14.1899    0.0627  -24.0580 C   0  0  2  0  0  0  0  0  0  0  0  0
  -14.0059   -5.0047  -23.3430 C   0  0  0  0  0  0  0  0  0  0  0  0
  -13.1692   -7.4721  -23.2485 N   0  0  0  0  0  0  0  0  0  0  0  0
  -17.6772    0.3762  -21.4655 O   0  0  0  0  0  0  0  0  0  0  0  0
  -14.4812   -3.4311  -23.6840 N   0  0  0  0  0  0  0  0  0  0  0  0
  -17.0266    1.8370  -22.0168 P   0  0  0  0  0  0  0  0  0  0  0  0
  -11.7798   -6.9984  -24.6577 N   0  0  0  0  0  0  0  0  0  0  0  0
  -15.7279    1.5267  -23.0255 O   0  0  0  0  0  0  0  0  0  0  0  0
  -13.5322   -1.1935  -23.8804 O   0  0  0  0  0  0  0  0  0  0  0  0
  -17.5730    2.7912  -19.4211 O   0  0  0  0  0  0  0  0  0  0  0  0
  -15.3309    2.3084  -18.8763 O   0  0  0  0  0  0  0  0  0  0  0  0
  -15.0132   -4.7862  -22.0174 N   0  0  0  0  0  0  0  0  0  0  0  0
  -14.1357   -6.3720  -22.4152 C   0  0  0  0  0  0  0  0  0  0  0  0
  -14.3213   -7.5115  -21.5559 O   0  0  0  0  0  0  0  0  0  0  0  0
  -15.0137    1.2501  -23.8333 C   0  0  0  0  0  0  0  0  0  0  0  0
  -14.7956   -0.4665  -26.6618 O   0  0  0  0  0  0  0  0  0  0  0  0
  -15.8703    4.4475  -20.3498 O   0  0  0  0  0  0  0  0  0  0  0  0
  -12.8044   -5.0292  -24.5612 N   0  0  0  0  0  0  0  0  0  0  0  0
  -16.1328   -2.2977  -25.9980 O   0  0  0  0  0  0  0  0  0  0  0  0
  -17.7514    2.7348  -22.6514 O   0  0  0  0  0  0  0  0  0  0  0  0
  -16.3112    2.9145  -19.9626 P   0  0  0  0  0  5  0  0  0  0  0  0
  -14.9737   -3.7580  -22.6831 C   0  0  0  0  0  0  0  0  0  0  0  0
  -16.1478    2.3619  -21.0444 O   0  0  0  0  0  0  0  0  0  0  0  0
  -14.1684   -2.2816  -24.6954 C   0  0  2  0  0  0  0  0  0  0  0  0
  -15.4688   -1.7602  -24.9209 C   0  0  1  0  0  0  0  0  0  0  0  0
  3  2  1  0
  5  1  1  0
  8  6  1  0
  9  1  2  3
 10  8  1  0
 11  3  1  0
 15  4  1  0
 15  5  1  0
 15 14  1  0
 16 15  1  0
  3 17  1  1
 17 10  1  0
  2 18  1  6
 20  1  1  0
 22  8  1  0
 23 12  1  0
 23 13  1  0
 23 19  1  0
 23 22  1  0
 24  4  1  0
 24  7  1  0
 24 14  2  0
 25 23  1  0
 26  7  1  1
 26 11  1  0
 27  2  1  0
 27 21  1  6
 27 26  1  0
M  END
>  <ID>  (1) 
conformer_0

$$$$
