
     RDKit          3D

 27 28  0  0  0  0  0  0  0  0999 V2000
  -15.5198   -1.6170  -25.5156 C   0  0  1  0  0  0  0  0  0  0  0  0
  -12.7796   -6.1920  -24.0155 C   0  0  0  0  0  0  0  0  0  0  0  0
  -14.4789   -2.3604  -24.6502 C   0  0  1  0  0  0  0  0  0  0  0  0
  -14.0942   -4.7977  -23.2427 C   0  0  0  0  0  0  0  0  0  0  0  0
  -16.2140    3.1932  -19.8495 P   0  0  0  0  0  4  0  0  0  0  0  0
  -17.0777    2.8556  -22.5886 O   0  0  0  0  0  1  0  0  0  0  0  0
  -11.9503   -7.1127  -24.9774 N   0  0  0  0  0  0  0  0  0  0  0  0
  -13.1023   -7.2934  -23.1186 N   0  0  0  0  0  0  0  0  0  0  0  0
  -15.1657    2.4254  -18.6762 O   0  0  0  0  0  1  0  0  0  0  0  0
  -13.5509   -1.3067  -24.0228 O   0  0  0  0  0  0  0  0  0  0  0  0
  -14.6703   -3.3240  -23.5704 N   0  0  0  0  0  0  0  0  0  0  0  0
  -17.5802    0.7489  -21.3394 O   0  0  0  0  0  0  0  0  0  0  0  0
  -15.2327   -4.5644  -21.9405 N   0  0  0  0  0  0  0  0  0  0  0  0
  -16.0712    4.6994  -20.1862 O   0  0  0  0  0  0  0  0  0  0  0  0
  -14.3517   -7.2594  -21.4533 O   0  0  0  0  0  0  0  0  0  0  0  0
  -14.4595    0.6384  -23.6196 C   0  0  0  0  0  0  0  0  0  0  0  0
  -14.1564   -6.1260  -22.2664 C   0  0  0  0  0  0  0  0  0  0  0  0
  -14.5216   -2.0120  -26.9533 O   0  0  0  0  0  0  0  0  0  0  0  0
  -12.9143   -5.2135  -24.4924 N   0  0  0  0  0  0  0  0  0  0  0  0
  -15.5999    1.0156  -22.8638 O   0  0  0  0  0  0  0  0  0  0  0  0
  -17.4488    2.8897  -19.4703 O   0  0  0  0  0  0  0  0  0  0  0  0
  -15.1755   -3.6433  -22.6042 C   0  0  0  0  0  0  0  0  0  0  0  0
  -16.7765    2.1953  -21.9603 P   0  0  1  0  0  4  0  0  0  0  0  0
  -15.8883   -0.0933  -24.3472 C   0  0  1  0  0  0  0  0  0  0  0  0
  -15.8230    2.4867  -20.8839 O   0  0  0  0  0  0  0  0  0  0  0  0
  -15.2161   -0.0961  -26.6234 O   0  0  0  0  0  0  0  0  0  0  0  0
  -14.3218   -0.5765  -25.1587 C   0  0  2  0  0  0  0  0  0  0  0  0
  3  1  1  0
  7  2  2  3
  8  2  1  0
  9  5  1  0
 10  3  1  0
  3 11  1  1
 11  4  1  0
 14  5  1  0
 17  4  1  0
 17  8  1  0
 17 15  2  0
  1 18  1  1
 19  2  1  0
 20 16  1  0
 21  5  1  0
 22 11  1  0
 22 13  2  3
 23  6  1  6
 23 12  1  0
 23 20  1  0
 24  1  1  0
 24 16  1  1
 25  5  1  0
 25 23  1  0
 27  1  1  0
 27 10  1  0
 27 24  1  0
 27 26  1  6
M  RAD  4   5   2   6   2   9   2  23   2
M  END
>  <ID>  (1) 
conformer_0

$$$$
