
     RDKit          3D

 26 26  0  0  0  0  0  0  0  0999 V2000
  -15.2391   -1.4851  -25.3963 C   0  0  0  0  0  0  0  0  0  0  0  0
  -14.2836   -6.1494  -22.3110 C   0  0  0  0  0  0  0  0  0  0  0  0
  -14.9110   -0.2382  -24.7458 C   0  0  0  0  0  0  0  0  0  0  0  0
  -14.0702   -4.8571  -23.3584 C   0  0  2  0  0  0  0  0  0  0  0  0
  -13.1478   -7.1253  -23.2063 N   0  0  0  0  0  0  0  0  0  0  0  0
  -17.5679    0.5521  -21.3488 O   0  0  0  0  0  0  0  0  0  0  0  0
  -16.8709    1.7143  -22.0771 P   0  0  0  0  0  0  0  0  0  0  0  0
  -11.7466   -6.8964  -24.7028 N   0  0  0  0  0  0  0  0  0  0  0  0
  -15.2494    2.4658  -18.7675 O   0  0  0  0  0  0  0  0  0  0  0  0
  -15.2301   -4.3185  -22.0606 N   0  0  0  0  0  0  0  0  0  0  0  0
  -14.5050   -3.3470  -23.7925 N   0  0  0  0  0  0  0  0  0  0  0  0
  -13.3875   -1.2912  -23.9505 O   0  0  0  0  0  0  0  0  0  0  0  0
  -14.5780   -7.1808  -21.4839 O   0  0  0  0  0  0  0  0  0  0  0  0
  -15.8230    4.6212  -20.1946 O   0  0  0  0  0  0  0  0  0  0  0  0
  -17.3566    2.6938  -22.7192 O   0  0  0  0  0  0  0  0  0  0  0  0
  -14.6381    0.5100  -23.6217 C   0  0  0  0  0  0  0  0  0  0  0  0
  -14.2324   -0.5159  -26.6294 O   0  0  0  0  0  0  0  0  0  0  0  0
  -12.7097   -6.1912  -24.0142 C   0  0  0  0  0  0  0  0  0  0  0  0
  -17.4206    3.0601  -19.3143 O   0  0  0  0  0  0  0  0  0  0  0  0
  -16.3103    3.0967  -19.8391 P   0  0  0  0  0  5  0  0  0  0  0  0
  -15.9577    0.9061  -23.0719 O   0  0  0  0  0  0  0  0  0  0  0  0
  -15.8870   -2.1389  -26.3613 O   0  0  0  0  0  0  0  0  0  0  0  0
  -12.8203   -4.9998  -24.5190 N   0  0  0  0  0  0  0  0  0  0  0  0
  -15.0614   -3.6928  -22.8416 C   0  0  0  0  0  0  0  0  0  0  0  0
  -16.0017    2.3644  -21.0496 O   0  0  0  0  0  0  0  0  0  0  0  0
  -14.0861   -2.1262  -24.9363 C   0  0  2  0  0  0  0  0  0  0  0  0
  3  1  1  0
  4  2  1  0
  5  2  1  0
  7  6  1  0
 13  2  2  0
 15  7  1  0
 16  3  1  0
 17  1  1  0
 18  5  2  0
 18  8  1  0
 20  9  1  0
 20 14  1  0
 20 15  1  0
 20 19  1  0
 21  7  1  0
 21 16  1  0
 22  1  1  0
  4 23  1  1
 23 18  1  0
 24  4  1  0
 24 10  2  3
 24 11  1  0
 25 20  1  0
 26  1  1  0
 26 11  1  0
 26 12  1  1
M  END
>  <ID>  (1) 
conformer_0

$$$$
