
     RDKit          3D

 25 25  0  0  0  0  0  0  0  0999 V2000
  -14.0723   -6.1252  -22.3482 C   0  0  0  0  0  0  0  0  0  0  0  0
  -15.3538   -1.1166  -25.2175 C   0  0  1  0  0  0  0  0  0  0  0  0
  -14.6797   -2.0385  -24.7869 C   0  0  2  0  0  0  0  0  0  0  0  0
  -14.0410   -4.8251  -23.2230 C   0  0  0  0  0  0  0  0  0  0  0  0
  -17.7025    0.5051  -21.4130 O   0  0  0  0  0  0  0  0  0  0  0  0
  -16.4001    3.0382  -20.1019 P   0  0  0  0  0  5  0  0  0  0  0  0
  -13.0234   -7.1500  -23.1709 N   0  0  0  0  0  0  0  0  0  0  0  0
  -14.6905   -3.1635  -23.5837 N   0  0  0  0  0  0  0  0  0  0  0  0
  -15.1723   -4.5152  -21.9891 N   0  0  0  0  0  0  0  0  0  0  0  0
  -11.6891   -7.1248  -24.8620 N   0  0  0  0  0  0  0  0  0  0  0  0
  -16.1551    1.1741  -23.0923 O   0  0  0  0  0  0  0  0  0  0  0  0
  -13.6077   -1.0586  -23.9757 O   0  0  0  0  0  0  0  0  0  0  0  0
  -14.2553   -7.3963  -21.5050 O   0  0  0  0  0  0  0  0  0  0  0  0
  -17.4850    2.9026  -19.5088 O   0  0  0  0  0  0  0  0  0  0  0  0
  -15.4204    2.3639  -19.0484 O   0  0  0  0  0  0  0  0  0  0  0  0
  -14.7496    0.1504  -24.5253 C   0  0  2  0  0  0  0  0  0  0  0  0
  -15.0609   -1.3597  -26.6699 O   0  0  0  0  0  0  0  0  0  0  0  0
  -12.6711   -6.1422  -24.0249 C   0  0  0  0  0  0  0  0  0  0  0  0
  -15.8986    4.3699  -20.6698 O   0  0  0  0  0  0  0  0  0  0  0  0
  -17.6813    3.0919  -22.3263 O   0  0  0  0  0  0  0  0  0  0  0  0
  -15.0837   -3.5040  -22.6235 C   0  0  0  0  0  0  0  0  0  0  0  0
  -12.7652   -5.2378  -24.5386 N   0  0  0  0  0  0  0  0  0  0  0  0
  -17.0815    1.8021  -22.0643 P   0  0  0  0  0  0  0  0  0  0  0  0
  -14.8084    0.9334  -23.4841 C   0  0  0  0  0  0  0  0  0  0  0  0
  -15.9917    2.1199  -21.1959 O   0  0  0  0  0  0  0  0  0  0  0  0
  3  2  1  0
  4  1  1  0
  7  1  1  0
  3  8  1  1
  9  4  1  0
 12  3  1  0
 13  1  2  0
 14  6  1  0
 15  6  1  0
 16  2  1  0
 16 12  1  0
  2 17  1  6
 18  7  1  0
 18 10  2  3
 19  6  1  0
 20  6  1  0
 21  8  1  0
 21  9  2  3
 22 18  1  0
 23  5  1  0
 23 11  1  0
 24 11  1  0
 16 24  1  1
 25  6  1  0
 25 23  1  0
M  END
>  <ID>  (1) 
conformer_0

$$$$
