
     RDKit          3D

 25 25  0  0  0  0  0  0  0  0999 V2000
  -12.6305   -6.3001  -24.2608 C   0  0  0  0  0  0  0  0  0  0  0  0
  -14.9065   -1.3010  -25.2422 C   0  0  1  0  0  0  0  0  0  0  0  0
  -15.2306   -0.0306  -24.3201 C   0  0  0  0  0  0  0  0  0  0  0  0
  -14.9056   -4.0012  -22.8200 C   0  0  0  0  0  0  0  0  0  0  0  0
  -16.3221    3.2476  -20.1165 P   0  0  0  0  0  4  0  0  0  0  0  0
  -14.3753   -3.5070  -23.8012 N   0  0  0  0  0  0  0  0  0  0  0  0
  -17.4871    2.2370  -23.2758 O   0  0  0  0  0  1  0  0  0  0  0  0
  -17.6958    0.5794  -21.3622 O   0  0  0  0  0  0  0  0  0  0  0  0
  -15.0390   -4.7855  -22.0067 N   0  0  0  0  0  0  0  0  0  0  0  0
  -15.3114    2.4806  -18.8968 O   0  0  0  0  0  1  0  0  0  0  0  0
  -11.8222   -7.0378  -25.0252 N   0  0  0  0  0  0  0  0  0  0  0  0
  -13.0379   -7.2941  -23.4350 N   0  0  0  0  0  0  0  0  0  0  0  0
  -14.0577   -6.3851  -22.4408 C   0  0  0  0  0  0  0  0  0  0  0  0
  -14.2607   -7.4537  -21.4748 O   0  0  0  0  0  0  0  0  0  0  0  0
  -13.7420   -1.4475  -23.7911 O   0  0  0  0  0  0  0  0  0  0  0  0
  -15.9702    4.6997  -20.5757 O   0  0  0  0  0  0  0  0  0  0  0  0
  -17.5501    2.9698  -19.5929 O   0  0  0  0  0  0  0  0  0  0  0  0
  -14.5460    0.5170  -23.4540 C   0  0  0  0  0  0  0  0  0  0  0  0
  -15.0169   -1.1087  -26.4462 O   0  0  0  0  0  0  0  0  0  0  0  0
  -17.0196    1.7328  -22.1577 P   0  0  2  0  0  4  0  0  0  0  0  0
  -16.1207    2.5737  -21.1672 O   0  0  0  0  0  0  0  0  0  0  0  0
  -12.7615   -5.1406  -24.6846 N   0  0  0  0  0  0  0  0  0  0  0  0
  -13.8776   -5.1234  -23.4336 C   0  0  2  0  0  0  0  0  0  0  0  0
  -15.9376    0.8717  -22.6922 O   0  0  0  0  0  0  0  0  0  0  0  0
  -14.1286   -2.2720  -24.6745 C   0  0  2  0  0  0  0  0  0  0  0  0
  3  2  1  0
  6  4  1  0
  9  4  2  3
 10  5  1  0
 11  1  1  0
 12  1  2  0
 13 12  1  0
 14 13  2  0
 16  5  1  0
 17  5  1  0
 18  3  1  0
  2 19  1  6
 20  7  1  6
 20  8  1  0
 21  5  1  0
 21 20  1  0
 22  1  1  0
 23  4  1  0
 23 13  1  0
 23 22  1  1
 24 18  1  0
 24 20  1  0
 25  2  1  0
 25  6  1  0
 25 15  1  1
M  RAD  4   5   2   7   2  10   2  20   2
M  END
>  <ID>  (1) 
conformer_0

$$$$
