
     RDKit          3D

 25 27  0  0  0  0  0  0  0  0999 V2000
  -12.5860   -6.1251  -24.2236 C   0  0  1  0  0  0  0  0  0  0  0  0
  -15.4306   -1.1116  -25.1737 C   0  0  1  0  0  0  0  0  0  0  0  0
  -14.2181   -0.2552  -24.9589 C   0  0  2  0  0  0  0  0  0  0  0  0
  -13.8458   -5.0241  -23.3093 C   0  0  2  0  0  0  0  0  0  0  0  0
  -12.8940   -7.4239  -23.4819 N   0  0  0  0  0  0  0  0  0  0  0  0
  -16.5554    3.1540  -19.8674 P   0  0  0  0  0  5  0  0  0  0  0  0
  -14.3950   -3.3759  -23.6841 N   0  0  0  0  0  0  0  0  0  0  0  0
  -17.7248    0.5335  -21.4044 O   0  0  0  0  0  0  0  0  0  0  0  0
  -15.6709    2.4573  -19.0943 O   0  0  0  0  0  0  0  0  0  0  0  0
  -11.7274   -6.7785  -25.0346 N   0  0  0  0  0  0  0  0  0  0  0  0
  -14.1705   -7.4667  -21.6002 O   0  0  0  0  0  0  0  0  0  0  0  0
  -13.9899   -6.3198  -22.3952 C   0  0  0  0  0  0  0  0  0  0  0  0
  -14.9880   -4.6388  -22.0167 N   0  0  0  0  0  0  0  0  0  0  0  0
  -13.5705   -1.2962  -23.9000 O   0  0  0  0  0  0  0  0  0  0  0  0
  -15.7938    0.9600  -22.9905 O   0  0  0  0  0  0  0  0  0  0  0  0
  -14.7102   -0.6144  -26.7195 O   0  0  0  0  0  0  0  0  0  0  0  0
  -14.8095    0.6469  -23.8033 C   0  0  0  0  0  0  0  0  0  0  0  0
  -17.6576    2.4825  -23.1649 O   0  0  0  0  0  0  0  0  0  0  0  0
  -16.2327    4.5592  -20.0357 O   0  0  0  0  0  0  0  0  0  0  0  0
  -17.5865    3.2653  -19.1031 O   0  0  0  0  0  0  0  0  0  0  0  0
  -16.8898    1.7776  -22.2755 P   0  0  0  0  0  0  0  0  0  0  0  0
  -12.8005   -4.9317  -24.6322 N   0  0  0  0  0  0  0  0  0  0  0  0
  -14.7838   -3.7432  -22.7302 C   0  0  0  0  0  0  0  0  0  0  0  0
  -16.2588    2.4604  -21.3610 O   0  0  0  0  0  0  0  0  0  0  0  0
  -14.4546   -2.1795  -24.7809 C   0  0  2  0  0  0  0  0  0  0  0  0
  3  2  1  0
  5  1  1  0
  9  6  1  0
  1 10  1  6
 12  4  1  0
 12  5  1  0
 12 11  2  0
 14  3  1  0
  2 16  1  6
  3 17  1  6
 17 15  1  0
 18  6  1  0
 19  6  1  0
 20  6  1  0
 21  8  1  0
 21 15  1  0
 22  1  1  0
  4 22  1  1
 23  4  1  0
 23  7  1  0
 23 13  2  3
 24  6  1  0
 24 21  1  0
 25  2  1  0
 25  3  1  0
 25  7  1  1
 25 14  1  0
M  END
>  <ID>  (1) 
conformer_0

$$$$
