
     RDKit          3D

 26 27  0  0  0  0  0  0  0  0999 V2000
  -15.3666   -1.3146  -25.4363 C   0  0  0  0  0  0  0  0  0  0  0  0
  -12.4683   -6.3468  -24.3359 C   0  0  0  0  0  0  0  0  0  0  0  0
  -14.7653   -0.0523  -24.7539 C   0  0  0  0  0  0  0  0  0  0  0  0
  -13.7853   -5.1776  -23.4596 C   0  0  0  0  0  3  0  0  0  0  0  0
  -16.3640    3.3449  -20.1191 P   0  0  0  0  0  5  0  0  0  0  0  0
  -17.5298    0.4257  -21.2645 O   0  0  0  0  0  0  0  0  0  0  0  0
  -12.9286   -7.4804  -23.4412 N   0  0  0  0  0  0  0  0  0  0  0  0
  -14.4557   -3.5082  -23.8654 N   0  0  0  0  0  0  0  0  0  0  0  0
  -14.8486   -4.9499  -22.1520 N   0  0  0  0  0  0  0  0  0  0  0  0
  -15.6116    0.5355  -22.7160 O   0  0  0  0  0  0  0  0  0  0  0  0
  -13.9388   -6.4716  -22.4967 C   0  0  0  0  0  0  0  0  0  0  0  0
  -13.4849   -1.4293  -24.0588 O   0  0  0  0  0  0  0  0  0  0  0  0
  -15.4128    2.4521  -18.9582 O   0  0  0  0  0  0  0  0  0  0  0  0
  -14.2372   -7.4347  -21.5095 O   0  0  0  0  0  0  0  0  0  0  0  0
  -11.6422   -6.9979  -25.0341 N   0  0  0  0  0  0  0  0  0  0  0  0
  -16.2306    4.7879  -20.0474 O   0  0  0  0  0  0  0  0  0  0  0  0
  -14.6746    0.5324  -23.4737 C   0  0  0  0  0  0  0  0  0  0  0  0
  -14.4473   -0.4853  -26.8120 O   0  0  0  0  0  0  0  0  0  0  0  0
  -17.5686    2.8988  -19.4435 O   0  0  0  0  0  0  0  0  0  0  0  0
  -16.8833    1.5259  -21.7331 P   0  0  0  0  0  0  0  0  0  0  0  0
  -12.7146   -5.0650  -24.6294 N   0  0  0  0  0  0  0  0  0  0  0  0
  -15.8269   -2.2735  -26.4419 O   0  0  0  0  0  0  0  0  0  0  0  0
  -16.0118    2.7479  -21.1479 O   0  0  0  0  0  0  0  0  0  0  0  0
  -14.8831   -3.9731  -22.9845 C   0  0  0  0  0  0  0  0  0  0  0  0
  -14.3318   -2.1837  -24.8785 C   0  0  0  0  0  0  0  0  0  0  0  0
  -17.1655    1.9506  -22.8645 O   0  0  0  0  0  0  0  0  0  0  0  0
  3  1  1  0
  7  2  2  0
 11  4  1  0
 11  7  1  0
 11  9  1  0
 13  5  1  0
 14 11  1  0
 15  2  1  0
 16  5  1  0
 17  3  1  0
 17 10  1  0
 18  1  1  0
 19  5  1  0
 20  6  1  0
 20 10  1  0
 21  2  1  0
 21  4  1  0
 22  1  1  0
 23  5  1  0
 24  4  1  0
 24  8  1  0
 24  9  2  0
 25  1  1  0
 25  8  1  0
 25 12  1  0
 26  5  1  0
 26 20  1  0
M  RAD  1   4   2
M  END
>  <ID>  (1) 
conformer_0

$$$$
