
     RDKit          3D

 26 26  0  0  0  0  0  0  0  0999 V2000
  -14.6537    0.1273  -24.8314 C   0  0  0  0  0  0  0  0  0  0  0  0
  -13.8574   -5.0723  -23.3297 C   0  0  0  0  0  0  0  0  0  0  0  0
  -15.1751   -1.1277  -25.4526 C   0  0  1  0  0  0  0  0  0  0  0  0
  -14.8783   -3.7410  -22.9177 C   0  0  0  0  0  0  0  0  0  0  0  0
  -17.7862    0.5233  -21.2853 O   0  0  0  0  0  0  0  0  0  0  0  0
  -16.2714    3.3572  -20.0659 P   0  0  0  0  0  5  0  0  0  0  0  0
  -12.9472   -7.5152  -23.3897 N   0  0  0  0  0  0  0  0  0  0  0  0
  -15.8925    2.1145  -21.0122 O   0  0  0  0  0  0  0  0  0  0  0  0
  -11.8576   -6.9051  -25.0675 N   0  0  0  0  0  0  0  0  0  0  0  0
  -15.2509    2.5519  -18.8096 O   0  0  0  0  0  0  0  0  0  0  0  0
  -17.5955    2.7532  -19.5061 O   0  0  0  0  0  0  0  0  0  0  0  0
  -13.6718   -1.2584  -23.8331 O   0  0  0  0  0  0  0  0  0  0  0  0
  -14.2854   -7.4047  -21.5084 O   0  0  0  0  0  0  0  0  0  0  0  0
  -13.9811   -6.3585  -22.4082 C   0  0  0  0  0  0  0  0  0  0  0  0
  -14.4768   -3.3250  -23.7500 N   0  0  0  0  0  0  0  0  0  0  0  0
  -14.9154   -4.6619  -22.1072 N   0  0  0  0  0  0  0  0  0  0  0  0
  -14.9753    0.4139  -23.4480 C   0  0  2  0  0  0  0  0  0  0  0  0
  -15.8033    4.7730  -20.1754 O   0  0  0  0  0  0  0  0  0  0  0  0
  -14.3857   -1.1884  -26.8336 O   0  0  0  0  0  0  0  0  0  0  0  0
  -17.1664    1.5713  -21.9129 P   0  0  0  0  0  0  0  0  0  0  0  0
  -15.9681    0.5536  -22.8265 O   0  0  0  0  0  0  0  0  0  0  0  0
  -17.3503    3.4008  -21.8710 O   0  0  0  0  0  0  0  0  0  0  0  0
  -12.9615   -5.0897  -24.5304 N   0  0  0  0  0  0  0  0  0  0  0  0
  -12.6054   -6.3219  -24.2285 C   0  0  1  0  0  0  0  0  0  0  0  0
  -14.2474   -2.0081  -24.9585 C   0  0  1  0  0  0  0  0  0  0  0  0
  -17.9120    1.7070  -23.1100 O   0  0  0  0  0  0  0  0  0  0  0  0
  3  1  1  0
  8  6  1  0
 10  6  1  0
 11  6  1  0
 14  2  1  0
 14  7  1  0
 14 13  2  0
 15  4  2  3
 16  2  2  3
 16  4  1  0
 17  1  1  0
 18  6  1  0
  3 19  1  6
 20  5  1  0
 20  8  1  0
 17 21  1  1
 22  6  1  0
 23  2  1  0
 24  7  1  0
 24  9  1  6
 24 23  1  0
 25  3  1  0
 25 12  1  1
 25 15  1  0
 26 17  1  0
 26 20  1  0
M  END
>  <ID>  (1) 
conformer_0

$$$$
