
     RDKit          3D

 26 28  0  0  0  0  0  0  0  0999 V2000
  -12.8184   -6.0799  -24.0739 C   0  0  0  0  0  0  0  0  0  0  0  0
  -14.9548    0.4968  -23.6586 C   0  0  0  0  0  0  0  0  0  0  0  0
  -14.1795    0.0146  -24.5114 C   0  0  1  0  0  0  0  0  0  0  0  0
  -14.0653   -4.7591  -23.5109 C   0  0  1  0  0  0  0  0  0  0  0  0
  -17.6610    0.2991  -21.6881 O   0  0  0  0  0  0  0  0  0  0  0  0
  -16.4075    3.1250  -19.9933 P   0  0  0  0  0  5  0  0  0  0  0  0
  -11.8262   -6.8539  -24.6428 N   0  0  0  0  0  0  0  0  0  0  0  0
  -15.6454    0.7824  -22.7525 O   0  0  0  0  0  0  0  0  0  0  0  0
  -14.6230   -3.2898  -23.8689 N   0  0  0  0  0  0  0  0  0  0  0  0
  -17.6745    3.0689  -19.4588 O   0  0  0  0  0  0  0  0  0  0  0  0
  -16.2554    2.2089  -21.0855 O   0  0  0  0  0  0  0  0  0  0  0  0
  -15.0953   -4.4880  -22.0828 N   0  0  0  0  0  0  0  0  0  0  0  0
  -14.3020   -7.2154  -21.5806 O   0  0  0  0  0  0  0  0  0  0  0  0
  -13.5748   -1.3267  -23.9409 O   0  0  0  0  0  0  0  0  0  0  0  0
  -13.2769   -7.4974  -23.3887 N   0  0  0  0  0  0  0  0  0  0  0  0
  -14.2352   -6.1280  -22.4208 C   0  0  0  0  0  0  0  0  0  0  0  0
  -14.6461   -2.1322  -24.8172 C   0  0  2  0  0  0  0  0  0  0  0  0
  -14.4219   -0.0038  -26.6259 O   0  0  0  0  0  0  0  0  0  0  0  0
  -12.8207   -4.8729  -24.5734 N   0  0  0  0  0  0  0  0  0  0  0  0
  -15.8852    4.4345  -20.3623 O   0  0  0  0  0  0  0  0  0  0  0  0
  -17.0014    1.5239  -22.1271 P   0  0  0  0  0  0  0  0  0  0  0  0
  -17.7880    2.3425  -22.8326 O   0  0  0  0  0  0  0  0  0  0  0  0
  -15.7977   -1.8306  -26.2686 O   0  0  0  0  0  0  0  0  0  0  0  0
  -15.4314    2.4638  -18.9548 O   0  0  0  0  0  0  0  0  0  0  0  0
  -15.0901   -3.6305  -22.7203 C   0  0  0  0  0  0  0  0  0  0  0  0
  -15.3593   -0.8477  -25.2908 C   0  0  0  0  0  0  0  0  0  0  0  0
  3  2  1  1
  7  1  1  0
  8  2  1  0
  9  4  1  0
 10  6  1  0
 11  6  1  0
 14  3  1  0
 15  1  2  3
 16  4  1  0
 16 12  1  0
 16 13  2  0
 17  9  1  1
 17 14  1  0
 19  1  1  0
  4 19  1  6
 20  6  1  0
 21  5  1  0
 21  8  1  0
 22  6  1  0
 22 21  1  0
 24  6  1  0
 25  4  1  0
 25  9  1  0
 25 12  2  0
 26  3  1  0
 26 17  1  0
 26 18  1  0
 26 23  1  0
M  END
>  <ID>  (1) 
conformer_0

$$$$
