
     RDKit          3D

 25 25  0  0  0  0  0  0  0  0999 V2000
  -12.6056   -6.2444  -24.1584 C   0  0  0  0  0  0  0  0  0  0  0  0
  -15.4999   -1.1697  -25.5136 C   0  0  0  0  0  0  0  0  0  0  0  0
  -14.5289   -0.2541  -24.8004 C   0  0  2  0  0  0  0  0  0  0  0  0
  -13.8816   -5.0276  -23.3956 C   0  0  0  0  0  0  0  0  0  0  0  0
  -16.3915    2.9827  -19.7182 P   0  0  0  0  0  5  0  0  0  0  0  0
  -15.9008    2.1540  -20.7631 O   0  0  0  0  0  0  0  0  0  0  0  0
  -14.5659   -3.4382  -23.7965 N   0  0  0  0  0  0  0  0  0  0  0  0
  -12.8947   -7.3584  -23.4821 N   0  0  0  0  0  0  0  0  0  0  0  0
  -15.1615    2.5015  -18.6319 O   0  0  0  0  0  0  0  0  0  0  0  0
  -17.6955    0.6782  -21.5227 O   0  0  0  0  0  0  0  0  0  0  0  0
  -11.8666   -6.2918  -24.8151 N   0  0  0  0  0  0  0  0  0  0  0  0
  -15.0404   -4.7231  -22.0047 N   0  0  0  0  0  0  0  0  0  0  0  0
  -17.6609    2.8207  -19.4547 O   0  0  0  0  0  0  0  0  0  0  0  0
  -13.6645   -1.3813  -24.0284 O   0  0  0  0  0  0  0  0  0  0  0  0
  -14.2318   -7.4701  -21.5310 O   0  0  0  0  0  0  0  0  0  0  0  0
  -13.9826   -6.3142  -22.4523 C   0  0  0  0  0  0  0  0  0  0  0  0
  -14.7710    0.5615  -23.8142 C   0  0  0  0  0  0  0  0  0  0  0  0
  -14.5220   -0.1999  -26.8078 O   0  0  0  0  0  0  0  0  0  0  0  0
  -16.1863    4.5141  -19.7259 O   0  0  0  0  0  0  0  0  0  0  0  0
  -16.7650    1.7366  -21.9115 P   0  0  0  0  0  0  0  0  0  0  0  0
  -16.1059   -1.9990  -26.4152 O   0  0  0  0  0  0  0  0  0  0  0  0
  -14.8927   -3.8962  -22.8116 C   0  0  0  0  0  0  0  0  0  0  0  0
  -15.3210    1.1877  -22.9096 O   0  0  0  0  0  0  0  0  0  0  0  0
  -14.6490   -2.2319  -24.9375 C   0  0  2  0  0  0  0  0  0  0  0  0
  -16.9019    2.7306  -22.6259 O   0  0  0  0  0  0  0  0  0  0  0  0
  3  2  1  0
  6  5  1  0
  8  1  2  3
  9  5  1  0
 11  1  1  0
 13  5  1  0
 14  3  1  0
 16  4  1  0
 16  8  1  0
 16 15  2  0
  3 17  1  1
 18  2  1  0
 19  5  1  0
 20 10  1  0
 21  2  1  0
 22  4  1  0
 22  7  1  0
 22 12  2  3
 23 17  1  0
 23 20  1  0
 24  2  1  0
 24  7  1  1
 24 14  1  0
 25  5  1  0
 25 20  1  0
M  END
>  <ID>  (1) 
conformer_0

$$$$
