
     RDKit          3D

 28 31  0  0  0  0  0  0  0  0999 V2000
  -14.2399   -0.1998  -24.5814 C   0  0  0  0  0  0  0  0  0  0  0  0
  -14.0031   -6.3997  -22.3931 C   0  0  0  0  0  3  0  0  0  0  0  0
  -15.5405   -0.4644  -25.2546 C   0  0  0  0  0  0  0  0  0  0  0  0
  -13.4370   -5.6250  -23.5203 C   0  0  0  0  0  0  0  0  0  0  0  0
  -12.8360   -7.3199  -23.6419 N   0  0  0  0  0  0  0  0  0  0  0  0
  -16.2384    3.2990  -20.0388 P   0  0  0  0  0  4  0  0  0  0  0  0
  -15.5693    0.4088  -22.5859 O   0  0  0  0  0  0  0  0  0  0  0  0
  -17.5902    0.5353  -21.4737 O   0  0  0  0  0  0  0  0  0  0  0  0
  -14.6789   -3.2907  -23.6075 N   0  0  0  0  0  0  0  0  0  0  0  0
  -15.2211    2.4556  -18.8389 O   0  0  0  0  0  1  0  0  0  0  0  0
  -15.0251   -4.6858  -22.0209 N   0  0  0  0  0  0  0  0  0  0  0  0
  -14.1704   -7.3105  -21.6370 O   0  0  0  0  0  0  0  0  0  0  0  0
  -16.0820    4.7213  -20.1161 O   0  0  0  0  0  0  0  0  0  0  0  0
  -12.2240   -6.3805  -24.6789 C   0  0  0  0  0  0  0  0  0  0  0  0
  -11.6554   -6.8797  -25.2791 N   0  0  0  0  0  0  0  0  0  0  0  0
  -14.0201   -1.3493  -23.8615 O   0  0  0  0  0  0  0  0  0  0  0  0
  -14.9749    0.4770  -23.3792 C   0  0  0  0  0  0  0  0  0  0  0  0
  -14.6905   -0.7063  -26.8694 O   0  0  0  0  0  0  0  0  0  0  0  0
  -16.8973    1.5560  -22.0670 P   0  0  0  0  0  0  0  0  0  0  0  0
  -17.4704    2.8626  -19.6927 O   0  0  0  0  0  0  0  0  0  0  0  0
  -15.8731   -2.7716  -26.4519 O   0  0  0  0  0  0  0  0  0  0  0  0
  -12.9391   -4.9773  -24.5961 N   0  0  0  0  0  0  0  0  0  0  0  0
  -17.2044    2.1442  -23.2244 O   0  0  0  0  0  0  0  0  0  0  0  0
  -15.9683    2.4537  -21.2063 O   0  0  0  0  0  0  0  0  0  0  0  0
  -14.1770   -4.4422  -23.3989 C   0  0  0  0  0  0  0  0  0  0  0  0
  -14.7582   -2.3411  -24.5350 C   0  0  0  0  0  0  0  0  0  0  0  0
  -15.1989   -2.0387  -25.7593 C   0  0  0  0  0  0  0  0  0  0  0  0
  -15.1687   -3.4288  -22.4256 C   0  0  0  0  0  0  0  0  0  0  0  0
  3  1  1  0
  4  2  1  0
 10  6  1  0
 12  2  2  0
 13  6  1  0
 14  4  1  0
 14  5  1  0
 15 14  1  0
 16  1  1  0
 17  1  1  0
 17  7  1  0
 19  8  1  0
 20  6  1  0
 22  4  1  0
 22 14  1  0
 23 17  1  0
 23 19  1  0
 24  6  1  0
 24 19  1  0
 25  4  1  0
 25  9  1  0
 25 11  1  0
 26  9  1  0
 26 16  1  0
 27  3  1  0
 27 18  1  0
 27 21  1  0
 27 26  1  0
 28  9  1  0
 28 11  2  0
 28 25  1  0
M  RAD  3   2   2   6   2  10   2
M  END
>  <ID>  (1) 
conformer_0

$$$$
