
     RDKit          3D

 25 27  0  0  0  0  0  0  0  0999 V2000
  -12.6207   -6.0712  -24.2120 C   0  0  0  0  0  0  0  0  0  0  0  0
  -15.5538   -0.7718  -25.2852 C   0  0  1  0  0  0  0  0  0  0  0  0
  -14.2910   -1.8062  -24.8676 C   0  0  1  0  0  0  0  0  0  0  0  0
  -13.8958   -4.7830  -23.5272 C   0  0  1  0  0  0  0  0  0  0  0  0
  -17.8297    0.5341  -21.7138 O   0  0  0  0  0  0  0  0  0  0  0  0
  -12.9407   -7.2039  -23.4686 N   0  0  0  0  0  0  0  0  0  0  0  0
  -16.4536    2.8453  -19.8019 P   0  0  0  0  0  5  0  0  0  0  0  0
  -14.9706   -4.4436  -22.1077 N   0  0  0  0  0  0  0  0  0  0  0  0
  -14.5313   -3.0494  -23.8023 N   0  0  0  0  0  0  0  0  0  0  0  0
  -16.0326    2.0692  -21.0083 O   0  0  0  0  0  0  0  0  0  0  0  0
  -14.3041   -7.2225  -21.5826 O   0  0  0  0  0  0  0  0  0  0  0  0
  -15.2871    2.4361  -18.8127 O   0  0  0  0  0  0  0  0  0  0  0  0
  -17.6573    2.7043  -19.3227 O   0  0  0  0  0  0  0  0  0  0  0  0
  -13.3866   -1.0147  -23.7231 O   0  0  0  0  0  0  0  0  0  0  0  0
  -11.6278   -6.4254  -24.9134 N   0  0  0  0  0  0  0  0  0  0  0  0
  -14.1918   -0.1231  -24.7594 C   0  0  1  0  0  0  0  0  0  0  0  0
  -14.0198   -6.0884  -22.5324 C   0  0  0  0  0  0  0  0  0  0  0  0
  -17.0262    1.4186  -22.2465 P   0  0  0  0  0  0  0  0  0  0  0  0
  -14.7338   -1.0079  -26.7729 O   0  0  0  0  0  0  0  0  0  0  0  0
  -16.0321    0.4582  -23.2443 O   0  0  0  0  0  0  0  0  0  0  0  0
  -16.2468    4.3347  -19.7152 O   0  0  0  0  0  0  0  0  0  0  0  0
  -14.8405   -3.5893  -22.8856 C   0  0  0  0  0  0  0  0  0  0  0  0
  -12.8060   -4.5995  -24.6287 N   0  0  0  0  0  0  0  0  0  0  0  0
  -14.6833    0.6832  -23.7387 C   0  0  0  0  0  0  0  0  0  0  0  0
  -17.0213    2.4825  -22.7948 O   0  0  0  0  0  0  0  0  0  0  0  0
  3  2  1  0
  6  1  2  0
  3  9  1  6
 10  7  1  0
 12  7  1  0
 13  7  1  0
 14  3  1  0
 15  1  1  0
 16  2  1  0
 16  3  1  0
 16 14  1  0
 17  4  1  0
 17  6  1  0
 17 11  2  0
 18  5  1  0
  2 19  1  6
 20 18  1  0
 21  7  1  0
 22  4  1  0
 22  8  2  3
 22  9  1  0
 23  1  1  0
  4 23  1  1
 16 24  1  6
 24 20  1  0
 25  7  1  0
 25 18  1  0
M  END
>  <ID>  (1) 
conformer_0

$$$$
