
     RDKit          3D

 26 25  0  0  0  0  0  0  0  0999 V2000
  -12.8252   -6.0210  -24.0350 C   0  0  0  0  0  0  0  0  0  0  0  0
  -15.4640   -0.0953  -24.9038 C   0  0  0  0  0  0  0  0  0  0  0  0
  -15.1340   -1.2040  -25.5309 C   0  0  0  0  0  0  0  0  0  0  0  0
  -14.1876   -4.7500  -23.2296 C   0  0  0  0  0  0  0  0  0  0  0  0
  -12.8911   -7.1204  -23.5645 N   0  0  0  0  0  0  0  0  0  0  0  0
  -16.1899    2.9532  -19.7492 P   0  0  0  0  0  5  0  0  0  0  0  0
  -15.1250    2.4351  -18.5986 O   0  0  0  0  0  0  0  0  0  0  0  0
  -15.2981   -4.2756  -21.8739 N   0  0  0  0  0  0  0  0  0  0  0  0
  -17.5766    0.6965  -21.4520 O   0  0  0  0  0  0  0  0  0  0  0  0
  -14.6962   -3.1450  -23.5070 N   0  0  0  0  0  0  0  0  0  0  0  0
  -13.5483   -1.1850  -23.8507 O   0  0  0  0  0  0  0  0  0  0  0  0
  -17.5026    2.8219  -19.7382 O   0  0  0  0  0  0  0  0  0  0  0  0
  -14.4317   -7.2471  -21.6453 O   0  0  0  0  0  0  0  0  0  0  0  0
  -11.6773   -6.6898  -25.2344 N   0  0  0  0  0  0  0  0  0  0  0  0
  -15.7384    2.2486  -20.9127 O   0  0  0  0  0  0  0  0  0  0  0  0
  -14.7031    0.6275  -23.7794 C   0  0  0  0  0  0  0  0  0  0  0  0
  -14.2461   -0.2204  -26.7352 O   0  0  0  0  0  0  0  0  0  0  0  0
  -14.2541   -6.0655  -22.4214 C   0  0  0  0  0  0  0  0  0  0  0  0
  -16.0743    4.5233  -19.8338 O   0  0  0  0  0  0  0  0  0  0  0  0
  -12.9675   -4.8647  -24.3730 N   0  0  0  0  0  0  0  0  0  0  0  0
  -16.8245    1.8883  -22.1213 P   0  0  0  0  0  0  0  0  0  0  0  0
  -15.9606    0.7729  -23.0490 O   0  0  0  0  0  0  0  0  0  0  0  0
  -15.1621   -3.5420  -22.5917 C   0  0  0  0  0  0  0  0  0  0  0  0
  -16.6044    2.8223  -22.9134 O   0  0  0  0  0  0  0  0  0  0  0  0
  -15.3190   -2.0634  -26.5477 O   0  0  0  0  0  0  0  0  0  0  0  0
  -14.3285   -1.9021  -24.6121 C   0  0  0  0  0  0  0  0  0  0  0  0
  3  2  1  0
  5  1  2  3
  7  6  1  0
 12  6  1  0
 14  1  1  0
 15  6  1  0
 16  2  1  0
 17  3  1  0
 18  4  2  0
 18 13  2  0
 19  6  1  0
 20  1  1  0
 20  4  1  0
 21  9  1  0
 22 16  1  0
 22 21  1  0
 23  4  1  0
 23  8  2  3
 23 10  1  0
 24  6  1  0
 24 21  1  0
 25  3  1  0
 26  3  1  0
 26 10  1  0
 26 11  2  0
M  END
>  <ID>  (1) 
conformer_0

$$$$
