
     RDKit          3D

 25 26  0  0  0  0  0  0  0  0999 V2000
  -12.5591   -6.2637  -24.1785 C   0  0  2  0  0  0  0  0  0  0  0  0
  -14.4828   -2.2061  -24.9711 C   0  0  1  0  0  0  0  0  0  0  0  0
  -14.6502   -0.3985  -24.5157 C   0  0  2  0  0  0  0  0  0  0  0  0
  -13.8640   -4.9889  -23.4566 C   0  0  2  0  0  0  0  0  0  0  0  0
  -16.8957    1.8285  -22.1600 P   0  0  0  0  0  0  0  0  0  0  0  0
  -16.0447    2.5703  -21.1048 O   0  0  0  0  0  0  0  0  0  0  0  0
  -11.6368   -7.0695  -24.7685 N   0  0  0  0  0  0  0  0  0  0  0  0
  -13.4897   -1.4049  -23.9862 O   0  0  0  0  0  0  0  0  0  0  0  0
  -15.3104    2.4722  -18.8786 O   0  0  0  0  0  0  0  0  0  0  0  0
  -14.3012   -7.4189  -21.6180 O   0  0  0  0  0  0  0  0  0  0  0  0
  -17.7088    0.7614  -21.6713 O   0  0  0  0  0  0  0  0  0  0  0  0
  -14.4608   -3.4615  -23.7925 N   0  0  0  0  0  0  0  0  0  0  0  0
  -15.9327    4.7199  -19.9564 O   0  0  0  0  0  0  0  0  0  0  0  0
  -15.0241   -4.6928  -22.1005 N   0  0  0  0  0  0  0  0  0  0  0  0
  -14.6177    0.4899  -23.3516 C   0  0  0  0  0  0  0  0  0  0  0  0
  -14.0286   -6.2900  -22.5215 C   0  0  0  0  0  0  0  0  0  0  0  0
  -13.0606   -7.4257  -23.5779 N   0  0  0  0  0  0  0  0  0  0  0  0
  -15.8091    0.6851  -22.9164 O   0  0  0  0  0  0  0  0  0  0  0  0
  -17.4908    2.8002  -19.6130 O   0  0  0  0  0  0  0  0  0  0  0  0
  -14.9996   -1.1493  -26.6497 O   0  0  0  0  0  0  0  0  0  0  0  0
  -16.2774    3.2386  -20.0906 P   0  0  0  0  0  5  0  0  0  0  0  0
  -12.6121   -5.1977  -24.4618 N   0  0  0  0  0  0  0  0  0  0  0  0
  -15.5771   -1.5770  -25.3150 C   0  0  1  0  0  0  0  0  0  0  0  0
  -14.9037   -3.9172  -22.7912 C   0  0  0  0  0  0  0  0  0  0  0  0
  -16.7345    3.0786  -22.9302 O   0  0  0  0  0  0  0  0  0  0  0  0
  1  7  1  6
  8  2  1  0
  8  3  1  0
 11  5  1  0
  2 12  1  1
  3 15  1  1
 16  4  1  0
 16 10  2  0
 17  1  1  0
 17 16  1  0
 18  5  1  0
 18 15  1  0
 21  6  1  0
 21  9  1  0
 21 13  1  0
 21 19  1  0
 22  1  1  0
  4 22  1  1
 23  2  1  0
 23  3  1  0
 23 20  1  6
 24  4  1  0
 24 12  1  0
 24 14  2  3
 25  5  1  0
 25 21  1  0
M  END
>  <ID>  (1) 
conformer_0

$$$$
