
     RDKit          3D

 28 31  0  0  0  0  0  0  0  0999 V2000
  -12.3338   -6.3603  -24.1277 C   0  0  0  0  0  0  0  0  0  0  0  0
  -14.0733   -2.1833  -24.5045 C   0  0  0  0  0  0  0  0  0  0  0  0
  -13.8375   -0.0801  -24.5845 C   0  0  0  0  0  0  0  0  0  0  0  0
  -14.5408   -5.2090  -22.5789 C   0  0  0  0  0  0  0  0  0  0  0  0
  -17.6174    0.4550  -21.3766 O   0  0  0  0  0  0  0  0  0  0  0  0
  -16.5140    3.0228  -19.9726 P   0  0  0  0  0  4  0  0  0  0  0  0
  -14.6050   -3.2392  -23.7271 N   0  0  0  0  0  0  0  0  0  0  0  0
  -13.2384   -7.3941  -23.2589 N   0  0  0  0  0  0  0  0  0  0  0  0
  -15.8579    1.2931  -23.0440 O   0  0  0  0  0  0  0  0  0  0  0  0
  -17.6033    2.8714  -19.4399 O   0  0  0  0  0  0  0  0  0  0  0  0
  -11.5909   -6.8952  -24.2573 N   0  0  0  0  0  0  0  0  0  0  0  0
  -15.3224    2.5369  -18.9916 O   0  0  0  0  0  1  0  0  0  0  0  0
  -15.1993   -4.4896  -22.0715 N   0  0  0  0  0  0  0  0  0  0  0  0
  -14.4967   -7.2420  -21.4541 O   0  0  0  0  0  0  0  0  0  0  0  0
  -14.1146    0.0612  -26.4262 O   0  0  0  0  0  0  0  0  0  0  0  0
  -13.5598   -1.0973  -23.6615 O   0  0  0  0  0  0  0  0  0  0  0  0
  -13.9888   -6.5884  -22.4408 C   0  0  0  0  0  0  0  0  0  0  0  0
  -14.8848    0.8561  -23.3673 C   0  0  0  0  0  0  0  0  0  0  0  0
  -16.1461    4.6156  -20.2613 O   0  0  0  0  0  0  0  0  0  0  0  0
  -12.7499   -4.8963  -24.3567 N   0  0  0  0  0  0  0  0  0  0  0  0
  -17.8623    2.5682  -22.6911 O   0  0  0  0  0  1  0  0  0  0  0  0
  -15.2926   -3.2689  -22.8140 C   0  0  0  0  0  0  0  0  0  0  0  0
  -17.0005    1.8223  -22.1163 P   0  0  0  0  0  4  0  0  0  0  0  0
  -13.2005   -1.7823  -26.0992 O   0  0  0  0  0  0  0  0  0  0  0  0
  -16.1364    2.4698  -21.1935 O   0  0  0  0  0  0  0  0  0  0  0  0
  -15.7830   -0.0617  -24.8239 C   0  0  0  0  0  0  0  0  0  0  0  0
  -14.9516   -1.4155  -25.4138 C   0  0  0  0  0  0  0  0  0  0  0  0
  -13.8030   -4.7120  -23.7037 C   0  0  0  0  0  0  0  0  0  0  0  0
  7  2  1  0
  8  1  1  0
 10  6  1  0
 11  1  1  0
 12  6  1  0
 13  4  1  0
 15  3  1  0
 16  2  1  0
 16  3  1  0
 17  4  1  0
 17  8  1  0
 17 14  2  0
 18  3  1  0
 18  9  1  0
 19  6  1  0
 20  1  1  0
 22  7  1  0
 22 13  2  0
 23  5  1  0
 23  9  1  0
 23 21  1  0
 24  2  1  0
 25  6  1  0
 25 23  1  0
 26 18  1  0
 27  2  1  0
 27  3  1  0
 27 26  1  0
 28  4  2  0
 28  7  1  0
 28 20  1  0
M  RAD  4   6   2  12   2  21   2  23   2
M  END
>  <ID>  (1) 
conformer_0

$$$$
