
     RDKit          3D

 26 27  0  0  0  0  0  0  0  0999 V2000
  -13.9055   -6.1703  -22.4562 C   0  0  0  0  0  0  0  0  0  0  0  0
  -15.1874   -1.0312  -25.2560 C   0  0  0  0  0  0  0  0  0  0  0  0
  -14.4672   -1.8650  -24.6331 C   0  0  1  0  0  0  0  0  0  0  0  0
  -13.7953   -4.9073  -23.2698 C   0  0  2  0  0  0  0  0  0  0  0  0
  -16.5414    3.0039  -19.8480 P   0  0  0  0  0  4  0  0  0  0  0  0
  -17.7693    0.5476  -21.5158 O   0  0  0  0  0  0  0  0  0  0  0  0
  -17.6931    2.8912  -19.2596 O   0  0  0  0  0  0  0  0  0  0  0  0
  -15.8047    0.8670  -22.8158 O   0  0  0  0  0  0  0  0  0  0  0  0
  -11.6568   -7.0092  -24.9561 N   0  0  0  0  0  0  0  0  0  0  0  0
  -14.2092   -7.3156  -21.5557 O   0  0  0  0  0  0  0  0  0  0  0  0
  -15.4059    2.3618  -18.9457 O   0  0  0  0  0  1  0  0  0  0  0  0
  -14.9391   -4.6601  -22.0351 N   0  0  0  0  0  0  0  0  0  0  0  0
  -13.4721   -1.1432  -23.8818 O   0  0  0  0  0  0  0  0  0  0  0  0
  -14.4073   -3.1558  -23.5250 N   0  0  0  0  0  0  0  0  0  0  0  0
  -12.4578   -6.2121  -24.1725 C   0  0  0  0  0  0  0  0  0  0  0  0
  -12.9575   -7.5080  -23.4858 N   0  0  0  0  0  0  0  0  0  0  0  0
  -14.3475    0.1997  -24.8370 C   0  0  2  0  0  0  0  0  0  0  0  0
  -14.4321   -0.1595  -26.7501 O   0  0  0  0  0  0  0  0  0  0  0  0
  -16.0111    4.2914  -20.4333 O   0  0  0  0  0  0  0  0  0  0  0  0
  -17.1030    1.7278  -22.1983 P   0  0  0  0  0  0  0  0  0  0  0  0
  -17.6571    2.3255  -23.2672 O   0  0  0  0  0  0  0  0  0  0  0  0
  -12.5939   -5.0690  -24.5152 N   0  0  0  0  0  0  0  0  0  0  0  0
  -16.3749    2.2162  -21.0824 O   0  0  0  0  0  0  0  0  0  0  0  0
  -14.8008   -3.6758  -22.6558 C   0  0  0  0  0  0  0  0  0  0  0  0
  -14.9629    0.5003  -23.4201 C   0  0  1  0  0  0  0  0  0  0  0  0
  -15.7538   -1.8210  -26.3545 O   0  0  0  0  0  0  0  0  0  0  0  0
  3  2  1  0
  4  1  1  0
  7  5  1  0
 10  1  2  0
 11  5  1  0
 12  1  1  0
 13  3  1  0
  3 14  1  1
 15  9  1  0
 16 15  2  3
 17  2  1  0
 17 13  1  1
 18  2  1  0
 19  5  1  0
 20  6  1  0
 21 20  1  0
  4 22  1  1
 22 15  1  0
 23  5  1  0
 23 20  1  0
 24  4  1  0
 24 12  2  0
 24 14  1  0
 25  8  1  6
 25 17  1  0
 25 21  1  0
 26  2  1  0
M  RAD  2   5   2  11   2
M  END
>  <ID>  (1) 
conformer_0

$$$$
