
     RDKit          3D

 24 23  0  0  0  0  0  0  0  0999 V2000
  -15.0680   -0.3869  -25.0269 C   0  0  2  0  0  0  0  0  0  0  0  0
  -14.0276   -4.8674  -23.2953 C   0  0  0  0  0  0  0  0  0  0  0  0
  -15.0805   -1.5528  -24.8592 C   0  0  2  0  0  0  0  0  0  0  0  0
  -15.0181   -3.4786  -22.7206 C   0  0  0  0  0  0  0  0  0  0  0  0
  -15.1920    2.5406  -18.7360 O   0  0  0  0  0  0  0  0  0  0  0  0
  -12.9944   -7.4123  -23.5337 N   0  0  0  0  0  0  0  0  0  0  0  0
  -16.2873    3.1218  -19.8970 P   0  0  0  0  0  5  0  0  0  0  0  0
  -17.6229    0.6595  -21.4725 O   0  0  0  0  0  0  0  0  0  0  0  0
  -11.6792   -6.6681  -24.8311 N   0  0  0  0  0  0  0  0  0  0  0  0
  -15.1295   -4.2867  -22.0175 N   0  0  0  0  0  0  0  0  0  0  0  0
  -17.4587    2.8564  -19.5233 O   0  0  0  0  0  0  0  0  0  0  0  0
  -14.4075   -7.1696  -21.5790 O   0  0  0  0  0  0  0  0  0  0  0  0
  -14.7921   -2.9590  -23.5846 N   0  0  0  0  0  0  0  0  0  0  0  0
  -16.9119    2.7623  -22.9893 O   0  0  0  0  0  0  0  0  0  0  0  0
  -14.1238   -6.1214  -22.5010 C   0  0  0  0  0  0  0  0  0  0  0  0
  -13.6589   -1.2079  -24.1038 O   0  0  0  0  0  0  0  0  0  0  0  0
  -13.0885   -4.6783  -24.3978 N   0  0  0  0  0  0  0  0  0  0  0  0
  -15.1496   -0.3979  -26.6880 O   0  0  0  0  0  0  0  0  0  0  0  0
  -15.9359    4.6037  -20.1717 O   0  0  0  0  0  0  0  0  0  0  0  0
  -14.7191    0.5125  -23.9104 C   0  0  0  0  0  0  0  0  0  0  0  0
  -16.8609    1.7639  -22.0955 P   0  0  0  0  0  0  0  0  0  0  0  0
  -15.6931    0.7580  -22.8547 O   0  0  0  0  0  0  0  0  0  0  0  0
  -12.5459   -6.1882  -24.1727 C   0  0  0  0  0  0  0  0  0  0  0  0
  -15.8716    2.2941  -21.0746 O   0  0  0  0  0  0  0  0  0  0  0  0
  3  1  1  0
  4  2  1  0
  7  5  1  0
 10  4  2  3
 11  7  1  0
 13  3  1  0
 13  4  1  0
 14  7  1  0
 15  2  2  0
 15 12  2  0
  3 16  1  6
 17  2  1  0
  1 18  1  6
 19  7  1  0
 20  1  1  0
 21  8  1  0
 21 14  1  0
 22 20  1  0
 22 21  1  0
 23  6  2  3
 23  9  1  0
 23 17  1  0
 24  7  1  0
M  END
>  <ID>  (1) 
conformer_0

$$$$
