
     RDKit          3D

 25 27  0  0  0  0  0  0  0  0999 V2000
  -15.1894   -1.2069  -25.4988 C   0  0  0  0  0  0  0  0  0  0  0  0
  -12.6709   -6.0438  -24.1508 C   0  0  0  0  0  0  0  0  0  0  0  0
  -15.4746    0.0550  -24.6743 C   0  0  0  0  0  0  0  0  0  0  0  0
  -13.9707   -4.7391  -23.3267 C   0  0  0  0  0  3  0  0  0  0  0  0
  -17.5807    0.5083  -21.3448 O   0  0  0  0  0  0  0  0  0  0  0  0
  -16.3838    3.0033  -19.9944 P   0  0  0  0  0  5  0  0  0  0  0  0
  -14.1814   -7.3925  -21.6699 O   0  0  0  0  0  0  0  0  0  0  0  0
  -14.6302   -2.9910  -23.4533 N   0  0  0  0  0  0  0  0  0  0  0  0
  -15.0450   -4.5310  -21.9576 N   0  0  0  0  0  0  0  0  0  0  0  0
  -15.7405    1.0060  -22.9277 O   0  0  0  0  0  0  0  0  0  0  0  0
  -11.8593   -6.8114  -24.7601 N   0  0  0  0  0  0  0  0  0  0  0  0
  -17.5585    2.8392  -19.5090 O   0  0  0  0  0  0  0  0  0  0  0  0
  -15.2718    2.3542  -18.7005 O   0  0  0  0  0  0  0  0  0  0  0  0
  -13.8019   -1.0646  -23.6171 O   0  0  0  0  0  0  0  0  0  0  0  0
  -13.0876   -7.1959  -23.3766 N   0  0  0  0  0  0  0  0  0  0  0  0
  -14.6510    0.4383  -23.5103 C   0  0  0  0  0  0  0  0  0  0  0  0
  -14.0957   -6.0937  -22.4259 C   0  0  0  0  0  0  0  0  0  0  0  0
  -15.8314    4.3312  -20.4601 O   0  0  0  0  0  0  0  0  0  0  0  0
  -12.9777   -4.6866  -24.5326 N   0  0  0  0  0  0  0  0  0  0  0  0
  -14.8271   -0.6884  -26.6551 O   0  0  0  0  0  0  0  0  0  0  0  0
  -17.1908    2.9976  -22.4059 O   0  0  0  0  0  0  0  0  0  0  0  0
  -14.9090   -3.5552  -22.6144 C   0  0  0  0  0  0  0  0  0  0  0  0
  -15.7705    1.9923  -20.9599 O   0  0  0  0  0  0  0  0  0  0  0  0
  -16.8026    1.8205  -21.9068 P   0  0  0  0  0  0  0  0  0  0  0  0
  -14.4189   -1.7376  -24.6244 C   0  0  0  0  0  0  0  0  0  0  0  0
  3  1  1  0
 11  2  1  0
 12  6  1  0
 13  6  1  0
 15  2  2  0
 16  3  1  0
 16 10  1  0
 16 14  1  0
 17  4  1  0
 17  7  1  0
 17  9  1  0
 17 15  1  0
 18  6  1  0
 19  2  1  0
 19  4  1  0
 20  1  1  0
 21  6  1  0
 22  4  1  0
 22  8  1  0
 22  9  2  0
 23  6  1  0
 24  5  1  0
 24 10  1  0
 24 21  1  0
 25  1  1  0
 25  8  1  0
 25 14  1  0
M  RAD  1   4   2
M  END
>  <ID>  (1) 
conformer_0

$$$$
