
     RDKit          3D

 27 28  0  0  0  0  0  0  0  0999 V2000
  -14.5541   -2.3496  -24.6360 C   0  0  2  0  0  0  0  0  0  0  0  0
  -12.6358   -6.1152  -24.0713 C   0  0  2  0  0  0  0  0  0  0  0  0
  -14.2861    0.1909  -24.6122 C   0  0  0  0  0  0  0  0  0  0  0  0
  -13.9942   -4.8200  -23.3692 C   0  0  2  0  0  0  0  0  0  0  0  0
  -11.6718   -6.9461  -24.8070 N   0  0  0  0  0  0  0  0  0  0  0  0
  -16.9393    1.6366  -22.1666 P   0  0  0  0  0  0  0  0  0  0  0  0
  -17.7323    0.5823  -21.6388 O   0  0  0  0  0  0  0  0  0  0  0  0
  -15.0771    2.3792  -18.5636 O   0  0  0  0  0  0  0  0  0  0  0  0
  -13.4159   -1.2997  -24.0690 O   0  0  0  0  0  0  0  0  0  0  0  0
  -15.0917   -4.4190  -21.9605 N   0  0  0  0  0  0  0  0  0  0  0  0
  -14.6719   -3.3066  -23.6375 N   0  0  0  0  0  0  0  0  0  0  0  0
  -14.3327   -7.2159  -21.5317 O   0  0  0  0  0  0  0  0  0  0  0  0
  -14.6229    0.3727  -23.3974 C   0  0  0  0  0  0  0  0  0  0  0  0
  -17.4772    2.8372  -19.3284 O   0  0  0  0  0  0  0  0  0  0  0  0
  -15.6414    0.8515  -22.9769 O   0  0  0  0  0  0  0  0  0  0  0  0
  -13.0797   -7.2427  -23.2508 N   0  0  0  0  0  0  0  0  0  0  0  0
  -14.2885   -0.1693  -26.7959 O   0  0  0  0  0  0  0  0  0  0  0  0
  -14.1275   -6.0476  -22.3701 C   0  0  0  0  0  0  0  0  0  0  0  0
  -12.8241   -4.8963  -24.5496 N   0  0  0  0  0  0  0  0  0  0  0  0
  -16.2303    2.8955  -19.7515 P   0  0  0  0  0  5  0  0  0  0  0  0
  -17.3494    2.7976  -22.7608 O   0  0  0  0  0  0  0  0  0  0  0  0
  -15.8722    4.3539  -19.8755 O   0  0  0  0  0  0  0  0  0  0  0  0
  -15.9493    2.0857  -20.9639 O   0  0  0  0  0  0  0  0  0  0  0  0
  -15.1289   -2.4898  -26.6482 O   0  0  0  0  0  0  0  0  0  0  0  0
  -15.0358   -3.5829  -22.6505 C   0  0  0  0  0  0  0  0  0  0  0  0
  -14.6499   -1.2987  -25.7541 C   0  0  0  0  0  0  0  0  0  0  0  0
  -15.8946   -1.3035  -25.2100 C   0  0  0  0  0  0  0  0  0  0  0  0
  2  5  1  6
  7  6  1  0
  1  9  1  6
  9  3  1  0
 11  1  1  0
  4 11  1  1
 13  3  1  0
 15  6  1  0
 15 13  1  0
 16  2  1  0
 18  4  1  0
 18 12  2  0
 18 16  1  0
 19  2  1  0
 19  4  1  0
 20  8  1  0
 20 14  1  0
 21  6  1  0
 21 20  1  0
 22 20  1  0
 23 20  1  0
 25 10  2  3
 25 11  1  0
 26  1  1  0
 26 17  1  0
 26 24  1  0
 27  1  1  0
 27 26  1  0
M  END
>  <ID>  (1) 
conformer_0

$$$$
