
     RDKit          3D

 28 31  0  0  0  0  0  0  0  0999 V2000
  -12.5647   -6.1614  -24.1822 C   0  0  0  0  0  0  0  0  0  0  0  0
  -14.2153   -0.8548  -25.1740 C   0  0  0  0  0  0  0  0  0  0  0  0
  -14.5678   -2.3310  -24.4749 C   0  0  0  0  0  0  0  0  0  0  0  0
  -14.9782   -3.8425  -22.7604 C   0  0  0  0  0  0  0  0  0  0  0  0
  -15.1805    2.4670  -18.6857 O   0  0  0  0  0  0  0  0  0  0  0  0
  -16.1950    3.0672  -19.8375 P   0  0  0  0  0  5  0  0  0  0  0  0
  -17.4713    0.5668  -21.4249 O   0  0  0  0  0  0  0  0  0  0  0  0
  -11.5410   -7.2136  -25.0136 N   0  0  0  0  0  0  0  0  0  0  0  0
  -17.5226    2.7972  -19.4942 O   0  0  0  0  0  0  0  0  0  0  0  0
  -14.6543   -3.2592  -23.6401 N   0  0  0  0  0  0  0  0  0  0  0  0
  -14.2608   -7.4137  -21.5506 O   0  0  0  0  0  0  0  0  0  0  0  0
  -14.0288   -6.2864  -22.4230 C   0  0  0  0  0  0  0  0  0  0  0  0
  -15.0709   -4.7429  -21.9895 N   0  0  0  0  0  0  0  0  0  0  0  0
  -13.0569   -7.4969  -23.3461 N   0  0  0  0  0  2  0  0  0  0  0  0
  -14.4739    0.6388  -23.6617 C   0  0  0  0  0  0  0  0  0  0  0  0
  -15.8258    0.9560  -23.1960 O   0  0  0  0  0  0  0  0  0  0  0  0
  -13.7887   -1.3262  -23.8436 O   0  0  0  0  0  0  0  0  0  0  0  0
  -14.2963   -1.1976  -26.7755 O   0  0  0  0  0  0  0  0  0  0  0  0
  -15.9600    4.5448  -20.0489 O   0  0  0  0  0  0  0  0  0  0  0  0
  -16.6019   -2.0890  -25.9827 O   0  0  0  0  0  0  0  0  0  0  0  0
  -16.8234    1.6492  -22.1820 P   0  0  0  0  0  0  0  0  0  0  0  0
  -17.6119    2.3802  -23.0216 O   0  0  0  0  0  0  0  0  0  0  0  0
  -15.8193    2.3396  -21.2736 O   0  0  0  0  0  0  0  0  0  0  0  0
  -12.9788   -4.6014  -24.4971 N   0  0  0  0  0  0  0  0  0  0  0  0
  -13.9126   -5.0007  -23.2725 C   0  0  0  0  0  0  0  0  0  0  0  0
  -15.5373    0.3049  -24.7754 C   0  0  0  0  0  0  0  0  0  0  0  0
  -15.7695   -1.4053  -25.4503 C   0  0  0  0  0  0  0  0  0  0  0  0
  -12.3908   -5.6649  -24.4656 N   0  0  0  0  0  0  0  0  0  0  0  0
  3  2  1  0
  6  5  1  0
  8  1  1  0
  9  6  1  0
 10  3  1  0
 10  4  1  0
 12 11  1  0
 13  4  2  0
 13 12  1  0
 14  1  1  0
 14 12  1  0
 16 15  1  0
 17  2  1  0
 17  3  1  0
 18  2  1  0
 19  6  1  0
 21  7  1  0
 21 16  1  0
 22  6  1  0
 22 21  1  0
 23  6  1  0
 25  4  1  0
 25 12  1  0
 25 24  2  0
 26 15  1  0
 27  2  1  0
 27  3  1  0
 27 20  1  0
 27 26  1  0
 28  1  1  0
 28 24  1  0
M  RAD  1  14   2
M  END
>  <ID>  (1) 
conformer_0

$$$$
