
     RDKit          3D

 28 30  0  0  0  0  0  0  0  0999 V2000
  -14.2409   -2.2467  -24.4515 C   0  0  0  0  0  0  0  0  0  0  0  0
  -12.2794   -6.3180  -24.5054 C   0  0  0  0  0  0  0  0  0  0  0  0
  -15.6393   -1.7065  -25.2614 C   0  0  0  0  0  0  0  0  0  0  0  0
  -13.6220   -4.7918  -23.8674 C   0  0  0  0  0  0  0  0  0  0  0  0
  -16.9985    1.8327  -22.2443 P   0  0  0  0  0  0  0  0  0  0  0  0
  -17.6910    0.6650  -21.6202 O   0  0  0  0  0  0  0  0  0  0  0  0
  -12.8882   -7.3527  -23.6611 N   0  0  0  0  0  0  0  0  0  0  0  0
  -14.1306   -7.4070  -21.7312 O   0  0  0  0  0  0  0  0  0  0  0  0
  -15.8258    2.4542  -21.2420 O   0  0  0  0  0  0  0  0  0  0  0  0
  -11.6940   -6.6189  -25.1044 N   0  0  0  0  0  0  0  0  0  0  0  0
  -17.4101    2.6924  -19.5803 O   0  0  0  0  0  0  0  0  0  0  0  0
  -15.1760    2.3341  -18.8245 O   0  0  0  0  0  0  0  0  0  0  0  0
  -13.7571   -1.1842  -23.8248 O   0  0  0  0  0  0  0  0  0  0  0  0
  -14.3140   -5.2511  -22.5515 C   0  0  0  0  0  0  0  0  0  0  0  0
  -14.9324   -4.6597  -22.0585 N   0  0  0  0  0  0  0  0  0  0  0  0
  -14.4943   -3.2953  -23.6239 N   0  0  0  0  0  0  0  0  0  0  0  0
  -14.5346   -0.3678  -26.6227 O   0  0  0  0  0  0  0  0  0  0  0  0
  -15.7781    0.1933  -24.3068 C   0  0  0  0  0  0  0  0  0  0  0  0
  -16.1129    2.9300  -19.8712 P   0  0  0  0  0  5  0  0  0  0  0  0
  -15.9176    4.3242  -19.7812 O   0  0  0  0  0  0  0  0  0  0  0  0
  -17.3712    3.0128  -22.9440 O   0  0  0  0  0  0  0  0  0  0  0  0
  -12.9520   -4.7824  -24.5269 N   0  0  0  0  0  0  0  0  0  0  0  0
  -15.8638    1.0443  -22.9490 O   0  0  0  0  0  0  0  0  0  0  0  0
  -15.0855   -3.3675  -22.7381 C   0  0  0  0  0  0  0  0  0  0  0  0
  -16.2176   -1.7827  -26.0482 O   0  0  0  0  0  0  0  0  0  0  0  0
  -14.6129    0.7182  -23.4544 C   0  0  0  0  0  0  0  0  0  0  0  0
  -14.5338   -0.5803  -25.2064 C   0  0  0  0  0  0  0  0  0  0  0  0
  -13.7691   -6.7079  -22.6915 C   0  0  0  0  0  0  0  0  0  0  0  0
  3  1  1  0
  6  5  1  0
  7  2  1  0
 10  2  1  0
 13  1  1  0
 14  4  2  0
 15 14  1  0
 16  1  1  0
 16  4  1  0
 19  9  1  0
 19 11  1  0
 19 12  1  0
 20 19  1  0
 21  5  1  0
 21 19  1  0
 22  2  1  0
 22  4  1  0
 23  5  1  0
 24 15  2  0
 24 16  1  0
 25  3  1  0
 26 18  1  0
 26 23  1  0
 27  3  1  0
 27 13  1  0
 27 17  1  0
 27 18  1  0
 28  7  1  0
 28  8  2  0
 28 14  1  0
M  END
>  <ID>  (1) 
conformer_0

$$$$
