
     RDKit          3D

 28 31  0  0  0  0  0  0  0  0999 V2000
  -14.0329   -0.0601  -24.5233 C   0  0  0  0  0  0  0  0  0  0  0  0
  -12.3108   -6.3499  -24.5576 C   0  0  0  0  0  0  0  0  0  0  0  0
  -14.4069   -2.1777  -24.7153 C   0  0  0  0  0  0  0  0  0  0  0  0
  -14.2939   -4.4293  -23.4547 C   0  0  0  0  0  0  0  0  0  0  0  0
  -16.9395    2.7956  -22.6019 O   0  0  0  0  0  0  0  0  0  0  0  0
  -12.9545   -7.2175  -23.5003 N   0  0  0  0  0  0  0  0  0  0  0  0
  -16.3651    3.1291  -19.7471 P   0  0  0  0  0  5  0  0  0  0  0  0
  -15.1936    2.4512  -18.5899 O   0  0  0  0  0  0  0  0  0  0  0  0
  -17.4965    0.5251  -21.4108 O   0  0  0  0  0  0  0  0  0  0  0  0
  -14.6592   -3.3222  -23.7094 N   0  0  0  0  0  0  0  0  0  0  0  0
  -17.6030    2.8626  -19.3590 O   0  0  0  0  0  0  0  0  0  0  0  0
  -13.5381   -1.2246  -23.8366 O   0  0  0  0  0  0  0  0  0  0  0  0
  -14.2683   -7.2657  -21.5863 O   0  0  0  0  0  0  0  0  0  0  0  0
  -11.6478   -7.0205  -25.1698 N   0  0  0  0  0  0  0  0  0  0  0  0
  -15.0554   -4.6038  -22.0797 N   0  0  0  0  0  0  0  0  0  0  0  0
  -14.6483    0.6378  -23.2736 C   0  0  0  0  0  0  0  0  0  0  0  0
  -14.0871   -6.3579  -22.3196 C   0  0  0  0  0  0  0  0  0  0  0  0
  -16.0875    4.6727  -19.7110 O   0  0  0  0  0  0  0  0  0  0  0  0
  -14.4612   -0.4516  -26.7507 O   0  0  0  0  0  0  0  0  0  0  0  0
  -15.5113    0.7772  -22.7386 O   0  0  0  0  0  0  0  0  0  0  0  0
  -16.7241    1.6627  -21.9674 P   0  0  0  0  0  0  0  0  0  0  0  0
  -16.2816   -1.9441  -26.2849 O   0  0  0  0  0  0  0  0  0  0  0  0
  -13.5669   -5.5027  -23.4399 C   0  0  0  0  0  0  0  0  0  0  0  0
  -12.6937   -5.1701  -24.6397 N   0  0  0  0  0  0  0  0  0  0  0  0
  -15.8601    2.3808  -20.8361 O   0  0  0  0  0  0  0  0  0  0  0  0
  -15.4015   -1.8001  -25.6238 C   0  0  0  0  0  0  0  0  0  0  0  0
  -15.5388   -0.3938  -25.1562 C   0  0  0  0  0  0  0  0  0  0  0  0
  -15.2896   -3.4115  -22.5468 C   0  0  0  0  0  0  0  0  0  0  0  0
  6  2  1  0
  7  5  1  0
  8  7  1  0
 10  3  1  0
 10  4  1  0
 11  7  1  0
 12  1  1  0
 12  3  1  0
 14  2  1  0
 15  4  2  0
 16  1  1  0
 17  6  1  0
 17 13  2  0
 18  7  1  0
 20 16  1  0
 21  5  1  0
 21  9  1  0
 21 20  1  0
 23  4  1  0
 23  6  1  0
 23 17  1  0
 24  2  1  0
 24 23  1  0
 25  7  1  0
 26  3  1  0
 26 22  1  0
 27  1  1  0
 27 19  1  0
 27 26  1  0
 28 10  1  0
 28 15  1  0
M  END
>  <ID>  (1) 
conformer_0

$$$$
