
     RDKit          3D

 28 30  0  0  0  0  0  0  0  0999 V2000
  -15.1992   -0.4983  -25.3720 C   0  0  0  0  0  0  0  0  0  0  0  0
  -14.3633   -0.2300  -24.0695 C   0  0  0  0  0  0  0  0  0  0  0  0
  -13.5436   -4.9416  -24.1158 C   0  0  0  0  0  0  0  0  0  0  0  0
  -12.3168   -6.5589  -24.4704 C   0  0  0  0  0  0  0  0  0  0  0  0
  -15.1535    2.5105  -18.6698 O   0  0  0  0  0  0  0  0  0  0  0  0
  -17.5028    0.6237  -21.4250 O   0  0  0  0  0  0  0  0  0  0  0  0
  -14.9226   -4.7793  -22.2022 N   0  0  0  0  0  0  0  0  0  0  0  0
  -13.6112   -1.4766  -24.0351 O   0  0  0  0  0  0  0  0  0  0  0  0
  -16.7916    1.7899  -22.0546 P   0  0  0  0  0  0  0  0  0  0  0  0
  -11.7261   -7.1927  -25.0729 N   0  0  0  0  0  0  0  0  0  0  0  0
  -14.2734   -7.3122  -21.5553 O   0  0  0  0  0  0  0  0  0  0  0  0
  -14.3998   -3.5933  -24.0198 N   0  0  0  0  0  0  0  0  0  0  0  0
  -17.5232    2.7448  -19.4962 O   0  0  0  0  0  0  0  0  0  0  0  0
  -14.7882    0.9176  -23.6968 C   0  0  0  0  0  0  0  0  0  0  0  0
  -15.5895    1.0515  -22.8882 O   0  0  0  0  0  0  0  0  0  0  0  0
  -13.0948   -7.5334  -23.3892 N   0  0  0  0  0  0  0  0  0  0  0  0
  -13.8814   -6.7026  -22.5176 C   0  0  0  0  0  0  0  0  0  0  0  0
  -16.4077   -2.2221  -26.0907 O   0  0  0  0  0  0  0  0  0  0  0  0
  -16.1216    4.5989  -19.7704 O   0  0  0  0  0  0  0  0  0  0  0  0
  -14.8272   -0.3609  -26.6595 O   0  0  0  0  0  0  0  0  0  0  0  0
  -17.2254    2.8726  -22.8445 O   0  0  0  0  0  0  0  0  0  0  0  0
  -16.2265    2.9886  -19.6978 P   0  0  0  0  0  5  0  0  0  0  0  0
  -15.7751    2.3952  -21.0127 O   0  0  0  0  0  0  0  0  0  0  0  0
  -12.6050   -5.4074  -24.5935 N   0  0  0  0  0  0  0  0  0  0  0  0
  -14.3028   -2.5725  -24.8779 C   0  0  0  0  0  0  0  0  0  0  0  0
  -14.1917   -5.3890  -22.9428 C   0  0  0  0  0  0  0  0  0  0  0  0
  -15.0313   -3.6851  -22.7609 C   0  0  0  0  0  0  0  0  0  0  0  0
  -15.5725   -2.0015  -25.2728 C   0  0  0  0  0  0  0  0  0  0  0  0
  2  1  1  0
  8  2  1  0
  9  6  1  0
 10  4  1  0
 12  3  1  0
 14  2  1  0
 15  9  1  0
 15 14  1  0
 16  4  2  0
 17 11  2  0
 17 16  1  0
 20  1  1  0
 21  9  1  0
 22  5  1  0
 22 13  1  0
 22 19  1  0
 22 21  1  0
 23 22  1  0
 24  3  1  0
 24  4  1  0
 25  8  1  0
 25 12  1  0
 26  3  2  0
 26  7  1  0
 26 17  1  0
 27  7  2  0
 27 12  1  0
 28  1  1  0
 28 18  1  0
 28 25  1  0
M  END
>  <ID>  (1) 
conformer_0

$$$$
