
     RDKit          3D

 27 28  0  0  0  0  0  0  0  0999 V2000
  -14.5762   -2.0636  -24.7344 C   0  0  2  0  0  0  0  0  0  0  0  0
  -12.7816   -6.0818  -24.1096 C   0  0  0  0  0  0  0  0  0  0  0  0
  -15.2266   -1.2330  -25.3680 C   0  0  0  0  0  0  0  0  0  0  0  0
  -14.0879   -4.7557  -23.2722 C   0  0  0  0  0  0  0  0  0  0  0  0
  -15.1824    2.4558  -18.6277 O   0  0  0  0  0  1  0  0  0  0  0  0
  -16.3504    2.8382  -19.9152 P   0  0  0  0  0  4  0  0  0  0  0  0
  -17.5531    0.6180  -21.3538 O   0  0  0  0  0  0  0  0  0  0  0  0
  -13.1708   -7.2553  -23.3487 N   0  0  0  0  0  0  0  0  0  0  0  0
  -14.6519   -3.1738  -23.6072 N   0  0  0  0  0  0  0  0  0  0  0  0
  -11.9606   -6.9506  -24.9066 N   0  0  0  0  0  0  0  0  0  0  0  0
  -14.1874   -7.4191  -21.6213 O   0  0  0  0  0  0  0  0  0  0  0  0
  -15.1532   -4.5344  -21.9569 N   0  0  0  0  0  0  0  0  0  0  0  0
  -17.5295    2.7598  -19.4830 O   0  0  0  0  0  0  0  0  0  0  0  0
  -13.4797   -1.2244  -24.0524 O   0  0  0  0  0  0  0  0  0  0  0  0
  -14.5410   -0.0006  -24.9230 C   0  0  2  0  0  0  0  0  0  0  0  0
  -16.5424    3.1852  -22.5407 O   0  0  0  0  0  0  0  0  0  0  0  0
  -15.9113    4.4593  -19.9659 O   0  0  0  0  0  0  0  0  0  0  0  0
  -14.1822   -6.1258  -22.3571 C   0  0  0  0  0  0  0  0  0  0  0  0
  -15.2665   -1.9105  -26.6275 O   0  0  0  0  0  0  0  0  0  0  0  0
  -12.7949   -4.8049  -24.5391 N   0  0  0  0  0  0  0  0  0  0  0  0
  -16.7749    1.8314  -22.5258 P   0  0  0  0  0  5  0  0  0  0  0  0
  -15.7885    2.1224  -20.8389 O   0  0  0  0  0  0  0  0  0  0  0  0
  -15.5384    1.0302  -23.2022 O   0  0  0  0  0  0  0  0  0  0  0  0
  -15.1216   -3.5922  -22.6310 C   0  0  0  0  0  0  0  0  0  0  0  0
  -15.4169    0.0986  -26.5657 O   0  0  0  0  0  0  0  0  0  0  0  0
  -14.5263    0.4888  -23.5458 C   0  0  0  0  0  0  0  0  0  0  0  0
  -17.6335    1.8202  -23.5687 O   0  0  0  0  0  0  0  0  0  0  0  0
  3  1  1  0
  6  5  1  0
  8  2  1  0
  1  9  1  1
 10  2  2  3
 13  6  1  0
 14  1  1  0
 15  3  1  0
 15 14  1  0
 17  6  1  0
 18  4  1  0
 18  8  1  0
 18 11  1  0
 18 12  1  0
 19  3  1  0
 20  2  1  0
 21  7  1  0
 22  6  1  0
 22 21  1  0
 23 21  1  0
 24  4  1  0
 24  9  1  0
 24 12  2  0
 25  3  1  0
 15 26  1  1
 26 23  1  0
 27 16  1  0
 27 21  1  0
M  RAD  2   5   2   6   2
M  END
>  <ID>  (1) 
conformer_0

$$$$
