
     RDKit          3D

 29 32  0  0  0  0  0  0  0  0999 V2000
  -11.8986   -6.3914  -24.7110 C   0  0  0  0  0  0  0  0  0  0  0  0
  -14.4516   -1.4386  -25.4389 C   0  0  0  0  0  0  0  0  0  0  0  0
  -15.8564   -0.8473  -25.1858 C   0  0  0  0  0  0  0  0  0  0  0  0
  -13.2535   -6.0814  -23.4376 C   0  0  0  0  0  0  0  0  0  0  0  0
  -16.2881    3.1496  -19.9944 P   0  0  0  0  0  5  0  0  0  0  0  0
  -12.8010   -7.0489  -23.5216 N   0  0  0  0  0  0  0  0  0  0  0  0
  -15.9593    2.1966  -20.8702 O   0  0  0  0  0  0  0  0  0  0  0  0
  -14.5728   -3.4146  -23.7741 N   0  0  0  0  0  0  0  0  0  0  0  0
  -14.0273   -6.6913  -22.1390 C   0  0  0  0  0  0  0  0  0  0  0  0
  -15.2295    2.5508  -18.7721 O   0  0  0  0  0  0  0  0  0  0  0  0
  -17.7155    0.4174  -21.5232 O   0  0  0  0  0  0  0  0  0  0  0  0
  -14.2566   -7.5062  -21.6361 O   0  0  0  0  0  0  0  0  0  0  0  0
  -13.6152   -1.3089  -24.0538 O   0  0  0  0  0  0  0  0  0  0  0  0
  -14.4546    0.2180  -24.6661 C   0  0  0  0  0  0  0  0  0  0  0  0
  -15.1180   -4.6621  -22.0277 N   0  0  0  0  0  0  0  0  0  0  0  0
  -15.9736    4.6693  -19.9904 O   0  0  0  0  0  0  0  0  0  0  0  0
  -11.3059   -6.6204  -25.0181 N   0  0  0  0  0  0  0  0  0  0  0  0
  -14.1937   -0.2821  -26.7263 O   0  0  0  0  0  0  0  0  0  0  0  0
  -16.9074    1.3784  -21.9876 P   0  0  0  0  0  0  0  0  0  0  0  0
  -17.5404    2.9837  -19.5730 O   0  0  0  0  0  0  0  0  0  0  0  0
  -13.6848   -4.5213  -23.8934 C   0  0  0  0  0  0  0  0  0  0  0  0
  -15.8580    0.4517  -22.8816 O   0  0  0  0  0  0  0  0  0  0  0  0
  -15.8800   -2.0420  -26.2822 O   0  0  0  0  0  0  0  0  0  0  0  0
  -14.8230    0.6281  -23.3097 C   0  0  0  0  0  0  0  0  0  0  0  0
  -12.6991   -4.9734  -24.6753 N   0  0  0  0  0  0  0  0  0  0  0  0
  -16.6211    2.5022  -22.7655 O   0  0  0  0  0  0  0  0  0  0  0  0
  -14.6479   -4.9263  -22.6366 C   0  0  0  0  0  3  0  0  0  0  0  0
  -15.2771   -3.1975  -22.6291 C   0  0  0  0  0  0  0  0  0  0  0  0
  -14.8108   -2.5473  -24.8247 C   0  0  0  0  0  0  0  0  0  0  0  0
  3  2  1  0
  6  1  1  0
  6  4  2  0
  7  5  1  0
  9  4  1  0
 10  5  1  0
 12  9  2  0
 13  2  1  0
 14  3  1  0
 14 13  1  0
 16  5  1  0
 17  1  1  0
 18  2  1  0
 19 11  1  0
 20  5  1  0
 21  4  1  0
 21  8  1  0
 22 19  1  0
 23  3  1  0
 24 14  1  0
 24 22  1  0
 25  1  1  0
 25 21  1  0
 26  5  1  0
 26 19  1  0
 27  9  1  0
 27 15  1  0
 27 21  1  0
 28  8  1  0
 28 15  2  0
 29  2  1  0
 29  8  1  0
M  RAD  1  27   2
M  END
>  <ID>  (1) 
conformer_0

$$$$
