
     RDKit          3D

 29 31  0  0  0  0  0  0  0  0999 V2000
  -15.5364   -1.2173  -25.3916 C   0  0  0  0  0  0  0  0  0  0  0  0
  -12.3155   -6.2565  -24.4461 C   0  0  0  0  0  0  0  0  0  0  0  0
  -14.0251   -1.1094  -24.6520 C   0  0  0  0  0  0  0  0  0  0  0  0
  -15.1765   -3.0972  -22.5315 C   0  0  0  0  0  0  0  0  0  0  0  0
  -16.4554    3.0448  -19.7813 P   0  0  0  0  0  4  0  0  0  0  0  0
  -15.3042    2.4275  -18.6976 O   0  0  0  0  0  1  0  0  0  0  0  0
  -17.6436    0.5964  -21.7594 O   0  0  0  0  0  0  0  0  0  0  0  0
  -11.7805   -6.7575  -24.9777 N   0  0  0  0  0  0  0  0  0  0  0  0
  -17.6665    2.9036  -19.4427 O   0  0  0  0  0  0  0  0  0  0  0  0
  -14.3470   -7.3277  -21.6757 O   0  0  0  0  0  0  0  0  0  0  0  0
  -13.4642   -1.1344  -23.7082 O   0  0  0  0  0  0  0  0  0  0  0  0
  -15.1730   -4.5198  -22.0172 N   0  0  0  0  0  0  0  0  0  0  0  0
  -15.2036    0.4126  -22.6918 O   0  0  0  0  0  0  0  0  0  0  0  0
  -14.5715   -3.1532  -23.4724 N   0  0  0  0  0  0  0  0  0  0  0  0
  -13.8836   -6.5643  -22.5661 C   0  0  0  0  0  0  0  0  0  0  0  0
  -14.6428    0.8151  -23.3916 C   0  0  0  0  0  0  0  0  0  0  0  0
  -12.9510   -7.1859  -23.4900 N   0  0  0  0  0  0  0  0  0  0  0  0
  -16.8917    1.5239  -22.1253 P   0  0  0  0  0  5  0  0  0  0  0  0
  -16.0036    4.4366  -19.9110 O   0  0  0  0  0  0  0  0  0  0  0  0
  -16.4189   -1.9184  -25.8722 O   0  0  0  0  0  0  0  0  0  0  0  0
  -12.9219   -4.8926  -24.3350 N   0  0  0  0  0  0  0  0  0  0  0  0
  -17.5480    3.1523  -22.1667 O   0  0  0  0  0  0  0  0  0  0  0  0
  -15.9218    2.0346  -20.9544 O   0  0  0  0  0  0  0  0  0  0  0  0
  -14.3165   -1.2618  -26.6049 O   0  0  0  0  0  0  0  0  0  0  0  0
  -13.6663   -4.7192  -23.6673 C   0  0  0  0  0  0  0  0  0  0  0  0
  -15.2369    0.5662  -24.7875 C   0  0  0  0  0  0  0  0  0  0  0  0
  -16.7240    1.7336  -23.4870 O   0  0  0  0  0  0  0  0  0  0  0  0
  -14.6843   -2.4101  -24.7091 C   0  0  0  0  0  0  0  0  0  0  0  0
  -14.6668   -5.0318  -22.4135 C   0  0  0  0  0  0  0  0  0  0  0  0
  3  1  1  0
  6  5  1  0
  8  2  1  0
  9  5  1  0
 11  3  1  0
 12  4  2  0
 14  4  1  0
 15 10  2  0
 16 13  1  0
 17  2  2  0
 17 15  1  0
 18  7  1  0
 18 13  1  0
 19  5  1  0
 20  1  1  0
 21  2  1  0
 23  5  1  0
 23 18  1  0
 24  1  1  0
 25 14  1  0
 25 21  1  0
 26  3  1  0
 26 16  1  0
 27 18  1  0
 27 22  1  0
 28  1  1  0
 28  3  1  0
 28 14  1  0
 29 12  1  0
 29 15  1  0
 29 25  2  0
M  RAD  2   5   2   6   2
M  END
>  <ID>  (1) 
conformer_0

$$$$
