
     RDKit          3D

 28 30  0  0  0  0  0  0  0  0999 V2000
  -14.3752   -0.1123  -23.8321 C   0  0  2  0  0  0  0  0  0  0  0  0
  -12.2947   -6.4386  -24.4859 C   0  0  2  0  0  0  0  0  0  0  0  0
  -15.6436   -0.4308  -24.9406 C   0  0  2  0  0  0  0  0  0  0  0  0
  -13.4929   -5.6993  -23.2961 C   0  0  1  0  0  0  0  0  0  0  0  0
  -16.1097    3.1265  -19.8097 P   0  0  0  0  0  5  0  0  0  0  0  0
  -17.6386    0.5488  -21.4123 O   0  0  0  0  0  0  0  0  0  0  0  0
  -15.7968    0.9306  -22.6456 O   0  0  0  0  0  0  0  0  0  0  0  0
  -14.4587   -3.4750  -23.7387 N   0  0  0  0  0  0  0  0  0  0  0  0
  -13.5537   -1.3029  -24.0398 O   0  0  0  0  0  0  0  0  0  0  0  0
  -15.1384    2.5096  -18.6385 O   0  0  0  0  0  0  0  0  0  0  0  0
  -14.0748   -7.4255  -21.6304 O   0  0  0  0  0  0  0  0  0  0  0  0
  -11.7540   -7.2190  -24.8086 N   0  0  0  0  0  0  0  0  0  0  0  0
  -17.4749    2.7773  -19.5649 O   0  0  0  0  0  0  0  0  0  0  0  0
  -15.1756   -1.7288  -25.2749 C   0  0  2  0  0  0  0  0  0  0  0  0
  -14.8725   -4.6775  -22.0774 N   0  0  0  0  0  0  0  0  0  0  0  0
  -14.0175   -6.4525  -22.1892 C   0  0  0  0  0  0  0  0  0  0  0  0
  -12.9630   -7.3191  -23.4109 N   0  0  0  0  0  0  0  0  0  0  0  0
  -15.8602    4.5930  -19.9920 O   0  0  0  0  0  0  0  0  0  0  0  0
  -16.2525   -0.8399  -25.9942 O   0  0  0  0  0  0  0  0  0  0  0  0
  -17.3093    3.1358  -22.2880 O   0  0  0  0  0  0  0  0  0  0  0  0
  -14.0111   -4.5262  -23.5726 C   0  0  0  0  0  0  0  0  0  0  0  0
  -16.9026    1.7321  -21.6347 P   0  0  0  0  0  0  0  0  0  0  0  0
  -14.3243   -2.4165  -24.7022 C   0  0  2  0  0  0  0  0  0  0  0  0
  -12.6742   -5.3310  -24.6772 N   0  0  0  0  0  0  0  0  0  0  0  0
  -15.7511    2.2188  -20.8709 O   0  0  0  0  0  0  0  0  0  0  0  0
  -14.8994   -2.6204  -26.5971 O   0  0  0  0  0  0  0  0  0  0  0  0
  -15.0992    0.9956  -23.4963 C   0  0  0  0  0  0  0  0  0  0  0  0
  -15.0255   -3.6090  -22.4459 C   0  0  0  0  0  0  0  0  0  0  0  0
  3  1  1  0
  9  1  1  0
 10  5  1  0
  2 12  1  6
 13  5  1  0
 14  3  1  0
 16  4  1  0
 16 11  2  0
 17  2  1  0
 17  4  1  0
 17 16  1  0
 18  5  1  0
  3 19  1  6
 20  5  1  0
  4 21  1  6
 21  8  1  0
 22  6  1  0
 22  7  1  0
 23  8  1  1
 23  9  1  0
 23 14  1  0
 24  2  1  0
 24  4  1  0
 25  5  1  0
 25 22  1  0
 14 26  1  6
  1 27  1  1
 27  7  1  0
 28  8  1  0
 28 15  2  3
M  END
>  <ID>  (1) 
conformer_0

$$$$
