
     RDKit          3D

 27 29  0  0  0  0  0  0  0  0999 V2000
  -15.6255    0.2671  -24.1412 C   0  0  0  0  0  0  0  0  0  0  0  0
  -13.9103   -6.5450  -22.4571 C   0  0  0  0  0  0  0  0  0  0  0  0
  -15.6260   -1.3199  -25.4916 C   0  0  0  0  0  0  0  0  0  0  0  0
  -14.4670   -5.0861  -22.5930 C   0  0  0  0  0  0  0  0  0  0  0  0
  -13.1580   -7.3389  -23.3548 N   0  0  0  0  0  0  0  0  0  0  0  0
  -17.6738    0.5786  -21.4074 O   0  0  0  0  0  0  0  0  0  0  0  0
  -15.2119    2.4552  -18.6474 O   0  0  0  0  0  0  0  0  0  0  0  0
  -16.8784    1.8038  -22.1058 P   0  0  0  0  0  0  0  0  0  0  0  0
  -15.1427   -4.4452  -21.9459 N   0  0  0  0  0  0  0  0  0  0  0  0
  -11.8611   -7.0717  -25.0490 N   0  0  0  0  0  0  0  0  0  0  0  0
  -14.6367   -3.0547  -23.4472 N   0  0  0  0  0  0  0  0  0  0  0  0
  -13.6331   -1.2621  -23.9789 O   0  0  0  0  0  0  0  0  0  0  0  0
  -17.5947    2.9750  -19.3844 O   0  0  0  0  0  0  0  0  0  0  0  0
  -15.9283    0.9560  -22.9849 O   0  0  0  0  0  0  0  0  0  0  0  0
  -14.4046   -7.2684  -21.5420 O   0  0  0  0  0  0  0  0  0  0  0  0
  -12.4992   -6.3957  -24.3329 C   0  0  0  0  0  0  0  0  0  0  0  0
  -14.3809    0.7466  -23.3420 C   0  0  0  0  0  0  0  0  0  0  0  0
  -15.4773   -0.5900  -26.6074 O   0  0  0  0  0  0  0  0  0  0  0  0
  -15.9268    4.4795  -20.0394 O   0  0  0  0  0  0  0  0  0  0  0  0
  -16.3357    2.9869  -19.7200 P   0  0  0  0  0  5  0  0  0  0  0  0
  -15.9975    2.2351  -20.9496 O   0  0  0  0  0  0  0  0  0  0  0  0
  -17.2989    2.7200  -22.8539 O   0  0  0  0  0  0  0  0  0  0  0  0
  -12.9833   -5.2051  -24.5032 N   0  0  0  0  0  0  0  0  0  0  0  0
  -15.1013   -3.1098  -22.5399 C   0  0  0  0  0  0  0  0  0  0  0  0
  -14.4832   -1.9692  -24.4111 C   0  0  0  0  0  0  0  0  0  0  0  0
  -13.7146   -4.6994  -23.6786 C   0  0  0  0  0  0  0  0  0  0  0  0
  -14.4992   -0.2110  -25.1704 C   0  0  0  0  0  0  0  0  0  0  0  0
  4  2  1  0
  5  2  1  0
  8  6  1  0
  9  4  1  0
 14  1  1  0
 14  8  1  0
 15  2  2  0
 16  5  1  0
 16 10  1  0
 17  1  1  0
 18  3  1  0
 20  7  1  0
 20 13  1  0
 20 19  1  0
 21 20  1  0
 22  8  1  0
 22 20  1  0
 23 16  1  0
 24  9  2  0
 24 11  1  0
 25  3  1  0
 25 11  1  0
 25 12  1  0
 26  4  2  0
 26 11  1  0
 26 23  1  0
 27  1  1  0
 27  3  1  0
 27 12  1  0
M  END
>  <ID>  (1) 
conformer_0

$$$$
