
     RDKit          3D

 24 24  0  0  0  0  0  0  0  0999 V2000
  -12.5010   -6.1516  -24.2508 C   0  0  0  0  0  0  0  0  0  0  0  0
  -14.5349   -2.0662  -24.9280 C   0  0  0  0  0  0  0  0  0  0  0  0
  -15.1223   -1.3027  -25.2171 C   0  0  1  0  0  0  0  0  0  0  0  0
  -13.9862   -4.8799  -23.3507 C   0  0  2  0  0  0  0  0  0  0  0  0
  -12.8879   -7.0474  -23.4973 N   0  0  0  0  0  0  0  0  0  0  0  0
  -17.5612    0.5286  -21.4862 O   0  0  0  0  0  0  0  0  0  0  0  0
  -16.5127    3.1018  -19.9638 P   0  0  0  0  0  4  0  0  0  0  0  0
  -15.6984    1.1944  -22.4795 O   0  0  0  0  0  0  0  0  0  0  0  0
  -15.1126   -4.4228  -22.0577 N   0  0  0  0  0  0  0  0  0  0  0  0
  -11.5401   -6.8387  -25.0023 N   0  0  0  0  0  0  0  0  0  0  0  0
  -17.5836    2.9171  -19.3169 O   0  0  0  0  0  0  0  0  0  0  0  0
  -14.6372   -3.2016  -23.6538 N   0  0  0  0  0  0  0  0  0  0  0  0
  -14.3331   -7.3968  -21.6824 O   0  0  0  0  0  0  0  0  0  0  0  0
  -13.6893   -0.8909  -23.5840 O   0  0  0  0  0  0  0  0  0  0  0  0
  -14.7457    0.1023  -24.4912 C   0  0  2  0  0  0  0  0  0  0  0  0
  -15.6988    2.3207  -19.8009 O   0  0  0  0  0  1  0  0  0  0  0  0
  -14.0841   -6.1316  -22.5052 C   0  0  0  0  0  0  0  0  0  0  0  0
  -14.5450   -1.1445  -26.4954 O   0  0  0  0  0  0  0  0  0  0  0  0
  -16.0627    4.4750  -20.2112 O   0  0  0  0  0  0  0  0  0  0  0  0
  -17.2373    2.8574  -21.9907 O   0  0  0  0  0  0  0  0  0  0  0  0
  -12.8215   -4.9181  -24.5679 N   0  0  0  0  0  0  0  0  0  0  0  0
  -15.0422   -3.5280  -22.7391 C   0  0  0  0  0  0  0  0  0  0  0  0
  -16.9279    1.5977  -21.8814 P   0  0  0  0  0  0  0  0  0  0  0  0
  -14.7761    1.1425  -23.3272 C   0  0  0  0  0  0  0  0  0  0  0  0
  3  2  1  0
  5  1  2  0
 10  1  1  0
 11  7  1  0
 12  2  1  0
 15  3  1  0
 15 14  1  1
 16  7  1  0
 17  4  1  0
 17  5  1  0
 17 13  2  0
  3 18  1  6
 19  7  1  0
 20  7  1  0
 21  1  1  0
  4 21  1  1
 22  4  1  0
 22  9  2  3
 22 12  1  0
 23  6  1  0
 23  8  1  0
 23 20  1  0
 24  8  1  0
 24 15  1  0
M  RAD  2   7   2  16   2
M  END
>  <ID>  (1) 
conformer_0

$$$$
