
     RDKit          3D

 27 29  0  0  0  0  0  0  0  0999 V2000
  -14.3158   -2.4693  -24.7545 C   0  0  2  0  0  0  0  0  0  0  0  0
  -12.6881   -6.1409  -24.0901 C   0  0  2  0  0  0  0  0  0  0  0  0
  -14.9222   -1.7945  -25.6507 C   0  0  0  0  0  0  0  0  0  0  0  0
  -14.7970   -3.8510  -22.7285 C   0  0  0  0  0  0  0  0  0  0  0  0
  -17.0234    1.8854  -22.0784 P   0  0  0  0  0  0  0  0  0  0  0  0
  -15.2317    2.3780  -18.6739 O   0  0  0  0  0  0  0  0  0  0  0  0
  -14.1764   -7.3177  -21.5994 O   0  0  0  0  0  0  0  0  0  0  0  0
  -14.3862   -3.4500  -23.8830 N   0  0  0  0  0  0  0  0  0  0  0  0
  -17.6911    0.5609  -21.4700 O   0  0  0  0  0  0  0  0  0  0  0  0
  -13.5747   -1.4574  -24.0059 O   0  0  0  0  0  0  0  0  0  0  0  0
  -14.9440   -4.5141  -22.0768 N   0  0  0  0  0  0  0  0  0  0  0  0
  -11.6476   -7.1254  -24.5798 N   0  0  0  0  0  0  0  0  0  0  0  0
  -15.8355    0.9421  -22.8668 O   0  0  0  0  0  0  0  0  0  0  0  0
  -17.5582    2.8994  -19.5243 O   0  0  0  0  0  0  0  0  0  0  0  0
  -14.0439   -0.0831  -24.3900 C   0  0  2  0  0  0  0  0  0  0  0  0
  -14.4043   -0.6310  -26.7559 O   0  0  0  0  0  0  0  0  0  0  0  0
  -13.9893   -6.2377  -22.4396 C   0  0  0  0  0  0  0  0  0  0  0  0
  -13.0371   -7.1764  -23.5300 N   0  0  0  0  0  0  0  0  0  0  0  0
  -15.8635    4.2586  -20.4979 O   0  0  0  0  0  0  0  0  0  0  0  0
  -16.4017   -2.0166  -26.0379 O   0  0  0  0  0  0  0  0  0  0  0  0
  -17.5468    2.7455  -22.8276 O   0  0  0  0  0  0  0  0  0  0  0  0
  -16.0580    2.1238  -20.9759 O   0  0  0  0  0  0  0  0  0  0  0  0
  -16.3276    2.8197  -19.8358 P   0  0  0  0  0  5  0  0  0  0  0  0
  -13.8681   -4.8597  -23.5071 C   0  0  2  0  0  0  0  0  0  0  0  0
  -15.0547    0.7067  -23.4172 C   0  0  0  0  0  0  0  0  0  0  0  0
  -12.7672   -5.3926  -24.6322 N   0  0  0  0  0  0  0  0  0  0  0  0
  -15.4301   -0.5225  -25.0016 C   0  0  0  0  0  0  0  0  0  0  0  0
  3  1  1  0
  1  8  1  1
  8  4  1  0
  9  5  1  0
 10  1  1  0
 11  4  2  3
  2 12  1  6
 13  5  1  0
 15 10  1  0
 16  3  1  0
 17  7  2  0
 18  2  1  0
 18 17  1  0
 20  3  1  0
 21  5  1  0
 23  6  1  0
 23 14  1  0
 23 19  1  0
 23 21  1  0
 23 22  1  0
 24  4  1  0
 24  8  1  0
 24 17  1  0
 25 13  1  0
 15 25  1  1
 26  2  1  0
 24 26  1  1
 27  3  1  0
 27 15  1  0
M  END
>  <ID>  (1) 
conformer_0

$$$$
