
     RDKit          3D

 26 26  0  0  0  0  0  0  0  0999 V2000
  -15.0535   -0.0434  -24.5930 C   0  0  0  0  0  0  0  0  0  0  0  0
  -12.5599   -6.2357  -24.1855 C   0  0  2  0  0  0  0  0  0  0  0  0
  -14.5285    0.5933  -23.6999 C   0  0  0  0  0  0  0  0  0  0  0  0
  -13.8962   -5.1077  -23.3809 C   0  0  0  0  0  0  0  0  0  0  0  0
  -16.2132    3.0716  -19.9116 P   0  0  0  0  0  5  0  0  0  0  0  0
  -17.5868    0.3039  -21.3795 O   0  0  0  0  0  0  0  0  0  0  0  0
  -16.0542    2.7445  -21.2195 O   0  0  0  0  0  0  0  0  0  0  0  0
  -14.3502   -3.5651  -23.7966 N   0  0  0  0  0  0  0  0  0  0  0  0
  -12.8199   -7.3589  -23.4777 N   0  0  0  0  0  0  0  0  0  0  0  0
  -15.1970    2.4403  -18.8022 O   0  0  0  0  0  0  0  0  0  0  0  0
  -13.6139   -1.4143  -23.7490 O   0  0  0  0  0  0  0  0  0  0  0  0
  -14.2096   -7.5110  -21.5511 O   0  0  0  0  0  0  0  0  0  0  0  0
  -13.9981   -6.4407  -22.4876 C   0  0  0  0  0  0  0  0  0  0  0  0
  -12.9973   -5.0515  -24.4637 N   0  0  0  0  0  0  0  0  0  0  0  0
  -17.4825    2.7730  -19.4630 O   0  0  0  0  0  0  0  0  0  0  0  0
  -15.2202   -1.5121  -25.3192 C   0  0  0  0  0  0  0  0  0  0  0  0
  -14.9864   -4.8244  -22.1029 N   0  0  0  0  0  0  0  0  0  0  0  0
  -14.4464   -0.5375  -26.5657 O   0  0  0  0  0  0  0  0  0  0  0  0
  -17.8668    2.2290  -22.6729 O   0  0  0  0  0  0  0  0  0  0  0  0
  -15.8059   -2.4870  -26.2181 O   0  0  0  0  0  0  0  0  0  0  0  0
  -17.0486    1.7388  -21.8972 P   0  0  0  0  0  0  0  0  0  0  0  0
  -15.7997    1.2246  -22.8771 O   0  0  0  0  0  0  0  0  0  0  0  0
  -14.9007   -3.8129  -22.8303 C   0  0  0  0  0  0  0  0  0  0  0  0
  -16.1618    4.5990  -19.9389 O   0  0  0  0  0  0  0  0  0  0  0  0
  -14.3423   -2.1695  -24.8051 C   0  0  2  0  0  0  0  0  0  0  0  0
  -11.6227   -6.5012  -24.9440 N   0  0  0  0  0  0  0  0  0  0  0  0
  3  1  1  0
  7  5  1  0
  8  4  1  0
  9  2  1  0
 10  5  1  0
 13  4  1  0
 13  9  1  0
 13 12  2  0
 14  2  1  0
 14  4  1  0
 15  5  1  0
 16  1  1  0
 18 16  1  0
 19  5  1  0
 20 16  1  0
 21  6  1  0
 21 19  1  0
 22  3  1  0
 22 21  1  0
 23  8  1  0
 23 17  2  3
 24  5  1  0
 25  8  1  0
 25 11  1  1
 25 16  1  0
  2 26  1  6
M  END
>  <ID>  (1) 
conformer_0

$$$$
