
     RDKit          3D

 27 31  0  0  0  0  0  0  0  0999 V2000
  -12.3791   -6.2514  -24.3540 C   0  0  0  0  0  0  0  0  0  0  0  0
  -14.5447   -2.4456  -24.6183 C   0  0  0  0  0  0  0  0  0  0  0  0
  -15.5902   -1.3886  -25.5242 C   0  0  0  0  0  0  0  0  0  0  0  0
  -13.8268   -5.0614  -23.4456 C   0  0  0  0  0  0  0  0  0  0  0  0
  -16.3788    2.9819  -19.8310 P   0  0  0  0  0  4  0  0  0  0  0  0
  -12.8876   -7.3933  -23.4944 N   0  0  0  0  0  0  0  0  0  0  0  0
  -17.6389    0.4903  -21.4136 O   0  0  0  0  0  0  0  0  0  0  0  0
  -14.5901   -3.4346  -23.6268 N   0  0  0  0  0  0  0  0  0  0  0  0
  -15.6794    1.0747  -23.1443 O   0  0  0  0  0  0  0  0  0  0  0  0
  -11.4748   -6.9220  -25.1703 N   0  0  0  0  0  0  0  0  0  0  0  0
  -15.2756    2.5045  -18.8101 O   0  0  0  0  0  1  0  0  0  0  0  0
  -17.7346    2.8917  -19.3715 O   0  0  0  0  0  0  0  0  0  0  0  0
  -13.9087   -6.3152  -22.6646 C   0  0  0  0  0  0  0  0  0  0  0  0
  -13.5610   -1.3855  -24.0319 O   0  0  0  0  0  0  0  0  0  0  0  0
  -14.2026   -7.4663  -21.6519 O   0  0  0  0  0  0  0  0  0  0  0  0
  -15.0248   -4.9588  -22.0478 N   0  0  0  0  0  0  0  0  0  0  0  0
  -14.1406   -0.8211  -25.1839 C   0  0  0  0  0  0  0  0  0  0  0  0
  -14.9801   -0.5113  -26.8837 O   0  0  0  0  0  0  0  0  0  0  0  0
  -16.0567    4.5948  -20.0997 O   0  0  0  0  0  0  0  0  0  0  0  0
  -12.6716   -4.9760  -24.6302 N   0  0  0  0  0  0  0  0  0  0  0  0
  -16.7978    1.8792  -22.1965 P   0  0  0  0  0  0  0  0  0  0  0  0
  -15.0696   -3.8558  -22.6665 C   0  0  0  0  0  0  0  0  0  0  0  0
  -15.9426   -2.4420  -26.1451 O   0  0  0  0  0  0  0  0  0  0  0  0
  -16.1243    2.2976  -21.0250 O   0  0  0  0  0  0  0  0  0  0  0  0
  -17.3162    2.3922  -23.2116 O   0  0  0  0  0  0  0  0  0  0  0  0
  -15.4222    0.3927  -24.6184 C   0  0  0  0  0  0  0  0  0  0  0  0
  -14.1597    0.4375  -23.4291 C   0  0  0  0  0  0  0  0  0  0  0  0
  3  2  1  0
  6  1  2  0
  8  2  1  0
  8  4  1  0
 10  1  1  0
 11  5  1  0
 12  5  1  0
 13  4  1  0
 13  6  1  0
 14  2  1  0
 15 13  1  0
 16  4  1  0
 16 13  1  0
 17  2  1  0
 17  3  1  0
 17 14  1  0
 18  3  1  0
 19  5  1  0
 20  1  1  0
 20  4  1  0
 21  7  1  0
 22  8  1  0
 22 16  1  0
 23  3  1  0
 24  5  1  0
 24 21  1  0
 25 21  1  0
 26  9  1  0
 26 17  1  0
 26 25  1  0
 27 26  1  0
M  RAD  2   5   2  11   2
M  END
>  <ID>  (1) 
conformer_0

$$$$
