
     RDKit          3D

 26 26  0  0  0  0  0  0  0  0999 V2000
  -14.4682   -2.0558  -24.9239 C   0  0  1  0  0  0  0  0  0  0  0  0
  -14.1570   -6.2967  -22.3600 C   0  0  0  0  0  0  0  0  0  0  0  0
  -15.4035   -1.2721  -25.3900 C   0  0  1  0  0  0  0  0  0  0  0  0
  -14.0210   -5.0251  -23.2802 C   0  0  1  0  0  0  0  0  0  0  0  0
  -13.1200   -7.3443  -23.3301 N   0  0  0  0  0  0  0  0  0  0  0  0
  -15.7350    1.1960  -22.8617 O   0  0  0  0  0  0  0  0  0  0  0  0
  -16.3095    2.9706  -19.8100 P   0  0  0  0  0  5  0  0  0  0  0  0
  -15.1029   -4.5495  -21.9716 N   0  0  0  0  0  0  0  0  0  0  0  0
  -15.1981    2.4328  -18.7074 O   0  0  0  0  0  0  0  0  0  0  0  0
  -17.6399    0.6417  -21.3612 O   0  0  0  0  0  0  0  0  0  0  0  0
  -14.5920   -3.3123  -23.6721 N   0  0  0  0  0  0  0  0  0  0  0  0
  -14.6494   -0.1734  -24.5807 C   0  0  2  0  0  0  0  0  0  0  0  0
  -17.4796    2.8774  -19.3491 O   0  0  0  0  0  0  0  0  0  0  0  0
  -13.5540   -1.1035  -23.6350 O   0  0  0  0  0  0  0  0  0  0  0  0
  -11.5860   -6.8175  -24.7368 N   0  0  0  0  0  0  0  0  0  0  0  0
  -12.6506   -6.2533  -24.0864 C   0  0  1  0  0  0  0  0  0  0  0  0
  -14.4093   -7.4251  -21.5383 O   0  0  0  0  0  0  0  0  0  0  0  0
  -14.0100   -1.6438  -26.7162 O   0  0  0  0  0  0  0  0  0  0  0  0
  -15.9331    4.3966  -20.5453 O   0  0  0  0  0  0  0  0  0  0  0  0
  -17.6201    2.5561  -22.7074 O   0  0  0  0  0  0  0  0  0  0  0  0
  -16.8241    1.9311  -22.0544 P   0  0  0  0  0  0  0  0  0  0  0  0
  -15.9448    2.2053  -20.9270 O   0  0  0  0  0  0  0  0  0  0  0  0
  -14.9533   -3.7254  -22.7488 C   0  0  0  0  0  0  0  0  0  0  0  0
  -14.7213    0.5255  -23.3300 C   0  0  0  0  0  0  0  0  0  0  0  0
  -12.8800   -5.1634  -24.4539 N   0  0  0  0  0  0  0  0  0  0  0  0
  -15.5061   -0.3204  -26.5535 O   0  0  0  0  0  0  0  0  0  0  0  0
  3  1  1  0
  4  2  1  0
  5  2  1  0
  9  7  1  0
 11  1  1  0
 12  3  1  0
 13  7  1  0
 12 14  1  1
 16  5  1  0
 16 15  1  6
 17  2  2  0
  1 18  1  6
 19  7  1  0
 20  7  1  0
 21  6  1  0
 21 10  1  0
 21 20  1  0
 22  7  1  0
 23  4  1  0
 23  8  2  3
 23 11  1  0
 24  6  1  0
 24 12  1  0
  4 25  1  1
 25 16  1  0
  3 26  1  6
M  END
>  <ID>  (1) 
conformer_0

$$$$
