
     RDKit          3D

 25 27  0  0  0  0  0  0  0  0999 V2000
  -14.4849   -2.0276  -24.8541 C   0  0  0  0  0  0  0  0  0  0  0  0
  -12.6558   -6.3007  -24.1790 C   0  0  0  0  0  0  0  0  0  0  0  0
  -15.6502   -1.2508  -25.6884 C   0  0  0  0  0  0  0  0  0  0  0  0
  -13.9553   -4.9401  -23.5260 C   0  0  0  0  0  3  0  0  0  0  0  0
  -16.2883    2.7687  -19.6864 P   0  0  0  0  0  5  0  0  0  0  0  0
  -17.5990    0.2971  -21.3463 O   0  0  0  0  0  0  0  0  0  0  0  0
  -17.6989    2.5351  -19.5208 O   0  0  0  0  0  0  0  0  0  0  0  0
  -14.5104   -3.3737  -23.8176 N   0  0  0  0  0  0  0  0  0  0  0  0
  -15.8153    2.0508  -20.8980 O   0  0  0  0  0  0  0  0  0  0  0  0
  -11.7813   -7.2039  -24.6446 N   0  0  0  0  0  0  0  0  0  0  0  0
  -13.2812   -7.3939  -23.2601 N   0  0  0  0  0  0  0  0  0  0  0  0
  -15.1346    2.3981  -18.5815 O   0  0  0  0  0  0  0  0  0  0  0  0
  -13.5316   -1.4496  -24.0420 O   0  0  0  0  0  0  0  0  0  0  0  0
  -14.3634   -7.3097  -21.5631 O   0  0  0  0  0  0  0  0  0  0  0  0
  -14.9548   -0.1521  -24.8207 C   0  0  0  0  0  0  0  0  0  0  0  0
  -15.0556   -4.7179  -22.0855 N   0  0  0  0  0  0  0  0  0  0  0  0
  -14.1605   -6.2571  -22.4943 C   0  0  0  0  0  0  0  0  0  0  0  0
  -15.1583   -0.7913  -26.9473 O   0  0  0  0  0  0  0  0  0  0  0  0
  -16.8107    1.4932  -21.9012 P   0  0  0  0  0  0  0  0  0  0  0  0
  -17.3220    2.1272  -22.7348 O   0  0  0  0  0  0  0  0  0  0  0  0
  -15.5207    0.8936  -22.9630 O   0  0  0  0  0  0  0  0  0  0  0  0
  -12.7569   -5.3352  -24.4789 N   0  0  0  0  0  0  0  0  0  0  0  0
  -15.0451   -3.7959  -22.8010 C   0  0  0  0  0  0  0  0  0  0  0  0
  -14.3661    0.3954  -23.5640 C   0  0  0  0  0  0  0  0  0  0  0  0
  -16.6138    3.9956  -19.6465 O   0  0  0  0  0  0  0  0  0  0  0  0
  3  1  1  0
  7  5  1  0
  8  1  1  0
  8  4  1  0
  9  5  1  0
 10  2  1  0
 11  2  2  0
 12  5  1  0
 13  1  1  0
 15  1  1  0
 15  3  1  0
 17  4  1  0
 17 11  1  0
 17 14  1  0
 17 16  1  0
 18  3  1  0
 19  6  1  0
 20  5  1  0
 20 19  1  0
 21 19  1  0
 22  2  1  0
 22  4  1  0
 23  8  1  0
 23 16  2  0
 24 15  1  0
 24 21  1  0
 25  5  1  0
M  RAD  1   4   2
M  END
>  <ID>  (1) 
conformer_0

$$$$
