
     RDKit          3D

 28 30  0  0  0  0  0  0  0  0999 V2000
  -14.4130   -2.0521  -24.4713 C   0  0  0  0  0  0  0  0  0  0  0  0
  -12.4311   -6.2867  -24.4341 C   0  0  0  0  0  0  0  0  0  0  0  0
  -15.6103   -0.2186  -24.9428 C   0  0  0  0  0  0  0  0  0  0  0  0
  -14.4486   -5.1510  -22.6820 C   0  0  0  0  0  0  0  0  0  0  0  0
  -17.6756    0.5707  -21.4898 O   0  0  0  0  0  0  0  0  0  0  0  0
  -16.3814    2.9297  -19.8154 P   0  0  0  0  0  4  0  0  0  0  0  0
  -14.5684   -3.1082  -23.7068 N   0  0  0  0  0  0  0  0  0  0  0  0
  -16.0362    2.1375  -20.8900 O   0  0  0  0  0  0  0  0  0  0  0  0
  -15.3621    2.3702  -18.7552 O   0  0  0  0  0  1  0  0  0  0  0  0
  -14.3453   -7.2121  -21.5711 O   0  0  0  0  0  0  0  0  0  0  0  0
  -15.1407   -4.3531  -22.0746 N   0  0  0  0  0  0  0  0  0  0  0  0
  -13.0465   -7.1981  -23.4617 N   0  0  0  0  0  0  0  0  0  0  0  0
  -17.6673    2.8980  -19.5477 O   0  0  0  0  0  0  0  0  0  0  0  0
  -13.5493   -1.0719  -23.8637 O   0  0  0  0  0  0  0  0  0  0  0  0
  -11.8654   -6.9054  -24.9996 N   0  0  0  0  0  0  0  0  0  0  0  0
  -14.9678   -1.3628  -25.5979 C   0  0  0  0  0  0  0  0  0  0  0  0
  -14.5550   -0.4462  -26.8900 O   0  0  0  0  0  0  0  0  0  0  0  0
  -13.8569   -6.4544  -22.5560 C   0  0  0  0  0  0  0  0  0  0  0  0
  -15.9127    4.3078  -20.0785 O   0  0  0  0  0  0  0  0  0  0  0  0
  -12.7796   -4.8674  -24.6136 N   0  0  0  0  0  0  0  0  0  0  0  0
  -17.3463    2.5118  -23.0373 O   0  0  0  0  0  0  0  0  0  0  0  0
  -16.9173    1.6877  -21.9516 P   0  0  0  0  0  0  0  0  0  0  0  0
  -15.1474   -3.1787  -22.6361 C   0  0  0  0  0  0  0  0  0  0  0  0
  -15.6586    1.0293  -22.8117 O   0  0  0  0  0  0  0  0  0  0  0  0
  -16.2009   -1.6178  -26.1790 O   0  0  0  0  0  0  0  0  0  0  0  0
  -14.1054    0.3656  -24.5130 C   0  0  0  0  0  0  0  0  0  0  0  0
  -14.8158    0.8690  -23.1080 C   0  0  0  0  0  0  0  0  0  0  0  0
  -13.7263   -4.5468  -23.8137 C   0  0  0  0  0  0  0  0  0  0  0  0
  7  1  1  0
  8  6  1  0
  9  6  1  0
 11  4  1  0
 12  2  2  0
 13  6  1  0
 14  1  1  0
 15  2  1  0
 16  1  1  0
 16  3  1  0
 17 16  1  0
 18  4  1  0
 18 10  2  0
 18 12  1  0
 19  6  1  0
 20  2  1  0
 22  5  1  0
 22  8  1  0
 22 21  1  0
 23  7  1  0
 23 11  2  0
 25 16  1  0
 26  3  1  0
 26 14  1  0
 27 21  1  0
 27 24  1  0
 27 26  1  0
 28  4  2  0
 28  7  1  0
 28 20  1  0
M  RAD  2   6   2   9   2
M  END
>  <ID>  (1) 
conformer_0

$$$$
