
     RDKit          3D

 28 30  0  0  0  0  0  0  0  0999 V2000
  -14.5794   -2.1531  -24.4117 C   0  0  0  0  0  0  0  0  0  0  0  0
  -12.3777   -6.3546  -24.4172 C   0  0  0  0  0  0  0  0  0  0  0  0
  -15.1916   -1.5636  -25.5474 C   0  0  0  0  0  0  0  0  0  0  0  0
  -13.6356   -5.6442  -23.2676 C   0  0  0  0  0  0  0  0  0  0  0  0
  -16.3148    3.0616  -19.8569 P   0  0  0  0  0  4  0  0  0  0  0  0
  -17.7256    0.4931  -21.5324 O   0  0  0  0  0  0  0  0  0  0  0  0
  -15.6977    0.9849  -22.8765 O   0  0  0  0  0  0  0  0  0  0  0  0
  -13.2381   -7.4186  -23.4042 N   0  0  0  0  0  0  0  0  0  0  0  0
  -11.7687   -7.0144  -24.8561 N   0  0  0  0  0  0  0  0  0  0  0  0
  -15.2895    2.5437  -18.8830 O   0  0  0  0  0  1  0  0  0  0  0  0
  -14.6389   -3.2082  -23.6731 N   0  0  0  0  0  0  0  0  0  0  0  0
  -14.4155   -7.2434  -21.5969 O   0  0  0  0  0  0  0  0  0  0  0  0
  -17.5556    2.8124  -19.5745 O   0  0  0  0  0  0  0  0  0  0  0  0
  -15.1656   -4.5090  -22.0712 N   0  0  0  0  0  0  0  0  0  0  0  0
  -14.7130    0.6092  -23.2053 C   0  0  0  0  0  0  0  0  0  0  0  0
  -13.8163   -1.2921  -23.8021 O   0  0  0  0  0  0  0  0  0  0  0  0
  -14.1862   -0.3555  -26.6387 O   0  0  0  0  0  0  0  0  0  0  0  0
  -14.3706   -6.2313  -22.2566 C   0  0  0  0  0  0  0  0  0  0  0  0
  -16.1998   -1.8510  -26.1097 O   0  0  0  0  0  0  0  0  0  0  0  0
  -16.9385    1.5822  -22.1315 P   0  0  0  0  0  4  0  0  0  0  0  0
  -12.8546   -5.0210  -24.3897 N   0  0  0  0  0  0  0  0  0  0  0  0
  -17.5534    2.3799  -23.0007 O   0  0  0  0  0  1  0  0  0  0  0  0
  -16.1992    4.5908  -19.9561 O   0  0  0  0  0  0  0  0  0  0  0  0
  -15.9698    2.3166  -21.1526 O   0  0  0  0  0  0  0  0  0  0  0  0
  -14.1576   -4.2506  -23.5520 C   0  0  0  0  0  0  0  0  0  0  0  0
  -15.5310   -0.2383  -24.9274 C   0  0  0  0  0  0  0  0  0  0  0  0
  -13.9104    0.1532  -24.7015 C   0  0  0  0  0  0  0  0  0  0  0  0
  -15.3056   -3.5547  -22.4482 C   0  0  0  0  0  0  0  0  0  0  0  0
  3  1  1  0
  4  2  1  0
  8  2  1  0
  9  2  1  0
 10  5  1  0
 11  1  1  0
 13  5  1  0
 15  7  1  0
 16  1  1  0
 17  3  1  0
 18  4  1  0
 18 12  2  0
 18 14  1  0
 19  3  1  0
 20  6  1  0
 20  7  1  0
 21  2  1  0
 21  4  1  0
 22 20  1  0
 23  5  1  0
 24  5  1  0
 24 20  1  0
 25  4  1  0
 25 11  1  0
 26  3  1  0
 27 15  1  0
 27 16  1  0
 27 26  1  0
 28 11  1  0
 28 14  2  0
M  RAD  4   5   2  10   2  20   2  22   2
M  END
>  <ID>  (1) 
conformer_0

$$$$
