
     RDKit          3D

 26 27  0  0  0  0  0  0  0  0999 V2000
  -14.4369   -2.1880  -24.6598 C   0  0  1  0  0  0  0  0  0  0  0  0
  -12.4090   -6.2440  -24.2606 C   0  0  0  0  0  0  0  0  0  0  0  0
  -15.3524   -1.5703  -25.5005 C   0  0  0  0  0  0  0  0  0  0  0  0
  -13.6893   -5.0873  -23.3547 C   0  0  0  0  0  0  0  0  0  0  0  0
  -12.8849   -7.2434  -23.3978 N   0  0  0  0  0  0  0  0  0  0  0  0
  -17.5291    0.4273  -21.4245 O   0  0  0  0  0  0  0  0  0  0  0  0
  -15.2483    2.4479  -18.8663 O   0  0  0  0  0  0  0  0  0  0  0  0
  -16.3707    2.9938  -20.0119 P   0  0  0  0  0  5  0  0  0  0  0  0
  -14.3491   -3.3738  -23.5279 N   0  0  0  0  0  0  0  0  0  0  0  0
  -11.6045   -6.9840  -25.0240 N   0  0  0  0  0  0  0  0  0  0  0  0
  -17.5736    2.7907  -19.6253 O   0  0  0  0  0  0  0  0  0  0  0  0
  -14.8383   -0.3246  -24.9203 C   0  0  1  0  0  0  0  0  0  0  0  0
  -14.3655   -7.2660  -21.4756 O   0  0  0  0  0  0  0  0  0  0  0  0
  -13.9873   -6.2742  -22.4087 C   0  0  0  0  0  0  0  0  0  0  0  0
  -13.6192   -1.3698  -23.9192 O   0  0  0  0  0  0  0  0  0  0  0  0
  -15.9883    2.4235  -21.3528 O   0  0  0  0  0  0  0  0  0  0  0  0
  -15.0168   -4.6652  -22.0319 N   0  0  0  0  0  0  0  0  0  0  0  0
  -14.9395   -0.4109  -26.7505 O   0  0  0  0  0  0  0  0  0  0  0  0
  -16.1184    4.5086  -20.1033 O   0  0  0  0  0  0  0  0  0  0  0  0
  -16.1638   -2.7019  -26.0454 O   0  0  0  0  0  0  0  0  0  0  0  0
  -16.8418    1.6375  -22.3030 P   0  0  0  0  0  0  0  0  0  0  0  0
  -17.6058    2.2145  -23.1365 O   0  0  0  0  0  0  0  0  0  0  0  0
  -15.7491    0.9577  -23.2196 O   0  0  0  0  0  0  0  0  0  0  0  0
  -12.6120   -4.9696  -24.6252 N   0  0  0  0  0  0  0  0  0  0  0  0
  -14.8132   -3.9490  -22.6108 C   0  0  0  0  0  0  0  0  0  0  0  0
  -14.5754    0.4539  -23.5960 C   0  0  0  0  0  0  0  0  0  0  0  0
  3  1  1  0
  5  2  2  0
  8  7  1  0
  9  1  1  0
 10  2  1  0
 11  8  1  0
 12  1  1  0
 12  3  1  0
 14  4  1  0
 14  5  1  0
 14 13  2  0
  1 15  1  6
 16  8  1  0
 18  3  1  0
 19  8  1  0
 20  3  1  0
 21  6  1  0
 22  8  1  0
 22 21  1  0
 23 21  1  0
 24  2  1  0
 24  4  1  0
 25  4  1  0
 25  9  1  0
 25 17  2  3
 12 26  1  1
 26 23  1  0
M  END
>  <ID>  (1) 
conformer_0

$$$$
