
     RDKit          3D

 25 25  0  0  0  0  0  0  0  0999 V2000
  -12.6059   -6.1009  -24.1500 C   0  0  0  0  0  0  0  0  0  0  0  0
  -14.3904   -1.8175  -24.6218 C   0  0  2  0  0  0  0  0  0  0  0  0
  -15.4841   -1.2990  -25.1506 C   0  0  2  0  0  0  0  0  0  0  0  0
  -13.9694   -4.8435  -23.4348 C   0  0  1  0  0  0  0  0  0  0  0  0
  -17.6024    0.6160  -21.4805 O   0  0  0  0  0  0  0  0  0  0  0  0
  -12.8193   -7.1735  -23.5420 N   0  0  0  0  0  0  0  0  0  0  0  0
  -16.2663    3.1947  -19.9061 P   0  0  0  0  0  4  0  0  0  0  0  0
  -14.6875   -3.2226  -23.6884 N   0  0  0  0  0  0  0  0  0  0  0  0
  -17.0295    2.5361  -23.1152 O   0  0  0  0  0  1  0  0  0  0  0  0
  -15.0832   -4.4262  -22.0992 N   0  0  0  0  0  0  0  0  0  0  0  0
  -14.3159   -7.3587  -21.6807 O   0  0  0  0  0  0  0  0  0  0  0  0
  -15.3621    2.5281  -18.8227 O   0  0  0  0  0  1  0  0  0  0  0  0
  -11.3635   -6.5470  -24.8042 N   0  0  0  0  0  0  0  0  0  0  0  0
  -16.0663    4.6779  -20.0937 O   0  0  0  0  0  0  0  0  0  0  0  0
  -14.0105   -6.1791  -22.5782 C   0  0  0  0  0  0  0  0  0  0  0  0
  -14.6244    0.6707  -23.3543 C   0  0  0  0  0  0  0  0  0  0  0  0
  -15.3822   -1.0632  -26.4065 O   0  0  0  0  0  0  0  0  0  0  0  0
  -13.7884   -1.1110  -23.7668 O   0  0  0  0  0  0  0  0  0  0  0  0
  -16.9394    1.6717  -21.9015 P   0  0  1  0  0  4  0  0  0  0  0  0
  -17.5647    3.0147  -19.8432 O   0  0  0  0  0  0  0  0  0  0  0  0
  -15.0505   -3.5705  -22.8121 C   0  0  0  0  0  0  0  0  0  0  0  0
  -12.8606   -4.8477  -24.5198 N   0  0  0  0  0  0  0  0  0  0  0  0
  -15.9201    2.3974  -21.0233 O   0  0  0  0  0  0  0  0  0  0  0  0
  -15.4155    0.0248  -24.5148 C   0  0  0  0  0  0  0  0  0  0  0  0
  -15.8036    0.8564  -22.8483 O   0  0  0  0  0  0  0  0  0  0  0  0
  3  2  1  0
  6  1  2  0
  8  2  1  0
 12  7  1  0
 13  1  1  0
 14  7  1  0
 15  4  1  0
 15  6  1  0
 15 11  2  0
  3 17  1  6
  2 18  1  1
 19  5  1  1
 19  9  1  0
 20  7  1  0
 21  4  1  0
 21  8  1  0
 21 10  2  3
 22  1  1  0
  4 22  1  1
 23  7  1  0
 23 19  1  0
 24  3  1  0
 24 16  1  0
 25 16  1  0
 25 19  1  0
M  RAD  4   7   2   9   2  12   2  19   2
M  END
>  <ID>  (1) 
conformer_0

$$$$
