
     RDKit          3D

 28 30  0  0  0  0  0  0  0  0999 V2000
  -12.5655   -6.2541  -24.3408 C   0  0  0  0  0  0  0  0  0  0  0  0
  -14.4365   -2.1618  -24.5201 C   0  0  0  0  0  0  0  0  0  0  0  0
  -14.0297    0.1263  -24.5946 C   0  0  0  0  0  0  0  0  0  0  0  0
  -15.1616   -3.3273  -22.6742 C   0  0  0  0  0  0  0  0  0  0  0  0
  -17.5608    0.6543  -21.4015 O   0  0  0  0  0  0  0  0  0  0  0  0
  -16.2408    3.1288  -19.8219 P   0  0  0  0  0  4  0  0  0  0  0  0
  -15.8113    2.4197  -20.9763 O   0  0  0  0  0  0  0  0  0  0  0  0
  -14.6451   -3.1854  -23.8814 N   0  0  0  0  0  0  0  0  0  0  0  0
  -14.2520   -7.2735  -21.5912 O   0  0  0  0  0  0  0  0  0  0  0  0
  -15.2632    2.5568  -18.7678 O   0  0  0  0  0  1  0  0  0  0  0  0
  -15.1028   -4.3995  -22.0812 N   0  0  0  0  0  0  0  0  0  0  0  0
  -11.8986   -6.9496  -24.8606 N   0  0  0  0  0  0  0  0  0  0  0  0
  -13.4632   -1.2768  -24.1188 O   0  0  0  0  0  0  0  0  0  0  0  0
  -17.5751    2.8284  -19.6372 O   0  0  0  0  0  0  0  0  0  0  0  0
  -14.4322   -0.3021  -26.6741 O   0  0  0  0  0  0  0  0  0  0  0  0
  -13.2506   -7.2172  -23.2256 N   0  0  0  0  0  0  0  0  0  0  0  0
  -14.7550    0.7701  -23.2324 C   0  0  0  0  0  0  0  0  0  0  0  0
  -16.5797   -1.9767  -25.8124 O   0  0  0  0  0  0  0  0  0  0  0  0
  -13.9650   -6.3583  -22.4650 C   0  0  0  0  0  0  0  0  0  0  0  0
  -12.8620   -4.8606  -24.7331 N   0  0  0  0  0  0  0  0  0  0  0  0
  -16.0812    4.6647  -20.0787 O   0  0  0  0  0  0  0  0  0  0  0  0
  -16.8727    1.5359  -21.8523 P   0  0  0  0  0  0  0  0  0  0  0  0
  -15.5095    0.6556  -22.6681 O   0  0  0  0  0  0  0  0  0  0  0  0
  -16.9851    2.2654  -22.9133 O   0  0  0  0  0  0  0  0  0  0  0  0
  -13.7675   -4.5548  -23.9950 C   0  0  0  0  0  0  0  0  0  0  0  0
  -15.2562   -1.6163  -25.5551 C   0  0  0  0  0  0  0  0  0  0  0  0
  -15.5420   -0.2459  -24.8007 C   0  0  0  0  0  0  0  0  0  0  0  0
  -14.5590   -5.0785  -22.7794 C   0  0  0  0  0  0  0  0  0  0  0  0
  7  6  1  0
  8  2  1  0
  8  4  1  0
 10  6  1  0
 11  4  2  0
 12  1  1  0
 13  2  1  0
 13  3  1  0
 14  6  1  0
 16  1  1  0
 17  3  1  0
 19  9  2  0
 19 16  1  0
 20  1  1  0
 21  6  1  0
 22  5  1  0
 22  7  1  0
 23 17  1  0
 24 17  1  0
 24 22  1  0
 25  8  1  0
 25 20  1  0
 26  2  1  0
 26 15  1  0
 26 18  1  0
 27  3  1  0
 27 26  1  0
 28 11  1  0
 28 19  1  0
 28 25  2  0
M  RAD  2   6   2  10   2
M  END
>  <ID>  (1) 
conformer_0

$$$$
