
     RDKit          3D

 28 30  0  0  0  0  0  0  0  0999 V2000
  -14.1902   -2.2660  -24.7917 C   0  0  1  0  0  0  0  0  0  0  0  0
  -14.3227   -6.2379  -22.1243 C   0  0  0  0  0  0  0  0  0  0  0  0
  -15.2196   -1.5519  -25.6494 C   0  0  0  0  0  0  0  0  0  0  0  0
  -13.7061   -5.6724  -23.1641 C   0  0  2  0  0  0  0  0  0  0  0  0
  -15.2331    2.4999  -18.7905 O   0  0  0  0  0  0  0  0  0  0  0  0
  -16.3160    3.0852  -19.8885 P   0  0  0  0  0  5  0  0  0  0  0  0
  -13.1602   -7.3046  -23.3173 N   0  0  0  0  0  0  0  0  0  0  0  0
  -17.4608    0.6054  -21.4400 O   0  0  0  0  0  0  0  0  0  0  0  0
  -11.7272   -6.8447  -24.7427 N   0  0  0  0  0  0  0  0  0  0  0  0
  -17.4782    2.8634  -19.4396 O   0  0  0  0  0  0  0  0  0  0  0  0
  -15.1875   -4.3728  -21.9454 N   0  0  0  0  0  0  0  0  0  0  0  0
  -13.4351   -1.1952  -23.8812 O   0  0  0  0  0  0  0  0  0  0  0  0
  -14.4787   -3.2096  -23.6050 N   0  0  0  0  0  0  0  0  0  0  0  0
  -14.4079   -7.2932  -21.5239 O   0  0  0  0  0  0  0  0  0  0  0  0
  -12.3188   -6.3202  -24.3602 C   0  0  0  0  0  0  0  0  0  0  0  0
  -15.7237    2.1684  -21.1637 O   0  0  0  0  0  0  0  0  0  0  0  0
  -14.5998    0.7711  -23.4475 C   0  0  0  0  0  0  0  0  0  0  0  0
  -14.1728   -1.9204  -26.7781 O   0  0  0  0  0  0  0  0  0  0  0  0
  -15.9919    4.5255  -20.2033 O   0  0  0  0  0  0  0  0  0  0  0  0
  -12.8037   -4.8608  -24.4948 N   0  0  0  0  0  0  0  0  0  0  0  0
  -16.7628    1.6286  -22.1230 P   0  0  0  0  0  0  0  0  0  0  0  0
  -15.9163    0.7456  -23.3481 O   0  0  0  0  0  0  0  0  0  0  0  0
  -14.1807   -4.3088  -23.3276 C   0  0  0  0  0  0  0  0  0  0  0  0
  -15.9976   -0.1563  -24.8173 C   0  0  0  0  0  0  0  0  0  0  0  0
  -16.9812    2.6464  -22.8077 O   0  0  0  0  0  0  0  0  0  0  0  0
  -15.6444   -0.5061  -26.7337 O   0  0  0  0  0  0  0  0  0  0  0  0
  -14.1061   -0.3558  -24.7523 C   0  0  1  0  0  0  0  0  0  0  0  0
  -15.2089   -3.2950  -22.4434 C   0  0  0  0  0  0  0  0  0  0  0  0
  3  1  1  0
  4  2  1  0
  6  5  1  0
  7  4  1  0
 10  6  1  0
 12  1  1  0
  1 13  1  6
 14  2  2  0
 15  7  2  0
 15  9  1  0
 16  6  1  0
 18  3  1  0
 19  6  1  0
 20  4  1  0
 20 15  1  0
 21  8  1  0
 22 17  1  0
 22 21  1  0
  4 23  1  6
 23 13  1  0
 24  3  1  0
 25  6  1  0
 25 21  1  0
 26  3  1  0
 27  1  1  0
 27 12  1  0
 27 17  1  1
 27 24  1  0
 28 11  2  3
 28 13  1  0
M  END
>  <ID>  (1) 
conformer_0

$$$$
