
     RDKit          3D

 28 30  0  0  0  0  0  0  0  0999 V2000
  -13.7544   -4.6417  -23.8042 C   0  0  0  0  0  0  0  0  0  0  0  0
  -14.1258    0.1433  -24.7572 C   0  0  0  0  0  0  0  0  0  0  0  0
  -14.7638    0.8877  -23.3341 C   0  0  0  0  0  0  0  0  0  0  0  0
  -15.2301   -3.3283  -22.5719 C   0  0  0  0  0  0  0  0  0  0  0  0
  -16.4852    3.2611  -19.9381 P   0  0  0  0  0  4  0  0  0  0  0  0
  -17.5434    0.6623  -21.5352 O   0  0  0  0  0  0  0  0  0  0  0  0
  -11.8844   -6.9376  -24.6223 N   0  0  0  0  0  0  0  0  0  0  0  0
  -14.7217   -3.2446  -23.6640 N   0  0  0  0  0  0  0  0  0  0  0  0
  -15.4306    0.7098  -22.5716 O   0  0  0  0  0  0  0  0  0  0  0  0
  -17.5972    2.9334  -19.4477 O   0  0  0  0  0  0  0  0  0  0  0  0
  -13.8889   -1.4085  -24.0309 O   0  0  0  0  0  0  0  0  0  0  0  0
  -15.4080    2.5871  -18.9613 O   0  0  0  0  0  1  0  0  0  0  0  0
  -14.3298   -7.3081  -21.5018 O   0  0  0  0  0  0  0  0  0  0  0  0
  -15.1989   -4.5348  -22.0587 N   0  0  0  0  0  0  0  0  0  0  0  0
  -14.8272   -0.5094  -26.7341 O   0  0  0  0  0  0  0  0  0  0  0  0
  -15.3232   -1.5458  -25.5112 C   0  0  0  0  0  0  0  0  0  0  0  0
  -13.1930   -7.2464  -23.0569 N   0  0  0  0  0  0  0  0  0  0  0  0
  -14.0213   -6.5364  -22.2449 C   0  0  0  0  0  0  0  0  0  0  0  0
  -16.7781   -2.1327  -25.6406 O   0  0  0  0  0  0  0  0  0  0  0  0
  -12.8769   -4.9142  -24.5046 N   0  0  0  0  0  0  0  0  0  0  0  0
  -16.3018    4.6488  -20.3767 O   0  0  0  0  0  0  0  0  0  0  0  0
  -16.7217    1.6377  -21.8293 P   0  0  0  0  0  4  0  0  0  0  0  0
  -16.0225    2.3582  -21.0602 O   0  0  0  0  0  0  0  0  0  0  0  0
  -14.7944   -2.2528  -24.4105 C   0  0  0  0  0  0  0  0  0  0  0  0
  -17.0402    2.2438  -23.1503 O   0  0  0  0  0  1  0  0  0  0  0  0
  -12.5557   -6.2619  -24.0647 C   0  0  0  0  0  0  0  0  0  0  0  0
  -15.6437   -0.3061  -24.6705 C   0  0  0  0  0  0  0  0  0  0  0  0
  -14.5136   -5.1392  -22.6640 C   0  0  0  0  0  0  0  0  0  0  0  0
  3  2  1  0
  8  1  1  0
  8  4  1  0
  9  3  1  0
 10  5  1  0
 11  2  1  0
 12  5  1  0
 14  4  2  0
 16 15  1  0
 18 13  2  0
 18 17  1  0
 19 16  1  0
 20  1  1  0
 21  5  1  0
 22  6  1  0
 22  9  1  0
 23  5  1  0
 23 22  1  0
 24  8  1  0
 24 11  1  0
 24 16  1  0
 25 22  1  0
 26  7  1  0
 26 17  1  0
 26 20  1  0
 27  2  1  0
 27 16  1  0
 28  1  2  0
 28 14  1  0
 28 18  1  0
M  RAD  4   5   2  12   2  22   2  25   2
M  END
>  <ID>  (1) 
conformer_0

$$$$
