
     RDKit          3D

 28 30  0  0  0  0  0  0  0  0999 V2000
  -12.3071   -6.3593  -24.3287 C   0  0  0  0  0  0  0  0  0  0  0  0
  -15.4848   -1.7465  -25.4275 C   0  0  0  0  0  0  0  0  0  0  0  0
  -15.6452   -0.2795  -25.3300 C   0  0  0  0  0  0  0  0  0  0  0  0
  -15.1980   -3.3247  -22.6377 C   0  0  0  0  0  0  0  0  0  0  0  0
  -15.1466    2.4491  -18.6200 O   0  0  0  0  0  1  0  0  0  0  0  0
  -16.2327    2.9836  -19.7391 P   0  0  0  0  0  4  0  0  0  0  0  0
  -17.5134    0.4189  -21.3833 O   0  0  0  0  0  0  0  0  0  0  0  0
  -14.5202   -3.4273  -23.7088 N   0  0  0  0  0  0  0  0  0  0  0  0
  -15.7025    0.8048  -22.9669 O   0  0  0  0  0  0  0  0  0  0  0  0
  -13.4094   -1.5027  -24.1934 O   0  0  0  0  0  0  0  0  0  0  0  0
  -14.2691   -7.4079  -21.5971 O   0  0  0  0  0  0  0  0  0  0  0  0
  -11.6230   -7.0135  -24.3913 N   0  0  0  0  0  0  0  0  0  0  0  0
  -17.5328    2.8591  -19.5591 O   0  0  0  0  0  0  0  0  0  0  0  0
  -15.2098   -4.4997  -21.9888 N   0  0  0  0  0  0  0  0  0  0  0  0
  -14.9120   -0.3786  -26.8083 O   0  0  0  0  0  0  0  0  0  0  0  0
  -14.3629   -2.4729  -24.7462 C   0  0  0  0  0  0  0  0  0  0  0  0
  -13.8471   -6.6401  -22.5258 C   0  0  0  0  0  0  0  0  0  0  0  0
  -16.3142   -2.5780  -26.0400 O   0  0  0  0  0  0  0  0  0  0  0  0
  -16.0067    4.4560  -19.8910 O   0  0  0  0  0  0  0  0  0  0  0  0
  -12.9708   -7.1791  -23.7189 N   0  0  0  0  0  0  0  0  0  0  0  0
  -16.8725    1.5751  -21.9845 P   0  0  0  0  0  0  0  0  0  0  0  0
  -15.8662    2.1852  -20.9953 O   0  0  0  0  0  0  0  0  0  0  0  0
  -17.2853    2.2696  -22.8271 O   0  0  0  0  0  0  0  0  0  0  0  0
  -12.8524   -5.3088  -24.2588 N   0  0  0  0  0  0  0  0  0  0  0  0
  -14.5463   -5.2067  -22.4269 C   0  0  0  0  0  0  0  0  0  0  0  0
  -14.1171   -0.3135  -24.0994 C   0  0  0  0  0  0  0  0  0  0  0  0
  -14.9638    1.0224  -23.8837 C   0  0  0  0  0  0  0  0  0  0  0  0
  -13.7719   -4.8215  -23.7186 C   0  0  0  0  0  0  0  0  0  0  0  0
  3  2  1  0
  6  5  1  0
  8  4  1  0
 12  1  1  0
 13  6  1  0
 14  4  2  0
 15  3  1  0
 16  2  1  0
 16  8  1  0
 16 10  1  0
 17 11  2  0
 18  2  1  0
 19  6  1  0
 20  1  1  0
 20 17  1  0
 21  7  1  0
 22  6  1  0
 22 21  1  0
 23 21  1  0
 24  1  1  0
 25 14  1  0
 25 17  1  0
 26  3  1  0
 26 10  1  0
 27  9  1  0
 27 23  1  0
 27 26  1  0
 28  8  1  0
 28 24  1  0
 28 25  2  0
M  RAD  2   5   2   6   2
M  END
>  <ID>  (1) 
conformer_0

$$$$
