
     RDKit          3D

 26 27  0  0  0  0  0  0  0  0999 V2000
  -14.4782   -2.0831  -24.8100 C   0  0  2  0  0  0  0  0  0  0  0  0
  -12.6509   -6.2237  -24.0772 C   0  0  2  0  0  0  0  0  0  0  0  0
  -15.5089   -0.9736  -25.3855 C   0  0  0  0  0  0  0  0  0  0  0  0
  -13.9840   -4.9621  -23.3548 C   0  0  2  0  0  0  0  0  0  0  0  0
  -17.6969    0.4648  -21.5100 O   0  0  0  0  0  0  0  0  0  0  0  0
  -17.0785    1.4974  -22.0819 P   0  0  0  0  0  0  0  0  0  0  0  0
  -14.5462   -3.2869  -23.8050 N   0  0  0  0  0  0  0  0  0  0  0  0
  -11.7649   -6.9447  -24.7156 N   0  0  0  0  0  0  0  0  0  0  0  0
  -15.1015   -4.5489  -22.1676 N   0  0  0  0  0  0  0  0  0  0  0  0
  -13.0530   -7.4656  -23.2156 N   0  0  0  0  0  0  0  0  0  0  0  0
  -15.7950    0.7971  -22.9964 O   0  0  0  0  0  0  0  0  0  0  0  0
  -13.5397   -1.3955  -24.0154 O   0  0  0  0  0  0  0  0  0  0  0  0
  -15.9802    4.5742  -20.5170 O   0  0  0  0  0  0  0  0  0  0  0  0
  -14.3010   -7.3242  -21.4792 O   0  0  0  0  0  0  0  0  0  0  0  0
  -17.4588    2.9304  -19.3985 O   0  0  0  0  0  0  0  0  0  0  0  0
  -14.5988   -0.0723  -24.7296 C   0  0  2  0  0  0  0  0  0  0  0  0
  -14.1248   -6.2729  -22.3431 C   0  0  0  0  0  0  0  0  0  0  0  0
  -14.3461   -0.2251  -26.6403 O   0  0  0  0  0  0  0  0  0  0  0  0
  -16.1310    2.1344  -21.3070 O   0  0  0  0  0  0  0  0  0  0  0  0
  -16.4292   -1.9252  -25.9316 O   0  0  0  0  0  0  0  0  0  0  0  0
  -16.2853    3.1862  -20.0002 P   0  0  0  0  0  5  0  0  0  0  0  0
  -12.8162   -5.0013  -24.5201 N   0  0  0  0  0  0  0  0  0  0  0  0
  -17.7781    2.4534  -22.9988 O   0  0  0  0  0  0  0  0  0  0  0  0
  -15.4551    2.6510  -19.2881 O   0  0  0  0  0  0  0  0  0  0  0  0
  -14.9442   -3.7236  -22.8330 C   0  0  0  0  0  0  0  0  0  0  0  0
  -14.6422    0.6286  -23.5096 C   0  0  0  0  0  0  0  0  0  0  0  0
  3  1  1  0
  6  5  1  0
  1  7  1  1
  2  8  1  6
 10  2  1  0
 11  6  1  0
 12  1  1  0
 16  3  1  0
 16 12  1  0
 17  4  1  0
 17 10  1  0
 17 14  2  0
 18  3  1  0
 19  6  1  0
 20  3  1  0
 21 13  1  0
 21 15  1  0
 21 19  1  0
 22  2  1  0
  4 22  1  1
 23 21  1  0
 24 21  1  0
 25  4  1  0
 25  7  1  0
 25  9  2  3
 26 11  1  0
 16 26  1  1
M  END
>  <ID>  (1) 
conformer_0

$$$$
