
     RDKit          3D

 23 22  0  0  0  0  0  0  0  0999 V2000
  -14.5781   -1.8296  -25.0285 C   0  0  0  0  0  0  0  0  0  0  0  0
  -13.2049   -5.8680  -23.8161 C   0  0  0  0  0  0  0  0  0  0  0  0
  -14.8365   -0.6954  -25.0465 C   0  0  2  0  0  0  0  0  0  0  0  0
  -14.5087   -4.0284  -22.9446 C   0  0  0  0  0  0  0  0  0  0  0  0
  -17.6776    0.5313  -21.7113 O   0  0  0  0  0  0  0  0  0  0  0  0
  -16.3608    2.8530  -19.7282 P   0  0  0  0  0  4  0  0  0  0  0  0
  -12.1237   -6.7486  -24.7062 N   0  0  0  0  0  0  0  0  0  0  0  0
  -17.6452    2.6627  -19.4921 O   0  0  0  0  0  0  0  0  0  0  0  0
  -15.1930    2.3213  -18.6608 O   0  0  0  0  0  1  0  0  0  0  0  0
  -14.9810   -4.4383  -22.1399 N   0  0  0  0  0  0  0  0  0  0  0  0
  -14.2034   -7.3626  -21.6175 O   0  0  0  0  0  0  0  0  0  0  0  0
  -13.5855   -1.2364  -23.8454 O   0  0  0  0  0  0  0  0  0  0  0  0
  -15.9231    0.9256  -23.1138 O   0  0  0  0  0  0  0  0  0  0  0  0
  -14.3141   -3.2364  -23.6650 N   0  0  0  0  0  0  0  0  0  0  0  0
  -13.9885   -0.6197  -26.6454 O   0  0  0  0  0  0  0  0  0  0  0  0
  -14.5407    0.4909  -23.9832 C   0  0  0  0  0  0  0  0  0  0  0  0
  -14.0785   -5.8810  -22.6585 C   0  0  0  0  0  0  0  0  0  0  0  0
  -16.9571    1.5758  -22.1946 P   0  0  1  0  0  4  0  0  0  0  0  0
  -13.4286   -7.5502  -23.5830 N   0  0  0  0  0  0  0  0  0  0  0  0
  -17.4953    2.8794  -22.6416 O   0  0  0  0  0  1  0  0  0  0  0  0
  -16.0567   -1.9242  -26.0360 O   0  0  0  0  0  0  0  0  0  0  0  0
  -15.9237    2.0884  -21.1112 O   0  0  0  0  0  0  0  0  0  0  0  0
  -16.1453    4.1185  -19.6785 O   0  0  0  0  0  0  0  0  0  0  0  0
  3  1  1  0
  7  2  1  0
  8  6  1  0
  9  6  1  0
 10  4  2  3
 12  1  1  0
 14  1  1  0
 14  4  1  0
  3 15  1  6
 16  3  1  0
 16 13  1  0
 17  2  1  0
 17 10  1  0
 17 11  2  0
 18  5  1  1
 18 13  1  0
 19  2  2  3
 20 18  1  0
 21  1  1  0
 22  6  1  0
 22 18  1  0
 23  6  1  0
M  RAD  4   6   2   9   2  18   2  20   2
M  END
>  <ID>  (1) 
conformer_0

$$$$
