
     RDKit          3D

 27 29  0  0  0  0  0  0  0  0999 V2000
  -15.6068   -1.4632  -25.1744 C   0  0  2  0  0  0  0  0  0  0  0  0
  -12.6241   -6.1121  -24.2755 C   0  0  0  0  0  0  0  0  0  0  0  0
  -15.2108    0.0520  -25.2271 C   0  0  2  0  0  0  0  0  0  0  0  0
  -13.9817   -4.8514  -23.4009 C   0  0  0  0  0  3  0  0  0  0  0  0
  -17.6172    0.4852  -21.4900 O   0  0  0  0  0  0  0  0  0  0  0  0
  -16.2364    3.0523  -19.7646 P   0  0  0  0  0  4  0  0  0  0  0  0
  -15.9957    2.4273  -21.0119 O   0  0  0  0  0  0  0  0  0  0  0  0
  -14.7221   -3.1816  -23.6533 N   0  0  0  0  0  0  0  0  0  0  0  0
  -11.8552   -7.0594  -25.0134 N   0  0  0  0  0  0  0  0  0  0  0  0
  -15.1377    2.4842  -18.7525 O   0  0  0  0  0  1  0  0  0  0  0  0
  -14.2682   -7.3557  -21.6584 O   0  0  0  0  0  0  0  0  0  0  0  0
  -17.5920    2.7252  -19.6101 O   0  0  0  0  0  0  0  0  0  0  0  0
  -13.8773   -1.1516  -23.7023 O   0  0  0  0  0  0  0  0  0  0  0  0
  -15.0169   -4.7434  -22.0475 N   0  0  0  0  0  0  0  0  0  0  0  0
  -14.9385    0.1041  -26.5003 O   0  0  0  0  0  0  0  0  0  0  0  0
  -16.8623   -1.7721  -25.5209 O   0  0  0  0  0  0  0  0  0  0  0  0
  -14.0679   -6.1581  -22.5378 C   0  0  2  0  0  0  0  0  0  0  0  0
  -15.2367    1.2175  -23.5295 C   0  0  1  0  0  0  0  0  0  0  0  0
  -13.2081   -7.4870  -23.3214 N   0  0  0  0  0  0  0  0  0  0  0  0
  -12.7473   -4.9418  -24.5901 N   0  0  0  0  0  0  0  0  0  0  0  0
  -17.6568    2.4789  -22.8662 O   0  0  0  0  0  0  0  0  0  0  0  0
  -16.2549    4.4453  -19.8639 O   0  0  0  0  0  0  0  0  0  0  0  0
  -16.9624    1.7785  -21.9035 P   0  0  0  0  0  0  0  0  0  0  0  0
  -15.1045   -3.6256  -22.7054 C   0  0  0  0  0  0  0  0  0  0  0  0
  -15.7593    1.0865  -22.6633 O   0  0  0  0  0  0  0  0  0  0  0  0
  -14.5518   -2.1773  -24.5256 C   0  0  2  0  0  0  0  0  0  0  0  0
  -14.2192    0.0556  -23.9714 C   0  0  2  0  0  0  0  0  0  0  0  0
  3  1  1  0
  7  6  1  0
  9  2  1  0
 10  6  1  0
 12  6  1  0
 14  4  1  0
  3 15  1  6
  1 16  1  1
 17  4  1  0
 17 11  1  6
 17 14  1  0
 19  2  2  0
 19 17  1  0
 20  2  1  0
 20  4  1  0
 21 18  1  0
 22  6  1  0
 23  5  1  0
 23  7  1  0
 23 21  1  0
 24  8  2  3
 24 14  1  0
 18 25  1  1
 26  1  1  0
 26  8  1  0
 26 13  1  1
 27  3  1  0
 27 13  1  1
 27 18  1  0
M  RAD  3   4   2   6   2  10   2
M  END
>  <ID>  (1) 
conformer_0

$$$$
