
     RDKit          3D

 32 36  0  0  0  0  0  0  0  0999 V2000
   23.2201    5.9277   27.0197 C   0  0  0  0  0  0  0  0  0  0  0  0
   23.6890   10.7030   30.4159 C   0  0  0  0  0  0  0  0  0  0  0  0
   22.0997    8.2721   24.8497 O   0  0  0  0  0  0  0  0  0  0  0  0
   23.9187    9.7718   31.4114 C   0  0  0  0  0  0  0  0  0  0  0  0
   23.3168    7.9555   30.0072 C   0  0  0  0  0  0  0  0  0  0  0  0
   23.2264    3.5527   26.5583 C   0  0  0  0  0  0  0  0  0  0  0  0
   26.7298    4.4235   27.0314 C   0  0  0  0  0  0  0  0  0  0  0  0
   21.6733   14.1497   20.4994 C   0  0  0  0  0  0  0  0  0  0  0  0
   22.7537    9.3897   26.8030 N   0  0  0  0  0  0  0  0  0  0  0  0
   21.5111   12.1359   21.9735 C   0  0  0  0  0  0  0  0  0  0  0  0
   23.3567   10.2185   29.1634 C   0  0  0  0  0  0  0  0  0  0  0  0
   26.8576    2.9398   26.9852 C   0  0  0  0  0  0  0  0  0  0  0  0
   22.5389   10.6631   25.1401 N   0  0  0  0  0  0  0  0  0  0  0  0
   22.5413    4.7419   26.7256 C   0  0  0  0  0  0  0  0  0  0  0  0
   20.9593   10.7871   21.9508 C   0  0  0  0  0  0  0  0  0  0  0  0
   21.1650   12.9841   21.0576 O   0  0  0  0  0  0  0  0  0  0  0  0
   22.9957   10.7265   26.9811 C   0  0  0  0  0  0  0  0  0  0  0  0
   22.1476   10.9869   23.8959 C   0  0  0  0  0  0  0  0  0  0  0  0
   20.5395   15.1549   20.3606 C   0  0  0  0  0  0  0  0  0  0  0  0
   24.6389    5.8754   27.0886 C   0  0  0  0  0  0  0  0  0  0  0  0
   22.8271    8.3369   27.6682 C   0  0  0  0  0  0  0  0  0  0  0  0
   25.3197    4.6739   26.9185 C   0  0  0  0  0  0  0  0  0  0  0  0
   21.3812   10.1235   23.0753 C   0  0  0  0  0  0  0  0  0  0  0  0
   22.3756   12.2904   23.2084 C   0  0  0  0  0  0  0  0  0  0  0  0
   25.4487    2.4636   26.6622 O   0  0  0  0  0  0  0  0  0  0  0  0
   25.3414    6.9816   27.3411 O   0  0  0  0  0  0  0  0  0  0  0  0
   23.7393    8.4331   31.2206 N   0  0  0  0  0  0  0  0  0  0  0  0
   22.5866    7.0796   27.2579 N   0  0  0  0  0  0  0  0  0  0  0  0
   24.6011    3.5331   26.6937 C   0  0  0  0  0  0  0  0  0  0  0  0
   22.4034    9.2756   25.4632 C   0  0  0  0  0  0  0  0  0  0  0  0
   23.2395   11.2060   28.1449 O   0  0  0  0  0  0  0  0  0  0  0  0
   23.1715    8.8475   28.9424 C   0  0  0  0  0  0  0  0  0  0  0  0
  1 14  1  0
  1 20  1  0
  1 28  2  3
  2  4  1  0
  2 11  2  0
  3 30  2  0
  4 27  2  0
  5 27  1  0
  5 32  1  0
  6 14  1  0
  6 29  2  0
  7 12  1  0
  7 22  1  0
  8 16  1  0
  8 19  1  0
  9 17  1  0
  9 21  1  0
  9 30  1  0
 10 15  1  0
 10 16  1  0
 10 24  1  0
 11 31  1  0
 11 32  1  0
 12 25  1  0
 13 18  1  0
 13 30  1  0
 15 23  1  0
 17 31  1  0
 18 23  1  0
 18 24  1  0
 20 22  2  0
 20 26  1  0
 21 28  1  0
 21 32  2  0
 22 29  1  0
 25 29  1  0
M  END
>  <ID>  (1) 
conformer_0

$$$$
