
     RDKit          3D

 22 24  0  0  0  0  0  0  0  0999 V2000
   24.9887    9.1966   33.5595 C   0  0  0  0  0  0  0  0  0  0  0  0
   22.8788    9.2789   27.4117 C   0  0  0  0  0  0  0  0  0  0  0  0
   24.8781    8.2342   32.6032 C   0  0  0  0  0  0  0  0  0  0  0  0
   22.1645   10.3957   23.8698 C   0  0  0  0  0  0  0  0  0  0  0  0
   23.8596    7.8268   29.1996 C   0  0  0  0  0  0  0  0  0  0  0  0
   24.0176    9.8219   31.0144 C   0  0  0  0  0  0  0  0  0  0  0  0
   23.4060    9.0948   28.7830 C   0  0  0  0  0  0  0  0  0  0  0  0
   22.8080    5.1818   26.1882 C   0  0  0  0  0  0  0  0  0  0  0  0
   24.4196    8.5213   31.3611 C   0  0  0  0  0  0  0  0  0  0  0  0
   22.2336    8.2103   26.7699 C   0  0  0  0  0  0  0  0  0  0  0  0
   24.6501   10.5101   33.2747 C   0  0  0  0  0  0  0  0  0  0  0  0
   24.1816   10.8278   31.9826 C   0  0  0  0  0  0  0  0  0  0  0  0
   24.2336    5.7531   25.8905 C   0  0  0  0  0  0  0  0  0  0  0  0
   21.9914    8.5155   25.4703 N   0  0  0  0  0  0  0  0  0  0  0  0
   23.5168   10.1097   29.7468 C   0  0  0  0  0  0  0  0  0  0  0  0
   24.3636    7.5215   30.3623 C   0  0  0  0  0  0  0  0  0  0  0  0
   21.6967    7.0364   27.4797 C   0  0  0  0  0  0  0  0  0  0  0  0
   21.1664   10.0305   23.1464 O   0  0  0  0  0  0  0  0  0  0  0  0
   22.9313   10.3338   26.4582 O   0  0  0  0  0  0  0  0  0  0  0  0
   22.3020    5.7848   27.3389 N   0  0  0  0  0  0  0  0  0  0  0  0
   22.3378    9.7939   25.1957 C   0  0  0  0  0  0  0  0  0  0  0  0
   23.0221   11.1290   23.4473 O   0  0  0  0  0  0  0  0  0  0  0  0
  1  3  1  0
  1 11  2  0
  2  7  1  0
  2 10  1  0
  2 19  1  0
  3  9  2  0
  4 18  2  0
  4 21  1  0
  4 22  1  0
  5  7  1  0
  5 16  2  0
  6  9  1  0
  6 12  1  0
  6 15  2  0
  7 15  1  0
  8 13  1  0
  8 20  1  0
  9 16  1  0
 10 14  1  0
 10 17  1  0
 11 12  1  0
 14 21  1  0
 17 20  1  0
 19 21  1  0
M  END
>  <ID>  (1) 
conformer_0

$$$$
