
     RDKit          3D

 27 31  0  0  0  0  0  0  0  0999 V2000
   24.9722    6.9290   28.2422 C   0  0  0  0  0  0  0  0  0  0  0  0
   22.2695   12.6547   23.0944 C   0  0  0  0  0  0  0  0  0  0  0  0
   26.1503    6.3925   27.3636 C   0  0  0  0  0  0  0  0  0  0  0  0
   22.7545    6.4054   26.5978 C   0  0  0  0  0  0  0  0  0  0  0  0
   25.0446    5.7052   29.1332 O   0  0  0  0  0  0  0  0  0  0  0  0
   21.5804   12.7301   21.8698 C   0  0  0  0  0  0  0  0  0  0  0  0
   22.6927   10.7538   24.8002 C   0  0  0  0  0  0  0  0  0  0  0  0
   23.3467    8.6525   29.5531 C   0  0  0  0  0  0  0  0  0  0  0  0
   22.7459    8.0445   28.3129 C   0  0  0  0  0  0  0  0  0  0  0  0
   24.2563    8.0893   30.4588 C   0  0  0  0  0  0  0  0  0  0  0  0
   21.3833   13.8681   21.0529 C   0  0  0  0  0  0  0  0  0  0  0  0
   22.3158    8.6320   26.0950 C   0  0  0  0  0  0  0  0  0  0  0  0
   22.6668    9.3201   24.9340 C   0  0  0  0  0  0  0  0  0  0  0  0
   23.7422    5.2782   26.9719 C   0  0  0  0  0  0  0  0  0  0  0  0
   23.5406    6.9520   27.6337 C   0  0  0  0  0  0  0  0  0  0  0  0
   22.1708   11.3327   23.6007 C   0  0  0  0  0  0  0  0  0  0  0  0
   23.3677   10.6365   30.9284 C   0  0  0  0  0  0  0  0  0  0  0  0
   22.9057    9.9622   29.8292 C   0  0  0  0  0  0  0  0  0  0  0  0
   24.2561   10.0323   31.8103 C   0  0  0  0  0  0  0  0  0  0  0  0
   21.4629   10.5990   22.6960 C   0  0  0  0  0  0  0  0  0  0  0  0
   22.4914    9.1076   27.3714 C   0  0  0  0  0  0  0  0  0  0  0  0
   26.0458    4.9279   28.1648 C   0  0  0  0  0  0  0  0  0  0  0  0
   24.7036    8.7463   31.5608 C   0  0  0  0  0  0  0  0  0  0  0  0
   21.0683   11.4338   21.6224 C   0  0  0  0  0  0  0  0  0  0  0  0
   23.1906   11.4552   25.7220 O   0  0  0  0  0  0  0  0  0  0  0  0
   24.9850    4.3331   27.1885 C   0  0  0  0  0  0  0  0  0  0  0  0
   21.8375    7.3694   26.0993 O   0  0  0  0  0  0  0  0  0  0  0  0
  1  3  1  0
  1  5  1  0
  1 15  1  0
  2  6  1  0
  2 16  1  0
  3 22  1  0
  4 14  1  0
  4 15  1  0
  4 27  1  0
  5 22  1  0
  6 11  1  0
  6 24  1  0
  7 13  1  0
  7 16  1  0
  7 25  2  0
  8  9  1  0
  8 10  1  0
  8 18  1  0
  9 15  1  0
  9 21  1  0
 10 23  2  0
 12 13  1  0
 12 21  1  0
 12 27  1  0
 14 26  1  0
 16 20  1  0
 17 18  2  0
 17 19  1  0
 19 23  1  0
 20 24  1  0
 22 26  1  0
M  END
>  <ID>  (1) 
conformer_0

$$$$
