
     RDKit          3D

 17 18  0  0  0  0  0  0  0  0999 V2000
   24.0719   10.2073   31.6167 C   0  0  0  0  0  0  0  0  0  0  0  0
   22.1713   10.9858   23.1493 F   0  0  0  0  0  0  0  0  0  0  0  0
   23.5970    6.6140   28.4070 O   0  0  0  0  0  0  0  0  0  0  0  0
   22.4605   10.5912   24.4116 C   0  0  0  0  0  0  0  0  0  0  0  0
   23.2241    7.4853   26.3225 C   0  0  0  0  0  0  0  0  0  0  0  0
   22.6997    9.2575   24.5929 C   0  0  0  0  0  0  0  0  0  0  0  0
   24.0357    8.0093   30.7517 C   0  0  0  0  0  0  0  0  0  0  0  0
   23.4321    6.2698   25.5680 C   0  0  0  0  0  0  0  0  0  0  0  0
   23.3578    7.5952   27.7135 C   0  0  0  0  0  0  0  0  0  0  0  0
   24.2412    9.4962   30.2737 C   0  0  0  0  0  0  0  0  0  0  0  0
   22.5606    5.1527   25.8896 C   0  0  0  0  0  0  0  0  0  0  0  0
   22.6816   11.0183   26.7560 C   0  0  0  0  0  0  0  0  0  0  0  0
   22.4635   11.4858   25.4648 C   0  0  0  0  0  0  0  0  0  0  0  0
   22.9254    9.6667   26.9223 C   0  0  0  0  0  0  0  0  0  0  0  0
   23.1661    8.9605   28.0614 N   0  0  0  0  0  0  0  0  0  0  0  0
   22.9459    8.7692   25.8506 C   0  0  0  0  0  0  0  0  0  0  0  0
   23.1617    9.8413   29.3357 C   0  0  0  0  0  0  0  0  0  0  0  0
  1 10  1  0
  2  4  1  0
  3  9  2  0
  4  6  2  0
  4 13  1  0
  5  8  1  0
  5  9  1  0
  5 16  2  0
  6 16  1  0
  7 10  1  0
  8 11  1  0
  9 15  1  0
 10 17  1  0
 12 13  1  0
 12 14  2  0
 14 15  1  0
 14 16  1  0
 15 17  1  0
M  END
>  <ID>  (1) 
conformer_0

$$$$
