
     RDKit          3D

 22 25  0  0  0  0  0  0  0  0999 V2000
   25.3730    6.6395   27.4403 C   0  0  0  0  0  0  0  0  0  0  0  0
   22.3720    8.2335   26.8013 C   0  0  0  0  0  0  0  0  0  0  0  0
   22.9959    6.9463   27.3195 C   0  0  0  0  0  0  0  0  0  0  0  0
   22.4365    5.8698   27.0937 O   0  0  0  0  0  0  0  0  0  0  0  0
   25.1126    7.9115   30.2458 C   0  0  0  0  0  0  0  0  0  0  0  0
   24.1571    6.9881   28.1179 N   0  0  0  0  0  0  0  0  0  0  0  0
   22.1517   10.7471   29.9477 F   0  0  0  0  0  0  0  0  0  0  0  0
   22.6861    9.2810   27.8269 C   0  0  0  0  0  0  0  0  0  0  0  0
   23.9718    9.8382   31.1467 C   0  0  0  0  0  0  0  0  0  0  0  0
   23.4048    8.9926   28.9786 C   0  0  0  0  0  0  0  0  0  0  0  0
   22.8117   10.5625   27.1831 C   0  0  0  0  0  0  0  0  0  0  0  0
   22.2663   11.3952   22.5353 O   0  0  0  0  0  0  0  0  0  0  0  0
   22.2372   10.7632   23.6524 C   0  0  0  0  0  0  0  0  0  0  0  0
   24.9574    8.8514   31.2423 C   0  0  0  0  0  0  0  0  0  0  0  0
   22.6480   11.3617   24.8646 C   0  0  0  0  0  0  0  0  0  0  0  0
   22.1108    9.1330   25.4417 C   0  0  0  0  0  0  0  0  0  0  0  0
   22.5278   10.4349   25.8471 C   0  0  0  0  0  0  0  0  0  0  0  0
   23.2397   11.7230   27.6385 O   0  0  0  0  0  0  0  0  0  0  0  0
   23.2105    9.8458   30.0472 C   0  0  0  0  0  0  0  0  0  0  0  0
   24.2827    7.9191   29.1377 C   0  0  0  0  0  0  0  0  0  0  0  0
   21.8135   10.7012   21.4021 C   0  0  0  0  0  0  0  0  0  0  0  0
   21.8584    9.4330   23.9153 C   0  0  0  0  0  0  0  0  0  0  0  0
  1  6  1  0
  2  3  1  0
  2  8  1  0
  2 16  1  0
  3  4  2  0
  3  6  1  0
  5 14  1  0
  5 20  2  0
  6 20  1  0
  7 19  1  0
  8 10  1  0
  8 11  1  0
  9 14  1  0
  9 19  2  0
 10 19  1  0
 10 20  1  0
 11 17  2  0
 11 18  1  0
 12 13  1  0
 12 21  1  0
 13 15  1  0
 13 22  1  0
 15 17  1  0
 16 17  1  0
 16 22  1  0
M  END
>  <ID>  (1) 
conformer_0

$$$$
