
     RDKit          3D

 17 18  0  0  0  0  0  0  0  0999 V2000
   24.3710    7.0006   26.8049 C   0  0  0  0  0  0  0  0  0  0  0  0
   22.4326    8.6148   26.5556 C   0  0  0  0  0  0  0  0  0  0  0  0
   22.5666   12.1867   23.2530 N   0  0  0  0  0  0  0  0  0  0  0  0
   23.0811    6.4408   26.8814 C   0  0  0  0  0  0  0  0  0  0  0  0
   22.9936    9.8035   28.7439 C   0  0  0  0  0  0  0  0  0  0  0  0
   22.3765   10.2411   24.5816 C   0  0  0  0  0  0  0  0  0  0  0  0
   21.2201   10.3890   22.5274 C   0  0  0  0  0  0  0  0  0  0  0  0
   22.9160    8.6168   27.8945 C   0  0  0  0  0  0  0  0  0  0  0  0
   21.7237   11.6569   22.3201 C   0  0  0  0  0  0  0  0  0  0  0  0
   22.8929   11.5327   24.3673 N   0  0  0  0  0  0  0  0  0  0  0  0
   22.7617    9.5649   25.7219 N   0  0  0  0  0  0  0  0  0  0  0  0
   23.9774    8.5547   30.5802 O   0  0  0  0  0  0  0  0  0  0  0  0
   23.8093    7.4835   28.0192 C   0  0  0  0  0  0  0  0  0  0  0  0
   22.1674    7.3192   26.2647 N   0  0  0  0  0  0  0  0  0  0  0  0
   21.5472    9.7054   23.6527 C   0  0  0  0  0  0  0  0  0  0  0  0
   23.6085    9.7113   30.0834 C   0  0  0  0  0  0  0  0  0  0  0  0
   23.5077   10.9472   30.8835 C   0  0  0  0  0  0  0  0  0  0  0  0
  1  4  1  0
  1 13  1  0
  2  8  1  0
  2 11  2  3
  2 14  1  0
  3  9  2  0
  3 10  1  0
  4 14  1  0
  5  8  1  0
  5 16  2  3
  6 10  2  0
  6 11  1  0
  6 15  1  0
  7  9  1  0
  7 15  2  0
  8 13  1  0
 12 16  1  0
 16 17  1  0
M  END
>  <ID>  (1) 
conformer_0

$$$$
