
     RDKit          3D

 29 31  0  0  0  0  0  0  0  0999 V2000
   23.8820    7.5879   27.4641 C   0  0  0  0  0  0  0  0  0  0  0  0
   21.1168    3.9587   26.5202 C   0  0  0  0  0  0  0  0  0  0  0  0
   23.8629   10.3283   31.4636 C   0  0  0  0  0  0  0  0  0  0  0  0
   25.3021    2.6604   27.9867 C   0  0  0  0  0  0  0  0  0  0  0  0
   26.0387    3.7374   28.4096 C   0  0  0  0  0  0  0  0  0  0  0  0
   23.4005   11.1912   30.4974 C   0  0  0  0  0  0  0  0  0  0  0  0
   24.1374    9.0220   31.1512 C   0  0  0  0  0  0  0  0  0  0  0  0
   23.0337   10.7956   25.3352 C   0  0  0  0  0  0  0  0  0  0  0  0
   20.1486    5.1583   26.8709 C   0  0  0  0  0  0  0  0  0  0  0  0
   25.5950    4.9633   28.1677 C   0  0  0  0  0  0  0  0  0  0  0  0
   21.5154    9.4234   24.0470 C   0  0  0  0  0  0  0  0  0  0  0  0
   23.5078    9.4590   28.8817 C   0  0  0  0  0  0  0  0  0  0  0  0
   23.6505    4.0651   27.0173 C   0  0  0  0  0  0  0  0  0  0  0  0
   24.3839    6.4646   26.8201 O   0  0  0  0  0  0  0  0  0  0  0  0
   24.4728    5.1354   27.3650 C   0  0  0  0  0  0  0  0  0  0  0  0
   22.4434    4.2294   26.2450 C   0  0  0  0  0  0  0  0  0  0  0  0
   24.1061    2.8106   27.3274 C   0  0  0  0  0  0  0  0  0  0  0  0
   23.9776    8.5999   29.8726 C   0  0  0  0  0  0  0  0  0  0  0  0
   21.5439   10.4273   23.0915 C   0  0  0  0  0  0  0  0  0  0  0  0
   22.1902    8.7560   26.3272 C   0  0  0  0  0  0  0  0  0  0  0  0
   21.4626    7.3847   28.4925 O   0  0  0  0  0  0  0  0  0  0  0  0
   22.3088   11.5675   23.2150 C   0  0  0  0  0  0  0  0  0  0  0  0
   20.8305   10.2623   21.9861 F   0  0  0  0  0  0  0  0  0  0  0  0
   22.2408    9.6552   25.2140 C   0  0  0  0  0  0  0  0  0  0  0  0
   22.6916    7.0886   28.2085 C   0  0  0  0  0  0  0  0  0  0  0  0
   23.2219   10.7669   29.1851 C   0  0  0  0  0  0  0  0  0  0  0  0
   26.2839    6.1005   28.7479 C   0  0  0  0  0  0  0  0  0  0  0  0
   23.0698   11.7179   24.3581 C   0  0  0  0  0  0  0  0  0  0  0  0
   23.3168    9.1072   27.3582 C   0  0  0  0  0  0  0  0  0  0  0  0
  1 14  1  0
  1 25  1  0
  1 29  1  0
  2  9  1  0
  2 16  1  0
  3  6  2  0
  3  7  1  0
  4  5  1  0
  4 17  1  0
  5 10  2  0
  6 26  1  0
  7 18  2  0
  8 24  2  0
  8 28  1  0
 10 15  1  0
 10 27  1  0
 11 19  2  0
 11 24  1  0
 12 18  1  0
 12 26  2  0
 12 29  1  0
 13 15  1  0
 13 16  1  0
 13 17  2  0
 14 15  1  0
 19 22  1  0
 19 23  1  0
 20 24  1  0
 20 29  1  0
 21 25  1  0
 22 28  2  0
M  END
>  <ID>  (1) 
conformer_0

$$$$
