
     RDKit          3D

 23 25  0  0  0  0  0  0  0  0999 V2000
   22.6768   11.1778   26.2114 N   0  0  0  0  0  0  0  0  0  0  0  0
   23.8198    4.3014   27.4677 O   0  0  0  0  0  0  0  0  0  0  0  0
   24.2722    9.5496   32.0484 C   0  0  0  0  0  0  0  0  0  0  0  0
   22.8900    9.7366   28.3812 C   0  0  0  0  0  0  0  0  0  0  0  0
   22.3812   11.1862   24.8781 C   0  0  0  0  0  0  0  0  0  0  0  0
   22.5902   10.2120   29.8208 C   0  0  0  0  0  0  0  0  0  0  0  0
   25.7419    9.9851   32.3374 C   0  0  0  0  0  0  0  0  0  0  0  0
   22.1133    9.9644   24.2092 C   0  0  0  0  0  0  0  0  0  0  0  0
   21.6366   11.1768   22.2032 C   0  0  0  0  0  0  0  0  0  0  0  0
   22.0475   12.3425   22.8306 C   0  0  0  0  0  0  0  0  0  0  0  0
   22.1621    5.3107   26.2598 O   0  0  0  0  0  0  0  0  0  0  0  0
   23.8389   10.2520   30.7390 C   0  0  0  0  0  0  0  0  0  0  0  0
   23.9312    6.5630   27.0859 C   0  0  0  0  0  0  0  0  0  0  0  0
   22.4287   12.3912   24.1625 C   0  0  0  0  0  0  0  0  0  0  0  0
   23.2439    5.3034   26.9412 C   0  0  0  0  0  0  0  0  0  0  0  0
   25.3021    6.7080   27.4917 C   0  0  0  0  0  0  0  0  0  0  0  0
   22.7420    8.8106   26.2446 C   0  0  0  0  0  0  0  0  0  0  0  0
   23.2411    8.3682   28.4323 C   0  0  0  0  0  0  0  0  0  0  0  0
   23.2111    7.7614   27.1695 C   0  0  0  0  0  0  0  0  0  0  0  0
   22.3373    8.7661   24.9038 C   0  0  0  0  0  0  0  0  0  0  0  0
   21.6803    9.9669   22.8689 C   0  0  0  0  0  0  0  0  0  0  0  0
   22.7407   10.0155   26.9113 C   0  0  0  0  0  0  0  0  0  0  0  0
   23.7098   11.6821   31.2078 O   0  0  0  0  0  0  0  0  0  0  0  0
  1  5  1  0
  1 22  2  0
  2 15  2  0
  3  7  1  0
  3 12  1  0
  4  6  1  0
  4 18  1  0
  4 22  1  0
  5  8  1  0
  5 14  2  0
  6 12  1  0
  8 20  1  0
  8 21  1  0
  9 10  1  0
  9 21  2  0
 10 14  1  0
 11 15  1  0
 12 23  1  0
 13 15  1  0
 13 16  1  0
 13 19  1  0
 17 19  1  0
 17 20  2  0
 17 22  1  0
 18 19  1  0
M  END
>  <ID>  (1) 
conformer_0

$$$$
