
     RDKit          3D

 12 12  0  0  0  0  0  0  0  0999 V2000
   23.3509    9.0208   30.2121 C   0  0  0  0  0  0  0  0  0  0  0  0
   21.8457    9.4394   24.4164 O   0  0  0  0  0  0  0  0  0  0  0  0
   23.2371   11.2590   29.3702 C   0  0  0  0  0  0  0  0  0  0  0  0
   22.9429   10.7512   28.1188 C   0  0  0  0  0  0  0  0  0  0  0  0
   23.5819   10.5810   25.1050 O   0  0  0  0  0  0  0  0  0  0  0  0
   23.0765    8.5306   28.9435 C   0  0  0  0  0  0  0  0  0  0  0  0
   22.7660    9.6618   25.2545 C   0  0  0  0  0  0  0  0  0  0  0  0
   23.4634   10.3762   30.4274 C   0  0  0  0  0  0  0  0  0  0  0  0
   23.7762   10.8688   31.6201 O   0  0  0  0  0  0  0  0  0  0  0  0
   22.9435    9.3842   27.8786 C   0  0  0  0  0  0  0  0  0  0  0  0
   22.8614    8.7960   26.4859 C   0  0  0  0  0  0  0  0  0  0  0  0
   23.8554    7.2766   26.1115 S   0  0  0  0  0  0  0  0  0  0  0  0
  1  6  2  0
  1  8  1  0
  2  7  2  0
  3  4  1  0
  3  8  2  0
  4 10  2  0
  5  7  1  0
  6 10  1  0
  7 11  1  0
  8  9  1  0
 10 11  1  0
 11 12  1  0
M  END
>  <ID>  (1) 
conformer_0

$$$$
