
     RDKit          3D

 23 25  0  0  0  0  0  0  0  0999 V2000
   22.6513    6.2480   26.6575 C   0  0  0  0  0  0  0  0  0  0  0  0
   21.3962    9.8285   23.2725 C   0  0  0  0  0  0  0  0  0  0  0  0
   22.4532   12.3611   23.6090 C   0  0  0  0  0  0  0  0  0  0  0  0
   22.0886    9.1791   25.3799 O   0  0  0  0  0  0  0  0  0  0  0  0
   23.2711    7.6446   26.8110 C   0  0  0  0  0  0  0  0  0  0  0  0
   23.7473    5.2964   27.1210 C   0  0  0  0  0  0  0  0  0  0  0  0
   20.4590   13.8408   21.2220 N   0  0  0  0  0  0  0  0  0  0  0  0
   21.7264   12.0615   22.4526 C   0  0  0  0  0  0  0  0  0  0  0  0
   22.5709    9.8110   27.5777 C   0  0  0  0  0  0  0  0  0  0  0  0
   22.6357    8.9089   26.5442 C   0  0  0  0  0  0  0  0  0  0  0  0
   24.2435    7.5349   27.8584 C   0  0  0  0  0  0  0  0  0  0  0  0
   22.0436   10.1439   24.4187 C   0  0  0  0  0  0  0  0  0  0  0  0
   21.2198   10.7879   22.3183 C   0  0  0  0  0  0  0  0  0  0  0  0
   23.1765    9.5260   28.7655 C   0  0  0  0  0  0  0  0  0  0  0  0
   23.9666    9.2982   30.9636 C   0  0  0  0  0  0  0  0  0  0  0  0
   26.0572    6.1810   26.9824 C   0  0  0  0  0  0  0  0  0  0  0  0
   21.5783   13.0677   21.4045 C   0  0  0  0  0  0  0  0  0  0  0  0
   25.1361    5.5475   29.1431 C   0  0  0  0  0  0  0  0  0  0  0  0
   23.1022   10.3639   30.1761 S   0  0  0  0  0  0  0  0  0  0  0  0
   22.6358   11.3919   24.5927 C   0  0  0  0  0  0  0  0  0  0  0  0
   24.3943    8.3095   30.2325 N   0  0  0  0  0  0  0  0  0  0  0  0
   23.9814    8.3948   28.9432 C   0  0  0  0  0  0  0  0  0  0  0  0
   24.7595    6.1868   27.8028 N   0  0  0  0  0  0  0  0  0  0  0  0
  1  5  1  0
  1  6  1  0
  2 12  2  0
  2 13  1  0
  3  8  1  0
  3 20  2  0
  4 10  1  0
  4 12  1  0
  5 10  1  0
  5 11  1  0
  7 17  1  0
  8 13  2  0
  8 17  1  0
  9 10  2  0
  9 14  1  0
 11 22  1  0
 11 23  1  0
 12 20  1  0
 14 19  1  0
 14 22  2  0
 15 19  1  0
 15 21  1  0
 16 23  1  0
 18 23  1  0
 21 22  1  0
M  END
>  <ID>  (1) 
conformer_0

$$$$
