
     RDKit          3D

 12 12  0  0  0  0  0  0  0  0999 V2000
   24.1457    8.3283   30.8906 C   0  0  0  0  0  0  0  0  0  0  0  0
   23.1764   10.3239   30.0307 C   0  0  0  0  0  0  0  0  0  0  0  0
   23.6884    7.8415   27.2236 C   0  0  0  0  0  0  0  0  0  0  0  0
   24.7502    6.9308   26.8061 C   0  0  0  0  0  0  0  0  0  0  0  0
   24.1001    7.7300   29.6597 C   0  0  0  0  0  0  0  0  0  0  0  0
   23.0545    9.7155   28.7958 C   0  0  0  0  0  0  0  0  0  0  0  0
   23.6015    8.4221   28.5694 C   0  0  0  0  0  0  0  0  0  0  0  0
   23.0375    9.0567   25.1593 C   0  0  0  0  0  0  0  0  0  0  0  0
   23.7315    9.6076   31.0630 C   0  0  0  0  0  0  0  0  0  0  0  0
   22.3746   10.4585   27.8580 O   0  0  0  0  0  0  0  0  0  0  0  0
   22.6212    8.1927   26.2872 C   0  0  0  0  0  0  0  0  0  0  0  0
   21.4223    7.8446   26.6022 O   0  0  0  0  0  0  0  0  0  0  0  0
  1  5  2  0
  1  9  1  0
  2  6  1  0
  2  9  2  0
  3  4  1  0
  3  7  1  0
  3 11  1  0
  5  7  1  0
  6  7  2  0
  6 10  1  0
  8 11  1  0
 11 12  1  0
M  END
>  <ID>  (1) 
conformer_0

$$$$
