
     RDKit          3D

 27 30  0  0  0  0  0  0  0  0999 V2000
   21.6204    9.9388   22.7263 C   0  0  0  0  0  0  0  0  0  0  0  0
   21.8695   12.3225   22.5516 C   0  0  0  0  0  0  0  0  0  0  0  0
   23.3642    7.9011   26.6336 O   0  0  0  0  0  0  0  0  0  0  0  0
   25.0464    6.6303   29.1203 C   0  0  0  0  0  0  0  0  0  0  0  0
   23.0253    9.8069   29.4161 C   0  0  0  0  0  0  0  0  0  0  0  0
   24.6553    8.8508   31.9393 C   0  0  0  0  0  0  0  0  0  0  0  0
   22.5991   10.5926   28.2214 O   0  0  0  0  0  0  0  0  0  0  0  0
   26.1011    4.5689   26.5707 C   0  0  0  0  0  0  0  0  0  0  0  0
   22.0395   10.0601   24.0655 C   0  0  0  0  0  0  0  0  0  0  0  0
   22.1979   11.3181   24.6982 C   0  0  0  0  0  0  0  0  0  0  0  0
   22.7059    9.0718   26.1664 C   0  0  0  0  0  0  0  0  0  0  0  0
   23.5904   10.6592   30.5617 C   0  0  0  0  0  0  0  0  0  0  0  0
   26.5754    6.8757   28.8404 C   0  0  0  0  0  0  0  0  0  0  0  0
   24.3969    7.8000   29.6936 C   0  0  0  0  0  0  0  0  0  0  0  0
   24.4483    5.9592   27.9056 C   0  0  0  0  0  0  0  0  0  0  0  0
   24.1737   10.1995   31.7682 O   0  0  0  0  0  0  0  0  0  0  0  0
   21.4380   13.4165   21.9185 O   0  0  0  0  0  0  0  0  0  0  0  0
   23.8940    7.9058   31.0595 C   0  0  0  0  0  0  0  0  0  0  0  0
   22.3171   12.4222   23.8562 C   0  0  0  0  0  0  0  0  0  0  0  0
   24.0555    8.9226   28.8507 C   0  0  0  0  0  0  0  0  0  0  0  0
   22.6088   10.3369   26.8114 C   0  0  0  0  0  0  0  0  0  0  0  0
   21.7161   11.0642   21.9164 C   0  0  0  0  0  0  0  0  0  0  0  0
   22.4945   11.3575   26.0156 N   0  0  0  0  0  0  0  0  0  0  0  0
   23.8784    6.5986   26.6371 C   0  0  0  0  0  0  0  0  0  0  0  0
   23.3006    5.5522   25.6634 C   0  0  0  0  0  0  0  0  0  0  0  0
   22.2547    8.9497   24.8639 C   0  0  0  0  0  0  0  0  0  0  0  0
   25.0897    4.5929   27.6310 C   0  0  0  0  0  0  0  0  0  0  0  0
  1  9  1  0
  1 22  1  0
  2 17  1  0
  2 19  1  0
  2 22  1  0
  3 11  1  0
  3 24  1  0
  4 13  1  0
  4 14  1  0
  4 15  1  0
  5  7  1  0
  5 12  1  0
  5 20  1  0
  6 16  1  0
  6 18  1  0
  7 21  1  0
  8 27  1  0
  9 10  1  0
  9 26  2  0
 10 19  1  0
 10 23  1  0
 11 21  1  0
 11 26  1  0
 12 16  1  0
 14 18  1  0
 14 20  1  0
 15 24  1  0
 15 27  1  0
 21 23  2  0
 24 25  1  0
M  END
>  <ID>  (1) 
conformer_0

$$$$
