
     RDKit          3D

 28 31  0  0  0  0  0  0  0  0999 V2000
   27.0344    5.3440   27.0057 C   0  0  0  0  0  0  0  0  0  0  0  0
   23.6419    7.7967   25.9685 O   0  0  0  0  0  0  0  0  0  0  0  0
   21.7813    7.8468   28.1954 O   0  0  0  0  0  0  0  0  0  0  0  0
   24.2287    8.3285   31.5815 C   0  0  0  0  0  0  0  0  0  0  0  0
   23.5223    8.6454   30.4842 C   0  0  0  0  0  0  0  0  0  0  0  0
   22.4320    9.9681   28.8951 N   0  0  0  0  0  0  0  0  0  0  0  0
   23.0953    9.8947   30.0952 C   0  0  0  0  0  0  0  0  0  0  0  0
   23.9416   11.3713   31.8821 C   0  0  0  0  0  0  0  0  0  0  0  0
   21.5769   10.0400   23.1358 C   0  0  0  0  0  0  0  0  0  0  0  0
   22.4351   10.2991   25.3561 C   0  0  0  0  0  0  0  0  0  0  0  0
   21.7607    9.5402   24.3969 C   0  0  0  0  0  0  0  0  0  0  0  0
   25.0126    4.4228   26.2037 C   0  0  0  0  0  0  0  0  0  0  0  0
   22.6562    9.8184   26.6711 C   0  0  0  0  0  0  0  0  0  0  0  0
   23.5253    8.7489   26.8683 C   0  0  0  0  0  0  0  0  0  0  0  0
   22.5497    5.6379   25.7902 C   0  0  0  0  0  0  0  0  0  0  0  0
   25.9637    6.3762   27.1371 C   0  0  0  0  0  0  0  0  0  0  0  0
   24.5830   10.4951   32.7347 C   0  0  0  0  0  0  0  0  0  0  0  0
   26.3736    4.0385   26.4462 C   0  0  0  0  0  0  0  0  0  0  0  0
   22.0609   11.2659   22.8206 C   0  0  0  0  0  0  0  0  0  0  0  0
   22.6705    4.2745   25.6708 C   0  0  0  0  0  0  0  0  0  0  0  0
   22.5055    8.9494   27.9194 C   0  0  0  0  0  0  0  0  0  0  0  0
   24.8595    5.7692   26.4342 C   0  0  0  0  0  0  0  0  0  0  0  0
   22.7383   12.0064   23.7643 N   0  0  0  0  0  0  0  0  0  0  0  0
   23.6773    6.3894   26.0604 C   0  0  0  0  0  0  0  0  0  0  0  0
   22.8877   11.5823   25.0420 C   0  0  0  0  0  0  0  0  0  0  0  0
   24.6578    9.1476   32.5643 C   0  0  0  0  0  0  0  0  0  0  0  0
   23.8959    3.6857   25.8374 C   0  0  0  0  0  0  0  0  0  0  0  0
   23.2861   11.0756   30.7537 C   0  0  0  0  0  0  0  0  0  0  0  0
  1 16  1  0
  1 18  1  0
  2 14  1  0
  2 24  1  0
  3 21  2  0
  4  5  1  0
  4 26  2  0
  5  7  2  0
  6  7  1  0
  6 21  1  0
  7 28  1  0
  8 17  1  0
  8 28  2  0
  9 11  2  0
  9 19  1  0
 10 11  1  0
 10 13  1  0
 10 25  2  0
 12 18  1  0
 12 22  2  0
 12 27  1  0
 13 14  1  0
 14 21  1  0
 15 20  1  0
 15 24  2  0
 16 22  1  0
 17 26  1  0
 19 23  2  0
 20 27  2  0
 22 24  1  0
 23 25  1  0
M  END
>  <ID>  (1) 
conformer_0

$$$$
