
     RDKit          3D

 11 10  0  0  0  0  0  0  0  0999 V2000
   23.1614    5.3097   25.6233 C   0  0  0  0  0  0  0  0  0  0  0  0
   21.5878    6.7851   27.1250 C   0  0  0  0  0  0  0  0  0  0  0  0
   22.2683    9.5676   27.9410 O   0  0  0  0  0  0  0  0  0  0  0  0
   23.7702   10.2157   30.2899 C   0  0  0  0  0  0  0  0  0  0  0  0
   23.3020    8.8555   28.2628 C   0  0  0  0  0  0  0  0  0  0  0  0
   24.1421    7.9646   27.4229 C   0  0  0  0  0  0  0  0  0  0  0  0
   23.8684   11.2693   29.6704 O   0  0  0  0  0  0  0  0  0  0  0  0
   24.0243   10.1901   31.6704 N   0  0  0  0  0  0  0  0  0  0  0  0
   23.7808    8.9035   29.6576 C   0  0  0  0  0  0  0  0  0  0  0  0
   22.5591    6.6431   25.9869 C   0  0  0  0  0  0  0  0  0  0  0  0
   23.6770    7.6887   26.0256 C   0  0  0  0  0  0  0  0  0  0  0  0
  1 10  1  0
  2 10  1  0
  3  5  1  0
  4  7  2  0
  4  8  1  0
  4  9  1  0
  5  6  2  3
  5  9  1  0
  6 11  1  0
 10 11  1  0
M  END
>  <ID>  (1) 
conformer_0

$$$$
