
     RDKit          3D

 32 35  0  0  0  0  0  0  0  0999 V2000
   24.2704    7.3420   28.0411 C   0  0  0  0  0  0  0  0  0  0  0  0
   19.9184   14.5818   18.8860 C   0  0  0  0  0  0  0  0  0  0  0  0
   19.4181   15.7571   19.4328 C   0  0  0  0  0  0  0  0  0  0  0  0
   23.1852    9.8517   28.7474 C   0  0  0  0  0  0  0  0  0  0  0  0
   21.6061   13.3008   22.8637 C   0  0  0  0  0  0  0  0  0  0  0  0
   25.3939    7.1546   31.5190 O   0  0  0  0  0  0  0  0  0  0  0  0
   23.1020   11.1678   26.2482 O   0  0  0  0  0  0  0  0  0  0  0  0
   22.9497    5.8443   26.1427 N   0  0  0  0  0  0  0  0  0  0  0  0
   22.8479    9.3315   27.4879 N   0  0  0  0  0  0  0  0  0  0  0  0
   24.7746    6.1729   27.5476 N   0  0  0  0  0  0  0  0  0  0  0  0
   21.0782   13.1019   20.6334 C   0  0  0  0  0  0  0  0  0  0  0  0
   26.1959    6.3421   30.6188 C   0  0  0  0  0  0  0  0  0  0  0  0
   24.1722    5.4486   26.6177 C   0  0  0  0  0  0  0  0  0  0  0  0
   23.4152   11.1047   29.0670 O   0  0  0  0  0  0  0  0  0  0  0  0
   22.2023    9.4016   25.1905 N   0  0  0  0  0  0  0  0  0  0  0  0
   24.7246    4.3593   26.1529 O   0  0  0  0  0  0  0  0  0  0  0  0
   23.6848    8.9144   29.8599 C   0  0  0  0  0  0  0  0  0  0  0  0
   22.5881   11.0262   23.3887 C   0  0  0  0  0  0  0  0  0  0  0  0
   24.8871    8.0525   29.3726 C   0  0  0  0  0  0  0  0  0  0  0  0
   25.3787    8.5253   30.9239 C   0  0  0  0  0  0  0  0  0  0  0  0
   24.6320    7.3292   32.7960 C   0  0  0  0  0  0  0  0  0  0  0  0
   23.1706    7.8994   27.3517 C   0  0  0  0  0  0  0  0  0  0  0  0
   20.3758   15.2161   21.6622 C   0  0  0  0  0  0  0  0  0  0  0  0
   20.9993   13.9659   21.7155 C   0  0  0  0  0  0  0  0  0  0  0  0
   21.9886   12.0011   22.5062 C   0  0  0  0  0  0  0  0  0  0  0  0
   20.5719   13.4930   19.3676 C   0  0  0  0  0  0  0  0  0  0  0  0
   26.3507    7.3935   29.3842 C   0  0  0  0  0  0  0  0  0  0  0  0
   22.6664   10.0240   26.2876 C   0  0  0  0  0  0  0  0  0  0  0  0
   19.6634   16.0080   20.8021 C   0  0  0  0  0  0  0  0  0  0  0  0
   22.4828    7.0886   26.4934 C   0  0  0  0  0  0  0  0  0  0  0  0
   21.9155    9.9678   23.9633 C   0  0  0  0  0  0  0  0  0  0  0  0
   21.6903   11.8903   21.0879 C   0  0  0  0  0  0  0  0  0  0  0  0
  1 10  2  0
  1 19  1  0
  1 22  1  0
  2  3  1  0
  2 26  2  0
  3 29  1  0
  4  9  1  0
  4 14  2  0
  4 17  1  0
  5 24  1  0
  5 25  1  0
  6 12  1  0
  6 21  1  0
  7 28  2  0
  8 13  1  0
  8 30  2  0
  9 22  1  0
  9 28  1  0
 10 13  1  0
 11 24  2  0
 11 26  1  0
 11 32  1  0
 12 27  1  0
 13 16  2  0
 15 28  1  0
 15 31  1  0
 17 19  1  0
 18 25  1  0
 18 31  1  0
 19 20  1  0
 19 27  1  0
 22 30  1  0
 23 24  1  0
 23 29  2  0
 25 32  1  0
M  END
>  <ID>  (1) 
conformer_0

$$$$
