
     RDKit          3D

 13 15  0  0  0  0  0  0  0  0999 V2000
   22.8689   10.0640   27.9908 O   0  0  0  0  0  0  0  0  0  0  0  0
   24.1404    8.1210   27.7677 C   0  0  0  0  0  0  0  0  0  0  0  0
   24.4883    7.8967   30.2676 C   0  0  0  0  0  0  0  0  0  0  0  0
   23.2911    9.1115   27.0259 C   0  0  0  0  0  0  0  0  0  0  0  0
   22.5570    8.3325   25.9907 C   0  0  0  0  0  0  0  0  0  0  0  0
   23.1594    6.9814   25.9317 C   0  0  0  0  0  0  0  0  0  0  0  0
   24.3614    7.0318   26.8141 C   0  0  0  0  0  0  0  0  0  0  0  0
   24.3957    8.5488   31.4878 C   0  0  0  0  0  0  0  0  0  0  0  0
   23.3585   10.4443   30.4138 C   0  0  0  0  0  0  0  0  0  0  0  0
   21.3746    9.0435   25.7560 O   0  0  0  0  0  0  0  0  0  0  0  0
   23.4115    9.7316   29.2173 C   0  0  0  0  0  0  0  0  0  0  0  0
   23.8783    9.8093   31.5535 C   0  0  0  0  0  0  0  0  0  0  0  0
   24.0369    8.5345   29.1201 C   0  0  0  0  0  0  0  0  0  0  0  0
  1  4  1  0
  1 11  1  0
  2  4  1  0
  2  7  1  0
  2 13  1  0
  3  8  1  0
  3 13  1  0
  4  5  1  0
  5  6  1  0
  5 10  1  0
  6  7  1  0
  8 12  2  0
  9 11  1  0
  9 12  1  0
 11 13  2  0
M  END
>  <ID>  (1) 
conformer_0

$$$$
