
     RDKit          3D

 13 14  0  0  0  0  0  0  0  0999 V2000
   22.5714    6.9851   25.9409 O   0  0  0  0  0  0  0  0  0  0  0  0
   22.9560    9.1693   25.1025 C   0  0  0  0  0  0  0  0  0  0  0  0
   22.7005    8.7675   27.4731 C   0  0  0  0  0  0  0  0  0  0  0  0
   22.4564    8.0075   28.6828 C   0  0  0  0  0  0  0  0  0  0  0  0
   24.3251    6.9102   30.0970 O   0  0  0  0  0  0  0  0  0  0  0  0
   22.9874   10.3970   29.1955 C   0  0  0  0  0  0  0  0  0  0  0  0
   23.0336   10.5338   25.3531 C   0  0  0  0  0  0  0  0  0  0  0  0
   22.7532    8.2961   26.1795 C   0  0  0  0  0  0  0  0  0  0  0  0
   21.2973    7.3656   28.7354 O   0  0  0  0  0  0  0  0  0  0  0  0
   23.9950    8.3024   30.5964 C   0  0  0  0  0  0  0  0  0  0  0  0
   22.9765   11.0219   26.6583 C   0  0  0  0  0  0  0  0  0  0  0  0
   22.8682   10.1219   27.7212 C   0  0  0  0  0  0  0  0  0  0  0  0
   22.8138    8.9201   29.8745 C   0  0  0  0  0  0  0  0  0  0  0  0
  1  8  1  0
  2  7  2  0
  2  8  1  0
  3  4  1  0
  3  8  2  0
  3 12  1  0
  4  9  1  0
  4 13  1  0
  5 10  1  0
  6 12  1  0
  6 13  1  0
  7 11  1  0
 10 13  1  0
 11 12  2  0
M  END
>  <ID>  (1) 
conformer_0

$$$$
