
     RDKit          3D

 21 22  0  0  0  0  0  0  0  0999 V2000
   22.1618    8.7970   27.3266 S   0  0  0  0  0  3  0  0  0  0  0  0
   22.8283   11.3475   24.9878 O   0  0  0  0  0  0  0  0  0  0  0  0
   23.6007   10.7829   31.1795 C   0  0  0  0  0  0  0  0  0  0  0  0
   21.6495    7.9441   28.1418 O   0  0  0  0  0  1  0  0  0  0  0  0
   21.2515   10.2760   23.8596 O   0  0  0  0  0  0  0  0  0  0  0  0
   23.3941    6.9473   25.9233 C   0  0  0  0  0  0  0  0  0  0  0  0
   27.0944    6.9879   29.2760 C   0  0  0  0  0  0  0  0  0  0  0  0
   25.0195    7.9897   29.1174 C   0  0  0  0  0  0  0  0  0  0  0  0
   22.2523   10.3269   24.5916 C   0  0  0  0  0  0  0  0  0  0  0  0
   26.5956    8.7152   30.8993 O   0  0  0  0  0  0  0  0  0  0  0  0
   25.9012    9.9394   30.8560 C   0  0  0  0  0  0  0  0  0  0  0  0
   24.5848    6.6590   26.7379 C   0  0  0  0  0  0  0  0  0  0  0  0
   24.4351    9.5875   30.7757 C   0  0  0  0  0  0  0  0  0  0  0  0
   22.0510   10.0956   27.5289 O   0  0  0  0  0  0  0  0  0  0  0  0
   26.1424    7.8032   29.9864 C   0  0  0  0  0  0  0  0  0  0  0  0
   24.1103    8.9392   29.5592 N   0  0  0  0  0  0  0  0  0  0  0  0
   28.1878    6.8143   29.8175 O   0  0  0  0  0  0  0  0  0  0  0  0
   22.8261    9.0673   24.8946 C   0  0  0  0  0  0  0  0  0  0  0  0
   22.8108    8.2763   26.0413 C   0  0  0  0  0  0  0  0  0  0  0  0
   25.1744    7.1077   27.9802 C   0  0  0  0  0  0  0  0  0  0  0  0
   26.4933    6.5250   28.1380 N   0  0  0  0  0  0  0  0  0  0  0  0
  1  4  2  0
  1 14  1  0
  1 19  1  0
  2  9  2  0
  3 13  1  0
  5  9  1  0
  6 12  1  0
  6 19  1  0
  7 15  1  0
  7 17  2  0
  7 21  1  0
  8 15  1  0
  8 16  2  0
  8 20  1  0
  9 18  1  0
 10 11  1  0
 10 15  1  0
 11 13  1  0
 12 20  2  3
 13 16  1  0
 18 19  2  3
 20 21  1  0
M  END
>  <ID>  (1) 
conformer_0

$$$$
