
     RDKit          3D

 25 26  0  0  0  0  0  0  0  0999 V2000
   22.1562   11.8110   23.1858 C   0  0  0  0  0  0  0  0  0  0  0  0
   21.4891   12.1685   21.0267 O   0  0  0  0  0  0  0  0  0  0  0  0
   24.0034    6.4399   26.6505 C   0  0  0  0  0  0  0  0  0  0  0  0
   23.0612   10.8363   27.0867 O   0  0  0  0  0  0  0  0  0  0  0  0
   21.5952   10.5909   22.8224 C   0  0  0  0  0  0  0  0  0  0  0  0
   23.6698    7.8390   27.3118 C   0  0  0  0  0  0  0  0  0  0  0  0
   23.6218    8.9099   28.9866 N   0  0  0  0  0  0  0  0  0  0  0  0
   24.1387   11.0039   32.5214 C   0  0  0  0  0  0  0  0  0  0  0  0
   22.8007    9.8748   26.2111 N   0  0  0  0  0  0  0  0  0  0  0  0
   24.4119    9.6306   32.4903 C   0  0  0  0  0  0  0  0  0  0  0  0
   22.5725    8.5978   26.7005 C   0  0  0  0  0  0  0  0  0  0  0  0
   22.4417   10.3636   24.9465 C   0  0  0  0  0  0  0  0  0  0  0  0
   23.6330    7.5849   28.8047 C   0  0  0  0  0  0  0  0  0  0  0  0
   22.1523   12.8457   22.2303 C   0  0  0  0  0  0  0  0  0  0  0  0
   24.8822    9.0571   33.5549 O   0  0  0  0  0  0  0  0  0  0  0  0
   23.7710    9.5190   30.2044 C   0  0  0  0  0  0  0  0  0  0  0  0
   26.1828    5.4809   27.6223 N   0  0  0  0  0  0  0  0  0  0  0  0
   25.5506    6.3641   26.7091 C   0  0  0  0  0  0  0  0  0  0  0  0
   22.6946   11.6573   24.4727 C   0  0  0  0  0  0  0  0  0  0  0  0
   21.7823    9.6669   23.9449 C   0  0  0  0  0  0  0  0  0  0  0  0
   21.3513    8.1072   26.7987 O   0  0  0  0  0  0  0  0  0  0  0  0
   23.6473   11.6014   31.3866 C   0  0  0  0  0  0  0  0  0  0  0  0
   23.4338   10.9010   30.2348 C   0  0  0  0  0  0  0  0  0  0  0  0
   24.2155    8.8783   31.3231 C   0  0  0  0  0  0  0  0  0  0  0  0
   21.1155   10.5701   21.5832 O   0  0  0  0  0  0  0  0  0  0  0  0
  1  5  2  0
  1 14  1  0
  1 19  1  0
  2 14  1  0
  3  6  1  0
  3 18  1  0
  4  9  1  0
  5 20  1  0
  5 25  1  0
  6 11  1  0
  6 13  1  0
  7 13  1  0
  7 16  2  3
  8 10  1  0
  8 22  1  0
  9 11  1  0
  9 12  1  0
 10 15  1  0
 10 24  2  0
 11 21  2  0
 12 19  1  0
 12 20  1  0
 16 23  1  0
 16 24  1  0
 17 18  1  0
 22 23  2  0
M  END
>  <ID>  (1) 
conformer_0

$$$$
