
     RDKit          3D

 22 23  0  0  0  0  0  0  0  0999 V2000
   24.1282    8.1504   28.5528 C   0  0  0  0  0  0  0  0  0  0  0  0
   23.0439    9.9633   26.5560 C   0  0  0  0  0  0  0  0  0  0  0  0
   22.1606    8.1445   25.3030 C   0  0  0  0  0  0  0  0  0  0  0  0
   25.3601    9.4682   30.7723 C   0  0  0  0  0  0  0  0  0  0  0  0
   22.5550    5.3869   25.9244 O   0  0  0  0  0  1  0  0  0  0  0  0
   21.7988    7.3273   28.4110 O   0  0  0  0  0  0  0  0  0  0  0  0
   22.7444    8.5915   26.4587 C   0  0  0  0  0  0  0  0  0  0  0  0
   21.8932    8.9153   24.2572 C   0  0  0  0  0  0  0  0  0  0  0  0
   23.0510    7.5469   27.6182 C   0  0  0  0  0  0  0  0  0  0  0  0
   23.6343    9.2827   29.1902 N   0  0  0  0  0  0  0  0  0  0  0  0
   25.0519    6.4074   26.1616 O   0  0  0  0  0  0  0  0  0  0  0  0
   23.4284   10.8965   30.9597 C   0  0  0  0  0  0  0  0  0  0  0  0
   25.9101   10.0216   31.9145 C   0  0  0  0  0  0  0  0  0  0  0  0
   21.9247   11.0359   23.2861 O   0  0  0  0  0  0  0  0  0  0  0  0
   23.8980    4.9273   28.0039 O   0  0  0  0  0  0  0  0  0  0  0  0
   25.2311   11.0254   32.5970 C   0  0  0  0  0  0  0  0  0  0  0  0
   24.0031   11.4780   32.1171 C   0  0  0  0  0  0  0  0  0  0  0  0
   22.2022   10.2639   24.3347 C   0  0  0  0  0  0  0  0  0  0  0  0
   22.7724   10.7842   25.4874 C   0  0  0  0  0  0  0  0  0  0  0  0
   26.0168    8.4958   30.1373 O   0  0  0  0  0  0  0  0  0  0  0  0
   23.6564    6.0031   26.8829 P   0  0  0  0  0  4  0  0  0  0  0  0
   24.0993    9.9005   30.2900 C   0  0  0  0  0  0  0  0  0  0  0  0
  1  9  1  0
  1 10  1  0
  2  7  2  0
  2 19  1  0
  3  7  1  0
  3  8  2  0
  4 13  2  0
  4 20  1  0
  4 22  1  0
  5 21  2  0
  6  9  1  0
  7  9  1  0
  8 18  1  0
  9 21  1  0
 10 22  2  3
 11 21  1  0
 12 17  2  0
 12 22  1  0
 13 16  1  0
 14 18  1  0
 15 21  1  0
 16 17  1  0
 18 19  2  0
M  END
>  <ID>  (1) 
conformer_0

$$$$
