
     RDKit          3D

 19 20  0  0  0  0  0  0  0  0999 V2000
   24.0993    9.7579   31.5438 C   0  0  0  0  0  0  0  0  0  0  0  0
   21.4434    9.5927   23.9795 C   0  0  0  0  0  0  0  0  0  0  0  0
   22.3236   11.8823   22.6688 C   0  0  0  0  0  0  0  0  0  0  0  0
   23.0414    9.1836   29.0328 C   0  0  0  0  0  0  0  0  0  0  0  0
   21.4164   11.0413   22.0382 C   0  0  0  0  0  0  0  0  0  0  0  0
   23.3952    8.1423   29.9182 C   0  0  0  0  0  0  0  0  0  0  0  0
   23.7683   10.7901   30.6836 C   0  0  0  0  0  0  0  0  0  0  0  0
   23.0667    6.6468   26.9479 C   0  0  0  0  0  0  0  0  0  0  0  0
   23.2520   10.5100   29.4323 C   0  0  0  0  0  0  0  0  0  0  0  0
   22.4331    7.9785   26.7298 C   0  0  0  0  0  0  0  0  0  0  0  0
   23.2804    9.2697   26.6131 C   0  0  0  0  0  0  0  0  0  0  0  0
   22.3304   10.4627   24.6159 C   0  0  0  0  0  0  0  0  0  0  0  0
   20.9778    9.9084   22.7443 C   0  0  0  0  0  0  0  0  0  0  0  0
   23.9048    8.4373   31.1629 C   0  0  0  0  0  0  0  0  0  0  0  0
   22.3993    8.9402   27.7562 C   0  0  0  0  0  0  0  0  0  0  0  0
   24.3610    6.5936   26.9208 O   0  0  0  0  0  0  0  0  0  0  0  0
   22.7665   11.6133   23.9190 N   0  0  0  0  0  0  0  0  0  0  0  0
   22.3531    5.6486   27.1798 O   0  0  0  0  0  0  0  0  0  0  0  0
   22.7845   10.2783   25.9110 N   0  0  0  0  0  0  0  0  0  0  0  0
  1  7  1  0
  1 14  1  0
  2 12  1  0
  2 13  2  0
  3  5  1  0
  3 17  2  0
  4  6  1  0
  4  9  1  0
  4 15  1  0
  5 13  1  0
  6 14  2  0
  7  9  2  0
  8 10  1  0
  8 16  2  0
  8 18  1  0
 10 15  1  0
 11 15  1  0
 11 19  1  0
 12 17  1  0
 12 19  2  3
M  END
>  <ID>  (1) 
conformer_0

$$$$
