
     RDKit          3D

 20 22  0  0  0  0  0  0  0  0999 V2000
   23.6858    9.1709   30.3357 C   0  0  0  0  0  0  0  0  0  0  0  0
   24.3360    7.9613   30.6083 C   0  0  0  0  0  0  0  0  0  0  0  0
   22.4655   10.8181   27.1706 C   0  0  0  0  0  0  0  0  0  0  0  0
   23.4284    8.4133   28.1069 C   0  0  0  0  0  0  0  0  0  0  0  0
   21.6748   10.1700   22.8618 C   0  0  0  0  0  0  0  0  0  0  0  0
   22.0561   13.6389   22.7752 N   0  0  0  0  0  0  0  0  0  0  0  0
   24.3031    7.3301   28.3595 C   0  0  0  0  0  0  0  0  0  0  0  0
   25.1772    6.8377   27.2738 C   0  0  0  0  0  0  0  0  0  0  0  0
   23.2397    9.4409   29.0597 C   0  0  0  0  0  0  0  0  0  0  0  0
   22.0777   12.3308   23.0246 C   0  0  0  0  0  0  0  0  0  0  0  0
   24.7130    7.9060   33.0233 C   0  0  0  0  0  0  0  0  0  0  0  0
   22.5014    8.4191   27.0540 C   0  0  0  0  0  0  0  0  0  0  0  0
   22.3525    9.6542   26.4093 C   0  0  0  0  0  0  0  0  0  0  0  0
   22.2856   11.7577   24.2314 N   0  0  0  0  0  0  0  0  0  0  0  0
   21.6673   11.3372   22.1507 C   0  0  0  0  0  0  0  0  0  0  0  0
   22.2558    9.5438   25.0429 C   0  0  0  0  0  0  0  0  0  0  0  0
   24.5756    7.0629   29.6393 N   0  0  0  0  0  0  0  0  0  0  0  0
   25.0433    7.7832   31.7207 N   0  0  0  0  0  0  0  0  0  0  0  0
   22.0977   10.4916   24.1413 C   0  0  0  0  0  0  0  0  0  0  0  0
   22.5002   10.5996   28.5911 C   0  0  0  0  0  0  0  0  0  0  0  0
  1  2  2  0
  1  9  1  0
  2 17  1  0
  2 18  1  0
  3 13  1  0
  3 20  1  0
  4  7  1  0
  4  9  1  0
  4 12  1  0
  5 15  1  0
  5 19  1  0
  6 10  2  0
  7  8  1  0
  7 17  1  0
  9 20  1  0
 10 14  1  0
 10 15  1  0
 11 18  1  0
 12 13  1  0
 13 16  2  3
 14 19  1  0
 16 19  1  0
M  END
>  <ID>  (1) 
conformer_0

$$$$
