
     RDKit          3D

 30 33  0  0  0  0  0  0  0  0999 V2000
   23.2285   11.8029   26.3565 N   0  0  0  0  0  0  0  0  0  0  0  0
   25.8421    7.8246   29.4283 C   0  0  0  0  0  0  0  0  0  0  0  0
   21.2636   10.4121   22.3218 C   0  0  0  0  0  0  0  0  0  0  0  0
   24.5999    6.9940   26.3775 O   0  0  0  0  0  0  0  0  0  0  0  0
   21.6920   10.1218   23.5635 C   0  0  0  0  0  0  0  0  0  0  0  0
   22.0111    7.7597   28.2351 O   0  0  0  0  0  0  0  0  0  0  0  0
   22.5865    4.2881   24.7208 O   0  0  0  0  0  0  0  0  0  0  0  0
   23.6303    9.1756   29.0968 C   0  0  0  0  0  0  0  0  0  0  0  0
   22.4665    4.1998   25.9535 C   0  0  0  0  0  0  0  0  0  0  0  0
   23.4151    4.9784   26.9069 C   0  0  0  0  0  0  0  0  0  0  0  0
   23.2446   10.7924   30.9522 C   0  0  0  0  0  0  0  0  0  0  0  0
   24.2541   10.1219   31.8677 C   0  0  0  0  0  0  0  0  0  0  0  0
   22.3260   11.4124   24.1630 N   0  0  0  0  0  0  0  0  0  0  0  0
   25.3311    9.3481   31.1749 C   0  0  0  0  0  0  0  0  0  0  0  0
   21.4758    3.5357   26.5618 O   0  0  0  0  0  0  0  0  0  0  0  0
   26.6240    8.6689   31.6502 C   0  0  0  0  0  0  0  0  0  0  0  0
   27.5455    9.4738   31.9389 O   0  0  0  0  0  0  0  0  0  0  0  0
   22.3399   12.3543   23.1727 C   0  0  0  0  0  0  0  0  0  0  0  0
   26.8174    7.3848   31.7502 O   0  0  0  0  0  0  0  0  0  0  0  0
   21.6517   11.8276   22.0346 C   0  0  0  0  0  0  0  0  0  0  0  0
   21.8370    9.1037   24.4948 C   0  0  0  0  0  0  0  0  0  0  0  0
   22.5827    9.9354   29.8873 C   0  0  0  0  0  0  0  0  0  0  0  0
   23.1923    8.3308   27.9230 C   0  0  0  0  0  0  0  0  0  0  0  0
   25.2993    6.6925   28.6126 C   0  0  0  0  0  0  0  0  0  0  0  0
   23.1111    9.0076   26.7116 N   0  0  0  0  0  0  0  0  0  0  0  0
   22.7311   11.0002   25.4649 C   0  0  0  0  0  0  0  0  0  0  0  0
   24.2745    7.3337   27.7019 C   0  0  0  0  0  0  0  0  0  0  0  0
   22.5035    9.5945   25.6445 C   0  0  0  0  0  0  0  0  0  0  0  0
   24.7417    8.6898   29.9315 C   0  0  0  0  0  0  0  0  0  0  0  0
   24.6249    5.5532   26.1623 C   0  0  0  0  0  0  0  0  0  0  0  0
  1 26  2  0
  2 24  1  0
  2 29  1  0
  3  5  1  0
  3 20  1  0
  4 27  1  0
  4 30  1  0
  5 13  1  0
  5 21  1  0
  6 23  1  0
  7  9  2  0
  8 22  1  0
  8 23  1  0
  8 29  1  0
  9 10  1  0
  9 15  1  0
 10 30  1  0
 11 12  1  0
 11 22  1  0
 12 14  1  0
 13 18  1  0
 13 26  1  0
 14 16  1  0
 14 29  1  0
 16 17  2  0
 16 19  1  0
 18 20  1  0
 21 28  1  0
 23 25  1  0
 23 27  1  0
 24 27  1  0
 25 28  1  0
 26 28  1  0
M  END
>  <ID>  (1) 
conformer_0

$$$$
