
     RDKit          3D

 21 23  0  0  0  0  0  0  0  0999 V2000
   21.0947   10.0560   22.8854 N   0  0  0  0  0  0  0  0  0  0  0  0
   23.1580   10.5207   24.5237 N   0  0  0  0  0  0  0  0  0  0  0  0
   21.4869    6.6825   27.1474 C   0  0  0  0  0  0  0  0  0  0  0  0
   25.6252    9.0022   30.9851 C   0  0  0  0  0  0  0  0  0  0  0  0
   22.5532    9.6182   27.2719 C   0  0  0  0  0  0  0  0  0  0  0  0
   21.9351   11.0896   22.5771 C   0  0  0  0  0  0  0  0  0  0  0  0
   23.8365   12.0428   32.0505 C   0  0  0  0  0  0  0  0  0  0  0  0
   22.7923    7.4078   26.6415 C   0  0  0  0  0  0  0  0  0  0  0  0
   24.1865    6.2119   28.6381 C   0  0  0  0  0  0  0  0  0  0  0  0
   23.8559    9.4163   29.4387 C   0  0  0  0  0  0  0  0  0  0  0  0
   24.9379    8.6902   29.8686 C   0  0  0  0  0  0  0  0  0  0  0  0
   23.0001   11.2805   23.4089 C   0  0  0  0  0  0  0  0  0  0  0  0
   23.1859    8.9725   28.3005 N   0  0  0  0  0  0  0  0  0  0  0  0
   24.1897   10.8653   31.2846 C   0  0  0  0  0  0  0  0  0  0  0  0
   23.4561   10.5342   30.1508 C   0  0  0  0  0  0  0  0  0  0  0  0
   23.5895    7.6749   27.9375 C   0  0  0  0  0  0  0  0  0  0  0  0
   25.2531   10.0972   31.6913 C   0  0  0  0  0  0  0  0  0  0  0  0
   22.4740    8.7943   26.1152 C   0  0  0  0  0  0  0  0  0  0  0  0
   23.6758    6.5517   25.7510 C   0  0  0  0  0  0  0  0  0  0  0  0
   21.2297    9.2560   23.9742 C   0  0  0  0  0  0  0  0  0  0  0  0
   22.2491    9.5056   24.8351 C   0  0  0  0  0  0  0  0  0  0  0  0
  1  6  2  0
  1 20  1  0
  2 12  2  0
  2 21  1  0
  3  8  1  0
  4 11  2  0
  4 17  1  0
  5 13  1  0
  5 18  1  0
  6 12  1  0
  7 14  1  0
  8 16  1  0
  8 18  1  0
  8 19  1  0
  9 16  1  0
 10 11  1  0
 10 13  1  0
 10 15  2  0
 13 16  1  0
 14 15  1  0
 14 17  2  0
 18 21  1  0
 20 21  2  0
M  END
>  <ID>  (1) 
conformer_0

$$$$
