
     RDKit          3D

 18 18  0  0  0  0  0  0  0  0999 V2000
   25.1000    4.6624   28.6068 C   0  0  0  0  0  0  0  0  0  0  0  0
   24.1096    8.1664   28.8538 C   0  0  0  0  0  0  0  0  0  0  0  0
   24.0565    6.8773   28.1089 C   0  0  0  0  0  0  0  0  0  0  0  0
   23.2669   10.0217   30.3874 C   0  0  0  0  0  0  0  0  0  0  0  0
   23.8553    9.1951   27.9487 O   0  0  0  0  0  0  0  0  0  0  0  0
   22.1815   10.7002   23.5106 C   0  0  0  0  0  0  0  0  0  0  0  0
   23.0796    9.8885   24.4325 C   0  0  0  0  0  0  0  0  0  0  0  0
   25.3687    6.1546   28.2196 C   0  0  0  0  0  0  0  0  0  0  0  0
   23.3288    8.4924   30.1375 C   0  0  0  0  0  0  0  0  0  0  0  0
   21.1783    9.3304   25.6143 O   0  0  0  0  0  0  0  0  0  0  0  0
   22.4322    9.8598   25.9828 C   0  0  0  0  0  0  0  0  0  0  0  0
   22.8982   11.1825   26.3509 O   0  0  0  0  0  0  0  0  0  0  0  0
   26.2578    6.1648   26.9457 C   0  0  0  0  0  0  0  0  0  0  0  0
   22.4706    9.2407   27.5252 C   0  0  0  0  0  0  0  0  0  0  0  0
   21.7809    7.9097   27.7215 C   0  0  0  0  0  0  0  0  0  0  0  0
   22.5620    6.0637   26.4569 O   0  0  0  0  0  0  0  0  0  0  0  0
   26.2808    6.8493   29.3080 C   0  0  0  0  0  0  0  0  0  0  0  0
   22.7750    6.8324   27.4412 C   0  0  0  0  0  0  0  0  0  0  0  0
  1  8  1  0
  2  3  1  0
  2  5  1  0
  2  9  1  0
  3  8  1  0
  3 18  1  0
  4  9  1  0
  5 14  1  0
  6  7  1  0
  7 11  1  0
  8 13  1  0
  8 17  1  0
 10 11  1  0
 11 12  1  0
 11 14  1  0
 14 15  1  0
 15 18  1  0
 16 18  2  0
M  END
>  <ID>  (1) 
conformer_0

$$$$
