
     RDKit          3D

 14 14  0  0  0  0  0  0  0  0999 V2000
   24.2604    9.9182   29.7208 C   0  0  0  0  0  0  0  0  0  0  0  0
   22.5246    9.9542   26.4470 N   0  0  0  0  0  0  0  0  0  0  0  0
   21.9089    9.1708   24.4893 N   0  0  0  0  0  0  0  0  0  0  0  0
   23.7683   10.0699   31.1394 C   0  0  0  0  0  0  0  0  0  0  0  0
   22.3992   10.4182   24.2701 C   0  0  0  0  0  0  0  0  0  0  0  0
   22.3958   11.0730   23.0612 N   0  0  0  0  0  0  0  0  0  0  0  0
   22.0558    8.2836   29.2107 C   0  0  0  0  0  0  0  0  0  0  0  0
   22.6711   10.2960   27.8414 C   0  0  0  0  0  0  0  0  0  0  0  0
   23.2855    9.1571   28.7673 C   0  0  0  0  0  0  0  0  0  0  0  0
   24.1260    8.3447   28.0005 O   0  0  0  0  0  0  0  0  0  0  0  0
   24.4112    8.9826   31.9541 C   0  0  0  0  0  0  0  0  0  0  0  0
   22.8392   10.9147   25.4292 N   0  0  0  0  0  0  0  0  0  0  0  0
   24.2684    7.7161   31.3044 O   0  0  0  0  0  0  0  0  0  0  0  0
   22.0082    8.9665   25.7877 C   0  0  0  0  0  0  0  0  0  0  0  0
  1  4  1  0
  1  9  1  0
  2  8  1  0
  2 12  1  0
  2 14  1  0
  3  5  1  0
  3 14  1  0
  4 11  1  0
  5  6  2  0
  5 12  1  0
  7  9  1  0
  8  9  1  0
  9 10  1  0
 11 13  1  0
M  END
>  <ID>  (1) 
conformer_0

$$$$
