
     RDKit          3D

  9  8  0  0  0  0  0  0  0  0999 V2000
   22.6346   10.0754   26.1476 O   0  0  0  0  0  0  0  0  0  0  0  0
   23.5330   10.9722   28.8186 O   0  0  0  0  0  0  0  0  0  0  0  0
   23.6353    8.3415   27.4576 C   0  0  0  0  0  0  0  0  0  0  0  0
   22.7478    8.8188   26.2995 C   0  0  0  0  0  0  0  0  0  0  0  0
   22.9670    8.6800   28.6686 O   0  0  0  0  0  0  0  0  0  0  0  0
   23.1982    9.8780   29.3480 C   0  0  0  0  0  0  0  0  0  0  0  0
   24.4866    7.0962   26.9150 C   0  0  0  0  0  0  0  0  0  0  0  0
   23.5071    9.7417   30.7395 C   0  0  0  0  0  0  0  0  0  0  0  0
   22.0872    7.9545   25.6990 O   0  0  0  0  0  0  0  0  0  0  0  0
  1  4  2  0
  2  6  2  0
  3  4  1  0
  3  5  1  0
  3  7  1  0
  4  9  1  0
  5  6  1  0
  6  8  1  0
M  END
>  <ID>  (1) 
conformer_0

$$$$
