
     RDKit          3D

 14 15  0  0  0  0  0  0  0  0999 V2000
   23.1423   10.9407   24.1164 C   0  0  0  0  0  0  0  0  0  0  0  0
   22.7092   10.0027   25.1608 C   0  0  0  0  0  0  0  0  0  0  0  0
   23.7634    7.9064   29.2494 C   0  0  0  0  0  0  0  0  0  0  0  0
   23.1675    9.0110   28.6729 C   0  0  0  0  0  0  0  0  0  0  0  0
   24.0633    9.1489   31.2808 C   0  0  0  0  0  0  0  0  0  0  0  0
   23.4327   10.2332   30.7106 C   0  0  0  0  0  0  0  0  0  0  0  0
   23.1740   10.1587   26.5023 N   0  0  0  0  0  0  0  0  0  0  0  0
   24.2151    7.9695   30.5460 C   0  0  0  0  0  0  0  0  0  0  0  0
   22.9903   10.1692   29.4231 C   0  0  0  0  0  0  0  0  0  0  0  0
   22.0129    8.8244   25.2066 C   0  0  0  0  0  0  0  0  0  0  0  0
   21.1436   10.3146   22.9166 O   0  0  0  0  0  0  0  0  0  0  0  0
   22.3521   11.1156   22.9155 C   0  0  0  0  0  0  0  0  0  0  0  0
   22.8063    9.1055   27.2924 C   0  0  0  0  0  0  0  0  0  0  0  0
   22.0997    8.2351   26.5464 C   0  0  0  0  0  0  0  0  0  0  0  0
  1  2  1  0
  1 12  1  0
  2  7  1  0
  2 10  1  0
  3  4  1  0
  3  8  2  0
  4  9  1  0
  4 13  1  0
  5  6  1  0
  5  8  1  0
  6  9  2  0
  7 13  1  0
 10 14  1  0
 11 12  1  0
 13 14  1  0
M  END
>  <ID>  (1) 
conformer_0

$$$$
