
     RDKit          3D

 21 22  0  0  0  0  0  0  0  0999 V2000
   22.4826   10.0070   24.8104 C   0  0  0  0  0  0  0  0  0  0  0  0
   23.2980    5.8077   27.4421 C   0  0  0  0  0  0  0  0  0  0  0  0
   22.5089    8.2574   28.2487 N   0  0  0  0  0  0  0  0  0  0  0  0
   22.8728   10.9507   28.5396 O   0  0  0  0  0  0  0  0  0  0  0  0
   21.2857   12.4607   21.5467 C   0  0  0  0  0  0  0  0  0  0  0  0
   22.5475   12.1123   23.5810 C   0  0  0  0  0  0  0  0  0  0  0  0
   24.0974    8.4734   31.5550 C   0  0  0  0  0  0  0  0  0  0  0  0
   24.2006    9.8425   31.6913 C   0  0  0  0  0  0  0  0  0  0  0  0
   24.0549    8.1253   25.4499 C   0  0  0  0  0  0  0  0  0  0  0  0
   21.6275    9.5468   23.8185 C   0  0  0  0  0  0  0  0  0  0  0  0
   22.1232    8.4692   26.9341 C   0  0  0  0  0  0  0  0  0  0  0  0
   21.0656    7.9331   26.5456 O   0  0  0  0  0  0  0  0  0  0  0  0
   21.6695   11.6274   22.6196 C   0  0  0  0  0  0  0  0  0  0  0  0
   22.9236   11.3444   24.6506 N   0  0  0  0  0  0  0  0  0  0  0  0
   23.7328   10.6902   30.6875 C   0  0  0  0  0  0  0  0  0  0  0  0
   23.2265   10.1200   29.5409 C   0  0  0  0  0  0  0  0  0  0  0  0
   21.2273   10.3281   22.7610 C   0  0  0  0  0  0  0  0  0  0  0  0
   23.9972    6.7306   26.2561 C   0  0  0  0  0  0  0  0  0  0  0  0
   23.0023    9.1867   25.9575 C   0  0  0  0  0  0  0  0  0  0  0  0
   23.0951    8.7294   29.4035 C   0  0  0  0  0  0  0  0  0  0  0  0
   23.5408    7.9068   30.4371 C   0  0  0  0  0  0  0  0  0  0  0  0
  1 10  1  0
  1 14  1  0
  1 19  1  0
  2 18  1  0
  3 11  1  0
  3 20  1  0
  4 16  1  0
  5 13  1  0
  6 13  1  0
  6 14  2  0
  7  8  1  0
  7 21  2  0
  8 15  1  0
  9 18  1  0
  9 19  1  0
 10 17  2  0
 11 12  2  0
 11 19  1  0
 13 17  1  0
 15 16  2  0
 16 20  1  0
 20 21  1  0
M  END
>  <ID>  (1) 
conformer_0

$$$$
