
     RDKit          3D

 22 24  0  0  0  0  0  0  0  0999 V2000
   22.7004   11.4280   24.5445 C   0  0  0  0  0  0  0  0  0  0  0  0
   21.1641    9.8344   22.8918 C   0  0  0  0  0  0  0  0  0  0  0  0
   24.2903    9.3839   32.1560 C   0  0  0  0  0  0  0  0  0  0  0  0
   23.8397    7.5497   28.9152 C   0  0  0  0  0  0  0  0  0  0  0  0
   22.7788   10.7270   27.4392 C   0  0  0  0  0  0  0  0  0  0  0  0
   24.5008    6.5572   27.7465 C   0  0  0  0  0  0  0  0  0  0  0  0
   22.3406    9.8431   26.4075 C   0  0  0  0  0  0  0  0  0  0  0  0
   22.3130    8.5846   27.0782 C   0  0  0  0  0  0  0  0  0  0  0  0
   21.5035    7.6259   26.8557 O   0  0  0  0  0  0  0  0  0  0  0  0
   26.1954    6.7563   27.9813 C   0  0  0  0  0  0  0  0  0  0  0  0
   24.5660    8.0821   30.0779 N   0  0  0  0  0  0  0  0  0  0  0  0
   21.2742   11.5347   21.2443 O   0  0  0  0  0  0  0  0  0  0  0  0
   27.0544    7.1327   29.3663 C   0  0  0  0  0  0  0  0  0  0  0  0
   21.6268   11.0738   22.4543 C   0  0  0  0  0  0  0  0  0  0  0  0
   23.5831   10.3721   29.9746 C   0  0  0  0  0  0  0  0  0  0  0  0
   21.4422    9.4180   24.1480 C   0  0  0  0  0  0  0  0  0  0  0  0
   23.0909    8.6107   28.3072 C   0  0  0  0  0  0  0  0  0  0  0  0
   23.1849   10.0249   28.6334 C   0  0  0  0  0  0  0  0  0  0  0  0
   22.8711   12.0250   27.3719 O   0  0  0  0  0  0  0  0  0  0  0  0
   23.9333    9.1708   30.7657 C   0  0  0  0  0  0  0  0  0  0  0  0
   22.4623   11.8339   23.2794 C   0  0  0  0  0  0  0  0  0  0  0  0
   22.1436   10.2243   25.0485 C   0  0  0  0  0  0  0  0  0  0  0  0
  1 21  2  0
  1 22  1  0
  2 14  2  0
  2 16  1  0
  3 20  1  0
  4  6  1  0
  4 11  1  0
  4 17  1  0
  5  7  2  0
  5 18  1  0
  5 19  1  0
  6 10  1  0
  7  8  1  0
  7 22  1  0
  8  9  2  0
  8 17  1  0
 10 13  1  0
 11 20  1  0
 12 14  1  0
 14 21  1  0
 15 18  1  0
 15 20  1  0
 16 22  2  0
 17 18  1  0
M  END
>  <ID>  (1) 
conformer_0

$$$$
