
     RDKit          3D

 23 25  0  0  0  0  0  0  0  0999 V2000
   22.5996    9.3942   24.2800 N   0  0  0  0  0  0  0  0  0  0  0  0
   22.2460   11.0106   22.6149 C   0  0  0  0  0  0  0  0  0  0  0  0
   23.1686   11.2920   25.1293 O   0  0  0  0  0  0  0  0  0  0  0  0
   24.0048    7.7369   28.4506 C   0  0  0  0  0  0  0  0  0  0  0  0
   23.4072    6.4483   26.7530 N   0  0  0  0  0  0  0  0  0  0  0  0
   23.3063    7.6657   27.2301 C   0  0  0  0  0  0  0  0  0  0  0  0
   21.7704   12.3601   22.2733 C   0  0  0  0  0  0  0  0  0  0  0  0
   24.4753    6.5123   28.6667 N   0  0  0  0  0  0  0  0  0  0  0  0
   19.8644   15.1723   20.2726 Cl  0  0  0  0  0  0  0  0  0  0  0  0
   22.3222    8.6299   25.2484 O   0  0  0  0  0  0  0  0  0  0  0  0
   21.1591   14.5981   22.5002 C   0  0  0  0  0  0  0  0  0  0  0  0
   21.1685   12.8047   21.1125 C   0  0  0  0  0  0  0  0  0  0  0  0
   25.3390    9.0613   30.1822 C   0  0  0  0  0  0  0  0  0  0  0  0
   22.5200    8.7235   26.5541 C   0  0  0  0  0  0  0  0  0  0  0  0
   24.1807    8.8315   29.2886 N   0  0  0  0  0  0  0  0  0  0  0  0
   20.7297   14.1939   21.2786 C   0  0  0  0  0  0  0  0  0  0  0  0
   21.9934    9.5565   27.2488 O   0  0  0  0  0  0  0  0  0  0  0  0
   22.6948   10.7572   24.0950 C   0  0  0  0  0  0  0  0  0  0  0  0
   24.1131    5.7700   27.6584 O   0  0  0  0  0  0  0  0  0  0  0  0
   23.2326    9.5103   30.1141 C   0  0  0  0  0  0  0  0  0  0  0  0
   24.4211    9.6071   31.2898 C   0  0  0  0  0  0  0  0  0  0  0  0
   26.3239    8.3660   30.1334 O   0  0  0  0  0  0  0  0  0  0  0  0
   21.8286   13.4062   23.1156 C   0  0  0  0  0  0  0  0  0  0  0  0
  1 10  1  0
  1 18  1  0
  2  7  2  3
  2 18  1  0
  3 18  2  0
  4  6  2  0
  4  8  1  0
  4 15  1  0
  5  6  1  0
  5 19  1  0
  6 14  1  0
  7 12  1  0
  7 23  1  0
  8 19  1  0
  9 16  1  0
 10 14  1  0
 11 16  1  0
 11 23  1  0
 12 16  1  0
 13 15  1  0
 13 21  1  0
 13 22  2  0
 14 17  2  0
 15 20  1  0
 20 21  1  0
M  END
>  <ID>  (1) 
conformer_0

$$$$
