
     RDKit          3D

 17 18  0  0  0  0  0  0  0  0999 V2000
   21.3152    9.5864   23.0181 C   0  0  0  0  0  0  0  0  0  0  0  0
   23.8548    7.9573   29.9994 O   0  0  0  0  0  0  0  0  0  0  0  0
   23.9642    8.8303   31.1708 C   0  0  0  0  0  0  0  0  0  0  0  0
   23.3875   10.7805   29.9206 C   0  0  0  0  0  0  0  0  0  0  0  0
   24.9288    6.8397   26.9118 O   0  0  0  0  0  0  0  0  0  0  0  0
   22.8179   11.0484   24.8499 C   0  0  0  0  0  0  0  0  0  0  0  0
   22.5293   11.5672   23.5721 C   0  0  0  0  0  0  0  0  0  0  0  0
   23.9929    7.3127   25.9947 C   0  0  0  0  0  0  0  0  0  0  0  0
   21.5900    9.0510   24.2656 C   0  0  0  0  0  0  0  0  0  0  0  0
   21.7561   10.8512   22.6740 C   0  0  0  0  0  0  0  0  0  0  0  0
   22.5522    9.2326   26.4455 O   0  0  0  0  0  0  0  0  0  0  0  0
   22.5540    7.3797   28.0278 C   0  0  0  0  0  0  0  0  0  0  0  0
   22.3194    9.7806   25.1917 C   0  0  0  0  0  0  0  0  0  0  0  0
   22.6954    7.8254   26.5952 C   0  0  0  0  0  0  0  0  0  0  0  0
   22.3864    9.7220   29.4189 C   0  0  0  0  0  0  0  0  0  0  0  0
   24.6142   10.1012   30.5642 C   0  0  0  0  0  0  0  0  0  0  0  0
   23.1344    8.5153   28.8960 C   0  0  0  0  0  0  0  0  0  0  0  0
  1  9  2  0
  1 10  1  0
  2  3  1  0
  2 17  1  0
  3 16  1  0
  4 15  1  0
  4 16  1  0
  5  8  1  0
  6  7  1  0
  6 13  2  0
  7 10  2  0
  8 14  1  0
  9 13  1  0
 11 13  1  0
 11 14  1  0
 12 14  1  0
 12 17  1  0
 15 17  1  0
M  END
>  <ID>  (1) 
conformer_0

$$$$
