
     RDKit          3D

 19 21  0  0  0  0  0  0  0  0999 V2000
   25.3762    6.0537   27.0137 O   0  0  0  0  0  0  0  0  0  0  0  0
   21.2527    7.1454   27.7807 O   0  0  0  0  0  0  0  0  0  0  0  0
   22.8380   10.1556   27.5997 C   0  0  0  0  0  0  0  0  0  0  0  0
   22.7647   10.4745   26.1439 C   0  0  0  0  0  0  0  0  0  0  0  0
   24.7199    7.0408   29.1281 C   0  0  0  0  0  0  0  0  0  0  0  0
   22.2498   10.5718   29.0278 C   0  0  0  0  0  0  0  0  0  0  0  0
   23.5929    8.5777   30.5425 O   0  0  0  0  0  0  0  0  0  0  0  0
   22.9918    9.4603   25.3012 C   0  0  0  0  0  0  0  0  0  0  0  0
   22.3807   11.0617   23.8006 C   0  0  0  0  0  0  0  0  0  0  0  0
   23.4948    7.7447   27.0886 C   0  0  0  0  0  0  0  0  0  0  0  0
   22.2381    6.8430   27.1132 C   0  0  0  0  0  0  0  0  0  0  0  0
   23.9826    8.3321   29.3784 C   0  0  0  0  0  0  0  0  0  0  0  0
   23.4693    8.8858   28.1036 C   0  0  0  0  0  0  0  0  0  0  0  0
   22.4817   11.7188   25.0655 O   0  0  0  0  0  0  0  0  0  0  0  0
   22.2179    5.8689   26.3295 O   0  0  0  0  0  0  0  0  0  0  0  0
   24.6979    6.9401   27.6352 C   0  0  0  0  0  0  0  0  0  0  0  0
   23.5983    8.3024   25.7519 N   0  0  0  0  0  0  0  0  0  0  0  0
   22.6479    9.7196   23.9530 C   0  0  0  0  0  0  0  0  0  0  0  0
   22.0069   11.8488   22.3237 Cl  0  0  0  0  0  0  0  0  0  0  0  0
  1 16  2  0
  2 11  2  0
  3  4  1  0
  3  6  1  0
  3 13  1  0
  4  8  1  0
  4 14  1  0
  5 12  1  0
  5 16  1  0
  7 12  2  0
  8 17  1  0
  8 18  1  0
  9 14  1  0
  9 18  1  0
  9 19  1  0
 10 11  1  0
 10 13  1  0
 10 16  1  0
 10 17  1  0
 11 15  1  0
 12 13  1  0
M  END
>  <ID>  (1) 
conformer_0

$$$$
