
     RDKit          3D

 30 34  0  0  0  0  0  0  0  0999 V2000
   23.9648    8.0636   29.9569 C   0  0  0  0  0  0  0  0  0  0  0  0
   22.6497   13.1414   22.8518 Cl  0  0  0  0  0  0  0  0  0  0  0  0
   24.1356    6.5204   26.3841 C   0  0  0  0  0  0  0  0  0  0  0  0
   23.7249    4.2341   25.2102 C   0  0  0  0  0  0  0  0  0  0  0  0
   21.9671    5.3403   26.4276 C   0  0  0  0  0  0  0  0  0  0  0  0
   22.7604   11.1385   24.7205 N   0  0  0  0  0  0  0  0  0  0  0  0
   23.6613    9.0937   29.0977 C   0  0  0  0  0  0  0  0  0  0  0  0
   23.5574    8.9538   27.6271 C   0  0  0  0  0  0  0  0  0  0  0  0
   21.6644    8.0756   26.5855 O   0  0  0  0  0  0  0  0  0  0  0  0
   24.7949    3.3327   25.6314 C   0  0  0  0  0  0  0  0  0  0  0  0
   22.6554    6.7274   28.2148 N   0  0  0  0  0  0  0  0  0  0  0  0
   20.2925    6.5459   27.7520 O   0  0  0  0  0  0  0  0  0  0  0  0
   23.4325    5.2011   26.2592 N   0  0  0  0  0  0  0  0  0  0  0  0
   22.2840   11.6012   23.4733 C   0  0  0  0  0  0  0  0  0  0  0  0
   21.5077    9.1167   24.3040 C   0  0  0  0  0  0  0  0  0  0  0  0
   24.7342   10.1510   33.3917 C   0  0  0  0  0  0  0  0  0  0  0  0
   24.3155   10.7359   32.2092 C   0  0  0  0  0  0  0  0  0  0  0  0
   23.6650   10.2931   29.7663 C   0  0  0  0  0  0  0  0  0  0  0  0
   24.6172    8.0036   32.2894 C   0  0  0  0  0  0  0  0  0  0  0  0
   25.3180    8.1570   34.4846 O   0  0  0  0  0  0  0  0  0  0  0  0
   24.8953    8.7489   33.4252 C   0  0  0  0  0  0  0  0  0  0  0  0
   23.7925    7.4495   27.5251 C   0  0  0  0  0  0  0  0  0  0  0  0
   22.5992    9.3483   26.5528 C   0  0  0  0  0  0  0  0  0  0  0  0
   21.4797   10.8465   22.6599 C   0  0  0  0  0  0  0  0  0  0  0  0
   22.2767    9.8808   25.1680 C   0  0  0  0  0  0  0  0  0  0  0  0
   21.1431    9.5971   23.0906 C   0  0  0  0  0  0  0  0  0  0  0  0
   24.2232    8.5885   31.1689 C   0  0  0  0  0  0  0  0  0  0  0  0
   25.8537    4.1382   26.3191 C   0  0  0  0  0  0  0  0  0  0  0  0
   21.5761    6.6953   27.1854 C   0  0  0  0  0  0  0  0  0  0  0  0
   24.0542    9.9937   31.1136 C   0  0  0  0  0  0  0  0  0  0  0  0
  1  7  1  0
  1 27  1  0
  2 14  1  0
  3 13  1  0
  3 22  1  0
  4 10  1  0
  4 13  1  0
  5 13  1  0
  5 29  1  0
  6 14  2  0
  6 25  1  0
  7  8  1  0
  7 18  1  0
  8 22  1  0
  8 23  1  0
  9 23  1  0
  9 29  1  0
 10 28  1  0
 11 22  1  0
 11 29  1  0
 12 29  1  0
 14 24  1  0
 15 25  2  0
 15 26  1  0
 16 17  1  0
 16 21  1  0
 17 30  2  0
 18 30  1  0
 19 21  1  0
 19 27  2  0
 20 21  2  0
 23 25  1  0
 24 26  2  0
 27 30  1  0
M  END
>  <ID>  (1) 
conformer_0

$$$$
