
     RDKit          3D

 18 19  0  0  0  0  0  0  0  0999 V2000
   23.0939   11.2114   30.1298 C   0  0  0  0  0  0  0  0  0  0  0  0
   24.3965    9.7337   31.5236 C   0  0  0  0  0  0  0  0  0  0  0  0
   23.9327   12.1953   32.5092 Cl  0  0  0  0  0  0  0  0  0  0  0  0
   22.3295    9.1437   26.5857 C   0  0  0  0  0  0  0  0  0  0  0  0
   23.0886   10.2537   29.1316 C   0  0  0  0  0  0  0  0  0  0  0  0
   23.0423    7.9247   27.1959 C   0  0  0  0  0  0  0  0  0  0  0  0
   24.0087    8.1398   28.2071 C   0  0  0  0  0  0  0  0  0  0  0  0
   22.8674   10.9810   25.1230 O   0  0  0  0  0  0  0  0  0  0  0  0
   21.1400    8.9269   25.8930 O   0  0  0  0  0  0  0  0  0  0  0  0
   23.7906   10.9587   31.3009 C   0  0  0  0  0  0  0  0  0  0  0  0
   23.0627    6.6084   26.6334 C   0  0  0  0  0  0  0  0  0  0  0  0
   25.1648    7.3765   28.1903 C   0  0  0  0  0  0  0  0  0  0  0  0
   24.4182    8.8265   30.5197 C   0  0  0  0  0  0  0  0  0  0  0  0
   23.8139    9.0849   29.2775 C   0  0  0  0  0  0  0  0  0  0  0  0
   24.1982    5.8305   26.6966 C   0  0  0  0  0  0  0  0  0  0  0  0
   23.2459    9.8020   25.5464 C   0  0  0  0  0  0  0  0  0  0  0  0
   25.2768    6.2511   27.4617 C   0  0  0  0  0  0  0  0  0  0  0  0
   21.9657    6.1067   26.1196 O   0  0  0  0  0  0  0  0  0  0  0  0
  1  5  2  0
  1 10  1  0
  2 10  2  0
  2 13  1  0
  3 10  1  0
  4  6  1  0
  4  9  1  0
  4 16  1  0
  5 14  1  0
  6  7  1  0
  6 11  1  0
  7 12  1  0
  7 14  1  0
  8 16  1  0
 11 15  2  0
 11 18  1  0
 12 17  2  0
 13 14  2  0
 15 17  1  0
M  END
>  <ID>  (1) 
conformer_0

$$$$
