
     RDKit          3D

 17 18  0  0  0  0  0  0  0  0999 V2000
   22.1719    9.5321   27.3471 C   0  0  0  0  0  0  0  0  0  0  0  0
   25.5931    9.3565   31.7935 C   0  0  0  0  0  0  0  0  0  0  0  0
   22.5989   10.7293   27.6433 O   0  0  0  0  0  0  0  0  0  0  0  0
   22.4159    9.3566   25.0633 C   0  0  0  0  0  0  0  0  0  0  0  0
   22.0126    7.2432   28.1176 O   0  0  0  0  0  0  0  0  0  0  0  0
   22.9188    8.3129   27.7638 C   0  0  0  0  0  0  0  0  0  0  0  0
   23.6595    8.4104   28.9320 O   0  0  0  0  0  0  0  0  0  0  0  0
   24.0744    9.1378   29.9903 C   0  0  0  0  0  0  0  0  0  0  0  0
   23.9280   10.9949   31.4185 C   0  0  0  0  0  0  0  0  0  0  0  0
   25.1194    8.6547   30.7218 C   0  0  0  0  0  0  0  0  0  0  0  0
   21.5201    9.4100   26.1450 O   0  0  0  0  0  0  0  0  0  0  0  0
   23.4560   10.3237   30.3284 C   0  0  0  0  0  0  0  0  0  0  0  0
   23.9559    7.9753   26.6991 C   0  0  0  0  0  0  0  0  0  0  0  0
   26.6987    8.8681   32.5476 C   0  0  0  0  0  0  0  0  0  0  0  0
   22.0395    9.9005   23.9518 O   0  0  0  0  0  0  0  0  0  0  0  0
   24.9717   10.5481   32.1311 N   0  0  0  0  0  0  0  0  0  0  0  0
   23.7438    8.7413   25.3503 C   0  0  0  0  0  0  0  0  0  0  0  0
  1  3  2  0
  1  6  1  0
  1 11  1  0
  2 10  1  0
  2 14  1  0
  2 16  1  0
  4 11  1  0
  4 15  2  0
  4 17  1  0
  5  6  1  0
  6  7  1  0
  6 13  1  0
  7  8  1  0
  8 10  2  0
  8 12  1  0
  9 12  1  0
  9 16  2  0
 13 17  1  0
M  END
>  <ID>  (1) 
conformer_0

$$$$
