
     RDKit          3D

 31 33  0  0  0  0  0  0  0  0999 V2000
   21.7170   12.3416   22.0571 C   0  0  0  0  0  0  0  0  0  0  0  0
   22.5989   10.1684   24.5911 C   0  0  0  0  0  0  0  0  0  0  0  0
   20.8900   14.7591   21.3712 C   0  0  0  0  0  0  0  0  0  0  0  0
   23.4577    8.6906   28.5689 N   0  0  0  0  0  0  0  0  0  0  0  0
   24.2955    8.5147   30.7946 C   0  0  0  0  0  0  0  0  0  0  0  0
   21.3560   12.8731   19.0869 O   0  0  0  0  0  0  0  0  0  0  0  0
   22.4448   10.0220   26.9526 C   0  0  0  0  0  0  0  0  0  0  0  0
   21.1667   15.2013   20.0181 C   0  0  0  0  0  0  0  0  0  0  0  0
   26.0539    5.3638   27.6066 C   0  0  0  0  0  0  0  0  0  0  0  0
   21.7343   14.1747   19.1204 C   0  0  0  0  0  0  0  0  0  0  0  0
   27.5356    5.6188   27.3878 C   0  0  0  0  0  0  0  0  0  0  0  0
   22.7496    8.6878   26.4688 O   0  0  0  0  0  0  0  0  0  0  0  0
   20.8740   13.4739   21.7706 C   0  0  0  0  0  0  0  0  0  0  0  0
   25.7934    4.8288   28.8431 O   0  0  0  0  0  0  0  0  0  0  0  0
   22.1913   10.8314   23.5101 C   0  0  0  0  0  0  0  0  0  0  0  0
   25.6762    7.5504   28.8170 C   0  0  0  0  0  0  0  0  0  0  0  0
   22.8481   10.8833   25.8269 S   0  0  0  0  0  0  0  0  0  0  0  0
   25.6287    4.4300   26.5966 F   0  0  0  0  0  0  0  0  0  0  0  0
   21.5254   11.1325   21.4500 C   0  0  0  0  0  0  0  0  0  0  0  0
   22.7776   10.0200   28.3730 C   0  0  0  0  0  0  0  0  0  0  0  0
   23.9598    6.6689   27.1360 C   0  0  0  0  0  0  0  0  0  0  0  0
   23.6330    6.1543   25.8924 O   0  0  0  0  0  0  0  0  0  0  0  0
   24.6586    8.5145   29.3034 C   0  0  0  0  0  0  0  0  0  0  0  0
   20.1762   15.9279   19.4817 O   0  0  0  0  0  0  0  0  0  0  0  0
   22.9943    7.7815   27.5662 C   0  0  0  0  0  0  0  0  0  0  0  0
   21.7988    7.1669   27.9740 O   0  0  0  0  0  0  0  0  0  0  0  0
   23.7024   11.0804   31.3072 C   0  0  0  0  0  0  0  0  0  0  0  0
   21.6373   10.2004   22.4069 C   0  0  0  0  0  0  0  0  0  0  0  0
   23.4143    9.7215   30.9943 C   0  0  0  0  0  0  0  0  0  0  0  0
   22.2152   12.1302   23.2772 N   0  0  0  0  0  0  0  0  0  0  0  0
   25.3495    6.7593   27.5827 C   0  0  0  0  0  0  0  0  0  0  0  0
  1 13  1  0
  1 19  1  0
  1 30  1  0
  2 15  1  0
  2 17  1  0
  3  8  1  0
  3 13  1  0
  4 20  1  0
  4 23  1  0
  4 25  1  0
  5 23  1  0
  5 29  1  0
  6 10  1  0
  7 12  1  0
  7 17  1  0
  7 20  1  0
  8 10  1  0
  8 24  1  0
  9 11  1  0
  9 14  1  0
  9 18  1  0
  9 31  1  0
 12 25  1  0
 15 28  1  0
 15 30  1  0
 16 23  1  0
 16 31  1  0
 19 28  1  0
 21 22  1  0
 21 25  1  0
 21 31  1  0
 25 26  1  0
 27 29  1  0
M  END
>  <ID>  (1) 
conformer_0

$$$$
