
     RDKit          3D

 13 13  0  0  0  0  0  0  0  0999 V2000
   22.4068    8.8004   27.0126 C   0  0  0  0  0  0  0  0  0  0  0  0
   23.1559   11.0042   25.1977 O   0  0  0  0  0  0  0  0  0  0  0  0
   23.4799    8.7653   28.1212 C   0  0  0  0  0  0  0  0  0  0  0  0
   24.4237    6.5936   26.4460 C   0  0  0  0  0  0  0  0  0  0  0  0
   23.7574    9.9595   30.1582 O   0  0  0  0  0  0  0  0  0  0  0  0
   21.6661    9.7553   24.1764 O   0  0  0  0  0  0  0  0  0  0  0  0
   21.7056    9.2129   29.5251 O   0  0  0  0  0  0  0  0  0  0  0  0
   22.6331    9.9179   24.9128 C   0  0  0  0  0  0  0  0  0  0  0  0
   23.2036    8.7451   25.6500 C   0  0  0  0  0  0  0  0  0  0  0  0
   22.2760    7.7517   26.0745 C   0  0  0  0  0  0  0  0  0  0  0  0
   24.4388    7.5805   27.6951 C   0  0  0  0  0  0  0  0  0  0  0  0
   22.9383    9.4102   29.3954 C   0  0  0  0  0  0  0  0  0  0  0  0
   22.9080    6.3588   26.0882 C   0  0  0  0  0  0  0  0  0  0  0  0
  1  3  1  0
  1 10  1  0
  2  8  2  0
  3 11  1  0
  3 12  1  0
  4 11  1  0
  4 13  1  0
  5 12  2  0
  6  8  1  0
  7 12  1  0
  8  9  1  0
  9 10  1  0
 10 13  1  0
M  END
>  <ID>  (1) 
conformer_0

$$$$
