
     RDKit          3D

 25 28  0  0  0  0  0  0  0  0999 V2000
   23.4194    5.3016   27.1829 C   0  0  0  0  0  0  0  0  0  0  0  0
   23.1830    3.5191   24.7603 C   0  0  0  0  0  0  0  0  0  0  0  0
   22.6767    9.6167   26.1200 C   0  0  0  0  0  0  0  0  0  0  0  0
   23.2417   10.2398   30.4177 C   0  0  0  0  0  0  0  0  0  0  0  0
   22.4502   10.2297   24.8913 C   0  0  0  0  0  0  0  0  0  0  0  0
   21.7619   10.4043   22.7840 C   0  0  0  0  0  0  0  0  0  0  0  0
   21.9918   12.9202   22.4773 C   0  0  0  0  0  0  0  0  0  0  0  0
   22.7987    8.0170   27.6611 C   0  0  0  0  0  0  0  0  0  0  0  0
   24.9401    8.7733   29.5205 C   0  0  0  0  0  0  0  0  0  0  0  0
   25.6898    8.9134   30.6139 C   0  0  0  0  0  0  0  0  0  0  0  0
   23.7216    9.4328   29.4196 C   0  0  0  0  0  0  0  0  0  0  0  0
   23.6079    4.0335   27.5624 C   0  0  0  0  0  0  0  0  0  0  0  0
   24.0133   10.3506   31.5638 C   0  0  0  0  0  0  0  0  0  0  0  0
   23.1765    5.7221   25.8742 C   0  0  0  0  0  0  0  0  0  0  0  0
   22.0007    9.5027   23.8243 N   0  0  0  0  0  0  0  0  0  0  0  0
   23.0208    9.2375   28.2119 C   0  0  0  0  0  0  0  0  0  0  0  0
   22.6011   11.5688   24.5258 C   0  0  0  0  0  0  0  0  0  0  0  0
   22.8195   10.2033   27.2949 N   0  0  0  0  0  0  0  0  0  0  0  0
   23.0474    7.1279   25.4650 C   0  0  0  0  0  0  0  0  0  0  0  0
   22.1227   11.6525   23.1943 C   0  0  0  0  0  0  0  0  0  0  0  0
   22.7604    8.2125   26.3143 N   0  0  0  0  0  0  0  0  0  0  0  0
   23.3956    2.4674   25.6372 C   0  0  0  0  0  0  0  0  0  0  0  0
   23.1038    4.8021   24.8571 C   0  0  0  0  0  0  0  0  0  0  0  0
   23.6054    2.8176   26.9952 C   0  0  0  0  0  0  0  0  0  0  0  0
   25.2407    9.7118   31.6614 C   0  0  0  0  0  0  0  0  0  0  0  0
  1 12  1  0
  1 14  2  0
  2 22  1  0
  2 23  2  0
  3  5  1  0
  3 18  2  0
  3 21  1  0
  4 11  2  0
  4 13  1  0
  5 15  1  0
  5 17  1  0
  6 15  1  0
  6 20  1  0
  7 20  1  0
  8 16  1  0
  8 21  1  0
  9 10  2  0
  9 11  1  0
 10 25  1  0
 11 16  1  0
 12 24  2  0
 13 25  2  0
 14 19  1  0
 14 23  1  0
 16 18  1  0
 17 20  1  0
 19 21  1  0
 22 24  1  0
M  END
>  <ID>  (1) 
conformer_0

$$$$
