
     RDKit          3D

  9  9  0  0  0  0  0  0  0  0999 V2000
   22.5894    9.4444   25.5240 C   0  0  0  0  0  0  0  0  0  0  0  0
   23.5432    8.4024   27.9103 C   0  0  0  0  0  0  0  0  0  0  0  0
   23.7641    7.7337   26.7413 C   0  0  0  0  0  0  0  0  0  0  0  0
   22.5285   10.2807   29.2234 C   0  0  0  0  0  0  0  0  0  0  0  0
   22.0816    9.8810   24.3465 O   0  0  0  0  0  0  0  0  0  0  0  0
   22.3724   10.1409   26.6857 C   0  0  0  0  0  0  0  0  0  0  0  0
   22.8183    9.6015   27.9128 C   0  0  0  0  0  0  0  0  0  0  0  0
   23.3813    9.9758   30.2756 N   0  0  0  0  0  0  0  0  0  0  0  0
   23.3036    8.2289   25.5225 C   0  0  0  0  0  0  0  0  0  0  0  0
  1  5  1  0
  1  6  2  0
  1  9  1  0
  2  3  2  0
  2  7  1  0
  3  9  1  0
  4  7  1  0
  4  8  1  0
  6  7  1  0
M  END
>  <ID>  (1) 
conformer_0

$$$$
