
     RDKit          3D

 15 16  0  0  0  0  0  0  0  0999 V2000
   23.1040    8.2064   28.0199 C   0  0  0  0  0  0  0  0  0  0  0  0
   22.1372    9.7707   24.8098 C   0  0  0  0  0  0  0  0  0  0  0  0
   22.5201   10.5995   28.4460 C   0  0  0  0  0  0  0  0  0  0  0  0
   23.7610    6.4579   26.6979 C   0  0  0  0  0  0  0  0  0  0  0  0
   22.9401    9.2631   28.9317 C   0  0  0  0  0  0  0  0  0  0  0  0
   22.6216   10.7820   24.1315 O   0  0  0  0  0  0  0  0  0  0  0  0
   24.8615    5.7933   26.0724 C   0  0  0  0  0  0  0  0  0  0  0  0
   22.5705   10.7727   27.0265 C   0  0  0  0  0  0  0  0  0  0  0  0
   22.5038    9.6088   26.1879 C   0  0  0  0  0  0  0  0  0  0  0  0
   22.6618    7.1134   26.1638 O   0  0  0  0  0  0  0  0  0  0  0  0
   22.3693    8.2917   26.8079 C   0  0  0  0  0  0  0  0  0  0  0  0
   23.4375   10.4982   30.8915 C   0  0  0  0  0  0  0  0  0  0  0  0
   22.9968   11.8562   26.5644 O   0  0  0  0  0  0  0  0  0  0  0  0
   24.2447    7.3794   27.7280 C   0  0  0  0  0  0  0  0  0  0  0  0
   23.2928    9.1067   30.3338 C   0  0  0  0  0  0  0  0  0  0  0  0
  1  5  1  0
  1 11  1  0
  1 14  1  0
  2  6  1  0
  2  9  1  0
  3  5  2  0
  3  8  1  0
  4  7  1  0
  4 10  1  0
  4 14  1  0
  5 15  1  0
  8  9  1  0
  8 13  2  0
  9 11  1  0
 10 11  1  0
 12 15  1  0
M  END
>  <ID>  (1) 
conformer_0

$$$$
