
     RDKit          3D

 21 22  0  0  0  0  0  0  0  0999 V2000
   22.8999   10.8470   28.1482 O   0  0  0  0  0  0  0  0  0  0  0  0
   22.3019   10.4064   24.1637 C   0  0  0  0  0  0  0  0  0  0  0  0
   22.9438    5.0543   25.8809 O   0  0  0  0  0  0  0  0  0  0  0  0
   23.4483    7.1051   26.7213 C   0  0  0  0  0  0  0  0  0  0  0  0
   22.8106    8.0710   25.8295 C   0  0  0  0  0  0  0  0  0  0  0  0
   21.9242   13.4289   21.8588 C   0  0  0  0  0  0  0  0  0  0  0  0
   22.2034   11.7001   23.5572 C   0  0  0  0  0  0  0  0  0  0  0  0
   21.7660   11.9866   22.2468 C   0  0  0  0  0  0  0  0  0  0  0  0
   23.9108    5.8218   26.3020 C   0  0  0  0  0  0  0  0  0  0  0  0
   22.9001    9.6716   27.6608 C   0  0  0  0  0  0  0  0  0  0  0  0
   25.3387    5.7393   26.7170 C   0  0  0  0  0  0  0  0  0  0  0  0
   22.7672   10.5102   25.4862 C   0  0  0  0  0  0  0  0  0  0  0  0
   21.5081   10.9800   21.3847 O   0  0  0  0  0  0  0  0  0  0  0  0
   21.6888    9.3360   23.7278 F   0  0  0  0  0  0  0  0  0  0  0  0
   25.5442    6.8451   27.7031 C   0  0  0  0  0  0  0  0  0  0  0  0
   22.6458   12.6774   24.2424 O   0  0  0  0  0  0  0  0  0  0  0  0
   23.1346    8.5074   28.5728 C   0  0  0  0  0  0  0  0  0  0  0  0
   21.7835    8.0040   28.7385 O   0  0  0  0  0  0  0  0  0  0  0  0
   20.7112   13.8322   21.0687 C   0  0  0  0  0  0  0  0  0  0  0  0
   24.2497    7.6531   27.8152 C   0  0  0  0  0  0  0  0  0  0  0  0
   22.4290    9.3917   26.3422 C   0  0  0  0  0  0  0  0  0  0  0  0
  1 10  2  0
  2  7  1  0
  2 12  1  0
  2 14  1  0
  3  9  1  0
  4  5  1  0
  4  9  1  0
  4 20  1  0
  5 21  1  0
  6  8  1  0
  6 19  1  0
  7  8  1  0
  7 16  2  0
  8 13  1  0
  9 11  1  0
 10 17  1  0
 10 21  1  0
 11 15  1  0
 12 21  1  0
 15 20  1  0
 17 18  1  0
 17 20  1  0
M  END
>  <ID>  (1) 
conformer_0

$$$$
