
     RDKit          3D

 20 21  0  0  0  0  0  0  0  0999 V2000
   21.6271    9.4420   24.5740 C   0  0  0  0  0  0  0  0  0  0  0  0
   22.2526   11.5027   23.4991 C   0  0  0  0  0  0  0  0  0  0  0  0
   24.5887    7.2050   29.4499 C   0  0  0  0  0  0  0  0  0  0  0  0
   23.8871    6.5693   28.4356 N   0  0  0  0  0  0  0  0  0  0  0  0
   25.6275    6.4466   30.2660 C   0  0  0  0  0  0  0  0  0  0  0  0
   24.3288    8.5599   29.7614 C   0  0  0  0  0  0  0  0  0  0  0  0
   22.8720    8.6542   27.8033 C   0  0  0  0  0  0  0  0  0  0  0  0
   22.2244   12.2586   22.4043 O   0  0  0  0  0  0  0  0  0  0  0  0
   22.2423    9.9086   25.7131 C   0  0  0  0  0  0  0  0  0  0  0  0
   22.9399   11.9113   24.6369 C   0  0  0  0  0  0  0  0  0  0  0  0
   22.1350    9.2640   26.8829 O   0  0  0  0  0  0  0  0  0  0  0  0
   24.9279    9.2470   30.9916 C   0  0  0  0  0  0  0  0  0  0  0  0
   22.1693    6.6743   26.6996 O   0  0  0  0  0  0  0  0  0  0  0  0
   23.1265   10.6976   29.3243 C   0  0  0  0  0  0  0  0  0  0  0  0
   22.9335   11.1215   25.7238 C   0  0  0  0  0  0  0  0  0  0  0  0
   23.0122    7.2576   27.6595 C   0  0  0  0  0  0  0  0  0  0  0  0
   22.6653    5.5559   25.9978 C   0  0  0  0  0  0  0  0  0  0  0  0
   20.9542    9.9280   22.3167 O   0  0  0  0  0  0  0  0  0  0  0  0
   21.5964   10.2584   23.4592 C   0  0  0  0  0  0  0  0  0  0  0  0
   23.4460    9.2572   28.9274 C   0  0  0  0  0  0  0  0  0  0  0  0
  1  9  2  0
  1 19  1  0
  2  8  1  0
  2 10  2  0
  2 19  1  0
  3  4  2  0
  3  5  1  0
  3  6  1  0
  4 16  1  0
  6 12  1  0
  6 20  2  0
  7 11  1  0
  7 16  2  0
  7 20  1  0
  9 11  1  0
  9 15  1  0
 10 15  1  0
 13 16  1  0
 13 17  1  0
 14 20  1  0
 18 19  1  0
M  END
>  <ID>  (1) 
conformer_0

$$$$
