
     RDKit          3D

 29 33  0  0  0  0  0  0  0  0999 V2000
   22.6418    5.8961   26.3889 C   0  0  0  0  0  0  0  0  0  0  0  0
   23.0834   10.6095   28.7136 C   0  0  0  0  0  0  0  0  0  0  0  0
   22.7166    7.8747   27.9500 C   0  0  0  0  0  0  0  0  0  0  0  0
   22.6901    9.7213   26.3577 C   0  0  0  0  0  0  0  0  0  0  0  0
   25.7398    5.8255   26.8967 C   0  0  0  0  0  0  0  0  0  0  0  0
   26.9943    6.3261   27.6214 C   0  0  0  0  0  0  0  0  0  0  0  0
   22.5823    7.3840   26.5319 C   0  0  0  0  0  0  0  0  0  0  0  0
   24.4756    9.0193   30.9640 C   0  0  0  0  0  0  0  0  0  0  0  0
   23.3245    5.1248   27.4982 C   0  0  0  0  0  0  0  0  0  0  0  0
   24.6937    5.5445   27.9408 C   0  0  0  0  0  0  0  0  0  0  0  0
   23.9382    7.6706   28.8071 C   0  0  0  0  0  0  0  0  0  0  0  0
   22.6188    9.4265   27.8281 C   0  0  0  0  0  0  0  0  0  0  0  0
   22.2183    8.5388   25.6188 C   0  0  0  0  0  0  0  0  0  0  0  0
   22.3041   11.3899   23.1465 C   0  0  0  0  0  0  0  0  0  0  0  0
   21.9166    9.1289   24.3240 C   0  0  0  0  0  0  0  0  0  0  0  0
   25.9681    5.6100   31.1498 C   0  0  0  0  0  0  0  0  0  0  0  0
   26.0063    6.2417   29.8214 C   0  0  0  0  0  0  0  0  0  0  0  0
   23.8697    8.5625   29.8466 O   0  0  0  0  0  0  0  0  0  0  0  0
   24.0092   10.2849   31.3642 O   0  0  0  0  0  0  0  0  0  0  0  0
   23.3213   11.7430   27.9768 O   0  0  0  0  0  0  0  0  0  0  0  0
   22.2740   10.4697   24.2247 C   0  0  0  0  0  0  0  0  0  0  0  0
   21.2649   11.6769   22.3847 O   0  0  0  0  0  0  0  0  0  0  0  0
   24.4876    8.0850   32.1078 C   0  0  0  0  0  0  0  0  0  0  0  0
   23.5526   11.0077   30.1643 C   0  0  0  0  0  0  0  0  0  0  0  0
   22.8023   10.8209   25.4798 C   0  0  0  0  0  0  0  0  0  0  0  0
   21.5813    7.4769   28.6952 O   0  0  0  0  0  0  0  0  0  0  0  0
   23.3902    3.6363   27.1530 C   0  0  0  0  0  0  0  0  0  0  0  0
   24.7708    6.4550   29.0728 C   0  0  0  0  0  0  0  0  0  0  0  0
   27.0359    5.5508   28.9582 C   0  0  0  0  0  0  0  0  0  0  0  0
  1  7  1  0
  1  9  1  0
  2 12  1  0
  2 20  1  0
  2 24  1  0
  3  7  1  0
  3 11  1  0
  3 12  1  0
  3 26  1  0
  4 12  1  0
  4 13  1  0
  4 25  1  0
  5  6  1  0
  5 10  1  0
  6 29  1  0
  7 13  1  0
  8 18  1  0
  8 19  1  0
  8 23  1  0
  9 10  1  0
  9 27  1  0
 10 28  1  0
 11 18  1  0
 11 28  1  0
 13 15  1  0
 14 21  1  0
 14 22  1  0
 15 21  1  0
 16 17  1  0
 17 28  1  0
 17 29  1  0
 19 24  1  0
 21 25  1  0
M  END
>  <ID>  (1) 
conformer_0

$$$$
