
     RDKit          3D

 21 21  0  0  0  0  0  0  0  0999 V2000
   24.3885    8.8403   29.0592 N   0  0  0  0  0  0  0  0  0  0  0  0
   22.3761   12.3025   23.0094 C   0  0  0  0  0  0  0  0  0  0  0  0
   25.1131    7.6676   28.6019 C   0  0  0  0  0  0  0  0  0  0  0  0
   25.7366    5.3965   26.1961 O   0  0  0  0  0  0  0  0  0  0  0  0
   24.8856    5.7010   27.0334 C   0  0  0  0  0  0  0  0  0  0  0  0
   24.4575    4.8412   27.9061 O   0  0  0  0  0  0  0  0  0  0  0  0
   22.7432   11.8129   24.2495 C   0  0  0  0  0  0  0  0  0  0  0  0
   21.9393    8.0124   29.2852 O   0  0  0  0  0  0  0  0  0  0  0  0
   21.6019   11.5160   22.1601 C   0  0  0  0  0  0  0  0  0  0  0  0
   22.5494    8.7372   26.2396 C   0  0  0  0  0  0  0  0  0  0  0  0
   22.6534   10.0511   25.8863 N   0  0  0  0  0  0  0  0  0  0  0  0
   24.5714    7.1206   27.3107 C   0  0  0  0  0  0  0  0  0  0  0  0
   22.9478    9.0659   28.9252 C   0  0  0  0  0  0  0  0  0  0  0  0
   22.3178   10.5347   24.6571 C   0  0  0  0  0  0  0  0  0  0  0  0
   22.5539   10.3297   29.7611 C   0  0  0  0  0  0  0  0  0  0  0  0
   21.5988    9.7703   23.7653 C   0  0  0  0  0  0  0  0  0  0  0  0
   21.2661   11.9982   20.9535 F   0  0  0  0  0  0  0  0  0  0  0  0
   23.7196   10.8129   30.6786 C   0  0  0  0  0  0  0  0  0  0  0  0
   21.4778    8.1274   26.3042 O   0  0  0  0  0  0  0  0  0  0  0  0
   21.2275   10.2406   22.5397 C   0  0  0  0  0  0  0  0  0  0  0  0
   23.7161    7.9934   26.5793 N   0  0  0  0  0  0  0  0  0  0  0  0
  1  3  1  0
  1 13  1  0
  2  7  2  0
  2  9  1  0
  3 12  1  0
  4  5  2  0
  5  6  1  0
  5 12  1  0
  7 14  1  0
  8 13  1  0
  9 17  1  0
  9 20  2  0
 10 11  1  0
 10 19  2  0
 10 21  1  0
 11 14  2  3
 12 21  1  0
 13 15  1  0
 14 16  1  0
 15 18  1  0
 16 20  1  0
M  END
>  <ID>  (1) 
conformer_0

$$$$
