
     RDKit          3D

 29 33  0  0  0  0  0  0  0  0999 V2000
   20.7824   10.8763   22.0366 O   0  0  0  0  0  0  0  0  0  0  0  0
   22.4021    9.7816   26.3513 C   0  0  0  0  0  0  0  0  0  0  0  0
   22.2514    4.9420   26.5027 C   0  0  0  0  0  0  0  0  0  0  0  0
   21.8224    6.0713   27.1628 C   0  0  0  0  0  0  0  0  0  0  0  0
   21.7725    9.0937   25.3671 C   0  0  0  0  0  0  0  0  0  0  0  0
   22.2084   11.4290   22.5793 C   0  0  0  0  0  0  0  0  0  0  0  0
   24.0697    6.9460   26.9739 C   0  0  0  0  0  0  0  0  0  0  0  0
   24.7852    9.7291   31.4586 C   0  0  0  0  0  0  0  0  0  0  0  0
   23.1008   10.5068   28.4070 N   0  0  0  0  0  0  0  0  0  0  0  0
   23.5617    4.8093   26.1083 C   0  0  0  0  0  0  0  0  0  0  0  0
   26.4744    7.9776   32.7758 C   0  0  0  0  0  0  0  0  0  0  0  0
   22.1846   10.8646   23.8461 C   0  0  0  0  0  0  0  0  0  0  0  0
   22.7013    8.5076   29.6914 C   0  0  0  0  0  0  0  0  0  0  0  0
   26.9790    8.8009   31.7766 C   0  0  0  0  0  0  0  0  0  0  0  0
   21.3839    4.0079   26.2137 F   0  0  0  0  0  0  0  0  0  0  0  0
   22.7487   11.6092   24.8867 C   0  0  0  0  0  0  0  0  0  0  0  0
   22.7566    7.0388   27.4504 C   0  0  0  0  0  0  0  0  0  0  0  0
   24.4631    5.7888   26.3252 C   0  0  0  0  0  0  0  0  0  0  0  0
   24.2983    8.9126   32.4674 C   0  0  0  0  0  0  0  0  0  0  0  0
   21.6550    9.6349   24.1035 C   0  0  0  0  0  0  0  0  0  0  0  0
   22.3462    8.1923   28.3259 C   0  0  0  0  0  0  0  0  0  0  0  0
   22.8389   11.0422   26.1394 C   0  0  0  0  0  0  0  0  0  0  0  0
   26.1362    9.6593   31.1167 C   0  0  0  0  0  0  0  0  0  0  0  0
   23.0229    9.9300   29.7693 C   0  0  0  0  0  0  0  0  0  0  0  0
   25.1297    8.0347   33.1379 C   0  0  0  0  0  0  0  0  0  0  0  0
   22.6793    9.4192   27.6485 C   0  0  0  0  0  0  0  0  0  0  0  0
   21.8593   11.2326   21.3918 C   0  0  0  0  0  0  0  0  0  0  0  0
   23.2982   11.5411   27.3617 O   0  0  0  0  0  0  0  0  0  0  0  0
   23.8642   10.6287   30.7213 C   0  0  0  0  0  0  0  0  0  0  0  0
  1 27  1  0
  2  5  1  0
  2 22  2  0
  2 26  1  0
  3  4  2  0
  3 10  1  0
  3 15  1  0
  4 17  1  0
  5 20  2  0
  6 12  2  3
  6 27  1  0
  7 17  2  0
  7 18  1  0
  8 19  1  0
  8 23  1  0
  8 29  1  0
  9 24  1  0
  9 26  1  0
  9 28  1  0
 10 18  2  0
 11 14  1  0
 11 25  1  0
 12 16  1  0
 12 20  1  0
 13 21  1  0
 13 24  1  0
 14 23  2  0
 16 22  1  0
 17 21  1  0
 19 25  2  0
 21 26  1  0
 22 28  1  0
 24 29  1  0
M  END
>  <ID>  (1) 
conformer_0

$$$$
