
     RDKit          3D

 22 22  0  0  0  0  0  0  0  0999 V2000
   22.8133    8.3184   27.0078 C   0  0  0  0  0  0  0  0  0  0  0  0
   22.5090    9.6637   24.9263 C   0  0  0  0  0  0  0  0  0  0  0  0
   21.4386    3.6505   26.3330 N   0  0  0  0  0  0  0  0  0  0  0  0
   23.0283   10.0404   29.7918 C   0  0  0  0  0  0  0  0  0  0  0  0
   25.9347    4.7502   27.2526 C   0  0  0  0  0  0  0  0  0  0  0  0
   21.9351   10.5561   27.0874 O   0  0  0  0  0  0  0  0  0  0  0  0
   21.5523    9.5548   24.1522 O   0  0  0  0  0  0  0  0  0  0  0  0
   23.6197    8.8083   30.4305 C   0  0  0  0  0  0  0  0  0  0  0  0
   23.7597    7.9908   28.0106 O   0  0  0  0  0  0  0  0  0  0  0  0
   23.6615   10.1437   24.5472 O   0  0  0  0  0  0  0  0  0  0  0  0
   23.6916   11.0673   29.2031 O   0  0  0  0  0  0  0  0  0  0  0  0
   26.1743    5.1854   28.6656 O   0  0  0  0  0  0  0  0  0  0  0  0
   27.1113    5.2726   26.3444 C   0  0  0  0  0  0  0  0  0  0  0  0
   24.7432    5.5776   26.8639 C   0  0  0  0  0  0  0  0  0  0  0  0
   24.5366    6.7326   27.8907 C   0  0  0  0  0  0  0  0  0  0  0  0
   22.4002    9.5912   26.3666 C   0  0  0  0  0  0  0  0  0  0  0  0
   22.3940    4.6983   25.8995 C   0  0  0  0  0  0  0  0  0  0  0  0
   22.7001    7.2113   26.1149 O   0  0  0  0  0  0  0  0  0  0  0  0
   25.6628    7.1343   30.2095 C   0  0  0  0  0  0  0  0  0  0  0  0
   22.2214    5.9476   26.7490 C   0  0  0  0  0  0  0  0  0  0  0  0
   25.1288    8.6022   30.2269 C   0  0  0  0  0  0  0  0  0  0  0  0
   25.8065    6.6011   28.7577 C   0  0  0  0  0  0  0  0  0  0  0  0
  1  9  1  0
  1 16  1  0
  1 18  1  0
  2  7  2  0
  2 10  1  0
  2 16  1  0
  3 17  1  0
  4  8  2  3
  4 11  1  0
  5 12  1  0
  5 13  1  0
  5 14  1  0
  6 16  1  0
  8 21  1  0
  9 15  1  0
 12 22  1  0
 14 15  1  0
 15 22  1  0
 17 20  1  0
 18 20  1  0
 19 21  1  0
 19 22  1  0
M  END
>  <ID>  (1) 
conformer_0

$$$$
