
     RDKit          3D

 19 20  0  0  0  0  0  0  0  0999 V2000
   22.5117    8.8971   26.2155 C   0  0  0  0  0  0  0  0  0  0  0  0
   22.0233    9.8814   23.9996 C   0  0  0  0  0  0  0  0  0  0  0  0
   22.8049   11.8676   23.0176 O   0  0  0  0  0  0  0  0  0  0  0  0
   23.6468    5.2744   26.8461 C   0  0  0  0  0  0  0  0  0  0  0  0
   24.1862    8.7929   29.6406 C   0  0  0  0  0  0  0  0  0  0  0  0
   23.8182    9.9653   30.1157 C   0  0  0  0  0  0  0  0  0  0  0  0
   23.1658   10.8895   29.3406 C   0  0  0  0  0  0  0  0  0  0  0  0
   23.0770    9.7619   25.0711 C   0  0  0  0  0  0  0  0  0  0  0  0
   23.0383    9.3206   27.5865 C   0  0  0  0  0  0  0  0  0  0  0  0
   24.2146    5.8219   28.0222 C   0  0  0  0  0  0  0  0  0  0  0  0
   21.0091   10.8793   22.2366 O   0  0  0  0  0  0  0  0  0  0  0  0
   23.7550    8.3842   28.4098 C   0  0  0  0  0  0  0  0  0  0  0  0
   22.0254   10.9396   23.0326 C   0  0  0  0  0  0  0  0  0  0  0  0
   22.7602   10.5440   28.0652 C   0  0  0  0  0  0  0  0  0  0  0  0
   21.1670    9.0110   26.1625 O   0  0  0  0  0  0  0  0  0  0  0  0
   22.8177    7.4380   26.0826 C   0  0  0  0  0  0  0  0  0  0  0  0
   24.0402   10.2511   31.3926 F   0  0  0  0  0  0  0  0  0  0  0  0
   22.9949    6.1749   26.0088 C   0  0  0  0  0  0  0  0  0  0  0  0
   24.1161    7.0577   28.3098 C   0  0  0  0  0  0  0  0  0  0  0  0
  1  8  1  0
  1  9  1  0
  1 15  1  0
  1 16  1  0
  2  8  1  0
  2 13  1  0
  3 13  2  0
  4 10  1  0
  4 18  2  0
  5  6  2  0
  5 12  1  0
  6  7  1  0
  6 17  1  0
  7 14  1  0
  9 12  1  0
  9 14  2  0
 10 19  2  0
 11 13  1  0
 12 19  2  0
 16 18  1  0
M  END
>  <ID>  (1) 
conformer_0

$$$$
