
     RDKit          3D

 32 36  0  0  0  0  0  0  0  0999 V2000
   24.8653    8.5051   30.8090 C   0  0  0  0  0  0  0  0  0  0  0  0
   22.6592    4.0265   25.6507 C   0  0  0  0  0  0  0  0  0  0  0  0
   21.5407   13.2681   21.7616 C   0  0  0  0  0  0  0  0  0  0  0  0
   21.2627   10.8633   22.2330 C   0  0  0  0  0  0  0  0  0  0  0  0
   23.8630   10.9461   31.6427 C   0  0  0  0  0  0  0  0  0  0  0  0
   22.3014    5.1612   26.3299 C   0  0  0  0  0  0  0  0  0  0  0  0
   22.5884   11.1100   24.6206 C   0  0  0  0  0  0  0  0  0  0  0  0
   22.3559    8.9224   25.1264 O   0  0  0  0  0  0  0  0  0  0  0  0
   21.7506   12.1110   22.5675 C   0  0  0  0  0  0  0  0  0  0  0  0
   24.4540    7.8042   28.0697 C   0  0  0  0  0  0  0  0  0  0  0  0
   21.2385   13.8524   20.6046 C   0  0  0  0  0  0  0  0  0  0  0  0
   24.0855    3.9271   25.7537 N   0  0  0  0  0  0  0  0  0  0  0  0
   22.7651    0.7201   24.6607 O   0  0  0  0  0  0  0  0  0  0  0  0
   21.4250    9.7907   23.0759 C   0  0  0  0  0  0  0  0  0  0  0  0
   22.0949    9.9139   24.2565 C   0  0  0  0  0  0  0  0  0  0  0  0
   21.1484    7.7179   27.2905 O   0  0  0  0  0  0  0  0  0  0  0  0
   20.0783   14.8030   20.8075 O   0  0  0  0  0  0  0  0  0  0  0  0
   23.4185    5.9103   26.7175 N   0  0  0  0  0  0  0  0  0  0  0  0
   23.4700    7.2635   27.1324 C   0  0  0  0  0  0  0  0  0  0  0  0
   22.1914    2.9234   25.0025 N   0  0  0  0  0  0  0  0  0  0  0  0
   22.4819   12.2557   23.7434 C   0  0  0  0  0  0  0  0  0  0  0  0
   23.6507   10.5357   30.3405 C   0  0  0  0  0  0  0  0  0  0  0  0
   22.3480    8.2217   27.2543 C   0  0  0  0  0  0  0  0  0  0  0  0
   25.0335    8.9013   32.1000 C   0  0  0  0  0  0  0  0  0  0  0  0
   23.1374   10.7896   25.9488 O   0  0  0  0  0  0  0  0  0  0  0  0
   24.3915    2.5368   25.2464 C   0  0  0  0  0  0  0  0  0  0  0  0
   23.1717    1.9548   24.7512 C   0  0  0  0  0  0  0  0  0  0  0  0
   24.5168    5.2289   26.2870 C   0  0  0  0  0  0  0  0  0  0  0  0
   22.7973    9.4086   26.3926 C   0  0  0  0  0  0  0  0  0  0  0  0
   24.5343   10.1327   32.5234 C   0  0  0  0  0  0  0  0  0  0  0  0
   24.1755    9.3151   29.9469 C   0  0  0  0  0  0  0  0  0  0  0  0
   24.0016    8.9783   28.6741 O   0  0  0  0  0  0  0  0  0  0  0  0
  1 24  2  0
  1 31  1  0
  2  6  1  0
  2 12  1  0
  2 20  2  0
  3  9  1  0
  3 11  1  0
  4  9  2  0
  4 14  1  0
  5 22  1  0
  5 30  2  0
  6 18  1  0
  7 15  1  0
  7 21  2  0
  7 25  1  0
  8 15  1  0
  8 29  1  0
  9 21  1  0
 10 19  1  0
 10 32  1  0
 11 17  1  0
 12 26  1  0
 12 28  1  0
 13 27  2  0
 14 15  2  0
 16 23  1  0
 18 19  1  0
 18 28  1  0
 19 23  1  0
 20 27  1  0
 22 31  2  0
 23 29  1  0
 24 30  1  0
 25 29  1  0
 26 27  1  0
 31 32  1  0
M  END
>  <ID>  (1) 
conformer_0

$$$$
