
     RDKit          3D

 24 26  0  0  0  0  0  0  0  0999 V2000
   22.3262   11.5434   22.8972 C   0  0  0  0  0  0  0  0  0  0  0  0
   23.3041   10.4869   30.2727 N   0  0  0  0  0  0  0  0  0  0  0  0
   22.5110    8.1024   26.6744 C   0  0  0  0  0  0  0  0  0  0  0  0
   24.1141    5.4620   26.1080 C   0  0  0  0  0  0  0  0  0  0  0  0
   22.4486   10.8188   24.1330 C   0  0  0  0  0  0  0  0  0  0  0  0
   22.2752    8.4904   29.1622 C   0  0  0  0  0  0  0  0  0  0  0  0
   22.8702   10.2450   27.6158 N   0  0  0  0  0  0  0  0  0  0  0  0
   23.8902   11.0036   31.3998 C   0  0  0  0  0  0  0  0  0  0  0  0
   22.6641    8.8360   27.8762 N   0  0  0  0  0  0  0  0  0  0  0  0
   22.5122    9.1229   25.6833 C   0  0  0  0  0  0  0  0  0  0  0  0
   20.8224    6.6283   27.4417 O   0  0  0  0  0  0  0  0  0  0  0  0
   22.7414   10.3863   26.2917 C   0  0  0  0  0  0  0  0  0  0  0  0
   21.8542    4.5344   25.8750 O   0  0  0  0  0  0  0  0  0  0  0  0
   22.0144    6.7338   26.8278 C   0  0  0  0  0  0  0  0  0  0  0  0
   22.0562   10.8786   21.8319 O   0  0  0  0  0  0  0  0  0  0  0  0
   22.5168   12.8040   22.9535 O   0  0  0  0  0  0  0  0  0  0  0  0
   23.2136    9.1097   30.1385 C   0  0  0  0  0  0  0  0  0  0  0  0
   22.7462   11.4595   25.3574 O   0  0  0  0  0  0  0  0  0  0  0  0
   24.5302    8.8026   32.0617 C   0  0  0  0  0  0  0  0  0  0  0  0
   22.3334    9.4466   24.3317 C   0  0  0  0  0  0  0  0  0  0  0  0
   24.5044   10.1652   32.3255 C   0  0  0  0  0  0  0  0  0  0  0  0
   22.6481    5.5822   26.2276 C   0  0  0  0  0  0  0  0  0  0  0  0
   23.9563    8.2298   30.9653 C   0  0  0  0  0  0  0  0  0  0  0  0
   24.9433    6.6480   26.5675 C   0  0  0  0  0  0  0  0  0  0  0  0
  1  5  1  0
  1 15  2  0
  1 16  1  0
  2  8  2  0
  2 17  1  0
  3  9  1  0
  3 10  1  0
  3 14  1  0
  4 22  2  3
  4 24  1  0
  5 18  1  0
  5 20  1  0
  6  9  1  0
  6 17  1  0
  7  9  1  0
  7 12  1  0
  8 21  1  0
 10 12  2  0
 10 20  1  0
 11 14  1  0
 12 18  1  0
 13 22  1  0
 14 22  1  0
 17 23  1  0
 19 21  1  0
 19 23  2  0
M  END
>  <ID>  (1) 
conformer_0

$$$$
