
     RDKit          3D

 18 20  0  0  0  0  0  0  0  0999 V2000
   21.3560    9.8464   22.9089 C   0  0  0  0  0  0  0  0  0  0  0  0
   22.5625   11.6941   23.8928 C   0  0  0  0  0  0  0  0  0  0  0  0
   23.4728   10.1277   30.7983 C   0  0  0  0  0  0  0  0  0  0  0  0
   24.0029    8.4656   28.3095 C   0  0  0  0  0  0  0  0  0  0  0  0
   23.8113    7.9591   26.9479 C   0  0  0  0  0  0  0  0  0  0  0  0
   24.4658    9.2908   31.2547 C   0  0  0  0  0  0  0  0  0  0  0  0
   22.3845    9.5890   25.0587 C   0  0  0  0  0  0  0  0  0  0  0  0
   22.8177   10.9233   25.0007 C   0  0  0  0  0  0  0  0  0  0  0  0
   21.6724    9.0548   23.9977 C   0  0  0  0  0  0  0  0  0  0  0  0
   21.5295   11.8978   21.7559 O   0  0  0  0  0  0  0  0  0  0  0  0
   22.2882    9.7018   27.3927 C   0  0  0  0  0  0  0  0  0  0  0  0
   24.7913    9.3420   32.4918 O   0  0  0  0  0  0  0  0  0  0  0  0
   25.1314    8.3967   30.4360 C   0  0  0  0  0  0  0  0  0  0  0  0
   22.9015   10.2146   29.6073 C   0  0  0  0  0  0  0  0  0  0  0  0
   24.9414    8.0472   29.1775 C   0  0  0  0  0  0  0  0  0  0  0  0
   22.7541    8.8082   26.2801 C   0  0  0  0  0  0  0  0  0  0  0  0
   23.0623    9.4858   28.5173 C   0  0  0  0  0  0  0  0  0  0  0  0
   21.7946   11.1674   22.8419 C   0  0  0  0  0  0  0  0  0  0  0  0
  1  9  2  0
  1 18  1  0
  2  8  1  0
  2 18  2  0
  3  6  1  0
  3 14  1  0
  4  5  1  0
  4 15  1  0
  4 17  1  0
  5 16  1  0
  6 12  2  0
  6 13  1  0
  7  8  2  0
  7  9  1  0
  7 16  1  0
 10 18  1  0
 11 16  1  0
 11 17  1  0
 13 15  2  0
 14 17  2  0
M  END
>  <ID>  (1) 
conformer_0

$$$$
