
     RDKit          3D

  6  5  0  0  0  0  0  0  0  0999 V2000
   22.5945   10.0908   27.3521 C   0  0  0  0  0  0  0  0  0  0  0  0
   22.2221   10.0320   28.6161 O   0  0  0  0  0  0  0  0  0  0  0  0
   22.8823   11.1939   26.7602 O   0  0  0  0  0  0  0  0  0  0  0  0
   21.7346    7.9834   26.7358 O   0  0  0  0  0  0  0  0  0  0  0  0
   23.6933    8.6832   25.8289 O   0  0  0  0  0  0  0  0  0  0  0  0
   22.6893    8.8391   26.6347 C   0  0  0  0  0  0  0  0  0  0  0  0
  1  2  2  0
  1  3  1  0
  1  6  1  0
  4  6  2  0
  5  6  1  0
M  END
>  <ID>  (1) 
conformer_0

$$$$
