
     RDKit          3D

 40 45  0  0  0  0  0  0  0  0999 V2000
   23.0788   10.6621   27.5062 C   0  0  0  0  0  0  0  0  0  0  0  0
   25.3781    8.8923   31.4228 C   0  0  0  0  0  0  0  0  0  0  0  0
   22.5669    9.6272   26.6988 C   0  0  0  0  0  0  0  0  0  0  0  0
   23.7167    5.9248   27.0032 C   0  0  0  0  0  0  0  0  0  0  0  0
   22.3139    7.9192   28.7362 C   0  0  0  0  0  0  0  0  0  0  0  0
   21.7970   12.0405   22.3775 C   0  0  0  0  0  0  0  0  0  0  0  0
   22.2625   11.2341   24.8174 C   0  0  0  0  0  0  0  0  0  0  0  0
   23.0990    7.4237   29.6078 O   0  0  0  0  0  0  0  0  0  0  0  0
   25.8474    6.3651   31.5351 C   0  0  0  0  0  0  0  0  0  0  0  0
   22.0901   14.3439   21.6457 C   0  0  0  0  0  0  0  0  0  0  0  0
   21.6448   13.9928   20.3729 C   0  0  0  0  0  0  0  0  0  0  0  0
   25.4821    5.7054   32.6711 O   0  0  0  0  0  0  0  0  0  0  0  0
   23.2034   11.9048   26.9451 C   0  0  0  0  0  0  0  0  0  0  0  0
   27.4452    8.0153   30.5363 C   0  0  0  0  0  0  0  0  0  0  0  0
   22.1852    9.9209   25.3938 C   0  0  0  0  0  0  0  0  0  0  0  0
   23.3947   10.6167   28.8533 N   0  0  0  0  0  0  0  0  0  0  0  0
   23.5300   10.9793   31.2050 C   0  0  0  0  0  0  0  0  0  0  0  0
   24.7810    9.4537   32.5369 C   0  0  0  0  0  0  0  0  0  0  0  0
   26.0718    5.1724   27.1934 C   0  0  0  0  0  0  0  0  0  0  0  0
   22.8582   12.1461   25.6229 C   0  0  0  0  0  0  0  0  0  0  0  0
   21.6521    9.0501   24.4108 C   0  0  0  0  0  0  0  0  0  0  0  0
   23.9561   10.5500   32.4369 C   0  0  0  0  0  0  0  0  0  0  0  0
   24.7556    5.1814   27.9558 C   0  0  0  0  0  0  0  0  0  0  0  0
   21.4015   11.7123   21.0583 C   0  0  0  0  0  0  0  0  0  0  0  0
   22.8976    7.1787   26.4021 C   0  0  0  0  0  0  0  0  0  0  0  0
   21.4556    9.8074   23.2769 N   0  0  0  0  0  0  0  0  0  0  0  0
   27.1503    5.6486   28.1572 C   0  0  0  0  0  0  0  0  0  0  0  0
   27.0447    4.9734   29.5573 C   0  0  0  0  0  0  0  0  0  0  0  0
   24.8081    5.6005   29.3292 O   0  0  0  0  0  0  0  0  0  0  0  0
   24.9927    9.4068   30.1958 C   0  0  0  0  0  0  0  0  0  0  0  0
   21.1105    7.7693   29.0305 O   0  0  0  0  0  0  0  0  0  0  0  0
   22.4707    8.2989   27.2766 C   0  0  0  0  0  0  0  0  0  0  0  0
   25.8264    5.5033   30.3249 C   0  0  0  0  0  0  0  0  0  0  0  0
   24.9109    8.7957   33.7075 F   0  0  0  0  0  0  0  0  0  0  0  0
   21.8312   11.1902   23.4749 C   0  0  0  0  0  0  0  0  0  0  0  0
   22.1840   13.3803   22.6037 C   0  0  0  0  0  0  0  0  0  0  0  0
   21.3348   12.6759   20.0993 C   0  0  0  0  0  0  0  0  0  0  0  0
   26.3454    7.7632   31.6233 C   0  0  0  0  0  0  0  0  0  0  0  0
   20.8710    9.2891   22.2422 O   0  0  0  0  0  0  0  0  0  0  0  0
   24.0004   10.3575   30.0647 C   0  0  0  0  0  0  0  0  0  0  0  0
  1  3  2  0
  1 13  1  0
  1 16  1  0
  2 18  1  0
  2 30  2  0
  2 38  1  0
  3 15  1  0
  3 32  1  0
  4 23  1  0
  4 25  1  0
  5  8  2  0
  5 31  1  0
  5 32  1  0
  6 24  1  0
  6 35  2  3
  6 36  1  0
  7 15  2  0
  7 20  1  0
  7 35  1  0
  9 12  1  0
  9 33  1  0
  9 38  1  0
 10 11  1  0
 10 36  2  0
 11 37  1  0
 13 20  2  0
 14 38  1  0
 15 21  1  0
 16 40  1  0
 17 22  1  0
 17 40  2  0
 18 22  2  0
 18 34  1  0
 19 23  1  0
 19 27  1  0
 21 26  1  0
 23 29  1  0
 24 37  2  0
 25 32  1  0
 26 35  1  0
 26 39  1  0
 27 28  1  0
 28 33  1  0
 29 33  1  0
 30 40  1  0
M  END
>  <ID>  (1) 
conformer_0

$$$$
