
     RDKit          3D

 21 21  0  0  0  0  0  0  0  0999 V2000
   24.2086    5.6074   26.9550 C   0  0  0  0  0  0  0  0  0  0  0  0
   21.5800    9.8996   23.4098 C   0  0  0  0  0  0  0  0  0  0  0  0
   23.0930    9.3674   26.9149 C   0  0  0  0  0  0  0  0  0  0  0  0
   24.0073    4.2781   26.8537 N   0  0  0  0  0  0  0  0  0  0  0  0
   21.9956   11.2411   23.1424 C   0  0  0  0  0  0  0  0  0  0  0  0
   21.6360   11.8169   22.0718 O   0  0  0  0  0  0  0  0  0  0  0  0
   23.8578   11.2356   30.6586 O   0  0  0  0  0  0  0  0  0  0  0  0
   22.6580   11.8206   24.2284 N   0  0  0  0  0  0  0  0  0  0  0  0
   23.8237    9.2626   28.5979 C   0  0  0  0  0  0  0  0  0  0  0  0
   23.1683   11.1426   25.2451 O   0  0  0  0  0  0  0  0  0  0  0  0
   24.4012    6.1947   28.5140 S   0  0  0  0  0  0  0  0  0  0  0  0
   22.7396    9.8990   25.5183 C   0  0  0  0  0  0  0  0  0  0  0  0
   23.8376    7.7576   28.3044 C   0  0  0  0  0  0  0  0  0  0  0  0
   23.0725    7.8054   26.9854 O   0  0  0  0  0  0  0  0  0  0  0  0
   24.2033    9.3844   32.0538 O   0  0  0  0  0  0  0  0  0  0  0  0
   23.2220    6.5164   26.3445 C   0  0  0  0  0  0  0  0  0  0  0  0
   21.7762    9.2414   29.7865 O   0  0  0  0  0  0  0  0  0  0  0  0
   21.9323    9.2742   24.5680 C   0  0  0  0  0  0  0  0  0  0  0  0
   23.7887   10.0194   30.9833 C   0  0  0  0  0  0  0  0  0  0  0  0
   23.1628    9.1724   29.9903 C   0  0  0  0  0  0  0  0  0  0  0  0
   22.3877    6.0671   25.5715 O   0  0  0  0  0  0  0  0  0  0  0  0
  1  4  1  0
  1 11  1  0
  1 16  1  0
  2  5  1  0
  2 18  1  0
  3 12  1  0
  3 14  1  0
  5  6  2  0
  5  8  1  0
  7 19  2  0
  8 10  1  0
  9 13  1  0
  9 20  1  0
 10 12  1  0
 11 13  1  0
 12 18  2  0
 14 16  1  0
 15 19  1  0
 16 21  2  0
 17 20  1  0
 19 20  1  0
M  END
>  <ID>  (1) 
conformer_0

$$$$
