
     RDKit          3D

 11 11  0  0  0  0  0  0  0  0999 V2000
   22.7116    8.4821   28.1406 C   0  0  0  0  0  0  0  0  0  0  0  0
   23.2502   10.4418   29.9915 C   0  0  0  0  0  0  0  0  0  0  0  0
   22.7008    7.9446   25.3935 O   0  0  0  0  0  0  0  0  0  0  0  0
   22.5700   10.2192   26.2772 C   0  0  0  0  0  0  0  0  0  0  0  0
   22.9049    8.1245   29.4828 C   0  0  0  0  0  0  0  0  0  0  0  0
   23.0562    9.2108   25.2604 C   0  0  0  0  0  0  0  0  0  0  0  0
   23.0479   11.4915   25.9541 O   0  0  0  0  0  0  0  0  0  0  0  0
   23.1988    9.1335   30.3892 C   0  0  0  0  0  0  0  0  0  0  0  0
   23.3920    9.7621   24.1271 O   0  0  0  0  0  0  0  0  0  0  0  0
   22.7694    9.7951   27.7150 C   0  0  0  0  0  0  0  0  0  0  0  0
   23.0092   10.7747   28.6574 C   0  0  0  0  0  0  0  0  0  0  0  0
  1  5  2  0
  1 10  1  0
  2  8  2  0
  2 11  1  0
  3  6  2  0
  4  6  1  0
  4  7  1  0
  4 10  1  0
  5  8  1  0
  6  9  1  0
 10 11  2  0
M  END
>  <ID>  (1) 
conformer_0

$$$$
