
     RDKit          3D

 25 28  0  0  0  0  0  0  0  0999 V2000
   21.7362   10.4148   23.2420 C   0  0  0  0  0  0  0  0  0  0  0  0
   23.7798    9.6185   30.4471 C   0  0  0  0  0  0  0  0  0  0  0  0
   22.5463    5.6399   26.4954 N   0  0  0  0  0  0  0  0  0  0  0  0
   23.8217    3.8105   26.5856 C   0  0  0  0  0  0  0  0  0  0  0  0
   23.3501   10.0675   28.0189 C   0  0  0  0  0  0  0  0  0  0  0  0
   23.4961    9.1691   29.1128 C   0  0  0  0  0  0  0  0  0  0  0  0
   22.1250   11.7349   23.2162 C   0  0  0  0  0  0  0  0  0  0  0  0
   21.9261    9.6267   24.3749 C   0  0  0  0  0  0  0  0  0  0  0  0
   23.7140   10.9541   30.7854 C   0  0  0  0  0  0  0  0  0  0  0  0
   22.6978   12.3273   24.3233 C   0  0  0  0  0  0  0  0  0  0  0  0
   22.4556    8.1723   27.0385 C   0  0  0  0  0  0  0  0  0  0  0  0
   24.4244   10.4488   33.0339 C   0  0  0  0  0  0  0  0  0  0  0  0
   24.0275   11.3943   32.0624 C   0  0  0  0  0  0  0  0  0  0  0  0
   24.4806    4.8901   27.3194 C   0  0  0  0  0  0  0  0  0  0  0  0
   23.7105    6.0446   27.1413 C   0  0  0  0  0  0  0  0  0  0  0  0
   23.3149   12.0874   26.5318 O   0  0  0  0  0  0  0  0  0  0  0  0
   22.7514    9.5538   26.7942 C   0  0  0  0  0  0  0  0  0  0  0  0
   21.2603    7.7854   27.1173 O   0  0  0  0  0  0  0  0  0  0  0  0
   22.5834    4.3323   26.1127 C   0  0  0  0  0  0  0  0  0  0  0  0
   24.1417    8.6984   31.4188 C   0  0  0  0  0  0  0  0  0  0  0  0
   23.6598    7.4794   27.4522 C   0  0  0  0  0  0  0  0  0  0  0  0
   24.0592    7.9113   28.7526 C   0  0  0  0  0  0  0  0  0  0  0  0
   22.4435   10.1696   25.5295 C   0  0  0  0  0  0  0  0  0  0  0  0
   24.4509    9.0996   32.6634 C   0  0  0  0  0  0  0  0  0  0  0  0
   22.8094   11.5267   25.4547 C   0  0  0  0  0  0  0  0  0  0  0  0
  1  7  2  0
  1  8  1  0
  2  6  1  0
  2  9  2  0
  2 20  1  0
  3 15  1  0
  3 19  1  0
  4 14  1  0
  4 19  1  0
  5  6  1  0
  5 17  2  0
  6 22  1  0
  7 10  1  0
  8 23  2  0
  9 13  1  0
 10 25  2  0
 11 17  1  0
 11 18  2  0
 11 21  1  0
 12 13  2  0
 12 24  1  0
 14 15  1  0
 15 21  1  0
 16 25  1  0
 17 23  1  0
 20 24  2  0
 21 22  1  0
 23 25  1  0
M  END
>  <ID>  (1) 
conformer_0

$$$$
