
     RDKit          3D

 29 33  0  0  0  0  0  0  0  0999 V2000
   22.8822   11.1599   26.2483 C   0  0  0  0  0  0  0  0  0  0  0  0
   22.8250   10.1094   27.1413 N   0  0  0  0  0  0  0  0  0  0  0  0
   23.5569   10.6263   30.8152 C   0  0  0  0  0  0  0  0  0  0  0  0
   20.7659   14.1600   20.1169 C   0  0  0  0  0  0  0  0  0  0  0  0
   24.1728    9.5851   31.3926 C   0  0  0  0  0  0  0  0  0  0  0  0
   21.4406   13.5018   21.1920 C   0  0  0  0  0  0  0  0  0  0  0  0
   22.0422    9.8565   24.4787 C   0  0  0  0  0  0  0  0  0  0  0  0
   23.9449    7.8506   29.7122 C   0  0  0  0  0  0  0  0  0  0  0  0
   23.4114    4.6406   26.2151 C   0  0  0  0  0  0  0  0  0  0  0  0
   22.4427   11.1354   24.8988 C   0  0  0  0  0  0  0  0  0  0  0  0
   23.2505    8.4892   28.7619 C   0  0  0  0  0  0  0  0  0  0  0  0
   25.3352    5.5811   26.8128 C   0  0  0  0  0  0  0  0  0  0  0  0
   22.1545    8.7508   25.2775 C   0  0  0  0  0  0  0  0  0  0  0  0
   23.1017   10.7572   29.5201 C   0  0  0  0  0  0  0  0  0  0  0  0
   21.7390   11.5757   22.6566 C   0  0  0  0  0  0  0  0  0  0  0  0
   24.3986    8.3588   30.8813 C   0  0  0  0  0  0  0  0  0  0  0  0
   24.3991    3.9564   25.6644 N   0  0  0  0  0  0  0  0  0  0  0  0
   21.4268    9.8779   22.8624 S   0  0  0  0  0  0  0  0  0  0  0  0
   22.6183    7.7320   27.5800 C   0  0  0  0  0  0  0  0  0  0  0  0
   23.0804    9.8538   28.5365 C   0  0  0  0  0  0  0  0  0  0  0  0
   23.3119    6.4939   27.6039 N   0  0  0  0  0  0  0  0  0  0  0  0
   23.9153    5.6433   26.9266 C   0  0  0  0  0  0  0  0  0  0  0  0
   22.5242    8.9009   26.5551 C   0  0  0  0  0  0  0  0  0  0  0  0
   26.1358    6.4603   27.3398 O   0  0  0  0  0  0  0  0  0  0  0  0
   22.3347   12.0824   23.8390 C   0  0  0  0  0  0  0  0  0  0  0  0
   21.3527   12.1236   21.4280 O   0  0  0  0  0  0  0  0  0  0  0  0
   22.0681   14.2652   22.1600 O   0  0  0  0  0  0  0  0  0  0  0  0
   21.2469    7.2458   27.6663 O   0  0  0  0  0  0  0  0  0  0  0  0
   25.5705    4.5307   26.0659 N   0  0  0  0  0  0  0  0  0  0  0  0
  1  2  1  0
  1 10  1  0
  2 20  1  0
  2 23  1  0
  3  5  1  0
  3 14  2  0
  4  6  1  0
  5 16  1  0
  6 26  1  0
  6 27  2  0
  7 10  2  0
  7 13  1  0
  7 18  1  0
  8 11  1  0
  8 16  2  0
  9 17  1  0
  9 22  1  0
 10 25  1  0
 11 19  1  0
 11 20  1  0
 12 22  1  0
 12 24  2  0
 12 29  1  0
 13 23  2  0
 14 20  1  0
 15 18  1  0
 15 25  1  0
 15 26  1  0
 17 29  1  0
 19 21  1  0
 19 23  1  0
 19 28  1  0
 21 22  1  0
M  END
>  <ID>  (1) 
conformer_0

$$$$
