
     RDKit          3D

 16 17  0  0  0  0  0  0  0  0999 V2000
   22.6593   11.1109   26.8946 C   0  0  0  0  0  0  0  0  0  0  0  0
   24.3325    7.0495   26.0979 O   0  0  0  0  0  0  0  0  0  0  0  0
   22.9885    9.1961   28.1622 C   0  0  0  0  0  0  0  0  0  0  0  0
   22.6190   10.0291   25.9630 C   0  0  0  0  0  0  0  0  0  0  0  0
   22.1118   11.5427   22.6883 C   0  0  0  0  0  0  0  0  0  0  0  0
   22.8780    8.8078   26.6885 C   0  0  0  0  0  0  0  0  0  0  0  0
   23.1572    8.6399   29.5396 C   0  0  0  0  0  0  0  0  0  0  0  0
   23.1156    7.4915   26.0861 C   0  0  0  0  0  0  0  0  0  0  0  0
   21.4333   10.3216   22.5216 C   0  0  0  0  0  0  0  0  0  0  0  0
   22.6191   11.5426   23.9891 N   0  0  0  0  0  0  0  0  0  0  0  0
   22.1929    6.7773   25.6979 O   0  0  0  0  0  0  0  0  0  0  0  0
   23.2027    9.4965   30.5114 O   0  0  0  0  0  0  0  0  0  0  0  0
   21.5721    9.5948   23.7413 C   0  0  0  0  0  0  0  0  0  0  0  0
   22.2753   10.3361   24.6412 C   0  0  0  0  0  0  0  0  0  0  0  0
   23.2804    7.4208   29.7119 O   0  0  0  0  0  0  0  0  0  0  0  0
   22.8460   10.6586   28.1568 C   0  0  0  0  0  0  0  0  0  0  0  0
  1  4  1  0
  1 16  1  0
  2  8  2  0
  3  6  1  0
  3  7  1  0
  3 16  1  0
  4  6  2  0
  4 14  1  0
  5  9  1  0
  5 10  1  0
  6  8  1  0
  7 12  2  0
  7 15  1  0
  8 11  1  0
  9 13  1  0
 10 14  1  0
 13 14  1  0
M  END
>  <ID>  (1) 
conformer_0

$$$$
