
     RDKit          3D

 15 16  0  0  0  0  0  0  0  0999 V2000
   24.1301    7.5106   25.4688 C   0  0  0  0  0  0  0  0  0  0  0  0
   21.9961    8.6250   29.3608 F   0  0  0  0  0  0  0  0  0  0  0  0
   23.1507    8.2131   26.2403 C   0  0  0  0  0  0  0  0  0  0  0  0
   23.1560    8.9487   29.8732 C   0  0  0  0  0  0  0  0  0  0  0  0
   23.0237    9.1973   28.5025 C   0  0  0  0  0  0  0  0  0  0  0  0
   21.8656    7.5003   26.2797 C   0  0  0  0  0  0  0  0  0  0  0  0
   22.6034   10.5457   26.5072 C   0  0  0  0  0  0  0  0  0  0  0  0
   24.0863    7.8060   30.1919 C   0  0  0  0  0  0  0  0  0  0  0  0
   22.6549    9.5255   24.3175 C   0  0  0  0  0  0  0  0  0  0  0  0
   22.5880   10.4337   27.8661 C   0  0  0  0  0  0  0  0  0  0  0  0
   24.7583    7.4922   27.9493 C   0  0  0  0  0  0  0  0  0  0  0  0
   25.2336    7.8793   29.2655 C   0  0  0  0  0  0  0  0  0  0  0  0
   23.3358    9.9662   30.6739 O   0  0  0  0  0  0  0  0  0  0  0  0
   22.9349    9.5330   25.6646 C   0  0  0  0  0  0  0  0  0  0  0  0
   23.6841    8.3441   27.5650 C   0  0  0  0  0  0  0  0  0  0  0  0
  1  3  1  0
  2  4  1  0
  3  6  1  0
  3 14  1  0
  3 15  1  0
  4  5  1  0
  4  8  1  0
  4 13  1  0
  5 10  2  0
  5 15  1  0
  7 10  1  0
  7 14  2  0
  8 12  1  0
  9 14  1  0
 11 12  1  0
 11 15  1  0
M  END
>  <ID>  (1) 
conformer_0

$$$$
