
     RDKit          3D

 11 10  0  0  0  0  0  0  0  0999 V2000
   22.4377    6.6090   24.6623 O   0  0  0  0  0  0  0  0  0  0  0  0
   23.3324    8.2060   26.1604 C   0  0  0  0  0  0  0  0  0  0  0  0
   22.8813    9.1485   29.7886 C   0  0  0  0  0  0  0  0  0  0  0  0
   21.6931    9.6996   29.5917 O   0  0  0  0  0  0  0  0  0  0  0  0
   23.4466    8.4125   28.6012 C   0  0  0  0  0  0  0  0  0  0  0  0
   22.7663   10.3349   27.1434 O   0  0  0  0  0  0  0  0  0  0  0  0
   23.1406    6.9674   28.6436 N   0  0  0  0  0  0  0  0  0  0  0  0
   22.8486    6.8222   25.9916 C   0  0  0  0  0  0  0  0  0  0  0  0
   23.5998    8.8454   25.0175 O   0  0  0  0  0  0  0  0  0  0  0  0
   23.8150    9.6093   30.8069 C   0  0  0  0  0  0  0  0  0  0  0  0
   22.9729    9.0473   27.2959 C   0  0  0  0  0  0  0  0  0  0  0  0
  1  8  1  0
  2  8  1  0
  2  9  1  0
  2 11  1  0
  3  4  1  0
  3  5  1  0
  3 10  1  0
  5  7  1  0
  5 11  1  0
  6 11  1  0
M  END
>  <ID>  (1) 
conformer_0

$$$$
