
     RDKit          3D

 25 27  0  0  0  0  0  0  0  0999 V2000
   22.2639   12.9614   22.9705 C   0  0  0  0  0  0  0  0  0  0  0  0
   21.7375   10.2581   23.2868 C   0  0  0  0  0  0  0  0  0  0  0  0
   21.5287   12.2843   22.0086 C   0  0  0  0  0  0  0  0  0  0  0  0
   23.3034    9.6446   29.2614 C   0  0  0  0  0  0  0  0  0  0  0  0
   23.7054   10.9872   31.2312 C   0  0  0  0  0  0  0  0  0  0  0  0
   23.8124    5.1787   26.1025 C   0  0  0  0  0  0  0  0  0  0  0  0
   22.4644    5.2808   26.1050 N   0  0  0  0  0  0  0  0  0  0  0  0
   23.1340   10.3040   25.4518 C   0  0  0  0  0  0  0  0  0  0  0  0
   23.4954   11.2347   26.4557 O   0  0  0  0  0  0  0  0  0  0  0  0
   24.5977    6.1427   26.6788 C   0  0  0  0  0  0  0  0  0  0  0  0
   21.9176    8.3836   27.8874 O   0  0  0  0  0  0  0  0  0  0  0  0
   24.0410    9.3962   25.1265 O   0  0  0  0  0  0  0  0  0  0  0  0
   22.6852    9.6103   27.9177 C   0  0  0  0  0  0  0  0  0  0  0  0
   23.2783   10.8758   29.9140 C   0  0  0  0  0  0  0  0  0  0  0  0
   23.9733    7.2304   27.2475 C   0  0  0  0  0  0  0  0  0  0  0  0
   21.8331    6.3405   26.6878 N   0  0  0  0  0  0  0  0  0  0  0  0
   24.2222    9.9022   31.8948 C   0  0  0  0  0  0  0  0  0  0  0  0
   21.2833   10.9380   22.1431 C   0  0  0  0  0  0  0  0  0  0  0  0
   22.5787   10.3170   26.7068 C   0  0  0  0  0  0  0  0  0  0  0  0
   22.5983    7.2907   27.2806 C   0  0  0  0  0  0  0  0  0  0  0  0
   23.8509    8.5672   29.9380 C   0  0  0  0  0  0  0  0  0  0  0  0
   24.3121    8.6826   31.2268 C   0  0  0  0  0  0  0  0  0  0  0  0
   22.7297   12.2781   24.0869 C   0  0  0  0  0  0  0  0  0  0  0  0
   21.0617   12.9321   20.9543 F   0  0  0  0  0  0  0  0  0  0  0  0
   22.4824   10.9048   24.2631 C   0  0  0  0  0  0  0  0  0  0  0  0
  1  3  2  0
  1 23  1  0
  2 18  2  0
  2 25  1  0
  3 18  1  0
  3 24  1  0
  4 13  1  0
  4 14  1  0
  4 21  2  0
  5 14  2  0
  5 17  1  0
  6  7  2  0
  6 10  1  0
  7 16  1  0
  8 12  1  0
  8 19  1  0
  8 25  1  0
  9 19  1  0
 10 15  2  0
 11 13  1  0
 11 20  1  0
 13 19  1  0
 15 20  1  0
 16 20  2  0
 17 22  2  0
 21 22  1  0
 23 25  2  0
M  END
>  <ID>  (1) 
conformer_0

$$$$
