
     RDKit          3D

 22 24  0  0  0  0  0  0  0  0999 V2000
   24.8601    8.2439   29.0320 C   0  0  0  0  0  0  0  0  0  0  0  0
   27.2007    8.2167   31.7710 N   0  0  0  0  0  0  0  0  0  0  0  0
   27.7008    7.4854   30.8272 C   0  0  0  0  0  0  0  0  0  0  0  0
   22.7901   11.1669   24.9694 N   0  0  0  0  0  0  0  0  0  0  0  0
   22.6445    8.0247   27.0298 C   0  0  0  0  0  0  0  0  0  0  0  0
   23.2343    6.7500   26.5837 C   0  0  0  0  0  0  0  0  0  0  0  0
   25.2182    9.5749   32.1809 C   0  0  0  0  0  0  0  0  0  0  0  0
   25.0445    7.4355   28.0128 N   0  0  0  0  0  0  0  0  0  0  0  0
   21.6787    9.4884   23.7381 C   0  0  0  0  0  0  0  0  0  0  0  0
   24.1863   10.3913   31.4951 C   0  0  0  0  0  0  0  0  0  0  0  0
   21.8644    8.6446   24.8026 C   0  0  0  0  0  0  0  0  0  0  0  0
   23.9380    9.1713   29.1532 N   0  0  0  0  0  0  0  0  0  0  0  0
   25.8902    8.1529   30.0319 C   0  0  0  0  0  0  0  0  0  0  0  0
   23.4732    9.8345   30.2885 C   0  0  0  0  0  0  0  0  0  0  0  0
   22.1229   10.7716   23.8142 C   0  0  0  0  0  0  0  0  0  0  0  0
   21.7361    8.0219   28.0100 O   0  0  0  0  0  0  0  0  0  0  0  0
   24.4546    6.3616   27.3639 C   0  0  0  0  0  0  0  0  0  0  0  0
   22.9280   10.3409   26.0217 C   0  0  0  0  0  0  0  0  0  0  0  0
   26.0494    8.6613   31.3156 C   0  0  0  0  0  0  0  0  0  0  0  0
   25.4643    5.3813   26.6239 C   0  0  0  0  0  0  0  0  0  0  0  0
   26.9579    7.4481   29.7605 N   0  0  0  0  0  0  0  0  0  0  0  0
   22.4665    9.0518   25.9592 C   0  0  0  0  0  0  0  0  0  0  0  0
  1  8  2  3
  1 12  1  0
  1 13  1  0
  2  3  1  0
  2 19  1  0
  3 21  1  0
  4 15  2  0
  4 18  1  0
  5  6  1  0
  5 16  1  0
  5 22  1  0
  6 17  1  0
  7 10  1  0
  7 19  1  0
  8 17  1  0
  9 11  2  0
  9 15  1  0
 10 14  1  0
 11 22  1  0
 12 14  1  0
 13 19  2  0
 13 21  1  0
 17 20  1  0
 18 22  2  0
M  END
>  <ID>  (1) 
conformer_0

$$$$
