
     RDKit          3D

 26 27  0  0  0  0  0  0  0  0999 V2000
   22.2959    9.5722   27.4692 N   0  0  0  0  0  0  0  0  0  0  0  0
   25.8546    6.4461   27.3897 C   0  0  0  0  0  0  0  0  0  0  0  0
   24.3515    6.8720   27.2526 C   0  0  0  0  0  0  0  0  0  0  0  0
   22.8828    8.8985   28.6061 C   0  0  0  0  0  0  0  0  0  0  0  0
   23.5349   11.0536   29.2682 O   0  0  0  0  0  0  0  0  0  0  0  0
   22.2568    5.7514   27.0021 O   0  0  0  0  0  0  0  0  0  0  0  0
   23.8684   11.4385   31.8799 C   0  0  0  0  0  0  0  0  0  0  0  0
   23.7385    9.1986   30.8743 C   0  0  0  0  0  0  0  0  0  0  0  0
   24.0800    4.5141   26.0678 C   0  0  0  0  0  0  0  0  0  0  0  0
   24.1424   10.0364   31.8955 O   0  0  0  0  0  0  0  0  0  0  0  0
   21.9620   10.2308   23.8284 C   0  0  0  0  0  0  0  0  0  0  0  0
   23.9372    8.0027   28.1378 N   0  0  0  0  0  0  0  0  0  0  0  0
   23.2786    3.6275   25.3970 N   0  0  0  0  0  0  0  0  0  0  0  0
   23.1136    9.8696   29.7522 C   0  0  0  0  0  0  0  0  0  0  0  0
   23.5455    5.7000   26.6962 C   0  0  0  0  0  0  0  0  0  0  0  0
   22.3594    8.4371   25.3415 C   0  0  0  0  0  0  0  0  0  0  0  0
   21.2579   10.2349   22.6019 C   0  0  0  0  0  0  0  0  0  0  0  0
   22.5336    9.0973   26.3362 C   0  0  0  0  0  0  0  0  0  0  0  0
   22.4562   12.5213   23.5235 C   0  0  0  0  0  0  0  0  0  0  0  0
   25.3709    4.1689   26.3689 N   0  0  0  0  0  0  0  0  0  0  0  0
   21.2351   11.3312   21.8525 C   0  0  0  0  0  0  0  0  0  0  0  0
   26.0827    4.9278   27.3590 C   0  0  0  0  0  0  0  0  0  0  0  0
   22.5589   11.3675   24.3496 C   0  0  0  0  0  0  0  0  0  0  0  0
   22.0263    8.9525   24.3134 N   0  0  0  0  0  0  0  0  0  0  0  0
   23.7036    7.8433   30.9485 O   0  0  0  0  0  0  0  0  0  0  0  0
   21.8370   12.5074   22.2841 C   0  0  0  0  0  0  0  0  0  0  0  0
  1  4  1  0
  1 18  1  0
  2  3  1  0
  2 22  1  0
  3 12  1  0
  3 15  1  0
  4 12  1  0
  4 14  1  0
  5 14  1  0
  6 15  1  0
  7 10  1  0
  8 10  1  0
  8 14  1  0
  8 25  2  0
  9 13  2  0
  9 15  1  0
  9 20  1  0
 11 17  1  0
 11 23  1  0
 11 24  1  0
 16 18  1  0
 16 24  2  3
 17 21  2  0
 19 23  1  0
 19 26  2  0
 20 22  1  0
 21 26  1  0
M  END
>  <ID>  (1) 
conformer_0

$$$$
