
     RDKit          3D

 14 15  0  0  0  0  0  0  0  0999 V2000
   22.5370    8.8755   28.2863 C   0  0  0  0  0  0  0  0  0  0  0  0
   23.6564    8.0828   30.3142 C   0  0  0  0  0  0  0  0  0  0  0  0
   23.8725   10.6530   31.2996 C   0  0  0  0  0  0  0  0  0  0  0  0
   23.2195   10.8800   23.8704 O   0  0  0  0  0  0  0  0  0  0  0  0
   21.9245    8.4833   25.9738 O   0  0  0  0  0  0  0  0  0  0  0  0
   23.3111   10.4257   30.0372 C   0  0  0  0  0  0  0  0  0  0  0  0
   23.2058    9.1518   29.5263 C   0  0  0  0  0  0  0  0  0  0  0  0
   22.1072    9.0454   24.7067 N   0  0  0  0  0  0  0  0  0  0  0  0
   23.1295   10.3267   26.1965 N   0  0  0  0  0  0  0  0  0  0  0  0
   24.2045    8.2951   31.5325 N   0  0  0  0  0  0  0  0  0  0  0  0
   22.5846    9.2792   26.9175 C   0  0  0  0  0  0  0  0  0  0  0  0
   24.3219    9.5647   32.0452 C   0  0  0  0  0  0  0  0  0  0  0  0
   22.8534   10.1724   24.8577 C   0  0  0  0  0  0  0  0  0  0  0  0
   21.6238    7.8493   28.5126 O   0  0  0  0  0  0  0  0  0  0  0  0
  1  7  1  0
  1 11  1  0
  1 14  1  0
  2  7  2  0
  2 10  1  0
  3  6  2  0
  3 12  1  0
  4 13  2  0
  5  8  1  0
  5 11  1  0
  6  7  1  0
  8 13  1  0
  9 11  1  0
  9 13  1  0
 10 12  2  0
M  END
>  <ID>  (1) 
conformer_0

$$$$
