
     RDKit          3D

 22 25  0  0  0  0  0  0  0  0999 V2000
   23.4561    8.4122   30.0119 C   0  0  0  0  0  0  0  0  0  0  0  0
   20.8548    7.1329   28.4794 O   0  0  0  0  0  0  0  0  0  0  0  0
   23.2490    9.7991   24.5289 C   0  0  0  0  0  0  0  0  0  0  0  0
   22.7691   10.6499   27.1920 C   0  0  0  0  0  0  0  0  0  0  0  0
   21.9952    6.0374   26.7228 C   0  0  0  0  0  0  0  0  0  0  0  0
   22.6985   11.5435   26.0651 C   0  0  0  0  0  0  0  0  0  0  0  0
   23.3493   11.1811   29.8039 C   0  0  0  0  0  0  0  0  0  0  0  0
   22.8407    9.3043   26.7768 C   0  0  0  0  0  0  0  0  0  0  0  0
   21.7396    4.5194   26.6382 C   0  0  0  0  0  0  0  0  0  0  0  0
   24.1198   11.3761   32.1176 C   0  0  0  0  0  0  0  0  0  0  0  0
   21.8197    7.1810   27.6613 C   0  0  0  0  0  0  0  0  0  0  0  0
   20.6513    4.0427   26.3011 O   0  0  0  0  0  0  0  0  0  0  0  0
   23.0115    8.9884   28.8538 C   0  0  0  0  0  0  0  0  0  0  0  0
   22.5827    8.3014   27.7493 N   0  0  0  0  0  0  0  0  0  0  0  0
   23.2760    8.9024   25.5649 C   0  0  0  0  0  0  0  0  0  0  0  0
   22.9457   11.1027   24.7840 C   0  0  0  0  0  0  0  0  0  0  0  0
   23.8391    9.1979   31.0617 C   0  0  0  0  0  0  0  0  0  0  0  0
   23.7712   10.5592   30.9917 C   0  0  0  0  0  0  0  0  0  0  0  0
   22.7664    3.7513   26.8646 O   0  0  0  0  0  0  0  0  0  0  0  0
   23.0231    6.3156   25.6135 C   0  0  0  0  0  0  0  0  0  0  0  0
   23.7661    7.5309   25.5528 C   0  0  0  0  0  0  0  0  0  0  0  0
   23.0299   10.3917   28.7127 C   0  0  0  0  0  0  0  0  0  0  0  0
  1 13  2  0
  1 17  1  0
  2 11  2  0
  3 15  2  0
  3 16  1  0
  4  6  1  0
  4  8  1  0
  4 22  1  0
  5  9  1  0
  5 11  1  0
  5 20  2  0
  6 16  2  0
  7 18  1  0
  7 22  2  0
  8 14  1  0
  8 15  1  0
  9 12  2  0
  9 19  1  0
 10 18  1  0
 11 14  1  0
 13 14  1  0
 13 22  1  0
 15 21  1  0
 17 18  2  0
 20 21  1  0
M  END
>  <ID>  (1) 
conformer_0

$$$$
