
     RDKit          3D

 28 32  0  0  0  0  0  0  0  0999 V2000
   23.5487   10.7865   30.4970 C   0  0  0  0  0  0  0  0  0  0  0  0
   22.1630   12.7717   23.8538 C   0  0  0  0  0  0  0  0  0  0  0  0
   21.0829   13.8350   21.4734 C   0  0  0  0  0  0  0  0  0  0  0  0
   22.4247   12.1218   25.0661 C   0  0  0  0  0  0  0  0  0  0  0  0
   24.9031    9.9833   33.9014 C   0  0  0  0  0  0  0  0  0  0  0  0
   22.0305   12.0407   22.6671 C   0  0  0  0  0  0  0  0  0  0  0  0
   22.4259   10.0492   23.9512 C   0  0  0  0  0  0  0  0  0  0  0  0
   23.0591    8.1069   28.0245 C   0  0  0  0  0  0  0  0  0  0  0  0
   21.7703   12.6347   21.4592 O   0  0  0  0  0  0  0  0  0  0  0  0
   25.1495    8.0446   32.4723 C   0  0  0  0  0  0  0  0  0  0  0  0
   21.7676    7.8924   28.5644 O   0  0  0  0  0  0  0  0  0  0  0  0
   22.1782   10.6815   22.7333 C   0  0  0  0  0  0  0  0  0  0  0  0
   25.3902    7.0963   27.7508 C   0  0  0  0  0  0  0  0  0  0  0  0
   22.7477   10.1355   26.4859 C   0  0  0  0  0  0  0  0  0  0  0  0
   22.8533    8.6675   26.5864 C   0  0  0  0  0  0  0  0  0  0  0  0
   23.4173   10.2389   29.1753 C   0  0  0  0  0  0  0  0  0  0  0  0
   24.4188    8.1547   30.1287 C   0  0  0  0  0  0  0  0  0  0  0  0
   22.4802    7.3806   25.7228 C   0  0  0  0  0  0  0  0  0  0  0  0
   25.2782    8.6437   33.6937 C   0  0  0  0  0  0  0  0  0  0  0  0
   22.5110    5.8369   26.0581 C   0  0  0  0  0  0  0  0  0  0  0  0
   23.7976    8.8775   29.0528 N   0  0  0  0  0  0  0  0  0  0  0  0
   24.3391   10.6906   32.8506 C   0  0  0  0  0  0  0  0  0  0  0  0
   23.6012    5.5677   27.0594 C   0  0  0  0  0  0  0  0  0  0  0  0
   24.6005    8.7447   31.4078 C   0  0  0  0  0  0  0  0  0  0  0  0
   22.5299   10.7390   25.1545 C   0  0  0  0  0  0  0  0  0  0  0  0
   23.8709    6.7574   27.8895 C   0  0  0  0  0  0  0  0  0  0  0  0
   24.1805   10.0791   31.5914 C   0  0  0  0  0  0  0  0  0  0  0  0
   22.9113   10.6640   27.8426 N   0  0  0  0  0  0  0  0  0  0  0  0
  1 16  2  0
  1 27  1  0
  2  4  1  0
  2  6  1  0
  3  9  1  0
  4 25  2  0
  5 19  2  0
  5 22  1  0
  6  9  1  0
  6 12  2  0
  7 12  1  0
  7 25  1  0
  8 11  1  0
  8 15  1  0
  8 21  1  0
  8 26  1  0
 10 19  1  0
 10 24  2  0
 13 26  1  0
 14 15  1  0
 14 25  1  0
 14 28  1  0
 15 18  2  0
 16 21  1  0
 16 28  1  0
 17 21  1  0
 17 24  1  0
 18 20  1  0
 20 23  1  0
 22 27  2  0
 23 26  1  0
 24 27  1  0
M  END
>  <ID>  (1) 
conformer_0

$$$$
