
     RDKit          3D

 20 20  0  0  0  0  0  0  0  0999 V2000
   22.7439    9.3314   26.2795 C   0  0  0  0  0  0  0  0  0  0  0  0
   22.8534   11.2277   24.7821 N   0  0  0  0  0  0  0  0  0  0  0  0
   23.9544    9.2075   31.3435 C   0  0  0  0  0  0  0  0  0  0  0  0
   24.6360    6.3745   26.2793 C   0  0  0  0  0  0  0  0  0  0  0  0
   23.9674   11.3494   32.3816 O   0  0  0  0  0  0  0  0  0  0  0  0
   23.9584   10.1019   30.0760 C   0  0  0  0  0  0  0  0  0  0  0  0
   23.2245    6.7623   26.1530 C   0  0  0  0  0  0  0  0  0  0  0  0
   22.3711   12.8196   23.0206 C   0  0  0  0  0  0  0  0  0  0  0  0
   23.3566    6.8878   28.9176 O   0  0  0  0  0  0  0  0  0  0  0  0
   22.9215    7.9958   26.8546 C   0  0  0  0  0  0  0  0  0  0  0  0
   22.2164    5.8488   26.1330 N   0  0  0  0  0  0  0  0  0  0  0  0
   22.5474    9.9230   25.0321 C   0  0  0  0  0  0  0  0  0  0  0  0
   21.0006   10.4922   22.0122 O   0  0  0  0  0  0  0  0  0  0  0  0
   21.6488   10.4744   23.0778 C   0  0  0  0  0  0  0  0  0  0  0  0
   21.8426    9.4424   23.9494 C   0  0  0  0  0  0  0  0  0  0  0  0
   21.9471    9.8430   28.8572 O   0  0  0  0  0  0  0  0  0  0  0  0
   22.2808   11.5917   23.6026 N   0  0  0  0  0  0  0  0  0  0  0  0
   24.5004   10.0450   32.4225 C   0  0  0  0  0  0  0  0  0  0  0  0
   23.2684    9.3470   28.9382 C   0  0  0  0  0  0  0  0  0  0  0  0
   23.5011    8.0325   28.2574 C   0  0  0  0  0  0  0  0  0  0  0  0
  1 10  2  3
  1 12  1  0
  2 12  1  0
  2 17  1  0
  3  6  1  0
  3 18  1  0
  4  7  1  0
  5 18  1  0
  6 19  1  0
  7 10  1  0
  7 11  1  0
  8 17  1  0
  9 20  1  0
 10 20  1  0
 12 15  1  0
 13 14  2  0
 14 15  1  0
 14 17  1  0
 16 19  1  0
 19 20  1  0
M  END
>  <ID>  (1) 
conformer_0

$$$$
