
     RDKit          3D

 21 20  0  0  0  0  0  0  0  0999 V2000
   22.6675   10.9561   26.0207 C   0  0  0  0  0  0  0  0  0  0  0  0
   23.9003    4.4739   26.0989 C   0  0  0  0  0  0  0  0  0  0  0  0
   23.7694   10.0698   31.5990 C   0  0  0  0  0  0  0  0  0  0  0  0
   22.2009   10.9764   23.6595 C   0  0  0  0  0  0  0  0  0  0  0  0
   24.0195   10.8912   29.4809 O   0  0  0  0  0  0  0  0  0  0  0  0
   22.3734    7.9517   26.1093 C   0  0  0  0  0  0  0  0  0  0  0  0
   22.1143    8.8593   24.9696 C   0  0  0  0  0  0  0  0  0  0  0  0
   23.8346    8.6995   28.0949 C   0  0  0  0  0  0  0  0  0  0  0  0
   22.5230   10.2008   24.8193 C   0  0  0  0  0  0  0  0  0  0  0  0
   22.5040    6.5198   25.6229 C   0  0  0  0  0  0  0  0  0  0  0  0
   21.3568   10.3807   22.6341 C   0  0  0  0  0  0  0  0  0  0  0  0
   26.2451    5.7335   26.6719 C   0  0  0  0  0  0  0  0  0  0  0  0
   23.8540    8.5096   29.6389 C   0  0  0  0  0  0  0  0  0  0  0  0
   23.7877    5.9512   26.1240 C   0  0  0  0  0  0  0  0  0  0  0  0
   22.3910    6.7863   28.2665 O   0  0  0  0  0  0  0  0  0  0  0  0
   25.8134    9.6634   30.4146 O   0  0  0  0  0  0  0  0  0  0  0  0
   22.6895    7.9149   27.5518 C   0  0  0  0  0  0  0  0  0  0  0  0
   22.5758   12.1930   23.5920 O   0  0  0  0  0  0  0  0  0  0  0  0
   25.0162    6.6382   26.7158 C   0  0  0  0  0  0  0  0  0  0  0  0
   24.4220    9.8279   30.2446 C   0  0  0  0  0  0  0  0  0  0  0  0
   21.9221   10.5097   27.1205 O   0  0  0  0  0  0  0  0  0  0  0  0
  1  9  1  0
  1 21  1  0
  2 14  1  0
  3 20  1  0
  4  9  1  0
  4 11  1  0
  4 18  2  0
  5 20  1  0
  6  7  1  0
  6 10  1  0
  6 17  1  0
  7  9  1  0
  8 13  1  0
  8 17  1  0
 10 14  1  0
 12 19  1  0
 13 20  1  0
 14 19  1  0
 15 17  1  0
 16 20  1  0
M  END
>  <ID>  (1) 
conformer_0

$$$$
