
     RDKit          3D

 18 18  0  0  0  0  0  0  0  0999 V2000
   24.8531    7.7054   29.8844 C   0  0  0  0  0  0  0  0  0  0  0  0
   22.4445   11.5652   24.0588 C   0  0  0  0  0  0  0  0  0  0  0  0
   21.9430    9.9635   28.8521 O   0  0  0  0  0  0  0  0  0  0  0  0
   21.5709   12.9168   22.1045 C   0  0  0  0  0  0  0  0  0  0  0  0
   23.5546   10.1229   31.0468 C   0  0  0  0  0  0  0  0  0  0  0  0
   24.6952    9.1730   30.4216 C   0  0  0  0  0  0  0  0  0  0  0  0
   22.0540   11.6490   22.6202 C   0  0  0  0  0  0  0  0  0  0  0  0
   21.8856    6.4615   26.8620 C   0  0  0  0  0  0  0  0  0  0  0  0
   22.8640    9.7198   27.9880 C   0  0  0  0  0  0  0  0  0  0  0  0
   23.0805    8.2806   25.5882 C   0  0  0  0  0  0  0  0  0  0  0  0
   23.0032   10.3038   24.3116 C   0  0  0  0  0  0  0  0  0  0  0  0
   22.7334   10.4048   26.7193 C   0  0  0  0  0  0  0  0  0  0  0  0
   22.9853    9.6918   25.5719 C   0  0  0  0  0  0  0  0  0  0  0  0
   21.3396   10.3562   22.2601 C   0  0  0  0  0  0  0  0  0  0  0  0
   24.5325    7.6409   28.4954 O   0  0  0  0  0  0  0  0  0  0  0  0
   22.5592    5.3493   27.3970 O   0  0  0  0  0  0  0  0  0  0  0  0
   22.7911    7.6477   26.8589 C   0  0  0  0  0  0  0  0  0  0  0  0
   23.4585    8.3924   27.9287 C   0  0  0  0  0  0  0  0  0  0  0  0
  1  6  1  0
  1 15  1  0
  2  7  1  0
  2 11  1  0
  3  9  1  0
  4  7  1  0
  5  6  1  0
  7 14  1  0
  8 16  1  0
  8 17  1  0
  9 12  1  0
  9 18  1  0
 10 13  1  0
 10 17  1  0
 11 13  1  0
 12 13  2  0
 15 18  1  0
 17 18  1  0
M  END
>  <ID>  (1) 
conformer_0

$$$$
