
     RDKit          3D

 12 13  0  0  0  0  0  0  0  0999 V2000
   22.0618    8.6670   25.8117 N   0  0  0  0  0  0  0  0  0  0  0  0
   23.6672   10.1779   30.3566 C   0  0  0  0  0  0  0  0  0  0  0  0
   24.7494    8.1372   29.2858 N   0  0  0  0  0  0  0  0  0  0  0  0
   22.3448   10.0754   27.6673 N   0  0  0  0  0  0  0  0  0  0  0  0
   24.7139    7.6136   28.0211 C   0  0  0  0  0  0  0  0  0  0  0  0
   23.1210    7.9120   26.1305 C   0  0  0  0  0  0  0  0  0  0  0  0
   23.7239    8.1765   27.3168 C   0  0  0  0  0  0  0  0  0  0  0  0
   24.2209    8.5773   32.1484 C   0  0  0  0  0  0  0  0  0  0  0  0
   21.9317    9.8581   26.4392 C   0  0  0  0  0  0  0  0  0  0  0  0
   23.8601    9.1373   29.3143 C   0  0  0  0  0  0  0  0  0  0  0  0
   24.5594    9.9349   31.5571 C   0  0  0  0  0  0  0  0  0  0  0  0
   23.1995    9.1829   28.0758 C   0  0  0  0  0  0  0  0  0  0  0  0
  1  6  1  0
  1  9  1  0
  2 10  1  0
  2 11  1  0
  3  5  1  0
  3 10  1  0
  4  9  1  0
  4 12  1  0
  5  7  1  0
  6  7  1  0
  7 12  2  0
  8 11  1  0
 10 12  1  0
M  END
>  <ID>  (1) 
conformer_0

$$$$
