
     RDKit          3D

 21 22  0  0  0  0  0  0  0  0999 V2000
   23.3712    4.3153   26.3107 N   0  0  0  0  0  0  0  0  0  0  0  0
   22.9696    9.8845   29.6398 C   0  0  0  0  0  0  0  0  0  0  0  0
   22.6044   10.6527   24.2206 C   0  0  0  0  0  0  0  0  0  0  0  0
   22.7202   11.8587   23.4105 N   0  0  0  0  0  0  0  0  0  0  0  0
   24.9063    5.9658   26.7563 C   0  0  0  0  0  0  0  0  0  0  0  0
   22.6153   10.2049   26.5391 C   0  0  0  0  0  0  0  0  0  0  0  0
   23.5976    6.2573   27.3767 C   0  0  0  0  0  0  0  0  0  0  0  0
   23.8393    8.7696   30.4885 C   0  0  0  0  0  0  0  0  0  0  0  0
   25.9591    9.8148   30.5153 O   0  0  0  0  0  0  0  0  0  0  0  0
   23.1412    7.3818   28.1434 C   0  0  0  0  0  0  0  0  0  0  0  0
   25.8062    7.9190   29.3555 O   0  0  0  0  0  0  0  0  0  0  0  0
   21.6088   10.2980   23.3293 C   0  0  0  0  0  0  0  0  0  0  0  0
   21.7694   11.5393   22.4664 C   0  0  0  0  0  0  0  0  0  0  0  0
   22.0058    8.1119   27.6425 N   0  0  0  0  0  0  0  0  0  0  0  0
   24.7407    4.6458   26.1378 C   0  0  0  0  0  0  0  0  0  0  0  0
   21.4035    5.4286   26.8736 O   0  0  0  0  0  0  0  0  0  0  0  0
   22.9684   10.8307   25.4369 N   0  0  0  0  0  0  0  0  0  0  0  0
   25.3496    8.8297   30.1053 C   0  0  0  0  0  0  0  0  0  0  0  0
   22.7046   10.7221   28.0707 C   0  0  0  0  0  0  0  0  0  0  0  0
   22.6360    5.3384   26.8115 C   0  0  0  0  0  0  0  0  0  0  0  0
   22.0334    8.8782   26.4528 C   0  0  0  0  0  0  0  0  0  0  0  0
  1 15  1  0
  1 20  1  0
  2  8  1  0
  2 19  1  0
  3  4  2  0
  3 12  1  0
  3 17  1  0
  4 13  1  0
  5  7  1  0
  5 15  1  0
  6 17  1  0
  6 19  1  0
  6 21  1  0
  7 10  1  0
  7 20  1  0
  8 18  1  0
  9 18  2  0
 10 14  1  0
 11 18  1  0
 12 13  1  0
 14 21  1  0
 16 20  2  0
M  END
>  <ID>  (1) 
conformer_0

$$$$
