
     RDKit          3D

 30 34  0  0  0  0  0  0  0  0999 V2000
   21.8709    8.4910   24.9908 C   0  0  0  0  0  0  0  0  0  0  0  0
   24.2211    9.9916   30.3317 C   0  0  0  0  0  0  0  0  0  0  0  0
   24.6804    7.8921   31.6926 C   0  0  0  0  0  0  0  0  0  0  0  0
   24.4894   10.1209   32.8523 C   0  0  0  0  0  0  0  0  0  0  0  0
   22.4245   10.6408   24.7302 C   0  0  0  0  0  0  0  0  0  0  0  0
   26.3769    4.9549   27.0125 C   0  0  0  0  0  0  0  0  0  0  0  0
   24.0781    8.5521   30.5921 C   0  0  0  0  0  0  0  0  0  0  0  0
   23.6048    7.6745   29.4801 C   0  0  0  0  0  0  0  0  0  0  0  0
   24.3185    6.1024   27.4906 C   0  0  0  0  0  0  0  0  0  0  0  0
   22.3417    8.9479   26.1491 C   0  0  0  0  0  0  0  0  0  0  0  0
   25.7207    6.3539   26.9264 C   0  0  0  0  0  0  0  0  0  0  0  0
   21.2242    9.6270   22.9283 C   0  0  0  0  0  0  0  0  0  0  0  0
   21.0656   10.6778   22.2452 N   0  0  0  0  0  0  0  0  0  0  0  0
   27.3352    5.1416   28.1416 C   0  0  0  0  0  0  0  0  0  0  0  0
   24.9161    6.6162   31.6824 O   0  0  0  0  0  0  0  0  0  0  0  0
   23.5924    4.7835   25.5097 O   0  0  0  0  0  0  0  0  0  0  0  0
   24.6603    8.6319   32.9946 C   0  0  0  0  0  0  0  0  0  0  0  0
   24.2826    6.5757   28.9105 O   0  0  0  0  0  0  0  0  0  0  0  0
   22.8320   10.2004   25.9777 C   0  0  0  0  0  0  0  0  0  0  0  0
   21.6943   11.8560   22.0397 C   0  0  0  0  0  0  0  0  0  0  0  0
   23.9143   10.7433   31.6030 C   0  0  0  0  0  0  0  0  0  0  0  0
   23.2806    6.8276   26.8804 O   0  0  0  0  0  0  0  0  0  0  0  0
   24.1031    4.7526   26.6356 C   0  0  0  0  0  0  0  0  0  0  0  0
   25.2285    4.0807   27.0167 O   0  0  0  0  0  0  0  0  0  0  0  0
   22.6696   11.7683   24.1879 N   0  0  0  0  0  0  0  0  0  0  0  0
   22.9130    8.0619   27.1613 C   0  0  0  0  0  0  0  0  0  0  0  0
   23.0462    8.5916   28.4909 C   0  0  0  0  0  0  0  0  0  0  0  0
   22.0512    9.4378   28.8597 O   0  0  0  0  0  0  0  0  0  0  0  0
   21.7680    9.5596   24.1633 C   0  0  0  0  0  0  0  0  0  0  0  0
   22.5420   12.3796   23.0549 C   0  0  0  0  0  0  0  0  0  0  0  0
  1 10  1  0
  1 29  1  0
  2  7  1  0
  2 21  1  0
  3  7  1  0
  3 15  1  0
  3 17  1  0
  4 17  1  0
  4 21  1  0
  5 19  1  0
  5 25  2  0
  5 29  1  0
  6 11  1  0
  6 14  1  0
  6 24  1  0
  7  8  1  0
  8 18  1  0
  8 27  1  0
  9 11  1  0
  9 18  1  0
  9 22  1  0
  9 23  1  0
 10 19  1  0
 10 26  1  0
 12 13  1  0
 12 29  2  0
 13 20  1  0
 16 23  2  0
 20 30  2  0
 22 26  1  0
 23 24  1  0
 25 30  1  0
 26 27  1  0
 27 28  1  0
M  END
>  <ID>  (1) 
conformer_0

$$$$
