
     RDKit          3D

 15 16  0  0  0  0  0  0  0  0999 V2000
   24.5388    8.5012   31.6407 C   0  0  0  0  0  0  0  0  0  0  0  0
   24.4602    9.8384   32.0101 C   0  0  0  0  0  0  0  0  0  0  0  0
   23.2327    8.9232   29.6440 C   0  0  0  0  0  0  0  0  0  0  0  0
   21.7964   10.2511   23.4224 F   0  0  0  0  0  0  0  0  0  0  0  0
   22.3942   10.7913   25.6521 C   0  0  0  0  0  0  0  0  0  0  0  0
   23.7872   10.7435   31.1753 C   0  0  0  0  0  0  0  0  0  0  0  0
   23.9460    8.0437   30.4724 C   0  0  0  0  0  0  0  0  0  0  0  0
   22.2269    8.4976   24.8911 C   0  0  0  0  0  0  0  0  0  0  0  0
   23.1845   10.2852   29.9877 C   0  0  0  0  0  0  0  0  0  0  0  0
   22.4720    8.3915   28.5556 C   0  0  0  0  0  0  0  0  0  0  0  0
   22.1554    9.8552   24.6561 C   0  0  0  0  0  0  0  0  0  0  0  0
   21.5061    7.5541   28.8219 O   0  0  0  0  0  0  0  0  0  0  0  0
   22.5327    8.9499   27.2078 C   0  0  0  0  0  0  0  0  0  0  0  0
   22.4177    8.0637   26.1644 C   0  0  0  0  0  0  0  0  0  0  0  0
   22.5911   10.3227   26.9248 C   0  0  0  0  0  0  0  0  0  0  0  0
  1  2  2  0
  1  7  1  0
  2  6  1  0
  3  7  2  0
  3  9  1  0
  3 10  1  0
  4 11  1  0
  5 11  2  0
  5 15  1  0
  6  9  2  0
  8 11  1  0
  8 14  2  0
 10 12  1  0
 10 13  1  0
 13 14  1  0
 13 15  2  0
M  END
>  <ID>  (1) 
conformer_0

$$$$
