
     RDKit          3D

 24 25  0  0  0  0  0  0  0  0999 V2000
   23.2033    8.6291   25.8108 C   0  0  0  0  0  0  0  0  0  0  0  0
   23.4185   12.2009   26.5689 O   0  0  0  0  0  0  0  0  0  0  0  0
   21.8344   13.8134   22.6043 C   0  0  0  0  0  0  0  0  0  0  0  0
   22.9535   11.0629   26.7387 C   0  0  0  0  0  0  0  0  0  0  0  0
   22.1401    5.8108   26.5156 O   0  0  0  0  0  0  0  0  0  0  0  0
   21.4424   13.2520   21.4178 N   0  0  0  0  0  0  0  0  0  0  0  0
   23.2372    6.9861   28.3505 C   0  0  0  0  0  0  0  0  0  0  0  0
   22.1254   10.9451   27.7310 O   0  0  0  0  0  0  0  0  0  0  0  0
   22.1351   12.8173   23.4418 N   0  0  0  0  0  0  0  0  0  0  0  0
   23.5028   10.4249   30.7152 C   0  0  0  0  0  0  0  0  0  0  0  0
   21.9863   10.2717   24.6860 C   0  0  0  0  0  0  0  0  0  0  0  0
   25.8122    9.6111   30.2860 O   0  0  0  0  0  0  0  0  0  0  0  0
   24.5522    9.4199   30.5380 C   0  0  0  0  0  0  0  0  0  0  0  0
   24.4337    7.3071   29.1776 C   0  0  0  0  0  0  0  0  0  0  0  0
   24.0369    7.3628   26.0397 C   0  0  0  0  0  0  0  0  0  0  0  0
   24.0858    7.9952   30.4318 C   0  0  0  0  0  0  0  0  0  0  0  0
   21.9376   11.6459   22.7509 C   0  0  0  0  0  0  0  0  0  0  0  0
   22.1290   10.3519   23.3385 C   0  0  0  0  0  0  0  0  0  0  0  0
   22.4146    8.2380   28.1319 C   0  0  0  0  0  0  0  0  0  0  0  0
   25.5892    6.9702   28.7169 O   0  0  0  0  0  0  0  0  0  0  0  0
   21.5587   11.9303   21.5268 N   0  0  0  0  0  0  0  0  0  0  0  0
   23.2163   10.1540   25.5210 C   0  0  0  0  0  0  0  0  0  0  0  0
   23.3993    6.3162   27.0041 C   0  0  0  0  0  0  0  0  0  0  0  0
   21.9771    8.4431   26.6900 C   0  0  0  0  0  0  0  0  0  0  0  0
  1 15  1  0
  1 22  1  0
  1 24  1  0
  2  4  2  0
  3  6  1  0
  3  9  1  0
  4  8  1  0
  4 22  1  0
  5 23  1  0
  6 21  1  0
  7 14  1  0
  7 19  1  0
  7 23  1  0
  9 17  2  0
 10 13  1  0
 11 18  1  0
 11 22  1  0
 12 13  1  0
 13 16  1  0
 14 16  1  0
 14 20  1  0
 15 23  1  0
 17 18  1  0
 17 21  1  0
 19 24  1  0
M  END
>  <ID>  (1) 
conformer_0

$$$$
