
     RDKit          3D

 31 35  0  0  0  0  0  0  0  0999 V2000
   22.3312    7.8236   26.8306 C   0  0  0  0  0  0  0  0  0  0  0  0
   21.8573    9.2718   24.3195 C   0  0  0  0  0  0  0  0  0  0  0  0
   22.1962   10.5829   24.1300 C   0  0  0  0  0  0  0  0  0  0  0  0
   21.9748   13.5742   22.1346 C   0  0  0  0  0  0  0  0  0  0  0  0
   23.3488    5.1691   26.0991 C   0  0  0  0  0  0  0  0  0  0  0  0
   24.6810    8.2349   32.8826 C   0  0  0  0  0  0  0  0  0  0  0  0
   22.6635   10.0314   26.2110 C   0  0  0  0  0  0  0  0  0  0  0  0
   23.9794    7.7417   28.6169 C   0  0  0  0  0  0  0  0  0  0  0  0
   22.8097    5.0787   24.9484 O   0  0  0  0  0  0  0  0  0  0  0  0
   22.4106   12.8150   23.2761 C   0  0  0  0  0  0  0  0  0  0  0  0
   22.9927    8.5886   27.9230 C   0  0  0  0  0  0  0  0  0  0  0  0
   21.2618   12.6877   21.3127 C   0  0  0  0  0  0  0  0  0  0  0  0
   22.1624    8.8821   25.6890 N   0  0  0  0  0  0  0  0  0  0  0  0
   25.3067    9.6640   30.8318 C   0  0  0  0  0  0  0  0  0  0  0  0
   22.7250    4.1677   27.0587 C   0  0  0  0  0  0  0  0  0  0  0  0
   23.1380    6.5635   26.7312 C   0  0  0  0  0  0  0  0  0  0  0  0
   23.0848    9.8976   27.4571 N   0  0  0  0  0  0  0  0  0  0  0  0
   24.2133   10.3628   31.4371 C   0  0  0  0  0  0  0  0  0  0  0  0
   21.3435   11.4107   21.9613 C   0  0  0  0  0  0  0  0  0  0  0  0
   24.9235    5.0019   26.1565 C   0  0  0  0  0  0  0  0  0  0  0  0
   21.0888    7.4214   27.1777 O   0  0  0  0  0  0  0  0  0  0  0  0
   21.9962   11.5121   23.1750 C   0  0  0  0  0  0  0  0  0  0  0  0
   25.6116    7.2645   30.9228 O   0  0  0  0  0  0  0  0  0  0  0  0
   25.7772    8.5351   31.7972 C   0  0  0  0  0  0  0  0  0  0  0  0
   20.6443   13.0167   20.2361 O   0  0  0  0  0  0  0  0  0  0  0  0
   25.3358    5.8341   27.4705 C   0  0  0  0  0  0  0  0  0  0  0  0
   23.9797    6.3785   28.0008 C   0  0  0  0  0  0  0  0  0  0  0  0
   24.0622    9.9526   30.0167 C   0  0  0  0  0  0  0  0  0  0  0  0
   24.6104    7.4699   29.9614 C   0  0  0  0  0  0  0  0  0  0  0  0
   22.8336   10.9578   25.3033 N   0  0  0  0  0  0  0  0  0  0  0  0
   23.8811   11.0434   29.3602 O   0  0  0  0  0  0  0  0  0  0  0  0
  1 11  1  0
  1 13  1  0
  1 16  1  0
  1 21  1  0
  2  3  1  0
  2 13  1  0
  3 22  2  3
  3 30  1  0
  4 10  1  0
  4 12  1  0
  5  9  1  0
  5 15  1  0
  5 16  1  0
  5 20  1  0
  6 24  1  0
  7 13  1  0
  7 17  2  0
  7 30  1  0
  8 11  1  0
  8 27  1  0
  8 29  1  0
 10 22  1  0
 11 17  1  0
 12 19  1  0
 12 25  2  0
 14 18  1  0
 14 24  1  0
 16 27  1  0
 18 28  1  0
 19 22  1  0
 20 26  1  0
 23 24  1  0
 23 29  1  0
 26 27  1  0
 28 31  1  0
M  END
>  <ID>  (1) 
conformer_0

$$$$
