
     RDKit          3D

 26 28  0  0  0  0  0  0  0  0999 V2000
   23.9655    7.6716   25.7442 C   0  0  0  0  0  0  0  0  0  0  0  0
   24.2537    6.6220   26.8493 C   0  0  0  0  0  0  0  0  0  0  0  0
   21.3328   14.0765   21.5550 O   0  0  0  0  0  0  0  0  0  0  0  0
   24.0349   11.1673   31.8586 C   0  0  0  0  0  0  0  0  0  0  0  0
   23.5838   11.0887   30.5632 C   0  0  0  0  0  0  0  0  0  0  0  0
   21.9618    7.6686   28.1447 N   0  0  0  0  0  0  0  0  0  0  0  0
   21.6833   11.8825   22.2671 C   0  0  0  0  0  0  0  0  0  0  0  0
   22.9540    9.8878   28.5267 C   0  0  0  0  0  0  0  0  0  0  0  0
   22.9558    8.6387   27.7917 C   0  0  0  0  0  0  0  0  0  0  0  0
   23.6763    8.7210   30.6588 C   0  0  0  0  0  0  0  0  0  0  0  0
   23.0651    8.7098   26.3401 C   0  0  0  0  0  0  0  0  0  0  0  0
   22.4195   10.4124   24.4705 C   0  0  0  0  0  0  0  0  0  0  0  0
   22.8160   10.9749   27.9100 O   0  0  0  0  0  0  0  0  0  0  0  0
   22.8856   11.7139   24.3192 N   0  0  0  0  0  0  0  0  0  0  0  0
   21.2874   10.5706   22.4104 C   0  0  0  0  0  0  0  0  0  0  0  0
   22.4917   12.4386   23.2670 C   0  0  0  0  0  0  0  0  0  0  0  0
   23.0833    5.1012   25.5239 C   0  0  0  0  0  0  0  0  0  0  0  0
   21.6268    9.8636   23.5451 C   0  0  0  0  0  0  0  0  0  0  0  0
   23.5034    7.5181   30.2169 O   0  0  0  0  0  0  0  0  0  0  0  0
   23.3957    9.9119   29.9197 C   0  0  0  0  0  0  0  0  0  0  0  0
   22.9602    5.7804   26.9012 C   0  0  0  0  0  0  0  0  0  0  0  0
   22.8128    9.7827   25.5956 O   0  0  0  0  0  0  0  0  0  0  0  0
   21.3127   12.6948   21.1140 C   0  0  0  0  0  0  0  0  0  0  0  0
   24.3081   10.0401   32.5382 N   0  0  0  0  0  0  0  0  0  0  0  0
   24.1345    8.8480   31.9378 N   0  0  0  0  0  0  0  0  0  0  0  0
   21.6775    6.6176   27.1117 C   0  0  0  0  0  0  0  0  0  0  0  0
  1  2  1  0
  1 11  1  0
  2 21  1  0
  3 23  1  0
  4  5  1  0
  4 24  2  0
  5 20  2  0
  6  9  1  0
  6 26  1  0
  7 15  2  0
  7 16  1  0
  7 23  1  0
  8  9  1  0
  8 13  2  0
  8 20  1  0
  9 11  1  0
 10 19  2  0
 10 20  1  0
 10 25  1  0
 11 22  1  0
 12 14  1  0
 12 18  2  0
 12 22  1  0
 14 16  2  0
 15 18  1  0
 17 21  1  0
 21 26  1  0
 24 25  1  0
M  END
>  <ID>  (1) 
conformer_0

$$$$
