
     RDKit          3D

 31 33  0  0  0  0  0  0  0  0999 V2000
   25.5258    5.5716   27.1872 C   0  0  0  0  0  0  0  0  0  0  0  0
   23.8682    9.8732   29.5903 C   0  0  0  0  0  0  0  0  0  0  0  0
   22.0635   10.4426   26.7568 C   0  0  0  0  0  0  0  0  0  0  0  0
   26.9095    6.7432   30.8613 C   0  0  0  0  0  0  0  0  0  0  0  0
   22.5639   11.6678   23.2964 C   0  0  0  0  0  0  0  0  0  0  0  0
   21.8206   10.7502   22.5537 C   0  0  0  0  0  0  0  0  0  0  0  0
   24.7880   10.1159   33.2675 C   0  0  0  0  0  0  0  0  0  0  0  0
   22.6960   11.5226   24.6639 C   0  0  0  0  0  0  0  0  0  0  0  0
   22.5268    7.9821   28.2139 C   0  0  0  0  0  0  0  0  0  0  0  0
   21.2659    9.6385   23.1829 C   0  0  0  0  0  0  0  0  0  0  0  0
   23.9196    7.9762   26.1527 C   0  0  0  0  0  0  0  0  0  0  0  0
   25.3757    4.0111   27.1246 C   0  0  0  0  0  0  0  0  0  0  0  0
   23.8458    3.7042   26.8295 C   0  0  0  0  0  0  0  0  0  0  0  0
   26.7460    8.1219   31.4167 C   0  0  0  0  0  0  0  0  0  0  0  0
   25.3797    8.7379   33.4283 C   0  0  0  0  0  0  0  0  0  0  0  0
   24.3538   10.4363   31.8442 C   0  0  0  0  0  0  0  0  0  0  0  0
   25.9743    9.0336   30.5405 C   0  0  0  0  0  0  0  0  0  0  0  0
   22.0026    5.3053   26.4267 O   0  0  0  0  0  0  0  0  0  0  0  0
   22.0130   10.4656   25.3041 C   0  0  0  0  0  0  0  0  0  0  0  0
   23.7497   11.5534   31.5568 O   0  0  0  0  0  0  0  0  0  0  0  0
   22.8900    9.2969   28.6881 C   0  0  0  0  0  0  0  0  0  0  0  0
   24.5431    9.4410   30.7949 C   0  0  0  0  0  0  0  0  0  0  0  0
   26.7794    8.6539   32.8573 C   0  0  0  0  0  0  0  0  0  0  0  0
   21.3488    9.4856   24.5302 C   0  0  0  0  0  0  0  0  0  0  0  0
   23.5388    7.3586   27.3881 C   0  0  0  0  0  0  0  0  0  0  0  0
   24.1707    5.9676   29.1068 O   0  0  0  0  0  0  0  0  0  0  0  0
   24.0540    5.9933   27.6841 C   0  0  0  0  0  0  0  0  0  0  0  0
   22.7760    2.7115   27.1836 O   0  0  0  0  0  0  0  0  0  0  0  0
   23.1303    5.0069   27.0175 C   0  0  0  0  0  0  0  0  0  0  0  0
   22.2173    9.3039   27.5671 N   0  0  0  0  0  0  0  0  0  0  0  0
   24.4671    7.6119   32.8521 C   0  0  0  0  0  0  0  0  0  0  0  0
  1 12  1  0
  1 27  1  0
  2 21  1  0
  2 22  1  0
  3 19  1  0
  3 30  1  0
  4 14  1  0
  5  6  1  0
  5  8  2  0
  6 10  1  0
  7 15  1  0
  7 16  1  0
  8 19  1  0
  9 21  1  0
  9 25  1  0
 10 24  2  0
 11 25  1  0
 12 13  1  0
 13 28  1  0
 13 29  1  0
 14 17  1  0
 14 23  1  0
 15 23  1  0
 15 31  1  0
 16 20  1  0
 16 22  1  0
 17 22  1  0
 18 29  1  0
 19 24  1  0
 21 30  1  0
 25 27  1  0
 26 27  1  0
 27 29  1  0
M  END
>  <ID>  (1) 
conformer_0

$$$$
