
     RDKit          3D

 28 31  0  0  0  0  0  0  0  0999 V2000
   24.4339    8.5552   31.2980 C   0  0  0  0  0  0  0  0  0  0  0  0
   23.1622    9.7807   29.1604 C   0  0  0  0  0  0  0  0  0  0  0  0
   21.2409   12.1349   21.3866 O   0  0  0  0  0  0  0  0  0  0  0  0
   24.1571    1.6762   26.2149 N   0  0  0  0  0  0  0  0  0  0  0  0
   22.0388    9.8755   24.1599 C   0  0  0  0  0  0  0  0  0  0  0  0
   22.7800    3.5723   25.8050 C   0  0  0  0  0  0  0  0  0  0  0  0
   23.3342    7.8251   26.7390 C   0  0  0  0  0  0  0  0  0  0  0  0
   23.9516    9.8432   31.4097 C   0  0  0  0  0  0  0  0  0  0  0  0
   21.5013   10.2961   22.9362 C   0  0  0  0  0  0  0  0  0  0  0  0
   22.8879    6.4581   26.3774 C   0  0  0  0  0  0  0  0  0  0  0  0
   24.1426   10.4728   32.5389 F   0  0  0  0  0  0  0  0  0  0  0  0
   21.6946   11.6443   22.5840 C   0  0  0  0  0  0  0  0  0  0  0  0
   22.1413    8.6968   24.8318 N   0  0  0  0  0  0  0  0  0  0  0  0
   24.1138    5.5779   26.2866 C   0  0  0  0  0  0  0  0  0  0  0  0
   23.8888    7.8919   27.9131 N   0  0  0  0  0  0  0  0  0  0  0  0
   23.3017   10.4699   30.3549 C   0  0  0  0  0  0  0  0  0  0  0  0
   21.1089   13.5742   21.2560 C   0  0  0  0  0  0  0  0  0  0  0  0
   22.8559    8.8615   25.9430 C   0  0  0  0  0  0  0  0  0  0  0  0
   22.4024   12.4841   23.4491 N   0  0  0  0  0  0  0  0  0  0  0  0
   23.0237    2.1478   25.4767 C   0  0  0  0  0  0  0  0  0  0  0  0
   22.7064   10.7494   24.9824 C   0  0  0  0  0  0  0  0  0  0  0  0
   22.9022   12.0249   24.6171 N   0  0  0  0  0  0  0  0  0  0  0  0
   23.7624    8.4998   29.0819 C   0  0  0  0  0  0  0  0  0  0  0  0
   24.2278    2.1453   27.6009 C   0  0  0  0  0  0  0  0  0  0  0  0
   23.7805    4.2297   26.6024 N   0  0  0  0  0  0  0  0  0  0  0  0
   23.1719   10.1370   26.0720 N   0  0  0  0  0  0  0  0  0  0  0  0
   24.6760    3.5880   27.5073 C   0  0  0  0  0  0  0  0  0  0  0  0
   24.3411    7.8675   30.1756 C   0  0  0  0  0  0  0  0  0  0  0  0
  1  8  2  0
  1 28  1  0
  2 16  2  0
  2 23  1  0
  3 12  1  0
  3 17  1  0
  4 20  1  0
  4 24  1  0
  5  9  2  0
  5 13  1  0
  5 21  1  0
  6 20  1  0
  6 25  1  0
  7 10  1  0
  7 15  1  0
  7 18  1  0
  8 11  1  0
  8 16  1  0
  9 12  1  0
 10 14  1  0
 12 19  2  0
 13 18  2  0
 14 25  1  0
 15 23  1  0
 18 26  1  0
 19 22  1  0
 21 22  2  0
 21 26  1  0
 23 28  2  0
 24 27  1  0
 25 27  1  0
M  END
>  <ID>  (1) 
conformer_0

$$$$
