
     RDKit          3D

 21 23  0  0  0  0  0  0  0  0999 V2000
   22.9298    9.5133   26.4243 C   0  0  0  0  0  0  0  0  0  0  0  0
   24.2497    7.6506   27.1374 C   0  0  0  0  0  0  0  0  0  0  0  0
   24.2092    7.9889   31.6323 C   0  0  0  0  0  0  0  0  0  0  0  0
   22.0369    9.3885   25.3554 C   0  0  0  0  0  0  0  0  0  0  0  0
   23.9932   10.8347   31.1220 C   0  0  0  0  0  0  0  0  0  0  0  0
   21.1562    7.5369   28.4322 O   0  0  0  0  0  0  0  0  0  0  0  0
   21.3307    9.9416   23.0350 C   0  0  0  0  0  0  0  0  0  0  0  0
   23.3116    7.5487   29.3852 C   0  0  0  0  0  0  0  0  0  0  0  0
   22.9456    8.3076   27.2024 N   0  0  0  0  0  0  0  0  0  0  0  0
   24.5055    7.1666   28.5528 C   0  0  0  0  0  0  0  0  0  0  0  0
   22.3248    8.0209   28.4336 C   0  0  0  0  0  0  0  0  0  0  0  0
   22.6651   11.4930   24.2400 N   0  0  0  0  0  0  0  0  0  0  0  0
   24.6185    8.5248   32.7418 C   0  0  0  0  0  0  0  0  0  0  0  0
   22.5149   12.4046   23.2214 C   0  0  0  0  0  0  0  0  0  0  0  0
   24.7845    9.8061   33.2259 C   0  0  0  0  0  0  0  0  0  0  0  0
   23.7224    8.4808   30.4409 C   0  0  0  0  0  0  0  0  0  0  0  0
   24.4848   10.8962   32.3890 C   0  0  0  0  0  0  0  0  0  0  0  0
   22.0017   10.2669   24.1891 C   0  0  0  0  0  0  0  0  0  0  0  0
   23.6383    9.8532   30.2743 C   0  0  0  0  0  0  0  0  0  0  0  0
   21.1875   10.8488   22.0322 C   0  0  0  0  0  0  0  0  0  0  0  0
   21.7648   12.1060   22.1053 C   0  0  0  0  0  0  0  0  0  0  0  0
  1  4  1  0
  1  9  1  0
  2  9  1  0
  2 10  1  0
  3 13  2  0
  3 16  1  0
  4 18  1  0
  5 17  1  0
  5 19  2  0
  6 11  2  0
  7 18  2  0
  7 20  1  0
  8 10  1  0
  8 11  1  0
  8 16  1  0
  9 11  1  0
 12 14  2  0
 12 18  1  0
 13 15  1  0
 14 21  1  0
 15 17  2  0
 16 19  1  0
 20 21  2  0
M  END
>  <ID>  (1) 
conformer_0

$$$$
