
     RDKit          3D

 30 32  0  0  0  0  0  0  0  0999 V2000
   20.9760    9.0200   22.6556 O   0  0  0  0  0  0  0  0  0  0  0  0
   21.3704   10.2273   22.7301 C   0  0  0  0  0  0  0  0  0  0  0  0
   22.1111   10.8560   23.7464 C   0  0  0  0  0  0  0  0  0  0  0  0
   22.4159   12.1461   23.3952 C   0  0  0  0  0  0  0  0  0  0  0  0
   21.8035   12.3578   22.0957 C   0  0  0  0  0  0  0  0  0  0  0  0
   22.9889   10.3342   29.7138 C   0  0  0  0  0  0  0  0  0  0  0  0
   21.2652    7.5139   28.0436 O   0  0  0  0  0  0  0  0  0  0  0  0
   21.8656   13.4352   21.4008 O   0  0  0  0  0  0  0  0  0  0  0  0
   23.0289   10.9927   27.0128 C   0  0  0  0  0  0  0  0  0  0  0  0
   23.2352   12.0179   27.6697 O   0  0  0  0  0  0  0  0  0  0  0  0
   23.0607    9.3110   28.7494 N   0  0  0  0  0  0  0  0  0  0  0  0
   22.1944    8.9513   25.2932 C   0  0  0  0  0  0  0  0  0  0  0  0
   25.8308    5.1756   29.4034 C   0  0  0  0  0  0  0  0  0  0  0  0
   22.4716   10.2426   24.9080 C   0  0  0  0  0  0  0  0  0  0  0  0
   22.8053    5.9837   27.1805 C   0  0  0  0  0  0  0  0  0  0  0  0
   23.7429   10.1821   30.9149 C   0  0  0  0  0  0  0  0  0  0  0  0
   22.6689    9.7337   27.4748 C   0  0  0  0  0  0  0  0  0  0  0  0
   23.1552    3.2336   26.8113 C   0  0  0  0  0  0  0  0  0  0  0  0
   23.8311   11.4903   31.6708 C   0  0  0  0  0  0  0  0  0  0  0  0
   24.0274    5.3397   27.6350 C   0  0  0  0  0  0  0  0  0  0  0  0
   22.6244    8.6425   26.5568 C   0  0  0  0  0  0  0  0  0  0  0  0
   24.1245    3.9768   27.4114 C   0  0  0  0  0  0  0  0  0  0  0  0
   21.8557    5.2003   26.5613 C   0  0  0  0  0  0  0  0  0  0  0  0
   26.1358    6.7688   27.5337 C   0  0  0  0  0  0  0  0  0  0  0  0
   25.1930    5.9851   28.3379 C   0  0  0  0  0  0  0  0  0  0  0  0
   22.3736    7.4342   27.3156 C   0  0  0  0  0  0  0  0  0  0  0  0
   23.9768    8.9489   31.5998 C   0  0  0  0  0  0  0  0  0  0  0  0
   21.1368   11.1693   21.7097 N   0  0  0  0  0  0  0  0  0  0  0  0
   21.9988    3.8772   26.4013 C   0  0  0  0  0  0  0  0  0  0  0  0
   23.1712   10.9989   25.7237 N   0  0  0  0  0  0  0  0  0  0  0  0
  1  2  2  0
  2  3  1  0
  2 28  1  0
  3  4  1  0
  3 14  2  3
  4  5  1  0
  5  8  2  0
  5 28  1  0
  6 11  1  0
  6 16  1  0
  7 26  1  0
  9 10  2  0
  9 17  1  0
  9 30  1  0
 11 17  1  0
 12 14  1  0
 12 21  1  0
 13 25  1  0
 14 30  1  0
 15 20  2  0
 15 23  1  0
 15 26  1  0
 16 19  1  0
 16 27  1  0
 17 21  1  0
 18 22  2  0
 18 29  1  0
 20 22  1  0
 20 25  1  0
 21 26  1  0
 23 29  2  0
 24 25  1  0
M  END
>  <ID>  (1) 
conformer_0

$$$$
