
     RDKit          3D

 35 37  0  0  0  0  0  0  0  0999 V2000
   23.5082    6.8737   27.8501 N   0  0  0  0  0  0  0  0  0  0  0  0
   24.6494   10.0091   32.9766 C   0  0  0  0  0  0  0  0  0  0  0  0
   21.0979   13.9720   19.7447 C   0  0  0  0  0  0  0  0  0  0  0  0
   21.4188   11.9687   21.2874 C   0  0  0  0  0  0  0  0  0  0  0  0
   23.2886    5.4395   27.5744 C   0  0  0  0  0  0  0  0  0  0  0  0
   24.1526    8.3632   29.7240 C   0  0  0  0  0  0  0  0  0  0  0  0
   22.9924    9.9102   26.4505 N   0  0  0  0  0  0  0  0  0  0  0  0
   22.1887    9.9316   24.3610 C   0  0  0  0  0  0  0  0  0  0  0  0
   25.8001    2.9814   29.9536 O   0  0  0  0  0  0  0  0  0  0  0  0
   21.8235   11.7556   22.5844 C   0  0  0  0  0  0  0  0  0  0  0  0
   22.4877    7.6894   27.2723 C   0  0  0  0  0  0  0  0  0  0  0  0
   26.6985    5.3357   26.4445 C   0  0  0  0  0  0  0  0  0  0  0  0
   24.2692    9.8100   31.6061 C   0  0  0  0  0  0  0  0  0  0  0  0
   22.6602    5.1499   25.2516 O   0  0  0  0  0  0  0  0  0  0  0  0
   22.5451    8.6699   26.1681 C   0  0  0  0  0  0  0  0  0  0  0  0
   21.4284   13.3131   20.9697 C   0  0  0  0  0  0  0  0  0  0  0  0
   21.3917    7.6787   27.9616 O   0  0  0  0  0  0  0  0  0  0  0  0
   21.8894   13.9948   22.1579 S   0  0  0  0  0  0  0  0  0  0  0  0
   22.1446    5.2491   26.6006 C   0  0  0  0  0  0  0  0  0  0  0  0
   24.8935    6.1327   29.6453 O   0  0  0  0  0  0  0  0  0  0  0  0
   25.8923    2.9964   26.6246 C   0  0  0  0  0  0  0  0  0  0  0  0
   24.2698    7.0354   29.0618 C   0  0  0  0  0  0  0  0  0  0  0  0
   24.9653    3.5597   27.6358 C   0  0  0  0  0  0  0  0  0  0  0  0
   21.8194   10.4850   23.1823 C   0  0  0  0  0  0  0  0  0  0  0  0
   22.7657   10.7087   25.4096 C   0  0  0  0  0  0  0  0  0  0  0  0
   23.4894   10.6452   29.5499 C   0  0  0  0  0  0  0  0  0  0  0  0
   22.1806   12.9914   23.1431 C   0  0  0  0  0  0  0  0  0  0  0  0
   23.0937   11.9053   25.5506 O   0  0  0  0  0  0  0  0  0  0  0  0
   23.7714   10.8461   30.8587 C   0  0  0  0  0  0  0  0  0  0  0  0
   24.9405    3.1175   28.9318 O   0  0  0  0  0  0  0  0  0  0  0  0
   23.6969    9.4197   29.0080 C   0  0  0  0  0  0  0  0  0  0  0  0
   26.3189    4.1216   25.8100 O   0  0  0  0  0  0  0  0  0  0  0  0
   24.4561    8.5786   31.0443 C   0  0  0  0  0  0  0  0  0  0  0  0
   24.4510    4.7497   27.3028 O   0  0  0  0  0  0  0  0  0  0  0  0
   22.1155    8.6610   24.8687 C   0  0  0  0  0  0  0  0  0  0  0  0
  1  5  1  0
  1 11  1  0
  1 22  1  0
  2 13  1  0
  3 16  1  0
  4 10  1  0
  4 16  1  0
  5 19  1  0
  5 34  1  0
  6 22  1  0
  6 31  1  0
  6 33  2  0
  7 15  1  0
  7 25  1  0
  8 24  2  3
  8 25  1  0
  8 35  1  0
  9 30  1  0
 10 24  1  0
 10 27  1  0
 11 15  1  0
 11 17  2  0
 12 32  1  0
 13 29  2  0
 13 33  1  0
 14 19  1  0
 15 35  1  0
 16 18  1  0
 18 27  1  0
 20 22  2  0
 21 23  1  0
 21 32  1  0
 23 30  1  0
 23 34  1  0
 25 28  2  0
 26 29  1  0
 26 31  2  0
M  END
>  <ID>  (1) 
conformer_0

$$$$
