
     RDKit          3D

 23 25  0  0  0  0  0  0  0  0999 V2000
   22.5469    5.6868   25.5798 O   0  0  0  0  0  0  0  0  0  0  0  0
   22.4339   10.8626   24.2566 C   0  0  0  0  0  0  0  0  0  0  0  0
   22.7519   12.0952   24.3195 O   0  0  0  0  0  0  0  0  0  0  0  0
   24.1831    6.0599   27.2693 C   0  0  0  0  0  0  0  0  0  0  0  0
   22.2523    9.9803   27.7049 N   0  0  0  0  0  0  0  0  0  0  0  0
   25.7893    7.8169   30.8057 C   0  0  0  0  0  0  0  0  0  0  0  0
   22.5341    7.8647   26.4893 C   0  0  0  0  0  0  0  0  0  0  0  0
   26.0614    6.5527   28.8028 C   0  0  0  0  0  0  0  0  0  0  0  0
   22.2736    8.6551   25.3142 C   0  0  0  0  0  0  0  0  0  0  0  0
   22.4230   11.4381   21.9144 C   0  0  0  0  0  0  0  0  0  0  0  0
   23.2527   11.8175   26.8414 O   0  0  0  0  0  0  0  0  0  0  0  0
   22.5879    8.6593   27.6443 C   0  0  0  0  0  0  0  0  0  0  0  0
   24.7324    6.6843   28.4665 C   0  0  0  0  0  0  0  0  0  0  0  0
   24.6931    4.8525   26.8861 O   0  0  0  0  0  0  0  0  0  0  0  0
   24.4670    7.9897   30.4854 C   0  0  0  0  0  0  0  0  0  0  0  0
   22.6216    7.9417   28.9010 C   0  0  0  0  0  0  0  0  0  0  0  0
   21.4967    7.6347   29.3903 O   0  0  0  0  0  0  0  0  0  0  0  0
   22.0029   10.3932   22.9680 C   0  0  0  0  0  0  0  0  0  0  0  0
   22.6351   10.7390   26.6003 C   0  0  0  0  0  0  0  0  0  0  0  0
   22.3744   10.0602   25.3954 C   0  0  0  0  0  0  0  0  0  0  0  0
   26.5845    7.1139   29.9328 C   0  0  0  0  0  0  0  0  0  0  0  0
   23.9391    7.4974   29.3235 C   0  0  0  0  0  0  0  0  0  0  0  0
   22.9481    6.4726   26.6311 C   0  0  0  0  0  0  0  0  0  0  0  0
  1 23  1  0
  2  3  2  0
  2 18  1  0
  2 20  1  0
  4 13  1  0
  4 14  1  0
  4 23  1  0
  5 12  1  0
  5 19  1  0
  6 15  1  0
  6 21  1  0
  7  9  1  0
  7 12  1  0
  7 23  1  0
  8 13  1  0
  8 21  2  0
  9 20  2  0
 10 18  1  0
 11 19  2  0
 12 16  1  0
 13 22  1  0
 15 22  2  0
 16 17  2  0
 16 22  1  0
 19 20  1  0
M  END
>  <ID>  (1) 
conformer_0

$$$$
