
     RDKit          3D

 30 31  0  0  0  0  0  0  0  0999 V2000
   21.1544   14.6404   20.4259 C   0  0  0  0  0  0  0  0  0  0  0  0
   22.8925    9.1036   24.6760 C   0  0  0  0  0  0  0  0  0  0  0  0
   22.0878   12.2118   22.9782 C   0  0  0  0  0  0  0  0  0  0  0  0
   21.5459   12.6906   21.7171 C   0  0  0  0  0  0  0  0  0  0  0  0
   23.0017   11.4422   25.2293 O   0  0  0  0  0  0  0  0  0  0  0  0
   23.2635    5.7135   27.5619 C   0  0  0  0  0  0  0  0  0  0  0  0
   22.8005   11.6105   26.5468 C   0  0  0  0  0  0  0  0  0  0  0  0
   25.2516    7.7990   29.5792 C   0  0  0  0  0  0  0  0  0  0  0  0
   27.0967    5.9087   27.5110 C   0  0  0  0  0  0  0  0  0  0  0  0
   25.7004    5.6383   27.8528 C   0  0  0  0  0  0  0  0  0  0  0  0
   23.1101    8.2590   28.0715 C   0  0  0  0  0  0  0  0  0  0  0  0
   21.2128   14.1295   21.8200 C   0  0  0  0  0  0  0  0  0  0  0  0
   24.5072    4.7822   27.3582 C   0  0  0  0  0  0  0  0  0  0  0  0
   25.1216    6.9298   28.3757 C   0  0  0  0  0  0  0  0  0  0  0  0
   23.7490   10.9536   31.1384 O   0  0  0  0  0  0  0  0  0  0  0  0
   22.4982    8.2813   25.7453 C   0  0  0  0  0  0  0  0  0  0  0  0
   22.5688   10.4137   24.4898 C   0  0  0  0  0  0  0  0  0  0  0  0
   22.1025   10.7718   23.1342 C   0  0  0  0  0  0  0  0  0  0  0  0
   22.0571    9.9522   29.4325 C   0  0  0  0  0  0  0  0  0  0  0  0
   24.3099    3.6513   28.2772 C   0  0  0  0  0  0  0  0  0  0  0  0
   22.3264    8.7612   27.0277 O   0  0  0  0  0  0  0  0  0  0  0  0
   24.6082   10.7180   33.5349 C   0  0  0  0  0  0  0  0  0  0  0  0
   24.3331    8.8098   30.1844 C   0  0  0  0  0  0  0  0  0  0  0  0
   22.2716    6.9132   25.3365 S   0  0  0  0  0  0  0  0  0  0  0  0
   23.7859    7.0632   27.7898 C   0  0  0  0  0  0  0  0  0  0  0  0
   23.2741    9.0980   29.2213 C   0  0  0  0  0  0  0  0  0  0  0  0
   24.2722    9.7697   31.3181 C   0  0  0  0  0  0  0  0  0  0  0  0
   24.8414    9.4725   32.6237 C   0  0  0  0  0  0  0  0  0  0  0  0
   24.6128    4.3993   26.0777 O   0  0  0  0  0  0  0  0  0  0  0  0
   19.9316   14.3434   21.1716 C   0  0  0  0  0  0  0  0  0  0  0  0
  1 30  1  0
  2 16  1  0
  2 17  1  0
  3  4  1  0
  3 18  1  0
  4 12  1  0
  5  7  1  0
  5 17  1  0
  6 13  1  0
  6 25  1  0
  8 14  1  0
  8 23  2  0
  9 10  1  0
 10 13  1  0
 10 14  1  0
 11 21  1  0
 11 25  1  0
 11 26  1  0
 12 30  1  0
 13 20  1  0
 13 29  1  0
 14 25  1  0
 15 27  1  0
 16 21  1  0
 16 24  2  0
 17 18  1  0
 19 26  1  0
 22 28  1  0
 23 26  1  0
 23 27  1  0
 27 28  1  0
M  END
>  <ID>  (1) 
conformer_0

$$$$
