
     RDKit          3D

 27 32  0  0  0  0  0  0  0  0999 V2000
   24.3314    8.5634   30.0470 C   0  0  0  0  0  0  0  0  0  0  0  0
   20.5030    9.4908   22.5315 C   0  0  0  0  0  0  0  0  0  0  0  0
   21.2381   10.5515   23.2043 C   0  0  0  0  0  0  0  0  0  0  0  0
   23.8375   11.7108   32.0810 C   0  0  0  0  0  0  0  0  0  0  0  0
   23.3796    7.2926   26.3623 C   0  0  0  0  0  0  0  0  0  0  0  0
   21.6316   11.6904   22.3759 C   0  0  0  0  0  0  0  0  0  0  0  0
   22.6073   12.3992   23.2683 C   0  0  0  0  0  0  0  0  0  0  0  0
   24.0663    9.3234   31.2315 C   0  0  0  0  0  0  0  0  0  0  0  0
   23.2662   11.2792   23.9650 O   0  0  0  0  0  0  0  0  0  0  0  0
   22.8005   10.2458   29.1380 C   0  0  0  0  0  0  0  0  0  0  0  0
   22.6480    8.5383   25.8104 C   0  0  0  0  0  0  0  0  0  0  0  0
   21.7368   10.7280   25.5961 C   0  0  0  0  0  0  0  0  0  0  0  0
   22.9938    5.7892   26.4494 C   0  0  0  0  0  0  0  0  0  0  0  0
   24.0047   10.7671   31.0181 C   0  0  0  0  0  0  0  0  0  0  0  0
   23.5577   11.1439   29.7515 O   0  0  0  0  0  0  0  0  0  0  0  0
   24.1427    4.9547   26.9917 C   0  0  0  0  0  0  0  0  0  0  0  0
   22.3899    7.9718   28.5372 C   0  0  0  0  0  0  0  0  0  0  0  0
   23.4196    8.8432   28.9202 C   0  0  0  0  0  0  0  0  0  0  0  0
   22.1992   10.3080   24.2702 C   0  0  0  0  0  0  0  0  0  0  0  0
   23.6052    7.7045   27.8767 C   0  0  0  0  0  0  0  0  0  0  0  0
   25.2440    5.8991   27.5272 C   0  0  0  0  0  0  0  0  0  0  0  0
   24.4513    6.6530   28.5530 C   0  0  0  0  0  0  0  0  0  0  0  0
   24.7069    6.3941   30.8848 O   0  0  0  0  0  0  0  0  0  0  0  0
   22.4285    9.7810   26.5772 C   0  0  0  0  0  0  0  0  0  0  0  0
   22.5105    8.8139   24.3749 C   0  0  0  0  0  0  0  0  0  0  0  0
   24.7435    7.1800   29.8982 C   0  0  0  0  0  0  0  0  0  0  0  0
   22.1282   10.5445   27.8787 C   0  0  0  0  0  0  0  0  0  0  0  0
  1  8  1  0
  1 18  1  0
  1 26  1  0
  2  3  1  0
  3  6  1  0
  3 19  1  0
  4 14  1  0
  5 11  1  0
  5 13  1  0
  5 20  1  0
  6  7  1  0
  7  9  1  0
  8 14  1  0
  9 19  1  0
 10 15  1  0
 10 18  1  0
 10 27  1  0
 11 24  1  0
 11 25  1  0
 12 19  1  0
 12 24  1  0
 13 16  1  0
 14 15  1  0
 16 21  1  0
 17 18  1  0
 17 20  1  0
 19 25  1  0
 20 22  1  0
 21 22  1  0
 22 26  1  0
 23 26  2  0
 24 27  1  0
M  END
>  <ID>  (1) 
conformer_0

$$$$
