
     RDKit          3D

 12 12  0  0  0  0  0  0  0  0999 V2000
   22.4031    9.5532   27.5709 C   0  0  0  0  0  0  0  0  0  0  0  0
   23.1344    9.6870   26.3152 C   0  0  0  0  0  0  0  0  0  0  0  0
   22.1902    8.1772   29.5300 O   0  0  0  0  0  0  0  0  0  0  0  0
   21.8991    9.5495   24.1565 C   0  0  0  0  0  0  0  0  0  0  0  0
   22.6122   10.3099   25.0816 C   0  0  0  0  0  0  0  0  0  0  0  0
   21.4175   10.0742   22.9677 C   0  0  0  0  0  0  0  0  0  0  0  0
   21.6398   11.4106   22.6166 C   0  0  0  0  0  0  0  0  0  0  0  0
   22.3886   12.2076   23.5021 C   0  0  0  0  0  0  0  0  0  0  0  0
   23.7573    8.4493   26.0115 O   0  0  0  0  0  0  0  0  0  0  0  0
   22.8794   11.6701   24.7182 C   0  0  0  0  0  0  0  0  0  0  0  0
   24.2356    9.0077   28.9918 O   0  0  0  0  0  0  0  0  0  0  0  0
   23.0021    8.8877   28.7541 C   0  0  0  0  0  0  0  0  0  0  0  0
  1  2  1  0
  1 12  1  0
  2  5  1  0
  2  9  1  0
  3 12  2  0
  4  5  2  0
  4  6  1  0
  5 10  1  0
  6  7  2  0
  7  8  1  0
  8 10  2  0
 11 12  1  0
M  END
>  <ID>  (1) 
conformer_0

$$$$
