
     RDKit          3D

 23 24  0  0  0  0  0  0  0  0999 V2000
   23.6659    9.8776   30.8579 C   0  0  0  0  0  0  0  0  0  0  0  0
   26.3351    6.0643   27.1165 C   0  0  0  0  0  0  0  0  0  0  0  0
   23.5435    6.2437   25.8818 O   0  0  0  0  0  0  0  0  0  0  0  0
   22.8635    9.9633   28.5725 C   0  0  0  0  0  0  0  0  0  0  0  0
   21.6146    9.3639   23.9128 C   0  0  0  0  0  0  0  0  0  0  0  0
   25.1008    6.7078   29.1701 O   0  0  0  0  0  0  0  0  0  0  0  0
   21.8354    8.9620   25.1870 C   0  0  0  0  0  0  0  0  0  0  0  0
   21.8331   11.0864   22.2229 N   0  0  0  0  0  0  0  0  0  0  0  0
   22.9325   11.0013   25.6953 C   0  0  0  0  0  0  0  0  0  0  0  0
   22.7264   11.4394   24.4347 C   0  0  0  0  0  0  0  0  0  0  0  0
   23.5732   11.2672   31.0389 C   0  0  0  0  0  0  0  0  0  0  0  0
   23.9724    7.0347   27.0152 C   0  0  0  0  0  0  0  0  0  0  0  0
   22.7670    9.2461   27.4187 C   0  0  0  0  0  0  0  0  0  0  0  0
   23.9744   11.8343   32.2067 C   0  0  0  0  0  0  0  0  0  0  0  0
   24.5112   11.0274   33.2419 C   0  0  0  0  0  0  0  0  0  0  0  0
   22.5050    9.7382   26.1064 C   0  0  0  0  0  0  0  0  0  0  0  0
   23.1946    9.4574   29.7146 N   0  0  0  0  0  0  0  0  0  0  0  0
   21.9474    7.2412   28.4510 O   0  0  0  0  0  0  0  0  0  0  0  0
   22.0472   10.6239   23.5274 C   0  0  0  0  0  0  0  0  0  0  0  0
   22.8932    7.8213   27.6467 C   0  0  0  0  0  0  0  0  0  0  0  0
   24.6197    9.6316   33.0126 C   0  0  0  0  0  0  0  0  0  0  0  0
   24.1982    9.0461   31.8294 C   0  0  0  0  0  0  0  0  0  0  0  0
   25.0452    6.3789   27.7867 C   0  0  0  0  0  0  0  0  0  0  0  0
  1 11  2  0
  1 17  1  0
  1 22  1  0
  2 23  1  0
  3 12  1  0
  4 13  2  3
  4 17  1  0
  5  7  2  0
  5 19  1  0
  6 23  1  0
  7 16  1  0
  8 19  1  0
  9 10  2  0
  9 16  1  0
 10 19  1  0
 11 14  1  0
 12 20  1  0
 12 23  1  0
 13 16  1  0
 13 20  1  0
 14 15  2  0
 15 21  1  0
 18 20  1  0
 21 22  2  0
M  END
>  <ID>  (1) 
conformer_0

$$$$
