
     RDKit          3D

 13 12  0  0  0  0  0  0  0  0999 V2000
   24.7003    8.5293   28.9865 C   0  0  0  0  0  0  0  0  0  0  0  0
   23.2697    8.9374   28.6643 C   0  0  0  0  0  0  0  0  0  0  0  0
   22.8587    6.9845   27.2313 C   0  0  0  0  0  0  0  0  0  0  0  0
   22.9228    8.4419   27.2832 C   0  0  0  0  0  0  0  0  0  0  0  0
   21.7648    6.4073   26.9090 O   0  0  0  0  0  0  0  0  0  0  0  0
   22.9529    9.4937   26.2872 C   0  0  0  0  0  0  0  0  0  0  0  0
   21.5480    9.9797   24.4616 O   0  0  0  0  0  0  0  0  0  0  0  0
   23.7779    6.2461   27.8073 O   0  0  0  0  0  0  0  0  0  0  0  0
   24.8145    7.9381   30.3699 C   0  0  0  0  0  0  0  0  0  0  0  0
   23.6906    8.3662   31.1069 O   0  0  0  0  0  0  0  0  0  0  0  0
   22.5341    9.1980   24.9184 C   0  0  0  0  0  0  0  0  0  0  0  0
   22.8490   10.7353   26.6591 O   0  0  0  0  0  0  0  0  0  0  0  0
   22.1528    9.5619   29.1811 O   0  0  0  0  0  0  0  0  0  0  0  0
  1  2  1  0
  1  9  1  0
  2  4  1  0
  2 13  1  0
  3  4  1  0
  3  5  2  0
  3  8  1  0
  4  6  1  0
  6 11  1  0
  6 12  1  0
  7 11  1  0
  9 10  1  0
M  END
>  <ID>  (1) 
conformer_0

$$$$
