
     RDKit          3D

 19 19  0  0  0  0  0  0  0  0999 V2000
   25.3193    6.3553   26.8863 C   0  0  0  0  0  0  0  0  0  0  0  0
   24.2787    8.0692   28.2973 C   0  0  0  0  0  0  0  0  0  0  0  0
   22.2199    9.9753   24.6308 C   0  0  0  0  0  0  0  0  0  0  0  0
   22.3306    8.9398   25.6100 C   0  0  0  0  0  0  0  0  0  0  0  0
   22.5878   11.2526   25.0528 C   0  0  0  0  0  0  0  0  0  0  0  0
   22.3222    9.2389   29.1573 O   0  0  0  0  0  0  0  0  0  0  0  0
   21.9812   11.2918   22.8927 C   0  0  0  0  0  0  0  0  0  0  0  0
   22.2612    7.7671   25.3311 O   0  0  0  0  0  0  0  0  0  0  0  0
   24.2610    6.7536   27.7551 O   0  0  0  0  0  0  0  0  0  0  0  0
   23.1748   11.7134   26.0665 O   0  0  0  0  0  0  0  0  0  0  0  0
   22.3615   12.0525   23.9952 N   0  0  0  0  0  0  0  0  0  0  0  0
   24.3290    9.6108   31.6325 C   0  0  0  0  0  0  0  0  0  0  0  0
   22.9951    8.7847   28.1181 C   0  0  0  0  0  0  0  0  0  0  0  0
   24.5737    7.9803   29.8320 C   0  0  0  0  0  0  0  0  0  0  0  0
   21.8040    9.9837   23.3259 C   0  0  0  0  0  0  0  0  0  0  0  0
   24.8510    4.9786   26.2318 C   0  0  0  0  0  0  0  0  0  0  0  0
   24.7219    9.4099   30.2971 O   0  0  0  0  0  0  0  0  0  0  0  0
   24.3871    8.4387   32.5099 F   0  0  0  0  0  0  0  0  0  0  0  0
   22.6210    9.2738   26.8643 N   0  0  0  0  0  0  0  0  0  0  0  0
  1  9  1  0
  1 16  1  0
  2  9  1  0
  2 13  1  0
  2 14  1  0
  3  4  1  0
  3  5  1  0
  3 15  1  0
  4  8  2  0
  4 19  1  0
  5 10  2  0
  5 11  1  0
  6 13  2  0
  7 11  1  0
  7 15  1  0
 12 17  1  0
 12 18  1  0
 13 19  1  0
 14 17  1  0
M  END
>  <ID>  (1) 
conformer_0

$$$$
