
     RDKit          3D

 27 30  0  0  0  0  0  0  0  0999 V2000
   21.6944   12.0696   21.6630 C   0  0  0  0  0  0  0  0  0  0  0  0
   22.6715   10.5190   26.0596 C   0  0  0  0  0  0  0  0  0  0  0  0
   22.1548    8.9137   24.4339 C   0  0  0  0  0  0  0  0  0  0  0  0
   23.1432    8.0753   30.2057 O   0  0  0  0  0  0  0  0  0  0  0  0
   27.0078    3.8301   27.8807 O   0  0  0  0  0  0  0  0  0  0  0  0
   26.2854    5.7620   26.6939 C   0  0  0  0  0  0  0  0  0  0  0  0
   20.7744   14.2183   22.1180 C   0  0  0  0  0  0  0  0  0  0  0  0
   26.6659    4.3452   29.2331 C   0  0  0  0  0  0  0  0  0  0  0  0
   23.0630    9.1392   27.9616 C   0  0  0  0  0  0  0  0  0  0  0  0
   26.7311    6.3938   28.0298 C   0  0  0  0  0  0  0  0  0  0  0  0
   26.0160    4.2144   26.9158 C   0  0  0  0  0  0  0  0  0  0  0  0
   24.5088    6.2695   28.9473 C   0  0  0  0  0  0  0  0  0  0  0  0
   24.8805    5.1599   26.8384 C   0  0  0  0  0  0  0  0  0  0  0  0
   23.5669    9.1882   29.4306 C   0  0  0  0  0  0  0  0  0  0  0  0
   22.9723   10.5604   27.4520 C   0  0  0  0  0  0  0  0  0  0  0  0
   21.8690    9.9513   23.5206 C   0  0  0  0  0  0  0  0  0  0  0  0
   22.5759    9.2198   25.6642 C   0  0  0  0  0  0  0  0  0  0  0  0
   22.9900    8.2961   26.7281 C   0  0  0  0  0  0  0  0  0  0  0  0
   22.0244   11.2473   23.8986 C   0  0  0  0  0  0  0  0  0  0  0  0
   22.2167    8.1411   27.7461 O   0  0  0  0  0  0  0  0  0  0  0  0
   21.7121   12.2282   23.0663 N   0  0  0  0  0  0  0  0  0  0  0  0
   21.4418   13.4283   21.0440 C   0  0  0  0  0  0  0  0  0  0  0  0
   25.8536    5.6215   29.1261 C   0  0  0  0  0  0  0  0  0  0  0  0
   24.1278    7.4519   26.6113 C   0  0  0  0  0  0  0  0  0  0  0  0
   22.5101   11.5270   25.1599 N   0  0  0  0  0  0  0  0  0  0  0  0
   24.1048    6.3180   27.4861 C   0  0  0  0  0  0  0  0  0  0  0  0
   23.3585   11.5601   28.1710 O   0  0  0  0  0  0  0  0  0  0  0  0
  1 21  1  0
  1 22  1  0
  2 15  2  0
  2 17  1  0
  2 25  1  0
  3 16  1  0
  3 17  2  0
  4 14  1  0
  5  8  1  0
  5 11  1  0
  6 10  1  0
  6 13  1  0
  7 22  1  0
  8 23  1  0
  9 14  1  0
  9 15  1  0
  9 20  1  0
 10 23  1  0
 11 13  1  0
 12 23  1  0
 12 26  1  0
 13 26  1  0
 15 27  1  0
 16 19  2  0
 17 18  1  0
 18 20  1  0
 18 24  1  0
 19 21  1  0
 19 25  1  0
 24 26  1  0
M  END
>  <ID>  (1) 
conformer_0

$$$$
