
     RDKit          3D

 29 31  0  0  0  0  0  0  0  0999 V2000
   22.6193    8.8864   26.3310 C   0  0  0  0  0  0  0  0  0  0  0  0
   22.2860   10.1023   24.5630 C   0  0  0  0  0  0  0  0  0  0  0  0
   22.8795   10.2007   29.2952 C   0  0  0  0  0  0  0  0  0  0  0  0
   22.1558    8.8677   25.0647 C   0  0  0  0  0  0  0  0  0  0  0  0
   23.6736    9.1657   28.5854 C   0  0  0  0  0  0  0  0  0  0  0  0
   21.7875   12.2644   21.5586 C   0  0  0  0  0  0  0  0  0  0  0  0
   22.6338    7.7134   27.1530 C   0  0  0  0  0  0  0  0  0  0  0  0
   21.0967   13.5081   21.2315 C   0  0  0  0  0  0  0  0  0  0  0  0
   23.4382    4.3960   25.2053 C   0  0  0  0  0  0  0  0  0  0  0  0
   22.5861    6.4424   26.8098 C   0  0  0  0  0  0  0  0  0  0  0  0
   22.9251    7.9120   28.5549 C   0  0  0  0  0  0  0  0  0  0  0  0
   24.2995    2.0277   26.3971 C   0  0  0  0  0  0  0  0  0  0  0  0
   23.9661    8.9757   31.2144 C   0  0  0  0  0  0  0  0  0  0  0  0
   20.6318   14.3825   22.3745 C   0  0  0  0  0  0  0  0  0  0  0  0
   23.5187   10.1885   30.6531 C   0  0  0  0  0  0  0  0  0  0  0  0
   23.0717   10.1074   26.6484 N   0  0  0  0  0  0  0  0  0  0  0  0
   24.0287    3.2136   27.3456 C   0  0  0  0  0  0  0  0  0  0  0  0
   22.8220    5.3373   27.2589 C   0  0  0  0  0  0  0  0  0  0  0  0
   24.4916    8.9881   32.4697 C   0  0  0  0  0  0  0  0  0  0  0  0
   25.0687    2.5356   25.1491 C   0  0  0  0  0  0  0  0  0  0  0  0
   22.8780   10.8600   25.4814 N   0  0  0  0  0  0  0  0  0  0  0  0
   21.8352   10.4867   23.2104 C   0  0  0  0  0  0  0  0  0  0  0  0
   23.3933    4.3011   26.6032 N   0  0  0  0  0  0  0  0  0  0  0  0
   21.9205   11.9288   22.9988 C   0  0  0  0  0  0  0  0  0  0  0  0
   24.6084   10.1857   33.2062 C   0  0  0  0  0  0  0  0  0  0  0  0
   23.6551   11.3981   31.3519 C   0  0  0  0  0  0  0  0  0  0  0  0
   24.1989    3.5160   24.3832 C   0  0  0  0  0  0  0  0  0  0  0  0
   21.5715   14.1411   19.9703 C   0  0  0  0  0  0  0  0  0  0  0  0
   24.1965   11.3861   32.6268 C   0  0  0  0  0  0  0  0  0  0  0  0
  1  4  1  0
  1  7  1  0
  1 16  1  0
  2  4  1  0
  2 21  1  0
  2 22  1  0
  3  5  1  0
  3 15  1  0
  5 11  1  0
  6  8  1  0
  6 24  1  0
  7 10  2  3
  7 11  1  0
  8 14  1  0
  8 28  1  0
  9 23  1  0
  9 27  1  0
 10 18  1  0
 12 17  1  0
 12 20  1  0
 13 15  1  0
 13 19  2  0
 15 26  1  0
 16 21  1  0
 17 23  1  0
 18 23  1  0
 19 25  1  0
 20 27  1  0
 22 24  1  0
 25 29  1  0
 26 29  2  0
M  END
>  <ID>  (1) 
conformer_0

$$$$
