
     RDKit          3D

 15 15  0  0  0  0  0  0  0  0999 V2000
   22.4413    9.6383   27.6685 C   0  0  0  0  0  0  0  0  0  0  0  0
   25.1239    7.7524   30.8414 C   0  0  0  0  0  0  0  0  0  0  0  0
   23.9577    8.0796   29.8671 C   0  0  0  0  0  0  0  0  0  0  0  0
   23.3811    7.5028   26.4126 C   0  0  0  0  0  0  0  0  0  0  0  0
   22.9048    6.5251   25.7566 O   0  0  0  0  0  0  0  0  0  0  0  0
   22.2313   10.6350   23.3710 C   0  0  0  0  0  0  0  0  0  0  0  0
   24.5563    8.1618   28.4791 C   0  0  0  0  0  0  0  0  0  0  0  0
   25.4969    6.2622   26.7700 C   0  0  0  0  0  0  0  0  0  0  0  0
   22.7740    8.7931   26.4724 C   0  0  0  0  0  0  0  0  0  0  0  0
   22.2020    9.2628   25.3144 N   0  0  0  0  0  0  0  0  0  0  0  0
   23.1107   11.3672   25.3911 O   0  0  0  0  0  0  0  0  0  0  0  0
   22.2961    9.9165   29.2347 C   0  0  0  0  0  0  0  0  0  0  0  0
   23.3807    9.4544   30.2999 C   0  0  0  0  0  0  0  0  0  0  0  0
   22.5483   10.4443   24.7900 C   0  0  0  0  0  0  0  0  0  0  0  0
   24.5075    7.2336   27.3033 C   0  0  0  0  0  0  0  0  0  0  0  0
  1  9  2  0
  1 12  1  0
  2  3  1  0
  3  7  1  0
  3 13  1  0
  4  5  2  0
  4  9  1  0
  4 15  1  0
  6 14  1  0
  7 15  1  0
  8 15  1  0
  9 10  1  0
 10 14  1  0
 11 14  2  0
 12 13  1  0
M  END
>  <ID>  (1) 
conformer_0

$$$$
