
     RDKit          3D

 17 18  0  0  0  0  0  0  0  0999 V2000
   23.4004   10.6371   30.4422 C   0  0  0  0  0  0  0  0  0  0  0  0
   22.4972   10.5695   24.4473 C   0  0  0  0  0  0  0  0  0  0  0  0
   23.0225   10.2229   25.6049 N   0  0  0  0  0  0  0  0  0  0  0  0
   23.5490    7.8329   25.2469 O   0  0  0  0  0  0  0  0  0  0  0  0
   23.3718    8.9181   27.3860 C   0  0  0  0  0  0  0  0  0  0  0  0
   21.3790   10.5450   22.5554 C   0  0  0  0  0  0  0  0  0  0  0  0
   24.2726    8.0515   31.0464 C   0  0  0  0  0  0  0  0  0  0  0  0
   21.9884   11.7185   22.6248 C   0  0  0  0  0  0  0  0  0  0  0  0
   22.8086    9.9306   28.1829 O   0  0  0  0  0  0  0  0  0  0  0  0
   24.3700    9.0687   31.9928 C   0  0  0  0  0  0  0  0  0  0  0  0
   22.7116   11.7495   23.8298 C   0  0  0  0  0  0  0  0  0  0  0  0
   23.3193    9.6264   29.4897 C   0  0  0  0  0  0  0  0  0  0  0  0
   21.4130    8.1325   26.1974 O   0  0  0  0  0  0  0  0  0  0  0  0
   23.9554   10.3568   31.6954 C   0  0  0  0  0  0  0  0  0  0  0  0
   22.7406    8.6863   26.0047 C   0  0  0  0  0  0  0  0  0  0  0  0
   21.6845    9.8258   23.6836 N   0  0  0  0  0  0  0  0  0  0  0  0
   23.7642    8.3056   29.8000 C   0  0  0  0  0  0  0  0  0  0  0  0
  1 12  2  0
  1 14  1  0
  2  3  2  3
  2 11  1  0
  2 16  1  0
  3 15  1  0
  4 15  1  0
  5  9  1  0
  5 15  1  0
  6  8  1  0
  6 16  1  0
  7 10  1  0
  7 17  2  0
  8 11  1  0
  9 12  1  0
 10 14  2  0
 12 17  1  0
 13 15  1  0
M  END
>  <ID>  (1) 
conformer_0

$$$$
