
     RDKit          3D

 28 31  0  0  0  0  0  0  0  0999 V2000
   24.2568   11.1737   32.5141 C   0  0  0  0  0  0  0  0  0  0  0  0
   22.2954    7.7424   25.8909 N   0  0  0  0  0  0  0  0  0  0  0  0
   23.8522    8.7837   31.0858 C   0  0  0  0  0  0  0  0  0  0  0  0
   22.6796   11.9040   23.7837 N   0  0  0  0  0  0  0  0  0  0  0  0
   21.4911    9.4651   23.8470 C   0  0  0  0  0  0  0  0  0  0  0  0
   22.3806    9.0726   26.0440 C   0  0  0  0  0  0  0  0  0  0  0  0
   23.6104   11.1883   31.2993 C   0  0  0  0  0  0  0  0  0  0  0  0
   22.9344    7.0900   26.8679 C   0  0  0  0  0  0  0  0  0  0  0  0
   22.8610   10.4373   28.2129 C   0  0  0  0  0  0  0  0  0  0  0  0
   22.5769   10.1303   29.4888 N   0  0  0  0  0  0  0  0  0  0  0  0
   22.8338   11.1215   24.8508 N   0  0  0  0  0  0  0  0  0  0  0  0
   23.2769    5.6853   26.6116 C   0  0  0  0  0  0  0  0  0  0  0  0
   21.9144   11.5127   22.7173 C   0  0  0  0  0  0  0  0  0  0  0  0
   22.8458    9.2989   27.3651 C   0  0  0  0  0  0  0  0  0  0  0  0
   24.3813    3.1484   25.4511 C   0  0  0  0  0  0  0  0  0  0  0  0
   24.5000    8.7658   32.2942 C   0  0  0  0  0  0  0  0  0  0  0  0
   23.2656   11.5480   27.9468 O   0  0  0  0  0  0  0  0  0  0  0  0
   22.1253    3.7342   25.5487 C   0  0  0  0  0  0  0  0  0  0  0  0
   24.6972    9.9535   33.0352 C   0  0  0  0  0  0  0  0  0  0  0  0
   24.6436    5.2470   26.6576 C   0  0  0  0  0  0  0  0  0  0  0  0
   22.2744    4.9073   26.1140 C   0  0  0  0  0  0  0  0  0  0  0  0
   23.3803    9.9950   30.5977 C   0  0  0  0  0  0  0  0  0  0  0  0
   25.0102    4.0999   26.0635 C   0  0  0  0  0  0  0  0  0  0  0  0
   25.8318    6.3283   27.4879 Cl  0  0  0  0  0  0  0  0  0  0  0  0
   23.0927    2.8018   25.1707 N   0  0  0  0  0  0  0  0  0  0  0  0
   22.2084    9.9077   24.9275 C   0  0  0  0  0  0  0  0  0  0  0  0
   21.3273   10.2459   22.7459 C   0  0  0  0  0  0  0  0  0  0  0  0
   23.2263    8.0264   27.8731 C   0  0  0  0  0  0  0  0  0  0  0  0
  1  7  2  0
  1 19  1  0
  2  6  1  0
  2  8  1  0
  3 16  1  0
  3 22  2  0
  4 11  2  0
  4 13  1  0
  5 26  2  0
  5 27  1  0
  6 14  1  0
  6 26  1  0
  7 22  1  0
  8 12  1  0
  8 28  1  0
  9 10  1  0
  9 14  1  0
  9 17  2  0
 10 22  1  0
 11 26  1  0
 12 20  1  0
 12 21  1  0
 13 27  2  0
 14 28  1  0
 15 23  2  0
 15 25  1  0
 16 19  2  0
 18 21  2  0
 18 25  1  0
 20 23  1  0
 20 24  1  0
M  END
>  <ID>  (1) 
conformer_0

$$$$
