
     RDKit          3D

 11 11  0  0  0  0  0  0  0  0999 V2000
   22.9881    9.3465   27.8317 C   0  0  0  0  0  0  0  0  0  0  0  0
   23.0126    7.9722   27.5428 C   0  0  0  0  0  0  0  0  0  0  0  0
   23.1741    9.7905   29.2211 C   0  0  0  0  0  0  0  0  0  0  0  0
   22.7899   10.2698   26.8034 C   0  0  0  0  0  0  0  0  0  0  0  0
   21.9849   10.5940   23.2582 N   0  0  0  0  0  0  0  0  0  0  0  0
   22.6652    9.8640   25.4856 C   0  0  0  0  0  0  0  0  0  0  0  0
   22.8473    7.5684   26.2461 C   0  0  0  0  0  0  0  0  0  0  0  0
   24.3290    9.8976   29.6445 O   0  0  0  0  0  0  0  0  0  0  0  0
   22.6033   10.8410   24.4146 C   0  0  0  0  0  0  0  0  0  0  0  0
   22.6550    8.4966   25.2088 C   0  0  0  0  0  0  0  0  0  0  0  0
   22.1174   10.1512   29.8388 O   0  0  0  0  0  0  0  0  0  0  0  0
  1  2  1  0
  1  3  1  0
  1  4  1  0
  2  7  2  0
  3  8  2  0
  3 11  1  0
  4  6  2  0
  5  9  1  0
  6  9  1  0
  6 10  1  0
  7 10  1  0
M  END
>  <ID>  (1) 
conformer_0

$$$$
