
     RDKit          3D

 21 24  0  0  0  0  0  0  0  0999 V2000
   23.1074    9.5337   28.8727 C   0  0  0  0  0  0  0  0  0  0  0  0
   23.7382    8.0124   25.2754 O   0  0  0  0  0  0  0  0  0  0  0  0
   25.3246    8.3169   31.6913 C   0  0  0  0  0  0  0  0  0  0  0  0
   24.8453    8.4999   30.3985 C   0  0  0  0  0  0  0  0  0  0  0  0
   23.3457    8.3354   28.0880 C   0  0  0  0  0  0  0  0  0  0  0  0
   23.8583    9.4879   30.1380 C   0  0  0  0  0  0  0  0  0  0  0  0
   23.5984   10.4105   31.1232 C   0  0  0  0  0  0  0  0  0  0  0  0
   21.3194   12.4262   21.4125 C   0  0  0  0  0  0  0  0  0  0  0  0
   21.9047   13.2073   22.3640 C   0  0  0  0  0  0  0  0  0  0  0  0
   24.9560    9.1930   32.6686 C   0  0  0  0  0  0  0  0  0  0  0  0
   24.2920    7.2755   28.3628 C   0  0  0  0  0  0  0  0  0  0  0  0
   22.5683    8.7938   27.0300 N   0  0  0  0  0  0  0  0  0  0  0  0
   22.2774    9.9980   23.8249 O   0  0  0  0  0  0  0  0  0  0  0  0
   21.4298   11.0219   21.8437 O   0  0  0  0  0  0  0  0  0  0  0  0
   25.3957    7.6934   29.2992 C   0  0  0  0  0  0  0  0  0  0  0  0
   22.0613   11.0668   23.1161 C   0  0  0  0  0  0  0  0  0  0  0  0
   22.3853   10.0612   27.7211 C   0  0  0  0  0  0  0  0  0  0  0  0
   22.3430   12.3746   23.4318 C   0  0  0  0  0  0  0  0  0  0  0  0
   22.5146    9.9142   25.1416 N   0  0  0  0  0  0  0  0  0  0  0  0
   24.1362   10.2607   32.4036 C   0  0  0  0  0  0  0  0  0  0  0  0
   22.9728    8.8422   25.7601 C   0  0  0  0  0  0  0  0  0  0  0  0
  1  5  2  0
  1  6  1  0
  1 17  1  0
  2 21  2  0
  3  4  1  0
  3 10  2  0
  4  6  1  0
  4 15  1  0
  5 11  1  0
  5 12  1  0
  6  7  1  0
  7 20  2  0
  8  9  1  0
  8 14  1  0
  9 18  1  0
 10 20  1  0
 11 15  1  0
 12 17  1  0
 12 21  1  0
 13 16  1  0
 13 19  1  0
 14 16  1  0
 16 18  1  0
 19 21  1  0
M  END
>  <ID>  (1) 
conformer_0

$$$$
