
     RDKit          3D

 14 16  0  0  0  0  0  0  0  0999 V2000
   22.1704    5.7695   26.0648 O   0  0  0  0  0  0  0  0  0  0  0  0
   22.1694    8.6306   24.4965 C   0  0  0  0  0  0  0  0  0  0  0  0
   23.8386    7.9022   28.2906 C   0  0  0  0  0  0  0  0  0  0  0  0
   22.3584    9.9805   24.5795 C   0  0  0  0  0  0  0  0  0  0  0  0
   23.8362   10.2797   31.1694 C   0  0  0  0  0  0  0  0  0  0  0  0
   23.6815    9.4927   29.9990 C   0  0  0  0  0  0  0  0  0  0  0  0
   22.8244   10.2587   25.7929 N   0  0  0  0  0  0  0  0  0  0  0  0
   24.4730    8.3750   29.5386 C   0  0  0  0  0  0  0  0  0  0  0  0
   22.9338    9.1500   26.4733 C   0  0  0  0  0  0  0  0  0  0  0  0
   23.5224    6.7890   27.5464 N   0  0  0  0  0  0  0  0  0  0  0  0
   22.7483    6.8195   26.4025 C   0  0  0  0  0  0  0  0  0  0  0  0
   22.8305    9.9365   28.9227 C   0  0  0  0  0  0  0  0  0  0  0  0
   23.0636    9.0288   27.8498 C   0  0  0  0  0  0  0  0  0  0  0  0
   22.6035    8.0614   25.6573 C   0  0  0  0  0  0  0  0  0  0  0  0
  1 11  2  0
  2  4  1  0
  2 14  1  0
  3  8  1  0
  3 10  2  0
  3 13  1  0
  4  7  1  0
  5  6  1  0
  6  8  1  0
  6 12  1  0
  7  9  1  0
  9 13  1  0
  9 14  2  0
 10 11  1  0
 11 14  1  0
 12 13  1  0
M  END
>  <ID>  (1) 
conformer_0

$$$$
