
     RDKit          3D

 27 30  0  0  0  0  0  0  0  0999 V2000
   25.8859    9.5696   31.3880 C   0  0  0  0  0  0  0  0  0  0  0  0
   24.4531    6.8955   28.4334 C   0  0  0  0  0  0  0  0  0  0  0  0
   23.1786    8.8061   27.6071 N   0  0  0  0  0  0  0  0  0  0  0  0
   21.8850   13.5078   22.1822 C   0  0  0  0  0  0  0  0  0  0  0  0
   24.9783    7.8350   29.3973 C   0  0  0  0  0  0  0  0  0  0  0  0
   21.2136   15.4048   19.9846 C   0  0  0  0  0  0  0  0  0  0  0  0
   23.5162    7.4955   27.5412 C   0  0  0  0  0  0  0  0  0  0  0  0
   22.5079   12.0856   24.1517 N   0  0  0  0  0  0  0  0  0  0  0  0
   24.1439    8.7720   29.9922 C   0  0  0  0  0  0  0  0  0  0  0  0
   22.1020   12.2109   22.8242 C   0  0  0  0  0  0  0  0  0  0  0  0
   21.5186   11.7789   20.6847 O   0  0  0  0  0  0  0  0  0  0  0  0
   23.1158    5.3683   26.5014 N   0  0  0  0  0  0  0  0  0  0  0  0
   22.9701    6.7641   26.5152 C   0  0  0  0  0  0  0  0  0  0  0  0
   21.4709   13.1842   20.8378 C   0  0  0  0  0  0  0  0  0  0  0  0
   22.4534    8.7977   25.5080 C   0  0  0  0  0  0  0  0  0  0  0  0
   22.3689    7.4628   25.5363 N   0  0  0  0  0  0  0  0  0  0  0  0
   24.7008    5.5326   28.3151 C   0  0  0  0  0  0  0  0  0  0  0  0
   24.5470    9.6174   30.9575 C   0  0  0  0  0  0  0  0  0  0  0  0
   26.7656    8.6792   30.7695 C   0  0  0  0  0  0  0  0  0  0  0  0
   26.3228    7.8450   29.7936 C   0  0  0  0  0  0  0  0  0  0  0  0
   22.6213   10.9613   24.6909 N   0  0  0  0  0  0  0  0  0  0  0  0
   22.7672    9.4559   26.6248 N   0  0  0  0  0  0  0  0  0  0  0  0
   22.2719    9.6624   24.4203 N   0  0  0  0  0  0  0  0  0  0  0  0
   21.8892   11.2091   21.9757 C   0  0  0  0  0  0  0  0  0  0  0  0
   23.9816    4.7756   27.3974 C   0  0  0  0  0  0  0  0  0  0  0  0
   27.4332    6.7754   29.0395 Cl  0  0  0  0  0  0  0  0  0  0  0  0
   21.0884   14.0151   19.8807 O   0  0  0  0  0  0  0  0  0  0  0  0
  1 18  1  0
  1 19  1  0
  2  5  1  0
  2  7  2  0
  2 17  1  0
  3  7  1  0
  3 22  1  0
  4 10  1  0
  4 14  1  0
  5  9  1  0
  5 20  1  0
  6 27  1  0
  7 13  1  0
  8 10  2  3
  8 21  1  0
  9 18  2  0
 10 24  1  0
 11 14  1  0
 11 24  1  0
 12 13  1  0
 12 25  2  0
 13 16  2  0
 14 27  1  0
 15 16  1  0
 15 22  2  0
 15 23  1  0
 17 25  1  0
 19 20  2  0
 20 26  1  0
 21 23  1  0
M  END
>  <ID>  (1) 
conformer_0

$$$$
