
     RDKit          3D

 14 16  0  0  0  0  0  0  0  0999 V2000
   -4.0526  -29.5206  -14.5809 N   0  0  0  0  0  0  0  0  0  0  0  0
   -3.0272  -29.9317  -15.3016 C   0  0  0  0  0  0  0  0  0  0  0  0
   -3.0182  -30.2053  -16.6716 N   0  0  0  0  0  0  0  0  0  0  0  0
   -1.7333  -30.1447  -14.6415 C   0  0  0  0  0  0  0  0  0  0  0  0
   -1.8121  -29.7317  -13.3329 C   0  0  0  0  0  0  0  0  0  0  0  0
   -0.6904  -30.5394  -15.2899 C   0  0  0  0  0  0  0  0  0  0  0  0
   -0.6846  -30.0035  -12.5430 C   0  0  0  0  0  0  0  0  0  0  0  0
   -3.1034  -29.1991  -13.0269 C   0  0  0  0  0  0  0  0  0  0  0  0
   -0.8333  -29.8472  -11.1810 O   0  0  0  0  0  0  0  0  0  0  0  0
   -3.7826  -28.8312  -12.0005 C   0  0  0  0  0  0  0  0  0  0  0  0
   -2.0060  -30.7198  -17.3339 C   0  0  0  0  0  0  0  0  0  0  0  0
   -0.7550  -30.8625  -16.6545 C   0  0  0  0  0  0  0  0  0  0  0  0
    0.5126  -30.6014  -13.0245 C   0  0  0  0  0  0  0  0  0  0  0  0
    0.5542  -30.8012  -14.4932 C   0  0  0  0  0  0  0  0  0  0  0  0
  1  2  2  0
  2  3  1  0
  2  4  1  0
  4  5  1  0
  4  6  2  0
  5  7  2  0
  1  8  1  0
  5  8  1  0
  7  9  1  0
  8 10  1  0
  3 11  1  0
  6 12  1  0
 11 12  2  0
  7 13  1  0
  6 14  1  0
 13 14  2  0
M  END
>  <ID>  (1) 
conformer_0

$$$$
