
     RDKit          3D

 14 16  0  0  0  0  0  0  0  0999 V2000
   -2.4868  -31.0030  -17.4469 N   0  0  0  0  0  0  0  0  0  0  0  0
   -1.3526  -31.3140  -17.8526 C   0  0  0  0  0  0  0  0  0  0  0  0
   -2.7103  -30.4818  -16.1842 C   0  0  0  0  0  0  0  0  0  0  0  0
   -1.6627  -30.3073  -15.3732 C   0  0  0  0  0  0  0  0  0  0  0  0
   -1.9906  -29.7290  -14.0644 C   0  0  0  0  0  0  0  0  0  0  0  0
   -1.1542  -29.7428  -13.0173 C   0  0  0  0  0  0  0  0  0  0  0  0
   -4.0051  -29.9612  -15.9025 N   0  0  0  0  0  0  0  0  0  0  0  0
   -3.3711  -29.3797  -13.8473 C   0  0  0  0  0  0  0  0  0  0  0  0
   -1.7587  -29.7266  -11.7746 C   0  0  0  0  0  0  0  0  0  0  0  0
   -4.1115  -29.4355  -14.7588 C   0  0  0  0  0  0  0  0  0  0  0  0
   -1.1985  -31.7435  -19.0476 N   0  0  0  0  0  0  0  0  0  0  0  0
   -0.3493  -31.0846  -17.0286 C   0  0  0  0  0  0  0  0  0  0  0  0
   -3.4545  -29.1163  -12.3407 C   0  0  0  0  0  0  0  0  0  0  0  0
   -0.3850  -30.6395  -15.7930 C   0  0  0  0  0  0  0  0  0  0  0  0
  1  2  1  0
  1  3  2  0
  3  4  1  0
  4  5  1  0
  5  6  2  0
  3  7  1  0
  5  8  1  0
  6  9  1  0
  7 10  2  0
  8 10  1  0
  2 11  1  0
  2 12  2  0
  8 13  2  0
  9 13  2  0
  4 14  2  0
 12 14  1  0
M  END
>  <ID>  (1) 
conformer_0

$$$$
