
     RDKit          3D

 16 19  0  0  0  0  0  0  0  0999 V2000
   -3.6384  -30.2913  -15.8187 N   0  0  0  0  0  0  0  0  0  0  0  0
   -2.4427  -30.6883  -16.2310 C   0  0  0  0  0  0  0  0  0  0  0  0
   -1.4084  -30.5006  -15.4661 C   0  0  0  0  0  0  0  0  0  0  0  0
   -0.1915  -31.0284  -15.7545 C   0  0  0  0  0  0  0  0  0  0  0  0
    0.8918  -30.9591  -14.7509 N   0  0  0  0  0  0  0  0  0  0  0  0
   -2.2181  -31.0586  -17.5684 N   0  0  0  0  0  0  0  0  0  0  0  0
   -3.8847  -29.7502  -14.6807 C   0  0  0  0  0  0  0  0  0  0  0  0
   -1.7613  -29.9671  -14.0702 C   0  0  0  0  0  0  0  0  0  0  0  0
   -2.9200  -29.5933  -13.7194 C   0  0  0  0  0  0  0  0  0  0  0  0
   -0.6311  -29.8649  -13.0581 C   0  0  0  0  0  0  0  0  0  0  0  0
   -0.8907  -31.4498  -17.7938 C   0  0  0  0  0  0  0  0  0  0  0  0
   -0.7784  -29.6359  -11.8441 C   0  0  0  0  0  0  0  0  0  0  0  0
   -3.2231  -29.2151  -12.4214 C   0  0  0  0  0  0  0  0  0  0  0  0
    0.0750  -31.4287  -16.9970 C   0  0  0  0  0  0  0  0  0  0  0  0
    0.7282  -29.9930  -13.5653 C   0  0  0  0  0  0  0  0  0  0  0  0
   -2.2086  -29.4728  -11.3833 C   0  0  0  0  0  0  0  0  0  0  0  0
  1  2  1  0
  2  3  1  0
  3  4  2  0
  4  5  1  0
  2  6  2  0
  1  7  2  0
  3  8  1  0
  7  9  1  0
  8  9  2  0
  8 10  1  0
  6 11  1  0
 10 12  2  0
  9 13  1  0
  4 14  1  0
 11 14  2  0
  5 15  2  0
 10 15  1  0
 12 16  1  0
 13 16  2  0
M  END
>  <ID>  (1) 
conformer_0

$$$$
