
     RDKit          3D

 14 16  0  0  0  0  0  0  0  0999 V2000
   -4.2102  -29.5664  -14.1824 N   0  0  0  0  0  0  0  0  0  0  0  0
   -3.3051  -29.8476  -15.0392 C   0  0  0  0  0  0  0  0  0  0  0  0
   -2.0707  -30.1059  -14.4230 C   0  0  0  0  0  0  0  0  0  0  0  0
   -3.9117  -29.3601  -12.8132 C   0  0  0  0  0  0  0  0  0  0  0  0
   -3.4714  -30.0423  -16.2653 N   0  0  0  0  0  0  0  0  0  0  0  0
   -1.0996  -30.6090  -15.3916 C   0  0  0  0  0  0  0  0  0  0  0  0
    0.1900  -30.9350  -14.8595 N   0  0  0  0  0  0  0  0  0  0  0  0
   -2.7047  -29.6661  -12.3051 N   0  0  0  0  0  0  0  0  0  0  0  0
   -1.2680  -30.7782  -16.6611 C   0  0  0  0  0  0  0  0  0  0  0  0
   -2.4252  -30.5296  -17.1446 C   0  0  0  0  0  0  0  0  0  0  0  0
   -1.7836  -30.0109  -13.1149 C   0  0  0  0  0  0  0  0  0  0  0  0
    1.0813  -31.6168  -15.6076 C   0  0  0  0  0  0  0  0  0  0  0  0
   -0.2911  -31.1771  -17.5708 C   0  0  0  0  0  0  0  0  0  0  0  0
    0.8234  -31.6082  -17.0400 C   0  0  0  0  0  0  0  0  0  0  0  0
  1  2  1  0
  2  3  1  0
  1  4  2  0
  2  5  2  0
  3  6  2  0
  6  7  1  0
  4  8  1  0
  6  9  1  0
  5 10  1  0
  9 10  2  0
  3 11  1  0
  8 11  2  0
  7 12  2  0
  9 13  1  0
 12 14  1  0
 13 14  2  0
M  END
>  <ID>  (1) 
conformer_0

$$$$
