
     RDKit          3D

 17 19  0  0  0  0  0  0  0  0999 V2000
   -3.9156  -29.5002  -13.2267 C   0  0  0  0  0  0  0  0  0  0  0  0
   -3.4210  -29.6824  -14.4249 C   0  0  0  0  0  0  0  0  0  0  0  0
   -3.1011  -29.6886  -12.0314 C   0  0  0  0  0  0  0  0  0  0  0  0
   -1.9848  -29.9393  -14.4813 C   0  0  0  0  0  0  0  0  0  0  0  0
   -1.3682  -30.1069  -15.7982 C   0  0  0  0  0  0  0  0  0  0  0  0
   -1.2396  -30.0806  -13.4752 C   0  0  0  0  0  0  0  0  0  0  0  0
   -3.6768  -29.5704  -10.6863 C   0  0  0  0  0  0  0  0  0  0  0  0
   -2.7582  -29.6481   -9.7145 C   0  0  0  0  0  0  0  0  0  0  0  0
   -4.2137  -29.5271  -15.4148 O   0  0  0  0  0  0  0  0  0  0  0  0
    0.1818  -30.3805  -13.5719 C   0  0  0  0  0  0  0  0  0  0  0  0
   -0.1041  -30.4600  -15.9431 C   0  0  0  0  0  0  0  0  0  0  0  0
   -4.9641  -29.6161  -10.2712 C   0  0  0  0  0  0  0  0  0  0  0  0
   -4.8550  -29.5122   -8.8364 C   0  0  0  0  0  0  0  0  0  0  0  0
    0.7190  -30.6858  -14.5829 C   0  0  0  0  0  0  0  0  0  0  0  0
   -3.4857  -29.5081   -8.5159 N   0  0  0  0  0  0  0  0  0  0  0  0
   -1.7907  -29.9377  -12.1227 C   0  0  0  0  0  0  0  0  0  0  0  0
   -3.1228  -29.5427   -7.1242 C   0  0  0  0  0  0  0  0  0  0  0  0
  1  2  1  0
  1  3  2  0
  2  4  2  0
  4  5  1  0
  4  6  1  0
  3  7  1  0
  7  8  2  0
  2  9  1  0
  6 10  1  0
  5 11  2  0
  7 12  1  0
 12 13  2  0
 10 14  2  0
 11 14  1  0
  8 15  1  0
 13 15  1  0
  3 16  1  0
  6 16  2  0
 15 17  1  0
M  END
>  <ID>  (1) 
conformer_0

$$$$
