
     RDKit          3D

 13 14  0  0  0  0  0  0  0  0999 V2000
   -3.6021  -29.4444  -12.7984 C   0  0  0  0  0  0  0  0  0  0  0  0
   -2.6409  -29.5682  -12.0262 C   0  0  0  0  0  0  0  0  0  0  0  0
   -1.3169  -29.9902  -12.3751 C   0  0  0  0  0  0  0  0  0  0  0  0
   -0.8461  -30.1731  -13.5362 C   0  0  0  0  0  0  0  0  0  0  0  0
   -3.4055  -29.6940  -14.2897 C   0  0  0  0  0  0  0  0  0  0  0  0
   -2.0232  -30.0427  -14.6027 C   0  0  0  0  0  0  0  0  0  0  0  0
   -1.6736  -30.4207  -15.9221 C   0  0  0  0  0  0  0  0  0  0  0  0
   -2.8806  -30.2424  -16.7463 C   0  0  0  0  0  0  0  0  0  0  0  0
   -4.0742  -29.9168  -16.4342 N   0  0  0  0  0  0  0  0  0  0  0  0
   -4.3267  -29.5980  -15.1455 N   0  0  0  0  0  0  0  0  0  0  0  0
    0.3734  -30.5598  -13.8574 C   0  0  0  0  0  0  0  0  0  0  0  0
    1.2287  -30.4113  -12.9270 O   0  0  0  0  0  0  0  0  0  0  0  0
    0.7333  -31.1487  -15.0204 O   0  0  0  0  0  0  0  0  0  0  0  0
  1  2  2  0
  2  3  1  0
  3  4  2  0
  1  5  1  0
  4  6  1  0
  5  6  1  0
  6  7  2  0
  7  8  1  0
  8  9  2  0
  5 10  2  0
  9 10  1  0
  4 11  1  0
 11 12  1  0
 11 13  2  0
M  END
>  <ID>  (1) 
conformer_0

$$$$
