
     RDKit          3D

 18 21  0  0  0  0  0  0  0  0999 V2000
   -3.6384  -30.2913  -15.8187 N   0  0  0  0  0  0  0  0  0  0  0  0
   -2.4427  -30.6883  -16.2310 C   0  0  0  0  0  0  0  0  0  0  0  0
   -1.4084  -30.5006  -15.4661 C   0  0  0  0  0  0  0  0  0  0  0  0
   -0.1915  -31.0284  -15.7545 C   0  0  0  0  0  0  0  0  0  0  0  0
    0.8918  -30.9591  -14.7509 N   0  0  0  0  0  0  0  0  0  0  0  0
   -3.4747  -29.8585  -14.5759 C   0  0  0  0  0  0  0  0  0  0  0  0
   -0.2861  -31.5385  -17.0586 N   0  0  0  0  0  0  0  0  0  0  0  0
   -1.7681  -29.9936  -14.1139 C   0  0  0  0  0  0  0  0  0  0  0  0
   -1.6680  -31.2705  -17.4083 C   0  0  0  0  0  0  0  0  0  0  0  0
   -1.3018  -29.6230  -13.0382 C   0  0  0  0  0  0  0  0  0  0  0  0
   -2.1588  -29.4847  -11.8842 C   0  0  0  0  0  0  0  0  0  0  0  0
   -1.5958  -29.2948  -10.6158 O   0  0  0  0  0  0  0  0  0  0  0  0
   -2.1000  -29.9132   -9.5058 C   0  0  0  0  0  0  0  0  0  0  0  0
   -3.3384  -30.2397   -9.5474 C   0  0  0  0  0  0  0  0  0  0  0  0
   -3.6784  -29.6820  -11.9089 C   0  0  0  0  0  0  0  0  0  0  0  0
   -4.1902  -29.4239  -10.6099 C   0  0  0  0  0  0  0  0  0  0  0  0
   -4.1804  -29.6267  -13.3256 C   0  0  0  0  0  0  0  0  0  0  0  0
   -2.1412  -30.8885  -18.5149 O   0  0  0  0  0  0  0  0  0  0  0  0
  1  2  1  0
  2  3  1  0
  3  4  2  0
  4  5  1  0
  1  6  2  0
  4  7  1  0
  3  8  1  0
  6  8  1  0
  2  9  1  0
  7  9  1  0
  8 10  1  0
 10 11  2  0
 11 12  1  0
 12 13  1  0
 13 14  1  0
 11 15  1  0
 14 16  1  0
 15 16  1  0
  6 17  1  0
 15 17  2  0
  9 18  2  0
M  END
>  <ID>  (1) 
conformer_0

$$$$
