
     RDKit          3D

 13 15  0  0  0  0  0  0  0  0999 V2000
   -4.0526  -29.5206  -14.5809 N   0  0  0  0  0  0  0  0  0  0  0  0
   -3.0272  -29.9317  -15.3016 C   0  0  0  0  0  0  0  0  0  0  0  0
   -1.7820  -30.0742  -14.7037 C   0  0  0  0  0  0  0  0  0  0  0  0
   -3.1318  -30.4371  -16.5760 N   0  0  0  0  0  0  0  0  0  0  0  0
   -0.7957  -30.4402  -15.2185 C   0  0  0  0  0  0  0  0  0  0  0  0
   -1.9294  -29.6981  -13.2998 C   0  0  0  0  0  0  0  0  0  0  0  0
   -3.0652  -29.3225  -12.6660 N   0  0  0  0  0  0  0  0  0  0  0  0
   -4.1245  -29.2453  -13.4068 C   0  0  0  0  0  0  0  0  0  0  0  0
   -0.7583  -29.8287  -12.5263 N   0  0  0  0  0  0  0  0  0  0  0  0
    0.4124  -30.5564  -14.6445 N   0  0  0  0  0  0  0  0  0  0  0  0
    0.3253  -30.2602  -13.2086 C   0  0  0  0  0  0  0  0  0  0  0  0
   -1.9712  -30.7777  -17.2105 C   0  0  0  0  0  0  0  0  0  0  0  0
   -0.7721  -30.7001  -16.5092 C   0  0  0  0  0  0  0  0  0  0  0  0
  1  2  1  0
  2  3  2  0
  2  4  1  0
  3  5  1  0
  3  6  1  0
  6  7  2  0
  1  8  2  0
  7  8  1  0
  6  9  1  0
  5 10  2  0
  9 11  2  0
 10 11  1  0
  4 12  2  0
  5 13  1  0
 12 13  1  0
M  END
>  <ID>  (1) 
conformer_0

$$$$
