
     RDKit          3D

 11 12  0  0  0  0  0  0  0  0999 V2000
   -3.8907  -29.4874  -15.3742 N   0  0  0  0  0  0  0  0  0  0  0  0
   -2.7523  -30.0942  -15.5990 C   0  0  0  0  0  0  0  0  0  0  0  0
   -3.9022  -29.0337  -14.1713 C   0  0  0  0  0  0  0  0  0  0  0  0
   -1.6584  -30.3507  -14.8375 C   0  0  0  0  0  0  0  0  0  0  0  0
   -1.9490  -29.8342  -13.5653 C   0  0  0  0  0  0  0  0  0  0  0  0
   -2.3334  -30.7855  -16.9601 C   0  0  0  0  0  0  0  0  0  0  0  0
   -3.0060  -29.3592  -13.1856 N   0  0  0  0  0  0  0  0  0  0  0  0
   -1.2484  -31.3392  -17.3284 C   0  0  0  0  0  0  0  0  0  0  0  0
   -0.4653  -30.9613  -15.1785 C   0  0  0  0  0  0  0  0  0  0  0  0
   -0.1761  -31.3836  -16.3262 C   0  0  0  0  0  0  0  0  0  0  0  0
   -0.9350  -30.0066  -12.4695 C   0  0  0  0  0  0  0  0  0  0  0  0
  1  2  2  0
  1  3  1  0
  2  4  1  0
  4  5  2  0
  2  6  1  0
  3  7  2  0
  5  7  1  0
  6  8  2  0
  4  9  1  0
  8 10  1  0
  9 10  2  0
  5 11  1  0
M  END
>  <ID>  (1) 
conformer_0

$$$$
