
     RDKit          3D

 20 22  0  0  0  0  0  0  0  0999 V2000
   -3.9156  -29.5002  -13.2267 C   0  0  0  0  0  0  0  0  0  0  0  0
   -3.4210  -29.6824  -14.4249 C   0  0  0  0  0  0  0  0  0  0  0  0
   -3.1011  -29.6886  -12.0314 C   0  0  0  0  0  0  0  0  0  0  0  0
   -1.9848  -29.9393  -14.4813 C   0  0  0  0  0  0  0  0  0  0  0  0
   -1.3682  -30.1069  -15.7982 C   0  0  0  0  0  0  0  0  0  0  0  0
   -1.2396  -30.0806  -13.4752 C   0  0  0  0  0  0  0  0  0  0  0  0
   -3.6768  -29.5704  -10.6863 C   0  0  0  0  0  0  0  0  0  0  0  0
   -2.7582  -29.6481   -9.7145 C   0  0  0  0  0  0  0  0  0  0  0  0
   -4.2137  -29.5271  -15.4148 O   0  0  0  0  0  0  0  0  0  0  0  0
    0.1818  -30.3805  -13.5719 C   0  0  0  0  0  0  0  0  0  0  0  0
   -4.9944  -29.2995  -10.4663 C   0  0  0  0  0  0  0  0  0  0  0  0
    0.6988  -30.6000  -14.7561 C   0  0  0  0  0  0  0  0  0  0  0  0
   -3.1686  -29.5212   -8.3931 C   0  0  0  0  0  0  0  0  0  0  0  0
   -2.2896  -29.6316   -7.2941 O   0  0  0  0  0  0  0  0  0  0  0  0
   -1.7438  -29.9650  -12.1052 C   0  0  0  0  0  0  0  0  0  0  0  0
   -2.1744  -30.0722  -17.0148 N   0  0  0  0  0  0  0  0  0  0  0  0
   -5.3864  -29.0982   -9.2004 C   0  0  0  0  0  0  0  0  0  0  0  0
   -4.4942  -29.2670   -8.0888 C   0  0  0  0  0  0  0  0  0  0  0  0
   -0.1274  -30.4813  -15.9622 C   0  0  0  0  0  0  0  0  0  0  0  0
   -1.3378  -28.9774   -7.1280 C   0  0  0  0  0  0  0  0  0  0  0  0
  1  2  1  0
  1  3  2  0
  2  4  2  0
  4  5  1  0
  4  6  1  0
  3  7  1  0
  7  8  2  0
  2  9  1  0
  6 10  1  0
  7 11  1  0
 10 12  2  0
  8 13  1  0
 13 14  1  0
  3 15  1  0
  6 15  2  0
  5 16  1  0
 11 17  2  0
 13 18  2  0
 17 18  1  0
  5 19  2  0
 12 19  1  0
 14 20  1  0
M  END
>  <ID>  (1) 
conformer_0

$$$$
