
     RDKit          3D

 16 19  0  0  0  0  0  0  0  0999 V2000
   -3.3791  -29.9587  -16.3617 N   0  0  0  0  0  0  0  0  0  0  0  0
   -2.2670  -30.6496  -16.7072 C   0  0  0  0  0  0  0  0  0  0  0  0
   -1.9918  -31.1687  -17.8968 C   0  0  0  0  0  0  0  0  0  0  0  0
   -1.5112  -30.8929  -15.4647 C   0  0  0  0  0  0  0  0  0  0  0  0
   -0.3230  -31.5298  -15.4761 C   0  0  0  0  0  0  0  0  0  0  0  0
    0.5396  -31.7425  -14.3981 C   0  0  0  0  0  0  0  0  0  0  0  0
   -3.7599  -29.5364  -15.1966 C   0  0  0  0  0  0  0  0  0  0  0  0
   -2.0265  -30.2310  -14.2638 C   0  0  0  0  0  0  0  0  0  0  0  0
   -1.1466  -30.5360  -13.0243 C   0  0  0  0  0  0  0  0  0  0  0  0
    0.1305  -32.0686  -16.5757 N   0  0  0  0  0  0  0  0  0  0  0  0
    0.1176  -31.1277  -13.1514 C   0  0  0  0  0  0  0  0  0  0  0  0
   -1.3463  -30.0562  -12.0600 N   0  0  0  0  0  0  0  0  0  0  0  0
   -3.0936  -29.5771  -14.0896 C   0  0  0  0  0  0  0  0  0  0  0  0
   -0.4193  -30.3609  -11.0369 N   0  0  0  0  0  0  0  0  0  0  0  0
   -0.6890  -31.8585  -17.7533 C   0  0  0  0  0  0  0  0  0  0  0  0
    0.7334  -31.0377  -11.8169 C   0  0  0  0  0  0  0  0  0  0  0  0
  1  2  1  0
  2  3  1  0
  2  4  2  0
  4  5  1  0
  5  6  1  0
  1  7  2  0
  4  8  1  0
  8  9  1  0
  5 10  2  0
  6 11  2  0
  9 11  1  0
  9 12  2  0
  7 13  1  0
  8 13  2  0
 12 14  1  0
  3 15  2  0
 10 15  1  0
 11 16  1  0
 14 16  2  0
M  END
>  <ID>  (1) 
conformer_0

$$$$
