
     RDKit          3D

 13 14  0  0  0  0  0  0  0  0999 V2000
   -3.6981  -29.7729  -15.5635 N   0  0  0  0  0  0  0  0  0  0  0  0
   -3.6589  -29.3354  -14.3989 C   0  0  0  0  0  0  0  0  0  0  0  0
   -2.5197  -30.3425  -15.9676 C   0  0  0  0  0  0  0  0  0  0  0  0
   -1.3847  -30.4656  -15.3358 C   0  0  0  0  0  0  0  0  0  0  0  0
   -2.3996  -29.6529  -13.6020 C   0  0  0  0  0  0  0  0  0  0  0  0
   -1.4263  -30.1624  -14.1117 C   0  0  0  0  0  0  0  0  0  0  0  0
   -0.3300  -31.0299  -16.1308 C   0  0  0  0  0  0  0  0  0  0  0  0
   -2.6800  -29.2906  -12.1365 O   0  0  0  0  0  0  0  0  0  0  0  0
   -0.2554  -30.3328  -13.1318 C   0  0  0  0  0  0  0  0  0  0  0  0
   -0.6947  -31.1660  -17.4229 C   0  0  0  0  0  0  0  0  0  0  0  0
   -2.3249  -30.7860  -17.4645 C   0  0  0  0  0  0  0  0  0  0  0  0
    0.8501  -29.7973  -13.4656 O   0  0  0  0  0  0  0  0  0  0  0  0
   -0.2561  -31.1865  -12.1458 O   0  0  0  0  0  0  0  0  0  0  0  0
  1  2  2  0
  1  3  1  0
  3  4  2  0
  2  5  1  0
  4  6  1  0
  5  6  2  0
  4  7  1  0
  5  8  1  0
  6  9  1  0
  7 10  2  0
  3 11  1  0
 10 11  1  0
  9 12  2  0
  9 13  1  0
M  END
>  <ID>  (1) 
conformer_0

$$$$
