
     RDKit          3D

 10 11  0  0  0  0  0  0  0  0999 V2000
   -3.6578  -29.4235  -15.4647 N   0  0  0  0  0  0  0  0  0  0  0  0
   -2.5796  -30.0753  -15.6229 C   0  0  0  0  0  0  0  0  0  0  0  0
   -2.1313  -30.8056  -16.7923 C   0  0  0  0  0  0  0  0  0  0  0  0
   -0.9938  -31.5401  -16.7993 C   0  0  0  0  0  0  0  0  0  0  0  0
   -0.3100  -31.3105  -15.5024 C   0  0  0  0  0  0  0  0  0  0  0  0
    1.0325  -31.9904  -15.4662 C   0  0  0  0  0  0  0  0  0  0  0  0
   -0.9513  -30.4743  -14.6395 C   0  0  0  0  0  0  0  0  0  0  0  0
   -1.8363  -29.9992  -14.6428 N   0  0  0  0  0  0  0  0  0  0  0  0
   -3.6545  -28.9644  -14.1946 C   0  0  0  0  0  0  0  0  0  0  0  0
   -2.5867  -29.3928  -13.6706 C   0  0  0  0  0  0  0  0  0  0  0  0
  1  2  2  0
  2  3  1  0
  3  4  2  0
  4  5  1  0
  5  6  1  0
  5  7  2  0
  2  8  1  0
  7  8  1  0
  1  9  1  0
  8 10  1  0
  9 10  2  0
M  END
>  <ID>  (1) 
conformer_0

$$$$
