
     RDKit          3D

 16 18  0  0  0  0  0  0  0  0999 V2000
   -4.0526  -29.5206  -14.5809 N   0  0  0  0  0  0  0  0  0  0  0  0
   -3.0272  -29.9317  -15.3016 C   0  0  0  0  0  0  0  0  0  0  0  0
   -3.8634  -29.3747  -13.2941 C   0  0  0  0  0  0  0  0  0  0  0  0
   -1.7262  -30.1522  -14.8601 C   0  0  0  0  0  0  0  0  0  0  0  0
   -4.7836  -29.0795  -12.4092 N   0  0  0  0  0  0  0  0  0  0  0  0
   -2.5709  -29.7092  -12.7323 C   0  0  0  0  0  0  0  0  0  0  0  0
   -1.5174  -30.0936  -13.5411 C   0  0  0  0  0  0  0  0  0  0  0  0
   -2.2986  -29.6228  -11.3525 C   0  0  0  0  0  0  0  0  0  0  0  0
   -0.3578  -30.2760  -12.7769 C   0  0  0  0  0  0  0  0  0  0  0  0
   -0.9877  -29.9708  -11.0342 C   0  0  0  0  0  0  0  0  0  0  0  0
   -3.0350  -30.1393  -16.7553 N   0  0  0  0  0  0  0  0  0  0  0  0
   -2.1360  -30.5827  -17.4663 C   0  0  0  0  0  0  0  0  0  0  0  0
   -0.9272  -30.7889  -16.7999 C   0  0  0  0  0  0  0  0  0  0  0  0
   -0.1098  -30.3075  -11.8308 C   0  0  0  0  0  0  0  0  0  0  0  0
   -0.7278  -30.6256  -15.5759 C   0  0  0  0  0  0  0  0  0  0  0  0
    1.1031  -30.6439  -11.3299 N   0  0  0  0  0  0  0  0  0  0  0  0
  1  2  1  0
  1  3  2  0
  2  4  1  0
  3  5  1  0
  3  6  1  0
  4  7  2  0
  6  7  1  0
  6  8  2  0
  7  9  1  0
  8 10  1  0
  2 11  2  0
 11 12  1  0
 12 13  2  0
  9 14  1  0
 10 14  1  0
  4 15  1  0
 13 15  1  0
 14 16  2  0
M  END
>  <ID>  (1) 
conformer_0

$$$$
