
     RDKit          3D

 18 19  0  0  0  0  0  0  0  0999 V2000
   -0.4454  -30.0493  -12.5126 C   0  0  0  0  0  0  0  0  0  0  0  0
   -1.6913  -29.8050  -13.0401 C   0  0  0  0  0  0  0  0  0  0  0  0
   -1.9305  -29.9343  -14.3942 C   0  0  0  0  0  0  0  0  0  0  0  0
   -2.8647  -29.4140  -12.2876 C   0  0  0  0  0  0  0  0  0  0  0  0
    0.5986  -30.3144  -13.3937 C   0  0  0  0  0  0  0  0  0  0  0  0
    1.8415  -30.7367  -12.8309 O   0  0  0  0  0  0  0  0  0  0  0  0
    0.3512  -30.6146  -14.6977 C   0  0  0  0  0  0  0  0  0  0  0  0
    1.3283  -31.0669  -15.5838 O   0  0  0  0  0  0  0  0  0  0  0  0
   -2.9755  -29.2877  -10.9312 C   0  0  0  0  0  0  0  0  0  0  0  0
   -4.0398  -29.2400  -12.9348 C   0  0  0  0  0  0  0  0  0  0  0  0
   -0.9382  -30.3938  -15.2094 C   0  0  0  0  0  0  0  0  0  0  0  0
   -1.1576  -30.5744  -16.6606 C   0  0  0  0  0  0  0  0  0  0  0  0
   -5.0575  -28.7540  -12.3249 C   0  0  0  0  0  0  0  0  0  0  0  0
   -1.7666  -29.6263  -10.0493 O   0  0  0  0  0  0  0  0  0  0  0  0
   -4.0361  -28.9652  -10.1972 C   0  0  0  0  0  0  0  0  0  0  0  0
   -5.1196  -28.6614  -10.9043 C   0  0  0  0  0  0  0  0  0  0  0  0
   -0.8461  -30.0249  -17.4614 O   0  0  0  0  0  0  0  0  0  0  0  0
   -2.4565  -31.4486  -16.8874 C   0  0  0  0  0  0  0  0  0  0  0  0
  1  2  1  0
  2  3  2  0
  2  4  1  0
  1  5  2  0
  5  6  1  0
  5  7  1  0
  7  8  1  0
  4  9  1  0
  4 10  2  0
  3 11  1  0
  7 11  2  0
 11 12  1  0
 10 13  1  0
  9 14  1  0
  9 15  2  0
 13 16  2  0
 15 16  1  0
 12 17  2  0
 12 18  1  0
M  END
>  <ID>  (1) 
conformer_0

$$$$
