
     RDKit          3D

 16 19  0  0  0  0  0  0  0  0999 V2000
   -3.6384  -30.2913  -15.8187 N   0  0  0  0  0  0  0  0  0  0  0  0
   -2.4427  -30.6883  -16.2310 C   0  0  0  0  0  0  0  0  0  0  0  0
   -1.4084  -30.5006  -15.4661 C   0  0  0  0  0  0  0  0  0  0  0  0
   -3.8652  -29.7277  -14.6755 C   0  0  0  0  0  0  0  0  0  0  0  0
   -0.1606  -31.0163  -15.8523 C   0  0  0  0  0  0  0  0  0  0  0  0
   -2.1922  -30.8797  -17.6305 C   0  0  0  0  0  0  0  0  0  0  0  0
   -0.0191  -31.3920  -17.2465 C   0  0  0  0  0  0  0  0  0  0  0  0
   -1.0345  -31.2462  -18.0958 C   0  0  0  0  0  0  0  0  0  0  0  0
   -1.5738  -30.1740  -14.0805 C   0  0  0  0  0  0  0  0  0  0  0  0
   -0.5820  -30.2113  -13.0554 C   0  0  0  0  0  0  0  0  0  0  0  0
   -2.8102  -29.7876  -13.6427 C   0  0  0  0  0  0  0  0  0  0  0  0
   -2.8198  -29.4520  -12.2567 C   0  0  0  0  0  0  0  0  0  0  0  0
   -1.9481  -29.5240  -11.3874 C   0  0  0  0  0  0  0  0  0  0  0  0
    0.8106  -30.6739  -13.5688 C   0  0  0  0  0  0  0  0  0  0  0  0
   -0.6941  -29.9525  -11.8126 C   0  0  0  0  0  0  0  0  0  0  0  0
    1.0542  -31.0316  -15.0173 C   0  0  0  0  0  0  0  0  0  0  0  0
  1  2  1  0
  2  3  1  0
  1  4  2  0
  3  5  2  0
  2  6  2  0
  5  7  1  0
  6  8  1  0
  7  8  2  0
  3  9  1  0
  9 10  1  0
  4 11  1  0
  9 11  2  0
 11 12  1  0
 12 13  2  0
 10 14  1  0
 10 15  2  0
 13 15  1  0
  5 16  1  0
 14 16  2  0
M  END
>  <ID>  (1) 
conformer_0

$$$$
