
     RDKit          3D

 13 14  0  0  0  0  0  0  0  0999 V2000
   -3.5610  -29.9461  -16.4067 N   0  0  0  0  0  0  0  0  0  0  0  0
   -2.4465  -30.6641  -16.7931 C   0  0  0  0  0  0  0  0  0  0  0  0
   -1.5021  -30.8215  -15.8576 C   0  0  0  0  0  0  0  0  0  0  0  0
   -2.2382  -31.3301  -17.9478 C   0  0  0  0  0  0  0  0  0  0  0  0
   -3.7809  -29.4548  -15.2485 C   0  0  0  0  0  0  0  0  0  0  0  0
   -1.6971  -30.2024  -14.5190 C   0  0  0  0  0  0  0  0  0  0  0  0
   -0.3107  -31.4522  -15.9835 C   0  0  0  0  0  0  0  0  0  0  0  0
   -2.8505  -29.5592  -14.2540 C   0  0  0  0  0  0  0  0  0  0  0  0
   -0.7611  -30.3420  -13.4381 N   0  0  0  0  0  0  0  0  0  0  0  0
    0.7630  -31.5977  -15.1320 C   0  0  0  0  0  0  0  0  0  0  0  0
    1.9733  -32.1648  -15.3077 C   0  0  0  0  0  0  0  0  0  0  0  0
    0.4540  -30.9686  -13.7483 C   0  0  0  0  0  0  0  0  0  0  0  0
    1.4247  -31.0987  -12.7270 N   0  0  0  0  0  0  0  0  0  0  0  0
  1  2  1  0
  2  3  2  0
  2  4  1  0
  1  5  2  0
  3  6  1  0
  3  7  1  0
  5  8  1  0
  6  8  2  0
  6  9  1  0
  7 10  2  0
 10 11  1  0
  9 12  2  0
 10 12  1  0
 12 13  1  0
M  END
>  <ID>  (1) 
conformer_0

$$$$
