
     RDKit          3D

 14 16  0  0  0  0  0  0  0  0999 V2000
   -2.4868  -31.0030  -17.4469 N   0  0  0  0  0  0  0  0  0  0  0  0
   -1.3526  -31.3140  -17.8526 C   0  0  0  0  0  0  0  0  0  0  0  0
   -2.7103  -30.4818  -16.1842 C   0  0  0  0  0  0  0  0  0  0  0  0
   -1.6627  -30.3073  -15.3732 C   0  0  0  0  0  0  0  0  0  0  0  0
   -1.9906  -29.7290  -14.0644 C   0  0  0  0  0  0  0  0  0  0  0  0
   -1.1542  -29.7428  -13.0173 C   0  0  0  0  0  0  0  0  0  0  0  0
   -4.0051  -29.9612  -15.9025 N   0  0  0  0  0  0  0  0  0  0  0  0
   -3.3711  -29.3797  -13.8473 C   0  0  0  0  0  0  0  0  0  0  0  0
   -1.7587  -29.7266  -11.7746 C   0  0  0  0  0  0  0  0  0  0  0  0
   -3.6355  -29.3518  -12.4870 C   0  0  0  0  0  0  0  0  0  0  0  0
   -2.7730  -29.4260  -11.4421 C   0  0  0  0  0  0  0  0  0  0  0  0
   -4.2503  -29.4628  -14.8028 N   0  0  0  0  0  0  0  0  0  0  0  0
   -0.4140  -30.7359  -15.9174 C   0  0  0  0  0  0  0  0  0  0  0  0
   -0.2281  -31.1233  -17.0397 C   0  0  0  0  0  0  0  0  0  0  0  0
  1  2  1  0
  1  3  2  0
  3  4  1  0
  4  5  1  0
  5  6  2  0
  3  7  1  0
  5  8  1  0
  6  9  1  0
  8 10  2  0
  9 11  2  0
 10 11  1  0
  7 12  2  0
  8 12  1  0
  4 13  2  0
  2 14  2  0
 13 14  1  0
M  END
>  <ID>  (1) 
conformer_0

$$$$
