
     RDKit          3D

 15 17  0  0  0  0  0  0  0  0999 V2000
   -4.2102  -29.5664  -14.1824 N   0  0  0  0  0  0  0  0  0  0  0  0
   -3.3051  -29.8476  -15.0392 C   0  0  0  0  0  0  0  0  0  0  0  0
   -2.0707  -30.1059  -14.4230 C   0  0  0  0  0  0  0  0  0  0  0  0
   -3.4962  -30.1920  -16.2732 N   0  0  0  0  0  0  0  0  0  0  0  0
   -1.9579  -29.9058  -13.0525 C   0  0  0  0  0  0  0  0  0  0  0  0
   -2.9543  -29.5591  -12.1908 C   0  0  0  0  0  0  0  0  0  0  0  0
   -0.6420  -30.1165  -12.4094 C   0  0  0  0  0  0  0  0  0  0  0  0
   -0.9630  -30.5194  -15.2065 C   0  0  0  0  0  0  0  0  0  0  0  0
   -4.0037  -29.2789  -12.8623 C   0  0  0  0  0  0  0  0  0  0  0  0
    0.3101  -30.6533  -14.7486 C   0  0  0  0  0  0  0  0  0  0  0  0
   -2.4776  -30.5722  -17.0852 C   0  0  0  0  0  0  0  0  0  0  0  0
   -1.2632  -30.7052  -16.5711 C   0  0  0  0  0  0  0  0  0  0  0  0
   -0.1465  -31.1553  -17.5434 C   0  0  0  0  0  0  0  0  0  0  0  0
    1.3471  -30.9700  -15.4230 O   0  0  0  0  0  0  0  0  0  0  0  0
    0.4370  -30.4207  -13.2733 C   0  0  0  0  0  0  0  0  0  0  0  0
  1  2  1  0
  2  3  1  0
  2  4  2  0
  3  5  1  0
  5  6  2  0
  5  7  1  0
  3  8  2  0
  1  9  2  0
  6  9  1  0
  8 10  1  0
  4 11  1  0
  8 12  1  0
 11 12  2  0
 12 13  1  0
 10 14  2  0
  7 15  2  0
 10 15  1  0
M  END
>  <ID>  (1) 
conformer_0

$$$$
