
     RDKit          3D

 14 15  0  0  0  0  0  0  0  0999 V2000
   -3.6021  -29.4444  -12.7984 C   0  0  0  0  0  0  0  0  0  0  0  0
   -3.2262  -29.6285  -14.0240 C   0  0  0  0  0  0  0  0  0  0  0  0
   -4.0482  -29.5568  -15.1628 N   0  0  0  0  0  0  0  0  0  0  0  0
   -3.1511  -29.9904  -16.2061 C   0  0  0  0  0  0  0  0  0  0  0  0
   -1.8968  -30.3696  -16.2411 C   0  0  0  0  0  0  0  0  0  0  0  0
   -4.9293  -29.2994  -12.3936 F   0  0  0  0  0  0  0  0  0  0  0  0
   -1.8859  -30.0602  -14.0630 C   0  0  0  0  0  0  0  0  0  0  0  0
   -1.2166  -30.8189  -17.5022 C   0  0  0  0  0  0  0  0  0  0  0  0
   -2.8448  -29.6352  -11.6307 C   0  0  0  0  0  0  0  0  0  0  0  0
    0.0420  -30.7523  -17.5965 O   0  0  0  0  0  0  0  0  0  0  0  0
   -1.8310  -31.5445  -18.2963 O   0  0  0  0  0  0  0  0  0  0  0  0
   -1.2318  -30.4223  -15.1188 C   0  0  0  0  0  0  0  0  0  0  0  0
   -1.2095  -30.1045  -12.6752 C   0  0  0  0  0  0  0  0  0  0  0  0
   -1.6509  -29.9775  -11.5889 C   0  0  0  0  0  0  0  0  0  0  0  0
  1  2  2  0
  2  3  1  0
  3  4  2  0
  4  5  1  0
  1  6  1  0
  2  7  1  0
  5  8  1  0
  1  9  1  0
  8 10  1  0
  8 11  2  0
  5 12  2  0
  7 12  1  0
  7 13  2  0
  9 14  2  0
 13 14  1  0
M  END
>  <ID>  (1) 
conformer_0

$$$$
