
     RDKit          3D

 19 23  0  0  0  0  0  0  0  0999 V2000
   -3.5610  -29.9461  -16.4067 N   0  0  0  0  0  0  0  0  0  0  0  0
   -2.4465  -30.6641  -16.7931 C   0  0  0  0  0  0  0  0  0  0  0  0
   -1.5021  -30.8215  -15.8576 C   0  0  0  0  0  0  0  0  0  0  0  0
   -2.0728  -30.9351  -18.0476 N   0  0  0  0  0  0  0  0  0  0  0  0
   -2.0489  -30.2262  -14.5123 C   0  0  0  0  0  0  0  0  0  0  0  0
   -0.2457  -31.2464  -15.9721 C   0  0  0  0  0  0  0  0  0  0  0  0
   -3.5901  -29.7700  -15.0309 C   0  0  0  0  0  0  0  0  0  0  0  0
    0.7203  -31.4069  -14.9804 C   0  0  0  0  0  0  0  0  0  0  0  0
    1.9224  -31.8270  -15.3397 C   0  0  0  0  0  0  0  0  0  0  0  0
   -1.7252  -30.1664  -13.2536 C   0  0  0  0  0  0  0  0  0  0  0  0
   -4.3172  -29.2488  -14.1468 N   0  0  0  0  0  0  0  0  0  0  0  0
   -0.4171  -30.5909  -12.7205 C   0  0  0  0  0  0  0  0  0  0  0  0
   -3.7264  -29.2720  -12.8217 C   0  0  0  0  0  0  0  0  0  0  0  0
    0.3997  -30.8795  -13.6758 N   0  0  0  0  0  0  0  0  0  0  0  0
    2.0713  -32.1850  -16.6869 C   0  0  0  0  0  0  0  0  0  0  0  0
   -0.3711  -30.6099  -11.4446 O   0  0  0  0  0  0  0  0  0  0  0  0
   -2.5500  -29.6811  -12.3973 C   0  0  0  0  0  0  0  0  0  0  0  0
    0.3769  -31.6780  -17.2731 C   0  0  0  0  0  0  0  0  0  0  0  0
   -0.7202  -31.4805  -18.2704 C   0  0  0  0  0  0  0  0  0  0  0  0
  1  2  1  0
  2  3  2  0
  2  4  1  0
  3  5  1  0
  3  6  1  0
  1  7  1  0
  5  7  2  0
  6  8  1  0
  8  9  2  0
  5 10  1  0
  7 11  1  0
 10 12  1  0
 11 13  2  0
  8 14  1  0
 12 14  1  0
  9 15  1  0
 12 16  2  0
 10 17  2  0
 13 17  1  0
  6 18  1  0
 15 18  2  0
  4 19  2  0
 18 19  1  0
M  END
>  <ID>  (1) 
conformer_0

$$$$
