
     RDKit          3D

 18 21  0  0  0  0  0  0  0  0999 V2000
   -3.9235  -29.7650  -15.5652 N   0  0  0  0  0  0  0  0  0  0  0  0
   -2.7330  -30.2385  -15.8063 C   0  0  0  0  0  0  0  0  0  0  0  0
   -1.7439  -30.1702  -14.8642 C   0  0  0  0  0  0  0  0  0  0  0  0
   -2.0567  -29.8013  -13.6084 C   0  0  0  0  0  0  0  0  0  0  0  0
   -3.4057  -29.3342  -13.3434 C   0  0  0  0  0  0  0  0  0  0  0  0
   -0.4753  -30.6045  -15.0931 C   0  0  0  0  0  0  0  0  0  0  0  0
   -4.1914  -29.3923  -14.3312 N   0  0  0  0  0  0  0  0  0  0  0  0
   -0.0177  -31.0035  -16.3141 C   0  0  0  0  0  0  0  0  0  0  0  0
    0.6057  -30.7095  -14.0470 C   0  0  0  0  0  0  0  0  0  0  0  0
    0.3585  -30.4294  -12.7210 C   0  0  0  0  0  0  0  0  0  0  0  0
    1.3113  -31.3869  -16.4910 C   0  0  0  0  0  0  0  0  0  0  0  0
   -0.7737  -30.8830  -17.6112 C   0  0  0  0  0  0  0  0  0  0  0  0
    1.0295  -30.5059  -11.7677 O   0  0  0  0  0  0  0  0  0  0  0  0
   -1.0823  -29.8898  -12.5765 N   0  0  0  0  0  0  0  0  0  0  0  0
    1.8699  -31.1999  -14.5027 C   0  0  0  0  0  0  0  0  0  0  0  0
    2.2229  -31.4785  -15.5926 N   0  0  0  0  0  0  0  0  0  0  0  0
   -2.2072  -30.6139  -17.1790 C   0  0  0  0  0  0  0  0  0  0  0  0
   -3.7500  -29.0365  -11.9704 C   0  0  0  0  0  0  0  0  0  0  0  0
  1  2  2  0
  2  3  1  0
  3  4  2  0
  4  5  1  0
  3  6  1  0
  1  7  1  0
  5  7  2  0
  6  8  2  0
  6  9  1  0
  9 10  1  0
  8 11  1  0
  8 12  1  0
 10 13  2  0
  4 14  1  0
 10 14  1  0
  9 15  2  0
 11 16  2  0
 15 16  1  0
  2 17  1  0
 12 17  2  0
  5 18  1  0
M  END
>  <ID>  (1) 
conformer_0

$$$$
