
     RDKit          3D

 13 15  0  0  0  0  0  0  0  0999 V2000
   -3.3791  -29.9587  -16.3617 C   0  0  0  0  0  0  0  0  0  0  0  0
   -3.7445  -29.5316  -15.2125 N   0  0  0  0  0  0  0  0  0  0  0  0
   -3.1076  -29.5121  -14.1349 C   0  0  0  0  0  0  0  0  0  0  0  0
   -2.0226  -30.4742  -16.4522 C   0  0  0  0  0  0  0  0  0  0  0  0
   -1.2979  -30.4903  -15.2630 C   0  0  0  0  0  0  0  0  0  0  0  0
   -1.8379  -29.9932  -14.0931 C   0  0  0  0  0  0  0  0  0  0  0  0
   -1.4674  -30.9999  -17.6336 C   0  0  0  0  0  0  0  0  0  0  0  0
    0.0290  -30.9642  -15.2741 N   0  0  0  0  0  0  0  0  0  0  0  0
   -3.6053  -29.0809  -12.8372 C   0  0  0  0  0  0  0  0  0  0  0  0
   -1.4067  -29.9569  -12.6898 C   0  0  0  0  0  0  0  0  0  0  0  0
   -2.4990  -29.5101  -11.9657 C   0  0  0  0  0  0  0  0  0  0  0  0
   -0.1657  -31.4160  -17.6311 C   0  0  0  0  0  0  0  0  0  0  0  0
    0.5566  -31.3335  -16.4316 C   0  0  0  0  0  0  0  0  0  0  0  0
  1  2  2  0
  2  3  1  0
  1  4  1  0
  4  5  2  0
  3  6  2  0
  5  6  1  0
  4  7  1  0
  5  8  1  0
  3  9  1  0
  6 10  1  0
  9 11  2  0
 10 11  2  0
  7 12  2  0
  8 13  2  0
 12 13  1  0
M  END
>  <ID>  (1) 
conformer_0

$$$$
