
     RDKit          3D

 19 21  0  0  0  0  0  0  0  0999 V2000
   -3.9156  -29.5002  -13.2267 C   0  0  0  0  0  0  0  0  0  0  0  0
   -3.4210  -29.6824  -14.4249 C   0  0  0  0  0  0  0  0  0  0  0  0
   -3.1011  -29.6886  -12.0314 C   0  0  0  0  0  0  0  0  0  0  0  0
   -1.9848  -29.9393  -14.4813 C   0  0  0  0  0  0  0  0  0  0  0  0
   -1.3682  -30.1069  -15.7982 C   0  0  0  0  0  0  0  0  0  0  0  0
   -1.2396  -30.0806  -13.4752 C   0  0  0  0  0  0  0  0  0  0  0  0
   -3.6768  -29.5704  -10.6863 C   0  0  0  0  0  0  0  0  0  0  0  0
   -4.2277  -29.5430  -15.4139 O   0  0  0  0  0  0  0  0  0  0  0  0
   -0.1791  -30.6204  -15.7520 N   0  0  0  0  0  0  0  0  0  0  0  0
    0.4458  -31.0385  -16.9038 C   0  0  0  0  0  0  0  0  0  0  0  0
   -1.9567  -29.6906  -16.9901 C   0  0  0  0  0  0  0  0  0  0  0  0
   -2.8154  -29.6932   -9.7231 C   0  0  0  0  0  0  0  0  0  0  0  0
   -5.0008  -29.5902  -10.3551 C   0  0  0  0  0  0  0  0  0  0  0  0
   -1.8412  -29.8144  -12.2888 C   0  0  0  0  0  0  0  0  0  0  0  0
   -1.3324  -30.1764  -18.1287 C   0  0  0  0  0  0  0  0  0  0  0  0
   -5.0316  -29.4371   -8.9697 C   0  0  0  0  0  0  0  0  0  0  0  0
    1.7119  -31.6142  -16.8208 N   0  0  0  0  0  0  0  0  0  0  0  0
   -0.0642  -30.7324  -18.1096 C   0  0  0  0  0  0  0  0  0  0  0  0
   -3.7298  -29.4650   -8.1950 S   0  0  0  0  0  0  0  0  0  0  0  0
  1  2  1  0
  1  3  2  0
  2  4  2  0
  4  5  1  0
  4  6  1  0
  3  7  1  0
  2  8  1  0
  5  9  2  0
  9 10  1  0
  5 11  1  0
  7 12  2  0
  7 13  1  0
  3 14  1  0
  6 14  2  0
 11 15  2  0
 13 16  2  0
 10 17  1  0
 10 18  2  0
 15 18  1  0
 12 19  1  0
 16 19  1  0
M  END
>  <ID>  (1) 
conformer_0

$$$$
