
     RDKit          3D

 22 24  0  0  0  0  0  0  0  0999 V2000
   -3.9156  -29.5002  -13.2267 C   0  0  0  0  0  0  0  0  0  0  0  0
   -3.4210  -29.6824  -14.4249 C   0  0  0  0  0  0  0  0  0  0  0  0
   -3.1011  -29.6886  -12.0314 C   0  0  0  0  0  0  0  0  0  0  0  0
   -1.9848  -29.9393  -14.4813 C   0  0  0  0  0  0  0  0  0  0  0  0
   -1.3682  -30.1069  -15.7982 C   0  0  0  0  0  0  0  0  0  0  0  0
   -1.2396  -30.0806  -13.4752 C   0  0  0  0  0  0  0  0  0  0  0  0
   -3.6768  -29.5704  -10.6863 C   0  0  0  0  0  0  0  0  0  0  0  0
   -4.2277  -29.5430  -15.4139 O   0  0  0  0  0  0  0  0  0  0  0  0
   -4.9453  -29.3458  -10.4042 N   0  0  0  0  0  0  0  0  0  0  0  0
   -0.1957  -30.6439  -15.7767 N   0  0  0  0  0  0  0  0  0  0  0  0
    0.1485  -30.4697  -13.6785 C   0  0  0  0  0  0  0  0  0  0  0  0
    0.9709  -30.6423  -12.4708 C   0  0  0  0  0  0  0  0  0  0  0  0
    0.5982  -30.7553  -14.8376 C   0  0  0  0  0  0  0  0  0  0  0  0
   -2.9541  -29.4026   -9.6272 C   0  0  0  0  0  0  0  0  0  0  0  0
   -2.1808  -30.0810  -17.0521 C   0  0  0  0  0  0  0  0  0  0  0  0
   -5.0833  -29.2006   -9.0950 C   0  0  0  0  0  0  0  0  0  0  0  0
   -3.8974  -29.2323   -8.3945 N   0  0  0  0  0  0  0  0  0  0  0  0
   -1.3536  -30.6801  -18.1029 C   0  0  0  0  0  0  0  0  0  0  0  0
   -3.6482  -29.1450   -7.0827 C   0  0  0  0  0  0  0  0  0  0  0  0
    1.8706  -31.0686  -15.0781 O   0  0  0  0  0  0  0  0  0  0  0  0
   -1.7714  -29.9135  -12.1460 C   0  0  0  0  0  0  0  0  0  0  0  0
   -4.2755  -30.1124   -6.3311 C   0  0  0  0  0  0  0  0  0  0  0  0
  1  2  1  0
  1  3  2  0
  2  4  2  0
  4  5  1  0
  4  6  1  0
  3  7  1  0
  2  8  1  0
  7  9  1  0
  5 10  2  0
  6 11  1  0
 11 12  2  0
 10 13  1  0
 11 13  1  0
  7 14  2  0
  5 15  1  0
  9 16  2  0
 14 17  1  0
 16 17  1  0
 15 18  1  0
 17 19  1  0
 13 20  2  0
  3 21  1  0
  6 21  2  0
 19 22  1  0
M  END
>  <ID>  (1) 
conformer_0

$$$$
