
     RDKit          3D

 20 23  0  0  0  0  0  0  0  0999 V2000
   -4.0526  -29.5206  -14.5809 N   0  0  0  0  0  0  0  0  0  0  0  0
   -3.0272  -29.9317  -15.3016 C   0  0  0  0  0  0  0  0  0  0  0  0
   -3.8634  -29.3747  -13.2941 C   0  0  0  0  0  0  0  0  0  0  0  0
   -1.7262  -30.1522  -14.8601 C   0  0  0  0  0  0  0  0  0  0  0  0
   -2.5074  -29.8275  -12.7790 C   0  0  0  0  0  0  0  0  0  0  0  0
   -2.2510  -29.8018  -11.3099 C   0  0  0  0  0  0  0  0  0  0  0  0
   -1.5391  -30.0484  -13.6572 C   0  0  0  0  0  0  0  0  0  0  0  0
   -3.1900  -29.5362  -10.3536 C   0  0  0  0  0  0  0  0  0  0  0  0
   -1.0164  -29.9974  -11.0064 C   0  0  0  0  0  0  0  0  0  0  0  0
   -4.5099  -29.1583  -10.4707 C   0  0  0  0  0  0  0  0  0  0  0  0
   -3.2961  -30.0606  -16.6618 N   0  0  0  0  0  0  0  0  0  0  0  0
   -2.5781  -29.8758   -9.0791 C   0  0  0  0  0  0  0  0  0  0  0  0
   -0.7552  -30.5351  -15.8418 C   0  0  0  0  0  0  0  0  0  0  0  0
    0.5692  -30.7276  -15.3363 C   0  0  0  0  0  0  0  0  0  0  0  0
   -2.2932  -30.4835  -17.5201 C   0  0  0  0  0  0  0  0  0  0  0  0
   -5.3218  -29.0015   -9.3422 C   0  0  0  0  0  0  0  0  0  0  0  0
   -1.2200  -30.2377   -9.3664 N   0  0  0  0  0  0  0  0  0  0  0  0
   -1.0569  -30.6980  -17.1206 C   0  0  0  0  0  0  0  0  0  0  0  0
   -3.2689  -29.7968   -8.0045 C   0  0  0  0  0  0  0  0  0  0  0  0
   -4.5971  -29.4276   -8.0289 C   0  0  0  0  0  0  0  0  0  0  0  0
  1  2  1  0
  1  3  2  0
  2  4  1  0
  3  5  1  0
  5  6  1  0
  4  7  1  0
  5  7  2  0
  6  8  1  0
  6  9  2  0
  8 10  1  0
  2 11  2  0
  8 12  2  0
  4 13  2  0
 13 14  1  0
 11 15  1  0
 10 16  2  0
  9 17  1  0
 12 17  1  0
 13 18  1  0
 15 18  2  0
 12 19  1  0
 16 20  1  0
 19 20  2  0
M  END
>  <ID>  (1) 
conformer_0

$$$$
