
     RDKit          3D

 13 15  0  0  0  0  0  0  0  0999 V2000
   -4.0432  -29.5437  -15.3959 N   0  0  0  0  0  0  0  0  0  0  0  0
   -3.1796  -30.2345  -16.2583 C   0  0  0  0  0  0  0  0  0  0  0  0
   -3.3149  -29.5092  -14.2064 C   0  0  0  0  0  0  0  0  0  0  0  0
   -3.3249  -30.5750  -17.6211 N   0  0  0  0  0  0  0  0  0  0  0  0
   -1.7887  -30.7027  -15.8836 C   0  0  0  0  0  0  0  0  0  0  0  0
   -1.6149  -30.2784  -14.4932 C   0  0  0  0  0  0  0  0  0  0  0  0
   -2.3493  -29.7687  -13.6687 N   0  0  0  0  0  0  0  0  0  0  0  0
   -2.0552  -29.5847  -12.3721 C   0  0  0  0  0  0  0  0  0  0  0  0
   -0.4724  -30.6952  -13.6955 N   0  0  0  0  0  0  0  0  0  0  0  0
   -2.4040  -31.1533  -18.2252 C   0  0  0  0  0  0  0  0  0  0  0  0
   -0.9700  -31.1861  -16.8090 C   0  0  0  0  0  0  0  0  0  0  0  0
   -0.6897  -30.2618  -12.4483 C   0  0  0  0  0  0  0  0  0  0  0  0
   -1.2573  -31.3403  -17.8981 C   0  0  0  0  0  0  0  0  0  0  0  0
  1  2  1  0
  1  3  2  0
  2  4  2  0
  2  5  1  0
  5  6  1  0
  3  7  1  0
  6  7  1  0
  7  8  1  0
  6  9  2  0
  4 10  1  0
  5 11  1  0
  8 12  2  0
  9 12  1  0
 10 13  1  0
 11 13  2  0
M  END
>  <ID>  (1) 
conformer_0

$$$$
