
     RDKit          3D

 11 12  0  0  0  0  0  0  0  0999 V2000
   -3.8907  -29.4874  -15.3742 N   0  0  0  0  0  0  0  0  0  0  0  0
   -2.7523  -30.0942  -15.5990 C   0  0  0  0  0  0  0  0  0  0  0  0
   -1.7123  -30.1364  -14.6546 C   0  0  0  0  0  0  0  0  0  0  0  0
   -0.4948  -30.6974  -14.8365 C   0  0  0  0  0  0  0  0  0  0  0  0
   -4.0401  -29.0262  -14.2349 C   0  0  0  0  0  0  0  0  0  0  0  0
   -3.2141  -29.1783  -13.1784 C   0  0  0  0  0  0  0  0  0  0  0  0
   -2.3579  -30.6940  -16.9380 C   0  0  0  0  0  0  0  0  0  0  0  0
   -0.1231  -31.2827  -16.0478 C   0  0  0  0  0  0  0  0  0  0  0  0
   -2.0225  -29.8474  -13.2694 C   0  0  0  0  0  0  0  0  0  0  0  0
   -1.1658  -31.2314  -17.1382 C   0  0  0  0  0  0  0  0  0  0  0  0
   -1.1734  -29.8953  -12.2658 C   0  0  0  0  0  0  0  0  0  0  0  0
  1  2  1  0
  2  3  2  0
  3  4  1  0
  1  5  2  0
  5  6  1  0
  2  7  1  0
  4  8  2  0
  3  9  1  0
  6  9  2  0
  7 10  2  0
  8 10  1  0
  9 11  1  0
M  END
>  <ID>  (1) 
conformer_0

$$$$
