
     RDKit          3D

 14 16  0  0  0  0  0  0  0  0999 V2000
   -3.8907  -29.4874  -15.3742 N   0  0  0  0  0  0  0  0  0  0  0  0
   -2.7523  -30.0942  -15.5990 C   0  0  0  0  0  0  0  0  0  0  0  0
   -3.9022  -29.0337  -14.1713 C   0  0  0  0  0  0  0  0  0  0  0  0
   -1.6584  -30.3507  -14.8375 C   0  0  0  0  0  0  0  0  0  0  0  0
   -1.9490  -29.8342  -13.5653 C   0  0  0  0  0  0  0  0  0  0  0  0
   -3.0942  -29.2923  -13.1551 C   0  0  0  0  0  0  0  0  0  0  0  0
   -2.2903  -30.6372  -16.9860 N   0  0  0  0  0  0  0  0  0  0  0  0
   -0.8693  -30.0523  -12.6154 N   0  0  0  0  0  0  0  0  0  0  0  0
   -0.4922  -30.9862  -15.2268 C   0  0  0  0  0  0  0  0  0  0  0  0
   -1.3191  -31.1622  -17.4264 C   0  0  0  0  0  0  0  0  0  0  0  0
    0.6224  -31.1964  -14.3409 N   0  0  0  0  0  0  0  0  0  0  0  0
    0.3273  -30.7283  -12.9851 C   0  0  0  0  0  0  0  0  0  0  0  0
   -0.2689  -31.3594  -16.5021 C   0  0  0  0  0  0  0  0  0  0  0  0
    1.2740  -30.7979  -12.1597 O   0  0  0  0  0  0  0  0  0  0  0  0
  1  2  2  0
  1  3  1  0
  2  4  1  0
  4  5  2  0
  3  6  2  0
  5  6  1  0
  2  7  1  0
  5  8  1  0
  4  9  1  0
  7 10  2  0
  9 11  1  0
  8 12  1  0
 11 12  1  0
  9 13  2  0
 10 13  1  0
 12 14  2  0
M  END
>  <ID>  (1) 
conformer_0

$$$$
