
     RDKit          3D

 14 15  0  0  0  0  0  0  0  0999 V2000
   -3.5610  -29.9461  -16.4067 N   0  0  0  0  0  0  0  0  0  0  0  0
   -3.8023  -29.4914  -15.2233 C   0  0  0  0  0  0  0  0  0  0  0  0
   -2.4229  -30.6124  -16.8232 C   0  0  0  0  0  0  0  0  0  0  0  0
   -2.2224  -31.0931  -18.0196 N   0  0  0  0  0  0  0  0  0  0  0  0
   -1.3951  -30.7339  -15.7476 C   0  0  0  0  0  0  0  0  0  0  0  0
   -2.8646  -29.6044  -14.2130 C   0  0  0  0  0  0  0  0  0  0  0  0
   -1.6161  -30.2887  -14.4990 C   0  0  0  0  0  0  0  0  0  0  0  0
   -0.2102  -31.4708  -16.1928 C   0  0  0  0  0  0  0  0  0  0  0  0
   -3.1835  -29.3211  -12.8799 C   0  0  0  0  0  0  0  0  0  0  0  0
    0.7890  -31.2132  -15.7732 O   0  0  0  0  0  0  0  0  0  0  0  0
   -2.2600  -29.6792  -11.8439 C   0  0  0  0  0  0  0  0  0  0  0  0
   -0.8411  -30.4084  -13.3450 C   0  0  0  0  0  0  0  0  0  0  0  0
    0.5862  -30.9133  -13.6246 O   0  0  0  0  0  0  0  0  0  0  0  0
   -1.0700  -30.1099  -12.0131 C   0  0  0  0  0  0  0  0  0  0  0  0
  1  2  1  0
  1  3  2  0
  3  4  1  0
  3  5  1  0
  2  6  2  0
  5  7  2  0
  6  7  1  0
  5  8  1  0
  6  9  1  0
  8 10  2  0
  9 11  2  0
  7 12  1  0
 12 13  1  0
 11 14  1  0
 12 14  2  0
M  END
>  <ID>  (1) 
conformer_0

$$$$
