
     RDKit          3D

 22 25  0  0  0  0  0  0  0  0999 V2000
   -3.9156  -29.5002  -13.2267 C   0  0  0  0  0  0  0  0  0  0  0  0
   -3.4210  -29.6824  -14.4249 C   0  0  0  0  0  0  0  0  0  0  0  0
   -3.1011  -29.6886  -12.0314 C   0  0  0  0  0  0  0  0  0  0  0  0
   -1.9848  -29.9393  -14.4813 C   0  0  0  0  0  0  0  0  0  0  0  0
   -1.3682  -30.1069  -15.7982 C   0  0  0  0  0  0  0  0  0  0  0  0
   -1.2396  -30.0806  -13.4752 C   0  0  0  0  0  0  0  0  0  0  0  0
   -3.6768  -29.5704  -10.6863 C   0  0  0  0  0  0  0  0  0  0  0  0
   -4.2277  -29.5430  -15.4139 O   0  0  0  0  0  0  0  0  0  0  0  0
   -4.9453  -29.3458  -10.4042 N   0  0  0  0  0  0  0  0  0  0  0  0
   -0.1957  -30.6439  -15.7767 N   0  0  0  0  0  0  0  0  0  0  0  0
    0.1485  -30.4697  -13.6785 C   0  0  0  0  0  0  0  0  0  0  0  0
    0.9709  -30.6423  -12.4708 C   0  0  0  0  0  0  0  0  0  0  0  0
   -1.8119  -29.9290  -12.2744 C   0  0  0  0  0  0  0  0  0  0  0  0
   -5.3729  -29.2405   -9.1329 C   0  0  0  0  0  0  0  0  0  0  0  0
   -4.2568  -29.5831   -8.3494 N   0  0  0  0  0  0  0  0  0  0  0  0
    0.5640  -30.7787  -14.7339 N   0  0  0  0  0  0  0  0  0  0  0  0
    1.8920  -31.1675  -14.9053 C   0  0  0  0  0  0  0  0  0  0  0  0
    2.5568  -31.3380  -13.7838 C   0  0  0  0  0  0  0  0  0  0  0  0
   -2.0835  -29.8777  -17.1025 C   0  0  0  0  0  0  0  0  0  0  0  0
   -3.2292  -29.7796   -9.3473 C   0  0  0  0  0  0  0  0  0  0  0  0
   -4.1785  -29.7462   -7.0094 C   0  0  0  0  0  0  0  0  0  0  0  0
    2.0623  -31.1496  -12.6756 C   0  0  0  0  0  0  0  0  0  0  0  0
  1  2  1  0
  1  3  2  0
  2  4  2  0
  4  5  1  0
  4  6  1  0
  3  7  1  0
  2  8  1  0
  7  9  1  0
  5 10  2  0
  6 11  1  0
 11 12  2  0
  3 13  1  0
  6 13  2  0
  9 14  2  0
 14 15  1  0
 10 16  1  0
 11 16  1  0
 16 17  1  0
 17 18  1  0
  5 19  1  0
  7 20  2  0
 15 20  1  0
 15 21  1  0
 12 22  1  0
 18 22  2  0
M  END
>  <ID>  (1) 
conformer_0

$$$$
