
     RDKit          3D

 12 13  0  0  0  0  0  0  0  0999 V2000
   -4.0526  -29.5206  -14.5809 N   0  0  0  0  0  0  0  0  0  0  0  0
   -3.0272  -29.9317  -15.3016 C   0  0  0  0  0  0  0  0  0  0  0  0
   -3.0182  -30.2053  -16.6716 N   0  0  0  0  0  0  0  0  0  0  0  0
   -1.7333  -30.1447  -14.6415 C   0  0  0  0  0  0  0  0  0  0  0  0
   -1.8121  -29.7317  -13.3329 C   0  0  0  0  0  0  0  0  0  0  0  0
   -0.6904  -30.5394  -15.2899 C   0  0  0  0  0  0  0  0  0  0  0  0
   -1.9123  -30.7029  -17.2845 C   0  0  0  0  0  0  0  0  0  0  0  0
   -1.9238  -30.9578  -18.6609 N   0  0  0  0  0  0  0  0  0  0  0  0
   -2.9966  -29.3955  -12.6253 C   0  0  0  0  0  0  0  0  0  0  0  0
   -3.9652  -29.3512  -13.2769 C   0  0  0  0  0  0  0  0  0  0  0  0
   -0.7945  -30.8535  -16.6440 N   0  0  0  0  0  0  0  0  0  0  0  0
    0.5504  -30.8134  -14.6982 N   0  0  0  0  0  0  0  0  0  0  0  0
  1  2  2  0
  2  3  1  0
  2  4  1  0
  4  5  1  0
  4  6  2  0
  3  7  2  0
  7  8  1  0
  5  9  1  0
  1 10  1  0
  9 10  2  0
  6 11  1  0
  7 11  1  0
  6 12  1  0
M  END
>  <ID>  (1) 
conformer_0

$$$$
