
     RDKit          3D

 11 12  0  0  0  0  0  0  0  0999 V2000
   -2.4868  -31.0030  -17.4469 N   0  0  0  0  0  0  0  0  0  0  0  0
   -2.6396  -30.4518  -16.2660 C   0  0  0  0  0  0  0  0  0  0  0  0
   -1.5535  -30.4070  -15.4742 C   0  0  0  0  0  0  0  0  0  0  0  0
   -0.4188  -30.9850  -15.9928 C   0  0  0  0  0  0  0  0  0  0  0  0
   -3.8792  -29.8653  -15.7913 N   0  0  0  0  0  0  0  0  0  0  0  0
   -3.9665  -29.3806  -14.6525 C   0  0  0  0  0  0  0  0  0  0  0  0
   -1.6964  -29.8844  -14.1507 C   0  0  0  0  0  0  0  0  0  0  0  0
   -0.5847  -29.8679  -13.2643 N   0  0  0  0  0  0  0  0  0  0  0  0
    0.8185  -30.9868  -15.3328 O   0  0  0  0  0  0  0  0  0  0  0  0
   -2.8295  -29.3969  -13.7068 N   0  0  0  0  0  0  0  0  0  0  0  0
   -0.6152  -31.4749  -17.4067 C   0  0  0  0  0  0  0  0  0  0  0  0
  1  2  1  0
  2  3  2  0
  3  4  1  0
  2  5  1  0
  5  6  2  0
  3  7  1  0
  7  8  1  0
  4  9  2  0
  6 10  1  0
  7 10  2  0
  1 11  1  0
  4 11  1  0
M  END
>  <ID>  (1) 
conformer_0

$$$$
