
     RDKit          3D

 13 15  0  0  0  0  0  0  0  0999 V2000
   -3.6981  -29.7729  -15.5635 N   0  0  0  0  0  0  0  0  0  0  0  0
   -2.5776  -30.2781  -15.8952 C   0  0  0  0  0  0  0  0  0  0  0  0
   -1.6824  -30.2401  -14.8797 C   0  0  0  0  0  0  0  0  0  0  0  0
   -4.0541  -29.4020  -14.4348 N   0  0  0  0  0  0  0  0  0  0  0  0
   -2.7638  -29.6202  -13.7066 C   0  0  0  0  0  0  0  0  0  0  0  0
   -2.2852  -29.5435  -12.4155 N   0  0  0  0  0  0  0  0  0  0  0  0
   -0.4990  -30.7180  -14.4674 C   0  0  0  0  0  0  0  0  0  0  0  0
   -1.0369  -29.9497  -12.1509 C   0  0  0  0  0  0  0  0  0  0  0  0
    0.3871  -31.1495  -15.3801 C   0  0  0  0  0  0  0  0  0  0  0  0
   -2.0788  -30.7570  -17.2163 C   0  0  0  0  0  0  0  0  0  0  0  0
   -0.0152  -31.2818  -16.7536 C   0  0  0  0  0  0  0  0  0  0  0  0
   -0.0597  -30.4671  -13.0437 C   0  0  0  0  0  0  0  0  0  0  0  0
   -0.9244  -31.1877  -17.5205 C   0  0  0  0  0  0  0  0  0  0  0  0
  1  2  2  0
  2  3  1  0
  1  4  1  0
  3  5  1  0
  4  5  2  0
  5  6  1  0
  3  7  1  0
  6  8  2  0
  7  9  1  0
  2 10  1  0
  9 11  2  0
  7 12  2  0
  8 12  1  0
 10 13  2  0
 11 13  1  0
M  END
>  <ID>  (1) 
conformer_0

$$$$
