
     RDKit          3D

 10 11  0  0  0  0  0  0  0  0999 V2000
   -3.9235  -29.7650  -15.5652 N   0  0  0  0  0  0  0  0  0  0  0  0
   -2.7330  -30.2385  -15.8063 C   0  0  0  0  0  0  0  0  0  0  0  0
   -1.7439  -30.1702  -14.8642 C   0  0  0  0  0  0  0  0  0  0  0  0
   -2.5118  -29.6544  -13.7549 C   0  0  0  0  0  0  0  0  0  0  0  0
   -0.5092  -30.6004  -14.8040 C   0  0  0  0  0  0  0  0  0  0  0  0
   -2.3537  -30.7462  -17.2326 N   0  0  0  0  0  0  0  0  0  0  0  0
   -0.0598  -30.2751  -13.3564 C   0  0  0  0  0  0  0  0  0  0  0  0
   -1.9542  -29.6511  -12.5181 C   0  0  0  0  0  0  0  0  0  0  0  0
   -0.7669  -29.9584  -12.3692 C   0  0  0  0  0  0  0  0  0  0  0  0
   -3.8270  -29.4210  -14.2422 C   0  0  0  0  0  0  0  0  0  0  0  0
  1  2  2  0
  2  3  1  0
  3  4  1  0
  3  5  2  0
  2  6  1  0
  5  7  1  0
  4  8  2  0
  7  9  2  0
  8  9  1  0
  1 10  1  0
  4 10  1  0
M  END
>  <ID>  (1) 
conformer_0

$$$$
