
     RDKit          3D

 11 12  0  0  0  0  0  0  0  0999 V2000
   -3.8907  -29.4874  -15.3742 N   0  0  0  0  0  0  0  0  0  0  0  0
   -2.7523  -30.0942  -15.5990 C   0  0  0  0  0  0  0  0  0  0  0  0
   -1.7123  -30.1364  -14.6546 C   0  0  0  0  0  0  0  0  0  0  0  0
   -0.4948  -30.6974  -14.8365 C   0  0  0  0  0  0  0  0  0  0  0  0
   -4.0401  -29.0262  -14.2349 C   0  0  0  0  0  0  0  0  0  0  0  0
   -3.2141  -29.1783  -13.1784 C   0  0  0  0  0  0  0  0  0  0  0  0
   -1.9747  -29.7977  -13.4026 C   0  0  0  0  0  0  0  0  0  0  0  0
   -0.1138  -31.1699  -16.1192 C   0  0  0  0  0  0  0  0  0  0  0  0
   -2.3425  -30.5847  -16.9902 C   0  0  0  0  0  0  0  0  0  0  0  0
   -1.1221  -29.8372  -12.3054 N   0  0  0  0  0  0  0  0  0  0  0  0
   -1.1282  -31.0674  -17.2021 C   0  0  0  0  0  0  0  0  0  0  0  0
  1  2  1  0
  2  3  2  0
  3  4  1  0
  1  5  2  0
  5  6  1  0
  3  7  1  0
  6  7  2  0
  4  8  2  0
  2  9  1  0
  7 10  1  0
  8 11  1  0
  9 11  2  0
M  END
>  <ID>  (1) 
conformer_0

$$$$
