
     RDKit          3D

 17 19  0  0  0  0  0  0  0  0999 V2000
   -4.0526  -29.5206  -14.5809 N   0  0  0  0  0  0  0  0  0  0  0  0
   -3.0272  -29.9317  -15.3016 C   0  0  0  0  0  0  0  0  0  0  0  0
   -3.8634  -29.3747  -13.2941 C   0  0  0  0  0  0  0  0  0  0  0  0
   -1.7262  -30.1522  -14.8601 C   0  0  0  0  0  0  0  0  0  0  0  0
   -4.7836  -29.0795  -12.4092 N   0  0  0  0  0  0  0  0  0  0  0  0
   -2.5709  -29.7092  -12.7323 C   0  0  0  0  0  0  0  0  0  0  0  0
   -1.5174  -30.0936  -13.5411 C   0  0  0  0  0  0  0  0  0  0  0  0
   -2.2986  -29.6228  -11.3525 C   0  0  0  0  0  0  0  0  0  0  0  0
   -0.3578  -30.2760  -12.7769 C   0  0  0  0  0  0  0  0  0  0  0  0
    0.8832  -30.6859  -13.4603 C   0  0  0  0  0  0  0  0  0  0  0  0
   -3.2151  -30.0787  -16.5576 N   0  0  0  0  0  0  0  0  0  0  0  0
    0.8762  -31.0951  -14.6259 O   0  0  0  0  0  0  0  0  0  0  0  0
    1.8617  -30.9373  -12.5934 O   0  0  0  0  0  0  0  0  0  0  0  0
   -0.6459  -30.1480  -11.3664 C   0  0  0  0  0  0  0  0  0  0  0  0
   -1.9444  -30.5148  -17.0728 C   0  0  0  0  0  0  0  0  0  0  0  0
   -1.0872  -30.5639  -16.0352 N   0  0  0  0  0  0  0  0  0  0  0  0
   -1.5315  -30.8683  -18.3546 C   0  0  0  0  0  0  0  0  0  0  0  0
  1  2  1  0
  1  3  2  0
  2  4  1  0
  3  5  1  0
  3  6  1  0
  4  7  2  0
  6  7  1  0
  6  8  2  0
  7  9  1  0
  9 10  1  0
  2 11  2  0
 10 12  2  0
 10 13  1  0
  8 14  1  0
  9 14  2  0
 11 15  1  0
  4 16  1  0
 15 16  2  0
 15 17  1  0
M  END
>  <ID>  (1) 
conformer_0

$$$$
