
     RDKit          3D

 13 14  0  0  0  0  0  0  0  0999 V2000
   -4.2102  -29.5664  -14.1824 N   0  0  0  0  0  0  0  0  0  0  0  0
   -3.3051  -29.8476  -15.0392 C   0  0  0  0  0  0  0  0  0  0  0  0
   -2.0707  -30.1059  -14.4230 C   0  0  0  0  0  0  0  0  0  0  0  0
   -3.9117  -29.3601  -12.8132 C   0  0  0  0  0  0  0  0  0  0  0  0
   -3.4714  -30.0423  -16.2653 N   0  0  0  0  0  0  0  0  0  0  0  0
   -1.0996  -30.6090  -15.3916 C   0  0  0  0  0  0  0  0  0  0  0  0
   -2.7024  -29.6834  -12.2834 C   0  0  0  0  0  0  0  0  0  0  0  0
   -1.6698  -30.1241  -13.0753 C   0  0  0  0  0  0  0  0  0  0  0  0
   -0.4370  -30.3925  -12.5747 C   0  0  0  0  0  0  0  0  0  0  0  0
   -2.1078  -30.5401  -16.8298 C   0  0  0  0  0  0  0  0  0  0  0  0
   -0.3543  -31.1260  -11.5436 O   0  0  0  0  0  0  0  0  0  0  0  0
   -1.7323  -30.6296  -17.8147 O   0  0  0  0  0  0  0  0  0  0  0  0
    0.7417  -30.2646  -13.3115 O   0  0  0  0  0  0  0  0  0  0  0  0
  1  2  1  0
  2  3  1  0
  1  4  2  0
  2  5  2  0
  3  6  2  0
  4  7  1  0
  3  8  1  0
  7  8  2  0
  8  9  1  0
  5 10  1  0
  6 10  1  0
  9 11  1  0
 10 12  2  0
  9 13  2  0
M  END
>  <ID>  (1) 
conformer_0

$$$$
