
     RDKit          3D

 23 27  0  0  0  0  0  0  0  0999 V2000
   -4.0526  -29.5206  -14.5809 N   0  0  0  0  0  0  0  0  0  0  0  0
   -3.0272  -29.9317  -15.3016 C   0  0  0  0  0  0  0  0  0  0  0  0
   -3.8634  -29.3747  -13.2941 C   0  0  0  0  0  0  0  0  0  0  0  0
   -1.7262  -30.1522  -14.8601 C   0  0  0  0  0  0  0  0  0  0  0  0
   -2.5074  -29.8275  -12.7790 C   0  0  0  0  0  0  0  0  0  0  0  0
   -2.2510  -29.8018  -11.3099 C   0  0  0  0  0  0  0  0  0  0  0  0
   -1.5391  -30.0484  -13.6572 C   0  0  0  0  0  0  0  0  0  0  0  0
   -3.1900  -29.5362  -10.3536 C   0  0  0  0  0  0  0  0  0  0  0  0
   -1.0164  -29.9974  -11.0064 C   0  0  0  0  0  0  0  0  0  0  0  0
   -4.5099  -29.1583  -10.4707 C   0  0  0  0  0  0  0  0  0  0  0  0
   -3.2961  -30.0606  -16.6618 N   0  0  0  0  0  0  0  0  0  0  0  0
   -2.5781  -29.8758   -9.0791 C   0  0  0  0  0  0  0  0  0  0  0  0
   -0.7552  -30.5351  -15.8418 C   0  0  0  0  0  0  0  0  0  0  0  0
    0.5692  -30.7276  -15.3363 C   0  0  0  0  0  0  0  0  0  0  0  0
   -2.2932  -30.4835  -17.5201 C   0  0  0  0  0  0  0  0  0  0  0  0
   -1.4218  -30.1475   -8.7793 C   0  0  0  0  0  0  0  0  0  0  0  0
    0.0203  -30.2913  -12.1569 C   0  0  0  0  0  0  0  0  0  0  0  0
   -0.9479  -30.4119   -7.4325 O   0  0  0  0  0  0  0  0  0  0  0  0
   -0.3685  -30.2176  -13.2839 C   0  0  0  0  0  0  0  0  0  0  0  0
   -0.4354  -30.4388   -9.7669 C   0  0  0  0  0  0  0  0  0  0  0  0
   -1.0046  -30.7410  -17.1296 C   0  0  0  0  0  0  0  0  0  0  0  0
    0.0872  -29.9164   -6.9791 C   0  0  0  0  0  0  0  0  0  0  0  0
    0.7704  -30.5418  -14.0765 C   0  0  0  0  0  0  0  0  0  0  0  0
  1  2  1  0
  1  3  2  0
  2  4  1  0
  3  5  1  0
  5  6  1  0
  4  7  1  0
  5  7  2  0
  6  8  1  0
  6  9  2  0
  8 10  1  0
  2 11  2  0
  8 12  2  0
  4 13  2  0
 13 14  1  0
 11 15  1  0
 12 16  1  0
  9 17  1  0
 16 18  1  0
  7 19  1  0
 17 19  2  0
  9 20  1  0
 16 20  2  0
 13 21  1  0
 15 21  2  0
 18 22  1  0
 14 23  2  0
 19 23  1  0
M  END
>  <ID>  (1) 
conformer_0

$$$$
