
     RDKit          3D

 11 12  0  0  0  0  0  0  0  0999 V2000
   -3.8907  -29.4874  -15.3742 N   0  0  0  0  0  0  0  0  0  0  0  0
   -2.7523  -30.0942  -15.5990 C   0  0  0  0  0  0  0  0  0  0  0  0
   -1.7123  -30.1364  -14.6546 C   0  0  0  0  0  0  0  0  0  0  0  0
   -0.4948  -30.6974  -14.8365 C   0  0  0  0  0  0  0  0  0  0  0  0
   -4.0401  -29.0262  -14.2349 C   0  0  0  0  0  0  0  0  0  0  0  0
   -3.2141  -29.1783  -13.1784 C   0  0  0  0  0  0  0  0  0  0  0  0
   -1.9747  -29.7977  -13.4026 C   0  0  0  0  0  0  0  0  0  0  0  0
   -2.3851  -30.7403  -16.9183 N   0  0  0  0  0  0  0  0  0  0  0  0
   -0.8771  -29.9727  -12.5839 C   0  0  0  0  0  0  0  0  0  0  0  0
    0.1541  -30.6158  -13.5215 C   0  0  0  0  0  0  0  0  0  0  0  0
   -1.3446  -30.3578  -17.6706 C   0  0  0  0  0  0  0  0  0  0  0  0
  1  2  1  0
  2  3  2  0
  3  4  1  0
  1  5  2  0
  5  6  1  0
  3  7  1  0
  6  7  2  0
  2  8  1  0
  7  9  1  0
  4 10  2  0
  9 10  2  0
  8 11  1  0
M  END
>  <ID>  (1) 
conformer_0

$$$$
