
     RDKit          3D

 16 18  0  0  0  0  0  0  0  0999 V2000
   -4.0526  -29.5206  -14.5809 N   0  0  0  0  0  0  0  0  0  0  0  0
   -3.0272  -29.9317  -15.3016 C   0  0  0  0  0  0  0  0  0  0  0  0
   -3.8634  -29.3747  -13.2941 C   0  0  0  0  0  0  0  0  0  0  0  0
   -1.7262  -30.1522  -14.8601 C   0  0  0  0  0  0  0  0  0  0  0  0
   -2.5074  -29.8275  -12.7790 C   0  0  0  0  0  0  0  0  0  0  0  0
   -2.2510  -29.8018  -11.3099 C   0  0  0  0  0  0  0  0  0  0  0  0
   -1.5238  -30.1539  -13.5592 C   0  0  0  0  0  0  0  0  0  0  0  0
   -0.8490  -30.6736  -15.8305 C   0  0  0  0  0  0  0  0  0  0  0  0
   -3.4285  -29.5926  -10.2736 C   0  0  0  0  0  0  0  0  0  0  0  0
   -3.1067  -30.1042  -16.7522 N   0  0  0  0  0  0  0  0  0  0  0  0
   -1.7676  -30.6790  -17.0742 C   0  0  0  0  0  0  0  0  0  0  0  0
   -4.6459  -29.3287  -10.5761 C   0  0  0  0  0  0  0  0  0  0  0  0
   -1.3399  -31.0826  -18.3452 C   0  0  0  0  0  0  0  0  0  0  0  0
   -5.2918  -28.8024   -9.5199 C   0  0  0  0  0  0  0  0  0  0  0  0
   -4.4152  -29.0191   -8.3984 N   0  0  0  0  0  0  0  0  0  0  0  0
   -3.1278  -29.4246   -8.9481 C   0  0  0  0  0  0  0  0  0  0  0  0
  1  2  1  0
  1  3  2  0
  2  4  1  0
  3  5  1  0
  5  6  1  0
  4  7  1  0
  5  7  2  0
  4  8  2  0
  6  9  1  0
  2 10  2  0
  8 11  1  0
 10 11  1  0
  9 12  1  0
 11 13  1  0
 12 14  2  0
 14 15  1  0
  9 16  2  0
 15 16  2  0
M  END
>  <ID>  (1) 
conformer_0

$$$$
