
     RDKit          3D

 20 21  0  0  0  0  0  0  0  0999 V2000
   -3.9156  -29.5002  -13.2267 C   0  0  0  0  0  0  0  0  0  0  0  0
   -3.4210  -29.6824  -14.4249 C   0  0  0  0  0  0  0  0  0  0  0  0
   -3.1011  -29.6886  -12.0314 C   0  0  0  0  0  0  0  0  0  0  0  0
   -1.9848  -29.9393  -14.4813 C   0  0  0  0  0  0  0  0  0  0  0  0
   -1.3682  -30.1069  -15.7982 C   0  0  0  0  0  0  0  0  0  0  0  0
   -1.2396  -30.0806  -13.4752 C   0  0  0  0  0  0  0  0  0  0  0  0
   -3.6768  -29.5704  -10.6863 C   0  0  0  0  0  0  0  0  0  0  0  0
   -4.2277  -29.5430  -15.4139 O   0  0  0  0  0  0  0  0  0  0  0  0
   -4.9453  -29.3458  -10.4042 N   0  0  0  0  0  0  0  0  0  0  0  0
   -0.1957  -30.6439  -15.7767 N   0  0  0  0  0  0  0  0  0  0  0  0
    0.1485  -30.4697  -13.6785 C   0  0  0  0  0  0  0  0  0  0  0  0
    0.9709  -30.6423  -12.4708 C   0  0  0  0  0  0  0  0  0  0  0  0
   -5.2552  -28.9266   -9.1207 C   0  0  0  0  0  0  0  0  0  0  0  0
   -4.8031  -29.8556   -8.2987 O   0  0  0  0  0  0  0  0  0  0  0  0
   -5.5701  -27.7814   -8.7461 O   0  0  0  0  0  0  0  0  0  0  0  0
    0.5181  -30.8352  -14.8115 C   0  0  0  0  0  0  0  0  0  0  0  0
   -2.1440  -29.9666  -17.0017 N   0  0  0  0  0  0  0  0  0  0  0  0
    1.8630  -31.2217  -14.9645 O   0  0  0  0  0  0  0  0  0  0  0  0
   -4.9077  -29.6643   -6.9178 C   0  0  0  0  0  0  0  0  0  0  0  0
   -1.7686  -29.9551  -12.0968 C   0  0  0  0  0  0  0  0  0  0  0  0
  1  2  1  0
  1  3  2  0
  2  4  2  0
  4  5  1  0
  4  6  1  0
  3  7  1  0
  2  8  1  0
  7  9  1  0
  5 10  2  0
  6 11  1  0
 11 12  2  0
  9 13  1  0
 13 14  1  0
 13 15  2  0
 10 16  1  0
 11 16  1  0
  5 17  1  0
 16 18  2  0
 14 19  1  0
  3 20  1  0
  6 20  2  0
M  END
>  <ID>  (1) 
conformer_0

$$$$
