
     RDKit          3D

 17 20  0  0  0  0  0  0  0  0999 V2000
   -4.0526  -29.5206  -14.5809 N   0  0  0  0  0  0  0  0  0  0  0  0
   -3.0272  -29.9317  -15.3016 C   0  0  0  0  0  0  0  0  0  0  0  0
   -3.8634  -29.3747  -13.2941 C   0  0  0  0  0  0  0  0  0  0  0  0
   -1.7262  -30.1522  -14.8601 C   0  0  0  0  0  0  0  0  0  0  0  0
   -4.7836  -29.0795  -12.4092 N   0  0  0  0  0  0  0  0  0  0  0  0
   -3.1464  -30.3057  -16.7183 N   0  0  0  0  0  0  0  0  0  0  0  0
   -1.8184  -30.7703  -16.9814 C   0  0  0  0  0  0  0  0  0  0  0  0
   -1.0163  -30.7116  -15.9228 C   0  0  0  0  0  0  0  0  0  0  0  0
   -1.4211  -31.1909  -18.4426 C   0  0  0  0  0  0  0  0  0  0  0  0
   -1.6393  -29.9845  -13.4648 C   0  0  0  0  0  0  0  0  0  0  0  0
   -4.4831  -28.9164  -11.0498 C   0  0  0  0  0  0  0  0  0  0  0  0
   -5.3764  -28.4985  -10.1462 C   0  0  0  0  0  0  0  0  0  0  0  0
   -0.3446  -30.2249  -12.7845 C   0  0  0  0  0  0  0  0  0  0  0  0
   -3.1954  -29.2805  -10.6413 N   0  0  0  0  0  0  0  0  0  0  0  0
   -2.5579  -29.6248  -12.7353 C   0  0  0  0  0  0  0  0  0  0  0  0
   -2.3471  -29.7070  -11.4762 N   0  0  0  0  0  0  0  0  0  0  0  0
   -0.9562  -29.9955  -11.2574 C   0  0  0  0  0  0  0  0  0  0  0  0
  1  2  1  0
  1  3  2  0
  2  4  1  0
  3  5  1  0
  2  6  2  0
  6  7  1  0
  4  8  1  0
  7  8  2  0
  7  9  1  0
  4 10  1  0
  5 11  1  0
 11 12  1  0
 10 13  1  0
 11 14  2  0
  3 15  1  0
 10 15  2  0
 14 16  1  0
 15 16  1  0
 13 17  2  0
 16 17  1  0
M  END
>  <ID>  (1) 
conformer_0

$$$$
