
     RDKit          3D

 19 22  0  0  0  0  0  0  0  0999 V2000
   -4.0746  -29.4490  -13.7702 N   0  0  0  0  0  0  0  0  0  0  0  0
   -3.2013  -29.5170  -12.6553 C   0  0  0  0  0  0  0  0  0  0  0  0
   -1.9338  -29.8084  -13.2559 C   0  0  0  0  0  0  0  0  0  0  0  0
   -2.0602  -30.0320  -14.5862 C   0  0  0  0  0  0  0  0  0  0  0  0
   -3.4830  -29.3172  -11.3382 C   0  0  0  0  0  0  0  0  0  0  0  0
   -3.4542  -29.7913  -14.8617 C   0  0  0  0  0  0  0  0  0  0  0  0
   -4.6692  -29.0032  -10.7400 N   0  0  0  0  0  0  0  0  0  0  0  0
   -1.1728  -30.4491  -15.6671 C   0  0  0  0  0  0  0  0  0  0  0  0
   -4.7167  -29.0198   -9.3820 C   0  0  0  0  0  0  0  0  0  0  0  0
   -1.6361  -30.5060  -16.9722 C   0  0  0  0  0  0  0  0  0  0  0  0
   -0.5632  -30.9490  -17.8570 C   0  0  0  0  0  0  0  0  0  0  0  0
    0.5202  -31.0638  -17.3366 N   0  0  0  0  0  0  0  0  0  0  0  0
    0.3034  -30.7750  -15.8792 N   0  0  0  0  0  0  0  0  0  0  0  0
   -0.7913  -29.9993  -12.4230 C   0  0  0  0  0  0  0  0  0  0  0  0
   -3.7021  -29.4651   -8.7238 N   0  0  0  0  0  0  0  0  0  0  0  0
   -2.4434  -29.5396  -10.3154 C   0  0  0  0  0  0  0  0  0  0  0  0
   -2.5872  -29.6924   -9.1668 C   0  0  0  0  0  0  0  0  0  0  0  0
   -6.0911  -28.8002   -8.7512 N   0  0  0  0  0  0  0  0  0  0  0  0
   -1.1125  -29.9026  -11.0034 C   0  0  0  0  0  0  0  0  0  0  0  0
  1  2  2  0
  2  3  1  0
  3  4  1  0
  2  5  1  0
  1  6  1  0
  4  6  2  0
  5  7  1  0
  4  8  1  0
  7  9  1  0
  8 10  2  0
 10 11  1  0
 11 12  2  0
  8 13  1  0
 12 13  1  0
  3 14  2  0
  9 15  1  0
  5 16  2  0
 15 17  2  0
 16 17  1  0
  9 18  1  0
 14 19  1  0
 16 19  1  0
M  END
>  <ID>  (1) 
conformer_0

$$$$
