
     RDKit          3D

 19 22  0  0  0  0  0  0  0  0999 V2000
   -3.3575  -29.5770  -13.3997 C   0  0  0  0  0  0  0  0  0  0  0  0
   -2.2825  -29.6853  -12.8541 C   0  0  0  0  0  0  0  0  0  0  0  0
   -3.6195  -29.7697  -14.7297 N   0  0  0  0  0  0  0  0  0  0  0  0
   -2.0624  -29.6259  -11.3924 C   0  0  0  0  0  0  0  0  0  0  0  0
   -0.9308  -29.9500  -10.8288 C   0  0  0  0  0  0  0  0  0  0  0  0
   -3.1312  -29.0195  -10.8044 C   0  0  0  0  0  0  0  0  0  0  0  0
   -2.5607  -30.2308  -15.3528 C   0  0  0  0  0  0  0  0  0  0  0  0
   -1.0134  -30.2634  -13.5890 C   0  0  0  0  0  0  0  0  0  0  0  0
   -2.7235  -30.5158  -16.8602 N   0  0  0  0  0  0  0  0  0  0  0  0
   -1.2067  -30.4467  -15.0028 C   0  0  0  0  0  0  0  0  0  0  0  0
   -3.0994  -29.0106   -9.3991 C   0  0  0  0  0  0  0  0  0  0  0  0
    0.1913  -30.5778  -11.4998 C   0  0  0  0  0  0  0  0  0  0  0  0
   -1.8433  -30.9361  -17.6811 C   0  0  0  0  0  0  0  0  0  0  0  0
   -0.2581  -30.9346  -16.0110 C   0  0  0  0  0  0  0  0  0  0  0  0
    0.1971  -30.5970  -12.7865 C   0  0  0  0  0  0  0  0  0  0  0  0
    1.0643  -31.0831  -15.5417 O   0  0  0  0  0  0  0  0  0  0  0  0
   -0.5493  -31.1398  -17.2293 C   0  0  0  0  0  0  0  0  0  0  0  0
   -1.0188  -29.9761   -9.3551 C   0  0  0  0  0  0  0  0  0  0  0  0
   -2.1093  -29.4744   -8.6782 C   0  0  0  0  0  0  0  0  0  0  0  0
  1  2  2  0
  1  3  1  0
  2  4  1  0
  4  5  1  0
  4  6  2  0
  3  7  2  0
  2  8  1  0
  7  9  1  0
  7 10  1  0
  8 10  2  0
  6 11  1  0
  5 12  1  0
  9 13  1  0
 10 14  1  0
  8 15  1  0
 12 15  2  0
 14 16  2  0
 13 17  2  0
 14 17  1  0
  5 18  2  0
 11 19  2  0
 18 19  1  0
M  END
>  <ID>  (1) 
conformer_0

$$$$
