
     RDKit          3D

 17 20  0  0  0  0  0  0  0  0999 V2000
   -3.6021  -29.4444  -12.7984 C   0  0  0  0  0  0  0  0  0  0  0  0
   -3.2262  -29.6285  -14.0240 C   0  0  0  0  0  0  0  0  0  0  0  0
   -1.8415  -30.0979  -14.0992 C   0  0  0  0  0  0  0  0  0  0  0  0
   -4.8808  -28.9114  -12.5611 N   0  0  0  0  0  0  0  0  0  0  0  0
   -1.0250  -30.3122  -13.0519 C   0  0  0  0  0  0  0  0  0  0  0  0
   -1.3738  -30.4368  -15.4649 C   0  0  0  0  0  0  0  0  0  0  0  0
   -2.7830  -29.6086  -11.6471 C   0  0  0  0  0  0  0  0  0  0  0  0
   -4.8667  -28.7417  -11.1277 C   0  0  0  0  0  0  0  0  0  0  0  0
   -3.5181  -29.2302  -10.4492 C   0  0  0  0  0  0  0  0  0  0  0  0
   -0.1171  -30.8222  -15.5606 C   0  0  0  0  0  0  0  0  0  0  0  0
    0.2730  -30.8100  -13.2124 C   0  0  0  0  0  0  0  0  0  0  0  0
   -1.5029  -30.0853  -11.7346 C   0  0  0  0  0  0  0  0  0  0  0  0
   -2.0408  -30.2319  -16.6365 C   0  0  0  0  0  0  0  0  0  0  0  0
   -1.5414  -30.5841  -17.8372 C   0  0  0  0  0  0  0  0  0  0  0  0
    0.3806  -30.9694  -16.8216 C   0  0  0  0  0  0  0  0  0  0  0  0
   -0.2811  -30.9049  -17.9579 C   0  0  0  0  0  0  0  0  0  0  0  0
    0.7148  -30.9218  -14.4409 C   0  0  0  0  0  0  0  0  0  0  0  0
  1  2  2  0
  2  3  1  0
  1  4  1  0
  3  5  2  0
  3  6  1  0
  1  7  1  0
  4  8  2  0
  7  9  2  0
  8  9  1  0
  6 10  1  0
  5 11  1  0
  5 12  1  0
  7 12  1  0
  6 13  2  0
 13 14  1  0
 10 15  2  0
 14 16  2  0
 15 16  1  0
 10 17  1  0
 11 17  2  0
M  END
>  <ID>  (1) 
conformer_0

$$$$
