
     RDKit          3D

 21 25  0  0  0  0  0  0  0  0999 V2000
   -4.0526  -29.5206  -14.5809 N   0  0  0  0  0  0  0  0  0  0  0  0
   -3.0272  -29.9317  -15.3016 C   0  0  0  0  0  0  0  0  0  0  0  0
   -3.8634  -29.3747  -13.2941 C   0  0  0  0  0  0  0  0  0  0  0  0
   -1.7262  -30.1522  -14.8601 C   0  0  0  0  0  0  0  0  0  0  0  0
   -2.5074  -29.8275  -12.7790 C   0  0  0  0  0  0  0  0  0  0  0  0
   -2.2510  -29.8018  -11.3099 C   0  0  0  0  0  0  0  0  0  0  0  0
   -1.5391  -30.0484  -13.6572 C   0  0  0  0  0  0  0  0  0  0  0  0
   -3.1900  -29.5362  -10.3536 C   0  0  0  0  0  0  0  0  0  0  0  0
   -0.2057  -30.3675  -13.0869 C   0  0  0  0  0  0  0  0  0  0  0  0
   -4.3493  -29.2906  -10.2563 C   0  0  0  0  0  0  0  0  0  0  0  0
   -0.0434  -30.3799  -11.7539 C   0  0  0  0  0  0  0  0  0  0  0  0
   -2.5093  -29.7437   -9.0097 C   0  0  0  0  0  0  0  0  0  0  0  0
   -0.8590  -30.3899  -16.0055 C   0  0  0  0  0  0  0  0  0  0  0  0
   -1.6151  -30.2587  -17.2346 C   0  0  0  0  0  0  0  0  0  0  0  0
   -1.3042  -30.1272   -9.0036 C   0  0  0  0  0  0  0  0  0  0  0  0
   -1.1739  -30.5615  -18.4421 C   0  0  0  0  0  0  0  0  0  0  0  0
   -4.8527  -29.0032   -8.9132 C   0  0  0  0  0  0  0  0  0  0  0  0
   -6.0858  -28.7899   -8.4129 N   0  0  0  0  0  0  0  0  0  0  0  0
   -3.6166  -29.5141   -7.9931 N   0  0  0  0  0  0  0  0  0  0  0  0
   -2.9586  -30.0157  -16.7374 N   0  0  0  0  0  0  0  0  0  0  0  0
   -1.0544  -30.2518  -10.6584 C   0  0  0  0  0  0  0  0  0  0  0  0
  1  2  1  0
  1  3  2  0
  2  4  1  0
  3  5  1  0
  5  6  1  0
  4  7  1  0
  5  7  2  0
  6  8  1  0
  7  9  1  0
  8 10  2  0
  9 11  2  0
  8 12  1  0
  4 13  2  0
 13 14  1  0
 12 15  1  0
 14 16  1  0
 10 17  1  0
 17 18  1  0
 12 19  1  0
 17 19  2  0
  2 20  1  0
 14 20  1  0
  6 21  2  0
 11 21  1  0
 15 21  1  0
M  END
>  <ID>  (1) 
conformer_0

$$$$
