
     RDKit          3D

 10 11  0  0  0  0  0  0  0  0999 V2000
   -4.0526  -29.5206  -14.5809 N   0  0  0  0  0  0  0  0  0  0  0  0
   -3.0272  -29.9317  -15.3016 C   0  0  0  0  0  0  0  0  0  0  0  0
   -3.0182  -30.2053  -16.6716 N   0  0  0  0  0  0  0  0  0  0  0  0
   -1.7333  -30.1447  -14.6415 C   0  0  0  0  0  0  0  0  0  0  0  0
   -1.8121  -29.7317  -13.3329 C   0  0  0  0  0  0  0  0  0  0  0  0
   -0.6904  -30.5394  -15.2899 C   0  0  0  0  0  0  0  0  0  0  0  0
   -1.9123  -30.7029  -17.2845 C   0  0  0  0  0  0  0  0  0  0  0  0
   -0.7047  -30.8003  -16.6327 C   0  0  0  0  0  0  0  0  0  0  0  0
    0.3835  -31.2366  -17.3013 O   0  0  0  0  0  0  0  0  0  0  0  0
   -3.4258  -29.4195  -13.2397 C   0  0  0  0  0  0  0  0  0  0  0  0
  1  2  2  0
  2  3  1  0
  2  4  1  0
  4  5  1  0
  4  6  2  0
  3  7  2  0
  6  8  1  0
  7  8  1  0
  8  9  2  0
  1 10  1  0
  5 10  2  0
M  END
>  <ID>  (1) 
conformer_0

$$$$
