
     RDKit          3D

 14 16  0  0  0  0  0  0  0  0999 V2000
   -3.6384  -30.2913  -15.8187 N   0  0  0  0  0  0  0  0  0  0  0  0
   -2.4427  -30.6883  -16.2310 C   0  0  0  0  0  0  0  0  0  0  0  0
   -1.4084  -30.5006  -15.4661 C   0  0  0  0  0  0  0  0  0  0  0  0
   -2.3124  -31.4686  -17.4244 N   0  0  0  0  0  0  0  0  0  0  0  0
   -1.1406  -31.7838  -17.7962 C   0  0  0  0  0  0  0  0  0  0  0  0
   -1.8086  -29.9628  -14.2355 C   0  0  0  0  0  0  0  0  0  0  0  0
   -0.1551  -30.8442  -15.8953 C   0  0  0  0  0  0  0  0  0  0  0  0
   -3.0345  -29.5644  -13.8610 C   0  0  0  0  0  0  0  0  0  0  0  0
    0.0063  -31.4668  -17.0685 C   0  0  0  0  0  0  0  0  0  0  0  0
   -4.0229  -29.7713  -14.7530 C   0  0  0  0  0  0  0  0  0  0  0  0
   -0.8316  -29.7386  -13.1993 C   0  0  0  0  0  0  0  0  0  0  0  0
   -3.1011  -29.1732  -12.4999 N   0  0  0  0  0  0  0  0  0  0  0  0
   -1.7627  -29.3281  -12.0595 C   0  0  0  0  0  0  0  0  0  0  0  0
    1.1847  -31.7189  -17.5284 O   0  0  0  0  0  0  0  0  0  0  0  0
  1  2  1  0
  2  3  1  0
  2  4  2  0
  4  5  1  0
  3  6  2  0
  3  7  1  0
  6  8  1  0
  5  9  1  0
  7  9  1  0
  1 10  2  0
  8 10  1  0
  6 11  1  0
  8 12  2  0
 11 13  2  0
 12 13  1  0
  9 14  2  0
M  END
>  <ID>  (1) 
conformer_0

$$$$
