
     RDKit          3D

 13 14  0  0  0  0  0  0  0  0999 V2000
   -4.0526  -29.5206  -14.5809 N   0  0  0  0  0  0  0  0  0  0  0  0
   -3.0272  -29.9317  -15.3016 C   0  0  0  0  0  0  0  0  0  0  0  0
   -1.7820  -30.0742  -14.7037 C   0  0  0  0  0  0  0  0  0  0  0  0
   -3.1318  -30.4371  -16.5760 N   0  0  0  0  0  0  0  0  0  0  0  0
   -0.7957  -30.4402  -15.2185 C   0  0  0  0  0  0  0  0  0  0  0  0
   -1.9294  -29.6981  -13.2998 C   0  0  0  0  0  0  0  0  0  0  0  0
   -3.0652  -29.3225  -12.6660 C   0  0  0  0  0  0  0  0  0  0  0  0
   -0.7987  -29.7941  -12.3769 C   0  0  0  0  0  0  0  0  0  0  0  0
    0.4546  -30.5458  -14.6235 O   0  0  0  0  0  0  0  0  0  0  0  0
   -0.8259  -30.8838  -16.6014 N   0  0  0  0  0  0  0  0  0  0  0  0
   -3.9787  -29.2604  -13.3211 C   0  0  0  0  0  0  0  0  0  0  0  0
   -2.0399  -30.8024  -17.2064 C   0  0  0  0  0  0  0  0  0  0  0  0
   -1.9976  -31.3061  -18.4771 O   0  0  0  0  0  0  0  0  0  0  0  0
  1  2  1  0
  2  3  2  0
  2  4  1  0
  3  5  1  0
  3  6  1  0
  6  7  2  0
  6  8  1  0
  5  9  2  0
  5 10  1  0
  1 11  2  0
  7 11  1  0
  4 12  1  0
 10 12  1  0
 12 13  2  0
M  END
>  <ID>  (1) 
conformer_0

$$$$
