
     RDKit          3D

 22 26  0  0  0  0  0  0  0  0999 V2000
    0.2843  -30.0852  -12.8750 C   0  0  0  0  0  0  0  0  0  0  0  0
   -0.9347  -30.1976  -13.5133 C   0  0  0  0  0  0  0  0  0  0  0  0
   -0.9532  -30.5590  -14.7798 C   0  0  0  0  0  0  0  0  0  0  0  0
    0.3348  -30.9649  -15.2803 C   0  0  0  0  0  0  0  0  0  0  0  0
   -2.2048  -29.7920  -12.9000 C   0  0  0  0  0  0  0  0  0  0  0  0
   -1.9282  -30.5381  -15.7903 C   0  0  0  0  0  0  0  0  0  0  0  0
    1.4721  -30.9950  -14.5452 C   0  0  0  0  0  0  0  0  0  0  0  0
   -2.3324  -29.6774  -11.5487 C   0  0  0  0  0  0  0  0  0  0  0  0
   -1.8958  -31.0280  -17.0514 C   0  0  0  0  0  0  0  0  0  0  0  0
   -3.1893  -29.7913  -15.4429 C   0  0  0  0  0  0  0  0  0  0  0  0
   -3.6091  -29.4140  -10.9905 C   0  0  0  0  0  0  0  0  0  0  0  0
   -3.2756  -29.4216  -13.6429 C   0  0  0  0  0  0  0  0  0  0  0  0
   -3.7642  -29.2074   -9.5197 C   0  0  0  0  0  0  0  0  0  0  0  0
   -4.7013  -29.1955  -11.8906 C   0  0  0  0  0  0  0  0  0  0  0  0
    1.3607  -30.5642  -13.2726 C   0  0  0  0  0  0  0  0  0  0  0  0
   -5.8229  -28.9329  -11.3097 N   0  0  0  0  0  0  0  0  0  0  0  0
    0.3497  -31.4685  -16.7761 C   0  0  0  0  0  0  0  0  0  0  0  0
   -4.8677  -29.1125   -9.0950 C   0  0  0  0  0  0  0  0  0  0  0  0
   -0.7375  -31.4452  -17.5180 C   0  0  0  0  0  0  0  0  0  0  0  0
   -4.3185  -30.3694  -15.6566 O   0  0  0  0  0  0  0  0  0  0  0  0
   -4.5153  -29.2806  -13.1729 N   0  0  0  0  0  0  0  0  0  0  0  0
   -6.0032  -28.8353   -9.9874 C   0  0  0  0  0  0  0  0  0  0  0  0
  1  2  1  0
  2  3  2  0
  3  4  1  0
  2  5  1  0
  3  6  1  0
  4  7  2  0
  5  8  1  0
  6  9  2  0
  6 10  1  0
  8 11  2  0
  5 12  1  0
 10 12  1  0
 11 13  1  0
 11 14  1  0
  1 15  2  0
  7 15  1  0
 14 16  1  0
  4 17  1  0
 13 18  2  0
  9 19  1  0
 17 19  2  0
 10 20  1  0
 12 21  1  0
 14 21  2  0
 16 22  2  0
 18 22  1  0
M  END
>  <ID>  (1) 
conformer_0

$$$$
