
     RDKit          3D

 11 13  0  0  0  0  0  0  0  0999 V2000
   -3.6384  -30.2913  -15.8187 N   0  0  0  0  0  0  0  0  0  0  0  0
   -2.4427  -30.6883  -16.2310 C   0  0  0  0  0  0  0  0  0  0  0  0
   -1.4084  -30.5006  -15.4661 C   0  0  0  0  0  0  0  0  0  0  0  0
   -0.1915  -31.0284  -15.7545 C   0  0  0  0  0  0  0  0  0  0  0  0
    0.8918  -30.9591  -14.7509 N   0  0  0  0  0  0  0  0  0  0  0  0
   -3.4747  -29.8585  -14.5759 C   0  0  0  0  0  0  0  0  0  0  0  0
   -0.2861  -31.5385  -17.0586 C   0  0  0  0  0  0  0  0  0  0  0  0
    0.6474  -30.5068  -13.6565 C   0  0  0  0  0  0  0  0  0  0  0  0
   -0.9173  -30.1651  -13.4125 C   0  0  0  0  0  0  0  0  0  0  0  0
   -1.5146  -31.3030  -17.5772 C   0  0  0  0  0  0  0  0  0  0  0  0
   -1.9648  -30.1009  -14.2321 C   0  0  0  0  0  0  0  0  0  0  0  0
  1  2  1  0
  2  3  1  0
  3  4  2  0
  4  5  1  0
  1  6  2  0
  4  7  1  0
  5  8  2  0
  8  9  1  0
  2 10  2  0
  7 10  2  0
  3 11  1  0
  6 11  1  0
  9 11  2  0
M  END
>  <ID>  (1) 
conformer_0

$$$$
