
     RDKit          3D

 11 12  0  0  0  0  0  0  0  0999 V2000
   -3.5610  -29.9461  -16.4067 N   0  0  0  0  0  0  0  0  0  0  0  0
   -2.4465  -30.6641  -16.7931 C   0  0  0  0  0  0  0  0  0  0  0  0
   -3.5216  -29.6920  -14.9939 C   0  0  0  0  0  0  0  0  0  0  0  0
   -4.6244  -29.0884  -14.3649 N   0  0  0  0  0  0  0  0  0  0  0  0
   -2.3019  -30.0786  -14.4188 C   0  0  0  0  0  0  0  0  0  0  0  0
   -1.3340  -30.7547  -15.0392 C   0  0  0  0  0  0  0  0  0  0  0  0
   -1.3986  -30.9722  -16.2356 C   0  0  0  0  0  0  0  0  0  0  0  0
   -2.4200  -29.7519  -12.9227 C   0  0  0  0  0  0  0  0  0  0  0  0
   -0.2001  -30.9135  -14.0436 C   0  0  0  0  0  0  0  0  0  0  0  0
   -0.1978  -30.6133  -12.7579 C   0  0  0  0  0  0  0  0  0  0  0  0
   -1.3001  -30.0329  -12.2016 C   0  0  0  0  0  0  0  0  0  0  0  0
  1  2  1  0
  1  3  2  0
  3  4  1  0
  3  5  1  0
  5  6  1  0
  2  7  2  0
  6  7  2  0
  5  8  2  0
  6  9  1  0
  9 10  2  0
  8 11  1  0
 10 11  1  0
M  END
>  <ID>  (1) 
conformer_0

$$$$
