
     RDKit          3D

 12 13  0  0  0  0  0  0  0  0999 V2000
   -0.4454  -30.0493  -12.5126 C   0  0  0  0  0  0  0  0  0  0  0  0
   -1.6913  -29.8050  -13.0401 C   0  0  0  0  0  0  0  0  0  0  0  0
   -1.9305  -29.9343  -14.3942 C   0  0  0  0  0  0  0  0  0  0  0  0
   -2.8647  -29.4140  -12.2876 C   0  0  0  0  0  0  0  0  0  0  0  0
   -2.9706  -29.5696  -14.9591 C   0  0  0  0  0  0  0  0  0  0  0  0
   -0.2493  -30.2129  -11.1848 N   0  0  0  0  0  0  0  0  0  0  0  0
   -3.9670  -29.1529  -14.1273 N   0  0  0  0  0  0  0  0  0  0  0  0
   -3.9583  -29.1212  -12.8620 C   0  0  0  0  0  0  0  0  0  0  0  0
   -0.8096  -30.2447  -15.3160 N   0  0  0  0  0  0  0  0  0  0  0  0
    0.5903  -29.8271  -13.2622 N   0  0  0  0  0  0  0  0  0  0  0  0
   -3.2726  -29.6338  -16.3224 N   0  0  0  0  0  0  0  0  0  0  0  0
    0.3963  -30.2153  -14.6367 C   0  0  0  0  0  0  0  0  0  0  0  0
  1  2  1  0
  2  3  2  0
  2  4  1  0
  3  5  1  0
  1  6  1  0
  5  7  2  0
  4  8  2  0
  7  8  1  0
  3  9  1  0
  1 10  2  0
  5 11  1  0
  9 12  2  0
 10 12  1  0
M  END
>  <ID>  (1) 
conformer_0

$$$$
