
     RDKit          3D

 11 12  0  0  0  0  0  0  0  0999 V2000
   -4.0700  -29.6576  -15.2229 N   0  0  0  0  0  0  0  0  0  0  0  0
   -2.8597  -30.1219  -15.5380 C   0  0  0  0  0  0  0  0  0  0  0  0
   -1.8221  -30.0689  -14.5910 C   0  0  0  0  0  0  0  0  0  0  0  0
   -2.2350  -29.5648  -13.3620 C   0  0  0  0  0  0  0  0  0  0  0  0
   -4.3731  -29.2493  -14.0742 C   0  0  0  0  0  0  0  0  0  0  0  0
   -2.4449  -30.6243  -16.7854 N   0  0  0  0  0  0  0  0  0  0  0  0
   -3.6072  -29.2275  -13.1796 N   0  0  0  0  0  0  0  0  0  0  0  0
   -1.1800  -30.9445  -16.6782 C   0  0  0  0  0  0  0  0  0  0  0  0
   -0.3253  -31.4849  -17.6576 N   0  0  0  0  0  0  0  0  0  0  0  0
   -0.7928  -30.5829  -15.2838 C   0  0  0  0  0  0  0  0  0  0  0  0
   -1.2937  -29.7337  -12.3975 N   0  0  0  0  0  0  0  0  0  0  0  0
  1  2  1  0
  2  3  1  0
  3  4  2  0
  1  5  2  0
  2  6  2  0
  4  7  1  0
  5  7  1  0
  6  8  1  0
  8  9  1  0
  3 10  1  0
  8 10  2  0
  4 11  1  0
M  END
>  <ID>  (1) 
conformer_0

$$$$
