
     RDKit          3D

 15 17  0  0  0  0  0  0  0  0999 V2000
   -4.2102  -29.5664  -14.1824 N   0  0  0  0  0  0  0  0  0  0  0  0
   -3.3051  -29.8476  -15.0392 C   0  0  0  0  0  0  0  0  0  0  0  0
   -2.0707  -30.1059  -14.4230 C   0  0  0  0  0  0  0  0  0  0  0  0
   -3.9117  -29.3601  -12.8132 C   0  0  0  0  0  0  0  0  0  0  0  0
   -3.4491  -30.1810  -16.2951 N   0  0  0  0  0  0  0  0  0  0  0  0
   -2.0758  -29.9525  -12.9824 C   0  0  0  0  0  0  0  0  0  0  0  0
   -0.6490  -30.2566  -12.4218 N   0  0  0  0  0  0  0  0  0  0  0  0
    0.1563  -30.4833  -13.4848 C   0  0  0  0  0  0  0  0  0  0  0  0
   -2.9622  -29.5940  -12.2730 N   0  0  0  0  0  0  0  0  0  0  0  0
    1.4004  -30.9394  -13.4562 C   0  0  0  0  0  0  0  0  0  0  0  0
   -0.6870  -30.5114  -14.6735 C   0  0  0  0  0  0  0  0  0  0  0  0
   -0.2821  -30.6906  -16.0258 C   0  0  0  0  0  0  0  0  0  0  0  0
   -0.8739  -30.4114  -17.0961 C   0  0  0  0  0  0  0  0  0  0  0  0
   -2.3926  -30.5036  -17.1821 C   0  0  0  0  0  0  0  0  0  0  0  0
    1.0334  -30.8720  -16.2019 O   0  0  0  0  0  0  0  0  0  0  0  0
  1  2  1  0
  2  3  1  0
  1  4  2  0
  2  5  2  0
  3  6  1  0
  6  7  1  0
  7  8  2  0
  4  9  1  0
  6  9  2  0
  8 10  1  0
  3 11  2  0
  8 11  1  0
 11 12  1  0
 12 13  1  0
  5 14  1  0
 13 14  1  0
 12 15  2  0
M  END
>  <ID>  (1) 
conformer_0

$$$$
