
     RDKit          3D

 19 22  0  0  0  0  0  0  0  0999 V2000
   -4.0746  -29.4490  -13.7702 N   0  0  0  0  0  0  0  0  0  0  0  0
   -3.2013  -29.5170  -12.6553 C   0  0  0  0  0  0  0  0  0  0  0  0
   -1.9338  -29.8084  -13.2559 C   0  0  0  0  0  0  0  0  0  0  0  0
   -2.0602  -30.0320  -14.5862 C   0  0  0  0  0  0  0  0  0  0  0  0
   -3.4830  -29.3172  -11.3382 C   0  0  0  0  0  0  0  0  0  0  0  0
   -3.4542  -29.7913  -14.8617 C   0  0  0  0  0  0  0  0  0  0  0  0
   -4.6692  -29.0032  -10.7400 N   0  0  0  0  0  0  0  0  0  0  0  0
   -1.1728  -30.4491  -15.6671 C   0  0  0  0  0  0  0  0  0  0  0  0
   -4.7167  -29.0198   -9.3820 C   0  0  0  0  0  0  0  0  0  0  0  0
   -1.6361  -30.5060  -16.9722 C   0  0  0  0  0  0  0  0  0  0  0  0
   -5.9150  -28.8767   -8.6558 N   0  0  0  0  0  0  0  0  0  0  0  0
    0.0859  -30.7317  -15.3422 C   0  0  0  0  0  0  0  0  0  0  0  0
    0.6082  -30.6972  -14.0089 C   0  0  0  0  0  0  0  0  0  0  0  0
    0.9683  -31.0912  -16.2513 C   0  0  0  0  0  0  0  0  0  0  0  0
    0.5483  -31.1891  -17.6395 C   0  0  0  0  0  0  0  0  0  0  0  0
   -0.7725  -30.9701  -17.9824 C   0  0  0  0  0  0  0  0  0  0  0  0
   -0.5283  -30.1086  -12.8677 C   0  0  0  0  0  0  0  0  0  0  0  0
   -3.6785  -29.5824   -8.7954 N   0  0  0  0  0  0  0  0  0  0  0  0
   -2.5908  -29.5813  -10.1540 C   0  0  0  0  0  0  0  0  0  0  0  0
  1  2  2  0
  2  3  1  0
  3  4  1  0
  2  5  1  0
  1  6  1  0
  4  6  2  0
  5  7  1  0
  4  8  1  0
  7  9  1  0
  8 10  2  0
  9 11  1  0
  8 12  1  0
 12 13  1  0
 12 14  2  0
 14 15  1  0
 10 16  1  0
 15 16  2  0
  3 17  2  0
 13 17  2  0
  9 18  2  0
  5 19  2  0
 18 19  1  0
M  END
>  <ID>  (1) 
conformer_0

$$$$
