
     RDKit          3D

 23 28  0  0  0  0  0  0  0  0999 V2000
   -4.0526  -29.5206  -14.5809 N   0  0  0  0  0  0  0  0  0  0  0  0
   -3.0272  -29.9317  -15.3016 C   0  0  0  0  0  0  0  0  0  0  0  0
   -3.8634  -29.3747  -13.2941 C   0  0  0  0  0  0  0  0  0  0  0  0
   -1.7262  -30.1522  -14.8601 C   0  0  0  0  0  0  0  0  0  0  0  0
   -2.5074  -29.8275  -12.7790 C   0  0  0  0  0  0  0  0  0  0  0  0
   -2.2510  -29.8018  -11.3099 C   0  0  0  0  0  0  0  0  0  0  0  0
   -1.5391  -30.0484  -13.6572 C   0  0  0  0  0  0  0  0  0  0  0  0
   -3.1900  -29.5362  -10.3536 C   0  0  0  0  0  0  0  0  0  0  0  0
   -0.2057  -30.3675  -13.0869 C   0  0  0  0  0  0  0  0  0  0  0  0
   -4.3493  -29.2906  -10.2563 C   0  0  0  0  0  0  0  0  0  0  0  0
    0.8375  -30.6315  -13.8176 C   0  0  0  0  0  0  0  0  0  0  0  0
   -0.3331  -30.4502  -11.5353 C   0  0  0  0  0  0  0  0  0  0  0  0
   -0.6801  -30.5646  -15.7719 C   0  0  0  0  0  0  0  0  0  0  0  0
   -5.1609  -29.1126   -9.1635 C   0  0  0  0  0  0  0  0  0  0  0  0
    0.5757  -30.7526  -15.1521 C   0  0  0  0  0  0  0  0  0  0  0  0
   -3.3247  -30.0296  -16.7221 N   0  0  0  0  0  0  0  0  0  0  0  0
   -4.4214  -29.3754   -8.0436 C   0  0  0  0  0  0  0  0  0  0  0  0
   -2.5873  -29.6968   -8.8944 C   0  0  0  0  0  0  0  0  0  0  0  0
   -1.1940  -30.1331  -10.8095 C   0  0  0  0  0  0  0  0  0  0  0  0
   -0.8134  -30.5920  -17.1738 C   0  0  0  0  0  0  0  0  0  0  0  0
   -3.2526  -29.5346   -8.0015 N   0  0  0  0  0  0  0  0  0  0  0  0
   -2.1687  -30.5711  -17.4867 C   0  0  0  0  0  0  0  0  0  0  0  0
   -1.0892  -30.0717   -9.2653 N   0  0  0  0  0  0  0  0  0  0  0  0
  1  2  1  0
  1  3  2  0
  2  4  1  0
  3  5  1  0
  5  6  1  0
  4  7  1  0
  5  7  2  0
  6  8  1  0
  7  9  1  0
  8 10  2  0
  9 11  1  0
  9 12  2  0
  4 13  2  0
 10 14  1  0
 11 15  2  0
 13 15  1  0
  2 16  2  0
 14 17  2  0
  8 18  1  0
  6 19  2  0
 12 19  1  0
 13 20  1  0
 17 21  1  0
 18 21  2  0
 16 22  1  0
 20 22  2  0
 18 23  1  0
 19 23  1  0
M  END
>  <ID>  (1) 
conformer_0

$$$$
