
     RDKit          3D

 17 20  0  0  0  0  0  0  0  0999 V2000
   -1.3446  -31.2676  -18.1255 C   0  0  0  0  0  0  0  0  0  0  0  0
   -2.0284  -30.8898  -16.9937 C   0  0  0  0  0  0  0  0  0  0  0  0
   -0.0920  -31.2723  -17.5834 N   0  0  0  0  0  0  0  0  0  0  0  0
   -1.2087  -30.6262  -15.9842 C   0  0  0  0  0  0  0  0  0  0  0  0
   -0.0197  -30.8423  -16.4254 N   0  0  0  0  0  0  0  0  0  0  0  0
   -1.6945  -30.1311  -14.7034 C   0  0  0  0  0  0  0  0  0  0  0  0
   -0.8594  -30.1557  -13.6099 C   0  0  0  0  0  0  0  0  0  0  0  0
   -3.4736  -30.5449  -16.9784 N   0  0  0  0  0  0  0  0  0  0  0  0
    0.4410  -30.3942  -13.6679 C   0  0  0  0  0  0  0  0  0  0  0  0
    1.0245  -30.5014  -12.3525 C   0  0  0  0  0  0  0  0  0  0  0  0
   -3.1168  -29.8153  -14.6116 C   0  0  0  0  0  0  0  0  0  0  0  0
   -3.8696  -30.0137  -15.7976 N   0  0  0  0  0  0  0  0  0  0  0  0
   -0.2140  -30.3899  -11.3993 N   0  0  0  0  0  0  0  0  0  0  0  0
   -3.6668  -29.4271  -13.3793 C   0  0  0  0  0  0  0  0  0  0  0  0
   -1.2747  -30.0831  -12.2531 C   0  0  0  0  0  0  0  0  0  0  0  0
   -2.6623  -29.6199  -12.1175 C   0  0  0  0  0  0  0  0  0  0  0  0
   -0.2843  -30.5420  -10.0692 C   0  0  0  0  0  0  0  0  0  0  0  0
  1  2  1  0
  1  3  2  0
  2  4  1  0
  3  5  1  0
  4  5  2  0
  4  6  1  0
  6  7  1  0
  2  8  2  0
  7  9  1  0
  9 10  2  0
  6 11  2  0
  8 12  1  0
 11 12  1  0
 10 13  1  0
 11 14  1  0
  7 15  1  0
 13 15  1  0
 14 16  1  0
 15 16  2  0
 13 17  1  0
M  END
>  <ID>  (1) 
conformer_0

$$$$
