
     RDKit          3D

 19 22  0  0  0  0  0  0  0  0999 V2000
   -4.0526  -29.5206  -14.5809 N   0  0  0  0  0  0  0  0  0  0  0  0
   -3.0272  -29.9317  -15.3016 C   0  0  0  0  0  0  0  0  0  0  0  0
   -3.8634  -29.3747  -13.2941 C   0  0  0  0  0  0  0  0  0  0  0  0
   -1.7262  -30.1522  -14.8601 C   0  0  0  0  0  0  0  0  0  0  0  0
   -2.5074  -29.8275  -12.7790 C   0  0  0  0  0  0  0  0  0  0  0  0
   -2.2510  -29.8018  -11.3099 C   0  0  0  0  0  0  0  0  0  0  0  0
   -1.5391  -30.0484  -13.6572 C   0  0  0  0  0  0  0  0  0  0  0  0
   -3.1900  -29.5362  -10.3536 C   0  0  0  0  0  0  0  0  0  0  0  0
   -0.3276  -30.3589  -12.8261 C   0  0  0  0  0  0  0  0  0  0  0  0
   -4.3837  -29.2758  -10.3000 C   0  0  0  0  0  0  0  0  0  0  0  0
   -3.0938  -30.0895  -16.7231 N   0  0  0  0  0  0  0  0  0  0  0  0
   -5.0970  -29.0823   -9.0414 C   0  0  0  0  0  0  0  0  0  0  0  0
   -2.1722  -30.5436  -17.4944 C   0  0  0  0  0  0  0  0  0  0  0  0
   -2.8546  -29.7197   -8.8404 C   0  0  0  0  0  0  0  0  0  0  0  0
   -3.9271  -29.5557   -8.0039 N   0  0  0  0  0  0  0  0  0  0  0  0
    0.8616  -30.6174  -13.2259 C   0  0  0  0  0  0  0  0  0  0  0  0
   -0.9418  -30.8027  -16.9477 C   0  0  0  0  0  0  0  0  0  0  0  0
   -0.8353  -30.2109  -11.2582 C   0  0  0  0  0  0  0  0  0  0  0  0
   -0.6454  -30.6788  -15.6383 C   0  0  0  0  0  0  0  0  0  0  0  0
  1  2  1  0
  1  3  2  0
  2  4  1  0
  3  5  1  0
  5  6  1  0
  4  7  1  0
  5  7  2  0
  6  8  1  0
  7  9  1  0
  8 10  2  0
  2 11  2  0
 10 12  1  0
 11 13  1  0
  8 14  1  0
 12 15  2  0
 14 15  1  0
  9 16  1  0
 13 17  2  0
  6 18  1  0
  9 18  2  0
  4 19  2  0
 17 19  1  0
M  END
>  <ID>  (1) 
conformer_0

$$$$
