
     RDKit          3D

 19 22  0  0  0  0  0  0  0  0999 V2000
    0.3002  -30.2325  -12.6720 C   0  0  0  0  0  0  0  0  0  0  0  0
   -0.9603  -30.0296  -12.3309 C   0  0  0  0  0  0  0  0  0  0  0  0
    0.4429  -30.7070  -13.9910 C   0  0  0  0  0  0  0  0  0  0  0  0
   -1.9567  -30.0833  -13.3655 C   0  0  0  0  0  0  0  0  0  0  0  0
    1.7664  -31.0788  -14.5243 O   0  0  0  0  0  0  0  0  0  0  0  0
   -3.3754  -29.7130  -12.9884 C   0  0  0  0  0  0  0  0  0  0  0  0
   -1.8562  -30.2819  -14.7592 C   0  0  0  0  0  0  0  0  0  0  0  0
   -4.1774  -29.6432  -13.9426 N   0  0  0  0  0  0  0  0  0  0  0  0
   -3.7224  -29.5094  -11.5876 C   0  0  0  0  0  0  0  0  0  0  0  0
   -0.5209  -30.6548  -15.0342 C   0  0  0  0  0  0  0  0  0  0  0  0
   -3.9263  -29.9068  -15.2113 C   0  0  0  0  0  0  0  0  0  0  0  0
   -4.8370  -28.8827  -11.3453 N   0  0  0  0  0  0  0  0  0  0  0  0
   -0.2707  -30.9242  -16.3604 C   0  0  0  0  0  0  0  0  0  0  0  0
   -2.7762  -30.2320  -15.6184 C   0  0  0  0  0  0  0  0  0  0  0  0
   -3.0544  -29.9372  -10.4409 C   0  0  0  0  0  0  0  0  0  0  0  0
   -1.2250  -30.9134  -17.3151 C   0  0  0  0  0  0  0  0  0  0  0  0
   -4.9348  -28.8043   -9.9598 C   0  0  0  0  0  0  0  0  0  0  0  0
   -3.8799  -29.4508   -9.4016 N   0  0  0  0  0  0  0  0  0  0  0  0
   -2.5130  -30.5151  -16.8869 C   0  0  0  0  0  0  0  0  0  0  0  0
  1  2  1  0
  1  3  2  0
  2  4  2  0
  3  5  1  0
  4  6  1  0
  4  7  1  0
  6  8  2  0
  6  9  1  0
  3 10  1  0
  7 10  2  0
  8 11  1  0
  9 12  2  0
 10 13  1  0
  7 14  1  0
 11 14  2  0
  9 15  1  0
 13 16  2  0
 12 17  1  0
 15 18  1  0
 17 18  2  0
 14 19  1  0
 16 19  1  0
M  END
>  <ID>  (1) 
conformer_0

$$$$
