
     RDKit          3D

 14 16  0  0  0  0  0  0  0  0999 V2000
   -3.6384  -30.2913  -15.8187 N   0  0  0  0  0  0  0  0  0  0  0  0
   -2.4427  -30.6883  -16.2310 C   0  0  0  0  0  0  0  0  0  0  0  0
   -1.4084  -30.5006  -15.4661 C   0  0  0  0  0  0  0  0  0  0  0  0
   -3.8652  -29.7277  -14.6755 C   0  0  0  0  0  0  0  0  0  0  0  0
   -1.8290  -29.9916  -14.1981 C   0  0  0  0  0  0  0  0  0  0  0  0
   -0.2254  -31.0788  -15.5998 C   0  0  0  0  0  0  0  0  0  0  0  0
   -2.8853  -29.6259  -13.7666 C   0  0  0  0  0  0  0  0  0  0  0  0
   -3.2326  -29.2094  -12.5448 C   0  0  0  0  0  0  0  0  0  0  0  0
   -2.2967  -31.1173  -17.5575 N   0  0  0  0  0  0  0  0  0  0  0  0
   -0.9915  -31.5510  -17.8555 C   0  0  0  0  0  0  0  0  0  0  0  0
   -1.8947  -29.3871  -11.8945 N   0  0  0  0  0  0  0  0  0  0  0  0
   -1.0595  -29.8344  -12.8802 C   0  0  0  0  0  0  0  0  0  0  0  0
    0.0337  -31.5285  -16.8819 C   0  0  0  0  0  0  0  0  0  0  0  0
   -1.7072  -29.4367  -10.5472 C   0  0  0  0  0  0  0  0  0  0  0  0
  1  2  1  0
  2  3  1  0
  1  4  2  0
  3  5  1  0
  3  6  2  0
  4  7  1  0
  5  7  1  0
  7  8  2  0
  2  9  2  0
  9 10  1  0
  8 11  1  0
  5 12  2  0
 11 12  1  0
  6 13  1  0
 10 13  2  0
 11 14  1  0
M  END
>  <ID>  (1) 
conformer_0

$$$$
