
     RDKit          3D

 14 16  0  0  0  0  0  0  0  0999 V2000
   -2.4868  -31.0030  -17.4469 N   0  0  0  0  0  0  0  0  0  0  0  0
   -1.3526  -31.3140  -17.8526 C   0  0  0  0  0  0  0  0  0  0  0  0
   -2.7103  -30.4818  -16.1842 C   0  0  0  0  0  0  0  0  0  0  0  0
   -1.6627  -30.3073  -15.3732 C   0  0  0  0  0  0  0  0  0  0  0  0
   -1.9906  -29.7290  -14.0644 C   0  0  0  0  0  0  0  0  0  0  0  0
   -1.1542  -29.7428  -13.0173 C   0  0  0  0  0  0  0  0  0  0  0  0
   -4.0051  -29.9612  -15.9025 N   0  0  0  0  0  0  0  0  0  0  0  0
   -3.3711  -29.3797  -13.8473 C   0  0  0  0  0  0  0  0  0  0  0  0
   -1.7587  -29.7266  -11.7746 C   0  0  0  0  0  0  0  0  0  0  0  0
   -0.3674  -31.0238  -17.0910 C   0  0  0  0  0  0  0  0  0  0  0  0
   -0.4415  -30.5157  -15.7320 C   0  0  0  0  0  0  0  0  0  0  0  0
   -4.1250  -29.4407  -14.7598 C   0  0  0  0  0  0  0  0  0  0  0  0
   -3.5343  -29.1732  -12.3235 C   0  0  0  0  0  0  0  0  0  0  0  0
   -2.8404  -29.3520  -11.4364 C   0  0  0  0  0  0  0  0  0  0  0  0
  1  2  1  0
  1  3  2  0
  3  4  1  0
  4  5  1  0
  5  6  2  0
  3  7  1  0
  5  8  1  0
  6  9  1  0
  2 10  2  0
  4 11  2  0
 10 11  1  0
  7 12  2  0
  8 12  1  0
  8 13  2  0
  9 14  2  0
 13 14  1  0
M  END
>  <ID>  (1) 
conformer_0

$$$$
