
     RDKit          3D

 20 23  0  0  0  0  0  0  0  0999 V2000
   -4.0746  -29.4490  -13.7702 N   0  0  0  0  0  0  0  0  0  0  0  0
   -3.2013  -29.5170  -12.6553 C   0  0  0  0  0  0  0  0  0  0  0  0
   -1.9338  -29.8084  -13.2559 C   0  0  0  0  0  0  0  0  0  0  0  0
   -2.0602  -30.0320  -14.5862 C   0  0  0  0  0  0  0  0  0  0  0  0
   -3.4830  -29.3172  -11.3382 C   0  0  0  0  0  0  0  0  0  0  0  0
   -3.4542  -29.7913  -14.8617 C   0  0  0  0  0  0  0  0  0  0  0  0
   -4.6692  -29.0032  -10.7400 N   0  0  0  0  0  0  0  0  0  0  0  0
   -1.1728  -30.4491  -15.6671 C   0  0  0  0  0  0  0  0  0  0  0  0
   -4.7167  -29.0198   -9.3820 C   0  0  0  0  0  0  0  0  0  0  0  0
   -1.6361  -30.5060  -16.9722 C   0  0  0  0  0  0  0  0  0  0  0  0
   -5.9150  -28.8767   -8.6558 N   0  0  0  0  0  0  0  0  0  0  0  0
    0.0859  -30.7317  -15.3422 C   0  0  0  0  0  0  0  0  0  0  0  0
   -0.5618  -30.9650  -17.8459 C   0  0  0  0  0  0  0  0  0  0  0  0
    0.6170  -31.1708  -17.3339 N   0  0  0  0  0  0  0  0  0  0  0  0
    0.4323  -30.6857  -13.8784 C   0  0  0  0  0  0  0  0  0  0  0  0
   -2.6630  -29.5822  -10.2208 N   0  0  0  0  0  0  0  0  0  0  0  0
    0.9897  -31.1243  -16.1935 N   0  0  0  0  0  0  0  0  0  0  0  0
    1.6565  -30.8934  -13.3037 C   0  0  0  0  0  0  0  0  0  0  0  0
   -3.4207  -29.4213   -9.0054 C   0  0  0  0  0  0  0  0  0  0  0  0
   -0.5654  -30.1519  -12.8316 C   0  0  0  0  0  0  0  0  0  0  0  0
  1  2  2  0
  2  3  1  0
  3  4  1  0
  2  5  1  0
  1  6  1  0
  4  6  2  0
  5  7  1  0
  4  8  1  0
  7  9  1  0
  8 10  2  0
  9 11  1  0
  8 12  1  0
 10 13  1  0
 13 14  2  0
 12 15  1  0
  5 16  2  0
 12 17  2  0
 14 17  1  0
 15 18  1  0
  9 19  2  0
 16 19  1  0
  3 20  2  0
 15 20  2  0
M  END
>  <ID>  (1) 
conformer_0

$$$$
