
     RDKit          3D

 15 17  0  0  0  0  0  0  0  0999 V2000
   -4.0746  -29.4490  -13.7702 N   0  0  0  0  0  0  0  0  0  0  0  0
   -3.7839  -29.6812  -15.0096 N   0  0  0  0  0  0  0  0  0  0  0  0
   -2.6070  -30.0053  -15.4162 C   0  0  0  0  0  0  0  0  0  0  0  0
   -1.8425  -30.0089  -14.1017 C   0  0  0  0  0  0  0  0  0  0  0  0
   -1.9470  -30.3514  -16.5942 C   0  0  0  0  0  0  0  0  0  0  0  0
   -2.8019  -29.7099  -13.1505 C   0  0  0  0  0  0  0  0  0  0  0  0
   -2.6420  -30.4992  -17.7120 N   0  0  0  0  0  0  0  0  0  0  0  0
   -2.4285  -29.6637  -11.7919 N   0  0  0  0  0  0  0  0  0  0  0  0
   -1.2166  -29.9546  -11.4145 C   0  0  0  0  0  0  0  0  0  0  0  0
   -0.6369  -30.3257  -13.5893 C   0  0  0  0  0  0  0  0  0  0  0  0
   -1.6795  -30.9513  -18.5602 N   0  0  0  0  0  0  0  0  0  0  0  0
   -0.5228  -31.0544  -18.0002 N   0  0  0  0  0  0  0  0  0  0  0  0
   -0.6445  -30.7281  -16.7740 C   0  0  0  0  0  0  0  0  0  0  0  0
   -0.9006  -30.0181  -10.0837 N   0  0  0  0  0  0  0  0  0  0  0  0
   -0.2834  -30.2597  -12.2449 C   0  0  0  0  0  0  0  0  0  0  0  0
  1  2  1  0
  2  3  2  0
  3  4  1  0
  3  5  1  0
  1  6  1  0
  4  6  1  0
  5  7  1  0
  6  8  2  0
  8  9  1  0
  4 10  2  0
  7 11  2  0
 11 12  1  0
  5 13  1  0
 12 13  2  0
  9 14  1  0
  9 15  2  0
 10 15  1  0
M  END
>  <ID>  (1) 
conformer_0

$$$$
