
     RDKit          3D

 15 17  0  0  0  0  0  0  0  0999 V2000
   -4.3067  -29.4428  -14.8089 N   0  0  0  0  0  0  0  0  0  0  0  0
   -3.5192  -29.8484  -15.8016 C   0  0  0  0  0  0  0  0  0  0  0  0
   -3.6650  -29.3216  -13.5751 C   0  0  0  0  0  0  0  0  0  0  0  0
   -2.2537  -30.1920  -15.7874 C   0  0  0  0  0  0  0  0  0  0  0  0
   -2.3144  -29.8163  -13.4513 C   0  0  0  0  0  0  0  0  0  0  0  0
   -1.5914  -30.2488  -14.7595 C   0  0  0  0  0  0  0  0  0  0  0  0
   -1.4747  -30.8195  -16.8597 C   0  0  0  0  0  0  0  0  0  0  0  0
   -1.7243  -29.8460  -12.2065 C   0  0  0  0  0  0  0  0  0  0  0  0
   -0.2153  -31.0316  -16.3442 C   0  0  0  0  0  0  0  0  0  0  0  0
   -0.3111  -30.6973  -14.9481 N   0  0  0  0  0  0  0  0  0  0  0  0
    0.7410  -30.7468  -14.0118 C   0  0  0  0  0  0  0  0  0  0  0  0
   -1.7138  -31.0162  -18.2675 C   0  0  0  0  0  0  0  0  0  0  0  0
   -0.4230  -30.3266  -12.0546 C   0  0  0  0  0  0  0  0  0  0  0  0
    0.5993  -30.6765  -12.9578 C   0  0  0  0  0  0  0  0  0  0  0  0
    1.8647  -30.6729  -14.6950 O   0  0  0  0  0  0  0  0  0  0  0  0
  1  2  2  0
  1  3  1  0
  2  4  1  0
  3  5  2  0
  4  6  1  0
  5  6  1  0
  4  7  2  0
  5  8  1  0
  7  9  1  0
  6 10  1  0
  9 10  1  0
 10 11  1  0
  7 12  1  0
  8 13  2  0
 11 14  1  0
 13 14  1  0
 11 15  2  0
M  END
>  <ID>  (1) 
conformer_0

$$$$
