
     RDKit          3D

 16 19  0  0  0  0  0  0  0  0999 V2000
   -3.6384  -30.2913  -15.8187 N   0  0  0  0  0  0  0  0  0  0  0  0
   -2.4427  -30.6883  -16.2310 C   0  0  0  0  0  0  0  0  0  0  0  0
   -1.4084  -30.5006  -15.4661 C   0  0  0  0  0  0  0  0  0  0  0  0
   -2.3124  -31.4686  -17.4244 N   0  0  0  0  0  0  0  0  0  0  0  0
   -1.1406  -31.7838  -17.7962 C   0  0  0  0  0  0  0  0  0  0  0  0
   -1.8086  -29.9628  -14.2355 C   0  0  0  0  0  0  0  0  0  0  0  0
   -0.1551  -30.8442  -15.8953 C   0  0  0  0  0  0  0  0  0  0  0  0
   -3.0345  -29.5644  -13.8610 C   0  0  0  0  0  0  0  0  0  0  0  0
    0.0063  -31.4668  -17.0685 C   0  0  0  0  0  0  0  0  0  0  0  0
   -0.7705  -29.6358  -13.2098 C   0  0  0  0  0  0  0  0  0  0  0  0
   -3.2829  -29.0897  -12.5824 C   0  0  0  0  0  0  0  0  0  0  0  0
   -2.4193  -29.1484  -11.5319 C   0  0  0  0  0  0  0  0  0  0  0  0
    0.6614  -30.0504  -13.4221 C   0  0  0  0  0  0  0  0  0  0  0  0
    0.9464  -30.7169  -14.8961 C   0  0  0  0  0  0  0  0  0  0  0  0
   -4.0874  -29.7049  -14.6774 N   0  0  0  0  0  0  0  0  0  0  0  0
   -1.0365  -29.5822  -11.9195 C   0  0  0  0  0  0  0  0  0  0  0  0
  1  2  1  0
  2  3  1  0
  2  4  2  0
  4  5  1  0
  3  6  2  0
  3  7  1  0
  6  8  1  0
  5  9  2  0
  7  9  1  0
  6 10  1  0
  8 11  1  0
 11 12  2  0
 10 13  1  0
  7 14  2  0
 13 14  2  0
  1 15  1  0
  8 15  2  0
 10 16  2  0
 12 16  1  0
M  END
>  <ID>  (1) 
conformer_0

$$$$
