
     RDKit          3D

 19 22  0  0  0  0  0  0  0  0999 V2000
   -3.6384  -30.2913  -15.8187 N   0  0  0  0  0  0  0  0  0  0  0  0
   -2.4427  -30.6883  -16.2310 C   0  0  0  0  0  0  0  0  0  0  0  0
   -1.4084  -30.5006  -15.4661 C   0  0  0  0  0  0  0  0  0  0  0  0
   -2.3124  -31.4686  -17.4244 N   0  0  0  0  0  0  0  0  0  0  0  0
   -1.1406  -31.7838  -17.7962 C   0  0  0  0  0  0  0  0  0  0  0  0
   -1.8086  -29.9628  -14.2355 C   0  0  0  0  0  0  0  0  0  0  0  0
   -3.4020  -29.7055  -14.4174 C   0  0  0  0  0  0  0  0  0  0  0  0
   -1.1647  -29.6714  -13.0865 C   0  0  0  0  0  0  0  0  0  0  0  0
   -0.1544  -30.9326  -15.8337 C   0  0  0  0  0  0  0  0  0  0  0  0
   -1.8503  -29.8871  -11.8660 C   0  0  0  0  0  0  0  0  0  0  0  0
   -3.0888  -29.7374  -11.4913 C   0  0  0  0  0  0  0  0  0  0  0  0
    0.9719  -30.7280  -15.0567 O   0  0  0  0  0  0  0  0  0  0  0  0
   -0.8610  -30.0235  -10.7395 C   0  0  0  0  0  0  0  0  0  0  0  0
    0.0175  -31.5104  -17.0318 N   0  0  0  0  0  0  0  0  0  0  0  0
   -1.2179  -30.1807   -9.4940 C   0  0  0  0  0  0  0  0  0  0  0  0
   -2.6081  -30.1135   -9.0862 C   0  0  0  0  0  0  0  0  0  0  0  0
   -4.1191  -29.5181  -12.3588 C   0  0  0  0  0  0  0  0  0  0  0  0
   -3.5888  -29.8807  -10.0684 C   0  0  0  0  0  0  0  0  0  0  0  0
   -4.2269  -29.3963  -13.5808 C   0  0  0  0  0  0  0  0  0  0  0  0
  1  2  1  0
  2  3  1  0
  2  4  2  0
  4  5  1  0
  3  6  2  0
  1  7  2  0
  6  7  1  0
  6  8  1  0
  3  9  1  0
  8 10  1  0
 10 11  1  0
  9 12  1  0
 10 13  2  0
  5 14  1  0
  9 14  2  0
 13 15  1  0
 15 16  2  0
 11 17  1  0
 11 18  2  0
 16 18  1  0
  7 19  1  0
 17 19  2  0
M  END
>  <ID>  (1) 
conformer_0

$$$$
