
     RDKit          3D

 12 13  0  0  0  0  0  0  0  0999 V2000
   -3.6384  -30.2913  -15.8187 N   0  0  0  0  0  0  0  0  0  0  0  0
   -3.6969  -29.7561  -14.7086 C   0  0  0  0  0  0  0  0  0  0  0  0
   -4.7655  -29.2350  -14.1923 O   0  0  0  0  0  0  0  0  0  0  0  0
   -2.4185  -29.6889  -13.9576 C   0  0  0  0  0  0  0  0  0  0  0  0
   -1.3606  -30.2095  -14.5221 C   0  0  0  0  0  0  0  0  0  0  0  0
   -1.2883  -30.7641  -15.8215 N   0  0  0  0  0  0  0  0  0  0  0  0
   -2.4899  -30.7710  -16.4491 C   0  0  0  0  0  0  0  0  0  0  0  0
   -0.1475  -31.3053  -16.3230 C   0  0  0  0  0  0  0  0  0  0  0  0
   -2.1159  -29.3498  -12.5601 C   0  0  0  0  0  0  0  0  0  0  0  0
   -1.0109  -29.5701  -12.0005 C   0  0  0  0  0  0  0  0  0  0  0  0
   -2.3591  -31.0750  -17.7931 N   0  0  0  0  0  0  0  0  0  0  0  0
   -0.1067  -30.3246  -13.2618 S   0  0  0  0  0  0  0  0  0  0  0  0
  1  2  1  0
  2  3  2  0
  2  4  1  0
  4  5  2  0
  5  6  1  0
  1  7  2  0
  6  7  1  0
  6  8  1  0
  4  9  1  0
  9 10  2  0
  7 11  1  0
  5 12  1  0
 10 12  1  0
M  END
>  <ID>  (1) 
conformer_0

$$$$
