
     RDKit          3D

 16 18  0  0  0  0  0  0  0  0999 V2000
   -2.4868  -31.0030  -17.4469 N   0  0  0  0  0  0  0  0  0  0  0  0
   -1.3526  -31.3140  -17.8526 C   0  0  0  0  0  0  0  0  0  0  0  0
   -2.7103  -30.4818  -16.1842 C   0  0  0  0  0  0  0  0  0  0  0  0
   -1.6627  -30.3073  -15.3732 C   0  0  0  0  0  0  0  0  0  0  0  0
   -1.9906  -29.7290  -14.0644 C   0  0  0  0  0  0  0  0  0  0  0  0
   -1.1542  -29.7428  -13.0173 C   0  0  0  0  0  0  0  0  0  0  0  0
   -4.0051  -29.9612  -15.9025 N   0  0  0  0  0  0  0  0  0  0  0  0
   -3.3711  -29.3797  -13.8473 C   0  0  0  0  0  0  0  0  0  0  0  0
   -1.7587  -29.7266  -11.7746 C   0  0  0  0  0  0  0  0  0  0  0  0
   -4.1115  -29.4355  -14.7588 C   0  0  0  0  0  0  0  0  0  0  0  0
   -1.1985  -31.7435  -19.0476 N   0  0  0  0  0  0  0  0  0  0  0  0
   -3.7315  -29.1340  -12.4735 C   0  0  0  0  0  0  0  0  0  0  0  0
   -0.4627  -30.7058  -15.9325 C   0  0  0  0  0  0  0  0  0  0  0  0
   -0.7509  -29.8443  -10.6241 N   0  0  0  0  0  0  0  0  0  0  0  0
   -2.8196  -29.3034  -11.3851 C   0  0  0  0  0  0  0  0  0  0  0  0
   -0.1896  -31.1631  -17.0682 C   0  0  0  0  0  0  0  0  0  0  0  0
  1  2  1  0
  1  3  2  0
  3  4  1  0
  4  5  1  0
  5  6  2  0
  3  7  1  0
  5  8  1  0
  6  9  1  0
  7 10  2  0
  8 10  1  0
  2 11  1  0
  8 12  2  0
  4 13  2  0
  9 14  1  0
  9 15  2  0
 12 15  1  0
  2 16  2  0
 13 16  1  0
M  END
>  <ID>  (1) 
conformer_0

$$$$
