
     RDKit          3D

 19 22  0  0  0  0  0  0  0  0999 V2000
   -3.6021  -29.4444  -12.7984 C   0  0  0  0  0  0  0  0  0  0  0  0
   -3.2262  -29.6285  -14.0240 C   0  0  0  0  0  0  0  0  0  0  0  0
   -1.8415  -30.0979  -14.0992 C   0  0  0  0  0  0  0  0  0  0  0  0
   -4.8808  -28.9114  -12.5611 N   0  0  0  0  0  0  0  0  0  0  0  0
   -1.0250  -30.3122  -13.0519 C   0  0  0  0  0  0  0  0  0  0  0  0
   -1.3738  -30.4368  -15.4649 C   0  0  0  0  0  0  0  0  0  0  0  0
   -2.7830  -29.6086  -11.6471 C   0  0  0  0  0  0  0  0  0  0  0  0
   -4.8667  -28.7417  -11.1277 C   0  0  0  0  0  0  0  0  0  0  0  0
   -3.5181  -29.2302  -10.4492 C   0  0  0  0  0  0  0  0  0  0  0  0
   -0.1171  -30.8222  -15.5606 C   0  0  0  0  0  0  0  0  0  0  0  0
    0.2730  -30.8100  -13.2124 C   0  0  0  0  0  0  0  0  0  0  0  0
    0.3213  -31.0743  -16.9035 C   0  0  0  0  0  0  0  0  0  0  0  0
   -1.4376  -30.0979  -11.6515 C   0  0  0  0  0  0  0  0  0  0  0  0
   -0.3402  -31.0263  -18.0353 C   0  0  0  0  0  0  0  0  0  0  0  0
   -2.1086  -30.3137  -16.5878 C   0  0  0  0  0  0  0  0  0  0  0  0
    1.1099  -30.9457  -12.2311 O   0  0  0  0  0  0  0  0  0  0  0  0
   -3.5914  -29.9668  -16.5144 O   0  0  0  0  0  0  0  0  0  0  0  0
    0.7430  -30.9702  -14.4748 N   0  0  0  0  0  0  0  0  0  0  0  0
   -1.7239  -30.6209  -17.9572 C   0  0  0  0  0  0  0  0  0  0  0  0
  1  2  2  0
  2  3  1  0
  1  4  1  0
  3  5  2  0
  3  6  1  0
  1  7  1  0
  4  8  2  0
  7  9  2  0
  8  9  1  0
  6 10  1  0
  5 11  1  0
 10 12  2  0
  5 13  1  0
  7 13  1  0
 12 14  1  0
  6 15  2  0
 11 16  2  0
 15 17  1  0
 10 18  1  0
 11 18  1  0
 14 19  2  0
 15 19  1  0
M  END
>  <ID>  (1) 
conformer_0

$$$$
