
     RDKit          3D

 16 18  0  0  0  0  0  0  0  0999 V2000
   -2.4868  -31.0030  -17.4469 N   0  0  0  0  0  0  0  0  0  0  0  0
   -1.3526  -31.3140  -17.8526 C   0  0  0  0  0  0  0  0  0  0  0  0
   -2.7103  -30.4818  -16.1842 C   0  0  0  0  0  0  0  0  0  0  0  0
   -1.6627  -30.3073  -15.3732 C   0  0  0  0  0  0  0  0  0  0  0  0
   -1.9906  -29.7290  -14.0644 C   0  0  0  0  0  0  0  0  0  0  0  0
   -1.1542  -29.7428  -13.0173 C   0  0  0  0  0  0  0  0  0  0  0  0
   -4.0051  -29.9612  -15.9025 N   0  0  0  0  0  0  0  0  0  0  0  0
   -3.3711  -29.3797  -13.8473 C   0  0  0  0  0  0  0  0  0  0  0  0
   -1.1345  -31.7403  -19.0525 O   0  0  0  0  0  0  0  0  0  0  0  0
   -0.3110  -30.9760  -16.9288 C   0  0  0  0  0  0  0  0  0  0  0  0
   -0.3975  -30.4831  -15.7046 C   0  0  0  0  0  0  0  0  0  0  0  0
    0.1811  -30.0544  -13.0319 C   0  0  0  0  0  0  0  0  0  0  0  0
   -4.0803  -29.4653  -14.6913 C   0  0  0  0  0  0  0  0  0  0  0  0
   -1.6534  -29.2837  -11.7888 C   0  0  0  0  0  0  0  0  0  0  0  0
   -3.7515  -28.9917  -12.5123 C   0  0  0  0  0  0  0  0  0  0  0  0
   -2.9329  -29.1685  -11.5359 C   0  0  0  0  0  0  0  0  0  0  0  0
  1  2  1  0
  1  3  2  0
  3  4  1  0
  4  5  1  0
  5  6  2  0
  3  7  1  0
  5  8  1  0
  2  9  1  0
  2 10  2  0
  4 11  2  0
 10 11  1  0
  6 12  1  0
  7 13  2  0
  8 13  1  0
  6 14  1  0
  8 15  2  0
 14 16  2  0
 15 16  1  0
M  END
>  <ID>  (1) 
conformer_0

$$$$
