
     RDKit          3D

 11 12  0  0  0  0  0  0  0  0999 V2000
   -3.8907  -29.4874  -15.3742 N   0  0  0  0  0  0  0  0  0  0  0  0
   -2.7523  -30.0942  -15.5990 C   0  0  0  0  0  0  0  0  0  0  0  0
   -3.9022  -29.0337  -14.1713 C   0  0  0  0  0  0  0  0  0  0  0  0
   -1.6584  -30.3507  -14.8375 C   0  0  0  0  0  0  0  0  0  0  0  0
   -1.9490  -29.8342  -13.5653 C   0  0  0  0  0  0  0  0  0  0  0  0
   -2.3334  -30.7855  -16.9601 C   0  0  0  0  0  0  0  0  0  0  0  0
   -3.0060  -29.3592  -13.1856 N   0  0  0  0  0  0  0  0  0  0  0  0
   -0.8434  -30.1128  -12.5718 C   0  0  0  0  0  0  0  0  0  0  0  0
   -1.0439  -31.2460  -16.7889 C   0  0  0  0  0  0  0  0  0  0  0  0
   -0.5378  -31.0091  -15.4300 C   0  0  0  0  0  0  0  0  0  0  0  0
   -0.2805  -31.6961  -17.9469 C   0  0  0  0  0  0  0  0  0  0  0  0
  1  2  2  0
  1  3  1  0
  2  4  1  0
  4  5  2  0
  2  6  1  0
  3  7  2  0
  5  7  1  0
  5  8  1  0
  6  9  2  0
  4 10  1  0
  9 10  1  0
  9 11  1  0
M  END
>  <ID>  (1) 
conformer_0

$$$$
