
     RDKit          3D

 31 33  0  0  0  0  0  0  0  0999 V2000
  105.6684    3.7908  -90.6908 C   0  0  0  0  0  0  0  0  0  0  0  0
  100.9046    9.3677  -91.4235 C   0  0  0  0  0  0  0  0  0  0  0  0
   99.3717    6.8346  -90.2958 C   0  0  0  0  0  0  0  0  0  0  0  0
  101.7409    7.1077  -91.2300 C   0  0  0  0  0  0  0  0  0  0  0  0
  103.5522    2.7227  -92.6431 C   0  0  0  0  0  0  0  0  0  0  0  0
  102.6731    6.2350  -92.0009 C   0  0  0  0  0  0  0  0  0  0  0  0
  100.1793    4.4449  -92.8667 O   0  0  0  0  0  0  0  0  0  0  0  0
  106.2559    7.7474  -92.0800 C   0  0  0  0  0  0  0  0  0  0  0  0
   99.5949    9.0611  -91.3016 C   0  0  0  0  0  0  0  0  0  0  0  0
  102.6633    2.1479  -93.5612 O   0  0  0  0  0  0  0  0  0  0  0  0
   98.7112    5.8070  -89.4429 C   0  0  0  0  0  0  0  0  0  0  0  0
  102.4607    4.9452  -92.6677 N   0  0  0  0  0  0  0  0  0  0  0  0
  105.6922    2.6692  -91.4965 C   0  0  0  0  0  0  0  0  0  0  0  0
  104.9534    9.6862  -91.6183 C   0  0  0  0  0  0  0  0  0  0  0  0
  103.3979    4.0136  -91.9836 C   0  0  0  0  0  0  0  0  0  0  0  0
  106.9603    1.9700  -91.5273 C   0  0  0  0  0  0  0  0  0  0  0  0
  106.5903    4.6157  -90.2188 O   0  0  0  0  0  0  0  0  0  0  0  0
  101.4237    4.2302  -93.3590 C   0  0  0  0  0  0  0  0  0  0  0  0
  102.0189    8.4951  -91.3517 C   0  0  0  0  0  0  0  0  0  0  0  0
   98.8241    7.9837  -90.8804 C   0  0  0  0  0  0  0  0  0  0  0  0
  101.6864    3.0693  -94.2280 C   0  0  0  0  0  0  0  0  0  0  0  0
  103.5134    8.7974  -91.3523 C   0  0  0  0  0  0  0  0  0  0  0  0
  106.8874    8.5025  -92.8334 O   0  0  0  0  0  0  0  0  0  0  0  0
  100.7346    6.5856  -90.3875 C   0  0  0  0  0  0  0  0  0  0  0  0
  104.8785    8.2634  -91.5109 C   0  0  0  0  0  0  0  0  0  0  0  0
   99.6715    3.8683  -88.2103 O   0  0  0  0  0  0  0  0  0  0  0  0
  104.5400    1.8259  -91.9386 C   0  0  0  0  0  0  0  0  0  0  0  0
   97.5298    5.3345  -88.8541 O   0  0  0  0  0  0  0  0  0  0  0  0
   99.8656    5.0006  -88.8623 C   0  0  0  0  0  0  0  0  0  0  0  0
  106.3347    6.5079  -92.2118 O   0  0  0  0  0  0  0  0  0  0  0  0
  101.1164    5.4922  -89.4211 C   0  0  0  0  0  0  0  0  0  0  0  0
  1 13  1  0
  1 17  1  0
  2  9  2  0
  2 19  1  0
  3 11  2  0
  3 20  1  0
  3 24  1  0
  4  6  1  0
  4 19  1  0
  4 24  1  0
  5 10  1  0
  5 15  1  0
  5 27  1  0
  6 12  1  0
  7 18  2  0
  8 23  2  0
  8 25  1  0
  8 30  1  0
  9 20  1  0
 10 21  1  0
 11 28  1  0
 11 29  1  0
 12 15  1  0
 12 18  1  0
 13 16  1  0
 13 27  1  0
 14 25  1  0
 18 21  1  0
 19 22  1  0
 22 25  1  0
 24 31  1  0
 26 29  1  0
 29 31  1  0
M  END
>  <ID>  (1) 
conformer_0

$$$$
