
     RDKit          3D

 31 33  0  0  0  0  0  0  0  0999 V2000
   97.3418    5.2784  -89.3120 C   0  0  0  0  0  0  0  0  0  0  0  0
  107.2087    3.9763  -90.3149 O   0  0  0  0  0  0  0  0  0  0  0  0
   98.1151    8.4126  -90.7484 C   0  0  0  0  0  0  0  0  0  0  0  0
  103.4002    3.1760  -92.8338 C   0  0  0  0  0  0  0  0  0  0  0  0
  100.6720    9.9486  -91.2001 C   0  0  0  0  0  0  0  0  0  0  0  0
  107.7621    4.0342  -92.4662 O   0  0  0  0  0  0  0  0  0  0  0  0
   98.5348    3.4640  -87.7218 Cl  0  0  0  0  0  0  0  0  0  0  0  0
   99.0095   12.0434  -91.4699 Cl  0  0  0  0  0  0  0  0  0  0  0  0
  100.0391    3.2859  -92.2430 O   0  0  0  0  0  0  0  0  0  0  0  0
  101.1505    8.7734  -91.1416 C   0  0  0  0  0  0  0  0  0  0  0  0
   97.6453    7.3007  -90.5176 C   0  0  0  0  0  0  0  0  0  0  0  0
   99.3540   10.4161  -91.1367 C   0  0  0  0  0  0  0  0  0  0  0  0
  100.8279    4.7189  -90.5819 C   0  0  0  0  0  0  0  0  0  0  0  0
   97.0653    6.3194  -89.9673 C   0  0  0  0  0  0  0  0  0  0  0  0
  106.9496    4.2984  -91.4674 C   0  0  0  0  0  0  0  0  0  0  0  0
  104.6135    5.4616  -91.0862 C   0  0  0  0  0  0  0  0  0  0  0  0
   98.3401    9.5746  -90.8802 C   0  0  0  0  0  0  0  0  0  0  0  0
  101.1872    4.1584  -92.1276 C   0  0  0  0  0  0  0  0  0  0  0  0
  102.4801    2.2054  -93.4463 O   0  0  0  0  0  0  0  0  0  0  0  0
  104.8357    6.3903  -90.2132 O   0  0  0  0  0  0  0  0  0  0  0  0
  101.2390    4.3367  -93.7917 C   0  0  0  0  0  0  0  0  0  0  0  0
  102.6897    4.1496  -91.9068 C   0  0  0  0  0  0  0  0  0  0  0  0
  103.3519    5.4897  -91.7966 C   0  0  0  0  0  0  0  0  0  0  0  0
  102.2724    8.0517  -91.3094 C   0  0  0  0  0  0  0  0  0  0  0  0
   98.4973    4.6159  -89.1681 C   0  0  0  0  0  0  0  0  0  0  0  0
  105.7402    5.0191  -91.8931 C   0  0  0  0  0  0  0  0  0  0  0  0
  101.4274    2.8385  -94.2964 C   0  0  0  0  0  0  0  0  0  0  0  0
  103.3657    8.7110  -91.3676 O   0  0  0  0  0  0  0  0  0  0  0  0
  102.3912    6.5439  -91.4012 C   0  0  0  0  0  0  0  0  0  0  0  0
  101.4832    5.9715  -90.4445 N   0  0  0  0  0  0  0  0  0  0  0  0
   99.6503    4.5522  -89.8619 C   0  0  0  0  0  0  0  0  0  0  0  0
  1 14  1  0
  1 25  1  0
  2 15  2  0
  3 11  3  0
  3 17  1  0
  4 19  1  0
  4 22  1  0
  5 10  2  0
  5 12  1  0
  6 15  1  0
  7 25  1  0
  8 12  1  0
  9 18  1  0
 10 24  1  0
 11 14  1  0
 12 17  2  0
 13 18  1  0
 13 30  1  0
 13 31  2  0
 15 26  1  0
 16 20  1  0
 16 23  1  0
 16 26  1  0
 18 21  1  0
 18 22  1  0
 19 27  1  0
 21 27  1  0
 22 23  1  0
 23 29  1  0
 24 28  2  0
 24 29  1  0
 25 31  2  0
 29 30  1  0
M  END
>  <ID>  (1) 
conformer_0

$$$$
