
     RDKit          3D

 29 31  0  0  0  0  0  0  0  0999 V2000
  107.3345    4.3667  -90.2894 O   0  0  0  0  0  1  0  0  0  0  0  0
  102.3264    2.2052  -93.0968 N   0  0  0  0  0  0  0  0  0  0  0  0
  106.4152    4.4204  -91.4794 P   0  0  0  0  0  0  0  0  0  0  0  0
  101.5535    3.2227  -93.4293 C   0  0  0  0  0  0  0  0  0  0  0  0
   98.5022    8.4579  -90.2658 C   0  0  0  0  0  0  0  0  0  0  0  0
  101.0955    5.4917  -92.3258 C   0  0  0  0  0  0  0  0  0  0  0  0
  104.9436    3.9323  -91.0453 O   0  0  0  0  0  0  0  0  0  0  0  0
   99.3587    6.4766  -90.8907 C   0  0  0  0  0  0  0  0  0  0  0  0
   97.9001    3.8800  -90.4669 O   0  0  0  0  0  0  0  0  0  0  0  0
  100.8752    8.4695  -91.0574 C   0  0  0  0  0  0  0  0  0  0  0  0
  105.0146    6.6872  -91.1536 C   0  0  0  0  0  0  0  0  0  0  0  0
  103.4107    2.2483  -92.3081 C   0  0  0  0  0  0  0  0  0  0  0  0
  101.2246    9.9236  -91.1160 C   0  0  0  0  0  0  0  0  0  0  0  0
   97.6293    7.4534  -89.8336 C   0  0  0  0  0  0  0  0  0  0  0  0
  106.0791    5.9829  -91.8828 O   0  0  0  0  0  0  0  0  0  0  0  0
  102.1005    7.7071  -91.3815 C   0  0  0  0  0  0  0  0  0  0  0  0
  103.2240    8.5263  -91.1949 N   0  0  0  0  0  0  0  0  0  0  0  0
  101.9941    6.5623  -92.1092 N   0  0  0  0  0  0  0  0  0  0  0  0
   97.8449    4.8881  -89.6606 C   0  0  0  0  0  0  0  0  0  0  0  0
  101.4716    4.4238  -93.0756 N   0  0  0  0  0  0  0  0  0  0  0  0
   97.6375    4.7113  -88.4219 O   0  0  0  0  0  0  0  0  0  0  0  0
  106.9376    3.6479  -92.6725 O   0  0  0  0  0  1  0  0  0  0  0  0
  102.7971    9.9608  -91.2175 C   0  0  0  0  0  0  0  0  0  0  0  0
   99.6227    7.8273  -90.8068 N   0  0  0  0  0  0  0  0  0  0  0  0
  104.5812    8.0803  -91.2025 C   0  0  0  0  0  0  0  0  0  0  0  0
  103.9638    0.9316  -91.6589 C   0  0  0  0  0  0  0  0  0  0  0  0
   98.2173    6.1940  -90.1198 C   0  0  0  0  0  0  0  0  0  0  0  0
   99.9450    5.4874  -91.6557 N   0  0  0  0  0  0  0  0  0  0  0  0
  104.0474    3.4040  -91.9129 C   0  0  0  0  0  0  0  0  0  0  0  0
  1  3  1  0
  2  4  2  3
  2 12  1  0
  3  7  1  0
  3 22  1  0
  4 20  1  0
  5 14  1  0
  5 24  1  0
  6 18  1  0
  6 20  1  0
  6 28  2  0
  7 29  1  0
  8 24  1  0
  8 27  1  0
  8 28  1  0
  9 19  2  0
 10 13  1  0
 10 16  1  0
 10 24  1  0
 11 15  1  0
 11 25  1  0
 12 26  1  0
 12 29  2  3
 13 23  1  0
 14 27  1  0
 16 17  1  0
 16 18  2  0
 17 23  1  0
 17 25  1  0
 19 21  1  0
 19 27  1  0
M  END
>  <ID>  (1) 
conformer_0

$$$$
