
     RDKit          3D

 31 32  0  0  0  0  0  0  0  0999 V2000
   98.1819    3.9286  -89.4223 C   0  0  0  0  0  0  0  0  0  0  0  0
  100.8195    8.6980  -91.8264 N   0  0  0  0  0  0  0  0  0  0  0  0
  101.1891    3.6588  -92.8293 C   0  0  0  0  0  0  0  0  0  0  0  0
  104.3724    3.7667  -91.1088 C   0  0  0  0  0  0  0  0  0  0  0  0
  102.8515    3.5083  -90.8875 C   0  0  0  0  0  0  0  0  0  0  0  0
   98.9443    7.3390  -90.7191 C   0  0  0  0  0  0  0  0  0  0  0  0
  103.4754    8.3498  -91.3701 C   0  0  0  0  0  0  0  0  0  0  0  0
  100.7851   10.5759  -90.6959 O   0  0  0  0  0  0  0  0  0  0  0  0
  107.6321    3.8370  -92.5966 O   0  0  0  0  0  0  0  0  0  0  0  0
  104.5072    8.9172  -91.9744 O   0  0  0  0  0  0  0  0  0  0  0  0
  104.4555    5.6049  -89.6465 O   0  0  0  0  0  0  0  0  0  0  0  0
  101.4322    9.6061  -91.0965 C   0  0  0  0  0  0  0  0  0  0  0  0
  105.9689    5.5013  -91.7030 C   0  0  0  0  0  0  0  0  0  0  0  0
   96.2499    6.2255  -89.5784 O   0  0  0  0  0  0  0  0  0  0  0  0
  103.0655    1.7939  -92.6805 C   0  0  0  0  0  0  0  0  0  0  0  0
   98.5688    5.3849  -89.2950 C   0  0  0  0  0  0  0  0  0  0  0  0
  106.6747    4.1639  -91.7388 C   0  0  0  0  0  0  0  0  0  0  0  0
   97.9816    8.4991  -90.5621 C   0  0  0  0  0  0  0  0  0  0  0  0
   98.8773    3.1682  -92.3611 O   0  0  0  0  0  0  0  0  0  0  0  0
   97.4122    6.1837  -88.6474 C   0  0  0  0  0  0  0  0  0  0  0  0
  100.5903    6.3059  -92.0315 C   0  0  0  0  0  0  0  0  0  0  0  0
  102.6870    9.2793  -90.7104 N   0  0  0  0  0  0  0  0  0  0  0  0
  102.1132    2.8658  -92.0449 C   0  0  0  0  0  0  0  0  0  0  0  0
   99.7073    5.2134  -91.5397 C   0  0  0  0  0  0  0  0  0  0  0  0
  103.7714    6.8487  -91.4819 N   0  0  0  0  0  0  0  0  0  0  0  0
   98.6286    5.8832  -90.7617 C   0  0  0  0  0  0  0  0  0  0  0  0
   99.8617    3.9719  -92.3133 C   0  0  0  0  0  0  0  0  0  0  0  0
  100.1562    7.5584  -91.4518 C   0  0  0  0  0  0  0  0  0  0  0  0
  105.7094    3.1248  -91.3571 C   0  0  0  0  0  0  0  0  0  0  0  0
  104.5868    5.3360  -91.0519 C   0  0  0  0  0  0  0  0  0  0  0  0
  101.4476    3.6850  -94.3243 C   0  0  0  0  0  0  0  0  0  0  0  0
  1 16  1  0
  2 12  1  0
  2 28  1  0
  3 23  1  0
  3 27  1  0
  3 31  1  0
  4  5  1  0
  4 29  1  0
  4 30  1  0
  5 23  1  0
  6 18  1  0
  6 26  1  0
  6 28  1  0
  7 10  2  0
  7 22  1  0
  7 25  1  0
  8 12  2  0
  9 17  1  0
 11 30  1  0
 12 22  1  0
 13 17  1  0
 13 30  1  0
 14 20  1  0
 15 23  1  0
 16 20  1  0
 16 26  1  0
 17 29  1  0
 19 27  2  0
 21 24  1  0
 21 28  1  0
 24 26  1  0
 24 27  1  0
M  END
>  <ID>  (1) 
conformer_0

$$$$
