
     RDKit          3D

 32 33  0  0  0  0  0  0  0  0999 V2000
  106.2188    3.7883  -92.4601 O   0  0  0  0  0  0  0  0  0  0  0  0
  103.1710    7.4588  -91.2518 O   0  0  0  0  0  0  0  0  0  0  0  0
   98.8149    9.2255  -90.4581 C   0  0  0  0  0  0  0  0  0  0  0  0
  106.1279    5.4956  -91.0498 C   0  0  0  0  0  0  0  0  0  0  0  0
  101.5764    4.8667  -93.5472 O   0  0  0  0  0  0  0  0  0  0  0  0
  101.0713    3.2192  -94.9729 N   0  0  0  0  0  0  0  0  0  0  0  0
  101.2501    4.6405  -87.8482 C   0  0  0  0  0  0  0  0  0  0  0  0
  103.3434    8.9679  -91.5649 C   0  0  0  0  0  0  0  0  0  0  0  0
   98.7282    6.4073  -90.7310 C   0  0  0  0  0  0  0  0  0  0  0  0
  101.5194    3.5750  -93.7510 C   0  0  0  0  0  0  0  0  0  0  0  0
  105.2852    4.2905  -91.5290 C   0  0  0  0  0  0  0  0  0  0  0  0
  104.4386    2.1001  -92.5529 O   0  0  0  0  0  0  0  0  0  0  0  0
  102.1236    1.2352  -93.2013 C   0  0  0  0  0  0  0  0  0  0  0  0
  106.5533    5.3599  -89.6814 O   0  0  0  0  0  0  0  0  0  0  0  0
  103.3718    5.7704  -88.5065 C   0  0  0  0  0  0  0  0  0  0  0  0
   97.6382    7.0994  -90.1263 C   0  0  0  0  0  0  0  0  0  0  0  0
  104.2867    6.0401  -89.6587 C   0  0  0  0  0  0  0  0  0  0  0  0
   98.5202    4.9535  -90.9654 C   0  0  0  0  0  0  0  0  0  0  0  0
  100.9596    9.2756  -91.5148 O   0  0  0  0  0  0  0  0  0  0  0  0
  102.1624    9.7149  -91.0393 C   0  0  0  0  0  0  0  0  0  0  0  0
   99.8318    7.1461  -91.1183 C   0  0  0  0  0  0  0  0  0  0  0  0
  101.9958    5.4071  -88.8497 N   0  0  0  0  0  0  0  0  0  0  0  0
  105.6266    6.4953  -89.0843 C   0  0  0  0  0  0  0  0  0  0  0  0
  103.7166    4.4912  -91.8062 C   0  0  0  0  0  0  0  0  0  0  0  0
  103.5347    5.9953  -90.9860 C   0  0  0  0  0  0  0  0  0  0  0  0
  100.4863    3.6405  -88.1966 O   0  0  0  0  0  0  0  0  0  0  0  0
  103.4559    3.0625  -92.4598 C   0  0  0  0  0  0  0  0  0  0  0  0
   99.4542    3.9918  -90.8607 O   0  0  0  0  0  0  0  0  0  0  0  0
  102.1448    2.6322  -92.8487 C   0  0  0  0  0  0  0  0  0  0  0  0
   97.7133    8.4824  -90.0086 C   0  0  0  0  0  0  0  0  0  0  0  0
  101.3277    5.0483  -86.6361 O   0  0  0  0  0  0  0  0  0  0  0  0
   99.9101    8.5357  -91.0058 C   0  0  0  0  0  0  0  0  0  0  0  0
  1 11  1  0
  2  8  1  0
  2 25  1  0
  3 30  2  0
  3 32  1  0
  4 11  1  0
  4 14  1  0
  5 10  2  0
  6 10  1  0
  7 22  1  0
  7 26  2  0
  7 31  1  0
  8 20  1  0
  9 16  2  0
  9 18  1  0
  9 21  1  0
 10 29  1  0
 11 24  1  0
 12 27  1  0
 13 29  1  0
 14 23  1  0
 15 17  2  3
 15 22  1  0
 16 30  1  0
 17 23  1  0
 17 25  1  0
 18 28  1  0
 19 20  1  0
 19 32  1  0
 21 32  2  0
 24 25  1  0
 24 27  1  0
 27 29  1  0
M  END
>  <ID>  (1) 
conformer_0

$$$$
