
     RDKit          3D

 19 19  0  0  0  0  0  0  0  0999 V2000
  102.7397    1.2337  -92.6620 O   0  0  0  0  0  1  0  0  0  0  0  0
  101.3639    5.5616  -91.7142 C   0  0  0  0  0  0  0  0  0  0  0  0
  106.7139    3.1591  -92.6403 O   0  0  0  0  0  0  0  0  0  0  0  0
  105.8314    3.5404  -91.8190 C   0  0  0  0  0  0  0  0  0  0  0  0
   98.5564    9.8039  -91.2515 C   0  0  0  0  0  0  0  0  0  0  0  0
  104.5104    1.1141  -90.8147 O   0  0  0  0  0  0  0  0  0  0  0  0
  100.6825    7.8119  -90.6797 C   0  0  0  0  0  0  0  0  0  0  0  0
  103.7026    4.8172  -92.1747 C   0  0  0  0  0  0  0  0  0  0  0  0
  104.3728    3.4418  -92.3116 C   0  0  0  0  0  0  0  0  0  0  0  0
  102.4862    2.6589  -90.5903 O   0  0  0  0  0  0  0  0  0  0  0  0
  103.5091    2.0463  -91.5247 P   0  0  0  0  0  4  0  0  0  0  0  0
  106.1231    4.3147  -90.8287 O   0  0  0  0  0  0  0  0  0  0  0  0
  101.0077    9.1545  -91.4009 C   0  0  0  0  0  0  0  0  0  0  0  0
   99.3143    7.3207  -91.2354 C   0  0  0  0  0  0  0  0  0  0  0  0
   98.2302    8.3564  -90.9034 C   0  0  0  0  0  0  0  0  0  0  0  0
  101.8183    6.7959  -91.0322 C   0  0  0  0  0  0  0  0  0  0  0  0
   99.9828   10.2503  -91.0240 C   0  0  0  0  0  0  0  0  0  0  0  0
  100.3751    4.8110  -91.3571 O   0  0  0  0  0  0  0  0  0  0  0  0
  102.3088    5.0263  -92.6287 N   0  0  0  0  0  0  0  0  0  0  0  0
  1 11  2  0
  2 16  1  0
  2 18  2  0
  2 19  1  0
  3  4  2  0
  4  9  1  0
  4 12  1  0
  5 15  1  0
  5 17  1  0
  6 11  1  0
  7 13  1  0
  7 14  1  0
  7 16  1  0
  8  9  1  0
  8 19  1  0
  9 11  1  0
 10 11  1  0
 13 17  1  0
 14 15  1  0
M  END
>  <ID>  (1) 
conformer_0

$$$$
