
     RDKit          3D

 25 26  0  0  0  0  0  0  0  0999 V2000
  102.3693    6.3556  -90.0990 C   0  0  0  0  0  0  0  0  0  0  0  0
  106.9493    3.8527  -92.4668 O   0  0  0  0  0  0  0  0  0  0  0  0
  100.3849    9.2035  -91.1860 C   0  0  0  0  0  0  0  0  0  0  0  0
  101.3402    9.8295  -90.7241 O   0  0  0  0  0  0  0  0  0  0  0  0
  101.2709    6.1546  -91.1392 C   0  0  0  0  0  0  0  0  0  0  0  0
  103.0029    3.4505  -91.4536 N   0  0  0  0  0  0  0  0  0  0  0  0
   98.9460   11.1923  -91.7577 C   0  0  0  0  0  0  0  0  0  0  0  0
  105.0015    4.7140  -91.4018 N   0  0  0  0  0  0  0  0  0  0  0  0
   98.9427    5.7688  -90.4965 C   0  0  0  0  0  0  0  0  0  0  0  0
  103.7154    4.4628  -90.9275 C   0  0  0  0  0  0  0  0  0  0  0  0
  105.6231    1.5974  -93.2891 F   0  0  0  0  0  0  0  0  0  0  0  0
   98.3606    5.3095  -89.2118 C   0  0  0  0  0  0  0  0  0  0  0  0
  100.5488    7.6080  -91.2290 C   0  0  0  0  0  0  0  0  0  0  0  0
   99.1319    9.8059  -91.5125 O   0  0  0  0  0  0  0  0  0  0  0  0
  103.2114    5.2232  -89.8871 O   0  0  0  0  0  0  0  0  0  0  0  0
  104.9502    2.6346  -92.6392 C   0  0  0  0  0  0  0  0  0  0  0  0
   97.5824    6.1480  -88.5625 O   0  0  0  0  0  0  0  0  0  0  0  0
  105.6195    6.0314  -91.0756 C   0  0  0  0  0  0  0  0  0  0  0  0
  103.5603    2.5756  -92.3261 C   0  0  0  0  0  0  0  0  0  0  0  0
  105.6931    3.7606  -92.1756 C   0  0  0  0  0  0  0  0  0  0  0  0
   98.7449    4.1129  -88.8649 O   0  0  0  0  0  0  0  0  0  0  0  0
  100.1855    5.0488  -91.0816 C   0  0  0  0  0  0  0  0  0  0  0  0
  102.7825    1.6755  -92.8790 N   0  0  0  0  0  0  0  0  0  0  0  0
   99.0689    7.1984  -90.8985 C   0  0  0  0  0  0  0  0  0  0  0  0
   99.8062    4.7583  -92.4876 O   0  0  0  0  0  0  0  0  0  0  0  0
  1  5  1  0
  1 15  1  0
  2 20  2  0
  3  4  2  0
  3 13  1  0
  3 14  1  0
  5 13  1  0
  5 22  1  0
  6 10  2  0
  6 19  1  0
  7 14  1  0
  8 10  1  0
  8 18  1  0
  8 20  1  0
  9 12  1  0
  9 22  1  0
  9 24  1  0
 10 15  1  0
 11 16  1  0
 12 17  2  0
 12 21  1  0
 13 24  1  0
 16 19  1  0
 16 20  1  0
 19 23  2  0
 22 25  1  0
M  END
>  <ID>  (1) 
conformer_0

$$$$
