
     RDKit          3D

 21 23  0  0  0  0  0  0  0  0999 V2000
  102.6777    3.0435  -93.1949 C   0  0  0  0  0  0  0  0  0  0  0  0
  102.0935    9.0163  -91.2549 C   0  0  0  0  0  0  0  0  0  0  0  0
  102.2452    4.2187  -92.4829 N   0  0  0  0  0  0  0  0  0  0  0  0
  104.0778    2.4170  -93.0326 C   0  0  0  0  0  0  0  0  0  0  0  0
   97.3405    4.4311  -90.7776 C   0  0  0  0  0  0  0  0  0  0  0  0
  104.1077    5.8036  -90.5403 C   0  0  0  0  0  0  0  0  0  0  0  0
  103.1421    9.7567  -91.4235 O   0  0  0  0  0  0  0  0  0  0  0  0
  103.8187    7.2286  -90.8793 C   0  0  0  0  0  0  0  0  0  0  0  0
  106.1703    6.7364  -91.1637 C   0  0  0  0  0  0  0  0  0  0  0  0
  105.1490    7.8682  -91.1003 C   0  0  0  0  0  0  0  0  0  0  0  0
  105.5257    5.7042  -90.3370 N   0  0  0  0  0  0  0  0  0  0  0  0
  102.2896    7.4668  -91.3212 C   0  0  0  0  0  0  0  0  0  0  0  0
   99.6311    4.2987  -91.9603 C   0  0  0  0  0  0  0  0  0  0  0  0
  100.9685    4.9487  -92.1109 C   0  0  0  0  0  0  0  0  0  0  0  0
  101.0863    6.3356  -91.4844 C   0  0  0  0  0  0  0  0  0  0  0  0
  101.7625    2.6735  -94.3407 C   0  0  0  0  0  0  0  0  0  0  0  0
   98.3750    5.0292  -91.7510 C   0  0  0  0  0  0  0  0  0  0  0  0
  101.0926    9.4614  -90.7050 O   0  0  0  0  0  0  0  0  0  0  0  0
  103.4327    4.7631  -91.5218 C   0  0  0  0  0  0  0  0  0  0  0  0
   98.4259    6.5150  -91.5839 C   0  0  0  0  0  0  0  0  0  0  0  0
   99.7528    7.1036  -91.0545 C   0  0  0  0  0  0  0  0  0  0  0  0
  1  3  1  0
  1  4  1  0
  1 16  1  0
  2  7  2  0
  2 12  1  0
  2 18  1  0
  3 14  1  0
  3 19  1  0
  5 17  1  0
  6  8  1  0
  6 11  1  0
  6 19  1  0
  8 10  1  0
  8 12  1  0
  9 10  1  0
  9 11  1  0
 12 15  1  0
 13 14  1  0
 13 17  1  0
 14 15  2  0
 15 21  1  0
 17 20  1  0
 20 21  1  0
M  END
>  <ID>  (1) 
conformer_0

$$$$
