
     RDKit          3D

 42 46  0  0  0  0  0  0  0  0999 V2000
   97.6990    4.7362  -84.9415 C   0  0  0  0  0  0  0  0  0  0  0  0
   99.7693    4.5020  -86.0590 C   0  0  0  0  0  0  0  0  0  0  0  0
  103.9934    2.3472  -92.3022 C   0  0  0  0  0  0  0  0  0  0  0  0
  106.1276    1.8826  -90.7707 O   0  0  0  0  0  1  0  0  0  0  0  0
   96.1414    5.0556  -88.9131 O   0  0  0  0  0  0  0  0  0  0  0  0
   97.3246    5.5028  -88.5913 C   0  0  0  0  0  0  0  0  0  0  0  0
   98.1667    5.8448  -89.6969 N   0  0  0  0  0  0  0  0  0  0  0  0
  101.4085    3.8954  -87.7184 C   0  0  0  0  0  0  0  0  0  0  0  0
   97.8964    5.2122  -87.2912 C   0  0  0  0  0  0  0  0  0  0  0  0
   99.0401    4.3739  -84.8772 C   0  0  0  0  0  0  0  0  0  0  0  0
  102.4701    6.8276  -91.2216 N   0  0  0  0  0  0  0  0  0  0  0  0
   97.8962    9.3600  -90.7760 C   0  0  0  0  0  0  0  0  0  0  0  0
  102.9080    3.2058  -92.4715 C   0  0  0  0  0  0  0  0  0  0  0  0
   98.6706    4.7694  -90.7059 C   0  0  0  0  0  0  0  0  0  0  0  0
   99.1746    4.9372  -87.1635 C   0  0  0  0  0  0  0  0  0  0  0  0
  102.5603    5.4209  -90.9184 C   0  0  0  0  0  0  0  0  0  0  0  0
  102.1584    9.1945  -91.3293 C   0  0  0  0  0  0  0  0  0  0  0  0
  101.7208    2.6785  -92.9961 C   0  0  0  0  0  0  0  0  0  0  0  0
  103.9382    0.9869  -92.6424 C   0  0  0  0  0  0  0  0  0  0  0  0
  106.3814    3.2135  -92.8946 O   0  0  0  0  0  0  0  0  0  0  0  0
   98.5081    8.1083  -90.6936 C   0  0  0  0  0  0  0  0  0  0  0  0
  100.8509    4.8482  -93.7587 C   0  0  0  0  0  0  0  0  0  0  0  0
  102.9684    4.6537  -92.1061 C   0  0  0  0  0  0  0  0  0  0  0  0
  104.2325    8.2258  -91.4290 O   0  0  0  0  0  0  0  0  0  0  0  0
  105.4103    4.2249  -90.8717 O   0  0  0  0  0  0  0  0  0  0  0  0
  101.4754    4.1446  -89.1575 N   0  0  0  0  0  0  0  0  0  0  0  0
  101.6531    1.3528  -93.4087 C   0  0  0  0  0  0  0  0  0  0  0  0
   99.5622    4.0187  -91.9344 C   0  0  0  0  0  0  0  0  0  0  0  0
   99.8811    8.0286  -90.8350 C   0  0  0  0  0  0  0  0  0  0  0  0
  105.5342    2.9329  -91.6867 P   0  0  0  0  0  4  0  0  0  0  0  0
   98.0095   11.7949  -91.0713 C   0  0  0  0  0  0  0  0  0  0  0  0
  100.5652    3.5507  -93.0797 N   0  0  0  0  0  0  0  0  0  0  0  0
  100.0398   10.4057  -91.1538 C   0  0  0  0  0  0  0  0  0  0  0  0
  100.6836    9.1445  -91.0803 C   0  0  0  0  0  0  0  0  0  0  0  0
  101.2244    4.0964  -86.2080 C   0  0  0  0  0  0  0  0  0  0  0  0
  102.2904    5.1590  -89.5039 C   0  0  0  0  0  0  0  0  0  0  0  0
  102.7934    5.8580  -88.6357 O   0  0  0  0  0  0  0  0  0  0  0  0
   98.6746   10.4835  -90.9919 C   0  0  0  0  0  0  0  0  0  0  0  0
   97.5871    6.9099  -90.5293 C   0  0  0  0  0  0  0  0  0  0  0  0
  102.9971    8.0826  -91.3295 C   0  0  0  0  0  0  0  0  0  0  0  0
  102.7700    0.4866  -93.2417 C   0  0  0  0  0  0  0  0  0  0  0  0
   97.1253    5.1727  -86.1426 C   0  0  0  0  0  0  0  0  0  0  0  0
  1 10  2  0
  1 42  1  0
  2 10  1  0
  2 15  2  0
  2 35  1  0
  3 13  2  0
  3 19  1  0
  3 30  1  0
  4 30  2  0
  5  6  2  0
  6  7  1  0
  6  9  1  0
  7 14  1  0
  7 39  1  0
  8 26  1  0
  8 35  1  0
  9 15  1  0
  9 42  2  0
 11 16  1  0
 11 40  1  0
 12 21  1  0
 12 38  1  0
 13 18  1  0
 13 23  1  0
 14 28  3  0
 16 23  1  0
 16 36  1  0
 17 34  2  0
 17 40  1  0
 18 27  2  0
 18 32  1  0
 19 41  2  0
 20 30  1  0
 21 29  2  0
 21 39  1  0
 22 32  1  0
 24 40  2  0
 25 30  1  0
 26 36  1  0
 27 41  1  0
 28 32  1  0
 29 34  1  0
 31 38  1  0
 33 34  1  0
 33 38  2  0
 36 37  2  0
M  END
>  <ID>  (1) 
conformer_0

$$$$
