
     RDKit          3D

 22 24  0  0  0  0  0  0  0  0999 V2000
   98.5468    9.7339  -91.3544 S   0  0  0  0  0  0  0  0  0  0  0  0
   99.7075    4.8431  -90.7517 C   0  0  0  0  0  0  0  0  0  0  0  0
  100.2458   10.3701  -91.1739 C   0  0  0  0  0  0  0  0  0  0  0  0
  101.1394    9.4176  -91.0077 N   0  0  0  0  0  0  0  0  0  0  0  0
  103.5080    7.0817  -90.7467 C   0  0  0  0  0  0  0  0  0  0  0  0
  102.3636    6.2375  -91.1785 C   0  0  0  0  0  0  0  0  0  0  0  0
  104.6799    5.2859  -91.8542 O   0  0  0  0  0  0  0  0  0  0  0  0
  106.1166    7.1164  -91.1772 C   0  0  0  0  0  0  0  0  0  0  0  0
  102.4687    4.9286  -90.4545 C   0  0  0  0  0  0  0  0  0  0  0  0
  104.9638    2.9675  -92.4958 C   0  0  0  0  0  0  0  0  0  0  0  0
  104.8084    6.3463  -90.8770 C   0  0  0  0  0  0  0  0  0  0  0  0
  100.6334    8.1546  -91.0694 C   0  0  0  0  0  0  0  0  0  0  0  0
  103.9536    4.0955  -92.1440 C   0  0  0  0  0  0  0  0  0  0  0  0
   99.8339    6.1378  -91.0042 C   0  0  0  0  0  0  0  0  0  0  0  0
  105.8104    2.6807  -91.4201 O   0  0  0  0  0  0  0  0  0  0  0  0
   99.1987    8.1733  -91.1888 C   0  0  0  0  0  0  0  0  0  0  0  0
  103.6979    8.4019  -91.1227 O   0  0  0  0  0  0  0  0  0  0  0  0
  103.1213    3.7714  -90.9241 C   0  0  0  0  0  0  0  0  0  0  0  0
   98.7447    6.9351  -91.1706 N   0  0  0  0  0  0  0  0  0  0  0  0
  102.5714    5.2439  -89.0549 O   0  0  0  0  0  0  0  0  0  0  0  0
  100.9702    6.8650  -91.0607 N   0  0  0  0  0  0  0  0  0  0  0  0
  102.9779    2.4452  -90.8422 O   0  0  0  0  0  0  0  0  0  0  0  0
  1  3  1  0
  1 16  1  0
  2 14  2  0
  3  4  1  0
  4 12  1  0
  5  6  1  0
  5 11  1  0
  5 17  1  0
  6  9  1  0
  6 21  1  0
  7 11  1  0
  7 13  1  0
  8 11  1  0
  9 18  1  0
  9 20  1  0
 10 13  1  0
 10 15  1  0
 12 16  2  0
 12 21  1  0
 13 18  1  0
 14 19  1  0
 14 21  1  0
 16 19  1  0
 18 22  1  0
M  END
>  <ID>  (1) 
conformer_0

$$$$
