
     RDKit          3D

 29 30  0  0  0  0  0  0  0  0999 V2000
  101.3649    2.6490  -93.7084 C   0  0  0  0  0  0  0  0  0  0  0  0
  106.4944    3.5534  -90.8660 O   0  0  0  0  0  0  0  0  0  0  0  0
   99.4936    6.1705  -89.9417 C   0  0  0  0  0  0  0  0  0  0  0  0
   99.3303   10.6205  -91.4286 C   0  0  0  0  0  0  0  0  0  0  0  0
  107.6566    5.8168  -89.4809 O   0  0  0  0  0  1  0  0  0  0  0  0
  107.7510    8.4581  -90.2510 O   0  0  0  0  0  0  0  0  0  0  0  0
  101.9215    4.2799  -91.7982 N   0  0  0  0  0  0  0  0  0  0  0  0
  105.2898    6.7406  -90.3814 C   0  0  0  0  0  0  0  0  0  0  0  0
   98.9246    8.2884  -90.9041 C   0  0  0  0  0  0  0  0  0  0  0  0
  107.9235    6.9250  -90.5811 P   0  0  0  0  0  4  0  0  0  0  0  0
  102.9094    6.8984  -90.1852 O   0  0  0  0  0  0  0  0  0  0  0  0
  109.4131    6.6848  -90.8846 O   0  0  0  0  0  0  0  0  0  0  0  0
  100.9082    5.2835  -91.9710 C   0  0  0  0  0  0  0  0  0  0  0  0
  106.2732    6.7278  -91.5849 C   0  0  0  0  0  0  0  0  0  0  0  0
  104.5485    3.5159  -92.1159 C   0  0  0  0  0  0  0  0  0  0  0  0
  105.3006    4.2996  -91.1080 C   0  0  0  0  0  0  0  0  0  0  0  0
  104.7288    5.3195  -90.1018 C   0  0  0  0  0  0  0  0  0  0  0  0
   98.7891    7.4474  -89.6900 C   0  0  0  0  0  0  0  0  0  0  0  0
  100.9692    5.6169  -93.3120 O   0  0  0  0  0  0  0  0  0  0  0  0
  103.5400    2.6207  -92.7802 C   0  0  0  0  0  0  0  0  0  0  0  0
  102.1098    1.6268  -94.2785 N   0  0  0  0  0  0  0  0  0  0  0  0
  103.2958    1.3558  -93.5005 C   0  0  0  0  0  0  0  0  0  0  0  0
   99.6574    7.4317  -91.7803 C   0  0  0  0  0  0  0  0  0  0  0  0
  103.3586    5.8347  -89.5766 C   0  0  0  0  0  0  0  0  0  0  0  0
   98.4458    9.5238  -91.1157 O   0  0  0  0  0  0  0  0  0  0  0  0
  100.0488    6.2183  -91.2390 C   0  0  0  0  0  0  0  0  0  0  0  0
  102.9491    5.5392  -88.4666 O   0  0  0  0  0  0  0  0  0  0  0  0
  102.2702    3.3571  -92.8493 C   0  0  0  0  0  0  0  0  0  0  0  0
  100.1267    2.6053  -93.4886 O   0  0  0  0  0  0  0  0  0  0  0  0
  1 21  1  0
  1 28  1  0
  1 29  2  0
  2 16  1  0
  3 18  1  0
  3 26  1  0
  4 25  1  0
  5 10  2  0
  6 10  1  0
  7 13  1  0
  7 28  1  0
  8 14  1  0
  8 17  1  0
  9 18  1  0
  9 23  2  0
  9 25  1  0
 10 12  1  0
 10 14  1  0
 11 24  2  0
 13 19  2  0
 13 26  1  0
 15 16  2  0
 15 20  2  0
 16 17  1  0
 17 24  1  0
 20 22  1  0
 20 28  1  0
 21 22  1  0
 23 26  1  0
 24 27  1  0
M  END
>  <ID>  (1) 
conformer_0

$$$$
