
     RDKit          3D

 23 23  0  0  0  0  0  0  0  0999 V2000
  100.5841   11.2668  -91.0709 O   0  0  0  0  0  0  0  0  0  0  0  0
   98.8827    7.5678  -90.8425 C   0  0  0  0  0  0  0  0  0  0  0  0
  100.0492    4.5254  -89.5314 C   0  0  0  0  0  0  0  0  0  0  0  0
  104.8305    1.9142  -92.2748 C   0  0  0  0  0  0  0  0  0  0  0  0
   98.0839    8.6611  -90.8499 C   0  0  0  0  0  0  0  0  0  0  0  0
  106.8682    1.8494  -91.1571 O   0  0  0  0  0  0  0  0  0  0  0  0
  106.4679    3.6736  -92.3940 O   0  0  0  0  0  0  0  0  0  0  0  0
  102.2106    4.7028  -92.4370 C   0  0  0  0  0  0  0  0  0  0  0  0
  100.0467    4.9911  -93.2285 O   0  0  0  0  0  0  0  0  0  0  0  0
  106.0735    2.5709  -91.8611 C   0  0  0  0  0  0  0  0  0  0  0  0
   98.9310    4.4920  -90.5166 O   0  0  0  0  0  0  0  0  0  0  0  0
   98.6335    9.9385  -90.9205 C   0  0  0  0  0  0  0  0  0  0  0  0
  100.8352    8.9188  -91.0244 C   0  0  0  0  0  0  0  0  0  0  0  0
  102.1843    9.0864  -91.1737 F   0  0  0  0  0  0  0  0  0  0  0  0
  100.7219    4.3720  -92.0910 C   0  0  0  0  0  0  0  0  0  0  0  0
  101.0166    6.4315  -90.8150 C   0  0  0  0  0  0  0  0  0  0  0  0
  100.2051    5.1616  -90.8640 C   0  0  0  0  0  0  0  0  0  0  0  0
  103.6125    4.0765  -92.4267 C   0  0  0  0  0  0  0  0  0  0  0  0
  102.4334    2.0479  -91.9149 O   0  0  0  0  0  0  0  0  0  0  0  0
  102.2309    6.3346  -90.2087 O   0  0  0  0  0  0  0  0  0  0  0  0
  100.0191   10.0961  -90.9989 C   0  0  0  0  0  0  0  0  0  0  0  0
  103.5767    2.6849  -92.0372 C   0  0  0  0  0  0  0  0  0  0  0  0
  100.2433    7.6584  -90.9052 C   0  0  0  0  0  0  0  0  0  0  0  0
  1 21  1  0
  2  5  2  0
  2 23  1  0
  3 17  1  0
  4 10  1  0
  4 22  1  0
  5 12  1  0
  6 10  2  0
  7 10  1  0
  8 15  1  0
  8 18  1  0
  9 15  1  0
 11 17  1  0
 12 21  2  0
 13 14  1  0
 13 21  1  0
 13 23  2  0
 15 17  1  0
 16 17  1  0
 16 20  1  0
 16 23  1  0
 18 22  1  0
 19 22  1  0
M  END
>  <ID>  (1) 
conformer_0

$$$$
