
     RDKit          3D

 25 27  0  0  0  0  0  0  0  0999 V2000
   98.2753    5.1114  -89.8916 C   0  0  0  0  0  0  0  0  0  0  0  0
   99.7870   10.1780  -91.2625 C   0  0  0  0  0  0  0  0  0  0  0  0
  106.3837    1.8691  -90.7801 O   0  0  0  0  0  1  0  0  0  0  0  0
  105.3967    2.2616  -91.8610 P   0  0  0  0  0  4  0  0  0  0  0  0
  101.1367    9.7704  -91.3168 C   0  0  0  0  0  0  0  0  0  0  0  0
   99.6513    5.2475  -90.4433 N   0  0  0  0  0  0  0  0  0  0  0  0
   99.4822   11.4355  -91.6006 F   0  0  0  0  0  0  0  0  0  0  0  0
   97.3296    4.9060  -91.0581 C   0  0  0  0  0  0  0  0  0  0  0  0
  103.4507    3.9931  -91.4823 C   0  0  0  0  0  0  0  0  0  0  0  0
  101.1546    4.5263  -92.1801 C   0  0  0  0  0  0  0  0  0  0  0  0
  101.8111    5.6432  -91.4302 C   0  0  0  0  0  0  0  0  0  0  0  0
   98.3661    4.0061  -88.5520 S   0  0  0  0  0  0  0  0  0  0  0  0
  103.0879    5.2460  -90.9181 O   0  0  0  0  0  0  0  0  0  0  0  0
  104.8240    3.6898  -91.4851 O   0  0  0  0  0  0  0  0  0  0  0  0
  102.3454    3.5853  -92.4129 C   0  0  0  0  0  0  0  0  0  0  0  0
  104.2412    1.2035  -91.8643 O   0  0  0  0  0  0  0  0  0  0  0  0
  100.4485    7.5824  -90.6562 C   0  0  0  0  0  0  0  0  0  0  0  0
  101.4487    8.4680  -91.0246 C   0  0  0  0  0  0  0  0  0  0  0  0
   99.6087    4.6401  -91.8261 C   0  0  0  0  0  0  0  0  0  0  0  0
   99.1469    8.0235  -90.5605 C   0  0  0  0  0  0  0  0  0  0  0  0
  104.1964    6.2379  -90.8185 C   0  0  0  0  0  0  0  0  0  0  0  0
   98.2334    5.2313  -92.2851 C   0  0  0  0  0  0  0  0  0  0  0  0
  105.9610    2.3452  -93.2995 O   0  0  0  0  0  0  0  0  0  0  0  0
  100.8255    6.1387  -90.3854 C   0  0  0  0  0  0  0  0  0  0  0  0
   98.7578    9.2860  -90.9083 C   0  0  0  0  0  0  0  0  0  0  0  0
  1  6  1  0
  1  8  1  0
  1 12  1  0
  2  5  2  0
  2  7  1  0
  2 25  1  0
  3  4  2  0
  4 14  1  0
  4 16  1  0
  4 23  1  0
  5 18  1  0
  6 19  1  0
  6 24  1  0
  8 22  1  0
  9 13  1  0
  9 14  1  0
  9 15  1  0
 10 11  1  0
 10 15  1  0
 10 19  1  0
 11 24  1  0
 13 21  1  0
 17 18  2  0
 17 20  1  0
 17 24  1  0
 19 22  1  0
 20 25  2  0
M  END
>  <ID>  (1) 
conformer_0

$$$$
