
     RDKit          3D

 21 22  0  0  0  0  0  0  0  0999 V2000
  105.4763    1.5904  -91.1175 O   0  0  0  0  0  0  0  0  0  0  0  0
  105.6381    4.0588  -91.3483 C   0  0  0  0  0  0  0  0  0  0  0  0
   98.7058    5.4105  -91.9190 C   0  0  0  0  0  0  0  0  0  0  0  0
  102.4228    6.3061  -91.3269 C   0  0  0  0  0  0  0  0  0  0  0  0
  105.7004    2.6026  -91.8301 C   0  0  0  0  0  0  0  0  0  0  0  0
   98.5877    4.1004  -91.4599 O   0  0  0  0  0  0  0  0  0  0  0  0
   99.8714    7.5324  -91.4125 C   0  0  0  0  0  0  0  0  0  0  0  0
   99.8166   10.3554  -91.1192 C   0  0  0  0  0  0  0  0  0  0  0  0
  103.8443    5.8009  -91.0633 C   0  0  0  0  0  0  0  0  0  0  0  0
  103.4813    3.3730  -90.9249 O   0  0  0  0  0  0  0  0  0  0  0  0
  104.1470    4.4416  -91.5046 C   0  0  0  0  0  0  0  0  0  0  0  0
  101.2204    5.5404  -91.6110 C   0  0  0  0  0  0  0  0  0  0  0  0
  102.2725    7.6934  -91.2499 C   0  0  0  0  0  0  0  0  0  0  0  0
  101.0398    9.7108  -91.1589 C   0  0  0  0  0  0  0  0  0  0  0  0
  101.3007    4.2592  -91.9361 O   0  0  0  0  0  0  0  0  0  0  0  0
   99.9377    6.1573  -91.6173 C   0  0  0  0  0  0  0  0  0  0  0  0
   98.6226    9.6071  -91.1892 C   0  0  0  0  0  0  0  0  0  0  0  0
  104.1708    6.0761  -89.7255 O   0  0  0  0  0  0  0  0  0  0  0  0
  101.0583    8.2808  -91.2760 C   0  0  0  0  0  0  0  0  0  0  0  0
   98.6599    8.2186  -91.3398 C   0  0  0  0  0  0  0  0  0  0  0  0
  105.8839    2.5267  -93.1029 O   0  0  0  0  0  0  0  0  0  0  0  0
  1  5  2  0
  2  5  1  0
  2 11  1  0
  3  6  1  0
  3 16  1  0
  4  9  1  0
  4 12  1  0
  4 13  1  0
  5 21  1  0
  7 16  1  0
  7 19  1  0
  7 20  2  0
  8 14  2  0
  8 17  1  0
  9 11  1  0
  9 18  1  0
 10 11  1  0
 12 15  1  0
 12 16  2  0
 13 19  2  0
 14 19  1  0
 17 20  1  0
M  END
>  <ID>  (1) 
conformer_0

$$$$
