
     RDKit          3D

 26 28  0  0  0  0  0  0  0  0999 V2000
  106.8265    3.2639  -92.4082 O   0  0  0  0  0  0  0  0  0  0  0  0
   99.7522    5.0595  -92.0895 C   0  0  0  0  0  0  0  0  0  0  0  0
  104.5531    3.3244  -92.2564 N   0  0  0  0  0  0  0  0  0  0  0  0
  101.2771    4.8174  -92.4327 N   0  0  0  0  0  0  0  0  0  0  0  0
  102.2964    5.9462  -90.1022 S   0  0  0  0  0  0  0  0  0  0  0  0
  105.7777    2.8865  -91.7939 C   0  0  0  0  0  0  0  0  0  0  0  0
   99.6009    5.2759  -90.5434 C   0  0  0  0  0  0  0  0  0  0  0  0
  100.5391    6.3884  -90.1245 C   0  0  0  0  0  0  0  0  0  0  0  0
  102.5095    4.7405  -91.6322 C   0  0  0  0  0  0  0  0  0  0  0  0
  100.1893    7.7656  -90.5878 C   0  0  0  0  0  0  0  0  0  0  0  0
  101.6343    1.4959  -93.0287 O   0  0  0  0  0  0  0  0  0  0  0  0
   98.7739    4.4174  -88.4867 O   0  0  0  0  0  0  0  0  0  0  0  0
  101.1661    8.7311  -90.9350 C   0  0  0  0  0  0  0  0  0  0  0  0
   99.0361   11.7409  -91.5347 C   0  0  0  0  0  0  0  0  0  0  0  0
   98.4293    9.3869  -91.0137 C   0  0  0  0  0  0  0  0  0  0  0  0
  105.8291    2.1141  -90.7984 O   0  0  0  0  0  0  0  0  0  0  0  0
   98.4912    4.8032  -89.6653 C   0  0  0  0  0  0  0  0  0  0  0  0
  103.7351    2.6035  -93.1687 C   0  0  0  0  0  0  0  0  0  0  0  0
  101.3679    3.8190  -93.5027 C   0  0  0  0  0  0  0  0  0  0  0  0
  104.0297    4.5646  -91.6942 C   0  0  0  0  0  0  0  0  0  0  0  0
   97.2953    4.7535  -90.1706 O   0  0  0  0  0  0  0  0  0  0  0  0
  102.2918    2.6789  -93.2047 C   0  0  0  0  0  0  0  0  0  0  0  0
  100.7642   10.0111  -91.2633 C   0  0  0  0  0  0  0  0  0  0  0  0
   98.8445    8.1123  -90.6710 C   0  0  0  0  0  0  0  0  0  0  0  0
   99.4071   10.3679  -91.2620 C   0  0  0  0  0  0  0  0  0  0  0  0
  104.5462    1.5991  -93.9367 C   0  0  0  0  0  0  0  0  0  0  0  0
  1  6  2  0
  2  4  1  0
  2  7  1  0
  3  6  1  0
  3 18  1  0
  3 20  1  0
  4  9  1  0
  4 19  1  0
  5  8  1  0
  5  9  1  0
  6 16  1  0
  7  8  1  0
  7 17  1  0
  8 10  1  0
  9 20  1  0
 10 13  1  0
 10 24  1  0
 11 22  1  0
 12 17  2  0
 13 23  2  0
 14 25  1  0
 15 24  2  0
 15 25  1  0
 17 21  1  0
 18 22  1  0
 18 26  1  0
 19 22  1  0
 23 25  1  0
M  END
>  <ID>  (1) 
conformer_0

$$$$
