
     RDKit          3D

 26 27  0  0  0  0  0  0  0  0999 V2000
   97.5718    5.3051  -88.2921 O   0  0  0  0  0  0  0  0  0  0  0  0
  103.9687    3.3109  -91.9927 C   0  0  0  0  0  0  0  0  0  0  0  0
  106.4129    5.0721  -91.3559 C   0  0  0  0  0  0  0  0  0  0  0  0
  100.3061    5.5351  -91.5797 C   0  0  0  0  0  0  0  0  0  0  0  0
  105.3603    7.3590  -90.6908 C   0  0  0  0  0  0  0  0  0  0  0  0
  101.2200    4.0307  -93.3670 N   0  0  0  0  0  0  0  0  0  0  0  0
   99.1293    5.4211  -90.8144 C   0  0  0  0  0  0  0  0  0  0  0  0
   98.1969    9.0026  -90.3685 C   0  0  0  0  0  0  0  0  0  0  0  0
  102.0581    2.9332  -93.6148 C   0  0  0  0  0  0  0  0  0  0  0  0
  105.2290    8.6635  -91.3940 C   0  0  0  0  0  0  0  0  0  0  0  0
  103.4630    2.8442  -93.2254 C   0  0  0  0  0  0  0  0  0  0  0  0
  101.3917    1.6443  -93.5543 C   0  0  0  0  0  0  0  0  0  0  0  0
  104.9833    4.9494  -90.6128 C   0  0  0  0  0  0  0  0  0  0  0  0
  106.6435    6.6651  -91.3961 C   0  0  0  0  0  0  0  0  0  0  0  0
  104.1677    6.1407  -88.8131 O   0  0  0  0  0  0  0  0  0  0  0  0
   99.0729    7.8035  -90.6133 C   0  0  0  0  0  0  0  0  0  0  0  0
  104.2441    1.9464  -93.8834 O   0  0  0  0  0  0  0  0  0  0  0  0
  100.8882    4.3437  -92.0781 O   0  0  0  0  0  0  0  0  0  0  0  0
  104.6983    6.2438  -89.9537 C   0  0  0  0  0  0  0  0  0  0  0  0
   98.4141    4.1399  -90.7660 C   0  0  0  0  0  0  0  0  0  0  0  0
   98.6005    6.5531  -90.2207 C   0  0  0  0  0  0  0  0  0  0  0  0
  104.0283    4.8028  -91.8136 N   0  0  0  0  0  0  0  0  0  0  0  0
  100.2547    7.9374  -91.3325 C   0  0  0  0  0  0  0  0  0  0  0  0
  100.8621    6.7767  -91.8231 C   0  0  0  0  0  0  0  0  0  0  0  0
   97.4797    6.4483  -89.2100 C   0  0  0  0  0  0  0  0  0  0  0  0
  103.9170    9.1604  -91.4943 O   0  0  0  0  0  0  0  0  0  0  0  0
  1 25  1  0
  2 11  1  0
  2 22  1  0
  3 13  1  0
  3 14  1  0
  4  7  1  0
  4 18  1  0
  4 24  2  0
  5 10  1  0
  5 14  1  0
  5 19  1  0
  6  9  1  0
  6 18  1  0
  7 20  1  0
  7 21  1  0
  8 16  1  0
  9 11  1  0
  9 12  1  0
 10 26  1  0
 11 17  1  0
 13 19  1  0
 13 22  1  0
 15 19  2  0
 16 21  1  0
 16 23  2  0
 21 25  1  0
 23 24  1  0
M  END
>  <ID>  (1) 
conformer_0

$$$$
