
     RDKit          3D

 24 24  0  0  0  0  0  0  0  0999 V2000
  101.1679    7.6495  -90.8062 C   0  0  0  0  0  0  0  0  0  0  0  0
  103.5831    4.5281  -92.2160 C   0  0  0  0  0  0  0  0  0  0  0  0
  107.5799    3.9601  -89.8144 O   0  0  0  0  0  0  0  0  0  0  0  0
  101.3532    5.1988  -93.3862 C   0  0  0  0  0  0  0  0  0  0  0  0
  100.6349    8.8417  -91.0309 C   0  0  0  0  0  0  0  0  0  0  0  0
  106.3359    3.2261  -92.8057 O   0  0  0  0  0  0  0  0  0  0  0  0
   99.2370    8.9302  -91.2916 C   0  0  0  0  0  0  0  0  0  0  0  0
  104.8515    5.8241  -90.4892 C   0  0  0  0  0  0  0  0  0  0  0  0
  101.1959    5.2949  -90.9385 O   0  0  0  0  0  0  0  0  0  0  0  0
  105.3391    7.1719  -90.6318 C   0  0  0  0  0  0  0  0  0  0  0  0
  101.5243   10.0355  -91.0860 C   0  0  0  0  0  0  0  0  0  0  0  0
  106.1042    3.9859  -91.7320 C   0  0  0  0  0  0  0  0  0  0  0  0
  104.9651    4.9106  -91.6492 C   0  0  0  0  0  0  0  0  0  0  0  0
  100.4292    6.4885  -90.9463 C   0  0  0  0  0  0  0  0  0  0  0  0
  102.2396    5.3122  -92.0268 C   0  0  0  0  0  0  0  0  0  0  0  0
   98.6157   10.1667  -91.3905 F   0  0  0  0  0  0  0  0  0  0  0  0
  103.0877    2.7373  -91.7515 P   0  0  0  0  0  4  0  0  0  0  0  0
   99.0552    6.5196  -91.1741 C   0  0  0  0  0  0  0  0  0  0  0  0
   98.4534    7.7659  -91.3978 C   0  0  0  0  0  0  0  0  0  0  0  0
  107.4371    4.3553  -91.1430 C   0  0  0  0  0  0  0  0  0  0  0  0
  102.5097    2.7948  -90.3641 O   0  0  0  0  0  1  0  0  0  0  0  0
  101.9539    2.2571  -92.8073 O   0  0  0  0  0  0  0  0  0  0  0  0
  104.0216    5.5987  -89.4994 O   0  0  0  0  0  0  0  0  0  0  0  0
  104.2801    1.8292  -91.8920 O   0  0  0  0  0  0  0  0  0  0  0  0
  1  5  2  0
  1 14  1  0
  2 13  1  0
  2 15  1  0
  2 17  1  0
  3 20  1  0
  4 15  1  0
  5  7  1  0
  5 11  1  0
  6 12  1  0
  7 16  1  0
  7 19  2  0
  8 10  1  0
  8 13  1  0
  8 23  1  0
  9 14  1  0
  9 15  1  0
 12 13  1  0
 12 20  1  0
 14 18  2  0
 17 21  2  0
 17 22  1  0
 17 24  1  0
 18 19  1  0
M  END
>  <ID>  (1) 
conformer_0

$$$$
