
     RDKit          3D

 23 24  0  0  0  0  0  0  0  0999 V2000
  103.6420    2.8842  -92.8723 N   0  0  0  0  0  0  0  0  0  0  0  0
  102.4256    0.9330  -93.8617 C   0  0  0  0  0  0  0  0  0  0  0  0
  101.9120    4.6568  -91.6555 C   0  0  0  0  0  0  0  0  0  0  0  0
  101.8090    7.0642  -91.4668 C   0  0  0  0  0  0  0  0  0  0  0  0
   98.8170    5.4196  -90.4745 O   0  0  0  0  0  0  0  0  0  0  0  0
  102.3332    9.9264  -91.3526 O   0  0  0  0  0  0  0  0  0  0  0  0
  105.2122    2.0120  -91.5342 O   0  0  0  0  0  0  0  0  0  0  0  0
   99.6378    6.2018  -90.9037 C   0  0  0  0  0  0  0  0  0  0  0  0
  100.1072    3.9196  -93.3007 N   0  0  0  0  0  0  0  0  0  0  0  0
  101.0830    9.4839  -91.1684 C   0  0  0  0  0  0  0  0  0  0  0  0
  102.9737    4.8156  -90.5373 C   0  0  0  0  0  0  0  0  0  0  0  0
   99.5733    7.6084  -90.9089 C   0  0  0  0  0  0  0  0  0  0  0  0
  104.1563    5.1800  -90.7693 O   0  0  0  0  0  0  0  0  0  0  0  0
   98.5028    8.5001  -90.7658 C   0  0  0  0  0  0  0  0  0  0  0  0
  105.5120    1.9011  -93.7181 O   0  0  0  0  0  0  0  0  0  0  0  0
  102.2630    2.5790  -93.2592 C   0  0  0  0  0  0  0  0  0  0  0  0
  104.8022    2.1653  -92.7194 C   0  0  0  0  0  0  0  0  0  0  0  0
  100.0117   10.4064  -91.0494 C   0  0  0  0  0  0  0  0  0  0  0  0
  100.8348    8.0927  -91.1573 C   0  0  0  0  0  0  0  0  0  0  0  0
  102.4398    4.7651  -89.3331 O   0  0  0  0  0  0  0  0  0  0  0  0
  100.9553    5.7913  -91.3593 N   0  0  0  0  0  0  0  0  0  0  0  0
  101.5530    4.0451  -93.0709 C   0  0  0  0  0  0  0  0  0  0  0  0
   98.7186    9.8810  -90.8509 C   0  0  0  0  0  0  0  0  0  0  0  0
  1 16  2  3
  1 17  1  0
  2 16  1  0
  3 11  1  0
  3 21  1  0
  3 22  1  0
  4 19  1  0
  4 21  1  0
  5  8  2  0
  6 10  1  0
  7 17  2  0
  8 12  1  0
  8 21  1  0
  9 22  1  0
 10 18  1  0
 10 19  2  0
 11 13  2  0
 11 20  1  0
 12 14  2  0
 12 19  1  0
 14 23  1  0
 15 17  1  0
 16 22  1  0
 18 23  2  0
M  END
>  <ID>  (1) 
conformer_0

$$$$
