
     RDKit          3D

 23 24  0  0  0  0  0  0  0  0999 V2000
  105.0300    1.3495  -91.2973 O   0  0  0  0  0  0  0  0  0  0  0  0
  100.7586    2.8172  -93.3511 C   0  0  0  0  0  0  0  0  0  0  0  0
  102.0040    6.6629  -90.9099 C   0  0  0  0  0  0  0  0  0  0  0  0
   99.5535    3.1710  -92.5318 O   0  0  0  0  0  0  0  0  0  0  0  0
  100.5392   10.3532  -91.3536 C   0  0  0  0  0  0  0  0  0  0  0  0
  103.0019    3.7223  -93.0670 O   0  0  0  0  0  0  0  0  0  0  0  0
   99.1822   10.6364  -91.3205 C   0  0  0  0  0  0  0  0  0  0  0  0
  100.9273    9.0974  -90.9955 C   0  0  0  0  0  0  0  0  0  0  0  0
  103.9523    5.5459  -91.5305 C   0  0  0  0  0  0  0  0  0  0  0  0
  103.5150    8.5666  -91.4490 O   0  0  0  0  0  0  0  0  0  0  0  0
  104.8260    2.0400  -92.3267 C   0  0  0  0  0  0  0  0  0  0  0  0
  103.1499    7.5606  -90.4508 C   0  0  0  0  0  0  0  0  0  0  0  0
  103.9476    3.2131  -92.1249 C   0  0  0  0  0  0  0  0  0  0  0  0
  102.5129    5.5207  -91.5226 O   0  0  0  0  0  0  0  0  0  0  0  0
  104.7443    6.1864  -89.3255 O   0  0  0  0  0  0  0  0  0  0  0  0
  101.6080    4.0720  -93.3666 C   0  0  0  0  0  0  0  0  0  0  0  0
   98.6793    8.3359  -90.6805 C   0  0  0  0  0  0  0  0  0  0  0  0
  100.0477    8.0659  -90.6741 C   0  0  0  0  0  0  0  0  0  0  0  0
  104.3756    6.6334  -90.5238 C   0  0  0  0  0  0  0  0  0  0  0  0
  100.6252    6.6832  -90.4050 C   0  0  0  0  0  0  0  0  0  0  0  0
  105.4902    2.0070  -93.4241 O   0  0  0  0  0  0  0  0  0  0  0  0
   98.2489    9.6577  -90.9950 C   0  0  0  0  0  0  0  0  0  0  0  0
  104.5642    4.2242  -91.2328 C   0  0  0  0  0  0  0  0  0  0  0  0
  1 11  2  0
  2  4  1  0
  2 16  1  0
  3 12  1  0
  3 14  1  0
  3 20  1  0
  5  7  2  0
  5  8  1  0
  6 13  1  0
  6 16  1  0
  7 22  1  0
  8 18  2  0
  9 14  1  0
  9 19  1  0
  9 23  1  0
 10 12  1  0
 11 13  1  0
 11 21  1  0
 12 19  1  0
 13 23  1  0
 15 19  1  0
 17 18  1  0
 17 22  2  0
 18 20  1  0
M  END
>  <ID>  (1) 
conformer_0

$$$$
