
     RDKit          3D

 28 30  0  0  0  0  0  0  0  0999 V2000
  103.5855    6.7817  -90.4147 C   0  0  0  0  0  0  0  0  0  0  0  0
  101.2349    9.3928  -90.7920 O   0  0  0  0  0  0  0  0  0  0  0  0
  102.0199    4.1861  -93.2272 C   0  0  0  0  0  0  0  0  0  0  0  0
  103.1020    3.4887  -92.8224 N   0  0  0  0  0  0  0  0  0  0  0  0
   97.5384    5.6274  -91.8101 C   0  0  0  0  0  0  0  0  0  0  0  0
  105.6437    5.9929  -90.5330 C   0  0  0  0  0  0  0  0  0  0  0  0
  105.5954    2.2873  -93.5008 O   0  0  0  0  0  0  0  0  0  0  0  0
   97.0635    5.7750  -90.5040 C   0  0  0  0  0  0  0  0  0  0  0  0
   99.8045    6.3935  -91.0824 C   0  0  0  0  0  0  0  0  0  0  0  0
   98.8690    5.9874  -92.0892 C   0  0  0  0  0  0  0  0  0  0  0  0
  105.8323    8.0221  -91.7403 O   0  0  0  0  0  0  0  0  0  0  0  0
  104.9439    7.3517  -90.8652 C   0  0  0  0  0  0  0  0  0  0  0  0
  104.6299    1.6470  -92.7455 C   0  0  0  0  0  0  0  0  0  0  0  0
   99.2881    6.5656  -89.7910 C   0  0  0  0  0  0  0  0  0  0  0  0
  101.1699    3.6943  -94.1894 N   0  0  0  0  0  0  0  0  0  0  0  0
   97.4279    6.4519  -88.2108 O   0  0  0  0  0  0  0  0  0  0  0  0
  106.2098    5.3752  -91.6139 O   0  0  0  0  0  0  0  0  0  0  0  0
  101.3017    6.5507  -91.4266 C   0  0  0  0  0  0  0  0  0  0  0  0
  101.0449    2.2889  -94.3317 C   0  0  0  0  0  0  0  0  0  0  0  0
  103.2501    2.1399  -93.0017 C   0  0  0  0  0  0  0  0  0  0  0  0
   97.9394    5.3100  -87.3667 C   0  0  0  0  0  0  0  0  0  0  0  0
  102.4191    1.6277  -94.1476 C   0  0  0  0  0  0  0  0  0  0  0  0
   97.9392    6.2757  -89.4870 C   0  0  0  0  0  0  0  0  0  0  0  0
  104.4568    5.4105  -90.0400 N   0  0  0  0  0  0  0  0  0  0  0  0
  102.2991    8.8363  -91.2229 C   0  0  0  0  0  0  0  0  0  0  0  0
  102.4210    7.4136  -91.1379 N   0  0  0  0  0  0  0  0  0  0  0  0
  101.6782    5.5217  -92.5574 C   0  0  0  0  0  0  0  0  0  0  0  0
  103.2512    9.5808  -91.6237 O   0  0  0  0  0  0  0  0  0  0  0  0
  1 12  1  0
  1 24  2  0
  1 26  1  0
  2 25  2  0
  3  4  1  0
  3 15  1  0
  3 27  2  0
  4 20  1  0
  5  8  1  0
  5 10  2  0
  6 12  1  0
  6 17  1  0
  6 24  1  0
  7 13  1  0
  8 23  1  0
  9 10  1  0
  9 14  1  0
  9 18  1  0
 11 12  1  0
 13 20  1  0
 14 23  2  0
 15 19  1  0
 16 21  1  0
 16 23  1  0
 18 26  1  0
 18 27  2  0
 19 22  1  0
 20 22  1  0
 25 26  1  0
 25 28  1  0
M  END
>  <ID>  (1) 
conformer_0

$$$$
