
     RDKit          3D

 35 40  0  0  0  0  0  0  0  0999 V2000
  100.3859    5.1193  -92.4126 C   0  0  0  0  0  0  0  0  0  0  0  0
  102.3475    2.6371  -93.7196 C   0  0  0  0  0  0  0  0  0  0  0  0
  101.0797    2.5742  -94.2493 O   0  0  0  0  0  0  0  0  0  0  0  0
  102.5036    4.9202  -90.1353 C   0  0  0  0  0  0  0  0  0  0  0  0
  104.6913    2.0544  -93.5587 C   0  0  0  0  0  0  0  0  0  0  0  0
  103.7653    3.7874  -92.1360 C   0  0  0  0  0  0  0  0  0  0  0  0
  101.7484    8.0959  -91.2777 C   0  0  0  0  0  0  0  0  0  0  0  0
  100.6259    1.4098  -94.8862 C   0  0  0  0  0  0  0  0  0  0  0  0
  101.7485    9.4747  -91.2431 C   0  0  0  0  0  0  0  0  0  0  0  0
   97.9255   10.4363  -91.1608 Cl  0  0  0  0  0  0  0  0  0  0  0  0
  103.4348    1.8157  -94.1381 C   0  0  0  0  0  0  0  0  0  0  0  0
  104.0324    6.2714  -91.6008 C   0  0  0  0  0  0  0  0  0  0  0  0
   99.5544    3.7976  -92.1005 C   0  0  0  0  0  0  0  0  0  0  0  0
  103.0347    7.4297  -91.4339 N   0  0  0  0  0  0  0  0  0  0  0  0
  104.8606    2.9938  -92.5364 C   0  0  0  0  0  0  0  0  0  0  0  0
  100.4665    7.4018  -91.1856 C   0  0  0  0  0  0  0  0  0  0  0  0
  106.4774    7.2796  -91.9846 C   0  0  0  0  0  0  0  0  0  0  0  0
   98.9532    3.8949  -89.1818 C   0  0  0  0  0  0  0  0  0  0  0  0
  101.2263    3.1906  -88.6541 O   0  0  0  0  0  0  0  0  0  0  0  0
  100.5764   10.1975  -91.2500 N   0  0  0  0  0  0  0  0  0  0  0  0
  105.2644    7.1245  -91.1491 C   0  0  0  0  0  0  0  0  0  0  0  0
  102.6109    3.5625  -92.7750 C   0  0  0  0  0  0  0  0  0  0  0  0
   98.5491    3.2436  -87.8466 O   0  0  0  0  0  0  0  0  0  0  0  0
  103.9007    4.8611  -90.9736 C   0  0  0  0  0  0  0  0  0  0  0  0
   99.3764    9.5271  -91.1772 C   0  0  0  0  0  0  0  0  0  0  0  0
  104.3459    8.3774  -91.2322 C   0  0  0  0  0  0  0  0  0  0  0  0
  100.4572    4.3530  -88.9108 C   0  0  0  0  0  0  0  0  0  0  0  0
   99.3384    8.1527  -91.1395 C   0  0  0  0  0  0  0  0  0  0  0  0
  100.5338    5.2181  -87.6795 C   0  0  0  0  0  0  0  0  0  0  0  0
  104.9910    4.6064  -90.1614 O   0  0  0  0  0  0  0  0  0  0  0  0
  100.2213    5.8636  -91.1037 C   0  0  0  0  0  0  0  0  0  0  0  0
   98.7009    5.5833  -90.8821 C   0  0  0  0  0  0  0  0  0  0  0  0
   98.7286    4.0224  -90.7627 C   0  0  0  0  0  0  0  0  0  0  0  0
  105.7438    1.3749  -93.9933 O   0  0  0  0  0  0  0  0  0  0  0  0
  100.9826    5.1023  -90.0836 C   0  0  0  0  0  0  0  0  0  0  0  0
  1 13  1  0
  1 31  1  0
  2  3  1  0
  2 11  2  0
  2 22  1  0
  3  8  1  0
  4 24  1  0
  4 35  1  0
  5 11  1  0
  5 15  2  0
  5 34  1  0
  6 15  1  0
  6 22  2  0
  6 24  1  0
  7  9  1  0
  7 14  1  0
  7 16  2  0
  9 20  2  0
 10 25  1  0
 12 14  1  0
 12 21  1  0
 12 24  1  0
 13 33  1  0
 14 26  1  0
 16 28  1  0
 16 31  1  0
 17 21  1  0
 18 23  1  0
 18 27  1  0
 18 33  1  0
 19 27  1  0
 20 25  1  0
 21 26  1  0
 24 30  1  0
 25 28  2  0
 27 29  1  0
 27 35  1  0
 31 32  1  0
 31 35  1  0
 32 33  1  0
M  END
>  <ID>  (1) 
conformer_0

$$$$
