
     RDKit          3D

 21 22  0  0  0  0  0  0  0  0999 V2000
  104.7266    2.9827  -91.4736 P   0  0  0  0  0  4  0  0  0  0  0  0
   99.4977    8.3697  -91.2929 O   0  0  0  0  0  0  0  0  0  0  0  0
  103.4765    2.1749  -91.1040 O   0  0  0  0  0  1  0  0  0  0  0  0
   98.3743    5.1438  -91.8425 C   0  0  0  0  0  0  0  0  0  0  0  0
  102.8218    6.5141  -90.7728 C   0  0  0  0  0  0  0  0  0  0  0  0
  105.5161    6.8300  -91.0831 C   0  0  0  0  0  0  0  0  0  0  0  0
  105.9906    2.6527  -90.7086 O   0  0  0  0  0  0  0  0  0  0  0  0
  105.0917    2.7028  -92.9699 O   0  0  0  0  0  0  0  0  0  0  0  0
   98.2730    4.6084  -90.5627 C   0  0  0  0  0  0  0  0  0  0  0  0
  104.3525    4.6696  -91.1787 C   0  0  0  0  0  0  0  0  0  0  0  0
  101.5914    7.2965  -91.0494 C   0  0  0  0  0  0  0  0  0  0  0  0
  102.0691    8.6130  -91.4234 O   0  0  0  0  0  0  0  0  0  0  0  0
   98.6103   10.4915  -91.4756 C   0  0  0  0  0  0  0  0  0  0  0  0
   99.7280    9.6435  -90.8092 C   0  0  0  0  0  0  0  0  0  0  0  0
   99.6754    6.3596  -89.7365 C   0  0  0  0  0  0  0  0  0  0  0  0
   99.8199    6.9942  -91.0180 C   0  0  0  0  0  0  0  0  0  0  0  0
   98.9322    5.2448  -89.5141 C   0  0  0  0  0  0  0  0  0  0  0  0
  104.1557    7.2036  -90.6931 C   0  0  0  0  0  0  0  0  0  0  0  0
  102.9180    5.1996  -91.4637 C   0  0  0  0  0  0  0  0  0  0  0  0
   99.1432    6.2366  -92.0765 C   0  0  0  0  0  0  0  0  0  0  0  0
  105.3774    5.5858  -91.8250 C   0  0  0  0  0  0  0  0  0  0  0  0
  1  3  2  0
  1  7  1  0
  1  8  1  0
  1 10  1  0
  2 14  1  0
  2 16  1  0
  4  9  1  0
  4 20  2  0
  5 11  1  0
  5 18  1  0
  5 19  1  0
  6 18  1  0
  6 21  1  0
  9 17  1  0
 10 19  1  0
 10 21  1  0
 11 12  1  0
 11 16  1  0
 13 14  1  0
 15 16  1  0
 15 17  2  0
 16 20  1  0
M  END
>  <ID>  (1) 
conformer_0

$$$$
