
     RDKit          3D

 28 30  0  0  0  0  0  0  0  0999 V2000
  100.7767    9.7791  -91.0916 C   0  0  0  0  0  0  0  0  0  0  0  0
  105.6977    4.9723  -90.9076 C   0  0  0  0  0  0  0  0  0  0  0  0
  103.8530    1.1913  -94.7733 C   0  0  0  0  0  0  0  0  0  0  0  0
   99.2794    4.9362  -90.9694 C   0  0  0  0  0  0  0  0  0  0  0  0
  100.2314    5.7353  -90.2539 C   0  0  0  0  0  0  0  0  0  0  0  0
  100.4372    7.0980  -90.7228 C   0  0  0  0  0  0  0  0  0  0  0  0
  107.0911    5.3787  -90.5487 C   0  0  0  0  0  0  0  0  0  0  0  0
  105.2882    1.5398  -94.7410 O   0  0  0  0  0  0  0  0  0  0  0  0
   98.6541   11.4562  -91.6229 C   0  0  0  0  0  0  0  0  0  0  0  0
   98.2476    7.0912  -91.4500 O   0  0  0  0  0  0  0  0  0  0  0  0
   99.4596    9.2668  -91.1167 C   0  0  0  0  0  0  0  0  0  0  0  0
  103.8329    2.5215  -92.9032 N   0  0  0  0  0  0  0  0  0  0  0  0
  102.8241    6.8011  -90.9753 N   0  0  0  0  0  0  0  0  0  0  0  0
  104.2170    3.7129  -92.4094 C   0  0  0  0  0  0  0  0  0  0  0  0
  101.6821    2.8138  -93.9507 C   0  0  0  0  0  0  0  0  0  0  0  0
   98.6008    3.9752  -90.2687 O   0  0  0  0  0  0  0  0  0  0  0  0
  104.5516    5.8564  -88.9924 O   0  0  0  0  0  0  0  0  0  0  0  0
   98.3561   10.0649  -91.2697 O   0  0  0  0  0  0  0  0  0  0  0  0
  104.5431    5.3951  -90.2136 C   0  0  0  0  0  0  0  0  0  0  0  0
  101.7148    7.6270  -90.8891 C   0  0  0  0  0  0  0  0  0  0  0  0
  103.2332    5.4611  -90.8608 C   0  0  0  0  0  0  0  0  0  0  0  0
   99.3550    7.8491  -91.0675 C   0  0  0  0  0  0  0  0  0  0  0  0
  100.5188    5.4139  -88.9546 O   0  0  0  0  0  0  0  0  0  0  0  0
  103.0835    2.1927  -93.9871 C   0  0  0  0  0  0  0  0  0  0  0  0
  103.1346    4.6050  -92.0651 C   0  0  0  0  0  0  0  0  0  0  0  0
  105.5308    3.6814  -91.6611 C   0  0  0  0  0  0  0  0  0  0  0  0
   98.5047    5.7330  -91.9305 C   0  0  0  0  0  0  0  0  0  0  0  0
  101.8805    8.9797  -91.0049 N   0  0  0  0  0  0  0  0  0  0  0  0
  1 11  1  0
  1 28  2  0
  2  7  1  0
  2 19  1  0
  2 26  1  0
  3  8  1  0
  3 24  1  0
  4  5  1  0
  4 16  1  0
  4 27  1  0
  5  6  1  0
  5 23  1  0
  6 20  1  0
  6 22  1  0
  9 18  1  0
 10 22  1  0
 10 27  1  0
 11 18  1  0
 11 22  1  0
 12 14  1  0
 12 24  1  0
 13 20  2  3
 13 21  1  0
 14 25  1  0
 14 26  1  0
 15 24  1  0
 17 19  1  0
 19 21  1  0
 20 28  1  0
 21 25  1  0
M  END
>  <ID>  (1) 
conformer_0

$$$$
