
     RDKit          3D

 24 25  0  0  0  0  0  0  0  0999 V2000
  105.2782    5.3245  -90.8505 C   0  0  0  0  0  0  0  0  0  0  0  0
  107.2194    4.0996  -90.6880 O   0  0  0  0  0  0  0  0  0  0  0  0
   98.0997   10.1911  -90.7891 C   0  0  0  0  0  0  0  0  0  0  0  0
  100.2825    8.4062  -91.1147 C   0  0  0  0  0  0  0  0  0  0  0  0
  102.5881    1.9072  -92.9736 C   0  0  0  0  0  0  0  0  0  0  0  0
   99.0763    7.9418  -90.6093 C   0  0  0  0  0  0  0  0  0  0  0  0
  101.5363    4.4698  -93.8914 C   0  0  0  0  0  0  0  0  0  0  0  0
  102.8969    8.2351  -91.2711 S   0  0  0  0  0  0  0  0  0  0  0  0
  102.3588    4.3364  -91.6115 C   0  0  0  0  0  0  0  0  0  0  0  0
   99.3304   10.6403  -91.2517 C   0  0  0  0  0  0  0  0  0  0  0  0
  106.0190    4.0072  -91.3908 C   0  0  0  0  0  0  0  0  0  0  0  0
  106.4046    3.3985  -92.6466 O   0  0  0  0  0  0  0  0  0  0  0  0
  104.3963    2.9939  -91.4241 C   0  0  0  0  0  0  0  0  0  0  0  0
  101.4120    7.5417  -91.4309 C   0  0  0  0  0  0  0  0  0  0  0  0
   99.4772   11.9273  -91.5820 F   0  0  0  0  0  0  0  0  0  0  0  0
  103.6159    1.6761  -91.8236 C   0  0  0  0  0  0  0  0  0  0  0  0
  103.6431    4.0385  -92.2616 N   0  0  0  0  0  0  0  0  0  0  0  0
  100.3944    9.7675  -91.3884 C   0  0  0  0  0  0  0  0  0  0  0  0
  101.2703    5.0264  -92.4615 C   0  0  0  0  0  0  0  0  0  0  0  0
  101.3921    6.4578  -92.3260 N   0  0  0  0  0  0  0  0  0  0  0  0
  102.0451    3.0458  -93.8533 O   0  0  0  0  0  0  0  0  0  0  0  0
   97.9773    8.8217  -90.4715 C   0  0  0  0  0  0  0  0  0  0  0  0
  103.1893    0.7929  -90.8697 O   0  0  0  0  0  0  0  0  0  0  0  0
   99.9212    4.6699  -92.1097 O   0  0  0  0  0  0  0  0  0  0  0  0
  1 11  1  0
  2 11  1  0
  3 10  2  0
  3 22  1  0
  4  6  1  0
  4 14  1  0
  4 18  2  0
  5 16  1  0
  5 21  1  0
  6 22  2  0
  7 19  1  0
  7 21  1  0
  8 14  2  0
  9 17  1  0
  9 19  1  0
 10 15  1  0
 10 18  1  0
 11 12  1  0
 11 13  1  0
 13 16  1  0
 13 17  1  0
 14 20  1  0
 16 23  1  0
 19 20  1  0
 19 24  1  0
M  END
>  <ID>  (1) 
conformer_0

$$$$
