
     RDKit          3D

 23 22  0  0  0  0  0  0  0  0999 V2000
   99.1355    4.2702  -91.7504 C   0  0  0  0  0  0  0  0  0  0  0  0
  104.0670    3.2913  -91.7012 P   0  0  0  0  0  4  0  0  0  0  0  0
  101.3131    5.2639  -91.9333 C   0  0  0  0  0  0  0  0  0  0  0  0
   98.9852    9.1255  -91.0704 C   0  0  0  0  0  0  0  0  0  0  0  0
  100.5424    5.1010  -89.6511 O   0  0  0  0  0  0  0  0  0  0  0  0
   98.8276   11.4720  -91.6740 C   0  0  0  0  0  0  0  0  0  0  0  0
  101.4673    7.7331  -90.7420 C   0  0  0  0  0  0  0  0  0  0  0  0
  104.0337    4.3054  -90.5902 O   0  0  0  0  0  1  0  0  0  0  0  0
  105.0824    7.0807  -91.0584 C   0  0  0  0  0  0  0  0  0  0  0  0
  101.5542    3.8015  -92.3055 O   0  0  0  0  0  0  0  0  0  0  0  0
   99.2802    6.6452  -91.0457 C   0  0  0  0  0  0  0  0  0  0  0  0
  102.5606    8.6030  -91.3750 C   0  0  0  0  0  0  0  0  0  0  0  0
  102.8376    3.6660  -92.9309 C   0  0  0  0  0  0  0  0  0  0  0  0
  105.9823    8.6694  -92.1400 O   0  0  0  0  0  0  0  0  0  0  0  0
   99.9804    7.9868  -90.6515 C   0  0  0  0  0  0  0  0  0  0  0  0
  104.3196   10.4089  -91.8382 O   0  0  0  0  0  0  0  0  0  0  0  0
   98.1294    3.9086  -90.8333 O   0  0  0  0  0  0  0  0  0  0  0  0
  105.4142    3.3371  -92.4736 O   0  0  0  0  0  0  0  0  0  0  0  0
  103.7489    1.9192  -91.2324 O   0  0  0  0  0  0  0  0  0  0  0  0
   99.7592   10.4877  -90.9890 C   0  0  0  0  0  0  0  0  0  0  0  0
  104.0143    8.1596  -91.1073 C   0  0  0  0  0  0  0  0  0  0  0  0
  104.8453    9.2485  -91.7470 C   0  0  0  0  0  0  0  0  0  0  0  0
  100.0820    5.3388  -91.0137 C   0  0  0  0  0  0  0  0  0  0  0  0
  1 17  1  0
  1 23  1  0
  2  8  2  0
  2 13  1  0
  2 18  1  0
  2 19  1  0
  3 10  1  0
  3 23  1  0
  4 15  1  0
  4 20  1  0
  5 23  1  0
  6 20  1  0
  7 12  2  3
  7 15  1  0
  9 21  1  0
 10 13  1  0
 11 15  1  0
 11 23  1  0
 12 21  1  0
 14 22  2  0
 16 22  1  0
 21 22  1  0
M  END
>  <ID>  (1) 
conformer_0

$$$$
