
     RDKit          3D

 28 29  0  0  0  0  0  0  0  0999 V2000
  101.0093    3.8101  -92.7365 C   0  0  0  0  0  0  0  0  0  0  0  0
   98.8159    9.9190  -91.1310 C   0  0  0  0  0  0  0  0  0  0  0  0
  101.0917    3.1400  -93.9055 O   0  0  0  0  0  0  0  0  0  0  0  0
  100.5572    7.9873  -90.7116 C   0  0  0  0  0  0  0  0  0  0  0  0
   99.4859    7.0922  -90.2981 C   0  0  0  0  0  0  0  0  0  0  0  0
  101.9577    7.8472  -90.8863 C   0  0  0  0  0  0  0  0  0  0  0  0
  105.7131    2.2754  -93.3672 O   0  0  0  0  0  1  0  0  0  0  0  0
  102.0161    4.9029  -88.5811 P   0  0  0  0  0  4  0  0  0  0  0  0
  102.5027    9.0645  -91.3111 C   0  0  0  0  0  0  0  0  0  0  0  0
  102.4101    5.0410  -91.2190 N   0  0  0  0  0  0  0  0  0  0  0  0
  103.4551    3.3244  -92.7887 O   0  0  0  0  0  0  0  0  0  0  0  0
  101.2656    5.3779  -90.2480 C   0  0  0  0  0  0  0  0  0  0  0  0
  101.4426    4.4932  -94.0562 C   0  0  0  0  0  0  0  0  0  0  0  0
  101.5091    3.4210  -88.5704 O   0  0  0  0  0  1  0  0  0  0  0  0
  101.4031    9.9998  -91.4346 C   0  0  0  0  0  0  0  0  0  0  0  0
   97.4655    5.2743  -89.5777 C   0  0  0  0  0  0  0  0  0  0  0  0
  101.6975    5.4664  -87.1230 O   0  0  0  0  0  0  0  0  0  0  0  0
   98.7700   11.2095  -91.8390 C   0  0  0  0  0  0  0  0  0  0  0  0
   97.1388    6.6327  -89.8447 C   0  0  0  0  0  0  0  0  0  0  0  0
  104.1927    1.1801  -91.6506 O   0  0  0  0  0  0  0  0  0  0  0  0
  103.5251    5.3795  -88.8239 O   0  0  0  0  0  0  0  0  0  0  0  0
   99.8149    5.7677  -90.0402 C   0  0  0  0  0  0  0  0  0  0  0  0
  102.3404    3.7747  -91.9842 C   0  0  0  0  0  0  0  0  0  0  0  0
  105.3787    3.4115  -91.0942 O   0  0  0  0  0  0  0  0  0  0  0  0
   98.7878    4.8790  -89.6887 C   0  0  0  0  0  0  0  0  0  0  0  0
  104.7357    2.5493  -92.1944 P   0  0  0  0  0  4  0  0  0  0  0  0
   98.1415    7.4642  -90.1958 C   0  0  0  0  0  0  0  0  0  0  0  0
  100.1532    9.3152  -91.0653 C   0  0  0  0  0  0  0  0  0  0  0  0
  1  3  1  0
  1 23  1  0
  2 18  1  0
  2 28  1  0
  3 13  1  0
  4  5  1  0
  4  6  1  0
  4 28  2  0
  5 22  1  0
  5 27  2  0
  6  9  1  0
  7 26  2  0
  8 12  1  0
  8 14  2  0
  8 17  1  0
  8 21  1  0
  9 15  1  0
 10 12  1  0
 10 23  1  0
 11 23  1  0
 11 26  1  0
 12 22  1  0
 15 28  1  0
 16 19  2  0
 16 25  1  0
 19 27  1  0
 20 26  1  0
 22 25  2  0
 24 26  1  0
M  END
>  <ID>  (1) 
conformer_0

$$$$
