
     RDKit          3D

 32 35  0  0  0  0  0  0  0  0999 V2000
  101.1554    7.1733  -90.7511 N   0  0  0  0  0  0  0  0  0  0  0  0
   99.7701   10.6223  -91.2956 C   0  0  0  0  0  0  0  0  0  0  0  0
   97.5827    9.8923  -90.5042 C   0  0  0  0  0  0  0  0  0  0  0  0
  100.3348    4.0508  -90.3936 O   0  0  0  0  0  0  0  0  0  0  0  0
  101.1235    2.2727  -94.3815 C   0  0  0  0  0  0  0  0  0  0  0  0
  101.3042    3.1459  -93.3405 C   0  0  0  0  0  0  0  0  0  0  0  0
  100.3944    4.1520  -92.8428 C   0  0  0  0  0  0  0  0  0  0  0  0
  105.9937    1.8277  -93.2493 O   0  0  0  0  0  1  0  0  0  0  0  0
  103.4980    2.1989  -92.9786 C   0  0  0  0  0  0  0  0  0  0  0  0
  106.4687    7.0601  -90.5153 C   0  0  0  0  0  0  0  0  0  0  0  0
   97.7786    8.5950  -90.1338 C   0  0  0  0  0  0  0  0  0  0  0  0
  102.2491    8.1976  -92.5021 O   0  0  0  0  0  0  0  0  0  0  0  0
   98.4407   10.8266  -91.0102 C   0  0  0  0  0  0  0  0  0  0  0  0
  101.0737    4.6356  -91.5094 C   0  0  0  0  0  0  0  0  0  0  0  0
  104.9302    1.3154  -91.0461 O   0  0  0  0  0  0  0  0  0  0  0  0
  104.7253    8.2419  -91.6309 C   0  0  0  0  0  0  0  0  0  0  0  0
  105.5388    6.4375  -89.7263 C   0  0  0  0  0  0  0  0  0  0  0  0
  102.4976    3.0952  -92.6254 C   0  0  0  0  0  0  0  0  0  0  0  0
  100.4618    9.4826  -91.1034 C   0  0  0  0  0  0  0  0  0  0  0  0
  106.0757    8.0052  -91.4409 C   0  0  0  0  0  0  0  0  0  0  0  0
  103.7782    7.5376  -90.8783 C   0  0  0  0  0  0  0  0  0  0  0  0
  102.4563    4.0701  -91.5555 C   0  0  0  0  0  0  0  0  0  0  0  0
  104.2029    6.7096  -89.8829 C   0  0  0  0  0  0  0  0  0  0  0  0
  100.7345    6.0436  -91.5707 C   0  0  0  0  0  0  0  0  0  0  0  0
  105.0207    2.2342  -92.2318 P   0  0  0  0  0  4  0  0  0  0  0  0
  100.1439    8.2129  -90.6554 C   0  0  0  0  0  0  0  0  0  0  0  0
  103.2910    1.3203  -93.9962 C   0  0  0  0  0  0  0  0  0  0  0  0
  102.0982    1.3683  -94.7191 N   0  0  0  0  0  0  0  0  0  0  0  0
  103.1038    4.1283  -90.3767 O   0  0  0  0  0  0  0  0  0  0  0  0
   98.9257    7.8549  -90.1457 C   0  0  0  0  0  0  0  0  0  0  0  0
  102.3865    7.7164  -91.2671 C   0  0  0  0  0  0  0  0  0  0  0  0
  105.4272    3.6176  -91.8077 O   0  0  0  0  0  0  0  0  0  0  0  0
  1 24  1  0
  1 26  1  0
  1 31  1  0
  2 13  1  0
  2 19  2  0
  3 11  1  0
  3 13  2  0
  4 14  1  0
  5  6  2  0
  5 28  1  0
  6  7  1  0
  6 18  1  0
  7 14  1  0
  8 25  2  0
  9 18  2  0
  9 25  1  0
  9 27  1  0
 10 17  2  0
 10 20  1  0
 11 30  2  0
 12 31  2  0
 14 22  1  0
 14 24  1  0
 15 25  1  0
 16 20  2  0
 16 21  1  0
 17 23  1  0
 18 22  1  0
 19 26  1  0
 21 23  2  0
 21 31  1  0
 22 29  1  0
 25 32  1  0
 26 30  1  0
 27 28  2  0
M  END
>  <ID>  (1) 
conformer_0

$$$$
