
     RDKit          3D

 30 31  0  0  0  0  0  0  0  0999 V2000
   98.7045    5.1012  -91.5262 C   0  0  0  0  0  0  0  0  0  0  0  0
   99.5817    5.2339  -92.7513 C   0  0  0  0  0  0  0  0  0  0  0  0
  103.4974    7.9510  -91.1180 C   0  0  0  0  0  0  0  0  0  0  0  0
   99.5525   10.9839  -91.3432 C   0  0  0  0  0  0  0  0  0  0  0  0
  105.5013    2.5233  -93.1864 O   0  0  0  0  0  0  0  0  0  0  0  0
   99.3592    4.8036  -88.8393 C   0  0  0  0  0  0  0  0  0  0  0  0
  102.7228    3.0845  -93.4777 C   0  0  0  0  0  0  0  0  0  0  0  0
   99.5814    4.8255  -90.3182 C   0  0  0  0  0  0  0  0  0  0  0  0
  106.1776    6.3559  -90.6226 C   0  0  0  0  0  0  0  0  0  0  0  0
  103.1957    3.6848  -92.1026 C   0  0  0  0  0  0  0  0  0  0  0  0
  101.6850    9.5755  -91.4548 C   0  0  0  0  0  0  0  0  0  0  0  0
  104.6820    2.0607  -91.1203 O   0  0  0  0  0  0  0  0  0  0  0  0
  101.6196    3.9517  -94.0352 C   0  0  0  0  0  0  0  0  0  0  0  0
  105.7115    8.6552  -91.4823 C   0  0  0  0  0  0  0  0  0  0  0  0
  104.7918    3.0579  -92.0100 C   0  0  0  0  0  0  0  0  0  0  0  0
  107.6597    6.1726  -90.8422 C   0  0  0  0  0  0  0  0  0  0  0  0
  105.8241    7.6914  -90.3512 O   0  0  0  0  0  0  0  0  0  0  0  0
  102.0844    8.1535  -91.1778 C   0  0  0  0  0  0  0  0  0  0  0  0
  101.7442    4.3289  -91.7191 C   0  0  0  0  0  0  0  0  0  0  0  0
   99.2954    8.6223  -90.5613 C   0  0  0  0  0  0  0  0  0  0  0  0
  100.7649    4.8478  -88.1778 C   0  0  0  0  0  0  0  0  0  0  0  0
  104.2924    9.1816  -91.4248 C   0  0  0  0  0  0  0  0  0  0  0  0
  100.8855    4.5291  -92.9240 N   0  0  0  0  0  0  0  0  0  0  0  0
   98.5752    3.6551  -88.5562 O   0  0  0  0  0  0  0  0  0  0  0  0
  100.7612    4.0738  -90.6308 O   0  0  0  0  0  0  0  0  0  0  0  0
  101.4240    3.6188  -88.3012 O   0  0  0  0  0  0  0  0  0  0  0  0
  105.3769    5.1625  -90.5859 O   0  0  0  0  0  0  0  0  0  0  0  0
  100.2428    9.7081  -91.1305 C   0  0  0  0  0  0  0  0  0  0  0  0
  105.7663    4.1856  -91.5715 C   0  0  0  0  0  0  0  0  0  0  0  0
   97.6456    6.2625  -91.4688 C   0  0  0  0  0  0  0  0  0  0  0  0
  1  2  1  0
  1  8  1  0
  1 30  1  0
  2 23  1  0
  3 18  1  0
  3 22  1  0
  4 28  1  0
  5 15  1  0
  6  8  1  0
  6 21  1  0
  6 24  1  0
  7 10  1  0
  7 13  1  0
  8 25  1  0
  9 16  1  0
  9 17  1  0
  9 27  1  0
 10 15  1  0
 10 19  1  0
 11 18  1  0
 11 28  1  0
 12 15  1  0
 13 23  1  0
 14 17  1  0
 14 22  1  0
 15 29  1  0
 19 23  1  0
 19 25  1  0
 20 28  1  0
 21 26  1  0
 27 29  1  0
M  END
>  <ID>  (1) 
conformer_0

$$$$
