
     RDKit          3D

 27 29  0  0  0  0  0  0  0  0999 V2000
  100.7475    7.8923  -91.0610 C   0  0  0  0  0  0  0  0  0  0  0  0
  100.6853    9.3063  -91.2798 C   0  0  0  0  0  0  0  0  0  0  0  0
  106.4512    5.0781  -91.8516 P   0  0  0  0  0  4  0  0  0  0  0  0
  101.8215    6.9302  -91.0289 C   0  0  0  0  0  0  0  0  0  0  0  0
  100.4823    5.7730  -90.8034 C   0  0  0  0  0  0  0  0  0  0  0  0
  104.8428    4.1658  -92.1097 C   0  0  0  0  0  0  0  0  0  0  0  0
  103.7513    5.1506  -91.7659 N   0  0  0  0  0  0  0  0  0  0  0  0
  102.5243    6.8320  -89.9319 O   0  0  0  0  0  0  0  0  0  0  0  0
  106.6907    6.3281  -92.7007 O   0  0  0  0  0  1  0  0  0  0  0  0
  100.1357    4.6207  -92.9397 O   0  0  0  0  0  0  0  0  0  0  0  0
   98.0681    5.0709  -89.5631 C   0  0  0  0  0  0  0  0  0  0  0  0
  100.1917    4.0658  -88.8530 C   0  0  0  0  0  0  0  0  0  0  0  0
   98.4008    7.7927  -90.9179 C   0  0  0  0  0  0  0  0  0  0  0  0
   98.2724    9.1837  -91.1227 C   0  0  0  0  0  0  0  0  0  0  0  0
  101.4286    3.9139  -88.9066 O   0  0  0  0  0  0  0  0  0  0  0  0
  101.0281    5.0099  -92.0063 C   0  0  0  0  0  0  0  0  0  0  0  0
  102.4857    4.6545  -92.3155 C   0  0  0  0  0  0  0  0  0  0  0  0
  107.4855    4.0267  -92.2767 O   0  0  0  0  0  0  0  0  0  0  0  0
  106.3123    5.5576  -90.3507 O   0  0  0  0  0  0  0  0  0  0  0  0
  102.2023    2.6656  -93.8097 O   0  0  0  0  0  0  0  0  0  0  0  0
  102.7235    3.1814  -92.6272 C   0  0  0  0  0  0  0  0  0  0  0  0
   99.4150    9.9535  -91.3001 C   0  0  0  0  0  0  0  0  0  0  0  0
   99.6836    7.1837  -90.9000 C   0  0  0  0  0  0  0  0  0  0  0  0
   99.3206   11.3710  -91.5577 C   0  0  0  0  0  0  0  0  0  0  0  0
   99.5289    4.8517  -89.9280 C   0  0  0  0  0  0  0  0  0  0  0  0
   99.5065    3.4262  -88.0260 O   0  0  0  0  0  0  0  0  0  0  0  0
  104.1806    2.8484  -92.4061 C   0  0  0  0  0  0  0  0  0  0  0  0
  1  2  1  0
  1  4  1  0
  1 23  2  0
  2 22  1  0
  3  6  1  0
  3  9  2  0
  3 18  1  0
  3 19  1  0
  4  5  1  0
  4  8  1  0
  5 16  1  0
  5 23  1  0
  5 25  1  0
  6  7  1  0
  6 27  1  0
  7 17  1  0
 10 16  1  0
 11 25  1  0
 12 15  2  0
 12 25  1  0
 12 26  1  0
 13 14  1  0
 13 23  1  0
 14 22  2  0
 16 17  1  0
 17 21  1  0
 20 21  1  0
 21 27  1  0
 22 24  1  0
M  END
>  <ID>  (1) 
conformer_0

$$$$
