
     RDKit          3D

 24 27  0  0  0  0  0  0  0  0999 V2000
  102.9407    0.7616  -94.6496 C   0  0  0  0  0  0  0  0  0  0  0  0
   98.5239    5.4667  -92.0418 O   0  0  0  0  0  0  0  0  0  0  0  0
   99.5678   10.3038  -91.0390 C   0  0  0  0  0  0  0  0  0  0  0  0
  100.4614    6.7590  -91.3053 C   0  0  0  0  0  0  0  0  0  0  0  0
  104.3300    0.6968  -94.7683 C   0  0  0  0  0  0  0  0  0  0  0  0
  103.1774    2.5855  -93.1586 C   0  0  0  0  0  0  0  0  0  0  0  0
  106.2976    6.2694  -90.3161 C   0  0  0  0  0  0  0  0  0  0  0  0
  105.4790    5.1842  -90.9339 C   0  0  0  0  0  0  0  0  0  0  0  0
  100.5482    9.2459  -91.0827 N   0  0  0  0  0  0  0  0  0  0  0  0
  104.3175    7.2089  -90.9030 C   0  0  0  0  0  0  0  0  0  0  0  0
  102.5377    5.5771  -91.3123 C   0  0  0  0  0  0  0  0  0  0  0  0
   99.8390    8.0222  -91.1661 C   0  0  0  0  0  0  0  0  0  0  0  0
  100.5973    4.5782  -92.3386 N   0  0  0  0  0  0  0  0  0  0  0  0
  104.5716    2.5050  -93.2414 N   0  0  0  0  0  0  0  0  0  0  0  0
   98.5043    8.2931  -91.1537 C   0  0  0  0  0  0  0  0  0  0  0  0
   99.8347    5.6068  -91.9080 C   0  0  0  0  0  0  0  0  0  0  0  0
   98.2982    9.7041  -91.0551 C   0  0  0  0  0  0  0  0  0  0  0  0
  102.6455    3.4778  -92.3903 N   0  0  0  0  0  0  0  0  0  0  0  0
  105.1233    1.5650  -94.0386 C   0  0  0  0  0  0  0  0  0  0  0  0
  101.9217    4.5136  -92.0434 C   0  0  0  0  0  0  0  0  0  0  0  0
  105.6955    7.4085  -90.9821 N   0  0  0  0  0  0  0  0  0  0  0  0
  102.3767    1.6954  -93.8358 C   0  0  0  0  0  0  0  0  0  0  0  0
  104.0949    5.7288  -91.0657 C   0  0  0  0  0  0  0  0  0  0  0  0
  101.7404    6.5551  -90.9226 C   0  0  0  0  0  0  0  0  0  0  0  0
  1  5  2  0
  1 22  1  0
  2 16  2  0
  3  9  1  0
  3 17  1  0
  4 12  1  0
  4 16  1  0
  4 24  1  0
  5 19  1  0
  6 14  1  0
  6 18  1  0
  6 22  2  0
  7  8  1  0
  7 21  1  0
  8 23  1  0
  9 12  1  0
 10 21  1  0
 10 23  1  0
 11 20  1  0
 11 23  1  0
 11 24  2  0
 12 15  1  0
 13 16  1  0
 13 20  2  0
 14 19  2  0
 15 17  1  0
 18 20  1  0
M  END
>  <ID>  (1) 
conformer_0

$$$$
