
     RDKit          3D

 27 28  0  0  0  0  0  0  0  0999 V2000
  103.4178    3.2119  -92.9882 C   0  0  0  0  0  0  0  0  0  0  0  0
  104.1925    4.9171  -91.3087 C   0  0  0  0  0  0  0  0  0  0  0  0
   96.8229    9.3325  -90.1907 O   0  0  0  0  0  0  0  0  0  0  0  0
  101.4119   10.1742  -91.3361 O   0  0  0  0  0  0  0  0  0  0  0  0
  102.7512    6.7734  -90.7332 O   0  0  0  0  0  0  0  0  0  0  0  0
   98.9970    9.8458  -90.7244 N   0  0  0  0  0  0  0  0  0  0  0  0
  102.6854    1.2405  -94.1382 C   0  0  0  0  0  0  0  0  0  0  0  0
  106.2028    6.1403  -91.8664 O   0  0  0  0  0  0  0  0  0  0  0  0
   99.6867    7.2331  -90.3224 C   0  0  0  0  0  0  0  0  0  0  0  0
  101.9834    7.8851  -91.0148 C   0  0  0  0  0  0  0  0  0  0  0  0
  101.0718    3.7731  -87.6004 O   0  0  0  0  0  0  0  0  0  0  0  0
  103.2509    1.8616  -92.9368 N   0  0  0  0  0  0  0  0  0  0  0  0
  102.7572    9.0684  -91.4277 C   0  0  0  0  0  0  0  0  0  0  0  0
  104.5261    3.7375  -92.2238 C   0  0  0  0  0  0  0  0  0  0  0  0
  100.5043    4.0329  -88.6241 C   0  0  0  0  0  0  0  0  0  0  0  0
   98.3703    7.6199  -90.1041 C   0  0  0  0  0  0  0  0  0  0  0  0
  105.7147    3.4072  -92.5546 O   0  0  0  0  0  0  0  0  0  0  0  0
   99.3817    3.7380  -89.0177 O   0  0  0  0  0  0  0  0  0  0  0  0
  102.9252    5.3486  -90.4276 C   0  0  0  0  0  0  0  0  0  0  0  0
  101.4444    5.0462  -89.5626 C   0  0  0  0  0  0  0  0  0  0  0  0
  105.3566    5.7877  -90.9740 C   0  0  0  0  0  0  0  0  0  0  0  0
  100.6094    8.1409  -90.7412 N   0  0  0  0  0  0  0  0  0  0  0  0
   98.0478    8.9369  -90.3238 C   0  0  0  0  0  0  0  0  0  0  0  0
  100.2778    9.4371  -90.9270 C   0  0  0  0  0  0  0  0  0  0  0  0
  105.6161    6.0019  -89.7400 O   0  0  0  0  0  0  0  0  0  0  0  0
  103.5148    1.2010  -91.6686 C   0  0  0  0  0  0  0  0  0  0  0  0
  100.1608    5.8098  -90.2055 C   0  0  0  0  0  0  0  0  0  0  0  0
  1 12  1  0
  1 14  1  0
  2 14  1  0
  2 19  1  0
  2 21  1  0
  3 23  2  0
  4 24  2  0
  5 10  1  0
  5 19  1  0
  6 23  1  0
  6 24  1  0
  7 12  1  0
  8 21  2  0
  9 16  2  0
  9 22  1  0
  9 27  1  0
 10 13  1  0
 10 22  1  0
 11 15  2  0
 12 26  1  0
 14 17  2  0
 15 18  1  0
 15 20  1  0
 16 23  1  0
 19 20  1  0
 20 27  1  0
 21 25  1  0
 22 24  1  0
M  END
>  <ID>  (1) 
conformer_0

$$$$
