
     RDKit          3D

 30 33  0  0  0  0  0  0  0  0999 V2000
  101.4351    8.0090  -91.8111 N   0  0  0  0  0  0  0  0  0  0  0  0
  100.5222    8.9063  -91.2783 C   0  0  0  0  0  0  0  0  0  0  0  0
  102.9282    2.3627  -92.2342 C   0  0  0  0  0  0  0  0  0  0  0  0
  106.0056    6.6582  -91.3717 C   0  0  0  0  0  0  0  0  0  0  0  0
  103.3250    1.4265  -93.1770 N   0  0  0  0  0  0  0  0  0  0  0  0
  102.0542    2.5940  -94.8338 C   0  0  0  0  0  0  0  0  0  0  0  0
   98.2812    8.7854  -90.2337 C   0  0  0  0  0  0  0  0  0  0  0  0
  103.3666    0.7028  -95.3794 O   0  0  0  0  0  0  0  0  0  0  0  0
  105.0081    4.2609  -91.2053 C   0  0  0  0  0  0  0  0  0  0  0  0
   97.8991    5.8367  -89.4668 C   0  0  0  0  0  0  0  0  0  0  0  0
   97.2086    8.1983  -89.6305 C   0  0  0  0  0  0  0  0  0  0  0  0
  102.3149    2.7883  -89.8661 O   0  0  0  0  0  0  0  0  0  0  0  0
  106.4611    7.7961  -90.8990 O   0  0  0  0  0  0  0  0  0  0  0  0
  103.1789    0.7887  -90.2798 N   0  0  0  0  0  0  0  0  0  0  0  0
  102.9138    1.5652  -94.4789 C   0  0  0  0  0  0  0  0  0  0  0  0
  101.8159    3.6322  -93.9490 N   0  0  0  0  0  0  0  0  0  0  0  0
   97.0372    6.8821  -89.2513 C   0  0  0  0  0  0  0  0  0  0  0  0
   99.7632    6.8500  -90.7149 C   0  0  0  0  0  0  0  0  0  0  0  0
  102.4865    3.6092  -92.7552 C   0  0  0  0  0  0  0  0  0  0  0  0
  100.6056   10.2422  -91.4081 N   0  0  0  0  0  0  0  0  0  0  0  0
   99.0978    5.8210  -90.1495 C   0  0  0  0  0  0  0  0  0  0  0  0
  103.9617    5.2963  -91.4125 C   0  0  0  0  0  0  0  0  0  0  0  0
  105.9617    4.4618  -92.2587 O   0  0  0  0  0  0  0  0  0  0  0  0
  106.8418    5.5694  -91.8962 C   0  0  0  0  0  0  0  0  0  0  0  0
  101.5836    5.6732  -92.1237 N   0  0  0  0  0  0  0  0  0  0  0  0
  104.6716    6.5006  -91.6862 N   0  0  0  0  0  0  0  0  0  0  0  0
  102.8276    2.0151  -90.7595 C   0  0  0  0  0  0  0  0  0  0  0  0
  102.7132    4.9141  -92.0595 C   0  0  0  0  0  0  0  0  0  0  0  0
  100.9929    6.7181  -91.5140 C   0  0  0  0  0  0  0  0  0  0  0  0
   99.4315    8.2129  -90.6474 C   0  0  0  0  0  0  0  0  0  0  0  0
  1  2  1  0
  1 29  2  0
  2 20  2  0
  2 30  1  0
  3  5  1  0
  3 19  1  0
  3 27  1  0
  4 13  2  0
  4 24  1  0
  4 26  1  0
  5 15  1  0
  6 15  1  0
  6 16  2  0
  7 11  1  0
  7 30  2  0
  8 15  2  0
  9 22  1  0
  9 23  1  0
 10 17  1  0
 10 21  1  0
 11 17  2  0
 12 27  2  0
 14 27  1  0
 16 19  1  0
 18 21  2  0
 18 29  1  0
 18 30  1  0
 19 28  1  0
 22 26  1  0
 22 28  1  0
 23 24  1  0
 25 28  1  0
 25 29  1  0
M  END
>  <ID>  (1) 
conformer_0

$$$$
