
     RDKit          3D

 27 28  0  0  0  0  0  0  0  0999 V2000
  100.1154    7.6533  -90.7030 O   0  0  0  0  0  0  0  0  0  0  0  0
  105.8404    2.1121  -90.7963 O   0  0  0  0  0  1  0  0  0  0  0  0
  102.1641    9.1412  -90.9730 C   0  0  0  0  0  0  0  0  0  0  0  0
   99.5798    5.2288  -89.6943 C   0  0  0  0  0  0  0  0  0  0  0  0
  105.2849    2.3484  -93.2667 O   0  0  0  0  0  1  0  0  0  0  0  0
   97.7403    7.0686  -90.1265 C   0  0  0  0  0  0  0  0  0  0  0  0
  106.5418    5.2349  -89.7817 O   0  0  0  0  0  1  0  0  0  0  0  0
  100.0479   10.0367  -91.5407 O   0  0  0  0  0  0  0  0  0  0  0  0
   97.2857    4.7961  -90.8624 C   0  0  0  0  0  0  0  0  0  0  0  0
  103.8036    5.7689  -91.1122 C   0  0  0  0  0  0  0  0  0  0  0  0
  103.6943    3.2374  -91.3623 O   0  0  0  0  0  0  0  0  0  0  0  0
  102.7274    6.8057  -91.3509 C   0  0  0  0  0  0  0  0  0  0  0  0
  103.2524    8.1500  -90.9712 C   0  0  0  0  0  0  0  0  0  0  0  0
  105.8684    4.4186  -92.0431 O   0  0  0  0  0  0  0  0  0  0  0  0
  102.8494    9.9608  -91.9189 O   0  0  0  0  0  0  0  0  0  0  0  0
  101.9213    4.4042  -90.2425 O   0  0  0  0  0  0  0  0  0  0  0  0
   99.4835    3.9268  -89.0592 O   0  0  0  0  0  0  0  0  0  0  0  0
  103.0635    4.4699  -91.0015 C   0  0  0  0  0  0  0  0  0  0  0  0
  101.3574    6.6919  -90.7964 O   0  0  0  0  0  0  0  0  0  0  0  0
   98.6411    8.1368  -90.5900 C   0  0  0  0  0  0  0  0  0  0  0  0
  105.1809    2.9725  -91.8617 P   0  0  0  0  0  0  0  0  0  0  0  0
  105.5858    5.6499  -91.0245 P   0  0  0  0  0  4  0  0  0  0  0  0
   96.5264    7.3142  -89.6767 O   0  0  0  0  0  0  0  0  0  0  0  0
  106.0806    7.0843  -91.4948 O   0  0  0  0  0  0  0  0  0  0  0  0
   98.2877    5.7071  -90.1847 C   0  0  0  0  0  0  0  0  0  0  0  0
  100.7702    8.8459  -91.3622 C   0  0  0  0  0  0  0  0  0  0  0  0
  100.9824    5.4278  -90.1980 C   0  0  0  0  0  0  0  0  0  0  0  0
  1 20  1  0
  1 26  1  0
  2 21  1  0
  3 13  1  0
  3 15  1  0
  3 26  1  0
  4 17  1  0
  4 25  1  0
  4 27  1  0
  5 21  1  0
  6 20  1  0
  6 23  1  0
  6 25  1  0
  7 22  2  0
  8 26  2  0
  9 25  1  0
 10 12  1  0
 10 18  1  0
 10 22  1  0
 11 18  1  0
 11 21  1  0
 12 13  1  0
 12 19  1  0
 14 22  1  0
 16 18  1  0
 16 27  1  0
 19 27  1  0
 22 24  1  0
M  END
>  <ID>  (1) 
conformer_0

$$$$
