
     RDKit          3D

 40 46  0  0  0  0  0  0  0  0999 V2000
   99.4832    7.2673  -90.5527 C   0  0  0  0  0  0  0  0  0  0  0  0
   98.6571    5.0753  -91.3830 C   0  0  0  0  0  0  0  0  0  0  0  0
  101.1920    4.4881  -89.8711 O   0  0  0  0  0  0  0  0  0  0  0  0
  100.5479    9.3649  -90.9433 O   0  0  0  0  0  0  0  0  0  0  0  0
  104.1970    3.8257  -92.4692 O   0  0  0  0  0  0  0  0  0  0  0  0
  102.1258    0.7395  -92.9446 O   0  0  0  0  0  0  0  0  0  0  0  0
  103.7939    2.5329  -92.7924 C   0  0  0  0  0  0  0  0  0  0  0  0
  101.4851    2.7461  -93.6685 N   0  0  0  0  0  0  0  0  0  0  0  0
   99.3079   10.0346  -91.1869 C   0  0  0  0  0  0  0  0  0  0  0  0
   98.1794    9.3524  -90.6077 C   0  0  0  0  0  0  0  0  0  0  0  0
  106.2048    7.7671  -91.9076 C   0  0  0  0  0  0  0  0  0  0  0  0
   99.4267    3.3700  -87.8276 O   0  0  0  0  0  0  0  0  0  0  0  0
  100.8000    7.9430  -90.8527 C   0  0  0  0  0  0  0  0  0  0  0  0
  106.2199    2.2616  -92.4490 N   0  0  0  0  0  0  0  0  0  0  0  0
  106.3421    6.4639  -91.1996 C   0  0  0  0  0  0  0  0  0  0  0  0
  100.8301    3.8766  -93.1353 C   0  0  0  0  0  0  0  0  0  0  0  0
   99.4995    4.3180  -92.3996 C   0  0  0  0  0  0  0  0  0  0  0  0
  106.9274    3.0197  -90.4092 O   0  0  0  0  0  0  0  0  0  0  0  0
  105.1253    9.8811  -91.5139 O   0  0  0  0  0  0  0  0  0  0  0  0
  105.1318    5.6307  -90.9921 C   0  0  0  0  0  0  0  0  0  0  0  0
   98.2527    7.9777  -90.4478 C   0  0  0  0  0  0  0  0  0  0  0  0
   97.0334   10.0819  -90.2386 C   0  0  0  0  0  0  0  0  0  0  0  0
  101.6031    4.3679  -88.3596 C   0  0  0  0  0  0  0  0  0  0  0  0
  105.1688    4.1814  -91.5126 C   0  0  0  0  0  0  0  0  0  0  0  0
  104.9600    1.5950  -92.7286 C   0  0  0  0  0  0  0  0  0  0  0  0
   99.3152    5.8792  -90.4661 N   0  0  0  0  0  0  0  0  0  0  0  0
   99.9174    5.1930  -89.3275 C   0  0  0  0  0  0  0  0  0  0  0  0
  100.0600    4.6814  -87.9007 C   0  0  0  0  0  0  0  0  0  0  0  0
  104.1132    6.4984  -90.4744 O   0  0  0  0  0  0  0  0  0  0  0  0
   95.9196    8.0321  -89.6920 C   0  0  0  0  0  0  0  0  0  0  0  0
   97.0340    7.2938  -90.2066 C   0  0  0  0  0  0  0  0  0  0  0  0
  102.5072    8.1761  -91.1475 C   0  0  0  0  0  0  0  0  0  0  0  0
  105.0223    8.5686  -91.5464 C   0  0  0  0  0  0  0  0  0  0  0  0
   95.9023    9.4042  -89.7288 C   0  0  0  0  0  0  0  0  0  0  0  0
   96.6608    5.9757  -90.4842 C   0  0  0  0  0  0  0  0  0  0  0  0
  102.4407    1.9877  -93.0797 C   0  0  0  0  0  0  0  0  0  0  0  0
  102.4500    9.6218  -91.0999 O   0  0  0  0  0  0  0  0  0  0  0  0
  103.9449    7.7604  -91.0230 C   0  0  0  0  0  0  0  0  0  0  0  0
   97.2623    4.9635  -91.2027 C   0  0  0  0  0  0  0  0  0  0  0  0
  106.1798    3.1666  -91.4104 C   0  0  0  0  0  0  0  0  0  0  0  0
  1 13  2  0
  1 21  1  0
  1 26  1  0
  2 17  2  0
  2 26  1  0
  2 39  1  0
  3 23  1  0
  3 27  1  0
  4  9  1  0
  4 13  1  0
  5  7  1  0
  5 24  1  0
  6 36  2  0
  7 25  1  0
  7 36  1  0
  8 16  1  0
  8 36  1  0
  9 10  1  0
 10 21  2  0
 10 22  1  0
 11 15  1  0
 11 33  1  0
 12 28  1  0
 13 32  1  0
 14 25  1  0
 14 40  1  0
 15 20  1  0
 16 17  2  0
 18 40  2  0
 19 33  1  0
 20 24  1  0
 20 29  1  0
 21 31  1  0
 22 34  1  0
 23 28  1  0
 24 40  1  0
 26 27  1  0
 27 28  1  0
 29 38  1  0
 30 31  1  0
 30 34  2  0
 31 35  2  0
 32 37  1  0
 32 38  1  0
 33 38  1  0
 35 39  1  0
M  END
>  <ID>  (1) 
conformer_0

$$$$
