
     RDKit          3D

 22 24  0  0  0  0  0  0  0  0999 V2000
   98.6989   10.6960  -91.7623 Cl  0  0  0  0  0  0  0  0  0  0  0  0
  106.6744    3.3017  -92.6971 O   0  0  0  0  0  0  0  0  0  0  0  0
   99.6391    6.6293  -89.9912 C   0  0  0  0  0  0  0  0  0  0  0  0
  102.4465    4.2085  -92.1503 C   0  0  0  0  0  0  0  0  0  0  0  0
  100.1983    7.0414  -91.2219 C   0  0  0  0  0  0  0  0  0  0  0  0
  104.3720    2.7776  -92.7629 C   0  0  0  0  0  0  0  0  0  0  0  0
  105.7354    2.3038  -92.5227 C   0  0  0  0  0  0  0  0  0  0  0  0
  103.8413    3.8733  -92.0887 C   0  0  0  0  0  0  0  0  0  0  0  0
   99.7647    3.4222  -87.9108 O   0  0  0  0  0  0  0  0  0  0  0  0
  101.7835    5.1655  -91.3285 N   0  0  0  0  0  0  0  0  0  0  0  0
  103.5444    2.0371  -93.6422 C   0  0  0  0  0  0  0  0  0  0  0  0
  101.0154    6.1615  -92.0628 C   0  0  0  0  0  0  0  0  0  0  0  0
   98.3641    8.7011  -89.9488 C   0  0  0  0  0  0  0  0  0  0  0  0
   99.9418    8.3205  -91.7062 C   0  0  0  0  0  0  0  0  0  0  0  0
  102.4059    4.6648  -89.1483 O   0  0  0  0  0  0  0  0  0  0  0  0
   99.6072    4.8890  -88.0947 C   0  0  0  0  0  0  0  0  0  0  0  0
   98.6647    7.4427  -89.4087 C   0  0  0  0  0  0  0  0  0  0  0  0
  101.6580    3.4534  -93.0366 C   0  0  0  0  0  0  0  0  0  0  0  0
   99.0243    9.1248  -91.0808 C   0  0  0  0  0  0  0  0  0  0  0  0
  100.1334    5.3755  -89.3859 C   0  0  0  0  0  0  0  0  0  0  0  0
  101.4383    4.9269  -89.9573 C   0  0  0  0  0  0  0  0  0  0  0  0
  102.1890    2.4051  -93.7744 C   0  0  0  0  0  0  0  0  0  0  0  0
  1 19  1  0
  2  7  1  0
  3  5  2  0
  3 17  1  0
  3 20  1  0
  4  8  1  0
  4 10  1  0
  4 18  1  0
  5 12  1  0
  5 14  1  0
  6  7  1  0
  6  8  2  0
  6 11  1  0
  9 16  1  0
 10 12  1  0
 10 21  1  0
 11 22  1  0
 13 17  2  0
 13 19  1  0
 14 19  2  0
 15 21  2  0
 16 20  1  0
 18 22  2  0
 20 21  1  0
M  END
>  <ID>  (1) 
conformer_0

$$$$
