
     RDKit          3D

 27 31  0  0  0  0  0  0  0  0999 V2000
  105.3863    6.1177  -91.1993 C   0  0  0  0  0  0  0  0  0  0  0  0
  101.9624    8.6292  -91.5448 C   0  0  0  0  0  0  0  0  0  0  0  0
  105.4403    1.3500  -93.6275 N   0  0  0  0  0  0  0  0  0  0  0  0
  101.6613    3.3617  -93.9724 C   0  0  0  0  0  0  0  0  0  0  0  0
   99.4102    8.4026  -90.5174 C   0  0  0  0  0  0  0  0  0  0  0  0
  104.0369    3.1958  -92.9204 C   0  0  0  0  0  0  0  0  0  0  0  0
  104.4216    0.8895  -94.4015 C   0  0  0  0  0  0  0  0  0  0  0  0
  102.2539    6.2258  -91.5749 C   0  0  0  0  0  0  0  0  0  0  0  0
  101.4077    7.3274  -91.3291 C   0  0  0  0  0  0  0  0  0  0  0  0
  102.4133    4.7819  -92.0223 C   0  0  0  0  0  0  0  0  0  0  0  0
   97.2830    5.3933  -89.6177 C   0  0  0  0  0  0  0  0  0  0  0  0
   97.8863    8.0571  -89.8416 C   0  0  0  0  0  0  0  0  0  0  0  0
  103.2131    1.5297  -94.4729 C   0  0  0  0  0  0  0  0  0  0  0  0
   99.2763    6.0981  -90.5970 N   0  0  0  0  0  0  0  0  0  0  0  0
  106.4409    6.6467  -92.1047 N   0  0  0  0  0  0  0  0  0  0  0  0
  104.9558    4.6895  -91.2784 C   0  0  0  0  0  0  0  0  0  0  0  0
   99.2053    4.7052  -90.7538 C   0  0  0  0  0  0  0  0  0  0  0  0
  103.0048    2.6909  -93.7439 C   0  0  0  0  0  0  0  0  0  0  0  0
   98.0238    4.2414  -90.1406 C   0  0  0  0  0  0  0  0  0  0  0  0
   98.0497    6.4643  -89.9627 C   0  0  0  0  0  0  0  0  0  0  0  0
  105.2229    2.4827  -92.8558 C   0  0  0  0  0  0  0  0  0  0  0  0
   99.8714    9.6525  -90.7317 N   0  0  0  0  0  0  0  0  0  0  0  0
  101.6991    4.7441  -93.4084 N   0  0  0  0  0  0  0  0  0  0  0  0
  100.1089    7.2365  -90.8457 C   0  0  0  0  0  0  0  0  0  0  0  0
  101.9005    3.9191  -91.1160 O   0  0  0  0  0  0  0  0  0  0  0  0
  103.8556    4.4126  -92.2020 N   0  0  0  0  0  0  0  0  0  0  0  0
  101.1867    9.7539  -91.2832 C   0  0  0  0  0  0  0  0  0  0  0  0
  1 15  1  0
  1 16  1  0
  2  9  2  0
  2 27  1  0
  3  7  2  0
  3 21  1  0
  4 18  1  0
  4 23  1  0
  5 12  1  0
  5 22  1  0
  5 24  2  0
  6 18  1  0
  6 21  2  0
  6 26  1  0
  7 13  1  0
  8  9  1  0
  8 10  1  0
  9 24  1  0
 10 23  1  0
 10 25  1  0
 10 26  1  0
 11 19  1  0
 11 20  1  0
 12 20  1  0
 13 18  2  0
 14 17  1  0
 14 20  1  0
 14 24  1  0
 16 26  1  0
 17 19  1  0
 22 27  2  0
M  END
>  <ID>  (1) 
conformer_0

$$$$
