
     RDKit          3D

 23 23  0  0  0  0  0  0  0  0999 V2000
  103.5170    3.3241  -92.8098 C   0  0  0  0  0  0  0  0  0  0  0  0
   98.1230    6.9051  -88.7665 C   0  0  0  0  0  0  0  0  0  0  0  0
  100.9164    5.0324  -93.9160 O   0  0  0  0  0  0  0  0  0  0  0  0
   99.7662    7.8688  -90.3632 C   0  0  0  0  0  0  0  0  0  0  0  0
  100.0571    5.5657  -89.1994 C   0  0  0  0  0  0  0  0  0  0  0  0
   99.2794    6.8182  -89.4477 C   0  0  0  0  0  0  0  0  0  0  0  0
  100.8783    5.9139  -91.6797 C   0  0  0  0  0  0  0  0  0  0  0  0
  101.6649    5.1308  -92.7496 C   0  0  0  0  0  0  0  0  0  0  0  0
   98.8809    8.8083  -90.7769 C   0  0  0  0  0  0  0  0  0  0  0  0
  105.8398    2.8542  -92.8119 O   0  0  0  0  0  0  0  0  0  0  0  0
   96.7109    8.6969  -89.5653 C   0  0  0  0  0  0  0  0  0  0  0  0
  103.5414    2.0048  -93.4849 C   0  0  0  0  0  0  0  0  0  0  0  0
  100.8897    5.0672  -90.3344 C   0  0  0  0  0  0  0  0  0  0  0  0
  101.5500    9.3237  -90.9220 O   0  0  0  0  0  0  0  0  0  0  0  0
  104.8621    3.5310  -92.3024 C   0  0  0  0  0  0  0  0  0  0  0  0
  101.1635    8.1021  -90.9773 C   0  0  0  0  0  0  0  0  0  0  0  0
   97.6379    9.1645  -90.4786 C   0  0  0  0  0  0  0  0  0  0  0  0
  102.0624    7.3380  -91.7111 O   0  0  0  0  0  0  0  0  0  0  0  0
  105.0823    4.5714  -91.5942 O   0  0  0  0  0  0  0  0  0  0  0  0
  101.2542    2.8257  -92.2154 O   0  0  0  0  0  0  0  0  0  0  0  0
   99.8643    4.9240  -87.9545 N   0  0  0  0  0  0  0  0  0  0  0  0
  102.2158    3.8141  -92.2932 C   0  0  0  0  0  0  0  0  0  0  0  0
   96.9801    7.6110  -88.6850 C   0  0  0  0  0  0  0  0  0  0  0  0
  1 12  1  0
  1 15  1  0
  1 22  1  0
  2  6  1  0
  2 23  2  0
  3  8  1  0
  4  6  1  0
  4  9  1  0
  4 16  1  0
  5  6  1  0
  5 13  2  3
  5 21  1  0
  7  8  1  0
  7 13  1  0
  8 22  1  0
  9 17  2  0
 10 15  2  0
 11 17  1  0
 11 23  1  0
 14 16  2  0
 15 19  1  0
 16 18  1  0
 20 22  1  0
M  END
>  <ID>  (1) 
conformer_0

$$$$
