
     RDKit          3D

 21 21  0  0  0  0  0  0  0  0999 V2000
   98.9562    9.2139  -90.8260 C   0  0  0  0  0  0  0  0  0  0  0  0
  103.5331    8.3163  -91.2323 O   0  0  0  0  0  0  0  0  0  0  0  0
   99.9460    3.9179  -90.6288 O   0  0  0  0  0  0  0  0  0  0  0  0
   98.2852    7.9866  -90.9333 C   0  0  0  0  0  0  0  0  0  0  0  0
  100.9326    8.1365  -91.4302 C   0  0  0  0  0  3  0  0  0  0  0  0
  102.6317    3.9637  -92.3473 C   0  0  0  0  0  0  0  0  0  0  0  0
  102.1119    2.0878  -94.0237 C   0  0  0  0  0  0  0  0  0  0  0  0
  101.6271    4.0557  -89.2304 O   0  0  0  0  0  0  0  0  0  0  0  0
  101.0502    5.8036  -92.3536 C   0  0  0  0  0  0  0  0  0  0  0  0
  101.1050    4.3096  -90.3177 C   0  0  0  0  0  0  0  0  0  0  0  0
  103.2115    0.7590  -92.4043 O   0  0  0  0  0  0  0  0  0  0  0  0
  101.4317    9.2325  -91.2794 C   0  0  0  0  0  0  0  0  0  0  0  0
   98.9602    6.8347  -91.3408 C   0  0  0  0  0  0  0  0  0  0  0  0
  100.3155    6.9276  -91.6749 C   0  0  0  0  0  0  0  0  0  0  0  0
  104.4535    1.7947  -93.9199 O   0  0  0  0  0  0  0  0  0  0  0  0
  103.3620   10.4841  -91.4914 O   0  0  0  0  0  0  0  0  0  0  0  0
  103.3504    1.5228  -93.3841 C   0  0  0  0  0  0  0  0  0  0  0  0
  101.9490    4.9798  -91.3833 C   0  0  0  0  0  0  0  0  0  0  0  0
  100.3658    9.2388  -91.0672 C   0  0  0  0  0  0  0  0  0  0  0  0
  102.8111    9.3788  -91.3721 C   0  0  0  0  0  0  0  0  0  0  0  0
  101.6876    3.4251  -93.4626 C   0  0  0  0  0  0  0  0  0  0  0  0
  1  4  1  0
  1 19  2  0
  2 20  2  0
  3 10  2  0
  4 13  2  0
  5 12  1  0
  5 14  2  0
  6 18  1  0
  6 21  1  0
  7 17  1  0
  7 21  1  0
  8 10  1  0
  9 14  1  0
  9 18  1  0
 10 18  1  0
 11 17  2  0
 12 19  2  0
 12 20  1  0
 13 14  1  0
 15 17  1  0
 16 20  1  0
M  END
>  <ID>  (1) 
conformer_0

$$$$
