
     RDKit          3D

 27 30  0  0  0  0  0  0  0  0999 V2000
  103.5038    2.5588  -93.2146 C   0  0  0  0  0  0  0  0  0  0  0  0
  104.7815    2.2631  -92.8236 O   0  0  0  0  0  0  0  0  0  0  0  0
  101.1474    5.4282  -93.4918 O   0  0  0  0  0  0  0  0  0  0  0  0
  100.4716    7.3648  -90.4855 C   0  0  0  0  0  0  0  0  0  0  0  0
  103.0195    3.9162  -92.8719 C   0  0  0  0  0  0  0  0  0  0  0  0
  102.7860    1.6585  -93.9921 C   0  0  0  0  0  0  0  0  0  0  0  0
   98.8947   11.4805  -91.3651 Cl  0  0  0  0  0  0  0  0  0  0  0  0
  106.5312    3.8166  -92.6505 O   0  0  0  0  0  0  0  0  0  0  0  0
   99.4902    9.8775  -91.0506 C   0  0  0  0  0  0  0  0  0  0  0  0
  102.3856    6.2911  -91.1789 C   0  0  0  0  0  0  0  0  0  0  0  0
  104.1923    4.5333  -92.1052 C   0  0  0  0  0  0  0  0  0  0  0  0
   99.1499    7.6456  -90.2582 C   0  0  0  0  0  0  0  0  0  0  0  0
  101.7379    4.1959  -93.5308 C   0  0  0  0  0  0  0  0  0  0  0  0
   98.6409    8.9250  -90.5229 C   0  0  0  0  0  0  0  0  0  0  0  0
  101.3034    5.2547  -89.0472 C   0  0  0  0  0  0  0  0  0  0  0  0
  105.4169    3.4249  -92.0157 C   0  0  0  0  0  0  0  0  0  0  0  0
  100.7989    9.5948  -91.3756 C   0  0  0  0  0  0  0  0  0  0  0  0
  105.6479    2.9817  -90.8025 O   0  0  0  0  0  0  0  0  0  0  0  0
  101.2400    8.2895  -91.1791 C   0  0  0  0  0  0  0  0  0  0  0  0
  102.4217    7.6622  -91.6114 N   0  0  0  0  0  0  0  0  0  0  0  0
  100.2499    4.2131  -88.9650 C   0  0  0  0  0  0  0  0  0  0  0  0
  103.0960    5.3517  -91.8189 N   0  0  0  0  0  0  0  0  0  0  0  0
  100.3122    3.2719  -88.0811 O   0  0  0  0  0  0  0  0  0  0  0  0
  101.0449    3.2711  -94.3188 C   0  0  0  0  0  0  0  0  0  0  0  0
  101.3219    6.2043  -90.2406 C   0  0  0  0  0  0  0  0  0  0  0  0
   99.1475    4.2219  -90.0239 C   0  0  0  0  0  0  0  0  0  0  0  0
  101.5701    1.9993  -94.5549 C   0  0  0  0  0  0  0  0  0  0  0  0
  1  2  1  0
  1  5  1  0
  1  6  2  0
  2 16  1  0
  3 13  1  0
  4 12  2  0
  4 19  1  0
  4 25  1  0
  5 11  1  0
  5 13  1  0
  6 27  1  0
  7  9  1  0
  8 16  1  0
  9 14  1  0
  9 17  2  0
 10 20  2  0
 10 22  1  0
 10 25  1  0
 11 16  1  0
 11 22  1  0
 12 14  1  0
 13 24  2  0
 15 21  2  3
 15 25  1  0
 16 18  1  0
 17 19  1  0
 19 20  1  0
 21 23  1  0
 21 26  1  0
 24 27  1  0
M  END
>  <ID>  (1) 
conformer_0

$$$$
