
     RDKit          3D

 33 34  0  0  0  0  0  0  0  0999 V2000
  100.3557    7.7528  -91.3856 C   0  0  0  0  0  0  0  0  0  0  0  0
  107.1685    6.9263  -92.5954 C   0  0  0  0  0  0  0  0  0  0  0  0
  100.8415    9.0286  -91.2327 C   0  0  0  0  0  0  0  0  0  0  0  0
   99.0212    7.3929  -91.2566 C   0  0  0  0  0  0  0  0  0  0  0  0
   98.1120    8.4301  -90.9307 C   0  0  0  0  0  0  0  0  0  0  0  0
  102.3841    1.2239  -92.4595 O   0  0  0  0  0  0  0  0  0  0  0  0
  105.7416    7.8729  -90.1071 O   0  0  0  0  0  0  0  0  0  0  0  0
  102.9364   10.2740  -91.2345 O   0  0  0  0  0  0  0  0  0  0  0  0
  104.1113   -0.0161  -91.6819 C   0  0  0  0  0  0  0  0  0  0  0  0
   99.6607    5.9456  -88.4991 O   0  0  0  0  0  1  0  0  0  0  0  0
   99.8215    4.5912  -89.2406 P   0  0  0  0  0  4  0  0  0  0  0  0
   99.4371    4.8676  -90.9684 C   0  0  0  0  0  0  0  0  0  0  0  0
   98.8009    3.5764  -88.8250 O   0  0  0  0  0  0  0  0  0  0  0  0
  104.7424    2.3985  -91.8122 C   0  0  0  0  0  0  0  0  0  0  0  0
  105.2333    4.7189  -91.2694 C   0  0  0  0  0  0  0  0  0  0  0  0
  101.2438    4.1117  -88.8119 O   0  0  0  0  0  0  0  0  0  0  0  0
  102.9541    7.9484  -91.0091 C   0  0  0  0  0  0  0  0  0  0  0  0
   98.5073    5.9683  -91.4040 C   0  0  0  0  0  0  0  0  0  0  0  0
  104.0864    3.6780  -91.2665 C   0  0  0  0  0  0  0  0  0  0  0  0
   98.5579    9.7555  -90.8067 C   0  0  0  0  0  0  0  0  0  0  0  0
  105.6842    2.6605  -92.7531 O   0  0  0  0  0  0  0  0  0  0  0  0
  100.1785    4.0772  -92.0864 C   0  0  0  0  0  0  0  0  0  0  0  0
  105.9957    6.1011  -91.7251 C   0  0  0  0  0  0  0  0  0  0  0  0
  103.7343    1.3361  -92.1369 C   0  0  0  0  0  0  0  0  0  0  0  0
  105.2396    7.2226  -91.0015 C   0  0  0  0  0  0  0  0  0  0  0  0
   99.9518   10.0818  -90.9831 C   0  0  0  0  0  0  0  0  0  0  0  0
   97.9703    5.6046  -92.6408 O   0  0  0  0  0  0  0  0  0  0  0  0
  102.6679    3.7743  -91.7807 C   0  0  0  0  0  0  0  0  0  0  0  0
  102.3142    9.2167  -91.3561 C   0  0  0  0  0  0  0  0  0  0  0  0
  102.6415    4.2401  -93.0580 O   0  0  0  0  0  0  0  0  0  0  0  0
  104.0552    7.5353  -91.5764 N   0  0  0  0  0  0  0  0  0  0  0  0
  106.2525    4.1217  -90.4265 O   0  0  0  0  0  0  0  0  0  0  0  0
  101.3737    3.4222  -91.4106 O   0  0  0  0  0  0  0  0  0  0  0  0
  1  3  2  0
  1  4  1  0
  2 23  1  0
  3 26  1  0
  3 29  1  0
  4  5  2  0
  4 18  1  0
  5 20  1  0
  6 24  1  0
  7 25  2  0
  8 29  2  0
  9 24  1  0
 10 11  2  0
 11 12  1  0
 11 13  1  0
 11 16  1  0
 12 18  1  0
 12 22  1  0
 14 19  1  0
 14 21  1  0
 14 24  1  0
 15 19  1  0
 15 23  1  0
 15 32  1  0
 17 29  1  0
 17 31  1  0
 18 27  1  0
 19 28  1  0
 20 26  2  0
 22 33  1  0
 23 25  1  0
 25 31  1  0
 28 30  2  0
 28 33  1  0
M  END
>  <ID>  (1) 
conformer_0

$$$$
