
     RDKit          3D

 24 26  0  0  0  0  0  0  0  0999 V2000
   98.8103    7.0344  -91.5917 C   0  0  0  0  0  0  0  0  0  0  0  0
  102.9519    3.5627  -92.7391 C   0  0  0  0  0  0  0  0  0  0  0  0
  100.8580    4.7973  -93.0342 C   0  0  0  0  0  0  0  0  0  0  0  0
  101.3419    6.7139  -91.4281 C   0  0  0  0  0  0  0  0  0  0  0  0
  103.7336    6.2423  -91.2424 C   0  0  0  0  0  0  0  0  0  0  0  0
  102.6693    8.6822  -91.2895 C   0  0  0  0  0  0  0  0  0  0  0  0
  103.0022    4.8763  -91.8771 C   0  0  0  0  0  0  0  0  0  0  0  0
  102.5950    7.2630  -91.2978 C   0  0  0  0  0  0  0  0  0  0  0  0
  102.9851    2.2400  -92.2579 O   0  0  0  0  0  0  0  0  0  0  0  0
  102.7075    1.0175  -93.0485 C   0  0  0  0  0  0  0  0  0  0  0  0
   98.2167    6.0906  -90.7106 C   0  0  0  0  0  0  0  0  0  0  0  0
  101.4726    5.2328  -91.7471 C   0  0  0  0  0  0  0  0  0  0  0  0
  102.9499    1.2890  -94.5314 C   0  0  0  0  0  0  0  0  0  0  0  0
  100.1744    7.5105  -91.3591 C   0  0  0  0  0  0  0  0  0  0  0  0
  101.7620    3.7779  -93.6791 C   0  0  0  0  0  0  0  0  0  0  0  0
  105.0603    6.8032  -90.7367 C   0  0  0  0  0  0  0  0  0  0  0  0
  101.5421    9.4969  -91.1583 C   0  0  0  0  0  0  0  0  0  0  0  0
  103.8134    9.2675  -91.4534 O   0  0  0  0  0  0  0  0  0  0  0  0
  106.0940    6.4043  -91.6017 O   0  0  0  0  0  0  0  0  0  0  0  0
  104.3352    1.5027  -94.8020 O   0  0  0  0  0  0  0  0  0  0  0  0
  105.2474    6.6871  -89.3070 C   0  0  0  0  0  0  0  0  0  0  0  0
   99.3414   11.1253  -90.8474 C   0  0  0  0  0  0  0  0  0  0  0  0
  100.2868    8.9080  -91.1820 C   0  0  0  0  0  0  0  0  0  0  0  0
   99.0418    9.7312  -91.1462 C   0  0  0  0  0  0  0  0  0  0  0  0
  1 11  1  0
  1 14  1  0
  2  7  1  0
  2  9  1  0
  2 15  1  0
  3 12  1  0
  3 15  1  0
  4  8  2  0
  4 12  1  0
  4 14  1  0
  5  7  1  0
  5  8  1  0
  5 16  1  0
  6  8  1  0
  6 17  2  0
  6 18  1  0
  7 12  1  0
  9 10  1  0
 10 13  1  0
 13 20  1  0
 14 23  2  0
 16 19  1  0
 16 21  1  0
 17 23  1  0
 22 24  1  0
 23 24  1  0
M  END
>  <ID>  (1) 
conformer_0

$$$$
