
     RDKit          3D

 33 38  0  0  0  0  0  0  0  0999 V2000
  104.9582    7.5312  -91.2261 C   0  0  0  0  0  0  0  0  0  0  0  0
  105.6937    3.0310  -92.1364 C   0  0  0  0  0  0  0  0  0  0  0  0
   98.5948    9.4268  -90.8706 C   0  0  0  0  0  0  0  0  0  0  0  0
   99.8293    4.0233  -92.3335 C   0  0  0  0  0  0  0  0  0  0  0  0
   97.5884    7.4746  -90.1070 C   0  0  0  0  0  0  0  0  0  0  0  0
  102.1935    4.0894  -92.3606 C   0  0  0  0  0  0  0  0  0  0  0  0
   99.3179   11.6047  -91.5807 C   0  0  0  0  0  0  0  0  0  0  0  0
  103.9579    2.4202  -93.7080 C   0  0  0  0  0  0  0  0  0  0  0  0
   99.6453   10.2505  -91.2346 C   0  0  0  0  0  0  0  0  0  0  0  0
  105.4785    6.5061  -89.0449 C   0  0  0  0  0  0  0  0  0  0  0  0
  104.7938    1.6464  -94.3631 O   0  0  0  0  0  0  0  0  0  0  0  0
   98.8134    8.1009  -90.6169 C   0  0  0  0  0  0  0  0  0  0  0  0
  103.9818    6.5446  -89.3374 C   0  0  0  0  0  0  0  0  0  0  0  0
  101.7375    3.1864  -93.2835 C   0  0  0  0  0  0  0  0  0  0  0  0
  100.9581    9.7333  -91.2997 C   0  0  0  0  0  0  0  0  0  0  0  0
  103.5750    4.1092  -92.0371 C   0  0  0  0  0  0  0  0  0  0  0  0
  100.2961    3.2243  -93.3176 N   0  0  0  0  0  0  0  0  0  0  0  0
   98.1366    5.1769  -89.7334 C   0  0  0  0  0  0  0  0  0  0  0  0
  106.0994    7.3077  -90.2116 C   0  0  0  0  0  0  0  0  0  0  0  0
  101.0105    4.8687  -91.7870 C   0  0  0  0  0  0  0  0  0  0  0  0
  101.1210    8.3696  -91.0986 C   0  0  0  0  0  0  0  0  0  0  0  0
  100.2143    5.9909  -91.0587 C   0  0  0  0  0  0  0  0  0  0  0  0
  103.9961    6.3211  -90.8716 C   0  0  0  0  0  0  0  0  0  0  0  0
   98.8774    5.4623  -90.9142 C   0  0  0  0  0  0  0  0  0  0  0  0
   98.7151    4.4726  -91.8982 N   0  0  0  0  0  0  0  0  0  0  0  0
  104.2787    4.8892  -90.9569 C   0  0  0  0  0  0  0  0  0  0  0  0
   97.2070    6.2990  -89.3466 C   0  0  0  0  0  0  0  0  0  0  0  0
  104.4133    3.2109  -92.6513 N   0  0  0  0  0  0  0  0  0  0  0  0
  106.7418    3.4620  -92.5285 O   0  0  0  0  0  0  0  0  0  0  0  0
   98.0170    4.0486  -89.2691 O   0  0  0  0  0  0  0  0  0  0  0  0
  103.0396    6.5806  -91.7522 O   0  0  0  0  0  0  0  0  0  0  0  0
  102.6013    2.3822  -94.0138 C   0  0  0  0  0  0  0  0  0  0  0  0
  100.0740    7.5021  -90.8828 C   0  0  0  0  0  0  0  0  0  0  0  0
  1 19  1  0
  1 23  1  0
  2 28  1  0
  2 29  2  0
  3  9  2  0
  3 12  1  0
  4 17  2  0
  4 20  1  0
  4 25  1  0
  5 12  1  0
  5 27  1  0
  6 14  2  0
  6 16  1  0
  6 20  1  0
  7  9  1  0
  8 11  2  0
  8 28  1  0
  8 32  1  0
  9 15  1  0
 10 13  1  0
 10 19  1  0
 12 33  2  0
 13 23  1  0
 14 17  1  0
 14 32  1  0
 15 21  2  0
 16 26  1  0
 16 28  1  0
 18 24  1  0
 18 27  1  0
 18 30  2  0
 20 22  1  0
 21 33  1  0
 22 24  1  0
 22 33  1  0
 23 26  1  0
 23 31  1  0
 24 25  1  0
M  END
>  <ID>  (1) 
conformer_0

$$$$
