
     RDKit          3D

 31 35  0  0  0  0  0  0  0  0999 V2000
  106.3895    8.4441  -92.1528 C   0  0  0  0  0  0  0  0  0  0  0  0
  104.3492    3.8321  -91.8761 C   0  0  0  0  0  0  0  0  0  0  0  0
   99.4973    7.6734  -91.0102 C   0  0  0  0  0  0  0  0  0  0  0  0
   97.8450    4.5210  -88.0831 C   0  0  0  0  0  0  0  0  0  0  0  0
  102.8060    1.8921  -94.2165 C   0  0  0  0  0  0  0  0  0  0  0  0
  104.0938   10.0332  -91.6732 C   0  0  0  0  0  0  0  0  0  0  0  0
  100.5557    4.3710  -92.3117 C   0  0  0  0  0  0  0  0  0  0  0  0
  105.4170    5.8385  -91.1813 C   0  0  0  0  0  0  0  0  0  0  0  0
  104.5413    2.5689  -92.5663 C   0  0  0  0  0  0  0  0  0  0  0  0
  101.6098    8.8419  -91.3119 C   0  0  0  0  0  0  0  0  0  0  0  0
  105.2067    8.8386  -91.3801 C   0  0  0  0  0  0  0  0  0  0  0  0
  103.0283    8.8497  -91.3988 C   0  0  0  0  0  0  0  0  0  0  0  0
  100.8423    7.7128  -91.3112 C   0  0  0  0  0  0  0  0  0  0  0  0
  103.1002    5.7182  -91.2502 C   0  0  0  0  0  0  0  0  0  0  0  0
   98.8476    8.9179  -90.8832 C   0  0  0  0  0  0  0  0  0  0  0  0
  104.0762    7.9234  -91.0414 C   0  0  0  0  0  0  0  0  0  0  0  0
  101.7424    3.7233  -91.4331 C   0  0  0  0  0  0  0  0  0  0  0  0
  104.1892    6.5077  -91.1628 C   0  0  0  0  0  0  0  0  0  0  0  0
   99.5413   10.0893  -90.9284 C   0  0  0  0  0  0  0  0  0  0  0  0
  105.4861    4.5275  -91.5389 C   0  0  0  0  0  0  0  0  0  0  0  0
   98.4353    5.2255  -90.6220 C   0  0  0  0  0  0  0  0  0  0  0  0
  100.0591    3.8649  -88.9878 C   0  0  0  0  0  0  0  0  0  0  0  0
   98.8429    6.5644  -90.8154 N   0  0  0  0  0  0  0  0  0  0  0  0
  100.9412   10.0887  -91.1357 C   0  0  0  0  0  0  0  0  0  0  0  0
  103.0875    4.4227  -91.5473 C   0  0  0  0  0  0  0  0  0  0  0  0
  105.7222    2.2294  -93.0248 O   0  0  0  0  0  0  0  0  0  0  0  0
  103.4998    1.8128  -92.8275 N   0  0  0  0  0  0  0  0  0  0  0  0
   98.8392    4.6527  -89.2490 C   0  0  0  0  0  0  0  0  0  0  0  0
   97.0710    5.3749  -90.7386 O   0  0  0  0  0  0  0  0  0  0  0  0
  101.1939    3.9266  -89.9778 N   0  0  0  0  0  0  0  0  0  0  0  0
   98.9650    4.3284  -91.8261 C   0  0  0  0  0  0  0  0  0  0  0  0
  1 11  1  0
  2  9  1  0
  2 20  2  0
  2 25  1  0
  3 13  2  0
  3 15  1  0
  3 23  1  0
  4 28  1  0
  5 27  1  0
  6 11  1  0
  6 12  1  0
  7 17  1  0
  7 31  1  0
  8 18  2  0
  8 20  1  0
  9 26  2  0
  9 27  1  0
 10 12  1  0
 10 13  1  0
 10 24  2  0
 11 16  1  0
 12 16  1  0
 14 18  1  0
 14 25  2  0
 15 19  2  0
 16 18  1  0
 17 25  1  0
 17 30  1  0
 19 24  1  0
 21 23  1  0
 21 28  1  0
 21 29  1  0
 21 31  1  0
 22 28  1  0
 22 30  1  0
M  END
>  <ID>  (1) 
conformer_0

$$$$
