
     RDKit          3D

 17 18  0  0  0  0  0  0  0  0999 V2000
  102.5815    5.9104  -91.3924 C   0  0  0  0  0  0  0  0  0  0  0  0
  101.8017    4.6518  -91.7927 C   0  0  0  0  0  0  0  0  0  0  0  0
  106.2730    3.1443  -92.6344 O   0  0  0  0  0  0  0  0  0  0  0  0
   98.9918    7.2211  -90.8603 C   0  0  0  0  0  0  0  0  0  0  0  0
  100.1548    6.3058  -91.0547 C   0  0  0  0  0  0  0  0  0  0  0  0
  101.4618    6.9390  -91.5020 C   0  0  0  0  0  0  0  0  0  0  0  0
  102.0379    8.4193  -91.2520 C   0  0  0  0  0  0  0  0  0  0  0  0
   99.3840    4.1013  -91.0973 O   0  0  0  0  0  0  0  0  0  0  0  0
  104.3680    4.0881  -91.5312 C   0  0  0  0  0  0  0  0  0  0  0  0
  106.6246    4.3052  -90.7165 O   0  0  0  0  0  0  0  0  0  0  0  0
  100.5318    9.5696  -91.2068 S   0  0  0  0  0  0  0  0  0  0  0  0
  105.8768    3.8568  -91.6103 C   0  0  0  0  0  0  0  0  0  0  0  0
   97.7684    6.6520  -90.9432 O   0  0  0  0  0  0  0  0  0  0  0  0
  100.3270    4.8918  -91.5943 C   0  0  0  0  0  0  0  0  0  0  0  0
   97.9968    9.5634  -90.4149 C   0  0  0  0  0  0  0  0  0  0  0  0
   99.0200    8.6747  -91.1265 C   0  0  0  0  0  0  0  0  0  0  0  0
  104.0321    5.5157  -91.0773 C   0  0  0  0  0  0  0  0  0  0  0  0
  1  2  1  0
  1  6  1  0
  1 17  1  0
  2 14  1  0
  3 12  2  0
  4  5  1  0
  4 13  1  0
  4 16  1  0
  5  6  1  0
  5 14  1  0
  6  7  1  0
  7 11  1  0
  8 14  1  0
  9 12  1  0
  9 17  1  0
 10 12  1  0
 11 16  1  0
 15 16  1  0
M  END
>  <ID>  (1) 
conformer_0

$$$$
