
     RDKit          3D

 22 24  0  0  0  0  0  0  0  0999 V2000
   98.4024    9.8445  -90.7063 C   0  0  0  0  0  0  0  0  0  0  0  0
  102.0090    4.7684  -90.7054 C   0  0  0  0  0  0  0  0  0  0  0  0
  100.5269   10.2995  -91.4742 N   0  0  0  0  0  0  0  0  0  0  0  0
  105.8586    2.4624  -92.8710 O   0  0  0  0  0  0  0  0  0  0  0  0
  100.6536    3.6823  -93.2436 C   0  0  0  0  0  0  0  0  0  0  0  0
  104.7482    1.4135  -91.2586 O   0  0  0  0  0  0  0  0  0  0  0  0
  100.6070    5.3816  -91.1182 C   0  0  0  0  0  0  0  0  0  0  0  0
  100.4869    9.0080  -91.1814 C   0  0  0  0  0  0  0  0  0  0  0  0
  100.2674    6.7457  -90.8864 C   0  0  0  0  0  0  0  0  0  0  0  0
   98.3324    5.1377  -89.9160 C   0  0  0  0  0  0  0  0  0  0  0  0
  104.0533    3.6295  -91.8936 C   0  0  0  0  0  0  0  0  0  0  0  0
   99.2765   10.8801  -91.1718 C   0  0  0  0  0  0  0  0  0  0  0  0
   99.0669    7.3130  -90.4578 C   0  0  0  0  0  0  0  0  0  0  0  0
  104.5033    4.7073  -92.5206 N   0  0  0  0  0  0  0  0  0  0  0  0
  104.8749    2.4525  -92.0138 C   0  0  0  0  0  0  0  0  0  0  0  0
  102.7733    3.7174  -91.3343 N   0  0  0  0  0  0  0  0  0  0  0  0
   99.0474    8.6823  -90.6390 C   0  0  0  0  0  0  0  0  0  0  0  0
   98.0795    6.4929  -89.9386 C   0  0  0  0  0  0  0  0  0  0  0  0
   99.5360    4.5967  -90.4322 C   0  0  0  0  0  0  0  0  0  0  0  0
  102.5319    5.2306  -89.5923 O   0  0  0  0  0  0  0  0  0  0  0  0
  100.7333    5.2239  -92.7717 C   0  0  0  0  0  0  0  0  0  0  0  0
  101.2036    7.8211  -91.2812 C   0  0  0  0  0  0  0  0  0  0  0  0
  1 12  1  0
  1 17  1  0
  2  7  1  0
  2 16  1  0
  2 20  2  0
  3  8  1  0
  3 12  1  0
  4 15  2  0
  5 21  1  0
  6 15  1  0
  7  9  1  0
  7 19  1  0
  7 21  1  0
  8 17  2  0
  8 22  1  0
  9 13  1  0
  9 22  1  0
 10 18  1  0
 10 19  2  0
 11 14  2  0
 11 15  1  0
 11 16  1  0
 13 17  1  0
 13 18  2  0
M  END
>  <ID>  (1) 
conformer_0

$$$$
