
     RDKit          3D

 24 26  0  0  0  0  0  0  0  0999 V2000
   97.5999    5.6898  -90.6931 C   0  0  0  0  0  0  0  0  0  0  0  0
   98.3740    6.8683  -90.8901 C   0  0  0  0  0  0  0  0  0  0  0  0
  105.4638    2.2052  -92.6700 O   0  0  0  0  0  0  0  0  0  0  0  0
  104.3801    5.4569  -91.2845 C   0  0  0  0  0  0  0  0  0  0  0  0
  102.2873    2.7786  -92.7004 N   0  0  0  0  0  0  0  0  0  0  0  0
   99.0367   10.6245  -91.5159 C   0  0  0  0  0  0  0  0  0  0  0  0
  100.7907    4.4498  -91.9388 C   0  0  0  0  0  0  0  0  0  0  0  0
   98.3335    4.5858  -91.1732 C   0  0  0  0  0  0  0  0  0  0  0  0
  100.8713    8.9109  -91.0893 C   0  0  0  0  0  0  0  0  0  0  0  0
  104.8154    9.0508  -91.4616 O   0  0  0  0  0  0  0  0  0  0  0  0
  101.8911    5.1623  -91.5422 C   0  0  0  0  0  0  0  0  0  0  0  0
   99.4911    6.4293  -91.4957 O   0  0  0  0  0  0  0  0  0  0  0  0
  106.3420    7.4310  -91.7435 O   0  0  0  0  0  0  0  0  0  0  0  0
   99.2976    9.2003  -91.0915 C   0  0  0  0  0  0  0  0  0  0  0  0
  104.0320    6.9319  -90.9005 C   0  0  0  0  0  0  0  0  0  0  0  0
  104.7828    3.2101  -92.3147 C   0  0  0  0  0  0  0  0  0  0  0  0
  103.3719    3.5158  -92.2588 C   0  0  0  0  0  0  0  0  0  0  0  0
  105.2345    7.8586  -91.3257 C   0  0  0  0  0  0  0  0  0  0  0  0
  101.0237    3.2458  -92.5749 C   0  0  0  0  0  0  0  0  0  0  0  0
  103.1554    4.7490  -91.6687 C   0  0  0  0  0  0  0  0  0  0  0  0
   99.5319    5.0735  -91.6090 C   0  0  0  0  0  0  0  0  0  0  0  0
  105.4775    4.4002  -91.8045 N   0  0  0  0  0  0  0  0  0  0  0  0
   96.9645    8.7445  -89.8905 C   0  0  0  0  0  0  0  0  0  0  0  0
   98.2161    8.2985  -90.5793 C   0  0  0  0  0  0  0  0  0  0  0  0
  1  2  1  0
  1  8  1  0
  2 12  1  0
  2 24  2  3
  3 16  2  0
  4 15  1  0
  4 20  1  0
  4 22  1  0
  5 17  1  0
  5 19  2  0
  6 14  1  0
  7 11  1  0
  7 19  1  0
  7 21  1  0
  8 21  1  0
  9 14  1  0
 10 18  2  0
 11 20  2  0
 12 21  1  0
 13 18  1  0
 14 24  1  0
 15 18  1  0
 16 17  1  0
 16 22  1  0
 17 20  1  0
 23 24  1  0
M  END
>  <ID>  (1) 
conformer_0

$$$$
