
     RDKit          3D

 24 26  0  0  0  0  0  0  0  0999 V2000
   99.3437    4.9366  -91.2210 F   0  0  0  0  0  0  0  0  0  0  0  0
  103.2288    5.8374  -89.0796 O   0  0  0  0  0  1  0  0  0  0  0  0
   97.6440    8.0229  -90.4485 C   0  0  0  0  0  0  0  0  0  0  0  0
   97.9136    6.6797  -90.6571 C   0  0  0  0  0  0  0  0  0  0  0  0
   99.2206    6.2599  -90.8932 C   0  0  0  0  0  0  0  0  0  0  0  0
  103.1635    8.8690  -91.8862 O   0  0  0  0  0  0  0  0  0  0  0  0
  102.3545    5.3814  -90.2418 S   0  0  0  0  0  4  0  0  0  0  0  0
  102.2416    8.4024  -91.2296 C   0  0  0  0  0  0  0  0  0  0  0  0
  100.0219    8.5067  -90.6613 C   0  0  0  0  0  0  0  0  0  0  0  0
  103.2750    4.4547  -91.5401 C   0  0  0  0  0  0  0  0  0  0  0  0
  103.1726    3.2730  -92.4543 C   0  0  0  0  0  0  0  0  0  0  0  0
  101.0003    4.0785  -93.6269 Cl  0  0  0  0  0  0  0  0  0  0  0  0
   98.7047    8.9611  -90.4437 C   0  0  0  0  0  0  0  0  0  0  0  0
  102.6243    0.6797  -93.4641 C   0  0  0  0  0  0  0  0  0  0  0  0
  101.4477    4.2325  -89.6407 O   0  0  0  0  0  1  0  0  0  0  0  0
  101.1606    9.2667  -90.7872 O   0  0  0  0  0  0  0  0  0  0  0  0
  103.9220    0.9482  -93.0360 C   0  0  0  0  0  0  0  0  0  0  0  0
  100.3160    7.1688  -90.8246 C   0  0  0  0  0  0  0  0  0  0  0  0
  104.2149    2.3069  -92.6461 C   0  0  0  0  0  0  0  0  0  0  0  0
  101.9911    2.9814  -93.1631 C   0  0  0  0  0  0  0  0  0  0  0  0
  101.8171    6.9503  -90.9856 C   0  0  0  0  0  0  0  0  0  0  0  0
  105.5433    2.5519  -92.5794 O   0  0  0  0  0  0  0  0  0  0  0  0
  104.6211    4.5774  -90.9270 O   0  0  0  0  0  0  0  0  0  0  0  0
  101.6816    1.6801  -93.5728 N   0  0  0  0  0  0  0  0  0  0  0  0
  1  5  1  0
  2  7  1  0
  3  4  2  0
  3 13  1  0
  4  5  1  0
  5 18  2  0
  6  8  2  0
  7 10  1  0
  7 15  1  0
  7 21  1  0
  8 16  1  0
  8 21  1  0
  9 13  2  0
  9 16  1  0
  9 18  1  0
 10 11  1  0
 10 23  2  0
 11 19  1  0
 11 20  1  0
 12 20  1  0
 14 17  1  0
 14 24  2  0
 17 19  2  0
 18 21  1  0
 19 22  1  0
 20 24  1  0
M  END
>  <ID>  (1) 
conformer_0

$$$$
