
     RDKit          3D

 16 15  0  0  0  0  0  0  0  0999 V2000
  100.4763    7.0944  -90.5291 O   0  0  0  0  0  0  0  0  0  0  0  0
  104.9667    2.5065  -91.5932 O   0  0  0  0  0  0  0  0  0  0  0  0
  100.4004    5.7055  -90.1072 C   0  0  0  0  0  0  0  0  0  0  0  0
  105.9933    5.5479  -90.3646 O   0  0  0  0  0  0  0  0  0  0  0  0
  101.1944    4.7255  -91.0428 C   0  0  0  0  0  0  0  0  0  0  0  0
  106.2980    4.5767  -92.3817 O   0  0  0  0  0  0  0  0  0  0  0  0
   98.5559    6.6685  -91.9656 C   0  0  0  0  0  0  0  0  0  0  0  0
   99.2750    9.1495  -91.2160 C   0  0  0  0  0  0  0  0  0  0  0  0
  102.4985    5.3143  -91.4046 N   0  0  0  0  0  0  0  0  0  0  0  0
  103.8860    3.2208  -91.6489 C   0  0  0  0  0  0  0  0  0  0  0  0
  100.2333    3.7193  -91.3341 O   0  0  0  0  0  0  0  0  0  0  0  0
  105.5628    4.9850  -91.4186 C   0  0  0  0  0  0  0  0  0  0  0  0
  104.0165    4.7715  -91.4365 C   0  0  0  0  0  0  0  0  0  0  0  0
  100.6200    9.8304  -91.1130 O   0  0  0  0  0  0  0  0  0  0  0  0
  102.7762    2.6042  -91.9629 O   0  0  0  0  0  0  0  0  0  0  0  0
   99.3509    7.6675  -91.2003 C   0  0  0  0  0  0  0  0  0  0  0  0
  1  3  1  0
  1 16  1  0
  2 10  2  0
  3  5  1  0
  4 12  2  0
  5  9  1  0
  5 11  2  0
  6 12  1  0
  7 16  1  0
  8 14  1  0
  8 16  1  0
  9 13  1  0
 10 13  1  0
 10 15  1  0
 12 13  1  0
M  END
>  <ID>  (1) 
conformer_0

$$$$
