
     RDKit          3D

 19 20  0  0  0  0  0  0  0  0999 V2000
  106.2396    3.3978  -91.1498 O   0  0  0  0  0  0  0  0  0  0  0  0
  103.2791    4.9511  -91.3959 C   0  0  0  0  0  0  0  0  0  0  0  0
  101.9576    5.5132  -91.4571 N   0  0  0  0  0  0  0  0  0  0  0  0
  104.0536    5.7467  -90.2272 C   0  0  0  0  0  0  0  0  0  0  0  0
  100.8335    9.8196  -91.4013 C   0  0  0  0  0  0  0  0  0  0  0  0
  101.8194    1.9883  -92.5512 O   0  0  0  0  0  0  0  0  0  0  0  0
  101.0898    6.1435  -90.5162 C   0  0  0  0  0  0  0  0  0  0  0  0
   98.6266    8.8646  -90.9338 C   0  0  0  0  0  0  0  0  0  0  0  0
  101.4320    8.5873  -91.1297 C   0  0  0  0  0  0  0  0  0  0  0  0
  103.5701    3.6846  -92.2797 C   0  0  0  0  0  0  0  0  0  0  0  0
   99.8429    5.4080  -90.1577 C   0  0  0  0  0  0  0  0  0  0  0  0
   98.6476    6.4113  -90.1698 C   0  0  0  0  0  0  0  0  0  0  0  0
  104.3599    2.3117  -92.1810 C   0  0  0  0  0  0  0  0  0  0  0  0
  105.8086    2.5012  -92.1255 C   0  0  0  0  0  0  0  0  0  0  0  0
   99.4272    9.9591  -91.3144 C   0  0  0  0  0  0  0  0  0  0  0  0
  102.2159    3.2809  -92.8883 C   0  0  0  0  0  0  0  0  0  0  0  0
   99.6174    4.4201  -88.9805 C   0  0  0  0  0  0  0  0  0  0  0  0
  100.6404    7.5046  -90.7774 C   0  0  0  0  0  0  0  0  0  0  0  0
   99.2645    7.6415  -90.6232 C   0  0  0  0  0  0  0  0  0  0  0  0
  1 14  1  0
  2  3  1  0
  2  4  1  0
  2 10  1  0
  3  7  1  0
  5  9  2  0
  5 15  1  0
  6 16  1  0
  7 11  1  0
  7 18  1  0
  8 15  2  0
  8 19  1  0
  9 18  1  0
 10 13  1  0
 10 16  1  0
 11 12  1  0
 11 17  1  0
 12 19  1  0
 13 14  1  0
 18 19  2  0
M  END
>  <ID>  (1) 
conformer_0

$$$$
