
     RDKit          3D

 28 31  0  0  0  0  0  0  0  0999 V2000
  100.3783    3.3390  -92.8456 C   0  0  0  0  0  0  0  0  0  0  0  0
   98.2053    5.9751  -90.1786 C   0  0  0  0  0  0  0  0  0  0  0  0
  102.2534    6.7036  -91.3981 C   0  0  0  0  0  0  0  0  0  0  0  0
  103.1762    1.2819  -94.4054 C   0  0  0  0  0  0  0  0  0  0  0  0
  105.9499    6.1463  -91.9430 C   0  0  0  0  0  0  0  0  0  0  0  0
  100.3565    9.9650  -91.1245 C   0  0  0  0  0  0  0  0  0  0  0  0
  105.9544    2.3185  -93.2322 O   0  0  0  0  0  0  0  0  0  0  0  0
  104.9229    5.7579  -89.9695 O   0  0  0  0  0  0  0  0  0  0  0  0
   97.7939    8.3557  -90.4655 C   0  0  0  0  0  0  0  0  0  0  0  0
  101.2028    2.4696  -93.7124 C   0  0  0  0  0  0  0  0  0  0  0  0
  105.7052    3.7442  -91.4209 N   0  0  0  0  0  0  0  0  0  0  0  0
  103.8501    2.2212  -92.1368 C   0  0  0  0  0  0  0  0  0  0  0  0
  104.4898    7.0435  -90.3122 C   0  0  0  0  0  0  0  0  0  0  0  0
  105.2197    2.8144  -92.2964 C   0  0  0  0  0  0  0  0  0  0  0  0
   98.6956    7.3164  -90.4557 C   0  0  0  0  0  0  0  0  0  0  0  0
  101.1713    4.3422  -92.1221 C   0  0  0  0  0  0  0  0  0  0  0  0
  103.1116    7.4017  -90.3509 C   0  0  0  0  0  0  0  0  0  0  0  0
  100.6577    8.7146  -90.9133 C   0  0  0  0  0  0  0  0  0  0  0  0
  100.0565    7.5368  -90.7136 C   0  0  0  0  0  0  0  0  0  0  0  0
   99.1396    4.8786  -90.3986 C   0  0  0  0  0  0  0  0  0  0  0  0
   98.7881   11.7671  -91.6019 C   0  0  0  0  0  0  0  0  0  0  0  0
  105.4979    5.0805  -91.0392 C   0  0  0  0  0  0  0  0  0  0  0  0
   97.9611    9.6300  -90.7787 C   0  0  0  0  0  0  0  0  0  0  0  0
  102.6993    2.3115  -93.2653 C   0  0  0  0  0  0  0  0  0  0  0  0
  105.1203    7.3309  -91.5666 N   0  0  0  0  0  0  0  0  0  0  0  0
   99.0345   10.3953  -91.1390 C   0  0  0  0  0  0  0  0  0  0  0  0
  100.3546    5.1701  -91.2089 N   0  0  0  0  0  0  0  0  0  0  0  0
  100.9180    6.3760  -90.8551 C   0  0  0  0  0  0  0  0  0  0  0  0
  1 10  1  0
  1 16  1  0
  2 15  1  0
  2 20  1  0
  3 17  1  0
  3 28  1  0
  4 24  1  0
  5 22  1  0
  5 25  1  0
  6 18  2  0
  6 26  1  0
  7 14  2  0
  8 13  1  0
  8 22  1  0
  9 15  1  0
  9 23  2  0
 10 24  1  0
 11 14  1  0
 11 22  1  0
 12 14  1  0
 12 24  1  0
 13 17  1  0
 13 25  1  0
 15 19  2  0
 16 27  1  0
 18 19  1  0
 19 28  1  0
 20 27  1  0
 21 26  1  0
 23 26  1  0
 27 28  1  0
M  END
>  <ID>  (1) 
conformer_0

$$$$
