
     RDKit          3D

 21 23  0  0  0  0  0  0  0  0999 V2000
  105.0088    2.7082  -92.2040 C   0  0  0  0  0  0  0  0  0  0  0  0
  103.0244    5.6609  -91.1897 C   0  0  0  0  0  0  0  0  0  0  0  0
  106.0508    2.3442  -92.8376 O   0  0  0  0  0  0  0  0  0  0  0  0
  103.7502    2.5654  -92.9335 C   0  0  0  0  0  0  0  0  0  0  0  0
  101.5644    7.8288  -91.0353 C   0  0  0  0  0  0  0  0  0  0  0  0
  102.5762    3.4787  -92.8110 C   0  0  0  0  0  0  0  0  0  0  0  0
  105.0603    3.2682  -91.0919 O   0  0  0  0  0  0  0  0  0  0  0  0
   99.8939    5.7605  -91.3820 C   0  0  0  0  0  0  0  0  0  0  0  0
  101.3943    3.1683  -93.4236 C   0  0  0  0  0  0  0  0  0  0  0  0
   97.8134    7.2630  -90.2839 C   0  0  0  0  0  0  0  0  0  0  0  0
   98.6342    5.2143  -91.1134 C   0  0  0  0  0  0  0  0  0  0  0  0
  102.9689    7.1972  -91.2687 C   0  0  0  0  0  0  0  0  0  0  0  0
  100.3568    3.9123  -93.0026 N   0  0  0  0  0  0  0  0  0  0  0  0
   99.0873    7.8401  -90.4629 C   0  0  0  0  0  0  0  0  0  0  0  0
  102.9662    9.7549  -91.3790 O   0  0  0  0  0  0  0  0  0  0  0  0
  100.9369   10.2088  -90.7350 N   0  0  0  0  0  0  0  0  0  0  0  0
  100.7994    4.8369  -92.1185 C   0  0  0  0  0  0  0  0  0  0  0  0
  100.1825    7.1306  -90.9820 C   0  0  0  0  0  0  0  0  0  0  0  0
   97.5916    5.9048  -90.5959 C   0  0  0  0  0  0  0  0  0  0  0  0
  101.8008    9.3699  -91.1676 C   0  0  0  0  0  0  0  0  0  0  0  0
  102.1326    4.7327  -92.0069 N   0  0  0  0  0  0  0  0  0  0  0  0
  1  3  2  0
  1  4  1  0
  1  7  1  0
  2 12  1  0
  2 21  1  0
  4  6  2  3
  5 12  2  0
  5 18  1  0
  5 20  1  0
  6  9  1  0
  6 21  1  0
  8 11  1  0
  8 17  1  0
  8 18  2  0
  9 13  1  0
 10 14  2  0
 10 19  1  0
 11 19  2  0
 13 17  2  0
 14 18  1  0
 15 20  2  0
 16 20  1  0
 17 21  1  0
M  END
>  <ID>  (1) 
conformer_0

$$$$
