
     RDKit          3D

 30 34  0  0  0  0  0  0  0  0999 V2000
  105.5568    6.5436  -91.5324 N   0  0  0  0  0  0  0  0  0  0  0  0
  103.5244    2.9994  -92.7598 C   0  0  0  0  0  0  0  0  0  0  0  0
  102.5421    2.0277  -93.1546 C   0  0  0  0  0  0  0  0  0  0  0  0
  106.1534    7.7275  -91.6953 C   0  0  0  0  0  0  0  0  0  0  0  0
  105.1985    8.8245  -91.6049 C   0  0  0  0  0  0  0  0  0  0  0  0
  102.7171    8.8621  -91.2594 N   0  0  0  0  0  0  0  0  0  0  0  0
  100.1232   10.7745  -91.3671 Cl  0  0  0  0  0  0  0  0  0  0  0  0
  103.9657    8.1720  -91.4106 C   0  0  0  0  0  0  0  0  0  0  0  0
  103.2014    3.4474  -90.5105 O   0  0  0  0  0  0  0  0  0  0  0  0
  103.2732    5.6557  -91.2454 C   0  0  0  0  0  0  0  0  0  0  0  0
  105.1040    1.6277  -93.8113 C   0  0  0  0  0  0  0  0  0  0  0  0
   99.2593    4.9634  -87.4643 O   0  0  0  0  0  1  0  0  0  0  0  0
  100.9397    3.8886  -88.4284 O   0  0  0  0  0  1  0  0  0  0  0  0
  104.1702    1.2879  -94.6980 N   0  0  0  0  0  0  0  0  0  0  0  0
  104.1879    6.8048  -91.3909 N   0  0  0  0  0  0  0  0  0  0  0  0
   99.9939    4.7926  -88.5274 N   0  0  0  0  0  0  0  0  0  0  0  0
  102.3447    6.0484  -90.0841 C   0  0  0  0  0  0  0  0  0  0  0  0
  101.4137    8.3326  -90.9981 C   0  0  0  0  0  0  0  0  0  0  0  0
  103.3505    4.1335  -91.6370 C   0  0  0  0  0  0  0  0  0  0  0  0
  100.2311    9.0848  -91.2780 C   0  0  0  0  0  0  0  0  0  0  0  0
   99.5114    5.2295  -89.8138 C   0  0  0  0  0  0  0  0  0  0  0  0
   99.0150    8.4150  -91.4898 C   0  0  0  0  0  0  0  0  0  0  0  0
  101.2296    7.0116  -90.5001 C   0  0  0  0  0  0  0  0  0  0  0  0
   99.8943    6.4038  -90.4940 C   0  0  0  0  0  0  0  0  0  0  0  0
   97.9583    6.1980  -91.9203 C   0  0  0  0  0  0  0  0  0  0  0  0
  102.8255    1.4229  -94.4562 C   0  0  0  0  0  0  0  0  0  0  0  0
   98.5006    4.4134  -90.3829 C   0  0  0  0  0  0  0  0  0  0  0  0
  104.8370    2.5915  -92.9312 N   0  0  0  0  0  0  0  0  0  0  0  0
   98.9450    7.0186  -91.3233 C   0  0  0  0  0  0  0  0  0  0  0  0
   97.7349    4.9085  -91.4669 C   0  0  0  0  0  0  0  0  0  0  0  0
  1  4  1  0
  1 15  1  0
  2  3  1  0
  2 19  1  0
  2 28  1  0
  3 26  1  0
  4  5  1  0
  5  8  1  0
  6  8  2  0
  6 18  1  0
  7 20  1  0
  8 15  1  0
  9 19  1  0
 10 15  1  0
 10 17  1  0
 10 19  1  0
 11 14  1  0
 11 28  2  0
 12 16  1  0
 13 16  1  0
 14 26  1  0
 16 21  1  0
 17 23  1  0
 18 20  1  0
 18 23  2  0
 20 22  2  0
 21 24  1  0
 21 27  2  0
 22 29  1  0
 23 24  1  0
 24 29  1  0
 25 29  1  0
 25 30  2  0
 27 30  1  0
M  END
>  <ID>  (1) 
conformer_0

$$$$
