
     RDKit          3D

 31 32  0  0  0  0  0  0  0  0999 V2000
  103.8250    2.2739  -91.6418 C   0  0  0  0  0  0  0  0  0  0  0  0
   99.3531    6.3767  -90.5811 C   0  0  0  0  0  0  0  0  0  0  0  0
  103.3647    1.0810  -91.0972 O   0  0  0  0  0  0  0  0  0  0  0  0
  102.4367    4.2294  -92.4321 C   0  0  0  0  0  0  0  0  0  0  0  0
  106.2347    5.4705  -91.4758 C   0  0  0  0  0  0  0  0  0  0  0  0
  106.2837    2.9081  -92.8808 O   0  0  0  0  0  1  0  0  0  0  0  0
   98.5625    5.3965  -91.4446 C   0  0  0  0  0  0  0  0  0  0  0  0
  105.2668    6.5875  -89.5159 O   0  0  0  0  0  0  0  0  0  0  0  0
   99.3258    5.2675  -92.6539 O   0  0  0  0  0  0  0  0  0  0  0  0
   97.9557    4.3381  -90.8179 O   0  0  0  0  0  0  0  0  0  0  0  0
   99.0050    8.7868  -90.7513 N   0  0  0  0  0  0  0  0  0  0  0  0
  104.3099    9.4851  -91.5980 C   0  0  0  0  0  0  0  0  0  0  0  0
  106.0338    6.6845  -90.5945 C   0  0  0  0  0  0  0  0  0  0  0  0
  102.6225    7.7005  -91.1203 C   0  0  0  0  0  0  0  0  0  0  0  0
  103.0027    2.9153  -92.6877 C   0  0  0  0  0  0  0  0  0  0  0  0
   99.7103    5.6117  -89.3414 C   0  0  0  0  0  0  0  0  0  0  0  0
  105.1403    4.5648  -91.5744 O   0  0  0  0  0  0  0  0  0  0  0  0
  106.1791    7.9253  -91.3502 C   0  0  0  0  0  0  0  0  0  0  0  0
   98.6372    5.4559  -88.4720 O   0  0  0  0  0  0  0  0  0  0  0  0
  100.5443    4.6065  -89.5704 O   0  0  0  0  0  0  0  0  0  0  0  0
  103.0017    9.1402  -91.3053 N   0  0  0  0  0  0  0  0  0  0  0  0
  101.2445    8.0844  -90.9432 C   0  0  0  0  0  0  0  0  0  0  0  0
  105.8830    2.2142  -90.6143 O   0  0  0  0  0  0  0  0  0  0  0  0
  105.3760    9.0015  -90.7792 C   0  0  0  0  0  0  0  0  0  0  0  0
  106.6049    7.7732  -92.6394 O   0  0  0  0  0  0  0  0  0  0  0  0
   99.3871   10.0443  -90.9734 C   0  0  0  0  0  0  0  0  0  0  0  0
  100.7243   10.4131  -91.1770 C   0  0  0  0  0  0  0  0  0  0  0  0
  101.6284    9.3946  -91.1428 C   0  0  0  0  0  0  0  0  0  0  0  0
   99.9345    7.7519  -90.7556 N   0  0  0  0  0  0  0  0  0  0  0  0
  105.3944    3.0564  -91.6960 P   0  0  0  0  0  4  0  0  0  0  0  0
  104.6641   10.3432  -92.4289 O   0  0  0  0  0  0  0  0  0  0  0  0
  1  3  1  0
  1 15  1  0
  1 30  1  0
  2  7  1  0
  2 16  1  0
  2 29  1  0
  4 15  1  0
  5 13  1  0
  5 17  1  0
  6 30  2  0
  7  9  2  0
  7 10  1  0
  8 13  1  0
 11 26  2  0
 11 29  1  0
 12 21  1  0
 12 24  1  0
 12 31  2  0
 13 18  1  0
 14 21  1  0
 14 22  1  0
 16 19  2  0
 16 20  1  0
 17 30  1  0
 18 24  1  0
 18 25  1  0
 21 28  1  0
 22 28  1  0
 22 29  1  0
 23 30  1  0
 26 27  1  0
 27 28  2  0
M  END
>  <ID>  (1) 
conformer_0

$$$$
