
     RDKit          3D

 19 20  0  0  0  0  0  0  0  0999 V2000
  105.4138    4.6223  -90.8157 O   0  0  0  0  0  0  0  0  0  0  0  0
   99.3355    9.5197  -91.1331 C   0  0  0  0  0  0  0  0  0  0  0  0
   98.6024    6.8735  -90.8288 C   0  0  0  0  0  0  0  0  0  0  0  0
   98.0847    9.2262  -90.6262 C   0  0  0  0  0  0  0  0  0  0  0  0
   99.9361    7.1533  -91.2809 C   0  0  0  0  0  0  0  0  0  0  0  0
  100.7353    3.6953  -92.6105 N   0  0  0  0  0  0  0  0  0  0  0  0
   98.0863    5.5424  -90.7175 N   0  0  0  0  0  0  0  0  0  0  0  0
  105.8519    3.4901  -91.5232 C   0  0  0  0  0  0  0  0  0  0  0  0
  102.2400    5.8611  -91.3127 C   0  0  0  0  0  0  0  0  0  0  0  0
  100.2934    8.5052  -91.3627 C   0  0  0  0  0  0  0  0  0  0  0  0
  104.3277    5.3314  -91.2293 C   0  0  0  0  0  0  0  0  0  0  0  0
  105.5245    2.3490  -91.0762 O   0  0  0  0  0  0  0  0  0  0  0  0
  103.0131    4.5186  -91.5951 C   0  0  0  0  0  0  0  0  0  0  0  0
  100.3291    5.0677  -92.6470 N   0  0  0  0  0  0  0  0  0  0  0  0
   97.7209    7.8893  -90.4743 C   0  0  0  0  0  0  0  0  0  0  0  0
  106.6682    3.6458  -92.5021 O   0  0  0  0  0  0  0  0  0  0  0  0
  100.8499    6.0406  -91.7044 C   0  0  0  0  0  0  0  0  0  0  0  0
   99.6456   11.1143  -91.5568 Cl  0  0  0  0  0  0  0  0  0  0  0  0
  101.8719    3.4564  -91.6492 O   0  0  0  0  0  0  0  0  0  0  0  0
  1  8  1  0
  1 11  1  0
  2  4  2  0
  2 10  1  0
  2 18  1  0
  3  5  1  0
  3  7  1  0
  3 15  2  0
  4 15  1  0
  5 10  2  0
  5 17  1  0
  6 14  1  0
  6 19  1  0
  8 12  2  0
  8 16  1  0
  9 13  1  0
  9 17  2  0
 11 13  1  0
 13 19  1  0
 14 17  1  0
M  END
>  <ID>  (1) 
conformer_0

$$$$
