
     RDKit          3D

 18 18  0  0  0  0  0  0  0  0999 V2000
  102.7606    5.9142  -90.6432 C   0  0  0  0  0  0  0  0  0  0  0  0
  100.8734    7.2485  -91.4762 C   0  0  0  0  0  0  0  0  0  0  0  0
   99.1829   11.1879  -91.4213 C   0  0  0  0  0  0  0  0  0  0  0  0
  105.5723    4.0391  -91.7448 C   0  0  0  0  0  0  0  0  0  0  0  0
  100.7787    4.6701  -91.4818 C   0  0  0  0  0  0  0  0  0  0  0  0
  101.5289    3.6045  -90.9767 O   0  0  0  0  0  0  0  0  0  0  0  0
  101.6988    8.4042  -91.5126 C   0  0  0  0  0  0  0  0  0  0  0  0
   98.7831    3.5009  -91.8379 O   0  0  0  0  0  0  0  0  0  0  0  0
   99.7618    9.8248  -91.3568 C   0  0  0  0  0  0  0  0  0  0  0  0
  104.3419    5.9880  -90.7169 C   0  0  0  0  0  0  0  0  0  0  0  0
   99.8950    4.1274  -92.5351 C   0  0  0  0  0  0  0  0  0  0  0  0
   99.5034    7.4093  -91.2936 C   0  0  0  0  0  0  0  0  0  0  0  0
  101.1672    9.6811  -91.4595 C   0  0  0  0  0  0  0  0  0  0  0  0
  101.5244    5.8926  -91.6116 C   0  0  0  0  0  0  0  0  0  0  0  0
   98.9333    8.6852  -91.2543 C   0  0  0  0  0  0  0  0  0  0  0  0
  104.7946    5.2590  -91.9486 C   0  0  0  0  0  0  0  0  0  0  0  0
  106.2233    3.8138  -90.7258 O   0  0  0  0  0  0  0  0  0  0  0  0
  105.5954    3.1737  -92.7571 O   0  0  0  0  0  0  0  0  0  0  0  0
  1 10  1  0
  1 14  1  0
  2  7  2  0
  2 12  1  0
  2 14  1  0
  3  9  1  0
  4 16  1  0
  4 17  2  0
  4 18  1  0
  5  6  1  0
  5 11  1  0
  5 14  1  0
  7 13  1  0
  8 11  1  0
  9 13  2  0
  9 15  1  0
 10 16  1  0
 12 15  2  0
M  END
>  <ID>  (1) 
conformer_0

$$$$
