
     RDKit          3D

 28 30  0  0  0  0  0  0  0  0999 V2000
  103.6915    5.8281  -88.9409 O   0  0  0  0  0  0  0  0  0  0  0  0
  105.3886    1.8588  -93.8264 O   0  0  0  0  0  0  0  0  0  0  0  0
  105.4300    4.7537  -91.7936 C   0  0  0  0  0  0  0  0  0  0  0  0
   98.5317    5.9543  -91.3753 C   0  0  0  0  0  0  0  0  0  0  0  0
   99.5543    5.9394  -90.2471 N   0  0  0  0  0  0  0  0  0  0  0  0
  104.3733    5.6820  -91.3418 C   0  0  0  0  0  0  0  0  0  0  0  0
   98.2671    4.1712  -89.4106 C   0  0  0  0  0  0  0  0  0  0  0  0
  107.5313    5.8919  -92.3264 C   0  0  0  0  0  0  0  0  0  0  0  0
   99.7211    8.7222  -90.8745 C   0  0  0  0  0  0  0  0  0  0  0  0
  102.7129    1.9273  -93.6084 O   0  0  0  0  0  0  0  0  0  0  0  0
  101.8612    4.5087  -93.7749 O   0  0  0  0  0  0  0  0  0  0  0  0
  101.6613    9.8990  -91.2694 C   0  0  0  0  0  0  0  0  0  0  0  0
  104.7395    2.3451  -92.6564 O   0  0  0  0  0  0  0  0  0  0  0  0
  100.1613    9.9982  -91.1512 C   0  0  0  0  0  0  0  0  0  0  0  0
  106.7853    5.0704  -91.3429 C   0  0  0  0  0  0  0  0  0  0  0  0
  101.7913    5.4915  -91.0038 C   0  0  0  0  0  0  0  0  0  0  0  0
  103.0101    5.3044  -91.8389 N   0  0  0  0  0  0  0  0  0  0  0  0
  104.4615    6.3654  -90.0392 C   0  0  0  0  0  0  0  0  0  0  0  0
  101.9971    8.5938  -91.0999 C   0  0  0  0  0  0  0  0  0  0  0  0
   97.1935    6.0891  -90.6489 C   0  0  0  0  0  0  0  0  0  0  0  0
  100.8101    6.5262  -90.5899 C   0  0  0  0  0  0  0  0  0  0  0  0
  100.8280    7.8772  -90.8429 C   0  0  0  0  0  0  0  0  0  0  0  0
   97.2459    5.2130  -89.4852 O   0  0  0  0  0  0  0  0  0  0  0  0
   99.7673    4.5593  -89.7658 C   0  0  0  0  0  0  0  0  0  0  0  0
  101.1659    4.2105  -90.4307 C   0  0  0  0  0  0  0  0  0  0  0  0
  107.3335    4.6301  -90.3480 O   0  0  0  0  0  0  0  0  0  0  0  0
  103.4102    2.8389  -92.8491 C   0  0  0  0  0  0  0  0  0  0  0  0
  102.9611    4.2576  -92.8693 C   0  0  0  0  0  0  0  0  0  0  0  0
  1 18  1  0
  2 13  1  0
  3  6  1  0
  3 15  1  0
  4  5  1  0
  4 20  1  0
  5 21  1  0
  5 24  1  0
  6 17  1  0
  6 18  1  0
  7 23  1  0
  7 24  1  0
  8 15  1  0
  9 14  1  0
  9 22  1  0
 10 27  2  0
 11 28  2  0
 12 14  1  0
 12 19  1  0
 13 27  1  0
 15 26  2  0
 16 17  1  0
 16 21  1  0
 16 25  1  0
 17 28  1  0
 19 22  1  0
 20 23  1  0
 21 22  1  0
 24 25  1  0
 27 28  1  0
M  END
>  <ID>  (1) 
conformer_0

$$$$
