
     RDKit          3D

 19 18  0  0  0  0  0  0  0  0999 V2000
  102.3125    5.5874  -91.9903 N   0  0  0  0  0  0  0  0  0  0  0  0
  101.5845    6.8268  -91.5735 C   0  0  0  0  0  0  0  0  0  0  0  0
  100.3593    4.6903  -88.7956 C   0  0  0  0  0  0  0  0  0  0  0  0
   99.9442    4.5165  -92.9356 N   0  0  0  0  0  0  0  0  0  0  0  0
  100.1386    5.7000  -89.7674 C   0  0  0  0  0  0  0  0  0  0  0  0
  102.0300    3.8197  -93.8728 C   0  0  0  0  0  0  0  0  0  0  0  0
  105.8000    4.2521  -92.0944 C   0  0  0  0  0  0  0  0  0  0  0  0
  101.1672    3.7356  -88.9237 O   0  0  0  0  0  0  0  0  0  0  0  0
  105.3316    5.4438  -90.1325 O   0  0  0  0  0  0  0  0  0  0  0  0
  101.8995    9.3977  -91.4546 C   0  0  0  0  0  0  0  0  0  0  0  0
   98.9196    7.5918  -91.2551 C   0  0  0  0  0  0  0  0  0  0  0  0
  100.2815    6.8028  -90.7986 C   0  0  0  0  0  0  0  0  0  0  0  0
  103.3504    4.7592  -91.2217 C   0  0  0  0  0  0  0  0  0  0  0  0
   99.6111    4.7417  -87.5036 C   0  0  0  0  0  0  0  0  0  0  0  0
  102.4108    7.9902  -91.2796 O   0  0  0  0  0  0  0  0  0  0  0  0
  100.4423   10.0096  -91.1942 C   0  0  0  0  0  0  0  0  0  0  0  0
  101.3774    4.7101  -92.8404 C   0  0  0  0  0  0  0  0  0  0  0  0
  104.7710    5.0486  -91.2800 C   0  0  0  0  0  0  0  0  0  0  0  0
  101.1625    3.0673  -94.7152 O   0  0  0  0  0  0  0  0  0  0  0  0
  1  2  1  0
  1 13  1  0
  1 17  1  0
  2 12  1  0
  2 15  1  0
  3  5  2  0
  3  8  1  0
  3 14  1  0
  4 17  2  0
  5 12  2  0
  6 17  1  0
  6 19  1  0
  7 18  1  0
  9 18  1  0
 10 15  1  0
 10 16  1  0
 11 12  1  0
 13 18  1  0
M  END
>  <ID>  (1) 
conformer_0

$$$$
