
     RDKit          3D

 24 26  0  0  0  0  0  0  0  0999 V2000
  101.4862    4.7043  -92.4627 N   0  0  0  0  0  0  0  0  0  0  0  0
  103.5890    3.7822  -92.6206 C   0  0  0  0  0  0  0  0  0  0  0  0
  104.6610    0.4060  -91.3086 O   0  0  0  0  0  1  0  0  0  0  0  0
  102.0651    3.4664  -93.2672 C   0  0  0  0  0  0  0  0  0  0  0  0
  105.0892    1.8235  -91.6558 P   0  0  0  0  0  4  0  0  0  0  0  0
  104.3612    6.5160  -89.6814 O   0  0  0  0  0  0  0  0  0  0  0  0
  100.2503    5.0920  -91.7884 C   0  0  0  0  0  0  0  0  0  0  0  0
  101.0799    8.5830  -91.0534 C   0  0  0  0  0  0  0  0  0  0  0  0
  101.1989    7.1905  -91.1895 C   0  0  0  0  0  0  0  0  0  0  0  0
  103.7409    7.0979  -90.5916 C   0  0  0  0  0  0  0  0  0  0  0  0
  102.5119    6.4593  -91.1129 C   0  0  0  0  0  0  0  0  0  0  0  0
  103.7794    2.7452  -91.5649 O   0  0  0  0  0  0  0  0  0  0  0  0
  105.5930    1.7822  -93.1379 O   0  0  0  0  0  0  0  0  0  0  0  0
  102.8145    5.2269  -91.9843 C   0  0  0  0  0  0  0  0  0  0  0  0
   97.4152    9.0270  -90.4262 C   0  0  0  0  0  0  0  0  0  0  0  0
   98.6950    8.4370  -90.8710 C   0  0  0  0  0  0  0  0  0  0  0  0
  104.2009    8.1201  -91.2349 O   0  0  0  0  0  0  0  0  0  0  0  0
  106.1366    2.3814  -90.7443 O   0  0  0  0  0  0  0  0  0  0  0  0
   99.8531    9.2195  -90.9728 C   0  0  0  0  0  0  0  0  0  0  0  0
   99.4877    4.1846  -91.3349 O   0  0  0  0  0  0  0  0  0  0  0  0
  100.7003    2.6629  -93.4999 C   0  0  0  0  0  0  0  0  0  0  0  0
   98.7899    7.0658  -91.1323 C   0  0  0  0  0  0  0  0  0  0  0  0
   99.7944   10.7103  -91.0840 C   0  0  0  0  0  0  0  0  0  0  0  0
  100.0214    6.4480  -91.3545 C   0  0  0  0  0  0  0  0  0  0  0  0
  1  4  1  0
  1  7  1  0
  1 14  1  0
  2  4  1  0
  2 12  1  0
  2 14  1  0
  3  5  2  0
  4 21  1  0
  5 12  1  0
  5 13  1  0
  5 18  1  0
  6 10  2  0
  7 20  2  0
  7 24  1  0
  8  9  1  0
  8 19  2  0
  9 11  1  0
  9 24  1  0
 10 11  1  0
 10 17  1  0
 11 14  1  0
 15 16  1  0
 16 19  1  0
 16 22  1  0
 19 23  1  0
 22 24  2  0
M  END
>  <ID>  (1) 
conformer_0

$$$$
