
     RDKit          3D

 36 40  0  0  0  0  0  0  0  0999 V2000
   99.4700    8.0152  -90.3387 C   0  0  0  0  0  0  0  0  0  0  0  0
   99.5367    3.2909  -86.9379 C   0  0  0  0  0  0  0  0  0  0  0  0
  102.8082    3.5514  -91.9543 N   0  0  0  0  0  0  0  0  0  0  0  0
  100.5787    3.6316  -86.0790 C   0  0  0  0  0  0  0  0  0  0  0  0
  104.7352    4.6912  -90.8120 C   0  0  0  0  0  0  0  0  0  0  0  0
   98.5414    3.7954  -89.1198 N   0  0  0  0  0  0  0  0  0  0  0  0
   99.1980   11.7991  -91.8018 F   0  0  0  0  0  0  0  0  0  0  0  0
   98.1298    9.9730  -90.7377 C   0  0  0  0  0  0  0  0  0  0  0  0
  106.3265    6.1668  -91.7214 O   0  0  0  0  0  0  0  0  0  0  0  0
   97.6113    5.2013  -90.9848 C   0  0  0  0  0  0  0  0  0  0  0  0
  101.3968    5.3395  -87.6134 C   0  0  0  0  0  0  0  0  0  0  0  0
   99.5731    3.8042  -91.2296 O   0  0  0  0  0  0  0  0  0  0  0  0
  104.4217    7.1440  -90.8187 C   0  0  0  0  0  0  0  0  0  0  0  0
  104.8288    8.3621  -91.5467 N   0  0  0  0  0  0  0  0  0  0  0  0
   98.8931    4.6081  -90.2139 C   0  0  0  0  0  0  0  0  0  0  0  0
   99.8489    3.4072  -92.5512 C   0  0  0  0  0  0  0  0  0  0  0  0
   97.9467    5.5988  -92.4138 C   0  0  0  0  0  0  0  0  0  0  0  0
  106.3467    3.2272  -92.6739 O   0  0  0  0  0  0  0  0  0  0  0  0
   99.9150    5.5361  -89.6350 N   0  0  0  0  0  0  0  0  0  0  0  0
  100.4970    9.9084  -91.3600 C   0  0  0  0  0  0  0  0  0  0  0  0
  102.9513    7.1628  -90.7685 C   0  0  0  0  0  0  0  0  0  0  0  0
   98.2262    8.6367  -90.2169 C   0  0  0  0  0  0  0  0  0  0  0  0
   99.2664   10.5717  -91.2947 C   0  0  0  0  0  0  0  0  0  0  0  0
  101.5362    4.6067  -86.4535 C   0  0  0  0  0  0  0  0  0  0  0  0
  100.8713    3.1665  -93.5304 C   0  0  0  0  0  0  0  0  0  0  0  0
  104.1630    3.7584  -91.8531 N   0  0  0  0  0  0  0  0  0  0  0  0
  100.3283    5.0209  -88.4361 C   0  0  0  0  0  0  0  0  0  0  0  0
  102.3132    3.0117  -93.0736 C   0  0  0  0  0  0  0  0  0  0  0  0
  100.4519    8.6841  -90.8747 C   0  0  0  0  0  0  0  0  0  0  0  0
   99.4330    4.0019  -88.1221 C   0  0  0  0  0  0  0  0  0  0  0  0
  105.0513    3.1060  -92.7404 C   0  0  0  0  0  0  0  0  0  0  0  0
  100.2063    6.7693  -90.0746 C   0  0  0  0  0  0  0  0  0  0  0  0
  101.5258    7.0488  -90.4855 N   0  0  0  0  0  0  0  0  0  0  0  0
  103.1622    2.3259  -93.8949 C   0  0  0  0  0  0  0  0  0  0  0  0
  105.2108    5.9967  -91.1379 C   0  0  0  0  0  0  0  0  0  0  0  0
  104.5177    2.3177  -93.7237 N   0  0  0  0  0  0  0  0  0  0  0  0
  1 22  1  0
  1 29  2  0
  1 32  1  0
  2  4  2  0
  2 30  1  0
  3 26  1  0
  3 28  1  0
  4 24  1  0
  5 26  1  0
  5 35  1  0
  6 15  1  0
  6 30  1  0
  7 23  1  0
  8 22  1  0
  8 23  2  0
  9 35  2  0
 10 15  1  0
 10 17  1  0
 11 24  2  0
 11 27  1  0
 12 15  1  0
 12 16  1  0
 13 14  1  0
 13 21  1  0
 13 35  1  0
 15 19  1  0
 16 25  1  0
 18 31  2  0
 19 27  1  0
 19 32  1  0
 20 23  1  0
 20 29  1  0
 21 33  1  0
 25 28  1  0
 26 31  1  0
 27 30  2  0
 28 34  2  0
 31 36  1  0
 32 33  2  0
 34 36  1  0
M  END
>  <ID>  (1) 
conformer_0

$$$$
