
     RDKit          3D

 40 43  0  0  0  0  0  0  0  0999 V2000
  104.8762    0.7817  -93.3193 S   0  0  0  0  0  0  0  0  0  0  0  0
  100.0229    7.6725  -91.1065 C   0  0  0  0  0  0  0  0  0  0  0  0
   99.1788    6.6911  -91.0627 N   0  0  0  0  0  0  0  0  0  0  0  0
   99.5046    1.8522  -87.1176 O   0  0  0  0  0  0  0  0  0  0  0  0
  106.0908    4.8623  -91.6849 P   0  0  0  0  0  4  0  0  0  0  0  0
   97.1700    6.1397  -88.9270 C   0  0  0  0  0  0  0  0  0  0  0  0
   98.3126    5.2103  -86.9786 C   0  0  0  0  0  0  0  0  0  0  0  0
   96.5438    7.3710  -89.6301 C   0  0  0  0  0  0  0  0  0  0  0  0
  103.9598    6.4059  -89.9246 O   0  0  0  0  0  0  0  0  0  0  0  0
  102.2978    8.2744  -91.4503 C   0  0  0  0  0  0  0  0  0  0  0  0
  106.4922    4.0707  -90.4100 O   0  0  0  0  0  1  0  0  0  0  0  0
  101.3400    4.2353  -88.5948 O   0  0  0  0  0  0  0  0  0  0  0  0
  100.1048    9.1084  -91.0980 C   0  0  0  0  0  0  0  0  0  0  0  0
  101.6043    3.1772  -93.1615 C   0  0  0  0  0  0  0  0  0  0  0  0
  104.5779    4.3120  -92.0657 N   0  0  0  0  0  0  0  0  0  0  0  0
  100.3742    4.8365  -88.0736 C   0  0  0  0  0  0  0  0  0  0  0  0
  100.5389    3.6609  -92.4818 N   0  0  0  0  0  0  0  0  0  0  0  0
   98.1295   10.5802  -90.8045 C   0  0  0  0  0  0  0  0  0  0  0  0
   99.3758   10.2517  -91.0748 C   0  0  0  0  0  0  0  0  0  0  0  0
  103.4215    1.8329  -93.5237 C   0  0  0  0  0  0  0  0  0  0  0  0
   98.4713    6.2729  -88.1153 C   0  0  0  0  0  0  0  0  0  0  0  0
  102.6352    1.6636  -94.5957 N   0  0  0  0  0  0  0  0  0  0  0  0
  105.7815    6.6472  -91.5314 C   0  0  0  0  0  0  0  0  0  0  0  0
  100.1526    2.9938  -85.3682 O   0  0  0  0  0  0  0  0  0  0  0  0
  101.5582    9.4256  -91.3123 C   0  0  0  0  0  0  0  0  0  0  0  0
  102.8449    2.8257  -92.6246 C   0  0  0  0  0  0  0  0  0  0  0  0
  103.7799    8.2579  -91.4300 C   0  0  0  0  0  0  0  0  0  0  0  0
   97.2178    9.6430  -90.3224 C   0  0  0  0  0  0  0  0  0  0  0  0
   99.8807    6.0419  -88.5267 N   0  0  0  0  0  0  0  0  0  0  0  0
   99.3887    4.2309  -87.1976 C   0  0  0  0  0  0  0  0  0  0  0  0
  102.6272    0.7112  -95.5052 N   0  0  0  0  0  0  0  0  0  0  0  0
   98.8189    7.7686  -90.6972 C   0  0  0  0  0  0  0  0  0  0  0  0
  104.6655    9.4397  -91.6391 C   0  0  0  0  0  0  0  0  0  0  0  0
  103.5137    3.4858  -91.6391 C   0  0  0  0  0  0  0  0  0  0  0  0
  101.3921    7.2441  -91.4690 N   0  0  0  0  0  0  0  0  0  0  0  0
  107.1790    4.5762  -92.7115 O   0  0  0  0  0  0  0  0  0  0  0  0
  104.4874    7.1126  -90.9437 C   0  0  0  0  0  0  0  0  0  0  0  0
   97.6037    8.2652  -90.2438 C   0  0  0  0  0  0  0  0  0  0  0  0
   99.6893    2.9609  -86.5542 C   0  0  0  0  0  0  0  0  0  0  0  0
  101.4584    2.6205  -94.3862 N   0  0  0  0  0  0  0  0  0  0  0  0
  1 20  2  0
  2 13  1  0
  2 32  1  0
  2 35  1  0
  3 32  2  0
  4 39  2  0
  5 11  2  0
  5 15  1  0
  5 23  1  0
  5 36  1  0
  6  8  1  0
  6 21  1  0
  7 21  1  0
  7 30  1  0
  8 38  1  0
  9 37  1  0
 10 25  1  0
 10 27  1  0
 10 35  1  0
 12 16  2  0
 13 19  1  0
 13 25  1  0
 14 17  2  0
 14 26  1  0
 14 40  1  0
 15 34  1  0
 16 29  1  0
 16 30  1  0
 18 19  2  0
 18 28  1  0
 20 22  1  0
 20 26  1  0
 21 29  1  0
 22 31  1  0
 22 40  1  0
 23 37  1  0
 24 39  1  0
 26 34  1  0
 27 33  1  0
 27 37  1  0
 28 38  2  0
 30 39  1  0
 32 38  1  0
M  END
>  <ID>  (1) 
conformer_0

$$$$
