
     RDKit          3D

 19 19  0  0  0  0  0  0  0  0999 V2000
  105.6299    4.3130  -91.8219 P   0  0  0  0  0  4  0  0  0  0  0  0
  106.5704    3.5055  -92.7790 O   0  0  0  0  0  1  0  0  0  0  0  0
  101.5021    4.0633  -93.3864 C   0  0  0  0  0  0  0  0  0  0  0  0
  100.5922    6.5028  -90.7159 C   0  0  0  0  0  0  0  0  0  0  0  0
   99.1506    8.2213  -90.2560 C   0  0  0  0  0  0  0  0  0  0  0  0
  100.3371    9.9951  -91.3946 F   0  0  0  0  0  0  0  0  0  0  0  0
  105.7665    3.7077  -90.5048 O   0  0  0  0  0  0  0  0  0  0  0  0
  103.0460    5.3539  -92.0432 C   0  0  0  0  0  0  0  0  0  0  0  0
  101.6482    4.7049  -89.5424 O   0  0  0  0  0  0  0  0  0  0  0  0
  100.8910    2.6811  -93.4149 C   0  0  0  0  0  0  0  0  0  0  0  0
  101.0282    5.1633  -90.6877 C   0  0  0  0  0  0  0  0  0  0  0  0
  100.2127    8.7360  -91.0299 C   0  0  0  0  0  0  0  0  0  0  0  0
   99.3969    6.8286  -90.0678 C   0  0  0  0  0  0  0  0  0  0  0  0
   99.6354    2.8648  -92.6667 O   0  0  0  0  0  0  0  0  0  0  0  0
   98.6342    6.0080  -89.4530 O   0  0  0  0  0  0  0  0  0  0  0  0
  101.6651    4.6207  -91.9018 C   0  0  0  0  0  0  0  0  0  0  0  0
  106.0204    5.8513  -91.8380 O   0  0  0  0  0  0  0  0  0  0  0  0
  101.0693    7.6881  -91.3109 C   0  0  0  0  0  0  0  0  0  0  0  0
  104.0499    4.2316  -92.4559 C   0  0  0  0  0  0  0  0  0  0  0  0
  1  2  2  0
  1  7  1  0
  1 17  1  0
  1 19  1  0
  3 10  1  0
  3 16  1  0
  4 11  1  0
  4 13  1  0
  4 18  1  0
  5 12  1  0
  5 13  1  0
  6 12  1  0
  8 16  1  0
  8 19  1  0
  9 11  1  0
 10 14  1  0
 11 16  1  0
 12 18  1  0
 13 15  2  0
M  END
>  <ID>  (1) 
conformer_0

$$$$
