
     RDKit          3D

 30 32  0  0  0  0  0  0  0  0999 V2000
  104.0520    5.9171  -88.6380 O   0  0  0  0  0  0  0  0  0  0  0  0
  104.4328    8.4716  -91.2645 C   0  0  0  0  0  0  0  0  0  0  0  0
   98.2143    8.7926  -90.6827 C   0  0  0  0  0  0  0  0  0  0  0  0
  102.4709    1.9478  -94.4057 N   0  0  0  0  0  0  0  0  0  0  0  0
  106.5925    7.3169  -91.8454 C   0  0  0  0  0  0  0  0  0  0  0  0
  101.3144    2.6034  -94.0500 C   0  0  0  0  0  0  0  0  0  0  0  0
   98.0190    7.4220  -90.6632 N   0  0  0  0  0  0  0  0  0  0  0  0
  103.0283    5.8406  -89.3294 C   0  0  0  0  0  0  0  0  0  0  0  0
  102.4920    4.4631  -91.0799 C   0  0  0  0  0  0  0  0  0  0  0  0
  103.0857    8.4688  -91.0455 N   0  0  0  0  0  0  0  0  0  0  0  0
  102.4542    3.5323  -92.2221 C   0  0  0  0  0  0  0  0  0  0  0  0
   99.1386    4.0197  -91.3321 O   0  0  0  0  0  0  0  0  0  0  0  0
  103.6069    2.0147  -93.6312 C   0  0  0  0  0  0  0  0  0  0  0  0
  104.6332    6.0083  -91.3789 C   0  0  0  0  0  0  0  0  0  0  0  0
  104.9773    9.6231  -91.2645 O   0  0  0  0  0  0  0  0  0  0  0  0
  107.3642    6.1534  -92.0613 C   0  0  0  0  0  0  0  0  0  0  0  0
  101.2683    3.3830  -92.9165 C   0  0  0  0  0  0  0  0  0  0  0  0
  100.3560    7.1908  -90.9221 C   0  0  0  0  0  0  0  0  0  0  0  0
   98.8828    5.1131  -90.5063 C   0  0  0  0  0  0  0  0  0  0  0  0
  100.5456    8.5439  -90.9608 C   0  0  0  0  0  0  0  0  0  0  0  0
  101.8991    9.1819  -91.1712 C   0  0  0  0  0  0  0  0  0  0  0  0
  104.8114    1.1346  -93.9818 C   0  0  0  0  0  0  0  0  0  0  0  0
  103.1751    5.8392  -90.9621 C   0  0  0  0  0  0  0  0  0  0  0  0
  106.7330    4.8939  -91.9164 C   0  0  0  0  0  0  0  0  0  0  0  0
  101.9326    5.5937  -88.7384 O   0  0  0  0  0  0  0  0  0  0  0  0
   99.1311    6.6109  -90.7280 C   0  0  0  0  0  0  0  0  0  0  0  0
   99.4329    9.3977  -90.8238 C   0  0  0  0  0  0  0  0  0  0  0  0
  103.5996    2.8062  -92.5129 C   0  0  0  0  0  0  0  0  0  0  0  0
  105.4107    4.8759  -91.5510 C   0  0  0  0  0  0  0  0  0  0  0  0
  105.2488    7.2681  -91.4944 C   0  0  0  0  0  0  0  0  0  0  0  0
  1  8  2  0
  2 10  1  0
  2 15  2  0
  2 30  1  0
  3  7  2  0
  3 27  1  0
  4  6  2  0
  4 13  1  0
  5 16  2  0
  5 30  1  0
  6 17  1  0
  7 26  1  0
  8 23  1  0
  8 25  1  0
  9 11  1  0
  9 23  1  0
 10 21  2  3
 11 17  2  0
 11 28  1  0
 12 19  1  0
 13 22  1  0
 13 28  2  0
 14 23  1  0
 14 29  1  0
 14 30  2  0
 16 24  1  0
 18 20  2  0
 18 26  1  0
 19 26  1  0
 20 21  1  0
 20 27  1  0
 24 29  2  0
M  END
>  <ID>  (1) 
conformer_0

$$$$
