
     RDKit          3D

 25 28  0  0  0  0  0  0  0  0999 V2000
   98.3317    5.5326  -91.6744 C   0  0  0  0  0  0  0  0  0  0  0  0
   99.5173    9.4247  -91.0904 C   0  0  0  0  0  0  0  0  0  0  0  0
  103.5662    4.9928  -91.4074 C   0  0  0  0  0  0  0  0  0  0  0  0
   96.8399    7.1482  -89.7863 C   0  0  0  0  0  0  0  0  0  0  0  0
  101.9371    8.7484  -91.5561 O   0  0  0  0  0  0  0  0  0  0  0  0
  103.0035    7.8726  -91.2693 C   0  0  0  0  0  0  0  0  0  0  0  0
   98.9017    6.7746  -91.0376 C   0  0  0  0  0  0  0  0  0  0  0  0
  100.5554    8.4731  -91.2527 C   0  0  0  0  0  0  0  0  0  0  0  0
  102.7958    6.3440  -91.3898 C   0  0  0  0  0  0  0  0  0  0  0  0
  105.8049    3.9348  -91.8224 C   0  0  0  0  0  0  0  0  0  0  0  0
  101.4755    3.4511  -91.4212 C   0  0  0  0  0  0  0  0  0  0  0  0
   99.3089    4.4556  -91.6290 C   0  0  0  0  0  0  0  0  0  0  0  0
  101.5745    2.6416  -92.3646 O   0  0  0  0  0  0  0  0  0  0  0  0
  107.1511    4.0741  -92.1062 N   0  0  0  0  0  0  0  0  0  0  0  0
  101.6928    3.3173  -90.1972 O   0  0  0  0  0  0  0  0  0  0  0  0
   98.2818    9.0304  -90.5991 C   0  0  0  0  0  0  0  0  0  0  0  0
   98.0072    7.6776  -90.4754 C   0  0  0  0  0  0  0  0  0  0  0  0
  101.3035    6.1224  -91.2505 C   0  0  0  0  0  0  0  0  0  0  0  0
  105.6004    6.2992  -91.7639 C   0  0  0  0  0  0  0  0  0  0  0  0
   99.6514   10.7941  -91.5260 C   0  0  0  0  0  0  0  0  0  0  0  0
  107.7123    5.3375  -92.1878 C   0  0  0  0  0  0  0  0  0  0  0  0
  106.9247    6.4667  -92.0277 C   0  0  0  0  0  0  0  0  0  0  0  0
  100.2330    7.1277  -91.1490 C   0  0  0  0  0  0  0  0  0  0  0  0
  105.0026    5.0719  -91.6613 C   0  0  0  0  0  0  0  0  0  0  0  0
  100.8097    4.8194  -91.8344 C   0  0  0  0  0  0  0  0  0  0  0  0
  1  7  1  0
  1 12  1  0
  2  8  1  0
  2 16  1  0
  2 20  1  0
  3  9  1  0
  3 24  1  0
  4 17  1  0
  5  6  1  0
  5  8  1  0
  6  9  1  0
  7 17  1  0
  7 23  1  0
  8 23  2  0
  9 18  1  0
 10 14  2  0
 10 24  1  0
 11 13  2  0
 11 15  1  0
 11 25  1  0
 12 25  1  0
 14 21  1  0
 16 17  2  0
 18 23  1  0
 18 25  1  0
 19 22  1  0
 19 24  2  0
 21 22  2  0
M  END
>  <ID>  (1) 
conformer_0

$$$$
