
     RDKit          3D

 29 31  0  0  0  0  0  0  0  0999 V2000
   98.8518    4.8166  -88.7454 N   0  0  0  0  0  0  0  0  0  0  0  0
  100.2705    3.2114  -87.9394 O   0  0  0  0  0  0  0  0  0  0  0  0
  104.1804    1.1234  -94.9373 O   0  0  0  0  0  0  0  0  0  0  0  0
  100.6898    6.8003  -90.4407 C   0  0  0  0  0  0  0  0  0  0  0  0
   98.6768    5.8663  -89.4053 C   0  0  0  0  0  0  0  0  0  0  0  0
  101.0606    4.6333  -89.4846 N   0  0  0  0  0  0  0  0  0  0  0  0
   99.7089    9.6708  -91.1978 C   0  0  0  0  0  0  0  0  0  0  0  0
  101.4761    7.9136  -90.8638 C   0  0  0  0  0  0  0  0  0  0  0  0
   99.6113   11.0737  -91.5739 C   0  0  0  0  0  0  0  0  0  0  0  0
  102.1153    3.5441  -93.6342 C   0  0  0  0  0  0  0  0  0  0  0  0
  106.1986    8.2152  -92.1370 C   0  0  0  0  0  0  0  0  0  0  0  0
  103.7298    8.7176  -91.3203 C   0  0  0  0  0  0  0  0  0  0  0  0
  104.4869    2.4407  -92.9815 C   0  0  0  0  0  0  0  0  0  0  0  0
  103.7961    3.2245  -91.8940 C   0  0  0  0  0  0  0  0  0  0  0  0
  106.8670    9.0010  -92.9072 O   0  0  0  0  0  0  0  0  0  0  0  0
   98.4631    7.7791  -90.4547 C   0  0  0  0  0  0  0  0  0  0  0  0
  103.3302    9.9297  -91.2491 O   0  0  0  0  0  0  0  0  0  0  0  0
  100.0736    4.2242  -88.7122 C   0  0  0  0  0  0  0  0  0  0  0  0
   98.5564    8.9856  -90.9300 C   0  0  0  0  0  0  0  0  0  0  0  0
  102.8846    7.7580  -90.9460 N   0  0  0  0  0  0  0  0  0  0  0  0
   99.3359    6.8290  -90.1011 C   0  0  0  0  0  0  0  0  0  0  0  0
  101.3898    5.5810  -90.3937 C   0  0  0  0  0  0  0  0  0  0  0  0
  102.4538    5.2535  -91.4723 C   0  0  0  0  0  0  0  0  0  0  0  0
  102.6740    4.0616  -92.3655 C   0  0  0  0  0  0  0  0  0  0  0  0
  105.1354    8.7491  -91.3780 C   0  0  0  0  0  0  0  0  0  0  0  0
  106.3305    6.9373  -92.1895 O   0  0  0  0  0  0  0  0  0  0  0  0
  102.2105    2.0417  -93.8336 C   0  0  0  0  0  0  0  0  0  0  0  0
  100.9366    9.0880  -91.1695 C   0  0  0  0  0  0  0  0  0  0  0  0
  103.6303    1.5724  -93.7970 C   0  0  0  0  0  0  0  0  0  0  0  0
  1  5  2  0
  1 18  1  0
  2 18  2  0
  3 29  1  0
  4  8  1  0
  4 21  1  0
  4 22  1  0
  5 21  1  0
  6 18  1  0
  6 22  1  0
  7  9  1  0
  7 19  1  0
  7 28  1  0
  8 20  1  0
  8 28  2  0
 10 24  1  0
 10 27  1  0
 11 15  2  0
 11 25  1  0
 11 26  1  0
 12 17  2  0
 12 20  1  0
 12 25  1  0
 13 14  1  0
 13 29  1  0
 14 24  1  0
 16 19  2  0
 16 21  1  0
 22 23  1  0
 23 24  1  0
 27 29  1  0
M  END
>  <ID>  (1) 
conformer_0

$$$$
