
     RDKit          3D

 24 26  0  0  0  0  0  0  0  0999 V2000
  103.8096    6.1745  -89.5873 O   0  0  0  0  0  0  0  0  0  0  0  0
  103.5020    3.2112  -91.9681 C   0  0  0  0  0  0  0  0  0  0  0  0
  102.5627    3.3197  -93.0407 C   0  0  0  0  0  0  0  0  0  0  0  0
  102.5695    3.8998  -89.8046 O   0  0  0  0  0  0  0  0  0  0  0  0
  101.5134    8.5690  -91.3760 C   0  0  0  0  0  0  0  0  0  0  0  0
   99.3756    4.6736  -92.1137 C   0  0  0  0  0  0  0  0  0  0  0  0
   98.7746    9.0083  -91.2165 C   0  0  0  0  0  0  0  0  0  0  0  0
  100.7028    5.0450  -92.3972 C   0  0  0  0  0  0  0  0  0  0  0  0
  101.5410    4.2193  -93.0838 N   0  0  0  0  0  0  0  0  0  0  0  0
   98.3496    6.6582  -91.1067 C   0  0  0  0  0  0  0  0  0  0  0  0
  101.1028    6.2591  -91.9585 C   0  0  0  0  0  0  0  0  0  0  0  0
  100.6413    7.4598  -91.5197 C   0  0  0  0  0  0  0  0  0  0  0  0
   99.6368   10.0914  -91.3204 C   0  0  0  0  0  0  0  0  0  0  0  0
   98.4073    5.3615  -91.4740 C   0  0  0  0  0  0  0  0  0  0  0  0
  101.0196    9.8791  -91.3501 C   0  0  0  0  0  0  0  0  0  0  0  0
  102.6564    2.3900  -94.1181 C   0  0  0  0  0  0  0  0  0  0  0  0
  103.6323    1.3693  -94.1026 C   0  0  0  0  0  0  0  0  0  0  0  0
  103.4949    4.0986  -90.7849 C   0  0  0  0  0  0  0  0  0  0  0  0
  104.4914    1.2636  -93.0230 C   0  0  0  0  0  0  0  0  0  0  0  0
  104.2692    5.2993  -90.7104 C   0  0  0  0  0  0  0  0  0  0  0  0
   99.1279   11.4942  -91.4728 C   0  0  0  0  0  0  0  0  0  0  0  0
  102.8308    8.3997  -91.2142 N   0  0  0  0  0  0  0  0  0  0  0  0
   99.2758    7.6928  -91.2666 C   0  0  0  0  0  0  0  0  0  0  0  0
  104.4161    2.1556  -91.9972 N   0  0  0  0  0  0  0  0  0  0  0  0
  1 20  1  0
  2  3  1  0
  2 18  1  0
  2 24  1  0
  3  9  1  0
  3 16  2  0
  4 18  1  0
  5 12  1  0
  5 15  2  0
  5 22  1  0
  6  8  2  0
  6 14  1  0
  7 13  2  0
  7 23  1  0
  8  9  1  0
  8 11  1  0
 10 14  2  0
 10 23  1  0
 11 12  2  0
 12 23  1  0
 13 15  1  0
 13 21  1  0
 16 17  1  0
 17 19  1  0
 18 20  1  0
 19 24  2  0
M  END
>  <ID>  (1) 
conformer_0

$$$$
