
     RDKit          3D

 28 29  0  0  0  0  0  0  0  0999 V2000
   98.6207    4.1865  -88.1373 C   0  0  0  0  0  0  0  0  0  0  0  0
  104.2020    5.3515  -89.9437 O   0  0  0  0  0  0  0  0  0  0  0  0
   97.7736    8.8702  -90.8879 C   0  0  0  0  0  0  0  0  0  0  0  0
  100.1707    4.8665  -91.4158 O   0  0  0  0  0  0  0  0  0  0  0  0
  101.4008    4.6295  -93.5835 C   0  0  0  0  0  0  0  0  0  0  0  0
  103.3428    5.9573  -91.9455 N   0  0  0  0  0  0  0  0  0  0  0  0
  106.3245    4.4346  -91.8819 C   0  0  0  0  0  0  0  0  0  0  0  0
  100.1986    2.7549  -92.6813 C   0  0  0  0  0  0  0  0  0  0  0  0
  101.1174    5.7590  -90.8443 C   0  0  0  0  0  0  0  0  0  0  0  0
  104.3477    5.7211  -91.1114 C   0  0  0  0  0  0  0  0  0  0  0  0
  102.0328    6.4875  -91.8585 C   0  0  0  0  0  0  0  0  0  0  0  0
  105.6982    5.7874  -91.7621 C   0  0  0  0  0  0  0  0  0  0  0  0
   99.7757   10.2375  -90.9786 C   0  0  0  0  0  0  0  0  0  0  0  0
  101.5181    2.6286  -94.7253 C   0  0  0  0  0  0  0  0  0  0  0  0
  101.9409    3.9034  -94.6103 C   0  0  0  0  0  0  0  0  0  0  0  0
  107.7524    4.4573  -92.0036 C   0  0  0  0  0  0  0  0  0  0  0  0
   99.9091    7.9050  -90.3018 C   0  0  0  0  0  0  0  0  0  0  0  0
  100.6908    2.0658  -93.7951 N   0  0  0  0  0  0  0  0  0  0  0  0
  100.0336    4.6574  -88.3133 C   0  0  0  0  0  0  0  0  0  0  0  0
  100.3231   11.4133  -91.1476 O   0  0  0  0  0  0  0  0  0  0  0  0
  100.2194    5.9761  -88.5999 N   0  0  0  0  0  0  0  0  0  0  0  0
  105.5783    3.4080  -92.1907 O   0  0  0  0  0  0  0  0  0  0  0  0
   98.5259    7.7876  -90.5182 C   0  0  0  0  0  0  0  0  0  0  0  0
  100.5795    4.0705  -92.5940 C   0  0  0  0  0  0  0  0  0  0  0  0
  101.0005    3.8730  -88.1444 O   0  0  0  0  0  0  0  0  0  0  0  0
  100.6486    6.6908  -89.7556 C   0  0  0  0  0  0  0  0  0  0  0  0
   98.3864   10.1144  -91.1375 C   0  0  0  0  0  0  0  0  0  0  0  0
  100.5626    9.1501  -90.6298 C   0  0  0  0  0  0  0  0  0  0  0  0
  1 19  1  0
  2 10  2  0
  3 23  2  0
  3 27  1  0
  4  9  1  0
  4 24  1  0
  5 15  2  0
  5 24  1  0
  6 10  1  0
  6 11  1  0
  7 12  1  0
  7 16  1  0
  7 22  1  0
  8 18  1  0
  8 24  2  0
  9 11  1  0
  9 26  1  0
 10 12  1  0
 13 20  1  0
 13 27  1  0
 13 28  2  0
 14 15  1  0
 14 18  2  0
 17 23  1  0
 17 26  1  0
 17 28  1  0
 19 21  1  0
 19 25  2  0
 21 26  1  0
M  END
>  <ID>  (1) 
conformer_0

$$$$
