
     RDKit          3D

 31 34  0  0  0  0  0  0  0  0999 V2000
  103.1603    7.7191  -90.4298 O   0  0  0  0  0  0  0  0  0  0  0  0
   97.4817   10.1618  -90.4604 C   0  0  0  0  0  0  0  0  0  0  0  0
  104.6544    4.4036  -91.6679 C   0  0  0  0  0  0  0  0  0  0  0  0
  100.8534    4.1390  -85.8759 O   0  0  0  0  0  0  0  0  0  0  0  0
   99.8567    4.4003  -89.2349 C   0  0  0  0  0  0  0  0  0  0  0  0
  106.8350    4.0134  -91.0316 O   0  0  0  0  0  0  0  0  0  0  0  0
  102.3035    9.1080  -92.1411 O   0  0  0  0  0  0  0  0  0  0  0  0
   98.7426   12.2220  -91.5749 Cl  0  0  0  0  0  0  0  0  0  0  0  0
  102.1451    8.3330  -91.1582 C   0  0  0  0  0  0  0  0  0  0  0  0
   98.5464    8.0297  -90.1092 C   0  0  0  0  0  0  0  0  0  0  0  0
   99.8093    2.5729  -87.1615 O   0  0  0  0  0  0  0  0  0  0  0  0
   99.7668    9.8139  -91.0904 C   0  0  0  0  0  0  0  0  0  0  0  0
  100.1774    5.2389  -90.3293 O   0  0  0  0  0  0  0  0  0  0  0  0
  100.8883    7.6220  -90.8078 C   0  0  0  0  0  0  0  0  0  0  0  0
  103.7048    2.8571  -93.2178 N   0  0  0  0  0  0  0  0  0  0  0  0
   99.8884    4.6789  -92.9843 N   0  0  0  0  0  0  0  0  0  0  0  0
  100.4878    3.6302  -86.9809 C   0  0  0  0  0  0  0  0  0  0  0  0
  105.9741    2.6176  -92.6432 N   0  0  0  0  0  0  0  0  0  0  0  0
   98.6527   10.6373  -91.0050 C   0  0  0  0  0  0  0  0  0  0  0  0
  101.1342    6.2053  -90.6358 C   0  0  0  0  0  0  0  0  0  0  0  0
  104.8653    2.2441  -93.3121 C   0  0  0  0  0  0  0  0  0  0  0  0
   97.4214    8.8509  -89.9922 C   0  0  0  0  0  0  0  0  0  0  0  0
  105.8586    3.6869  -91.7357 C   0  0  0  0  0  0  0  0  0  0  0  0
  104.5336    5.5783  -90.7416 C   0  0  0  0  0  0  0  0  0  0  0  0
  103.4695    6.4470  -90.9922 C   0  0  0  0  0  0  0  0  0  0  0  0
  101.0175    4.3231  -88.2525 C   0  0  0  0  0  0  0  0  0  0  0  0
  103.6076    4.0148  -92.4903 C   0  0  0  0  0  0  0  0  0  0  0  0
   99.7317    8.4827  -90.6741 C   0  0  0  0  0  0  0  0  0  0  0  0
  102.3929    4.8221  -92.5817 C   0  0  0  0  0  0  0  0  0  0  0  0
  102.2646    5.8744  -91.5658 C   0  0  0  0  0  0  0  0  0  0  0  0
  101.2852    4.5415  -93.4471 C   0  0  0  0  0  0  0  0  0  0  0  0
  1  9  1  0
  1 25  1  0
  2 19  2  0
  2 22  1  0
  3 23  1  0
  3 24  1  0
  3 27  2  0
  4 17  2  0
  5 13  1  0
  5 26  1  0
  6 23  2  0
  7  9  2  0
  8 19  1  0
  9 14  1  0
 10 22  2  0
 10 28  1  0
 11 17  1  0
 12 19  1  0
 12 28  2  0
 13 20  1  0
 14 20  1  0
 14 28  1  0
 15 21  2  0
 15 27  1  0
 16 31  1  0
 17 26  1  0
 18 21  1  0
 18 23  1  0
 20 30  1  0
 24 25  1  0
 25 30  1  0
 27 29  1  0
 29 30  1  0
 29 31  1  0
M  END
>  <ID>  (1) 
conformer_0

$$$$
