
     RDKit          3D

 25 25  0  0  0  0  0  0  0  0999 V2000
  102.0550    4.7292  -92.3093 C   0  0  0  0  0  0  0  0  0  0  0  0
   98.5165    4.5699  -90.2517 C   0  0  0  0  0  0  0  0  0  0  0  0
   99.3113    6.9501  -89.6486 O   0  0  0  0  0  0  0  0  0  0  0  0
   99.9393    4.9188  -90.8745 C   0  0  0  0  0  0  0  0  0  0  0  0
  102.6002    2.1527  -92.1428 O   0  0  0  0  0  0  0  0  0  0  0  0
  102.2042    6.1402  -91.6653 O   0  0  0  0  0  0  0  0  0  0  0  0
  105.5951    3.9888  -90.7368 O   0  0  0  0  0  1  0  0  0  0  0  0
   99.2056    9.5190  -90.9900 S   0  0  0  0  0  0  0  0  0  0  0  0
   97.4564    5.4738  -90.8880 C   0  0  0  0  0  0  0  0  0  0  0  0
  102.0414   10.5705  -90.5097 O   0  0  0  0  0  0  0  0  0  0  0  0
   99.9658    3.6885  -93.0456 O   0  0  0  0  0  0  0  0  0  0  0  0
  103.8514    2.7897  -92.3074 C   0  0  0  0  0  0  0  0  0  0  0  0
  105.8329    1.5196  -91.0344 O   0  0  0  0  0  0  0  0  0  0  0  0
  100.9440    4.3187  -90.0284 O   0  0  0  0  0  0  0  0  0  0  0  0
  103.5455    4.2661  -92.6137 C   0  0  0  0  0  0  0  0  0  0  0  0
  100.7991    8.6316  -90.7520 C   0  0  0  0  0  0  0  0  0  0  0  0
  101.1853    7.1960  -91.2568 C   0  0  0  0  0  0  0  0  0  0  0  0
  100.4395    4.7809  -92.3836 C   0  0  0  0  0  0  0  0  0  0  0  0
  102.7105    9.1224  -92.0544 O   0  0  0  0  0  0  0  0  0  0  0  0
  105.5592    2.8125  -91.6930 P   0  0  0  0  0  4  0  0  0  0  0  0
   98.4571    4.2958  -88.9076 O   0  0  0  0  0  0  0  0  0  0  0  0
   97.6270    5.1609  -92.3213 O   0  0  0  0  0  0  0  0  0  0  0  0
   99.9027    6.4385  -90.7743 C   0  0  0  0  0  0  0  0  0  0  0  0
  101.8735    9.5655  -91.2529 C   0  0  0  0  0  0  0  0  0  0  0  0
  106.5952    3.0653  -92.7770 O   0  0  0  0  0  0  0  0  0  0  0  0
  1  6  1  0
  1 15  1  0
  1 18  1  0
  2  4  1  0
  2  9  1  0
  2 21  1  0
  3 23  1  0
  4 14  1  0
  4 18  1  0
  4 23  1  0
  5 12  1  0
  6 17  1  0
  7 20  2  0
  8 16  1  0
  9 22  1  0
 10 24  2  0
 11 18  1  0
 12 15  1  0
 12 20  1  0
 13 20  1  0
 16 17  1  0
 16 24  1  0
 17 23  1  0
 19 24  1  0
 20 25  1  0
M  END
>  <ID>  (1) 
conformer_0

$$$$
