
     RDKit          3D

 16 15  0  0  0  0  0  0  0  0999 V2000
  105.0012    2.0518  -90.9103 O   0  0  0  0  0  1  0  0  0  0  0  0
  100.9396    7.0607  -91.8019 C   0  0  0  0  0  0  0  0  0  0  0  0
  105.8785    4.4968  -90.7379 O   0  0  0  0  0  0  0  0  0  0  0  0
  103.3243    4.0819  -91.3297 C   0  0  0  0  0  0  0  0  0  0  0  0
  101.1835    9.0450  -90.4696 O   0  0  0  0  0  0  0  0  0  0  0  0
   98.5294    6.1346  -91.9419 C   0  0  0  0  0  0  0  0  0  0  0  0
  101.6772    5.7870  -91.8528 N   0  0  0  0  0  0  0  0  0  0  0  0
  103.0015    5.3456  -92.0990 C   0  0  0  0  0  0  0  0  0  0  0  0
   98.6976    4.7237  -91.5217 C   0  0  0  0  0  0  0  0  0  0  0  0
  105.8110    3.1568  -92.8647 O   0  0  0  0  0  0  0  0  0  0  0  0
  102.6819    8.7015  -92.1133 O   0  0  0  0  0  0  0  0  0  0  0  0
  102.3056    3.1787  -91.3896 O   0  0  0  0  0  0  0  0  0  0  0  0
   98.5344    8.5297  -91.3095 C   0  0  0  0  0  0  0  0  0  0  0  0
  101.7239    8.3106  -91.3622 C   0  0  0  0  0  0  0  0  0  0  0  0
   99.4792    7.1483  -91.3682 C   0  0  0  0  0  0  0  0  0  0  0  0
  105.0348    3.4372  -91.5022 P   0  0  0  0  0  4  0  0  0  0  0  0
  1 16  2  0
  2  7  1  0
  2 14  1  0
  2 15  1  0
  3 16  1  0
  4  8  1  0
  4 12  1  0
  4 16  1  0
  5 14  2  0
  6  9  1  0
  6 15  1  0
  7  8  1  0
 10 16  1  0
 11 14  1  0
 13 15  1  0
M  END
>  <ID>  (1) 
conformer_0

$$$$
