
     RDKit          3D

 31 33  0  0  0  0  0  0  0  0999 V2000
  102.9030    5.3975  -91.6018 C   0  0  0  0  0  0  0  0  0  0  0  0
  104.3251    1.2900  -93.0652 C   0  0  0  0  0  0  0  0  0  0  0  0
  103.9691    5.7734  -90.6686 C   0  0  0  0  0  0  0  0  0  0  0  0
  100.5017    5.8983  -91.2129 C   0  0  0  0  0  0  0  0  0  0  0  0
  105.3837    6.4288  -86.4134 C   0  0  0  0  0  0  0  0  0  0  0  0
   99.5826    4.7462  -91.6476 C   0  0  0  0  0  0  0  0  0  0  0  0
   99.9941    9.4049  -90.9565 C   0  0  0  0  0  0  0  0  0  0  0  0
  102.2209    2.3455  -93.8531 C   0  0  0  0  0  0  0  0  0  0  0  0
   97.5006    8.7870  -90.2303 N   0  0  0  0  0  0  0  0  0  0  0  0
  100.6481    7.3275  -91.0537 N   0  0  0  0  0  0  0  0  0  0  0  0
  103.0259    2.7544  -91.6518 C   0  0  0  0  0  0  0  0  0  0  0  0
  106.0624    6.2001  -87.6914 N   0  0  0  0  0  0  0  0  0  0  0  0
   99.5906    8.1081  -90.7258 C   0  0  0  0  0  0  0  0  0  0  0  0
   99.0431   10.4207  -90.9023 C   0  0  0  0  0  0  0  0  0  0  0  0
  106.5564    5.9127  -90.7864 C   0  0  0  0  0  0  0  0  0  0  0  0
   98.3489    7.8147  -90.3049 N   0  0  0  0  0  0  0  0  0  0  0  0
  100.9336    4.0490  -92.3757 C   0  0  0  0  0  0  0  0  0  0  0  0
  106.9235    7.0874  -89.7844 C   0  0  0  0  0  0  0  0  0  0  0  0
  102.0999    3.0450  -92.6316 C   0  0  0  0  0  0  0  0  0  0  0  0
   99.3809   11.7068  -91.2365 N   0  0  0  0  0  0  0  0  0  0  0  0
   99.2897    3.9274  -90.5022 O   0  0  0  0  0  0  0  0  0  0  0  0
  101.6716    5.4574  -92.2189 O   0  0  0  0  0  0  0  0  0  0  0  0
  101.6454    8.1537  -91.3246 C   0  0  0  0  0  0  0  0  0  0  0  0
  104.1005    1.9161  -91.8380 C   0  0  0  0  0  0  0  0  0  0  0  0
  105.9062    7.1912  -88.6895 C   0  0  0  0  0  0  0  0  0  0  0  0
  101.3246    9.4339  -91.2568 N   0  0  0  0  0  0  0  0  0  0  0  0
  106.8952    4.7039  -90.1988 O   0  0  0  0  0  0  0  0  0  0  0  0
  103.3374    1.4920  -94.0822 C   0  0  0  0  0  0  0  0  0  0  0  0
   97.7846   10.0640  -90.5136 N   0  0  0  0  0  0  0  0  0  0  0  0
  107.4109    5.8660  -92.1150 C   0  0  0  0  0  0  0  0  0  0  0  0
  105.1840    6.4122  -91.3558 C   0  0  0  0  0  0  0  0  0  0  0  0
  1  3  1  0
  1 22  1  0
  2 24  2  0
  2 28  1  0
  3 31  1  0
  4  6  1  0
  4 10  1  0
  5 12  1  0
  6 17  1  0
  6 21  1  0
  7 13  1  0
  7 14  1  0
  7 26  1  0
  8 19  1  0
  8 28  2  0
  9 16  1  0
  9 29  2  0
 10 13  1  0
 10 23  1  0
 11 19  2  0
 11 24  1  0
 12 25  1  0
 13 16  2  0
 14 20  2  0
 14 29  1  0
 15 18  1  0
 15 27  1  0
 15 30  1  0
 15 31  1  0
 17 19  1  0
 17 22  1  0
 18 25  1  0
 23 26  1  0
M  END
>  <ID>  (1) 
conformer_0

$$$$
