
     RDKit          3D

 32 35  0  0  0  0  0  0  0  0999 V2000
  102.4507    2.5254  -93.6133 C   0  0  0  0  0  0  0  0  0  0  0  0
   97.5122    5.3832  -90.2562 C   0  0  0  0  0  0  0  0  0  0  0  0
  101.6402    7.1882  -91.4507 O   0  0  0  0  0  0  0  0  0  0  0  0
  104.2370    2.7812  -91.9890 C   0  0  0  0  0  0  0  0  0  0  0  0
  105.9489    6.7222  -89.1064 C   0  0  0  0  0  0  0  0  0  0  0  0
   96.5954    6.4052  -89.8785 C   0  0  0  0  0  0  0  0  0  0  0  0
  105.0408    3.7773  -91.1747 C   0  0  0  0  0  0  0  0  0  0  0  0
  103.1015    3.4332  -92.6645 C   0  0  0  0  0  0  0  0  0  0  0  0
   98.2062    8.0619  -90.4722 C   0  0  0  0  0  0  0  0  0  0  0  0
  104.6819    5.1208  -90.5236 N   0  0  0  0  0  0  0  0  0  0  0  0
  100.1964    9.0596  -90.9735 C   0  0  0  0  0  0  0  0  0  0  0  0
  101.0244   10.1507  -90.9759 O   0  0  0  0  0  0  0  0  0  0  0  0
  105.6052    1.7616  -93.6636 O   0  0  0  0  0  0  0  0  0  0  0  0
  104.5911    6.2667  -91.4930 C   0  0  0  0  0  0  0  0  0  0  0  0
  103.8498    7.3820  -90.7286 C   0  0  0  0  0  0  0  0  0  0  0  0
  102.7592    8.0791  -91.3763 C   0  0  0  0  0  0  0  0  0  0  0  0
  103.3032    9.3073  -91.7805 O   0  0  0  0  0  0  0  0  0  0  0  0
   96.9484    7.7355  -90.0383 C   0  0  0  0  0  0  0  0  0  0  0  0
  101.4383    4.6235  -93.6176 C   0  0  0  0  0  0  0  0  0  0  0  0
  102.5096    4.6631  -92.7952 O   0  0  0  0  0  0  0  0  0  0  0  0
  104.5437    1.4714  -92.7216 C   0  0  0  0  0  0  0  0  0  0  0  0
   98.1983   10.5100  -90.8938 O   0  0  0  0  0  0  0  0  0  0  0  0
  101.1718    3.2980  -93.8764 N   0  0  0  0  0  0  0  0  0  0  0  0
  104.6592    5.8814  -89.1888 C   0  0  0  0  0  0  0  0  0  0  0  0
   99.2037    7.0416  -90.7279 C   0  0  0  0  0  0  0  0  0  0  0  0
  100.3846    7.6484  -91.0512 C   0  0  0  0  0  0  0  0  0  0  0  0
   98.7986    5.7449  -90.6374 C   0  0  0  0  0  0  0  0  0  0  0  0
  103.3047    1.1985  -93.5248 C   0  0  0  0  0  0  0  0  0  0  0  0
  106.1897    7.8760  -89.6203 O   0  0  0  0  0  0  0  0  0  0  0  0
  106.8021    6.1368  -88.3575 O   0  0  0  0  0  0  0  0  0  0  0  0
   98.8102    9.3370  -90.7383 C   0  0  0  0  0  0  0  0  0  0  0  0
  102.4759    0.2335  -92.9710 O   0  0  0  0  0  0  0  0  0  0  0  0
  1  8  1  0
  1 23  1  0
  1 28  1  0
  2  6  2  0
  2 27  1  0
  3 16  1  0
  3 26  1  0
  4  7  1  0
  4  8  1  0
  4 21  1  0
  5 24  1  0
  5 29  2  0
  5 30  1  0
  6 18  1  0
  7 10  1  0
  8 20  1  0
  9 18  2  0
  9 25  1  0
  9 31  1  0
 10 14  1  0
 10 24  1  0
 11 12  1  0
 11 26  2  0
 11 31  1  0
 13 21  1  0
 14 15  1  0
 15 16  1  0
 16 17  2  0
 19 20  1  0
 19 23  1  0
 21 28  1  0
 22 31  1  0
 25 26  1  0
 25 27  2  0
 28 32  1  0
M  END
>  <ID>  (1) 
conformer_0

$$$$
