
     RDKit          3D

 26 28  0  0  0  0  0  0  0  0999 V2000
  101.9879    4.9360  -92.1499 C   0  0  0  0  0  0  0  0  0  0  0  0
  103.8850    3.5620  -91.7692 C   0  0  0  0  0  0  0  0  0  0  0  0
  105.0809    7.6062  -90.8893 C   0  0  0  0  0  0  0  0  0  0  0  0
   99.9539    3.8175  -92.4402 O   0  0  0  0  0  0  0  0  0  0  0  0
   97.9496    7.9473  -90.0924 C   0  0  0  0  0  0  0  0  0  0  0  0
  100.4935    5.0230  -91.9620 C   0  0  0  0  0  0  0  0  0  0  0  0
   97.9507    6.6303  -89.9511 N   0  0  0  0  0  0  0  0  0  0  0  0
  102.7326    5.7971  -91.3493 O   0  0  0  0  0  0  0  0  0  0  0  0
  106.1452    2.6068  -90.7170 O   0  0  0  0  0  1  0  0  0  0  0  0
   98.8177    4.6069  -89.9220 O   0  0  0  0  0  0  0  0  0  0  0  0
  102.6096    3.6394  -92.5279 C   0  0  0  0  0  0  0  0  0  0  0  0
  100.0410    6.1026  -91.0661 N   0  0  0  0  0  0  0  0  0  0  0  0
  104.3655    1.0539  -91.4830 O   0  0  0  0  0  0  0  0  0  0  0  0
  103.5530    7.9120  -90.9533 C   0  0  0  0  0  0  0  0  0  0  0  0
  100.8021    7.3143  -91.0768 C   0  0  0  0  0  0  0  0  0  0  0  0
  105.6329    7.9548  -89.8636 O   0  0  0  0  0  0  0  0  0  0  0  0
  100.9979    9.7453  -91.2756 C   0  0  0  0  0  0  0  0  0  0  0  0
  105.6396    7.4146  -91.9821 O   0  0  0  0  0  0  0  0  0  0  0  0
  105.0635    2.3883  -91.7531 P   0  0  0  0  0  4  0  0  0  0  0  0
  105.7597    2.3711  -93.1427 O   0  0  0  0  0  0  0  0  0  0  0  0
  103.3570    9.3607  -91.3962 C   0  0  0  0  0  0  0  0  0  0  0  0
  102.2757    7.1777  -91.3125 C   0  0  0  0  0  0  0  0  0  0  0  0
   98.9273    5.8006  -90.2716 C   0  0  0  0  0  0  0  0  0  0  0  0
  100.1801    8.5342  -90.9118 C   0  0  0  0  0  0  0  0  0  0  0  0
  102.1596    9.4862  -92.1075 O   0  0  0  0  0  0  0  0  0  0  0  0
   98.9247    8.7739  -90.5004 C   0  0  0  0  0  0  0  0  0  0  0  0
  1  6  1  0
  1  8  1  0
  1 11  1  0
  2 11  1  0
  2 19  1  0
  3 14  1  0
  3 16  2  0
  3 18  1  0
  4  6  2  0
  5  7  2  0
  5 26  1  0
  6 12  1  0
  7 23  1  0
  8 22  1  0
  9 19  2  0
 10 23  2  0
 12 15  1  0
 12 23  1  0
 13 19  1  0
 14 21  1  0
 14 22  1  0
 15 22  1  0
 15 24  1  0
 17 24  1  0
 17 25  1  0
 19 20  1  0
 21 25  1  0
 24 26  2  0
M  END
>  <ID>  (1) 
conformer_0

$$$$
