
     RDKit          3D

 21 23  0  0  0  0  0  0  0  0999 V2000
  104.0914    4.7661  -91.8395 N   0  0  0  0  0  0  0  0  0  0  0  0
   99.6857    6.0588  -89.5731 N   0  0  0  0  0  0  0  0  0  0  0  0
  105.8773    3.3409  -92.5813 O   0  0  0  0  0  0  0  0  0  0  0  0
   99.2949   10.1783  -91.2100 C   0  0  0  0  0  0  0  0  0  0  0  0
  100.6468    4.2146  -93.2246 C   0  0  0  0  0  0  0  0  0  0  0  0
  101.4313    8.9182  -91.0938 C   0  0  0  0  0  0  0  0  0  0  0  0
  100.6575   10.0065  -91.2794 C   0  0  0  0  0  0  0  0  0  0  0  0
   98.6257    7.9958  -90.3757 C   0  0  0  0  0  0  0  0  0  0  0  0
  100.5211    4.9901  -89.9011 C   0  0  0  0  0  0  0  0  0  0  0  0
  103.6615    6.1093  -91.1525 C   0  0  0  0  0  0  0  0  0  0  0  0
  101.4635    5.1966  -91.0074 C   0  0  0  0  0  0  0  0  0  0  0  0
   99.7218    3.4233  -92.4694 O   0  0  0  0  0  0  0  0  0  0  0  0
  102.1532    6.5552  -90.8047 C   0  0  0  0  0  0  0  0  0  0  0  0
   99.7911    7.2922  -90.2223 C   0  0  0  0  0  0  0  0  0  0  0  0
  101.7661    4.7138  -92.3998 C   0  0  0  0  0  0  0  0  0  0  0  0
  103.0998    4.1257  -92.6029 C   0  0  0  0  0  0  0  0  0  0  0  0
  101.0899    7.6478  -90.6864 C   0  0  0  0  0  0  0  0  0  0  0  0
   98.3558    9.2426  -90.8447 C   0  0  0  0  0  0  0  0  0  0  0  0
  100.4397    3.8916  -89.3140 O   0  0  0  0  0  0  0  0  0  0  0  0
  103.1886    3.0315  -93.2157 O   0  0  0  0  0  0  0  0  0  0  0  0
  105.4128    4.3242  -91.7688 C   0  0  0  0  0  0  0  0  0  0  0  0
  1 10  1  0
  1 16  1  0
  1 21  1  0
  2  9  1  0
  2 14  1  0
  3 21  1  0
  4  7  1  0
  4 18  1  0
  5 12  1  0
  5 15  1  0
  6  7  2  0
  6 17  1  0
  8 14  1  0
  8 18  2  0
  9 11  1  0
  9 19  2  0
 10 13  1  0
 11 13  1  0
 11 15  1  0
 13 17  1  0
 14 17  1  0
 15 16  1  0
 16 20  2  0
M  END
>  <ID>  (1) 
conformer_0

$$$$
