
     RDKit          3D

 25 26  0  0  0  0  0  0  0  0999 V2000
  106.1589    4.8911  -90.5748 O   0  0  0  0  0  0  0  0  0  0  0  0
  102.0958    7.7949  -91.1168 C   0  0  0  0  0  0  0  0  0  0  0  0
  101.9773    1.8529  -94.6701 C   0  0  0  0  0  0  0  0  0  0  0  0
  101.4014    3.7554  -93.2823 C   0  0  0  0  0  0  0  0  0  0  0  0
   99.5832    8.0645  -91.0771 C   0  0  0  0  0  0  0  0  0  0  0  0
   99.9551   10.8060  -90.8687 C   0  0  0  0  0  0  0  0  0  0  0  0
  103.4094    2.5342  -92.8742 C   0  0  0  0  0  0  0  0  0  0  0  0
  103.1454    1.6734  -93.9225 C   0  0  0  0  0  0  0  0  0  0  0  0
  105.4683    4.5761  -91.5553 C   0  0  0  0  0  0  0  0  0  0  0  0
  101.0598    9.9899  -91.0624 C   0  0  0  0  0  0  0  0  0  0  0  0
  102.8911    4.4622  -91.3669 C   0  0  0  0  0  0  0  0  0  0  0  0
   99.2027    6.6489  -91.4886 C   0  0  0  0  0  0  0  0  0  0  0  0
  105.9047    3.8109  -92.4385 O   0  0  0  0  0  0  0  0  0  0  0  0
   98.5186    8.8803  -90.7794 N   0  0  0  0  0  0  0  0  0  0  0  0
  101.9657    6.5072  -90.6317 N   0  0  0  0  0  0  0  0  0  0  0  0
  102.5694    3.5949  -92.5259 C   0  0  0  0  0  0  0  0  0  0  0  0
   99.8310    3.9578  -89.9146 O   0  0  0  0  0  0  0  0  0  0  0  0
  103.2144    8.2647  -91.3802 O   0  0  0  0  0  0  0  0  0  0  0  0
  101.0957    2.8864  -94.3255 C   0  0  0  0  0  0  0  0  0  0  0  0
  104.1413    5.3698  -91.6843 C   0  0  0  0  0  0  0  0  0  0  0  0
  101.6920    5.1141  -90.7655 C   0  0  0  0  0  0  0  0  0  0  0  0
  100.9952    4.4276  -89.6607 C   0  0  0  0  0  0  0  0  0  0  0  0
  101.5139    4.5954  -88.3003 C   0  0  0  0  0  0  0  0  0  0  0  0
  100.8867    8.6106  -91.0885 C   0  0  0  0  0  0  0  0  0  0  0  0
   98.7098   10.2476  -90.7047 C   0  0  0  0  0  0  0  0  0  0  0  0
  1  9  2  0
  2 15  1  0
  2 18  2  0
  2 24  1  0
  3  8  1  0
  3 19  1  0
  4 16  1  0
  4 19  2  0
  5 12  1  0
  5 14  2  0
  5 24  1  0
  6 10  1  0
  6 25  2  0
  7  8  2  0
  7 16  1  0
  9 13  1  0
  9 20  1  0
 10 24  2  0
 11 16  1  0
 11 20  1  0
 11 21  1  0
 14 25  1  0
 15 21  1  0
 17 22  2  0
 21 22  1  0
 22 23  1  0
M  END
>  <ID>  (1) 
conformer_0

$$$$
