
     RDKit          3D

 33 34  0  0  0  0  0  0  0  0999 V2000
  106.1159    6.1547  -91.4690 C   0  0  0  0  0  0  0  0  0  0  0  0
   99.4400    3.1800  -87.2604 C   0  0  0  0  0  0  0  0  0  0  0  0
  100.7458    8.0163  -91.3083 C   0  0  0  0  0  0  0  0  0  0  0  0
  105.0101    5.5985  -90.8485 N   0  0  0  0  0  0  0  0  0  0  0  0
   99.8074    3.6740  -85.9898 C   0  0  0  0  0  0  0  0  0  0  0  0
   99.3754    7.8821  -91.5212 C   0  0  0  0  0  0  0  0  0  0  0  0
   99.7853    4.2226  -88.1562 C   0  0  0  0  0  0  0  0  0  0  0  0
   99.7745    5.2852  -90.3180 N   0  0  0  0  0  0  0  0  0  0  0  0
  101.3232    9.2553  -91.1578 C   0  0  0  0  0  0  0  0  0  0  0  0
  100.3863    5.2908  -87.4729 N   0  0  0  0  0  0  0  0  0  0  0  0
   99.2123   10.2698  -91.3953 C   0  0  0  0  0  0  0  0  0  0  0  0
  102.2294    1.0711  -93.0494 O   0  0  0  0  0  0  0  0  0  0  0  0
   99.3785    5.3123  -91.7286 C   0  0  0  0  0  0  0  0  0  0  0  0
   98.3710   11.4476  -91.5777 C   0  0  0  0  0  0  0  0  0  0  0  0
  103.9244    4.9596  -91.5770 C   0  0  0  0  0  0  0  0  0  0  0  0
   98.6910    6.6407  -91.8706 C   0  0  0  0  0  0  0  0  0  0  0  0
  103.5313   10.3477  -91.4020 O   0  0  0  0  0  0  0  0  0  0  0  0
  100.5950   10.4463  -91.2119 C   0  0  0  0  0  0  0  0  0  0  0  0
  104.0298    8.9902  -91.5970 C   0  0  0  0  0  0  0  0  0  0  0  0
  102.4216    3.4870  -93.2241 C   0  0  0  0  0  0  0  0  0  0  0  0
  100.6303    5.2041  -92.6443 C   0  0  0  0  0  0  0  0  0  0  0  0
  104.8630    8.1253  -90.9485 O   0  0  0  0  0  0  0  0  0  0  0  0
  101.1220    3.8740  -92.8628 N   0  0  0  0  0  0  0  0  0  0  0  0
  102.2870    2.0997  -93.8981 C   0  0  0  0  0  0  0  0  0  0  0  0
   98.5995    9.0468  -91.4896 C   0  0  0  0  0  0  0  0  0  0  0  0
  106.0139    7.6215  -91.5995 C   0  0  0  0  0  0  0  0  0  0  0  0
  101.2251    2.1936  -94.9693 C   0  0  0  0  0  0  0  0  0  0  0  0
   99.0413    4.5352  -89.3129 C   0  0  0  0  0  0  0  0  0  0  0  0
   98.3548    4.3688  -92.1103 O   0  0  0  0  0  0  0  0  0  0  0  0
  100.2857    5.0215  -86.1390 C   0  0  0  0  0  0  0  0  0  0  0  0
  103.5031    3.5803  -92.1538 C   0  0  0  0  0  0  0  0  0  0  0  0
  107.0377    5.3858  -91.9827 O   0  0  0  0  0  0  0  0  0  0  0  0
  100.1728    5.9403  -85.2865 O   0  0  0  0  0  0  0  0  0  0  0  0
  1  4  1  0
  1 26  1  0
  1 32  2  0
  2  5  1  0
  2  7  1  0
  3  6  1  0
  3  9  2  0
  4 15  1  0
  5 30  1  0
  6 16  2  3
  6 25  1  0
  7 10  1  0
  7 28  1  0
  8 13  1  0
  8 28  1  0
  9 18  1  0
 10 30  1  0
 11 14  1  0
 11 18  1  0
 11 25  2  0
 12 24  1  0
 13 16  1  0
 13 21  1  0
 13 29  1  0
 15 31  2  3
 17 19  1  0
 19 22  1  0
 20 23  1  0
 20 24  1  0
 20 31  1  0
 21 23  1  0
 22 26  1  0
 24 27  1  0
 30 33  2  0
M  END
>  <ID>  (1) 
conformer_0

$$$$
