
     RDKit          3D

 27 28  0  0  0  0  0  0  0  0999 V2000
  106.6818    5.5968  -92.1375 O   0  0  0  0  0  0  0  0  0  0  0  0
  101.2621    8.9242  -91.0944 C   0  0  0  0  0  0  0  0  0  0  0  0
  100.1530    9.8430  -90.9731 C   0  0  0  0  0  0  0  0  0  0  0  0
  100.3405    4.6084  -89.7648 C   0  0  0  0  0  0  0  0  0  0  0  0
   97.3683    7.2929  -89.9414 C   0  0  0  0  0  0  0  0  0  0  0  0
  101.3732    4.8014  -92.4804 C   0  0  0  0  0  0  0  0  0  0  0  0
   99.8051    7.1728  -90.5827 C   0  0  0  0  0  0  0  0  0  0  0  0
  105.0421    8.7622  -91.4624 C   0  0  0  0  0  0  0  0  0  0  0  0
  102.1039    3.7620  -93.4014 C   0  0  0  0  0  0  0  0  0  0  0  0
  103.1238    1.4287  -94.6418 C   0  0  0  0  0  0  0  0  0  0  0  0
   97.4677    5.7893  -89.6752 C   0  0  0  0  0  0  0  0  0  0  0  0
  100.9916    7.6073  -90.9108 N   0  0  0  0  0  0  0  0  0  0  0  0
  107.2748    7.6618  -92.9364 O   0  0  0  0  0  0  0  0  0  0  0  0
  104.4737    6.8335  -90.7429 C   0  0  0  0  0  0  0  0  0  0  0  0
   98.6933    7.9015  -90.3644 C   0  0  0  0  0  0  0  0  0  0  0  0
  103.7386    1.9514  -93.3491 C   0  0  0  0  0  0  0  0  0  0  0  0
   98.8105    4.8591  -89.4173 C   0  0  0  0  0  0  0  0  0  0  0  0
   96.3155    8.3922  -89.6979 C   0  0  0  0  0  0  0  0  0  0  0  0
  102.7895    2.7557  -92.6193 O   0  0  0  0  0  0  0  0  0  0  0  0
  102.6684    9.3115  -91.3870 C   0  0  0  0  0  0  0  0  0  0  0  0
  101.3541    4.6068  -90.9503 C   0  0  0  0  0  0  0  0  0  0  0  0
  105.8289    7.5102  -91.0146 C   0  0  0  0  0  0  0  0  0  0  0  0
  103.6369    8.1487  -91.0721 N   0  0  0  0  0  0  0  0  0  0  0  0
   98.8865    9.3047  -90.6359 C   0  0  0  0  0  0  0  0  0  0  0  0
  102.6956    4.6602  -90.4710 O   0  0  0  0  0  0  0  0  0  0  0  0
  100.8201    3.7536  -88.7218 O   0  0  0  0  0  0  0  0  0  0  0  0
  106.6909    6.8967  -92.0675 C   0  0  0  0  0  0  0  0  0  0  0  0
  1 27  2  0
  2  3  2  0
  2 12  1  0
  2 20  1  0
  3 24  1  0
  4 17  1  0
  4 21  1  0
  4 26  1  0
  5 11  1  0
  5 15  1  0
  5 18  1  0
  6  9  1  0
  6 21  1  0
  7 12  2  0
  7 15  1  0
  8 22  1  0
  8 23  1  0
  9 19  1  0
 10 16  1  0
 11 17  1  0
 13 27  1  0
 14 22  1  0
 14 23  1  0
 15 24  2  0
 16 19  1  0
 20 23  1  0
 21 25  1  0
 22 27  1  0
M  END
>  <ID>  (1) 
conformer_0

$$$$
