
     RDKit          3D

 22 24  0  0  0  0  0  0  0  0999 V2000
  103.0103    4.5809  -91.8833 C   0  0  0  0  0  0  0  0  0  0  0  0
  103.8678    5.3869  -90.8557 C   0  0  0  0  0  0  0  0  0  0  0  0
   98.2453   10.0146  -90.7673 C   0  0  0  0  0  0  0  0  0  0  0  0
  101.9990    2.2750  -91.9739 O   0  0  0  0  0  0  0  0  0  0  0  0
  103.5140    1.5920  -94.1795 C   0  0  0  0  0  0  0  0  0  0  0  0
  100.4293    7.7911  -90.8562 C   0  0  0  0  0  0  0  0  0  0  0  0
   99.3542    7.2304  -90.2123 C   0  0  0  0  0  0  0  0  0  0  0  0
  104.2882    3.7427  -92.5902 C   0  0  0  0  0  0  0  0  0  0  0  0
  105.6524    2.1366  -93.5874 O   0  0  0  0  0  0  0  0  0  0  0  0
  101.5566    5.5450  -91.6889 C   0  0  0  0  0  0  0  0  0  0  0  0
  100.6559    4.3865  -92.2937 C   0  0  0  0  0  0  0  0  0  0  0  0
  104.0670    6.8673  -90.9440 C   0  0  0  0  0  0  0  0  0  0  0  0
  104.8603    4.8061  -90.2014 O   0  0  0  0  0  0  0  0  0  0  0  0
   98.1037    7.6726  -89.9461 C   0  0  0  0  0  0  0  0  0  0  0  0
   99.9259    3.9087  -91.0911 O   0  0  0  0  0  0  0  0  0  0  0  0
  100.5037    9.1237  -91.2789 C   0  0  0  0  0  0  0  0  0  0  0  0
  101.9374    3.5090  -92.6014 C   0  0  0  0  0  0  0  0  0  0  0  0
  101.6235    6.9364  -91.1693 C   0  0  0  0  0  0  0  0  0  0  0  0
   97.5549    8.9369  -90.2054 C   0  0  0  0  0  0  0  0  0  0  0  0
   99.5225   10.0741  -91.2519 C   0  0  0  0  0  0  0  0  0  0  0  0
  102.8280    7.5452  -90.8664 N   0  0  0  0  0  0  0  0  0  0  0  0
  104.3845    2.4103  -93.2902 C   0  0  0  0  0  0  0  0  0  0  0  0
  1  2  1  0
  1  8  1  0
  1 10  1  0
  1 17  1  0
  2 12  1  0
  2 13  1  0
  3 19  2  0
  3 20  1  0
  4 17  1  0
  5 22  1  0
  6  7  1  0
  6 16  1  0
  6 18  1  0
  7 14  2  0
  8 22  1  0
  9 22  1  0
 10 11  1  0
 10 18  1  0
 11 15  1  0
 11 17  1  0
 12 21  1  0
 14 19  1  0
 16 20  2  0
 18 21  2  0
M  END
>  <ID>  (1) 
conformer_0

$$$$
