
     RDKit          3D

 25 28  0  0  0  0  0  0  0  0999 V2000
   99.0433    6.4563  -90.8876 C   0  0  0  0  0  0  0  0  0  0  0  0
  105.5310    2.3352  -91.8691 C   0  0  0  0  0  0  0  0  0  0  0  0
  103.1310    6.9761  -90.8143 C   0  0  0  0  0  0  0  0  0  0  0  0
  106.3370    1.6177  -91.1700 O   0  0  0  0  0  0  0  0  0  0  0  0
  101.3076    9.3899  -91.1111 C   0  0  0  0  0  0  0  0  0  0  0  0
  103.8604    5.6987  -90.9819 C   0  0  0  0  0  0  0  0  0  0  0  0
  100.8747    8.0475  -90.9680 C   0  0  0  0  0  0  0  0  0  0  0  0
   97.1033    5.0363  -90.7304 C   0  0  0  0  0  0  0  0  0  0  0  0
   99.4923    7.8268  -90.9566 C   0  0  0  0  0  0  0  0  0  0  0  0
   99.8628    5.3672  -91.2706 C   0  0  0  0  0  0  0  0  0  0  0  0
  103.6922    8.2378  -91.1051 C   0  0  0  0  0  0  0  0  0  0  0  0
  103.3456    3.4823  -91.9531 C   0  0  0  0  0  0  0  0  0  0  0  0
   97.7321    6.2037  -90.5136 C   0  0  0  0  0  0  0  0  0  0  0  0
  101.7231    6.8429  -90.8146 C   0  0  0  0  0  0  0  0  0  0  0  0
  104.4910    2.9971  -91.2198 O   0  0  0  0  0  0  0  0  0  0  0  0
   98.5962    8.9113  -91.0870 C   0  0  0  0  0  0  0  0  0  0  0  0
  102.7494    4.6820  -91.2340 C   0  0  0  0  0  0  0  0  0  0  0  0
  104.2027    8.9366  -91.9830 O   0  0  0  0  0  0  0  0  0  0  0  0
   99.0278   10.2053  -91.2205 C   0  0  0  0  0  0  0  0  0  0  0  0
  105.7675    2.5430  -93.1389 O   0  0  0  0  0  0  0  0  0  0  0  0
  100.3988   10.4750  -91.2213 C   0  0  0  0  0  0  0  0  0  0  0  0
   99.2084    4.1561  -91.6015 C   0  0  0  0  0  0  0  0  0  0  0  0
   97.8448    3.9909  -91.3345 C   0  0  0  0  0  0  0  0  0  0  0  0
  101.3898    5.4667  -91.3103 C   0  0  0  0  0  0  0  0  0  0  0  0
  105.2895    6.1322  -91.0352 O   0  0  0  0  0  0  0  0  0  0  0  0
  1  9  1  0
  1 10  1  0
  1 13  1  0
  2  4  2  0
  2 15  1  0
  2 20  1  0
  3  6  1  0
  3 11  1  0
  3 14  1  0
  5  7  2  0
  5 21  1  0
  6 17  1  0
  6 25  1  0
  7  9  1  0
  7 14  1  0
  8 13  2  0
  8 23  1  0
  9 16  2  0
 10 22  1  0
 10 24  1  0
 11 18  2  0
 12 15  1  0
 12 17  1  0
 14 24  1  0
 16 19  1  0
 17 24  1  0
 19 21  2  0
 22 23  2  0
M  END
>  <ID>  (1) 
conformer_0

$$$$
