
     RDKit          3D

 30 32  0  0  0  0  0  0  0  0999 V2000
  104.0171    6.0494  -90.8354 C   0  0  0  0  0  0  0  0  0  0  0  0
  100.6099    9.1184  -90.9687 C   0  0  0  0  0  0  0  0  0  0  0  0
  103.1157    3.0976  -93.3599 C   0  0  0  0  0  0  0  0  0  0  0  0
   98.6118    5.2578  -86.9944 O   0  0  0  0  0  1  0  0  0  0  0  0
   99.3873    4.8762  -88.1309 S   0  0  0  0  0  4  0  0  0  0  0  0
   98.9694    3.6880  -88.8301 O   0  0  0  0  0  1  0  0  0  0  0  0
  104.4224    5.4591  -89.6075 O   0  0  0  0  0  0  0  0  0  0  0  0
  100.8007    6.5311  -90.0389 C   0  0  0  0  0  0  0  0  0  0  0  0
  105.2411    6.5426  -91.6818 N   0  0  0  0  0  0  0  0  0  0  0  0
  103.7854    2.0988  -94.1048 C   0  0  0  0  0  0  0  0  0  0  0  0
  103.2926    7.1830  -90.5768 O   0  0  0  0  0  0  0  0  0  0  0  0
  103.7775    3.6573  -92.2713 C   0  0  0  0  0  0  0  0  0  0  0  0
  101.8473    5.1003  -91.9759 C   0  0  0  0  0  0  0  0  0  0  0  0
  101.1429    4.4321  -93.0330 C   0  0  0  0  0  0  0  0  0  0  0  0
   98.8937    7.7838  -90.0208 C   0  0  0  0  0  0  0  0  0  0  0  0
  101.9214    9.3306  -91.2856 O   0  0  0  0  0  0  0  0  0  0  0  0
  105.0739    1.6690  -93.7217 C   0  0  0  0  0  0  0  0  0  0  0  0
   99.8359    4.6304  -93.0070 O   0  0  0  0  0  0  0  0  0  0  0  0
  105.5420    2.0654  -92.4545 C   0  0  0  0  0  0  0  0  0  0  0  0
  103.2978    4.9082  -91.7256 C   0  0  0  0  0  0  0  0  0  0  0  0
   97.9079    8.7985  -90.3401 C   0  0  0  0  0  0  0  0  0  0  0  0
  101.1001    4.6018  -87.5499 C   0  0  0  0  0  0  0  0  0  0  0  0
  101.8542    3.5181  -93.7175 O   0  0  0  0  0  0  0  0  0  0  0  0
  101.0512    5.1616  -90.7329 C   0  0  0  0  0  0  0  0  0  0  0  0
   98.3620   10.0019  -90.9303 C   0  0  0  0  0  0  0  0  0  0  0  0
   99.1347    6.2976  -89.2860 C   0  0  0  0  0  0  0  0  0  0  0  0
  104.8861    3.0408  -91.7648 C   0  0  0  0  0  0  0  0  0  0  0  0
  100.1457    7.9152  -90.3897 C   0  0  0  0  0  0  0  0  0  0  0  0
   99.7208   10.2241  -91.1995 C   0  0  0  0  0  0  0  0  0  0  0  0
  105.7955    0.9112  -94.4899 O   0  0  0  0  0  0  0  0  0  0  0  0
  1  7  1  0
  1  9  1  0
  1 11  1  0
  1 20  1  0
  2 16  1  0
  2 28  2  0
  2 29  1  0
  3 10  2  0
  3 12  1  0
  3 23  1  0
  4  5  1  0
  5  6  1  0
  5 22  1  0
  5 26  1  0
  8 24  1  0
  8 28  1  0
 10 17  1  0
 12 20  1  0
 12 27  2  0
 13 14  1  0
 13 20  1  0
 13 24  1  0
 14 18  2  0
 14 23  1  0
 15 21  2  0
 15 26  1  0
 15 28  1  0
 17 19  2  0
 17 30  1  0
 19 27  1  0
 21 25  1  0
 25 29  2  0
M  END
>  <ID>  (1) 
conformer_0

$$$$
