
     RDKit          3D

 33 34  0  0  0  0  0  0  0  0999 V2000
  103.3136    2.8283  -92.5087 C   0  0  0  0  0  0  0  0  0  0  0  0
  100.8452    8.9171  -90.5655 C   0  0  0  0  0  0  0  0  0  0  0  0
   99.3942    4.7735  -92.3106 C   0  0  0  0  0  0  0  0  0  0  0  0
  100.3914    4.2830  -88.4611 C   0  0  0  0  0  0  0  0  0  0  0  0
  103.0309    6.1076  -89.5612 C   0  0  0  0  0  0  0  0  0  0  0  0
  105.8083    3.0387  -91.6949 P   0  0  0  0  0  4  0  0  0  0  0  0
  106.1984    2.5329  -93.1117 O   0  0  0  0  0  1  0  0  0  0  0  0
  104.2659    2.4547  -91.4083 O   0  0  0  0  0  0  0  0  0  0  0  0
   96.8653    6.6753  -90.0790 C   0  0  0  0  0  0  0  0  0  0  0  0
   97.5084    5.6517  -90.8010 C   0  0  0  0  0  0  0  0  0  0  0  0
  100.5439    5.1273  -93.1588 C   0  0  0  0  0  0  0  0  0  0  0  0
   99.5269    9.2796  -90.5617 O   0  0  0  0  0  0  0  0  0  0  0  0
   98.6606    8.1521  -90.6831 C   0  0  0  0  0  0  0  0  0  0  0  0
   98.6732    5.9267  -91.5389 C   0  0  0  0  0  0  0  0  0  0  0  0
   95.6770    6.4150  -89.4595 O   0  0  0  0  0  0  0  0  0  0  0  0
  105.7142    4.6298  -91.7374 O   0  0  0  0  0  0  0  0  0  0  0  0
  101.3007    3.7227  -91.2502 O   0  0  0  0  0  0  0  0  0  0  0  0
  101.9103    3.2573  -92.3810 C   0  0  0  0  0  0  0  0  0  0  0  0
  105.5228    5.5127  -90.6374 C   0  0  0  0  0  0  0  0  0  0  0  0
   96.8595    4.0507  -90.6711 Cl  0  0  0  0  0  0  0  0  0  0  0  0
  105.0115    6.8515  -90.8352 C   0  0  0  0  0  0  0  0  0  0  0  0
  103.6088    7.1732  -90.4230 C   0  0  0  0  0  0  0  0  0  0  0  0
  104.3407    0.9479  -91.1898 O   0  0  0  0  0  0  0  0  0  0  0  0
  106.7184    2.5378  -90.5816 O   0  0  0  0  0  0  0  0  0  0  0  0
  101.9728    4.9830  -88.7914 S   0  0  0  0  0  0  0  0  0  0  0  0
  101.3292    3.9211  -93.5944 C   0  0  0  0  0  0  0  0  0  0  0  0
   99.1744    7.1846  -91.4845 C   0  0  0  0  0  0  0  0  0  0  0  0
   97.4330    7.9680  -90.0477 C   0  0  0  0  0  0  0  0  0  0  0  0
  103.0121    8.0854  -91.3123 N   0  0  0  0  0  0  0  0  0  0  0  0
  105.6668    7.8093  -91.4953 O   0  0  0  0  0  0  0  0  0  0  0  0
  102.5219   10.2790  -91.0880 O   0  0  0  0  0  0  0  0  0  0  0  0
  102.0687    9.1241  -91.1982 C   0  0  0  0  0  0  0  0  0  0  0  0
   99.8882    3.7898  -91.3171 C   0  0  0  0  0  0  0  0  0  0  0  0
  1 18  1  0
  2 12  1  0
  2 32  1  0
  3 11  1  0
  3 14  1  0
  3 33  1  0
  4 25  1  0
  5 22  1  0
  5 25  1  0
  6  7  2  0
  6  8  1  0
  6 16  1  0
  6 24  1  0
  8 23  1  0
  9 10  2  0
  9 15  1  0
  9 28  1  0
 10 14  1  0
 10 20  1  0
 11 26  1  0
 12 13  1  0
 13 27  1  0
 13 28  2  0
 14 27  2  0
 16 19  1  0
 17 18  1  0
 17 33  1  0
 18 26  1  0
 19 21  1  0
 21 22  1  0
 21 30  1  0
 22 29  1  0
 29 32  1  0
 31 32  2  0
M  END
>  <ID>  (1) 
conformer_0

$$$$
