
     RDKit          3D

 24 25  0  0  0  0  0  0  0  0999 V2000
   99.8913    6.1248  -90.9738 C   0  0  0  0  0  0  0  0  0  0  0  0
   99.1412    5.3920  -89.9310 C   0  0  0  0  0  0  0  0  0  0  0  0
  105.7089    5.4986  -89.8235 O   0  0  0  0  0  0  0  0  0  0  0  0
  100.9674    2.4662  -92.6940 O   0  0  0  0  0  0  0  0  0  0  0  0
  100.2355    9.7619  -90.6668 O   0  0  0  0  0  0  0  0  0  0  0  0
  100.8477    5.3737  -91.7825 O   0  0  0  0  0  0  0  0  0  0  0  0
  104.4886    2.4883  -92.9895 C   0  0  0  0  0  0  0  0  0  0  0  0
  103.6870    5.7906  -88.9550 O   0  0  0  0  0  0  0  0  0  0  0  0
  101.9165    4.6127  -92.4721 C   0  0  0  0  0  0  0  0  0  0  0  0
   99.4009    7.5154  -91.3531 C   0  0  0  0  0  0  0  0  0  0  0  0
  102.6605    9.3222  -91.3827 C   0  0  0  0  0  0  0  0  0  0  0  0
  104.2447    7.1657  -90.8249 C   0  0  0  0  0  0  0  0  0  0  0  0
  101.8591    7.9831  -91.2996 C   0  0  0  0  0  0  0  0  0  0  0  0
  104.5724    6.0399  -89.8400 C   0  0  0  0  0  0  0  0  0  0  0  0
  102.9575    6.8420  -91.6905 N   0  0  0  0  0  0  0  0  0  0  0  0
  103.1027    2.5889  -93.6998 C   0  0  0  0  0  0  0  0  0  0  0  0
  104.0291    9.5785  -91.5452 O   0  0  0  0  0  0  0  0  0  0  0  0
  100.4042    8.5703  -91.0960 C   0  0  0  0  0  0  0  0  0  0  0  0
   97.2993    5.4073  -91.6182 O   0  0  0  0  0  0  0  0  0  0  0  0
   99.8667    4.2649  -89.5104 O   0  0  0  0  0  0  0  0  0  0  0  0
  102.0072    3.2190  -92.9312 C   0  0  0  0  0  0  0  0  0  0  0  0
  103.2480    5.3733  -92.1847 C   0  0  0  0  0  3  0  0  0  0  0  0
   97.6413    5.2618  -90.2365 C   0  0  0  0  0  0  0  0  0  0  0  0
  104.5769    4.1868  -92.3022 S   0  0  0  0  0  3  0  0  0  0  0  0
  1  2  1  0
  1  6  1  0
  1 10  1  0
  2 20  1  0
  2 23  1  0
  3 14  2  0
  4 21  1  0
  5 18  2  0
  6  9  1  0
  7 16  1  0
  7 24  1  0
  8 14  1  0
  9 21  1  0
  9 22  1  0
 10 18  1  0
 11 13  2  3
 11 17  1  0
 12 14  1  0
 12 15  1  0
 13 15  1  0
 13 18  1  0
 15 22  1  0
 16 21  1  0
 19 23  1  0
 22 24  2  0
M  END
>  <ID>  (1) 
conformer_0

$$$$
