
     RDKit          3D

 33 35  0  0  0  0  0  0  0  0999 V2000
  101.3652    4.5747  -94.4975 C   0  0  0  0  0  0  0  0  0  0  0  0
  106.4232    5.5655  -91.0035 C   0  0  0  0  0  0  0  0  0  0  0  0
  103.5002    4.7817  -90.2507 O   0  0  0  0  0  0  0  0  0  0  0  0
  105.6730    4.0240  -91.0910 O   0  0  0  0  0  0  0  0  0  0  0  0
  103.6913    2.2276  -91.7491 C   0  0  0  0  0  0  0  0  0  0  0  0
  103.6176    9.5258  -91.5034 O   0  0  0  0  0  0  0  0  0  0  0  0
  106.5781    5.7902  -89.6121 O   0  0  0  0  0  0  0  0  0  0  0  0
  102.2430    8.7997  -91.3016 C   0  0  0  0  0  0  0  0  0  0  0  0
  107.3327    6.7515  -91.5501 C   0  0  0  0  0  0  0  0  0  0  0  0
  105.4918    1.6849  -93.1866 O   0  0  0  0  0  0  0  0  0  0  0  0
  104.9921    1.5582  -92.0302 C   0  0  0  0  0  0  0  0  0  0  0  0
  105.3734    0.7906  -91.1768 O   0  0  0  0  0  0  0  0  0  0  0  0
  101.3831    4.9202  -93.0066 C   0  0  0  0  0  0  0  0  0  0  0  0
   97.9578    4.7722  -89.6039 O   0  0  0  0  0  0  0  0  0  0  0  0
  100.5631    8.8281  -90.9709 C   0  0  0  0  0  0  0  0  0  0  0  0
   99.8176    6.5023  -90.0648 C   0  0  0  0  0  0  0  0  0  0  0  0
   99.1311    4.6071  -91.7622 C   0  0  0  0  0  0  0  0  0  0  0  0
  104.3468    4.6230  -91.3835 C   0  0  0  0  0  0  0  0  0  0  0  0
   99.5376    7.9106  -90.4308 C   0  0  0  0  0  0  0  0  0  0  0  0
   98.8166   10.5341  -91.2046 C   0  0  0  0  0  0  0  0  0  0  0  0
   98.2298    8.3716  -90.2803 C   0  0  0  0  0  0  0  0  0  0  0  0
  100.0799    5.5560  -92.5739 C   0  0  0  0  0  0  0  0  0  0  0  0
  100.8981    3.1893  -94.6332 O   0  0  0  0  0  0  0  0  0  0  0  0
  100.1319   10.1197  -91.3433 C   0  0  0  0  0  0  0  0  0  0  0  0
   99.2703    4.9984  -90.1488 C   0  0  0  0  0  0  0  0  0  0  0  0
   97.8342    9.6456  -90.6749 C   0  0  0  0  0  0  0  0  0  0  0  0
  105.0498    6.0658  -91.5867 C   0  0  0  0  0  0  0  0  0  0  0  0
  103.7032    8.1362  -91.3332 N   0  0  0  0  0  0  0  0  0  0  0  0
  106.4753    7.9847  -91.2657 C   0  0  0  0  0  0  0  0  0  0  0  0
  103.5751    3.6614  -92.3908 C   0  0  0  0  0  0  0  0  0  0  0  0
  102.1291    3.9581  -92.3084 O   0  0  0  0  0  0  0  0  0  0  0  0
  100.2019    4.0913  -89.5486 O   0  0  0  0  0  0  0  0  0  0  0  0
  105.0363    7.5812  -91.1803 C   0  0  0  0  0  0  0  0  0  0  0  0
  1 13  1  0
  1 23  1  0
  2  7  1  0
  2  9  1  0
  2 27  1  0
  3 18  1  0
  4 18  1  0
  5 11  1  0
  5 30  1  0
  6 28  1  0
  8 15  1  0
  8 28  1  0
  9 29  1  0
 10 11  2  0
 11 12  1  0
 13 22  1  0
 13 31  1  0
 14 25  1  0
 15 19  2  0
 15 24  1  0
 16 19  1  0
 16 25  1  0
 17 22  1  0
 17 25  1  0
 18 27  1  0
 18 30  1  0
 19 21  1  0
 20 24  2  0
 20 26  1  0
 21 26  2  0
 25 32  1  0
 27 33  1  0
 28 33  1  0
 29 33  1  0
 30 31  1  0
M  END
>  <ID>  (1) 
conformer_0

$$$$
