
     RDKit          3D

 31 36  0  0  0  0  0  0  0  0999 V2000
   -9.0662    4.3578  -21.5367 O   0  0  0  0  0  0  0  0  0  0  0  0
  -13.8123    2.4818  -22.2049 C   0  0  0  0  0  0  0  0  0  0  0  0
  -17.3796    3.3971  -23.0694 C   0  0  0  0  0  0  0  0  0  0  0  0
  -17.6353   -0.5889  -24.2461 N   0  0  0  0  0  0  0  0  0  0  0  0
  -15.7157   -1.8407  -23.8695 C   0  0  0  0  0  0  0  0  0  0  0  0
   -9.2082    5.4069  -19.4164 C   0  0  0  0  0  0  0  0  0  0  0  0
  -14.9008   -0.8121  -23.4019 C   0  0  0  0  0  0  0  0  0  0  0  0
   -8.7876    5.1204  -18.2297 O   0  0  0  0  0  0  0  0  0  0  0  0
  -13.6087   -1.3401  -23.0568 C   0  0  0  0  0  0  0  0  0  0  0  0
  -14.9939    3.2624  -22.3226 C   0  0  0  0  0  0  0  0  0  0  0  0
   -9.2794    6.6615  -19.7524 O   0  0  0  0  0  0  0  0  0  0  0  0
  -11.2751    4.7268  -20.5848 C   0  0  0  0  0  0  0  0  0  0  0  0
  -16.1725    2.6779  -22.9136 C   0  0  0  0  0  0  0  0  0  0  0  0
  -12.5104    4.2190  -21.1139 C   0  0  0  0  0  0  0  0  0  0  0  0
  -18.5807    2.7809  -23.4481 C   0  0  0  0  0  0  0  0  0  0  0  0
  -12.6735    2.9708  -21.6626 C   0  0  0  0  0  0  0  0  0  0  0  0
  -12.8081    0.2139  -22.5849 N   0  0  0  0  0  0  0  0  0  0  0  0
   -9.8356    4.3046  -20.3302 C   0  0  0  0  0  0  0  0  0  0  0  0
  -13.6820    5.0024  -21.1327 C   0  0  0  0  0  0  0  0  0  0  0  0
   -9.6971    3.0749  -19.6538 O   0  0  0  0  0  0  0  0  0  0  0  0
  -18.6473    1.4477  -23.7647 C   0  0  0  0  0  0  0  0  0  0  0  0
  -15.0729   -3.0614  -23.7968 N   0  0  0  0  0  0  0  0  0  0  0  0
  -16.2350    1.3018  -23.3059 C   0  0  0  0  0  0  0  0  0  0  0  0
  -14.8677    4.5424  -21.7403 C   0  0  0  0  0  0  0  0  0  0  0  0
  -13.8765    1.1380  -22.6593 C   0  0  0  0  0  0  0  0  0  0  0  0
  -12.3746   -0.9503  -22.6560 C   0  0  0  0  0  0  0  0  0  0  0  0
  -13.8209   -2.8273  -23.2986 C   0  0  0  0  0  0  0  0  0  0  0  0
  -17.4376    0.6791  -23.7716 C   0  0  0  0  0  0  0  0  0  0  0  0
  -20.1746    0.6688  -24.1057 Cl  0  0  0  0  0  0  0  0  0  0  0  0
  -15.0547    0.5535  -23.1779 C   0  0  0  0  0  0  0  0  0  0  0  0
  -16.9899   -1.7424  -24.3547 C   0  0  0  0  0  0  0  0  0  0  0  0
  1 18  1  0
  2 10  2  0
  2 16  1  0
  2 25  1  0
  3 13  2  0
  3 15  1  0
  4 28  1  0
  4 31  2  0
  5  7  1  0
  5 22  1  0
  5 31  1  0
  6  8  2  0
  6 11  1  0
  6 18  1  0
  7  9  2  0
  7 30  1  0
  9 26  1  0
  9 27  1  0
 10 13  1  0
 10 24  1  0
 12 14  1  0
 12 18  1  0
 13 23  1  0
 14 16  2  0
 14 19  1  0
 15 21  2  0
 17 25  1  0
 17 26  1  0
 18 20  1  0
 19 24  2  0
 21 28  1  0
 21 29  1  0
 22 27  1  0
 23 28  2  0
 23 30  1  0
 25 30  2  0
M  END
>  <ID>  (1) 
conformer_0

$$$$
