
     RDKit          3D

 22 23  0  0  0  0  0  0  0  0999 V2000
  -16.2402    4.2007  -23.3932 C   0  0  0  0  0  0  0  0  0  0  0  0
  -16.3184   -1.6206  -23.8075 N   0  0  0  0  0  0  0  0  0  0  0  0
  -15.2800    4.7319  -22.5125 C   0  0  0  0  0  0  0  0  0  0  0  0
  -13.4526    4.3352  -20.8119 C   0  0  0  0  0  0  0  0  0  0  0  0
  -12.0767    4.6066  -20.9157 C   0  0  0  0  0  0  0  0  0  0  0  0
  -14.3685    3.8544  -21.9069 C   0  0  0  0  0  0  0  0  0  0  0  0
  -11.2319    3.5149  -20.3825 O   0  0  0  0  0  0  0  0  0  0  0  0
   -9.3412    5.0243  -20.6066 C   0  0  0  0  0  0  0  0  0  0  0  0
  -13.3009   -1.1507  -23.1954 C   0  0  0  0  0  0  0  0  0  0  0  0
  -11.8440   -1.0132  -23.1191 C   0  0  0  0  0  0  0  0  0  0  0  0
   -9.9932    3.9291  -19.8278 C   0  0  0  0  0  0  0  0  0  0  0  0
  -14.4372    2.5370  -22.2333 C   0  0  0  0  0  0  0  0  0  0  0  0
  -14.0517   -0.0439  -23.1615 C   0  0  0  0  0  0  0  0  0  0  0  0
  -15.2703    0.5257  -23.3391 C   0  0  0  0  0  0  0  0  0  0  0  0
  -11.2543   -1.8493  -22.1438 O   0  0  0  0  0  0  0  0  0  0  0  0
  -16.2885    2.8186  -23.6647 C   0  0  0  0  0  0  0  0  0  0  0  0
   -9.2147    4.6839  -21.9900 O   0  0  0  0  0  0  0  0  0  0  0  0
  -15.3039   -2.5118  -23.6852 C   0  0  0  0  0  0  0  0  0  0  0  0
  -16.3976   -0.2689  -23.6995 C   0  0  0  0  0  0  0  0  0  0  0  0
   -9.4085    3.0611  -19.1253 O   0  0  0  0  0  0  0  0  0  0  0  0
  -15.3512    1.9701  -23.0859 C   0  0  0  0  0  0  0  0  0  0  0  0
  -13.9557   -2.4141  -23.4022 C   0  0  0  0  0  0  0  0  0  0  0  0
  1  3  2  0
  1 16  1  0
  2 18  2  0
  2 19  1  0
  3  6  1  0
  4  5  1  0
  4  6  1  0
  5  7  1  0
  6 12  2  0
  7 11  1  0
  8 11  1  0
  8 17  1  0
  9 10  1  0
  9 13  2  0
  9 22  1  0
 10 15  1  0
 11 20  2  0
 12 21  1  0
 13 14  1  0
 14 19  2  0
 14 21  1  0
 16 21  2  0
 18 22  1  0
M  END
>  <ID>  (1) 
conformer_0

$$$$
