
     RDKit          3D

 31 34  0  0  0  0  0  0  0  0999 V2000
  -17.7185   -0.7167  -24.3762 N   0  0  0  0  0  0  0  0  0  0  0  0
  -14.1676    3.6169  -21.8206 C   0  0  0  0  0  0  0  0  0  0  0  0
  -12.7972   -0.7724  -22.7339 C   0  0  0  0  0  0  0  0  0  0  0  0
  -10.0629   -2.9199  -21.5299 C   0  0  0  0  0  0  0  0  0  0  0  0
  -12.5887   -2.2148  -22.6386 C   0  0  0  0  0  0  0  0  0  0  0  0
  -14.5858    2.2320  -21.8971 O   0  0  0  0  0  0  0  0  0  0  0  0
   -9.6691    4.2298  -19.2869 O   0  0  0  0  0  1  0  0  0  0  0  0
  -10.5652    6.6453  -19.3929 O   0  0  0  0  0  0  0  0  0  0  0  0
   -8.9315   -1.0000  -22.2949 O   0  0  0  0  0  0  0  0  0  0  0  0
  -11.0279    4.7938  -22.3673 O   0  0  0  0  0  0  0  0  0  0  0  0
  -11.3752   -2.4713  -22.1806 N   0  0  0  0  0  0  0  0  0  0  0  0
  -11.6977    4.6584  -21.0680 C   0  0  0  0  0  0  0  0  0  0  0  0
   -8.7544    5.8931  -20.9748 O   0  0  0  0  0  0  0  0  0  0  0  0
  -16.9269    2.7485  -22.1741 O   0  0  0  0  0  0  0  0  0  0  0  0
  -13.6712   -3.0718  -23.1735 C   0  0  0  0  0  0  0  0  0  0  0  0
  -15.2040   -0.3359  -23.3256 C   0  0  0  0  0  0  0  0  0  0  0  0
   -7.6359   -2.3693  -21.0084 C   0  0  0  0  0  0  0  0  0  0  0  0
  -15.4525    4.3500  -22.1480 C   0  0  0  0  0  0  0  0  0  0  0  0
  -16.9534   -1.7862  -24.2927 N   0  0  0  0  0  0  0  0  0  0  0  0
  -16.5150    3.7440  -21.1725 C   0  0  0  0  0  0  0  0  0  0  0  0
  -16.1307    0.7520  -23.3349 C   0  0  0  0  0  0  0  0  0  0  0  0
   -9.9255    5.4636  -20.0283 P   0  0  0  0  0  4  0  0  0  0  0  0
  -13.9630   -0.2441  -22.9206 N   0  0  0  0  0  0  0  0  0  0  0  0
  -17.3299    0.5461  -23.9049 C   0  0  0  0  0  0  0  0  0  0  0  0
  -12.7321    3.5600  -21.3254 C   0  0  0  0  0  0  0  0  0  0  0  0
  -15.7487    2.0705  -22.6987 C   0  0  0  0  0  0  0  0  0  0  0  0
  -15.6620   -1.6715  -23.7724 C   0  0  0  0  0  0  0  0  0  0  0  0
  -16.0494    3.3117  -23.2843 C   0  0  0  0  0  0  0  0  0  0  0  0
   -8.8243   -2.0237  -21.6368 C   0  0  0  0  0  0  0  0  0  0  0  0
  -11.7692    0.0333  -22.6365 N   0  0  0  0  0  0  0  0  0  0  0  0
  -14.8090   -2.7805  -23.6620 N   0  0  0  0  0  0  0  0  0  0  0  0
  1 19  1  0
  1 24  2  0
  2  6  1  0
  2 18  1  0
  2 25  2  3
  3  5  1  0
  3 23  1  0
  3 30  2  0
  4 11  1  0
  4 29  1  0
  5 11  1  0
  5 15  1  0
  6 26  1  0
  7 22  2  0
  8 22  1  0
  9 29  2  0
 10 12  1  0
 12 22  1  0
 12 25  1  0
 13 22  1  0
 14 20  1  0
 14 26  1  0
 15 31  2  0
 16 21  1  0
 16 23  2  0
 16 27  1  0
 17 29  1  0
 18 20  1  0
 18 28  1  0
 19 27  2  0
 21 24  1  0
 21 26  1  0
 26 28  1  0
 27 31  1  0
M  END
>  <ID>  (1) 
conformer_0

$$$$
