
     RDKit          3D

 19 21  0  0  0  0  0  0  0  0999 V2000
  -10.7173    2.9571  -19.9436 O   0  0  0  0  0  0  0  0  0  0  0  0
  -14.9653    0.2686  -23.2117 C   0  0  0  0  0  0  0  0  0  0  0  0
  -13.5303    0.1694  -22.9481 C   0  0  0  0  0  0  0  0  0  0  0  0
   -9.6697    3.9072  -19.5701 O   0  0  0  0  0  0  0  0  0  0  0  0
  -12.7205    3.4949  -21.2224 C   0  0  0  0  0  0  0  0  0  0  0  0
  -14.9387   -2.1436  -23.5056 N   0  0  0  0  0  0  0  0  0  0  0  0
  -11.3453    3.6174  -21.0143 C   0  0  0  0  0  0  0  0  0  0  0  0
  -13.5104    4.5496  -20.7169 C   0  0  0  0  0  0  0  0  0  0  0  0
  -12.8226    1.3477  -22.5673 O   0  0  0  0  0  0  0  0  0  0  0  0
  -13.6553   -2.2009  -23.3192 C   0  0  0  0  0  0  0  0  0  0  0  0
  -14.7880    2.5565  -22.1775 C   0  0  0  0  0  0  0  0  0  0  0  0
  -14.8818    4.5958  -20.9092 C   0  0  0  0  0  0  0  0  0  0  0  0
  -12.8551   -1.0089  -23.1458 C   0  0  0  0  0  0  0  0  0  0  0  0
  -12.7923   -2.0528  -22.4367 C   0  0  0  0  0  0  0  0  0  0  0  0
  -15.5326    3.6077  -21.6402 C   0  0  0  0  0  0  0  0  0  0  0  0
  -16.8561   -1.1304  -24.0612 O   0  0  0  0  0  0  0  0  0  0  0  0
  -15.6762   -1.0232  -23.6162 C   0  0  0  0  0  0  0  0  0  0  0  0
  -13.3829    2.4987  -21.9670 C   0  0  0  0  0  0  0  0  0  0  0  0
  -15.4908    1.5692  -22.9006 N   0  0  0  0  0  0  0  0  0  0  0  0
  1  4  1  0
  1  7  1  0
  2  3  2  0
  2 17  1  0
  2 19  1  0
  3  9  1  0
  3 13  1  0
  5  7  1  0
  5  8  2  0
  5 18  1  0
  6 10  1  0
  6 17  1  0
  8 12  1  0
  9 18  1  0
 10 14  1  0
 11 15  1  0
 11 18  2  0
 11 19  1  0
 12 15  2  0
 13 14  1  0
 16 17  2  0
M  END
>  <ID>  (1) 
conformer_0

$$$$
