
     RDKit          3D

 17 17  0  0  0  0  0  0  0  0999 V2000
  -13.2743    3.2243  -21.7972 C   0  0  0  0  0  0  0  0  0  0  0  0
  -14.5502   -1.0792  -23.3669 C   0  0  0  0  0  0  0  0  0  0  0  0
  -13.7698   -2.3266  -23.2435 C   0  0  0  0  0  0  0  0  0  0  0  0
  -14.5315    2.4732  -21.9254 C   0  0  0  0  0  0  0  0  0  0  0  0
  -12.6464    3.9096  -20.4826 C   0  0  0  0  0  0  0  0  0  0  0  0
  -14.0559    0.1597  -22.9532 C   0  0  0  0  0  0  0  0  0  0  0  0
  -11.1795    4.2357  -20.7400 C   0  0  0  0  0  0  0  0  0  0  0  0
  -16.4069   -2.3006  -24.2769 O   0  0  0  0  0  0  0  0  0  0  0  0
  -10.0940    3.8643  -19.7940 C   0  0  0  0  0  0  0  0  0  0  0  0
   -9.2119    4.7843  -19.5753 O   0  0  0  0  0  0  0  0  0  0  0  0
  -14.8747    1.2989  -22.7686 C   0  0  0  0  0  0  0  0  0  0  0  0
   -9.9060    2.6737  -19.4121 O   0  0  0  0  0  0  0  0  0  0  0  0
  -16.6586    0.0550  -23.8645 C   0  0  0  0  0  0  0  0  0  0  0  0
  -15.8913   -1.1315  -23.8535 C   0  0  0  0  0  0  0  0  0  0  0  0
  -15.6323    2.8992  -21.0251 C   0  0  0  0  0  0  0  0  0  0  0  0
  -16.1471    1.2193  -23.3373 C   0  0  0  0  0  0  0  0  0  0  0  0
  -12.3552    0.2178  -22.7172 Cl  0  0  0  0  0  0  0  0  0  0  0  0
  1  4  1  0
  1  5  1  0
  2  3  1  0
  2  6  1  0
  2 14  1  0
  4 11  1  0
  4 15  1  0
  5  7  1  0
  6 11  1  0
  6 17  1  0
  7  9  1  0
  8 14  1  0
  9 10  2  0
  9 12  1  0
 11 16  2  0
 13 14  2  0
 13 16  1  0
M  END
>  <ID>  (1) 
conformer_0

$$$$
