
     RDKit          3D

 30 34  0  0  0  0  0  0  0  0999 V2000
  -11.0393    3.2333  -20.1914 O   0  0  0  0  0  0  0  0  0  0  0  0
   -9.3929    5.8192  -20.3067 C   0  0  0  0  0  0  0  0  0  0  0  0
  -17.2691    3.7584  -22.7666 C   0  0  0  0  0  0  0  0  0  0  0  0
  -16.2663   -1.8816  -24.2472 C   0  0  0  0  0  0  0  0  0  0  0  0
   -9.2827    5.2809  -21.7021 C   0  0  0  0  0  0  0  0  0  0  0  0
  -16.6568   -0.5170  -23.8960 C   0  0  0  0  0  0  0  0  0  0  0  0
  -17.0942    2.4364  -23.1520 C   0  0  0  0  0  0  0  0  0  0  0  0
  -13.0124    4.4382  -20.5449 C   0  0  0  0  0  0  0  0  0  0  0  0
  -15.6846    0.3973  -23.3674 C   0  0  0  0  0  0  0  0  0  0  0  0
  -10.8232    5.6167  -19.9309 C   0  0  0  0  0  0  0  0  0  0  0  0
  -14.3575   -0.0782  -23.1031 C   0  0  0  0  0  0  0  0  0  0  0  0
  -16.9969   -2.5715  -24.9642 O   0  0  0  0  0  0  0  0  0  0  0  0
  -12.8297   -1.9176  -22.9391 C   0  0  0  0  0  0  0  0  0  0  0  0
  -13.3143    0.7606  -22.6568 C   0  0  0  0  0  0  0  0  0  0  0  0
   -8.8356    6.9993  -20.0809 O   0  0  0  0  0  0  0  0  0  0  0  0
   -8.3132    4.2385  -21.7315 O   0  0  0  0  0  0  0  0  0  0  0  0
  -12.0043    0.3026  -22.3970 C   0  0  0  0  0  0  0  0  0  0  0  0
  -14.7752    2.5856  -22.5266 C   0  0  0  0  0  0  0  0  0  0  0  0
  -18.0002   -0.2442  -23.9792 N   0  0  0  0  0  0  0  0  0  0  0  0
  -15.8529    1.7961  -23.0265 C   0  0  0  0  0  0  0  0  0  0  0  0
  -13.9051    4.6415  -21.6087 O   0  0  0  0  0  0  0  0  0  0  0  0
  -15.0334   -2.2893  -23.9006 N   0  0  0  0  0  0  0  0  0  0  0  0
  -13.5153    2.0856  -22.4797 O   0  0  0  0  0  0  0  0  0  0  0  0
  -10.6834    4.6178  -22.0689 C   0  0  0  0  0  0  0  0  0  0  0  0
  -11.3304    6.3552  -18.9887 O   0  0  0  0  0  0  0  0  0  0  0  0
  -16.2241    4.5020  -22.2279 C   0  0  0  0  0  0  0  0  0  0  0  0
  -14.9791    3.9282  -22.1047 C   0  0  0  0  0  0  0  0  0  0  0  0
  -14.0991   -1.4493  -23.3089 C   0  0  0  0  0  0  0  0  0  0  0  0
  -11.8322   -1.0687  -22.5107 C   0  0  0  0  0  0  0  0  0  0  0  0
  -11.4712    4.5029  -20.7489 C   0  0  0  0  0  0  0  0  0  0  0  0
  1 30  1  0
  2  5  1  0
  2 10  1  0
  2 15  1  0
  3  7  2  0
  3 26  1  0
  4  6  1  0
  4 12  2  0
  4 22  1  0
  5 16  1  0
  5 24  1  0
  6  9  2  0
  6 19  1  0
  7 20  1  0
  8 21  1  0
  8 30  1  0
  9 11  1  0
  9 20  1  0
 10 25  1  0
 10 30  1  0
 11 14  2  0
 11 28  1  0
 13 28  1  0
 13 29  2  0
 14 17  1  0
 14 23  1  0
 17 29  1  0
 18 20  2  0
 18 23  1  0
 18 27  1  0
 21 27  1  0
 22 28  2  0
 24 30  1  0
 26 27  2  0
M  END
>  <ID>  (1) 
conformer_0

$$$$
