
     RDKit          3D

 25 28  0  0  0  0  0  0  0  0999 V2000
  -15.7055   -0.7190  -23.6800 C   0  0  0  0  0  0  0  0  0  0  0  0
   -8.3452    3.9439  -17.7936 O   0  0  0  0  0  1  0  0  0  0  0  0
  -16.5739    1.3694  -23.5891 C   0  0  0  0  0  0  0  0  0  0  0  0
  -15.3017    3.7220  -22.3052 C   0  0  0  0  0  0  0  0  0  0  0  0
  -14.2370   -2.5990  -23.4830 N   0  0  0  0  0  0  0  0  0  0  0  0
   -9.4794    4.6771  -19.7366 O   0  0  0  0  0  0  0  0  0  0  0  0
  -16.6967    3.7285  -22.9955 C   0  0  0  0  0  0  0  0  0  0  0  0
  -13.3569   -0.3931  -22.9581 C   0  0  0  0  0  0  0  0  0  0  0  0
   -9.4833    2.3537  -19.1427 O   0  0  0  0  0  1  0  0  0  0  0  0
   -9.0178    3.6125  -18.9145 P   0  0  0  0  0  0  0  0  0  0  0  0
  -17.3024    2.5231  -23.6601 O   0  0  0  0  0  0  0  0  0  0  0  0
  -13.2464    2.2332  -22.2235 C   0  0  0  0  0  0  0  0  0  0  0  0
  -15.4797   -2.1206  -23.8646 C   0  0  0  0  0  0  0  0  0  0  0  0
  -10.4523    4.5548  -20.7544 C   0  0  0  0  0  0  0  0  0  0  0  0
  -12.1157    0.2014  -23.0587 N   0  0  0  0  0  0  0  0  0  0  0  0
  -15.2701    1.3837  -23.1302 C   0  0  0  0  0  0  0  0  0  0  0  0
  -11.8551    5.0521  -20.3341 C   0  0  0  0  0  0  0  0  0  0  0  0
  -16.3581   -2.7965  -24.4256 O   0  0  0  0  0  0  0  0  0  0  0  0
  -12.9911    4.1196  -20.7720 C   0  0  0  0  0  0  0  0  0  0  0  0
  -12.3749    3.4021  -21.9965 C   0  0  0  0  0  0  0  0  0  0  0  0
  -14.4401    4.4967  -21.2456 C   0  0  0  0  0  0  0  0  0  0  0  0
  -14.6828    0.1110  -23.2146 C   0  0  0  0  0  0  0  0  0  0  0  0
  -16.9162    0.0454  -23.9405 C   0  0  0  0  0  0  0  0  0  0  0  0
  -13.1961   -1.8281  -22.8365 C   0  0  0  0  0  0  0  0  0  0  0  0
  -14.5887    2.4955  -22.5958 C   0  0  0  0  0  0  0  0  0  0  0  0
  1 13  1  0
  1 22  2  0
  1 23  1  0
  2 10  1  0
  3 11  1  0
  3 16  2  0
  3 23  1  0
  4  7  1  0
  4 21  2  0
  4 25  1  0
  5 13  1  0
  5 24  1  0
  6 10  1  0
  6 14  1  0
  7 11  1  0
  8 15  1  0
  8 22  1  0
  8 24  1  0
  9 10  1  0
 12 20  1  0
 12 25  1  0
 13 18  2  0
 14 17  1  0
 16 22  1  0
 16 25  1  0
 17 19  1  0
 19 20  1  0
 19 21  1  0
M  END
>  <ID>  (1) 
conformer_0

$$$$
