
     RDKit          3D

 14 14  0  0  0  0  0  0  0  0999 V2000
  -13.0486    4.0805  -20.6118 C   0  0  0  0  0  0  0  0  0  0  0  0
  -15.2252    0.8416  -23.0210 C   0  0  0  0  0  0  0  0  0  0  0  0
  -13.9081    0.9302  -22.6215 C   0  0  0  0  0  0  0  0  0  0  0  0
  -11.6600    4.0141  -21.2539 C   0  0  0  0  0  0  0  0  0  0  0  0
  -15.7957   -0.3348  -23.4293 C   0  0  0  0  0  0  0  0  0  0  0  0
  -10.8746    5.5254  -19.6121 O   0  0  0  0  0  0  0  0  0  0  0  0
  -15.0362   -1.5250  -23.4544 C   0  0  0  0  0  0  0  0  0  0  0  0
  -13.1371   -0.2368  -22.6577 C   0  0  0  0  0  0  0  0  0  0  0  0
  -13.9676    3.0820  -21.2622 O   0  0  0  0  0  0  0  0  0  0  0  0
  -10.5678    4.5442  -20.3697 C   0  0  0  0  0  0  0  0  0  0  0  0
  -13.6995   -1.4408  -23.0445 C   0  0  0  0  0  0  0  0  0  0  0  0
  -13.3329    2.1976  -22.2292 C   0  0  0  0  0  0  0  0  0  0  0  0
   -9.4023    4.1292  -20.5017 O   0  0  0  0  0  0  0  0  0  0  0  0
  -15.5682   -2.6850  -23.8441 O   0  0  0  0  0  0  0  0  0  0  0  0
  1  4  1  0
  1  9  1  0
  2  3  2  0
  2  5  1  0
  3  8  1  0
  3 12  1  0
  4 10  1  0
  5  7  2  0
  6 10  2  0
  7 11  1  0
  7 14  1  0
  8 11  2  0
  9 12  1  0
 10 13  1  0
M  END
>  <ID>  (1) 
conformer_0

$$$$
