
     RDKit          3D

 33 36  0  0  0  0  0  0  0  0999 V2000
   -9.6933    3.3987  -19.5978 O   0  0  0  0  0  0  0  0  0  0  0  0
  -15.1012   -2.1213  -23.6257 N   0  0  0  0  0  0  0  0  0  0  0  0
  -13.2489    4.7801  -22.0247 O   0  0  0  0  0  0  0  0  0  0  0  0
  -11.4671   -1.3212  -22.8311 C   0  0  0  0  0  0  0  0  0  0  0  0
  -13.8451    4.2542  -20.7154 C   0  0  0  0  0  0  0  0  0  0  0  0
  -15.3556    3.9611  -21.0102 C   0  0  0  0  0  0  0  0  0  0  0  0
  -13.8782   -1.7463  -23.1445 C   0  0  0  0  0  0  0  0  0  0  0  0
  -16.0079    0.2290  -23.5518 C   0  0  0  0  0  0  0  0  0  0  0  0
  -14.4645    5.1619  -22.8484 C   0  0  0  0  0  0  0  0  0  0  0  0
  -11.2988    5.0498  -20.6643 O   0  0  0  0  0  0  0  0  0  0  0  0
  -17.4997    3.6624  -23.1887 C   0  0  0  0  0  0  0  0  0  0  0  0
  -18.3301   -1.1212  -24.6199 C   0  0  0  0  0  0  0  0  0  0  0  0
  -16.6251    2.5320  -22.9224 C   0  0  0  0  0  0  0  0  0  0  0  0
  -17.7484    5.9622  -22.5646 O   0  0  0  0  0  0  0  0  0  0  0  0
  -12.1482   -0.0713  -23.3133 C   0  0  0  0  0  0  0  0  0  0  0  0
  -16.9810    1.3114  -23.4992 C   0  0  0  0  0  0  0  0  0  0  0  0
   -9.1771    6.5734  -20.7402 O   0  0  0  0  0  0  0  0  0  0  0  0
  -15.7265    4.9827  -22.0889 N   0  0  0  0  0  0  0  0  0  0  0  0
  -11.7928    4.5453  -21.9263 C   0  0  0  0  0  0  0  0  0  0  0  0
  -14.6135    0.5661  -23.3228 C   0  0  0  0  0  0  0  0  0  0  0  0
  -18.2567    1.2207  -23.9859 C   0  0  0  0  0  0  0  0  0  0  0  0
   -8.7899    5.3591  -18.7274 O   0  0  0  0  0  0  0  0  0  0  0  0
  -17.2705   -1.7557  -24.3699 N   0  0  0  0  0  0  0  0  0  0  0  0
  -13.5758   -0.3409  -23.2657 C   0  0  0  0  0  0  0  0  0  0  0  0
  -17.0608    4.9103  -22.5897 C   0  0  0  0  0  0  0  0  0  0  0  0
   -9.3581    4.9730  -20.2412 P   0  0  0  0  0  5  0  0  0  0  0  0
  -16.1329   -1.2127  -23.8405 C   0  0  0  0  0  0  0  0  0  0  0  0
  -15.7815    2.6604  -21.6906 C   0  0  0  0  0  0  0  0  0  0  0  0
  -18.8332    0.1199  -24.5025 C   0  0  0  0  0  0  0  0  0  0  0  0
  -12.1814    5.8756  -19.9046 C   0  0  0  0  0  0  0  0  0  0  0  0
  -12.5876   -2.4245  -22.6986 C   0  0  0  0  0  0  0  0  0  0  0  0
   -8.4998    4.3790  -21.5191 O   0  0  0  0  0  0  0  0  0  0  0  0
  -13.6896    5.5922  -19.8714 C   0  0  0  0  0  0  0  0  0  0  0  0
  1 26  1  0
  2  7  1  0
  2 27  2  0
  3  9  1  0
  3 19  1  0
  4 15  1  0
  4 31  1  0
  5  6  1  0
  5 33  1  0
  6 18  1  0
  6 28  1  0
  7 24  1  0
  7 31  1  0
  8 16  1  0
  8 20  1  0
  8 27  1  0
  9 18  1  0
 10 26  1  0
 10 30  1  0
 11 13  1  0
 11 25  1  0
 12 23  2  0
 12 29  1  0
 13 16  1  0
 13 28  1  0
 14 25  2  0
 15 24  1  0
 16 21  1  0
 17 26  1  0
 18 25  1  0
 20 24  2  0
 21 29  2  0
 22 26  1  0
 23 27  1  0
 26 32  1  0
 30 33  1  0
M  END
>  <ID>  (1) 
conformer_0

$$$$
