
     RDKit          3D

 26 28  0  0  0  0  0  0  0  0999 V2000
  -15.5245   -0.2468  -23.4928 C   0  0  0  0  0  0  0  0  0  0  0  0
  -14.0351    1.4268  -22.6962 C   0  0  0  0  0  0  0  0  0  0  0  0
   -9.3525    4.2813  -19.0168 O   0  0  0  0  0  1  0  0  0  0  0  0
  -17.3493   -1.3578  -24.4942 O   0  0  0  0  0  0  0  0  0  0  0  0
  -17.4245    1.2532  -23.7816 O   0  0  0  0  0  0  0  0  0  0  0  0
  -15.3703    2.1578  -23.0155 C   0  0  0  0  0  0  0  0  0  0  0  0
  -16.4375    3.3433  -21.1112 C   0  0  0  0  0  0  0  0  0  0  0  0
  -14.2187    0.0116  -22.9980 C   0  0  0  0  0  0  0  0  0  0  0  0
  -13.1854   -0.9364  -22.8032 C   0  0  0  0  0  0  0  0  0  0  0  0
  -16.1648   -1.4570  -23.9929 C   0  0  0  0  0  0  0  0  0  0  0  0
  -15.6266   -2.6844  -23.9573 N   0  0  0  0  0  0  0  0  0  0  0  0
  -16.2701    1.0583  -23.4649 C   0  0  0  0  0  0  0  0  0  0  0  0
  -14.3817   -3.0117  -23.5669 C   0  0  0  0  0  0  0  0  0  0  0  0
  -11.0635    5.0568  -20.6624 O   0  0  0  0  0  0  0  0  0  0  0  0
  -12.4976    3.3904  -21.7552 C   0  0  0  0  0  0  0  0  0  0  0  0
   -8.6893    4.4870  -21.4492 O   0  0  0  0  0  0  0  0  0  0  0  0
  -14.4044    5.0269  -22.5863 C   0  0  0  0  0  0  0  0  0  0  0  0
   -9.1392    6.5660  -20.1113 O   0  0  0  0  0  0  0  0  0  0  0  0
  -13.3717   -2.2966  -23.0852 C   0  0  0  0  0  0  0  0  0  0  0  0
  -12.0576   -0.5240  -22.3987 O   0  0  0  0  0  0  0  0  0  0  0  0
   -9.4712    5.1031  -20.3014 P   0  0  0  0  0  4  0  0  0  0  0  0
  -13.8805    3.9432  -21.5934 C   0  0  0  0  0  0  0  0  0  0  0  0
  -14.9331    3.4914  -20.6704 N   0  0  0  0  0  0  0  0  0  0  0  0
  -15.8912    4.7764  -22.9928 C   0  0  0  0  0  0  0  0  0  0  0  0
  -11.4372    4.4871  -21.9487 C   0  0  0  0  0  0  0  0  0  0  0  0
  -16.3373    3.3409  -22.6882 C   0  0  0  0  0  0  0  0  0  0  0  0
  1  8  2  0
  1 10  1  0
  1 12  1  0
  2  6  1  0
  2  8  1  0
  3 21  2  0
  4 10  2  0
  5 12  2  0
  6 12  1  0
  6 26  1  0
  7 23  1  0
  7 26  1  0
  8  9  1  0
  9 19  1  0
  9 20  2  0
 10 11  1  0
 11 13  2  0
 13 19  1  0
 14 21  1  0
 14 25  1  0
 15 22  1  0
 15 25  1  0
 16 21  1  0
 17 22  1  0
 17 24  1  0
 18 21  1  0
 22 23  1  0
 24 26  1  0
M  END
>  <ID>  (1) 
conformer_0

$$$$
