
     RDKit          3D

 28 30  0  0  0  0  0  0  0  0999 V2000
  -14.7016   -1.0888  -23.4032 C   0  0  0  0  0  0  0  0  0  0  0  0
  -13.9978    0.0023  -23.1021 N   0  0  0  0  0  0  0  0  0  0  0  0
  -17.3758    3.6182  -22.6690 C   0  0  0  0  0  0  0  0  0  0  0  0
  -17.2713    1.0464  -23.6916 C   0  0  0  0  0  0  0  0  0  0  0  0
  -16.2474    1.6152  -23.0878 C   0  0  0  0  0  0  0  0  0  0  0  0
  -10.9076    4.2437  -20.6690 C   0  0  0  0  0  0  0  0  0  0  0  0
  -12.0288   -1.0946  -22.4541 N   0  0  0  0  0  0  0  0  0  0  0  0
  -13.9872   -2.2777  -23.2034 C   0  0  0  0  0  0  0  0  0  0  0  0
  -13.3272    4.7411  -20.6203 C   0  0  0  0  0  0  0  0  0  0  0  0
  -12.2306    3.8216  -21.0684 C   0  0  0  0  0  0  0  0  0  0  0  0
  -13.9078    2.3743  -22.0152 N   0  0  0  0  0  0  0  0  0  0  0  0
  -12.5659    2.9031  -22.1097 C   0  0  0  0  0  0  0  0  0  0  0  0
  -14.5196    4.6318  -21.5783 C   0  0  0  0  0  0  0  0  0  0  0  0
  -16.1020   -1.2077  -23.9315 C   0  0  0  0  0  0  0  0  0  0  0  0
  -17.2068   -0.3272  -24.1510 C   0  0  0  0  0  0  0  0  0  0  0  0
   -8.3214    5.6549  -20.6295 O   0  0  0  0  0  1  0  0  0  0  0  0
  -15.0277    3.2666  -21.7328 C   0  0  0  0  0  0  0  0  0  0  0  0
  -16.4053   -2.4090  -24.3127 N   0  0  0  0  0  0  0  0  0  0  0  0
   -9.0514    5.2596  -18.2948 O   0  0  0  0  0  0  0  0  0  0  0  0
   -9.2882    7.4966  -19.2668 O   0  0  0  0  0  0  0  0  0  0  0  0
  -10.7959    5.5887  -20.0787 O   0  0  0  0  0  0  0  0  0  0  0  0
  -12.7506    0.0166  -22.6933 C   0  0  0  0  0  0  0  0  0  0  0  0
  -18.3957    1.7846  -23.8434 C   0  0  0  0  0  0  0  0  0  0  0  0
  -18.3129   -0.7816  -24.8837 O   0  0  0  0  0  0  0  0  0  0  0  0
  -12.7333   -2.2543  -22.7300 N   0  0  0  0  0  0  0  0  0  0  0  0
  -16.2278    2.8357  -22.5250 C   0  0  0  0  0  0  0  0  0  0  0  0
  -18.4791    3.0729  -23.3478 C   0  0  0  0  0  0  0  0  0  0  0  0
   -9.2974    6.0299  -19.5482 P   0  0  0  0  0  4  0  0  0  0  0  0
  1  2  1  0
  1  8  2  0
  1 14  1  0
  2 22  2  0
  3 26  2  0
  3 27  1  0
  4  5  2  0
  4 15  1  0
  4 23  1  0
  5 26  1  0
  6 10  1  0
  6 21  1  0
  7 22  1  0
  7 25  1  0
  8 25  1  0
  9 10  1  0
  9 13  1  0
 10 12  1  0
 11 12  1  0
 11 17  1  0
 13 17  1  0
 14 15  1  0
 14 18  2  0
 15 24  1  0
 16 28  2  0
 17 26  1  0
 19 28  1  0
 20 28  1  0
 21 28  1  0
 23 27  2  0
M  END
>  <ID>  (1) 
conformer_0

$$$$
