
     RDKit          3D

 24 25  0  0  0  0  0  0  0  0999 V2000
  -13.7179    2.5154  -21.8684 N   0  0  0  0  0  0  0  0  0  0  0  0
  -12.2046   -0.2091  -22.7580 C   0  0  0  0  0  0  0  0  0  0  0  0
  -12.4786   -2.5715  -22.6689 C   0  0  0  0  0  0  0  0  0  0  0  0
  -14.3692   -1.2634  -23.3155 C   0  0  0  0  0  0  0  0  0  0  0  0
  -11.6220   -1.4244  -22.5028 C   0  0  0  0  0  0  0  0  0  0  0  0
   -9.5793    3.6844  -19.2646 O   0  0  0  0  0  0  0  0  0  0  0  0
  -16.7095    0.7774  -23.6765 C   0  0  0  0  0  0  0  0  0  0  0  0
  -12.7099    4.6729  -20.9470 C   0  0  0  0  0  0  0  0  0  0  0  0
  -15.6513    1.4239  -23.1834 C   0  0  0  0  0  0  0  0  0  0  0  0
  -10.2466    4.2126  -20.2108 C   0  0  0  0  0  0  0  0  0  0  0  0
  -11.7370    3.8613  -20.1696 C   0  0  0  0  0  0  0  0  0  0  0  0
  -13.7736   -2.4482  -23.0369 C   0  0  0  0  0  0  0  0  0  0  0  0
  -10.2676   -1.6345  -22.1798 C   0  0  0  0  0  0  0  0  0  0  0  0
  -13.5051   -0.1906  -23.0992 C   0  0  0  0  0  0  0  0  0  0  0  0
  -18.1575    2.7906  -23.2929 C   0  0  0  0  0  0  0  0  0  0  0  0
  -18.0497    1.5061  -23.8816 C   0  0  0  0  0  0  0  0  0  0  0  0
   -9.7242    4.5900  -21.2635 O   0  0  0  0  0  0  0  0  0  0  0  0
   -9.2735   -1.0477  -21.5843 N   0  0  0  0  0  0  0  0  0  0  0  0
  -15.0561    3.9701  -22.5263 N   0  0  0  0  0  0  0  0  0  0  0  0
  -15.6663   -1.3780  -23.7940 N   0  0  0  0  0  0  0  0  0  0  0  0
  -17.8532   -1.1601  -24.5782 N   0  0  0  0  0  0  0  0  0  0  0  0
  -16.7389   -0.6580  -24.0314 C   0  0  0  0  0  0  0  0  0  0  0  0
  -13.7262    3.8638  -21.6763 C   0  0  0  0  0  0  0  0  0  0  0  0
  -14.8301    2.2975  -22.6304 C   0  0  0  0  0  0  0  0  0  0  0  0
  1 23  2  0
  1 24  1  0
  2  5  2  0
  2 14  1  0
  3  5  1  0
  3 12  2  0
  4 12  1  0
  4 14  2  0
  4 20  1  0
  5 13  1  0
  6 10  2  0
  7  9  2  0
  7 16  1  0
  7 22  1  0
  8 11  1  0
  8 23  1  0
  9 24  2  0
 10 11  1  0
 10 17  1  0
 13 18  2  0
 15 16  1  0
 19 23  1  0
 19 24  1  0
 20 22  1  0
 21 22  2  0
M  END
>  <ID>  (1) 
conformer_0

$$$$
