
     RDKit          3D

 16 16  0  0  0  0  0  0  0  0999 V2000
  -14.6634   -1.7995  -23.3148 C   0  0  0  0  0  0  0  0  0  0  0  0
  -11.6273    4.0945  -20.4586 C   0  0  0  0  0  0  0  0  0  0  0  0
   -9.5692    3.9434  -19.2564 O   0  0  0  0  0  0  0  0  0  0  0  0
  -12.6745    1.2037  -22.4277 Cl  0  0  0  0  0  0  0  0  0  0  0  0
  -10.1313    4.2835  -20.3569 C   0  0  0  0  0  0  0  0  0  0  0  0
  -16.8243   -0.1988  -24.0246 N   0  0  0  0  0  0  0  0  0  0  0  0
  -15.1518    1.3083  -23.0057 C   0  0  0  0  0  0  0  0  0  0  0  0
  -12.5195    3.8642  -21.6162 C   0  0  0  0  0  0  0  0  0  0  0  0
  -16.7882   -1.5921  -24.2235 C   0  0  0  0  0  0  0  0  0  0  0  0
   -9.3792    4.5225  -21.3639 O   0  0  0  0  0  0  0  0  0  0  0  0
  -14.0642    1.8925  -22.4558 C   0  0  0  0  0  0  0  0  0  0  0  0
  -15.7308   -2.4373  -23.8413 N   0  0  0  0  0  0  0  0  0  0  0  0
  -14.1218    3.3389  -21.8048 C   0  0  0  0  0  0  0  0  0  0  0  0
  -14.7596   -0.4083  -23.1457 C   0  0  0  0  0  0  0  0  0  0  0  0
  -15.6907    0.3247  -23.4317 C   0  0  0  0  0  0  0  0  0  0  0  0
  -13.3301   -2.4704  -22.8587 C   0  0  0  0  0  0  0  0  0  0  0  0
  1 12  1  0
  1 14  2  0
  1 16  1  0
  2  5  1  0
  2  8  2  3
  3  5  2  0
  4 11  1  0
  5 10  1  0
  6  9  1  0
  6 15  1  0
  7 11  1  0
  7 15  2  3
  8 13  1  0
  9 12  1  0
 11 13  1  0
 14 15  1  0
M  END
>  <ID>  (1) 
conformer_0

$$$$
