
     RDKit          3D

 18 19  0  0  0  0  0  0  0  0999 V2000
  -14.3361    1.7355  -22.3277 C   0  0  0  0  0  0  0  0  0  0  0  0
  -12.2308    4.3275  -20.6492 C   0  0  0  0  0  0  0  0  0  0  0  0
  -14.6682    4.3601  -21.3009 C   0  0  0  0  0  0  0  0  0  0  0  0
  -12.9668   -0.4479  -22.7813 C   0  0  0  0  0  0  0  0  0  0  0  0
  -15.2690   -0.4631  -23.1738 C   0  0  0  0  0  0  0  0  0  0  0  0
  -14.8724   -1.7895  -23.4829 C   0  0  0  0  0  0  0  0  0  0  0  0
  -13.2748    2.4857  -21.9392 C   0  0  0  0  0  0  0  0  0  0  0  0
  -15.7177   -2.8226  -23.9735 O   0  0  0  0  0  0  0  0  0  0  0  0
  -13.4197    3.6944  -21.3594 C   0  0  0  0  0  0  0  0  0  0  0  0
  -10.5077    4.2734  -20.3985 P   0  0  0  0  0  4  0  0  0  0  0  0
  -16.9971   -2.1080  -24.4726 O   0  0  0  0  0  0  0  0  0  0  0  0
  -15.6204    2.3583  -22.2813 C   0  0  0  0  0  0  0  0  0  0  0  0
   -9.9883    5.4366  -19.4163 O   0  0  0  0  0  1  0  0  0  0  0  0
  -14.2059    0.3596  -22.7514 C   0  0  0  0  0  0  0  0  0  0  0  0
  -15.7941    3.6276  -21.7771 C   0  0  0  0  0  0  0  0  0  0  0  0
   -9.8493    4.5196  -21.7891 O   0  0  0  0  0  0  0  0  0  0  0  0
  -10.1320    2.9115  -19.6665 O   0  0  0  0  0  0  0  0  0  0  0  0
  -13.3853   -1.9129  -23.2296 C   0  0  0  0  0  0  0  0  0  0  0  0
  1  7  2  0
  1 12  1  0
  1 14  1  0
  2  9  1  0
  2 10  1  0
  3  9  2  0
  3 15  1  0
  4 14  1  0
  4 18  1  0
  5  6  1  0
  5 14  1  0
  6  8  1  0
  6 18  1  0
  7  9  1  0
  8 11  1  0
 10 13  2  0
 10 16  1  0
 10 17  1  0
 12 15  2  0
M  END
>  <ID>  (1) 
conformer_0

$$$$
