
     RDKit          3D

 28 31  0  0  0  0  0  0  0  0999 V2000
  -13.6318   -0.4922  -23.2976 C   0  0  0  0  0  0  0  0  0  0  0  0
  -13.6158    3.8152  -21.4319 C   0  0  0  0  0  0  0  0  0  0  0  0
  -14.3469    1.9531  -22.7594 N   0  0  0  0  0  0  0  0  0  0  0  0
  -12.6381    0.2673  -23.4610 O   0  0  0  0  0  0  0  0  0  0  0  0
  -18.4961   -0.4944  -24.7227 N   0  0  0  0  0  0  0  0  0  0  0  0
   -9.0312    4.9656  -18.8433 O   0  0  0  0  0  1  0  0  0  0  0  0
  -13.3163   -1.8784  -23.0572 C   0  0  0  0  0  0  0  0  0  0  0  0
  -17.3222   -0.7215  -24.2152 C   0  0  0  0  0  0  0  0  0  0  0  0
  -14.9096    4.0085  -21.0247 N   0  0  0  0  0  0  0  0  0  0  0  0
  -18.0132    2.1882  -23.1415 C   0  0  0  0  0  0  0  0  0  0  0  0
  -11.4823    4.6581  -21.9873 C   0  0  0  0  0  0  0  0  0  0  0  0
   -9.6211    4.1032  -19.9829 P   0  0  0  0  0  4  0  0  0  0  0  0
  -12.1003   -2.3865  -22.5372 C   0  0  0  0  0  0  0  0  0  0  0  0
  -15.9540    3.4245  -21.7352 C   0  0  0  0  0  0  0  0  0  0  0  0
  -16.7579    1.5795  -23.1620 C   0  0  0  0  0  0  0  0  0  0  0  0
  -18.2818    3.3315  -22.3409 C   0  0  0  0  0  0  0  0  0  0  0  0
   -8.6919    4.2356  -21.2321 O   0  0  0  0  0  0  0  0  0  0  0  0
  -16.4245    0.2627  -23.6770 C   0  0  0  0  0  0  0  0  0  0  0  0
  -16.7135   -1.9240  -24.2262 N   0  0  0  0  0  0  0  0  0  0  0  0
  -14.4498   -2.6874  -23.4489 C   0  0  0  0  0  0  0  0  0  0  0  0
  -17.2530    3.9248  -21.6011 C   0  0  0  0  0  0  0  0  0  0  0  0
  -15.5062   -1.8783  -23.7869 C   0  0  0  0  0  0  0  0  0  0  0  0
  -15.6769    2.3076  -22.5552 C   0  0  0  0  0  0  0  0  0  0  0  0
   -9.8146    2.6351  -19.4668 O   0  0  0  0  0  0  0  0  0  0  0  0
  -11.2007    4.7308  -20.4599 C   0  0  0  0  0  0  0  0  0  0  0  0
  -13.3160    2.6684  -22.2586 C   0  0  0  0  0  0  0  0  0  0  0  0
  -15.1234   -0.4478  -23.5468 C   0  0  0  0  0  0  0  0  0  0  0  0
  -12.9462    4.9546  -22.0084 O   0  0  0  0  0  0  0  0  0  0  0  0
  1  4  2  0
  1  7  1  0
  1 27  1  0
  2  9  1  0
  2 26  1  0
  2 28  1  0
  3 23  1  0
  3 26  2  0
  5  8  2  0
  6 12  2  0
  7 13  1  0
  7 20  1  0
  8 18  1  0
  8 19  1  0
  9 14  1  0
 10 15  2  0
 10 16  1  0
 11 25  1  0
 11 28  1  0
 12 17  1  0
 12 24  1  0
 12 25  1  0
 14 21  1  0
 14 23  2  0
 15 18  1  0
 15 23  1  0
 16 21  2  0
 18 27  1  0
 19 22  1  0
 20 22  1  0
 22 27  2  0
M  END
>  <ID>  (1) 
conformer_0

$$$$
