
     RDKit          3D

 27 29  0  0  0  0  0  0  0  0999 V2000
   -9.5250    3.6114  -19.3427 O   0  0  0  0  0  1  0  0  0  0  0  0
  -13.5386    3.4760  -21.6818 C   0  0  0  0  0  0  0  0  0  0  0  0
  -13.5178   -2.5330  -23.3464 F   0  0  0  0  0  0  0  0  0  0  0  0
  -15.7189   -1.4428  -23.7414 C   0  0  0  0  0  0  0  0  0  0  0  0
  -13.3494    6.1358  -19.8699 C   0  0  0  0  0  0  0  0  0  0  0  0
  -13.7499   -0.0962  -23.0193 C   0  0  0  0  0  0  0  0  0  0  0  0
  -12.2255   -1.0095  -24.4985 F   0  0  0  0  0  0  0  0  0  0  0  0
  -12.2362    3.6843  -21.3233 C   0  0  0  0  0  0  0  0  0  0  0  0
  -16.1329    3.6560  -23.7241 S   0  0  0  0  0  0  0  0  0  0  0  0
  -13.9984    2.2681  -22.4217 C   0  0  0  0  0  0  0  0  0  0  0  0
  -17.7980   -0.3209  -24.2219 C   0  0  0  0  0  0  0  0  0  0  0  0
  -14.3766    5.5650  -20.5670 C   0  0  0  0  0  0  0  0  0  0  0  0
  -14.9925   -2.5943  -23.6550 O   0  0  0  0  0  0  0  0  0  0  0  0
  -12.0665    5.6739  -19.8811 C   0  0  0  0  0  0  0  0  0  0  0  0
   -9.0867    4.3555  -21.7831 O   0  0  0  0  0  0  0  0  0  0  0  0
   -9.7820    4.6262  -20.5013 P   0  0  0  0  0  4  0  0  0  0  0  0
  -15.2390    2.1747  -23.1204 C   0  0  0  0  0  0  0  0  0  0  0  0
  -12.7661   -1.2268  -23.2873 C   0  0  0  0  0  0  0  0  0  0  0  0
  -17.0554   -1.5027  -24.1473 C   0  0  0  0  0  0  0  0  0  0  0  0
  -17.2147    0.8839  -23.8725 C   0  0  0  0  0  0  0  0  0  0  0  0
  -11.8002   -1.3244  -22.3724 F   0  0  0  0  0  0  0  0  0  0  0  0
  -14.5047    4.4712  -21.3020 C   0  0  0  0  0  0  0  0  0  0  0  0
  -15.0993   -0.2099  -23.4045 C   0  0  0  0  0  0  0  0  0  0  0  0
  -11.5802    4.6242  -20.6246 C   0  0  0  0  0  0  0  0  0  0  0  0
  -15.8682    0.9485  -23.4627 C   0  0  0  0  0  0  0  0  0  0  0  0
  -13.2251    1.0902  -22.4796 O   0  0  0  0  0  0  0  0  0  0  0  0
   -9.3456    6.0543  -20.0542 O   0  0  0  0  0  0  0  0  0  0  0  0
  1 16  2  0
  2  8  1  0
  2 10  1  0
  2 22  1  0
  3 18  1  0
  4 13  1  0
  4 19  2  0
  4 23  1  0
  5 12  1  0
  5 14  2  0
  6 18  1  0
  6 23  1  0
  6 26  1  0
  7 18  1  0
  8 24  2  0
  9 17  1  0
 10 17  1  0
 10 26  1  0
 11 19  1  0
 11 20  2  0
 12 22  2  0
 14 24  1  0
 15 16  1  0
 16 24  1  0
 16 27  1  0
 17 25  1  0
 18 21  1  0
 20 25  1  0
 23 25  2  0
M  END
>  <ID>  (1) 
conformer_0

$$$$
