
     RDKit          3D

 19 20  0  0  0  0  0  0  0  0999 V2000
  -11.5482    4.5224  -20.4333 C   0  0  0  0  0  0  0  0  0  0  0  0
  -13.7967    5.4686  -20.8503 C   0  0  0  0  0  0  0  0  0  0  0  0
  -16.2704    0.9832  -23.4189 C   0  0  0  0  0  0  0  0  0  0  0  0
  -12.6746    5.3296  -19.7909 C   0  0  0  0  0  0  0  0  0  0  0  0
  -13.3778    4.5642  -22.0427 C   0  0  0  0  0  0  0  0  0  0  0  0
  -15.9714   -2.5268  -24.2260 N   0  0  0  0  0  0  0  0  0  0  0  0
  -16.5655   -0.2710  -23.8659 N   0  0  0  0  0  0  0  0  0  0  0  0
  -10.1828    3.9080  -20.1852 C   0  0  0  0  0  0  0  0  0  0  0  0
  -14.1580    0.2317  -22.7038 C   0  0  0  0  0  0  0  0  0  0  0  0
  -14.7798    2.5869  -22.2238 C   0  0  0  0  0  0  0  0  0  0  0  0
  -12.3244    3.7317  -21.4663 O   0  0  0  0  0  0  0  0  0  0  0  0
  -10.1236    2.8511  -19.5002 O   0  0  0  0  0  0  0  0  0  0  0  0
  -13.4799   -2.1792  -22.9063 C   0  0  0  0  0  0  0  0  0  0  0  0
  -15.6957   -1.2787  -23.7526 C   0  0  0  0  0  0  0  0  0  0  0  0
  -17.1659    1.9152  -23.5351 O   0  0  0  0  0  0  0  0  0  0  0  0
   -9.2165    4.3813  -20.8670 O   0  0  0  0  0  0  0  0  0  0  0  0
  -15.0450    1.2796  -22.8081 C   0  0  0  0  0  0  0  0  0  0  0  0
  -14.6063    3.9202  -22.6586 C   0  0  0  0  0  0  0  0  0  0  0  0
  -14.4379   -1.0361  -23.1214 C   0  0  0  0  0  0  0  0  0  0  0  0
  1  4  1  0
  1  8  1  0
  1 11  1  0
  2  4  1  0
  2  5  1  0
  3  7  1  0
  3 15  2  0
  3 17  1  0
  5 11  1  0
  5 18  1  0
  6 14  2  0
  7 14  1  0
  8 12  2  0
  8 16  1  0
  9 17  1  0
  9 19  2  0
 10 17  1  0
 10 18  1  0
 13 19  1  0
 14 19  1  0
M  END
>  <ID>  (1) 
conformer_0

$$$$
