
     RDKit          3D

 33 35  0  0  0  0  0  0  0  0999 V2000
  -11.8235   -1.0282  -22.6590 C   0  0  0  0  0  0  0  0  0  0  0  0
  -13.1827    5.5555  -20.6707 C   0  0  0  0  0  0  0  0  0  0  0  0
  -17.6108    1.1955  -23.8437 C   0  0  0  0  0  0  0  0  0  0  0  0
   -9.6497    3.4962  -19.2666 O   0  0  0  0  0  0  0  0  0  0  0  0
  -10.9590    4.9123  -20.4427 N   0  0  0  0  0  0  0  0  0  0  0  0
  -10.5441   -0.8842  -22.1889 N   0  0  0  0  0  0  0  0  0  0  0  0
   -8.4719   -1.6863  -21.5534 C   0  0  0  0  0  0  0  0  0  0  0  0
  -13.8349   -2.4675  -23.1769 C   0  0  0  0  0  0  0  0  0  0  0  0
  -19.3159    3.2801  -22.5977 O   0  0  0  0  0  0  0  0  0  0  0  0
  -15.2488    4.6982  -21.7751 C   0  0  0  0  0  0  0  0  0  0  0  0
  -16.6467    0.1229  -23.7879 C   0  0  0  0  0  0  0  0  0  0  0  0
  -14.4262    5.5826  -21.0776 C   0  0  0  0  0  0  0  0  0  0  0  0
  -18.0872    3.4130  -22.9378 C   0  0  0  0  0  0  0  0  0  0  0  0
  -19.0972   -0.3924  -24.8104 N   0  0  0  0  0  0  0  0  0  0  0  0
  -18.8185    0.8516  -24.3417 C   0  0  0  0  0  0  0  0  0  0  0  0
  -12.3596    0.2378  -23.2105 C   0  0  0  0  0  0  0  0  0  0  0  0
  -15.9959   -2.0241  -24.0531 N   0  0  0  0  0  0  0  0  0  0  0  0
  -14.8743   -1.4159  -23.4767 C   0  0  0  0  0  0  0  0  0  0  0  0
   -9.7965   -1.8720  -21.9169 N   0  0  0  0  0  0  0  0  0  0  0  0
  -18.2130   -1.4060  -24.7467 C   0  0  0  0  0  0  0  0  0  0  0  0
  -12.4969    3.3266  -21.3085 C   0  0  0  0  0  0  0  0  0  0  0  0
  -14.8464    3.4170  -22.0356 C   0  0  0  0  0  0  0  0  0  0  0  0
  -12.5953   -2.1977  -22.5725 C   0  0  0  0  0  0  0  0  0  0  0  0
   -7.8678   -0.4877  -21.7352 N   0  0  0  0  0  0  0  0  0  0  0  0
  -13.6332    2.8423  -21.8027 C   0  0  0  0  0  0  0  0  0  0  0  0
  -15.2900    0.0491  -23.3190 C   0  0  0  0  0  0  0  0  0  0  0  0
  -17.2899    2.4748  -23.4644 N   0  0  0  0  0  0  0  0  0  0  0  0
  -17.5582    4.6561  -22.7033 N   0  0  0  0  0  0  0  0  0  0  0  0
  -12.2071    4.5594  -20.7935 C   0  0  0  0  0  0  0  0  0  0  0  0
   -8.8468    5.5384  -19.8594 O   0  0  0  0  0  0  0  0  0  0  0  0
  -16.5242    5.2883  -22.2409 C   0  0  0  0  0  0  0  0  0  0  0  0
   -9.8125    4.6017  -19.8525 C   0  0  0  0  0  0  0  0  0  0  0  0
  -16.9957   -1.1403  -24.2308 C   0  0  0  0  0  0  0  0  0  0  0  0
  1  6  1  0
  1 16  1  0
  1 23  2  3
  2 12  2  0
  2 29  1  0
  3 11  1  0
  3 15  2  0
  3 27  1  0
  4 32  2  0
  5 29  1  0
  5 32  1  0
  6 19  1  0
  7 19  2  3
  7 24  1  0
  8 18  2  3
  8 23  1  0
  9 13  2  0
 10 12  1  0
 10 22  2  0
 10 31  1  0
 11 26  1  0
 11 33  1  0
 13 27  1  0
 13 28  1  0
 14 15  1  0
 14 20  1  0
 17 18  1  0
 17 33  1  0
 18 26  1  0
 20 33  2  0
 21 25  2  0
 21 29  1  0
 22 25  1  0
 28 31  2  3
 30 32  1  0
M  END
>  <ID>  (1) 
conformer_0

$$$$
