
     RDKit          3D

 23 23  0  0  0  0  0  0  0  0999 V2000
  -12.0911   -0.3030  -23.9992 C   0  0  0  0  0  0  0  0  0  0  0  0
  -15.8647    3.4918  -21.7780 C   0  0  0  0  0  0  0  0  0  0  0  0
  -15.7935   -0.3869  -23.4598 C   0  0  0  0  0  0  0  0  0  0  0  0
  -15.6691    2.2411  -22.4780 C   0  0  0  0  0  0  0  0  0  0  0  0
  -14.9490   -2.6620  -23.7443 C   0  0  0  0  0  0  0  0  0  0  0  0
  -14.4169    1.4550  -22.5734 C   0  0  0  0  0  0  0  0  0  0  0  0
  -13.4420   -0.7338  -23.5231 C   0  0  0  0  0  0  0  0  0  0  0  0
  -12.0154    1.0244  -24.3130 F   0  0  0  0  0  0  0  0  0  0  0  0
  -16.8245    2.0369  -23.4772 C   0  0  0  0  0  0  0  0  0  0  0  0
  -11.1327   -0.7248  -23.0999 F   0  0  0  0  0  0  0  0  0  0  0  0
  -14.8878    5.6885  -20.8470 C   0  0  0  0  0  0  0  0  0  0  0  0
  -11.8370   -0.9835  -25.1862 F   0  0  0  0  0  0  0  0  0  0  0  0
  -16.0034   -1.7086  -23.7913 C   0  0  0  0  0  0  0  0  0  0  0  0
  -12.5096    4.4149  -20.2903 C   0  0  0  0  0  0  0  0  0  0  0  0
  -13.7067   -2.1183  -23.5692 C   0  0  0  0  0  0  0  0  0  0  0  0
  -13.4665    3.5221  -21.1099 C   0  0  0  0  0  0  0  0  0  0  0  0
  -14.7460    4.2274  -21.2651 C   0  0  0  0  0  0  0  0  0  0  0  0
  -10.5679    4.4191  -21.7073 O   0  0  0  0  0  1  0  0  0  0  0  0
  -10.4421    3.2956  -19.7634 O   0  0  0  0  0  1  0  0  0  0  0  0
  -17.2118   -2.1100  -24.1788 O   0  0  0  0  0  0  0  0  0  0  0  0
  -11.0689    3.9833  -20.6103 N   0  0  0  0  0  0  0  0  0  0  0  0
  -14.5267    0.1024  -23.2371 C   0  0  0  0  0  0  0  0  0  0  0  0
  -17.2215    4.2579  -21.8842 C   0  0  0  0  0  0  0  0  0  0  0  0
  1  7  1  0
  1  8  1  0
  1 10  1  0
  1 12  1  0
  2  4  1  0
  2 17  1  0
  2 23  1  0
  3 13  2  0
  3 22  1  0
  4  6  1  0
  4  9  1  0
  5 13  1  0
  5 15  1  0
  6 22  2  3
  7 15  1  0
  7 22  1  0
 11 17  1  0
 13 20  1  0
 14 16  1  0
 14 21  1  0
 16 17  1  0
 18 21  1  0
 19 21  1  0
M  END
>  <ID>  (1) 
conformer_0

$$$$
