
     RDKit          3D

 28 31  0  0  0  0  0  0  0  0999 V2000
  -10.2337    5.5441  -19.2378 O   0  0  0  0  0  0  0  0  0  0  0  0
  -12.1581    4.0137  -21.5541 C   0  0  0  0  0  0  0  0  0  0  0  0
  -14.9664   -2.4635  -23.6307 N   0  0  0  0  0  0  0  0  0  0  0  0
  -15.9239   -0.2126  -23.5975 C   0  0  0  0  0  0  0  0  0  0  0  0
  -15.6938    1.1055  -23.2857 N   0  0  0  0  0  0  0  0  0  0  0  0
  -15.9724    3.7451  -21.3204 C   0  0  0  0  0  0  0  0  0  0  0  0
   -8.5082    4.0671  -18.3857 O   0  0  0  0  0  0  0  0  0  0  0  0
  -13.7217   -2.9631  -23.2936 C   0  0  0  0  0  0  0  0  0  0  0  0
  -15.7817    6.2054  -21.5228 C   0  0  0  0  0  0  0  0  0  0  0  0
  -17.9322    0.8178  -24.0514 C   0  0  0  0  0  0  0  0  0  0  0  0
  -14.4024    5.9398  -20.8288 C   0  0  0  0  0  0  0  0  0  0  0  0
  -12.8563   -1.8721  -22.8859 C   0  0  0  0  0  0  0  0  0  0  0  0
  -14.0995    2.7016  -22.5357 N   0  0  0  0  0  0  0  0  0  0  0  0
  -13.6545   -0.7379  -22.9915 C   0  0  0  0  0  0  0  0  0  0  0  0
  -17.6808   -1.5659  -24.4917 N   0  0  0  0  0  0  0  0  0  0  0  0
  -17.2427   -0.4234  -24.0802 C   0  0  0  0  0  0  0  0  0  0  0  0
  -10.2116    2.8798  -19.5183 O   0  0  0  0  0  0  0  0  0  0  0  0
  -16.3131    4.9547  -22.2519 C   0  0  0  0  0  0  0  0  0  0  0  0
  -11.4729    4.9581  -20.6832 C   0  0  0  0  0  0  0  0  0  0  0  0
   -8.8099    4.4049  -20.9642 O   0  0  0  0  0  0  0  0  0  0  0  0
  -14.3912    1.4361  -22.8208 C   0  0  0  0  0  0  0  0  0  0  0  0
  -17.0119    1.8119  -23.5595 C   0  0  0  0  0  0  0  0  0  0  0  0
  -14.4945    3.4638  -21.3771 C   0  0  0  0  0  0  0  0  0  0  0  0
  -14.9425   -1.1429  -23.4500 C   0  0  0  0  0  0  0  0  0  0  0  0
  -13.4199    0.5269  -22.7139 N   0  0  0  0  0  0  0  0  0  0  0  0
   -9.6284    4.2596  -19.7084 P   0  0  0  0  0  5  0  0  0  0  0  0
  -19.3792    0.8666  -24.4465 C   0  0  0  0  0  0  0  0  0  0  0  0
  -13.6158    4.7601  -21.5608 C   0  0  0  0  0  0  0  0  0  0  0  0
  1 26  1  0
  2 19  1  0
  2 28  1  0
  3  8  1  0
  3 24  1  0
  4  5  1  0
  4 16  1  0
  4 24  2  0
  5 21  1  0
  5 22  1  0
  6 18  1  0
  6 23  1  0
  7 26  1  0
  8 12  1  0
  9 11  1  0
  9 18  1  0
 10 16  1  0
 10 22  1  0
 10 27  1  0
 11 28  1  0
 12 14  1  0
 13 21  2  3
 13 23  1  0
 14 24  1  0
 14 25  2  0
 15 16  2  0
 17 26  1  0
 19 26  1  0
 20 26  1  0
 21 25  1  0
 23 28  1  0
M  END
>  <ID>  (1) 
conformer_0

$$$$
