
     RDKit          3D

 27 29  0  0  0  0  0  0  0  0999 V2000
  -14.8816   -0.5200  -23.3165 C   0  0  0  0  0  0  0  0  0  0  0  0
   -9.6203    2.7995  -19.5997 O   0  0  0  0  0  1  0  0  0  0  0  0
  -18.8197    5.0660  -22.3400 O   0  0  0  0  0  0  0  0  0  0  0  0
  -14.0322    4.4615  -22.2146 O   0  0  0  0  0  0  0  0  0  0  0  0
  -12.4472    3.9447  -20.4292 C   0  0  0  0  0  0  0  0  0  0  0  0
  -15.3853    4.0258  -22.3644 N   0  0  0  0  0  0  0  0  0  0  0  0
  -16.2991   -2.2167  -24.2065 C   0  0  0  0  0  0  0  0  0  0  0  0
  -10.9688    4.5806  -22.2306 O   0  0  0  0  0  0  0  0  0  0  0  0
  -17.3719    3.2427  -23.0195 N   0  0  0  0  0  0  0  0  0  0  0  0
  -11.1614    4.5842  -20.8549 C   0  0  0  0  0  0  0  0  0  0  0  0
  -15.3599   -3.1791  -23.9166 N   0  0  0  0  0  0  0  0  0  0  0  0
  -14.0991   -2.8665  -23.4638 C   0  0  0  0  0  0  0  0  0  0  0  0
   -8.5742    4.8720  -20.9210 O   0  0  0  0  0  0  0  0  0  0  0  0
  -12.6123   -1.0201  -22.7062 N   0  0  0  0  0  0  0  0  0  0  0  0
  -16.0224    2.8754  -22.8535 C   0  0  0  0  0  0  0  0  0  0  0  0
  -17.6106    4.5127  -22.4931 C   0  0  0  0  0  0  0  0  0  0  0  0
  -13.3394    1.1788  -22.5549 N   0  0  0  0  0  0  0  0  0  0  0  0
  -16.1822   -0.9049  -23.8228 C   0  0  0  0  0  0  0  0  0  0  0  0
  -12.3856    0.2849  -22.4556 C   0  0  0  0  0  0  0  0  0  0  0  0
  -14.5695    0.8212  -22.9639 C   0  0  0  0  0  0  0  0  0  0  0  0
   -9.6156    4.2740  -19.9445 P   0  0  0  0  0  4  0  0  0  0  0  0
  -13.6175    4.7647  -20.8255 C   0  0  0  0  0  0  0  0  0  0  0  0
  -18.2523    2.4357  -23.6887 O   0  0  0  0  0  0  0  0  0  0  0  0
  -16.3435    5.0727  -22.0440 C   0  0  0  0  0  0  0  0  0  0  0  0
   -9.4111    5.0734  -18.6587 O   0  0  0  0  0  0  0  0  0  0  0  0
  -13.8380   -1.4094  -23.1392 C   0  0  0  0  0  0  0  0  0  0  0  0
  -15.6055    1.7094  -23.1024 N   0  0  0  0  0  0  0  0  0  0  0  0
  1 18  1  0
  1 20  2  0
  1 26  1  0
  2 21  2  0
  3 16  2  0
  4  6  1  0
  4 22  1  0
  5 10  1  0
  5 22  1  0
  6 15  1  0
  6 24  1  0
  7 11  2  0
  7 18  1  0
  8 10  1  0
  9 15  1  0
  9 16  1  0
  9 23  1  0
 10 21  1  0
 11 12  1  0
 12 26  1  0
 13 21  1  0
 14 19  1  0
 14 26  2  0
 15 27  2  3
 16 24  1  0
 17 19  2  0
 17 20  1  0
 20 27  1  0
 21 25  1  0
M  END
>  <ID>  (1) 
conformer_0

$$$$
