
     RDKit          3D

 30 32  0  0  0  0  0  0  0  0999 V2000
  -13.9916    0.2863  -22.6609 C   0  0  0  0  0  0  0  0  0  0  0  0
  -12.7718   -2.3078  -22.5582 C   0  0  0  0  0  0  0  0  0  0  0  0
  -16.3281   -1.9070  -24.2074 C   0  0  0  0  0  0  0  0  0  0  0  0
   -7.2259   -2.4961  -21.1025 C   0  0  0  0  0  0  0  0  0  0  0  0
  -17.3496   -2.1755  -24.7864 O   0  0  0  0  0  0  0  0  0  0  0  0
  -10.8312    4.5765  -20.5396 P   0  0  0  0  0  4  0  0  0  0  0  0
  -14.5725    5.0146  -21.7998 C   0  0  0  0  0  0  0  0  0  0  0  0
  -14.1863   -2.1675  -23.2459 C   0  0  0  0  0  0  0  0  0  0  0  0
  -16.1598    3.0460  -22.8171 C   0  0  0  0  0  0  0  0  0  0  0  0
  -10.3886    5.6124  -19.4504 O   0  0  0  0  0  1  0  0  0  0  0  0
  -10.3764   -1.3235  -21.9194 C   0  0  0  0  0  0  0  0  0  0  0  0
   -9.1509   -1.7577  -22.5705 C   0  0  0  0  0  0  0  0  0  0  0  0
   -7.9507   -1.4737  -21.8150 C   0  0  0  0  0  0  0  0  0  0  0  0
  -10.9545    3.2038  -19.9194 O   0  0  0  0  0  0  0  0  0  0  0  0
  -14.5863    1.4944  -22.5994 C   0  0  0  0  0  0  0  0  0  0  0  0
  -17.9889    2.7869  -24.1340 O   0  0  0  0  0  0  0  0  0  0  0  0
  -17.4174    3.6709  -23.0577 C   0  0  0  0  0  0  0  0  0  0  0  0
  -15.0032    3.6227  -22.2651 C   0  0  0  0  0  0  0  0  0  0  0  0
  -15.2847   -2.8410  -23.9545 N   0  0  0  0  0  0  0  0  0  0  0  0
  -19.1030    2.0500  -23.4629 C   0  0  0  0  0  0  0  0  0  0  0  0
  -14.1041    2.6321  -22.1080 N   0  0  0  0  0  0  0  0  0  0  0  0
  -14.6828   -0.7889  -23.1873 C   0  0  0  0  0  0  0  0  0  0  0  0
  -16.5678    0.6011  -23.6248 C   0  0  0  0  0  0  0  0  0  0  0  0
  -15.8880    1.6940  -23.0810 C   0  0  0  0  0  0  0  0  0  0  0  0
   -9.9582    4.6620  -21.7928 O   0  0  0  0  0  0  0  0  0  0  0  0
  -11.6715   -1.0894  -22.5470 C   0  0  0  0  0  0  0  0  0  0  0  0
  -12.2786    5.0781  -21.0485 O   0  0  0  0  0  0  0  0  0  0  0  0
  -13.6019    4.7767  -20.6156 C   0  0  0  0  0  0  0  0  0  0  0  0
  -15.9529   -0.6309  -23.6856 C   0  0  0  0  0  0  0  0  0  0  0  0
   -7.2878   -0.3350  -22.0243 O   0  0  0  0  0  0  0  0  0  0  0  0
  1 15  2  0
  1 22  1  0
  2  8  1  0
  2 26  2  3
  3  5  2  0
  3 19  1  0
  3 29  1  0
  4 13  1  0
  6 10  2  0
  6 14  1  0
  6 25  1  0
  6 27  1  0
  7 18  1  0
  7 28  1  0
  8 19  1  0
  8 22  1  0
  9 17  1  0
  9 18  2  0
  9 24  1  0
 11 12  1  0
 11 26  1  0
 12 13  1  0
 13 30  1  0
 15 21  1  0
 15 24  1  0
 16 17  1  0
 16 20  1  0
 18 21  1  0
 22 29  2  0
 23 24  2  0
 23 29  1  0
 27 28  1  0
M  END
>  <ID>  (1) 
conformer_0

$$$$
