
     RDKit          3D

 27 28  0  0  0  0  0  0  0  0999 V2000
  -13.3335    3.5615  -21.3803 C   0  0  0  0  0  0  0  0  0  0  0  0
  -10.5847    4.6933  -21.6319 O   0  0  0  0  0  0  0  0  0  0  0  0
   -9.4109   -1.6285  -21.8874 C   0  0  0  0  0  0  0  0  0  0  0  0
  -15.1521    2.5144  -22.6550 N   0  0  0  0  0  0  0  0  0  0  0  0
  -12.7423    4.5559  -20.4214 C   0  0  0  0  0  0  0  0  0  0  0  0
  -10.4522   -1.2928  -22.8134 C   0  0  0  0  0  0  0  0  0  0  0  0
  -12.5403    2.6074  -21.8279 O   0  0  0  0  0  0  0  0  0  0  0  0
  -10.6061    5.1476  -19.4676 O   0  0  0  0  0  0  0  0  0  0  0  0
  -12.0457    0.4133  -24.5716 O   0  0  0  0  0  0  0  0  0  0  0  0
  -17.1171   -0.2592  -24.1677 C   0  0  0  0  0  0  0  0  0  0  0  0
  -17.0553   -1.6427  -24.2753 C   0  0  0  0  0  0  0  0  0  0  0  0
  -14.6831    3.5606  -21.8249 C   0  0  0  0  0  0  0  0  0  0  0  0
  -17.7793    3.8706  -23.0774 C   0  0  0  0  0  0  0  0  0  0  0  0
  -16.6289    4.8423  -22.7347 C   0  0  0  0  0  0  0  0  0  0  0  0
  -13.8507   -2.8524  -22.9828 N   0  0  0  0  0  0  0  0  0  0  0  0
  -16.2260    1.8976  -23.3465 C   0  0  0  0  0  0  0  0  0  0  0  0
  -12.5872   -0.6046  -23.8857 C   0  0  0  0  0  0  0  0  0  0  0  0
   -8.1228   -0.8334  -21.7110 N   0  0  0  0  0  0  0  0  0  0  0  0
  -11.2132    4.7377  -20.4999 C   0  0  0  0  0  0  0  0  0  0  0  0
  -11.8237   -1.5108  -23.1336 C   0  0  0  0  0  0  0  0  0  0  0  0
  -13.8969   -0.7728  -24.0200 N   0  0  0  0  0  0  0  0  0  0  0  0
  -17.5471    2.5339  -23.7378 C   0  0  0  0  0  0  0  0  0  0  0  0
  -16.1719    0.5721  -23.7684 C   0  0  0  0  0  0  0  0  0  0  0  0
  -15.7759    4.5414  -21.4529 C   0  0  0  0  0  0  0  0  0  0  0  0
  -15.9076   -2.2888  -23.9857 C   0  0  0  0  0  0  0  0  0  0  0  0
  -14.5532   -1.9032  -23.6489 C   0  0  0  0  0  0  0  0  0  0  0  0
  -12.5514   -2.6584  -22.7010 C   0  0  0  0  0  0  0  0  0  0  0  0
  1  5  1  0
  1  7  1  0
  1 12  2  3
  2 19  2  0
  3  6  2  3
  3 18  1  0
  4 12  1  0
  4 16  1  0
  5 19  1  0
  6 20  1  0
  8 19  1  0
  9 17  2  0
 10 11  1  0
 10 23  2  3
 11 25  2  3
 12 24  1  0
 13 14  1  0
 13 22  1  0
 14 24  1  0
 15 26  1  0
 15 27  2  0
 16 22  1  0
 16 23  1  0
 17 20  1  0
 17 21  1  0
 20 27  1  0
 21 26  2  0
 25 26  1  0
M  END
>  <ID>  (1) 
conformer_0

$$$$
