
     RDKit          3D

 32 36  0  0  0  0  0  0  0  0999 V2000
   -6.7353   -2.3644  -20.8152 O   0  0  0  0  0  0  0  0  0  0  0  0
   -7.1938   -0.5600  -22.1522 O   0  0  0  0  0  0  0  0  0  0  0  0
  -12.2001   -1.9202  -22.7983 C   0  0  0  0  0  0  0  0  0  0  0  0
  -13.7344    0.1287  -22.8258 N   0  0  0  0  0  0  0  0  0  0  0  0
  -19.5179    1.2357  -24.2972 C   0  0  0  0  0  0  0  0  0  0  0  0
  -15.8273   -1.3510  -23.7708 C   0  0  0  0  0  0  0  0  0  0  0  0
  -17.1267   -1.8115  -24.3055 N   0  0  0  0  0  0  0  0  0  0  0  0
   -7.4976   -1.6990  -21.6412 C   0  0  0  0  0  0  0  0  0  0  0  0
  -19.3109   -0.3048  -24.6998 N   0  0  0  0  0  0  0  0  0  0  0  0
   -9.7666    4.0515  -19.6152 C   0  0  0  0  0  0  0  0  0  0  0  0
   -9.6142   -1.5438  -22.9883 C   0  0  0  0  0  0  0  0  0  0  0  0
  -15.3431    2.1918  -22.6781 N   0  0  0  0  0  0  0  0  0  0  0  0
  -14.7399    4.1375  -21.4186 C   0  0  0  0  0  0  0  0  0  0  0  0
  -15.9976    0.0219  -23.5341 C   0  0  0  0  0  0  0  0  0  0  0  0
  -13.5332   -1.2115  -23.0309 C   0  0  0  0  0  0  0  0  0  0  0  0
  -11.0466   -1.1101  -22.5548 N   0  0  0  0  0  0  0  0  0  0  0  0
   -8.9360   -2.2789  -21.7800 C   0  0  0  0  0  0  0  0  0  0  0  0
  -10.1047    5.3216  -20.2568 C   0  0  0  0  0  0  0  0  0  0  0  0
   -9.3067    6.4327  -19.6860 C   0  0  0  0  0  0  0  0  0  0  0  0
  -17.8174    2.8452  -23.3119 N   0  0  0  0  0  0  0  0  0  0  0  0
  -16.5829    2.9521  -22.6660 C   0  0  0  0  0  0  0  0  0  0  0  0
  -18.1336    1.5958  -23.8592 C   0  0  0  0  0  0  0  0  0  0  0  0
  -14.3188    3.0033  -22.0882 N   0  0  0  0  0  0  0  0  0  0  0  0
  -17.9752   -0.6983  -24.3396 C   0  0  0  0  0  0  0  0  0  0  0  0
  -14.6206   -1.9976  -23.5013 C   0  0  0  0  0  0  0  0  0  0  0  0
  -17.2796    0.4480  -23.8523 C   0  0  0  0  0  0  0  0  0  0  0  0
   -9.9466    7.5535  -19.3346 O   0  0  0  0  0  0  0  0  0  0  0  0
  -16.4463    4.4353  -21.5743 S   0  0  0  0  0  0  0  0  0  0  0  0
  -12.5149    4.9582  -20.9186 C   0  0  0  0  0  0  0  0  0  0  0  0
  -13.8859    4.9805  -20.6559 O   0  0  0  0  0  0  0  0  0  0  0  0
  -14.9445    0.8017  -23.0095 C   0  0  0  0  0  0  0  0  0  0  0  0
  -11.5582    5.5086  -19.9969 N   0  0  0  0  0  0  0  0  0  0  0  0
  1  8  2  0
  2  8  1  0
  3 15  1  0
  3 16  1  0
  4 15  2  0
  4 31  1  0
  5  9  1  0
  5 22  1  0
  6  7  1  0
  6 14  1  0
  6 25  2  0
  7 24  2  0
  8 17  1  0
  9 24  1  0
 10 18  1  0
 11 16  1  0
 11 17  1  0
 12 21  1  0
 12 23  1  0
 12 31  1  0
 13 23  2  0
 13 28  1  0
 13 30  1  0
 14 26  2  0
 14 31  1  0
 15 25  1  0
 18 19  1  0
 18 32  1  0
 19 27  1  0
 20 21  1  0
 20 22  2  0
 21 28  1  0
 22 26  1  0
 24 26  1  0
 29 30  1  0
 29 32  2  3
M  END
>  <ID>  (1) 
conformer_0

$$$$
