
     RDKit          3D

 24 26  0  0  0  0  0  0  0  0999 V2000
  -17.3983   -1.1346  -24.2636 N   0  0  0  0  0  0  0  0  0  0  0  0
  -18.6677    0.8933  -24.3344 N   0  0  0  0  0  0  0  0  0  0  0  0
  -12.9392   -2.6323  -22.8407 N   0  0  0  0  0  0  0  0  0  0  0  0
  -11.5686    4.1868  -21.5859 C   0  0  0  0  0  0  0  0  0  0  0  0
  -13.1637    0.3009  -22.6386 N   0  0  0  0  0  0  0  0  0  0  0  0
  -13.8776    4.5317  -20.6384 C   0  0  0  0  0  0  0  0  0  0  0  0
  -15.4596   -0.1294  -23.4685 C   0  0  0  0  0  0  0  0  0  0  0  0
  -16.3710    0.8252  -23.6394 N   0  0  0  0  0  0  0  0  0  0  0  0
  -14.6545    3.3714  -22.5868 O   0  0  0  0  0  0  0  0  0  0  0  0
   -8.5514    4.5346  -21.2917 O   0  0  0  0  0  1  0  0  0  0  0  0
  -14.0096   -1.9139  -23.1958 C   0  0  0  0  0  0  0  0  0  0  0  0
  -17.5209    0.2312  -24.0920 C   0  0  0  0  0  0  0  0  0  0  0  0
   -9.4778    3.2668  -19.3160 O   0  0  0  0  0  1  0  0  0  0  0  0
  -15.0975    4.2996  -21.5688 C   0  0  0  0  0  0  0  0  0  0  0  0
  -10.8589    4.9196  -20.5071 O   0  0  0  0  0  0  0  0  0  0  0  0
  -13.4831    2.6760  -22.0921 N   0  0  0  0  0  0  0  0  0  0  0  0
  -14.1630   -0.4730  -23.0630 C   0  0  0  0  0  0  0  0  0  0  0  0
   -9.4673    4.2859  -20.2843 P   0  0  0  0  0  0  0  0  0  0  0  0
  -15.2114   -2.4907  -23.7152 N   0  0  0  0  0  0  0  0  0  0  0  0
  -12.8253    3.5042  -21.1029 C   0  0  0  0  0  0  0  0  0  0  0  0
  -16.1418   -1.4398  -23.8909 C   0  0  0  0  0  0  0  0  0  0  0  0
  -12.9695    1.5093  -22.3633 C   0  0  0  0  0  0  0  0  0  0  0  0
  -17.3793    3.6724  -21.2679 O   0  0  0  0  0  0  0  0  0  0  0  0
  -16.4177    4.7522  -21.2029 C   0  0  0  0  0  0  0  0  0  0  0  0
  1 12  1  0
  1 21  2  0
  2 12  2  0
  3 11  2  0
  4 15  1  0
  4 20  1  0
  5 17  1  0
  5 22  1  0
  6 14  1  0
  6 20  1  0
  7  8  1  0
  7 17  2  0
  7 21  1  0
  8 12  1  0
  9 14  1  0
  9 16  1  0
 10 18  1  0
 11 17  1  0
 11 19  1  0
 13 18  1  0
 14 24  1  0
 15 18  1  0
 16 20  1  0
 16 22  1  0
 19 21  1  0
 23 24  1  0
M  END
>  <ID>  (1) 
conformer_0

$$$$
