
     RDKit          3D

 21 23  0  0  0  0  0  0  0  0999 V2000
  -11.4601    3.2053  -21.2349 N   0  0  0  0  0  0  0  0  0  0  0  0
  -15.7146    1.5594  -22.6910 N   0  0  0  0  0  0  0  0  0  0  0  0
  -12.5403   -2.1118  -22.7076 C   0  0  0  0  0  0  0  0  0  0  0  0
  -13.7867    3.9564  -20.8626 C   0  0  0  0  0  0  0  0  0  0  0  0
  -16.2982   -0.5128  -23.8159 N   0  0  0  0  0  0  0  0  0  0  0  0
  -10.5196    4.0239  -20.3054 C   0  0  0  0  0  0  0  0  0  0  0  0
  -11.1746    5.0957  -19.6214 O   0  0  0  0  0  0  0  0  0  0  0  0
  -14.7945    2.2760  -22.0344 C   0  0  0  0  0  0  0  0  0  0  0  0
  -13.7922   -1.5392  -23.1896 C   0  0  0  0  0  0  0  0  0  0  0  0
   -9.3470    4.7490  -21.2437 C   0  0  0  0  0  0  0  0  0  0  0  0
  -14.0382   -0.1490  -22.9610 C   0  0  0  0  0  0  0  0  0  0  0  0
  -16.8161   -2.5540  -24.7714 O   0  0  0  0  0  0  0  0  0  0  0  0
  -13.4492    1.9667  -21.9956 C   0  0  0  0  0  0  0  0  0  0  0  0
  -15.0534    3.4172  -21.3080 N   0  0  0  0  0  0  0  0  0  0  0  0
  -15.3539    0.3054  -23.1705 C   0  0  0  0  0  0  0  0  0  0  0  0
  -13.0429    0.7348  -22.5120 C   0  0  0  0  0  0  0  0  0  0  0  0
  -12.7524    3.0503  -21.3124 C   0  0  0  0  0  0  0  0  0  0  0  0
  -16.4029    3.8281  -21.0934 C   0  0  0  0  0  0  0  0  0  0  0  0
  -14.7698   -2.2909  -23.7965 N   0  0  0  0  0  0  0  0  0  0  0  0
  -15.9801   -1.7940  -24.1516 C   0  0  0  0  0  0  0  0  0  0  0  0
   -9.9015    3.0589  -19.4149 O   0  0  0  0  0  0  0  0  0  0  0  0
  1  6  1  0
  1 17  1  0
  2  8  2  0
  2 15  1  0
  3  9  1  0
  4 14  1  0
  4 17  1  0
  5 15  2  0
  5 20  1  0
  6  7  1  0
  6 10  1  0
  6 21  1  0
  8 13  1  0
  8 14  1  0
  9 11  1  0
  9 19  2  0
 11 15  1  0
 11 16  2  0
 12 20  2  0
 13 16  1  0
 13 17  2  0
 14 18  1  0
 19 20  1  0
M  END
>  <ID>  (1) 
conformer_0

$$$$
