
     RDKit          3D

 31 35  0  0  0  0  0  0  0  0999 V2000
  -14.0451    1.7133  -22.8110 C   0  0  0  0  0  0  0  0  0  0  0  0
  -13.3424    0.4403  -23.3059 C   0  0  0  0  0  0  0  0  0  0  0  0
  -12.4285   -2.2964  -22.8161 O   0  0  0  0  0  0  0  0  0  0  0  0
  -16.6491    0.3827  -23.6325 C   0  0  0  0  0  0  0  0  0  0  0  0
  -17.8421   -0.2093  -24.0841 C   0  0  0  0  0  0  0  0  0  0  0  0
  -15.6152   -0.5626  -23.6435 C   0  0  0  0  0  0  0  0  0  0  0  0
  -14.4574   -3.1552  -23.6388 N   0  0  0  0  0  0  0  0  0  0  0  0
  -14.2306   -0.7076  -23.3954 C   0  0  0  0  0  0  0  0  0  0  0  0
  -13.7274   -2.0223  -23.2885 C   0  0  0  0  0  0  0  0  0  0  0  0
  -19.0745    1.8151  -23.8357 C   0  0  0  0  0  0  0  0  0  0  0  0
   -8.0085    5.7077  -18.6407 O   0  0  0  0  0  0  0  0  0  0  0  0
   -9.8414    3.7165  -19.6267 O   0  0  0  0  0  0  0  0  0  0  0  0
  -17.5865   -1.5409  -24.3064 N   0  0  0  0  0  0  0  0  0  0  0  0
  -15.7249    3.4870  -22.1565 C   0  0  0  0  0  0  0  0  0  0  0  0
  -13.1490    2.5994  -22.2236 C   0  0  0  0  0  0  0  0  0  0  0  0
  -12.1361    0.3636  -23.5584 O   0  0  0  0  0  0  0  0  0  0  0  0
  -15.4483    2.2284  -22.7718 C   0  0  0  0  0  0  0  0  0  0  0  0
  -12.5650    4.6881  -20.8108 C   0  0  0  0  0  0  0  0  0  0  0  0
  -19.0199    0.4813  -24.2215 C   0  0  0  0  0  0  0  0  0  0  0  0
  -16.6864    1.7011  -23.2527 C   0  0  0  0  0  0  0  0  0  0  0  0
  -10.1308    6.1624  -19.8054 C   0  0  0  0  0  0  0  0  0  0  0  0
  -14.7825    4.2192  -21.5998 C   0  0  0  0  0  0  0  0  0  0  0  0
  -11.1862    4.6356  -21.3935 C   0  0  0  0  0  0  0  0  0  0  0  0
  -16.2917   -1.7650  -23.9945 C   0  0  0  0  0  0  0  0  0  0  0  0
  -11.2161   -1.9334  -22.2548 C   0  0  0  0  0  0  0  0  0  0  0  0
  -10.2209    4.7307  -20.2595 C   0  0  0  0  0  0  0  0  0  0  0  0
  -17.9119    2.3995  -23.3617 C   0  0  0  0  0  0  0  0  0  0  0  0
  -16.9549    4.1628  -21.9191 C   0  0  0  0  0  0  0  0  0  0  0  0
  -13.4874    3.7841  -21.5872 C   0  0  0  0  0  0  0  0  0  0  0  0
  -15.7634   -3.0177  -23.9790 N   0  0  0  0  0  0  0  0  0  0  0  0
   -8.7870    6.6059  -19.3350 C   0  0  0  0  0  0  0  0  0  0  0  0
  1  2  1  0
  1 15  2  0
  1 17  1  0
  2  8  1  0
  2 16  2  0
  3  9  1  0
  3 25  1  0
  4  5  1  0
  4  6  1  0
  4 20  2  0
  5 13  1  0
  5 19  2  0
  6  8  1  0
  6 24  1  0
  7  9  2  0
  7 30  1  0
  8  9  1  0
 10 19  1  0
 10 27  2  0
 11 31  1  0
 12 26  2  0
 13 24  1  0
 14 17  2  0
 14 22  1  0
 14 28  1  0
 15 29  1  0
 17 20  1  0
 18 23  1  0
 18 29  1  0
 20 27  1  0
 21 26  1  0
 21 31  1  0
 22 29  2  0
 23 26  1  0
 24 30  2  0
M  END
>  <ID>  (1) 
conformer_0

$$$$
