
     RDKit          3D

 24 25  0  0  0  0  0  0  0  0999 V2000
   -9.9019    2.7989  -19.3718 O   0  0  0  0  0  0  0  0  0  0  0  0
  -12.9360   -0.6424  -22.7443 C   0  0  0  0  0  0  0  0  0  0  0  0
  -15.3836   -0.3012  -23.4450 C   0  0  0  0  0  0  0  0  0  0  0  0
  -11.8840   -0.5454  -22.4417 O   0  0  0  0  0  0  0  0  0  0  0  0
  -10.3288    4.5710  -20.8702 C   0  0  0  0  0  0  0  0  0  0  0  0
  -16.4780   -0.8882  -24.0303 C   0  0  0  0  0  0  0  0  0  0  0  0
  -15.0367    5.0276  -21.5378 C   0  0  0  0  0  0  0  0  0  0  0  0
  -14.0641    1.6226  -22.7881 C   0  0  0  0  0  0  0  0  0  0  0  0
  -15.2935    1.0852  -23.0713 C   0  0  0  0  0  0  0  0  0  0  0  0
  -16.3669    3.1603  -22.5165 C   0  0  0  0  0  0  0  0  0  0  0  0
  -14.0116    2.8846  -22.4062 C   0  0  0  0  0  0  0  0  0  0  0  0
  -11.8439    4.1822  -20.8524 C   0  0  0  0  0  0  0  0  0  0  0  0
  -12.3758    4.8603  -22.1583 C   0  0  0  0  0  0  0  0  0  0  0  0
  -16.4346    1.8733  -22.9610 C   0  0  0  0  0  0  0  0  0  0  0  0
  -13.6580    5.7034  -21.8284 C   0  0  0  0  0  0  0  0  0  0  0  0
  -16.5386   -2.2252  -24.2385 N   0  0  0  0  0  0  0  0  0  0  0  0
  -14.3719   -2.4704  -23.3230 C   0  0  0  0  0  0  0  0  0  0  0  0
  -14.1974   -1.0657  -23.1729 C   0  0  0  0  0  0  0  0  0  0  0  0
  -15.4699   -3.0192  -23.8840 N   0  0  0  0  0  0  0  0  0  0  0  0
   -9.7107    4.0347  -19.6175 C   0  0  0  0  0  0  0  0  0  0  0  0
  -16.0830    5.9728  -21.8736 O   0  0  0  0  0  0  0  0  0  0  0  0
   -9.0680    4.8702  -18.9146 O   0  0  0  0  0  0  0  0  0  0  0  0
  -15.0990    3.6867  -22.1715 C   0  0  0  0  0  0  0  0  0  0  0  0
  -13.2714   -3.3301  -22.7443 C   0  0  0  0  0  0  0  0  0  0  0  0
  1 20  2  0
  2  4  2  0
  2 18  2  0
  3  6  1  0
  3  9  1  0
  3 18  1  0
  5 12  1  0
  5 20  1  0
  6 16  2  0
  7 15  1  0
  7 21  1  0
  7 23  1  0
  8  9  1  0
  8 11  2  0
  9 14  1  0
 10 14  2  0
 10 23  1  0
 11 23  1  0
 12 13  1  0
 13 15  1  0
 16 19  1  0
 17 18  1  0
 17 19  2  0
 17 24  1  0
 20 22  1  0
M  END
>  <ID>  (1) 
conformer_0

$$$$
