
     RDKit          3D

 29 31  0  0  0  0  0  0  0  0999 V2000
   -9.2848    3.6621  -19.1116 O   0  0  0  0  0  0  0  0  0  0  0  0
  -14.7377   -1.5179  -23.3502 C   0  0  0  0  0  3  0  0  0  0  0  0
   -9.2511    4.5442  -20.0252 C   0  0  0  0  0  0  0  0  0  0  0  0
  -14.2848    0.7334  -23.0132 C   0  0  0  0  0  0  0  0  0  0  0  0
  -17.6880    4.4466  -22.4275 C   0  0  0  0  0  0  0  0  0  0  0  0
  -18.0322   -0.4008  -24.2730 O   0  0  0  0  0  0  0  0  0  0  0  0
  -12.9598    0.5565  -22.8074 C   0  0  0  0  0  0  0  0  0  0  0  0
  -15.9147   -1.2058  -23.5651 C   0  0  0  0  0  0  0  0  0  0  0  0
  -17.0841   -1.3278  -24.3522 C   0  0  0  0  0  0  0  0  0  0  0  0
  -15.3829    4.0243  -22.0078 C   0  0  0  0  0  0  0  0  0  0  0  0
  -11.7433    3.9100  -21.1166 C   0  0  0  0  0  0  0  0  0  0  0  0
  -13.4156   -1.7690  -22.9710 C   0  0  0  0  0  0  0  0  0  0  0  0
  -12.7586    5.9005  -20.2258 C   0  0  0  0  0  0  0  0  0  0  0  0
  -17.8735    3.1631  -22.9219 C   0  0  0  0  0  0  0  0  0  0  0  0
   -8.6270    4.4575  -21.1475 O   0  0  0  0  0  0  0  0  0  0  0  0
  -15.5841    2.7516  -22.6030 C   0  0  0  0  0  0  0  0  0  0  0  0
  -13.9688    5.4947  -20.7438 C   0  0  0  0  0  0  0  0  0  0  0  0
  -12.9513    3.5461  -21.6163 C   0  0  0  0  0  0  0  0  0  0  0  0
  -14.0968    4.3134  -21.4693 C   0  0  0  0  0  0  0  0  0  0  0  0
  -14.5318    1.9788  -22.7815 N   0  0  0  0  0  0  0  0  0  0  0  0
  -17.1897   -2.2902  -25.1501 O   0  0  0  0  0  0  0  0  0  0  0  0
  -11.2247   -0.8936  -22.5074 O   0  0  0  0  0  0  0  0  0  0  0  0
  -10.3120    5.6190  -19.9452 C   0  0  0  0  0  0  0  0  0  0  0  0
  -16.4784    4.8414  -21.9764 N   0  0  0  0  0  0  0  0  0  0  0  0
  -11.6094    5.1102  -20.4385 C   0  0  0  0  0  0  0  0  0  0  0  0
  -12.9347   -3.0905  -22.7092 C   0  0  0  0  0  0  0  0  0  0  0  0
  -15.1413   -0.3116  -23.3412 C   0  0  0  0  0  0  0  0  0  0  0  0
  -16.8067    2.3377  -22.9938 C   0  0  0  0  0  0  0  0  0  0  0  0
  -12.5102   -0.7064  -22.7533 C   0  0  0  0  0  0  0  0  0  0  0  0
  1  3  2  0
  2  8  1  0
  2 12  2  0
  3 15  1  0
  3 23  1  0
  4  7  1  0
  4 20  1  0
  4 27  2  0
  5 14  1  0
  5 24  2  0
  6  9  2  0
  7 29  2  0
  8  9  1  0
  8 27  2  0
  9 21  1  0
 10 16  1  0
 10 19  2  3
 10 24  1  0
 11 18  2  0
 11 25  1  0
 12 26  1  0
 12 29  1  0
 13 17  2  0
 13 25  1  0
 14 28  1  0
 16 20  1  0
 16 28  2  0
 17 19  1  0
 18 19  1  0
 22 29  1  0
 23 25  1  0
M  END
>  <ID>  (1) 
conformer_0

$$$$
