
     RDKit          3D

 26 27  0  0  0  0  0  0  0  0999 V2000
  -10.8814   -1.1582  -23.1025 F   0  0  0  0  0  0  0  0  0  0  0  0
  -17.1088    0.4193  -24.0790 C   0  0  0  0  0  0  0  0  0  0  0  0
  -12.9369   -2.3539  -21.9236 C   0  0  0  0  0  0  0  0  0  0  0  0
  -14.8691    0.6340  -23.3252 C   0  0  0  0  0  0  0  0  0  0  0  0
  -10.8173    4.6905  -19.7823 C   0  0  0  0  0  0  0  0  0  0  0  0
  -12.1480    0.6679  -23.6582 F   0  0  0  0  0  0  0  0  0  0  0  0
  -16.0289    1.2743  -23.6207 C   0  0  0  0  0  0  0  0  0  0  0  0
  -13.0687    3.2377  -21.1358 C   0  0  0  0  0  0  0  0  0  0  0  0
  -13.3344   -1.3497  -22.9537 C   0  0  0  0  0  0  0  0  0  0  0  0
  -13.9995    2.6864  -21.9207 C   0  0  0  0  0  0  0  0  0  0  0  0
  -15.5931   -2.7998  -23.7625 O   0  0  0  0  0  0  0  0  0  0  0  0
  -15.7309   -1.4962  -23.7693 C   0  0  0  0  0  0  0  0  0  0  0  0
  -14.1197    5.3649  -21.4428 C   0  0  0  0  0  0  0  0  0  0  0  0
  -16.2433    2.8760  -23.4743 S   0  0  0  0  0  0  0  0  0  0  0  0
  -15.0260    3.4088  -22.5401 C   0  0  0  0  0  0  0  0  0  0  0  0
   -9.5385    2.7693  -19.3229 C   0  0  0  0  0  0  0  0  0  0  0  0
  -12.1332    5.2944  -19.9616 C   0  0  0  0  0  0  0  0  0  0  0  0
  -12.0816   -0.7123  -23.6553 C   0  0  0  0  0  0  0  0  0  0  0  0
  -16.9394   -0.9442  -24.1353 C   0  0  0  0  0  0  0  0  0  0  0  0
  -10.6583    3.3429  -19.9564 N   0  0  0  0  0  0  0  0  0  0  0  0
  -18.2755    0.9911  -24.4180 O   0  0  0  0  0  0  0  0  0  0  0  0
  -14.6000   -0.6912  -23.3560 C   0  0  0  0  0  0  0  0  0  0  0  0
  -15.0832    4.7829  -22.2860 C   0  0  0  0  0  0  0  0  0  0  0  0
  -13.0739    4.6049  -20.8531 C   0  0  0  0  0  0  0  0  0  0  0  0
   -9.8181    5.4083  -19.4965 O   0  0  0  0  0  0  0  0  0  0  0  0
  -12.0991   -1.0847  -24.9847 F   0  0  0  0  0  0  0  0  0  0  0  0
  1 18  1  0
  2  7  2  0
  2 19  1  0
  2 21  1  0
  3  9  1  0
  4  7  1  0
  4 22  2  0
  5 17  1  0
  5 20  1  0
  5 25  2  0
  6 18  1  0
  7 14  1  0
  8 10  2  0
  8 24  1  0
  9 18  1  0
  9 22  1  0
 10 15  1  0
 11 12  1  0
 12 19  2  0
 12 22  1  0
 13 23  1  0
 13 24  2  0
 14 15  1  0
 15 23  2  0
 16 20  1  0
 17 24  1  0
 18 26  1  0
M  END
>  <ID>  (1) 
conformer_0

$$$$
