
     RDKit          3D

 27 28  0  0  0  0  0  0  0  0999 V2000
  -10.0705    4.6442  -20.9144 C   0  0  0  0  0  0  0  0  0  0  0  0
  -14.4106    4.9127  -22.5318 C   0  0  0  0  0  0  0  0  0  0  0  0
  -18.0393    3.3650  -22.1932 C   0  0  0  0  0  0  0  0  0  0  0  0
  -16.2661   -1.8510  -24.0389 N   0  0  0  0  0  0  0  0  0  0  0  0
  -19.3139    3.7472  -21.9715 C   0  0  0  0  0  0  0  0  0  0  0  0
  -15.8181    0.5070  -23.3661 C   0  0  0  0  0  0  0  0  0  0  0  0
  -16.2945    1.8832  -23.1752 C   0  0  0  0  0  0  0  0  0  0  0  0
  -13.2750    4.1743  -21.8989 C   0  0  0  0  0  0  0  0  0  0  0  0
  -16.5792   -0.5542  -23.8980 C   0  0  0  0  0  0  0  0  0  0  0  0
  -15.1421   -2.5309  -23.7054 C   0  0  0  0  0  0  0  0  0  0  0  0
  -18.7004    1.6535  -23.7244 C   0  0  0  0  0  0  0  0  0  0  0  0
  -15.3550    2.7807  -22.7187 N   0  0  0  0  0  0  0  0  0  0  0  0
   -8.9994    4.4947  -21.9783 O   0  0  0  0  0  0  0  0  0  0  0  0
  -12.8826    2.8732  -21.9398 O   0  0  0  0  0  0  0  0  0  0  0  0
  -20.0275    2.0238  -23.5236 C   0  0  0  0  0  0  0  0  0  0  0  0
  -13.9700   -2.0535  -23.1191 C   0  0  0  0  0  0  0  0  0  0  0  0
  -17.6419    2.2949  -23.0332 C   0  0  0  0  0  0  0  0  0  0  0  0
  -20.3426    3.0865  -22.6484 C   0  0  0  0  0  0  0  0  0  0  0  0
  -13.7435   -0.7147  -22.8413 C   0  0  0  0  0  0  0  0  0  0  0  0
  -12.6144    5.0272  -20.8890 C   0  0  0  0  0  0  0  0  0  0  0  0
  -14.5443    0.2888  -22.9723 C   0  0  0  0  0  0  0  0  0  0  0  0
   -8.9281    5.1308  -18.8758 O   0  0  0  0  0  0  0  0  0  0  0  0
  -11.4745    4.3210  -20.2978 C   0  0  0  0  0  0  0  0  0  0  0  0
  -15.6633    4.1173  -22.2340 C   0  0  0  0  0  0  0  0  0  0  0  0
   -9.3472    2.9563  -19.3351 O   0  0  0  0  0  0  0  0  0  0  0  0
  -12.8872   -3.0196  -22.6857 C   0  0  0  0  0  0  0  0  0  0  0  0
   -9.2601    4.2074  -19.6056 C   0  0  0  0  0  0  0  0  0  0  0  0
  1 13  1  0
  1 23  1  0
  1 27  1  0
  2  8  1  0
  2 24  1  0
  3  5  2  0
  3 17  1  0
  4  9  2  0
  4 10  1  0
  5 18  1  0
  6  7  1  0
  6  9  1  0
  6 21  1  0
  7 12  2  3
  7 17  1  0
  8 14  1  0
  8 20  1  0
 10 16  2  0
 11 15  2  0
 11 17  1  0
 12 24  1  0
 15 18  1  0
 16 19  1  0
 16 26  1  0
 19 21  2  0
 20 23  1  0
 22 27  2  0
 25 27  1  0
M  END
>  <ID>  (1) 
conformer_0

$$$$
