
     RDKit          3D

 27 29  0  0  0  0  0  0  0  0999 V2000
  -16.2173    2.5884  -23.0045 N   0  0  0  0  0  0  0  0  0  0  0  0
  -11.8022   -1.4938  -22.5029 O   0  0  0  0  0  0  0  0  0  0  0  0
  -13.6777    4.8993  -21.3189 C   0  0  0  0  0  0  0  0  0  0  0  0
  -16.8249    0.2584  -23.7485 N   0  0  0  0  0  0  0  0  0  0  0  0
  -11.5923   -1.1818  -23.9409 C   0  0  0  0  0  0  0  0  0  0  0  0
  -15.8713    4.2054  -21.5139 C   0  0  0  0  0  0  0  0  0  0  0  0
   -9.6171    3.1564  -19.4300 O   0  0  0  0  0  0  0  0  0  0  0  0
  -16.6692    3.9166  -22.8087 C   0  0  0  0  0  0  0  0  0  0  0  0
  -17.3779   -1.8604  -24.5010 C   0  0  0  0  0  0  0  0  0  0  0  0
  -12.5690    4.3697  -20.4188 C   0  0  0  0  0  0  0  0  0  0  0  0
  -14.5270    0.8565  -22.9377 C   0  0  0  0  0  0  0  0  0  0  0  0
  -11.2830    4.5933  -21.1510 C   0  0  0  0  0  0  0  0  0  0  0  0
  -10.2479    5.2766  -20.4003 C   0  0  0  0  0  0  0  0  0  0  0  0
  -13.2556    0.3856  -22.8272 C   0  0  0  0  0  0  0  0  0  0  0  0
  -11.3079    4.5580  -22.4743 O   0  0  0  0  0  0  0  0  0  0  0  0
  -13.9266   -1.8417  -23.4521 C   0  0  0  0  0  0  0  0  0  0  0  0
  -16.1823   -2.2482  -24.1297 N   0  0  0  0  0  0  0  0  0  0  0  0
  -15.2121   -1.3983  -23.6747 C   0  0  0  0  0  0  0  0  0  0  0  0
  -14.8624    2.3180  -22.5744 C   0  0  0  0  0  0  0  0  0  0  0  0
  -18.1430    4.2086  -22.8361 C   0  0  0  0  0  0  0  0  0  0  0  0
  -12.8162   -0.9542  -23.1788 C   0  0  0  0  0  0  0  0  0  0  0  0
   -9.4400    4.4332  -19.4715 C   0  0  0  0  0  0  0  0  0  0  0  0
  -18.9183    3.2669  -22.0216 O   0  0  0  0  0  0  0  0  0  0  0  0
   -8.6227    5.0737  -18.7160 O   0  0  0  0  0  0  0  0  0  0  0  0
  -17.7098   -0.5290  -24.2661 C   0  0  0  0  0  0  0  0  0  0  0  0
  -14.4714    3.6895  -21.9454 N   0  0  0  0  0  0  0  0  0  0  0  0
  -15.5639   -0.0289  -23.4407 C   0  0  0  0  0  0  0  0  0  0  0  0
  1  8  1  0
  1 19  2  0
  2 21  1  0
  3 10  1  0
  3 26  1  0
  4 25  2  0
  4 27  1  0
  5 21  1  0
  6  8  1  0
  6 26  1  0
  7 22  2  0
  8 20  1  0
  9 17  2  0
  9 25  1  0
 10 12  1  0
 11 14  2  0
 11 19  1  0
 11 27  1  0
 12 13  1  0
 12 15  1  0
 13 22  1  0
 14 21  1  0
 16 18  1  0
 16 21  1  0
 17 18  1  0
 18 27  2  0
 19 26  1  0
 20 23  1  0
 22 24  1  0
M  END
>  <ID>  (1) 
conformer_0

$$$$
