
     RDKit          3D

 25 27  0  0  0  0  0  0  0  0999 V2000
  -15.2604   -1.6998  -23.7222 C   0  0  0  0  0  0  0  0  0  0  0  0
  -14.8198   -0.4210  -23.3302 C   0  0  0  0  0  0  0  0  0  0  0  0
  -14.6696    2.5897  -22.1215 C   0  0  0  0  0  0  0  0  0  0  0  0
  -13.5469   -0.2507  -22.8952 C   0  0  0  0  0  0  0  0  0  0  0  0
  -13.1401   -2.5210  -23.2328 C   0  0  0  0  0  0  0  0  0  0  0  0
  -13.2583    2.8579  -22.0369 C   0  0  0  0  0  0  0  0  0  0  0  0
   -9.8612   -0.9382  -21.7765 O   0  0  0  0  0  0  0  0  0  0  0  0
  -15.4879    3.2465  -21.2770 C   0  0  0  0  0  0  0  0  0  0  0  0
  -17.0021    0.3192  -23.9463 N   0  0  0  0  0  0  0  0  0  0  0  0
  -11.0358    5.0521  -19.9453 O   0  0  0  0  0  0  0  0  0  0  0  0
  -16.5132   -1.9919  -24.1648 N   0  0  0  0  0  0  0  0  0  0  0  0
  -14.3609   -2.7520  -23.6525 N   0  0  0  0  0  0  0  0  0  0  0  0
   -8.2951   -2.5560  -21.0473 O   0  0  0  0  0  0  0  0  0  0  0  0
  -12.6411   -1.3474  -22.8547 C   0  0  0  0  0  0  0  0  0  0  0  0
  -11.0312   -1.4975  -22.3518 C   0  0  0  0  0  0  0  0  0  0  0  0
  -13.6690    4.3766  -20.2214 C   0  0  0  0  0  0  0  0  0  0  0  0
  -12.7512    3.7820  -21.1192 C   0  0  0  0  0  0  0  0  0  0  0  0
  -15.7952    0.6205  -23.4048 C   0  0  0  0  0  0  0  0  0  0  0  0
  -10.6171    4.3374  -22.0145 O   0  0  0  0  0  0  0  0  0  0  0  0
   -7.5437   -0.6853  -22.1436 O   0  0  0  0  0  0  0  0  0  0  0  0
  -15.0181    4.1020  -20.3219 C   0  0  0  0  0  0  0  0  0  0  0  0
  -17.3317   -0.9490  -24.2790 C   0  0  0  0  0  0  0  0  0  0  0  0
  -15.4434    1.8493  -22.9799 N   0  0  0  0  0  0  0  0  0  0  0  0
  -11.3606    4.3189  -20.9975 C   0  0  0  0  0  0  0  0  0  0  0  0
   -8.4975   -1.4673  -21.7074 C   0  0  0  0  0  0  0  0  0  0  0  0
  1  2  1  0
  1 11  1  0
  1 12  2  0
  2  4  2  0
  2 18  1  0
  3  6  2  0
  3  8  1  0
  3 23  1  0
  4 14  1  0
  5 12  1  0
  5 14  2  0
  6 17  1  0
  7 15  1  0
  7 25  1  0
  8 21  2  0
  9 18  2  0
  9 22  1  0
 10 24  2  0
 11 22  2  0
 13 25  2  0
 14 15  1  0
 16 17  2  0
 16 21  1  0
 17 24  1  0
 18 23  1  0
 19 24  1  0
 20 25  1  0
M  END
>  <ID>  (1) 
conformer_0

$$$$
