
     RDKit          3D

 40 47  0  0  0  0  0  0  0  0999 V2000
  -16.2879   -1.8843  -24.1078 C   0  0  0  0  0  0  0  0  0  0  0  0
  -16.3671    4.0153  -22.9929 C   0  0  0  0  0  0  0  0  0  0  0  0
  -18.1425    2.2845  -23.6645 C   0  0  0  0  0  0  0  0  0  0  0  0
  -14.1935   -2.9445  -23.5750 N   0  0  0  0  0  0  0  0  0  0  0  0
   -8.2138   -1.9446  -21.7035 C   0  0  0  0  0  0  0  0  0  0  0  0
  -18.3645    5.4939  -20.1537 C   0  0  0  0  0  0  0  0  0  0  0  0
  -17.3970    4.7932  -21.0425 C   0  0  0  0  0  0  0  0  0  0  0  0
  -19.0177    6.7215  -20.8304 C   0  0  0  0  0  0  0  0  0  0  0  0
   -8.8610    4.4282  -20.9346 O   0  0  0  0  0  0  0  0  0  0  0  0
   -9.4564    5.3701  -18.7062 O   0  0  0  0  0  0  0  0  0  0  0  0
  -11.9667   -1.0439  -22.7174 C   0  0  0  0  0  0  0  0  0  0  0  0
  -14.4979    1.6933  -23.0108 C   0  0  0  0  0  0  0  0  0  0  0  0
  -13.8692    4.6467  -21.5315 C   0  0  0  0  0  0  0  0  0  0  0  0
  -15.8585    1.6061  -23.3038 C   0  0  0  0  0  0  0  0  0  0  0  0
  -13.6709    0.5730  -22.9870 C   0  0  0  0  0  0  0  0  0  0  0  0
  -14.2772   -0.6485  -23.3382 C   0  0  0  0  0  0  0  0  0  0  0  0
  -17.5995   -1.3266  -24.3381 N   0  0  0  0  0  0  0  0  0  0  0  0
  -18.5299    0.9777  -24.0518 C   0  0  0  0  0  0  0  0  0  0  0  0
  -13.6399    5.0580  -20.1986 C   0  0  0  0  0  0  0  0  0  0  0  0
  -15.5180   -3.0499  -23.9836 N   0  0  0  0  0  0  0  0  0  0  0  0
  -16.0491    4.6560  -20.8132 N   0  0  0  0  0  0  0  0  0  0  0  0
  -12.2414    0.2800  -22.6650 C   0  0  0  0  0  0  0  0  0  0  0  0
  -11.5430    4.7840  -21.9175 C   0  0  0  0  0  0  0  0  0  0  0  0
   -9.6705   -1.7995  -21.6177 O   0  0  0  0  0  0  0  0  0  0  0  0
   -9.6287    5.4907  -20.1876 S   0  0  0  0  0  4  0  0  0  0  0  0
  -16.3214    0.3753  -23.6720 C   0  0  0  0  0  0  0  0  0  0  0  0
  -12.7873    4.5780  -22.3830 C   0  0  0  0  0  0  0  0  0  0  0  0
  -19.7012    6.2459  -22.1104 C   0  0  0  0  0  0  0  0  0  0  0  0
  -15.2576    4.3317  -22.0332 C   0  0  0  0  0  0  0  0  0  0  0  0
  -12.3402    5.3510  -19.7538 C   0  0  0  0  0  0  0  0  0  0  0  0
  -17.5610    0.0216  -24.0492 C   0  0  0  0  0  0  0  0  0  0  0  0
  -17.5791    4.8762  -22.5547 C   0  0  0  0  0  0  0  0  0  0  0  0
   -9.1331    6.8166  -20.5263 O   0  0  0  0  0  0  0  0  0  0  0  0
  -10.6103   -1.5275  -22.4832 C   0  0  0  0  0  0  0  0  0  0  0  0
  -16.8222    2.6399  -23.2972 C   0  0  0  0  0  0  0  0  0  0  0  0
   -7.5472   -0.7374  -21.9306 O   0  0  0  0  0  0  0  0  0  0  0  0
  -11.2821    5.1568  -20.6338 C   0  0  0  0  0  0  0  0  0  0  0  0
  -19.1490    4.9530  -22.7121 C   0  0  0  0  0  0  0  0  0  0  0  0
  -13.5348   -1.7157  -23.2442 C   0  0  0  0  0  0  0  0  0  0  0  0
  -15.5539   -0.7445  -23.7284 C   0  0  0  0  0  0  0  0  0  0  0  0
  1 17  1  0
  1 20  1  0
  1 40  2  0
  2 29  1  0
  2 32  1  0
  2 35  1  0
  3 18  2  0
  3 35  1  0
  4 20  2  0
  4 39  1  0
  5 24  1  0
  5 36  1  0
  6  7  1  0
  6  8  1  0
  7 21  1  0
  7 32  1  0
  8 28  1  0
  9 25  1  0
 10 25  1  0
 11 22  1  0
 11 34  1  0
 11 39  1  0
 12 14  2  0
 12 15  1  0
 13 19  2  0
 13 27  1  0
 13 29  1  0
 14 26  1  0
 14 35  1  0
 15 16  1  0
 15 22  1  0
 16 39  2  0
 16 40  1  0
 17 31  1  0
 18 31  1  0
 19 30  1  0
 21 29  1  0
 23 27  2  0
 23 37  1  0
 24 34  1  0
 25 33  1  0
 25 37  1  0
 26 31  2  0
 26 40  1  0
 28 38  1  0
 30 37  2  0
 32 38  1  0
M  END
>  <ID>  (1) 
conformer_0

$$$$
