
     RDKit          3D

 31 34  0  0  0  0  0  0  0  0999 V2000
  -12.5904   -2.7538  -22.1638 C   0  0  0  0  0  0  0  0  0  0  0  0
  -15.9189    2.0724  -22.9500 C   0  0  0  0  0  0  0  0  0  0  0  0
  -14.5165   -1.3867  -23.3187 C   0  0  0  0  0  0  0  0  0  0  0  0
  -16.6479   -0.7319  -23.9115 C   0  0  0  0  0  0  0  0  0  0  0  0
   -7.9951    4.6842  -23.3181 O   0  0  0  0  0  0  0  0  0  0  0  0
  -13.0554   -1.5403  -22.9189 C   0  0  0  0  0  0  0  0  0  0  0  0
  -17.9896    1.1849  -23.9937 C   0  0  0  0  0  0  0  0  0  0  0  0
   -9.3523    4.0380  -19.0207 C   0  0  0  0  0  0  0  0  0  0  0  0
  -17.8328   -0.1137  -24.2476 N   0  0  0  0  0  0  0  0  0  0  0  0
  -16.5164   -2.1518  -24.1601 N   0  0  0  0  0  0  0  0  0  0  0  0
  -15.7428    3.4626  -22.5320 N   0  0  0  0  0  0  0  0  0  0  0  0
   -9.8069    4.6353  -20.2808 C   0  0  0  0  0  0  0  0  0  0  0  0
  -11.1373    4.7648  -20.7478 C   0  0  0  0  0  0  0  0  0  0  0  0
  -11.3723    4.9809  -22.1291 C   0  0  0  0  0  0  0  0  0  0  0  0
  -15.2310   -2.4955  -23.7889 N   0  0  0  0  0  0  0  0  0  0  0  0
  -17.1312    1.9080  -23.4339 N   0  0  0  0  0  0  0  0  0  0  0  0
  -13.7333    4.7662  -21.8657 C   0  0  0  0  0  0  0  0  0  0  0  0
   -8.9812    4.8943  -22.5156 C   0  0  0  0  0  0  0  0  0  0  0  0
  -15.4265   -0.2429  -23.3583 C   0  0  0  0  0  0  0  0  0  0  0  0
  -15.0553    1.0214  -22.9108 N   0  0  0  0  0  0  0  0  0  0  0  0
  -12.6444    4.9686  -22.6706 C   0  0  0  0  0  0  0  0  0  0  0  0
  -15.3315    5.7333  -23.0983 O   0  0  0  0  0  0  0  0  0  0  0  0
   -9.4813    2.7532  -18.9931 O   0  0  0  0  0  0  0  0  0  0  0  0
   -8.7085    4.8546  -21.1513 C   0  0  0  0  0  0  0  0  0  0  0  0
   -8.7243    4.6681  -18.1289 O   0  0  0  0  0  0  0  0  0  0  0  0
  -17.1039    4.1134  -22.6146 C   0  0  0  0  0  0  0  0  0  0  0  0
  -13.5491    4.6267  -20.5056 C   0  0  0  0  0  0  0  0  0  0  0  0
  -12.2588    4.6765  -19.9303 C   0  0  0  0  0  0  0  0  0  0  0  0
  -15.0512    4.6885  -22.4597 C   0  0  0  0  0  0  0  0  0  0  0  0
  -12.1433   -0.4303  -22.8638 C   0  0  0  0  0  0  0  0  0  0  0  0
  -10.2701    5.0900  -22.9858 C   0  0  0  0  0  0  0  0  0  0  0  0
  1  6  1  0
  2 11  1  0
  2 16  1  0
  2 20  2  0
  3  6  1  0
  3 15  1  0
  3 19  2  0
  4  9  2  0
  4 10  1  0
  4 19  1  0
  5 18  1  0
  6 30  1  0
  7  9  1  0
  7 16  2  0
  8 12  1  0
  8 23  2  0
  8 25  1  0
 10 15  1  0
 11 26  1  0
 11 29  1  0
 12 13  1  0
 12 24  1  0
 13 14  2  0
 13 28  1  0
 14 21  1  0
 14 31  1  0
 17 21  2  0
 17 27  1  0
 17 29  1  0
 18 24  1  0
 18 31  2  0
 19 20  1  0
 22 29  2  0
 27 28  2  0
M  END
>  <ID>  (1) 
conformer_0

$$$$
