
     RDKit          3D

 23 25  0  0  0  0  0  0  0  0999 V2000
  -15.7572    1.9382  -22.9888 C   0  0  0  0  0  0  0  0  0  0  0  0
  -10.2726    4.2414  -20.4452 P   0  0  0  0  0  4  0  0  0  0  0  0
  -17.6644    0.7430  -24.0478 C   0  0  0  0  0  0  0  0  0  0  0  0
  -15.0230    4.4502  -21.9837 C   0  0  0  0  0  0  0  0  0  0  0  0
  -13.7483   -0.1527  -22.9128 N   0  0  0  0  0  0  0  0  0  0  0  0
  -11.8389    4.2115  -21.4721 C   0  0  0  0  0  0  0  0  0  0  0  0
  -14.5931    2.1345  -22.3000 C   0  0  0  0  0  0  0  0  0  0  0  0
  -16.5001    3.1014  -23.1734 C   0  0  0  0  0  0  0  0  0  0  0  0
  -10.2484    2.9385  -19.5914 O   0  0  0  0  0  1  0  0  0  0  0  0
  -14.6534   -1.0660  -23.2931 C   0  0  0  0  0  0  0  0  0  0  0  0
  -16.1878    4.2961  -22.7199 C   0  0  0  0  0  0  0  0  0  0  0  0
  -12.8518   -2.4854  -22.7255 C   0  0  0  0  0  0  0  0  0  0  0  0
  -11.8458   -1.4779  -23.1386 C   0  0  0  0  0  0  0  0  0  0  0  0
  -16.3801    0.7187  -23.5115 C   0  0  0  0  0  0  0  0  0  0  0  0
   -9.0303    4.4037  -21.3866 O   0  0  0  0  0  0  0  0  0  0  0  0
  -10.3486    5.4910  -19.4849 O   0  0  0  0  0  0  0  0  0  0  0  0
  -13.0084    3.4846  -20.9252 C   0  0  0  0  0  0  0  0  0  0  0  0
  -18.0109   -0.4987  -24.4045 C   0  0  0  0  0  0  0  0  0  0  0  0
  -14.1235   -2.2831  -23.2868 N   0  0  0  0  0  0  0  0  0  0  0  0
  -16.9777   -1.3468  -24.1507 N   0  0  0  0  0  0  0  0  0  0  0  0
  -14.2205    3.3365  -21.7755 C   0  0  0  0  0  0  0  0  0  0  0  0
  -12.4525   -0.1943  -23.2282 C   0  0  0  0  0  0  0  0  0  0  0  0
  -15.9768   -0.6284  -23.6325 C   0  0  0  0  0  0  0  0  0  0  0  0
  1  7  1  0
  1  8  1  0
  1 14  1  0
  2  6  1  0
  2  9  2  0
  2 15  1  0
  2 16  1  0
  3 14  1  0
  3 18  1  0
  4 11  1  0
  4 21  1  0
  5 10  1  0
  5 22  1  0
  6 17  2  3
  7 21  2  0
  8 11  2  0
 10 19  2  0
 10 23  1  0
 12 13  1  0
 12 19  1  0
 13 22  1  0
 14 23  2  0
 17 21  1  0
 18 20  1  0
 20 23  1  0
M  END
>  <ID>  (1) 
conformer_0

$$$$
