
     RDKit          3D

 23 24  0  0  0  0  0  0  0  0999 V2000
  -12.1651   -1.7629  -22.5649 C   0  0  0  0  0  0  0  0  0  0  0  0
  -17.6136   -1.0283  -24.4867 N   0  0  0  0  0  0  0  0  0  0  0  0
  -13.6303    2.6776  -21.4947 C   0  0  0  0  0  0  0  0  0  0  0  0
  -15.6336   -1.9836  -23.7854 N   0  0  0  0  0  0  0  0  0  0  0  0
  -13.1238    5.3303  -21.4144 O   0  0  0  0  0  0  0  0  0  0  0  0
  -15.9967    0.5476  -23.4161 C   0  0  0  0  0  0  0  0  0  0  0  0
  -11.1866    4.6837  -20.0766 N   0  0  0  0  0  0  0  0  0  0  0  0
  -14.6822    2.2953  -22.3234 C   0  0  0  0  0  0  0  0  0  0  0  0
   -8.7542    4.4864  -21.0141 O   0  0  0  0  0  1  0  0  0  0  0  0
  -11.0833    4.8514  -22.6863 O   0  0  0  0  0  0  0  0  0  0  0  0
  -13.5114   -1.2058  -22.8957 C   0  0  0  0  0  0  0  0  0  0  0  0
  -11.8924    4.4736  -21.4820 C   0  0  0  0  0  0  0  0  0  0  0  0
  -12.3115    2.9218  -21.6317 C   0  0  0  0  0  0  0  0  0  0  0  0
  -13.6878    0.1142  -22.6783 C   0  0  0  0  0  0  0  0  0  0  0  0
   -9.5863    2.9111  -19.2395 O   0  0  0  0  0  1  0  0  0  0  0  0
  -16.3973   -0.8296  -23.8940 C   0  0  0  0  0  0  0  0  0  0  0  0
  -15.7392    3.1794  -22.5119 C   0  0  0  0  0  0  0  0  0  0  0  0
  -16.9990    1.4937  -23.5994 C   0  0  0  0  0  0  0  0  0  0  0  0
   -9.0108    5.3873  -18.5463 C   0  0  0  0  0  0  0  0  0  0  0  0
  -14.7501    0.9775  -22.8127 C   0  0  0  0  0  0  0  0  0  0  0  0
  -14.4241   -2.1096  -23.3713 C   0  0  0  0  0  0  0  0  0  0  0  0
  -16.8870    2.7816  -23.1427 C   0  0  0  0  0  0  0  0  0  0  0  0
   -9.6247    4.3337  -19.7841 S   0  0  0  0  0  4  0  0  0  0  0  0
  1 11  1  0
  2 16  2  0
  3  8  1  0
  3 13  1  0
  4 16  1  0
  4 21  2  0
  5 12  1  0
  6 16  1  0
  6 18  2  0
  6 20  1  0
  7 12  1  0
  7 23  1  0
  8 17  1  0
  8 20  2  0
  9 23  1  0
 10 12  1  0
 11 14  2  0
 11 21  1  0
 12 13  1  0
 14 20  1  0
 15 23  1  0
 17 22  2  0
 18 22  1  0
 19 23  1  0
M  END
>  <ID>  (1) 
conformer_0

$$$$
