
     RDKit          3D

 31 35  0  0  0  0  0  0  0  0999 V2000
  -15.1600    4.0907  -22.2502 C   0  0  0  0  0  0  0  0  0  0  0  0
  -17.3830    4.1882  -23.1302 C   0  0  0  0  0  0  0  0  0  0  0  0
  -15.0829    2.7098  -22.6461 C   0  0  0  0  0  0  0  0  0  0  0  0
  -11.0143    2.1284  -20.2751 O   0  0  0  0  0  0  0  0  0  0  0  0
  -12.5235    1.7567  -22.8612 C   0  0  0  0  0  0  0  0  0  0  0  0
  -13.8171   -2.3924  -23.5272 C   0  0  0  0  0  0  0  0  0  0  0  0
  -16.2566    2.0464  -23.1063 C   0  0  0  0  0  0  0  0  0  0  0  0
   -9.2947    2.8692  -19.1830 O   0  0  0  0  0  0  0  0  0  0  0  0
  -12.3442    5.8420  -19.5675 C   0  0  0  0  0  0  0  0  0  0  0  0
  -13.6826    6.2297  -19.5707 C   0  0  0  0  0  0  0  0  0  0  0  0
  -12.3062   -0.5588  -23.0600 C   0  0  0  0  0  0  0  0  0  0  0  0
  -16.3276    4.7847  -22.5442 C   0  0  0  0  0  0  0  0  0  0  0  0
  -16.2506    0.5870  -23.2076 C   0  0  0  0  0  0  0  0  0  0  0  0
  -12.7509    4.5576  -21.5376 C   0  0  0  0  0  0  0  0  0  0  0  0
  -17.3962   -0.0973  -23.8191 C   0  0  0  0  0  0  0  0  0  0  0  0
  -11.8607    4.9521  -20.5591 C   0  0  0  0  0  0  0  0  0  0  0  0
  -18.6272    0.4492  -24.3960 C   0  0  0  0  0  0  0  0  0  0  0  0
  -15.0014   -0.2434  -23.1270 C   0  0  0  0  0  0  0  0  0  0  0  0
  -10.4406    4.4818  -20.5057 C   0  0  0  0  0  0  0  0  0  0  0  0
  -13.8148    2.0776  -22.5195 C   0  0  0  0  0  0  0  0  0  0  0  0
  -10.2140    3.0776  -19.9642 C   0  0  0  0  0  0  0  0  0  0  0  0
  -14.9676   -3.0276  -23.9577 C   0  0  0  0  0  0  0  0  0  0  0  0
  -11.7055    0.0652  -24.3080 C   0  0  0  0  0  0  0  0  0  0  0  0
  -17.1507   -1.4349  -24.0230 N   0  0  0  0  0  0  0  0  0  0  0  0
  -14.5272    5.7331  -20.5250 C   0  0  0  0  0  0  0  0  0  0  0  0
  -16.2025   -2.3725  -24.0556 N   0  0  0  0  0  0  0  0  0  0  0  0
  -14.1331    4.7630  -21.4965 C   0  0  0  0  0  0  0  0  0  0  0  0
  -13.7079   -1.0104  -23.2289 C   0  0  0  0  0  0  0  0  0  0  0  0
  -11.9109    1.5525  -24.1658 C   0  0  0  0  0  0  0  0  0  0  0  0
  -12.1912    0.5439  -22.1220 N   0  0  0  0  0  0  0  0  0  0  0  0
  -17.3373    2.8310  -23.3752 C   0  0  0  0  0  0  0  0  0  0  0  0
  1  3  2  0
  1 12  1  0
  1 27  1  0
  2 12  2  0
  2 31  1  0
  3  7  1  0
  3 20  1  0
  4 21  2  0
  5 20  1  0
  5 29  1  0
  5 30  1  0
  6 22  2  0
  6 28  1  0
  7 13  1  0
  7 31  2  0
  8 21  1  0
  9 10  1  0
  9 16  1  0
 10 25  2  0
 11 23  1  0
 11 28  1  0
 11 30  1  0
 13 15  1  0
 13 18  2  0
 14 16  2  0
 14 27  1  0
 15 17  1  0
 15 24  1  0
 16 19  1  0
 18 28  2  0
 19 21  1  0
 22 26  1  0
 23 29  1  0
 24 26  1  0
 25 27  1  0
M  END
>  <ID>  (1) 
conformer_0

$$$$
