
     RDKit          3D

 36 40  0  0  0  0  0  0  0  0999 V2000
  -17.6617    2.7511  -23.1944 C   0  0  0  0  0  0  0  0  0  0  0  0
  -13.2573   -1.3609  -23.0942 C   0  0  0  0  0  0  0  0  0  0  0  0
  -15.8867   -3.1630  -23.7693 O   0  0  0  0  0  0  0  0  0  0  0  0
  -13.5040   -2.1265  -21.8502 C   0  0  0  0  0  0  0  0  0  0  0  0
  -10.9808   -1.1419  -22.4589 O   0  0  0  0  0  0  0  0  0  0  0  0
  -16.2641    0.3526  -23.5858 C   0  0  0  0  0  0  0  0  0  0  0  0
  -17.8356    5.0711  -22.3635 C   0  0  0  0  0  0  0  0  0  0  0  0
  -16.6583    5.4758  -21.7417 C   0  0  0  0  0  0  0  0  0  0  0  0
   -8.5778    4.4298  -21.0486 O   0  0  0  0  0  0  0  0  0  0  0  0
  -19.4952   -0.4680  -24.9626 N   0  0  0  0  0  0  0  0  0  0  0  0
  -11.5972    5.2579  -20.1616 C   0  0  0  0  0  0  0  0  0  0  0  0
  -16.3445   -1.9621  -24.0113 C   0  0  0  0  0  0  0  0  0  0  0  0
  -10.2036    5.5534  -19.7884 C   0  0  0  0  0  0  0  0  0  0  0  0
  -11.9770    4.1287  -20.8714 C   0  0  0  0  0  0  0  0  0  0  0  0
  -17.5914    0.5260  -23.9204 C   0  0  0  0  0  0  0  0  0  0  0  0
  -18.2758   -0.5924  -24.4510 C   0  0  0  0  0  0  0  0  0  0  0  0
  -18.2752    1.7004  -23.7898 N   0  0  0  0  0  0  0  0  0  0  0  0
  -11.6348   -0.5915  -24.7191 C   0  0  0  0  0  0  0  0  0  0  0  0
  -16.3622    2.5907  -22.7954 C   0  0  0  0  0  0  0  0  0  0  0  0
  -12.5942    6.1754  -19.7878 C   0  0  0  0  0  0  0  0  0  0  0  0
  -14.2315    4.8977  -21.0510 C   0  0  0  0  0  0  0  0  0  0  0  0
  -13.9181    6.0024  -20.2610 C   0  0  0  0  0  0  0  0  0  0  0  0
  -18.2762    3.9749  -22.9438 C   0  0  0  0  0  0  0  0  0  0  0  0
   -9.2114    4.4624  -19.9401 C   0  0  0  0  0  0  0  0  0  0  0  0
  -13.9517   -0.4158  -25.3561 C   0  0  0  0  0  0  0  0  0  0  0  0
  -14.2256   -0.8980  -24.0153 C   0  0  0  0  0  0  0  0  0  0  0  0
  -15.5764   -0.8364  -23.8012 C   0  0  0  0  0  0  0  0  0  0  0  0
  -17.6323   -1.7977  -24.3944 N   0  0  0  0  0  0  0  0  0  0  0  0
  -15.6604    3.4906  -22.2004 C   0  0  0  0  0  0  0  0  0  0  0  0
  -13.2403    3.9323  -21.3003 C   0  0  0  0  0  0  0  0  0  0  0  0
  -11.9362   -1.0670  -23.4315 C   0  0  0  0  0  0  0  0  0  0  0  0
  -15.6286    1.4238  -22.9906 C   0  0  0  0  0  0  0  0  0  0  0  0
  -15.5266    4.6552  -21.6292 C   0  0  0  0  0  0  0  0  0  0  0  0
  -10.3388   -0.4751  -25.0159 F   0  0  0  0  0  0  0  0  0  0  0  0
   -9.1715    3.5867  -19.0199 O   0  0  0  0  0  0  0  0  0  0  0  0
  -12.6582   -0.2399  -25.7008 C   0  0  0  0  0  0  0  0  0  0  0  0
  1 17  2  0
  1 19  1  0
  1 23  1  0
  2  4  1  0
  2 26  2  0
  2 31  1  0
  3 12  2  0
  5 31  1  0
  6 15  2  0
  6 27  1  0
  6 32  1  0
  7  8  1  0
  7 23  2  0
  8 33  2  0
  9 24  2  0
 10 16  2  0
 11 13  1  0
 11 14  2  0
 11 20  1  0
 12 27  1  0
 12 28  1  0
 13 24  1  0
 14 30  1  0
 15 16  1  0
 15 17  1  0
 16 28  1  0
 18 31  2  0
 18 34  1  0
 18 36  1  0
 19 29  2  0
 19 32  1  0
 20 22  2  0
 21 22  1  0
 21 30  2  0
 21 33  1  0
 24 35  1  0
 25 26  1  0
 25 36  2  0
 26 27  1  0
 29 33  1  0
M  END
>  <ID>  (1) 
conformer_0

$$$$
