
     RDKit          3D

 28 31  0  0  0  0  0  0  0  0999 V2000
  -16.2102    0.9414  -23.7655 C   0  0  0  0  0  0  0  0  0  0  0  0
  -16.0868   -2.3421  -24.1357 N   0  0  0  0  0  0  0  0  0  0  0  0
  -16.8887    3.6867  -23.1631 C   0  0  0  0  0  0  0  0  0  0  0  0
  -14.8626    0.6710  -23.4039 C   0  0  0  0  0  0  0  0  0  0  0  0
  -12.6849    0.4904  -22.6169 N   0  0  0  0  0  0  0  0  0  0  0  0
  -17.2998    3.4820  -21.7142 C   0  0  0  0  0  0  0  0  0  0  0  0
  -10.1801    3.3465  -19.9262 O   0  0  0  0  0  0  0  0  0  0  0  0
  -12.5927    5.3295  -20.2242 C   0  0  0  0  0  0  0  0  0  0  0  0
  -12.8222   -2.0698  -22.7244 C   0  0  0  0  0  0  0  0  0  0  0  0
  -16.9270   -0.0429  -24.3570 C   0  0  0  0  0  0  0  0  0  0  0  0
  -13.6071    3.7803  -21.7116 O   0  0  0  0  0  0  0  0  0  0  0  0
  -16.7474    2.3110  -23.7088 C   0  0  0  0  0  0  0  0  0  0  0  0
  -12.9773    3.8903  -20.4131 C   0  0  0  0  0  0  0  0  0  0  0  0
  -11.7198   -2.4917  -22.1916 F   0  0  0  0  0  0  0  0  0  0  0  0
  -14.8955   -1.9742  -23.6080 C   0  0  0  0  0  0  0  0  0  0  0  0
  -13.1421   -0.7243  -22.8269 C   0  0  0  0  0  0  0  0  0  0  0  0
   -8.9715    5.1158  -19.0970 O   0  0  0  0  0  0  0  0  0  0  0  0
   -9.0978    6.1889  -21.1738 O   0  0  0  0  0  0  0  0  0  0  0  0
  -15.9361    3.0951  -21.0880 C   0  0  0  0  0  0  0  0  0  0  0  0
  -11.2811    5.7824  -19.9282 O   0  0  0  0  0  0  0  0  0  0  0  0
  -15.0215    4.1314  -21.7239 C   0  0  0  0  0  0  0  0  0  0  0  0
   -9.8883    4.8894  -20.4519 P   0  0  0  0  0  5  0  0  0  0  0  0
  -10.3728    4.3722  -21.8791 O   0  0  0  0  0  0  0  0  0  0  0  0
  -15.5381    4.3152  -23.0386 O   0  0  0  0  0  0  0  0  0  0  0  0
  -13.6734    1.3921  -22.9510 C   0  0  0  0  0  0  0  0  0  0  0  0
  -16.9653   -1.3868  -24.4855 C   0  0  0  0  0  0  0  0  0  0  0  0
  -14.5151   -0.6411  -23.3709 C   0  0  0  0  0  0  0  0  0  0  0  0
  -13.8608   -2.8294  -23.2031 N   0  0  0  0  0  0  0  0  0  0  0  0
  1  4  1  0
  1 10  1  0
  1 12  1  0
  2 15  1  0
  2 26  2  0
  3  6  1  0
  3 12  1  0
  3 24  1  0
  4 25  1  0
  4 27  1  0
  5 16  1  0
  5 25  1  0
  6 19  1  0
  7 22  1  0
  8 13  1  0
  8 20  1  0
  9 14  1  0
  9 16  2  0
  9 28  1  0
 10 26  1  0
 11 13  1  0
 11 21  1  0
 15 27  2  0
 15 28  1  0
 16 27  1  0
 17 22  1  0
 18 22  1  0
 19 21  1  0
 20 22  1  0
 21 24  1  0
 22 23  1  0
M  END
>  <ID>  (1) 
conformer_0

$$$$
