
     RDKit          3D

 22 22  0  0  0  0  0  0  0  0999 V2000
  -15.0513    5.6775  -21.1921 O   0  0  0  0  0  0  0  0  0  0  0  0
  -14.0830   -1.2393  -23.1708 C   0  0  0  0  0  0  0  0  0  0  0  0
  -13.1350    4.2678  -21.2787 N   0  0  0  0  0  0  0  0  0  0  0  0
  -11.8251   -0.5318  -23.1804 O   0  0  0  0  0  0  0  0  0  0  0  0
  -16.2203   -2.2817  -24.0492 N   0  0  0  0  0  0  0  0  0  0  0  0
  -12.3209   -2.3636  -22.1021 O   0  0  0  0  0  0  0  0  0  0  0  0
  -17.0733   -0.0301  -24.0666 N   0  0  0  0  0  0  0  0  0  0  0  0
  -10.0513    4.1118  -20.1719 C   0  0  0  0  0  0  0  0  0  0  0  0
  -14.7093    0.0516  -23.0998 C   0  0  0  0  0  0  0  0  0  0  0  0
  -15.9535    0.2893  -23.5407 C   0  0  0  0  0  0  0  0  0  0  0  0
   -9.6318    4.5815  -21.2824 O   0  0  0  0  0  0  0  0  0  0  0  0
  -16.3360    5.8938  -21.8784 C   0  0  0  0  0  0  0  0  0  0  0  0
  -14.5788    2.1944  -22.2261 C   0  0  0  0  0  0  0  0  0  0  0  0
  -14.0842    1.0849  -22.5184 C   0  0  0  0  0  0  0  0  0  0  0  0
  -12.6497   -1.3614  -22.8240 C   0  0  0  0  0  0  0  0  0  0  0  0
  -14.9612   -2.2455  -23.6135 C   0  0  0  0  0  0  0  0  0  0  0  0
  -15.1863    3.3217  -21.9839 C   0  0  0  0  0  0  0  0  0  0  0  0
  -14.4828    4.4666  -21.4538 C   0  0  0  0  0  0  0  0  0  0  0  0
  -11.2443    3.4134  -20.1316 N   0  0  0  0  0  0  0  0  0  0  0  0
   -9.4007    4.1467  -19.0788 O   0  0  0  0  0  0  0  0  0  0  0  0
  -17.2151   -1.4129  -24.3289 C   0  0  0  0  0  0  0  0  0  0  0  0
  -12.2603    3.3204  -21.0389 C   0  0  0  0  0  0  0  0  0  0  0  0
  1 12  1  0
  1 18  1  0
  2  9  1  0
  2 15  1  0
  2 16  1  0
  3 18  1  0
  3 22  1  0
  4 15  2  0
  5 16  2  0
  5 21  1  0
  6 15  1  0
  7 10  1  0
  7 21  1  0
  8 11  2  0
  8 19  1  0
  8 20  1  0
  9 10  2  0
  9 14  1  0
 13 14  2  0
 13 17  2  0
 17 18  1  0
 19 22  1  0
M  END
>  <ID>  (1) 
conformer_0

$$$$
