
     RDKit          3D

 31 33  0  0  0  0  0  0  0  0999 V2000
  -15.4134    0.0489  -23.4094 C   0  0  0  0  0  0  0  0  0  0  0  0
  -13.8743   -1.7922  -23.1040 C   0  0  0  0  0  0  0  0  0  0  0  0
  -12.3554    2.3943  -21.5438 N   0  0  0  0  0  0  0  0  0  0  0  0
  -17.7469    3.0387  -23.4542 C   0  0  0  0  0  0  0  0  0  0  0  0
   -8.4083    5.1084  -17.7686 C   0  0  0  0  0  0  0  0  0  0  0  0
  -17.6685    0.4155  -24.0050 N   0  0  0  0  0  0  0  0  0  0  0  0
  -13.7883    4.2316  -21.1980 C   0  0  0  0  0  0  0  0  0  0  0  0
  -14.1918   -0.3749  -23.0888 C   0  0  0  0  0  0  0  0  0  0  0  0
  -20.2000    3.2230  -22.8784 C   0  0  0  0  0  0  0  0  0  0  0  0
  -14.7821    3.6343  -21.9638 C   0  0  0  0  0  0  0  0  0  0  0  0
  -14.7017   -2.7347  -23.5981 C   0  0  0  0  0  0  0  0  0  0  0  0
  -10.3228    3.7488  -19.9762 C   0  0  0  0  0  0  0  0  0  0  0  0
  -17.2482    4.0582  -22.5912 C   0  0  0  0  0  0  0  0  0  0  0  0
  -18.0868    5.1961  -22.2927 N   0  0  0  0  0  0  0  0  0  0  0  0
  -11.5847    4.1899  -20.2325 N   0  0  0  0  0  0  0  0  0  0  0  0
  -19.1201    2.6679  -23.5810 N   0  0  0  0  0  0  0  0  0  0  0  0
  -16.8751   -1.7132  -24.1678 N   0  0  0  0  0  0  0  0  0  0  0  0
   -9.4855    7.0236  -19.1117 C   0  0  0  0  0  0  0  0  0  0  0  0
  -13.3379    1.8015  -22.2300 C   0  0  0  0  0  0  0  0  0  0  0  0
  -20.3606    4.6198  -22.6849 N   0  0  0  0  0  0  0  0  0  0  0  0
  -16.6773   -0.3826  -23.8520 C   0  0  0  0  0  0  0  0  0  0  0  0
  -14.5177    2.4305  -22.4477 N   0  0  0  0  0  0  0  0  0  0  0  0
  -12.5655    3.5868  -20.9932 C   0  0  0  0  0  0  0  0  0  0  0  0
  -12.3565   -2.2466  -22.3877 Cl  0  0  0  0  0  0  0  0  0  0  0  0
   -8.8716    5.6558  -19.0495 C   0  0  0  0  0  0  0  0  0  0  0  0
  -15.9618    4.3103  -22.2229 N   0  0  0  0  0  0  0  0  0  0  0  0
   -9.9898    2.6193  -19.5103 O   0  0  0  0  0  0  0  0  0  0  0  0
  -15.9543   -2.6503  -24.0301 C   0  0  0  0  0  0  0  0  0  0  0  0
  -19.3483    5.5408  -22.4397 N   0  0  0  0  0  0  0  0  0  0  0  0
   -9.3279    4.7556  -20.0438 N   0  0  0  0  0  0  0  0  0  0  0  0
  -13.0492    0.4648  -22.7629 C   0  0  0  0  0  0  0  0  0  0  0  0
  1  8  2  0
  1 21  1  0
  2  8  1  0
  2 11  2  0
  2 24  1  0
  3 19  1  0
  3 23  2  0
  4 13  1  0
  4 16  2  0
  5 25  1  0
  6 21  2  0
  7 10  1  0
  7 23  1  0
  8 31  1  0
  9 16  1  0
  9 20  1  0
 10 22  2  0
 10 26  1  0
 11 28  1  0
 12 15  1  0
 12 27  2  0
 12 30  1  0
 13 14  2  0
 13 26  1  0
 14 29  1  0
 15 23  1  0
 17 21  1  0
 17 28  2  0
 18 25  1  0
 19 22  1  0
 19 31  1  0
 20 29  2  0
 25 30  1  0
M  END
>  <ID>  (1) 
conformer_0

$$$$
