
     RDKit          3D

 22 23  0  0  0  0  0  0  0  0999 V2000
   -9.2368    5.1699  -21.2114 P   0  0  0  0  0  4  0  0  0  0  0  0
  -14.1080    3.1342  -21.8557 C   0  0  0  0  0  0  0  0  0  0  0  0
   -8.9488    6.6497  -21.1300 O   0  0  0  0  0  1  0  0  0  0  0  0
  -16.3913    2.5326  -21.9651 O   0  0  0  0  0  0  0  0  0  0  0  0
   -9.1555    4.5151  -19.8426 O   0  0  0  0  0  0  0  0  0  0  0  0
   -8.4134    4.5067  -22.2786 O   0  0  0  0  0  0  0  0  0  0  0  0
  -16.0334   -2.0506  -23.9566 N   0  0  0  0  0  0  0  0  0  0  0  0
  -13.1386    4.7252  -20.3450 C   0  0  0  0  0  0  0  0  0  0  0  0
  -11.7415    5.2813  -20.4280 C   0  0  0  0  0  0  0  0  0  0  0  0
  -13.7547   -2.4084  -23.1678 C   0  0  0  0  0  0  0  0  0  0  0  0
  -14.8505   -1.5981  -23.5141 C   0  0  0  0  0  0  0  0  0  0  0  0
  -10.8263    4.8724  -21.5706 O   0  0  0  0  0  0  0  0  0  0  0  0
  -15.8217    0.6104  -23.4318 C   0  0  0  0  0  0  0  0  0  0  0  0
  -16.9470    0.0806  -23.8587 N   0  0  0  0  0  0  0  0  0  0  0  0
  -17.0107   -1.1877  -24.1615 C   0  0  0  0  0  0  0  0  0  0  0  0
  -12.6365   -1.9205  -22.5554 C   0  0  0  0  0  0  0  0  0  0  0  0
  -14.6168   -0.2203  -23.3514 C   0  0  0  0  0  0  0  0  0  0  0  0
  -12.3931   -0.5700  -22.7738 C   0  0  0  0  0  0  0  0  0  0  0  0
  -15.8494    1.9384  -23.1042 N   0  0  0  0  0  0  0  0  0  0  0  0
  -15.4663    3.4976  -21.3110 C   0  0  0  0  0  0  0  0  0  0  0  0
  -13.3725    4.4305  -21.8668 C   0  0  0  0  0  0  0  0  0  0  0  0
  -13.3711    0.2045  -23.1106 N   0  0  0  0  0  0  0  0  0  0  0  0
  1  3  2  0
  1  5  1  0
  1  6  1  0
  1 12  1  0
  2 20  1  0
  2 21  1  0
  4 19  1  0
  4 20  1  0
  7 11  1  0
  7 15  1  0
  8  9  1  0
  8 21  1  0
  9 12  1  0
 10 11  1  0
 10 16  1  0
 11 17  2  0
 13 14  1  0
 13 17  1  0
 13 19  2  3
 14 15  2  0
 16 18  1  0
 17 22  1  0
 18 22  2  0
M  END
>  <ID>  (1) 
conformer_0

$$$$
