
     RDKit          3D

 32 36  0  0  0  0  0  0  0  0999 V2000
  -15.9783   -1.6641  -24.1253 C   0  0  0  0  0  0  0  0  0  0  0  0
  -18.4398    0.2873  -24.2943 C   0  0  0  0  0  0  0  0  0  0  0  0
  -16.1406    2.3673  -22.8279 N   0  0  0  0  0  0  0  0  0  0  0  0
  -11.1308   -1.0120  -22.5198 O   0  0  0  0  0  0  0  0  0  0  0  0
   -9.9702    3.1382  -19.6176 N   0  0  0  0  0  0  0  0  0  0  0  0
  -19.2431    1.5006  -24.0179 C   0  0  0  0  0  0  0  0  0  0  0  0
  -12.2124   -0.4298  -22.4410 C   0  0  0  0  0  0  0  0  0  0  0  0
  -13.4733   -0.8074  -23.0247 C   0  0  0  0  0  0  0  0  0  0  0  0
  -17.5991    4.4683  -22.2157 C   0  0  0  0  0  0  0  0  0  0  0  0
  -11.8801    3.9084  -20.9273 C   0  0  0  0  0  0  0  0  0  0  0  0
  -14.9581    2.5415  -22.3972 C   0  0  0  0  0  0  0  0  0  0  0  0
  -10.6767    6.6409  -19.1568 O   0  0  0  0  0  1  0  0  0  0  0  0
  -13.7634   -2.1404  -23.3588 C   0  0  0  0  0  0  0  0  0  0  0  0
  -12.8493    1.9733  -22.1745 C   0  0  0  0  0  0  0  0  0  0  0  0
  -13.0008    3.2470  -21.5751 C   0  0  0  0  0  0  0  0  0  0  0  0
  -14.0762    1.4786  -22.6347 C   0  0  0  0  0  0  0  0  0  0  0  0
   -8.8937    6.4725  -20.9851 O   0  0  0  0  0  0  0  0  0  0  0  0
  -18.4916    3.6883  -22.7898 C   0  0  0  0  0  0  0  0  0  0  0  0
  -17.0673    0.4833  -23.8090 C   0  0  0  0  0  0  0  0  0  0  0  0
  -14.5439    0.1937  -23.1566 C   0  0  0  0  0  0  0  0  0  0  0  0
  -12.8981   -3.0138  -23.0726 O   0  0  0  0  0  0  0  0  0  0  0  0
  -15.1776    4.6960  -21.3447 C   0  0  0  0  0  0  0  0  0  0  0  0
  -15.8144   -0.2733  -23.6716 C   0  0  0  0  0  0  0  0  0  0  0  0
  -10.5927    4.2167  -20.4048 C   0  0  0  0  0  0  0  0  0  0  0  0
  -17.0953    1.7695  -23.3117 C   0  0  0  0  0  0  0  0  0  0  0  0
  -14.3826    3.6353  -21.7199 C   0  0  0  0  0  0  0  0  0  0  0  0
  -18.3787    2.4275  -23.3740 C   0  0  0  0  0  0  0  0  0  0  0  0
  -14.9155   -2.4614  -23.9872 N   0  0  0  0  0  0  0  0  0  0  0  0
   -9.5815    5.7580  -19.8038 P   0  0  0  0  0  4  0  0  0  0  0  0
   -8.5121    5.3520  -18.7176 O   0  0  0  0  0  0  0  0  0  0  0  0
  -16.5114    4.8675  -21.6538 C   0  0  0  0  0  0  0  0  0  0  0  0
  -17.0307   -2.1939  -24.6353 O   0  0  0  0  0  0  0  0  0  0  0  0
  1 23  1  0
  1 28  1  0
  1 32  2  0
  2  6  1  0
  2 19  1  0
  3 11  1  0
  3 25  1  0
  4  7  2  0
  5 24  1  0
  6 27  1  0
  7  8  1  0
  8 13  1  0
  8 20  1  0
  9 18  2  0
  9 31  2  0
 10 15  2  0
 10 24  2  0
 11 16  1  0
 11 26  2  0
 12 29  2  0
 13 21  2  0
 13 28  1  0
 14 15  1  0
 14 16  1  0
 15 26  1  0
 16 20  2  0
 17 29  1  0
 18 27  1  0
 19 23  1  0
 19 25  2  0
 20 23  1  0
 22 26  1  0
 22 31  1  0
 24 29  1  0
 25 27  1  0
 29 30  1  0
M  END
>  <ID>  (1) 
conformer_0

$$$$
