
     RDKit          3D

 25 27  0  0  0  0  0  0  0  0999 V2000
  -16.1236    0.2324  -23.6270 C   0  0  0  0  0  0  0  0  0  0  0  0
  -10.3304   -1.6411  -22.7552 C   0  0  0  0  0  0  0  0  0  0  0  0
  -13.2606    2.0171  -22.2090 C   0  0  0  0  0  0  0  0  0  0  0  0
   -7.9809   -1.4285  -21.7812 C   0  0  0  0  0  0  0  0  0  0  0  0
   -9.9996    4.8854  -20.4682 P   0  0  0  0  0  4  0  0  0  0  0  0
  -14.1129    0.9826  -22.7706 C   0  0  0  0  0  0  0  0  0  0  0  0
  -13.5641    3.3882  -21.9378 C   0  0  0  0  0  0  0  0  0  0  0  0
  -17.3157   -0.1659  -24.1296 C   0  0  0  0  0  0  0  0  0  0  0  0
  -15.4413    1.3773  -23.1688 C   0  0  0  0  0  0  0  0  0  0  0  0
  -15.2375   -0.8831  -23.5252 N   0  0  0  0  0  0  0  0  0  0  0  0
   -9.6737    3.7066  -19.5123 O   0  0  0  0  0  1  0  0  0  0  0  0
   -9.4147   -2.0306  -21.5045 C   0  0  0  0  0  0  0  0  0  0  0  0
  -12.9691    3.6898  -19.6539 O   0  0  0  0  0  0  0  0  0  0  0  0
  -12.5224    3.9085  -20.9612 C   0  0  0  0  0  0  0  0  0  0  0  0
  -11.5626   -0.9274  -22.2605 O   0  0  0  0  0  0  0  0  0  0  0  0
  -15.8679    2.7469  -22.9672 C   0  0  0  0  0  0  0  0  0  0  0  0
  -13.9532   -0.3962  -22.9940 C   0  0  0  0  0  0  0  0  0  0  0  0
  -11.2302    4.3542  -21.4245 O   0  0  0  0  0  0  0  0  0  0  0  0
  -10.5935    6.0894  -19.6703 O   0  0  0  0  0  0  0  0  0  0  0  0
  -13.0694   -2.5393  -22.9522 O   0  0  0  0  0  0  0  0  0  0  0  0
  -14.8513    3.8261  -22.7167 C   0  0  0  0  0  0  0  0  0  0  0  0
  -15.9796   -1.9735  -23.9461 N   0  0  0  0  0  0  0  0  0  0  0  0
  -17.2153   -1.5547  -24.3267 N   0  0  0  0  0  0  0  0  0  0  0  0
  -12.7903   -1.2721  -22.7489 C   0  0  0  0  0  0  0  0  0  0  0  0
   -8.8024    5.3966  -21.3140 O   0  0  0  0  0  0  0  0  0  0  0  0
  1  8  1  0
  1  9  2  0
  1 10  1  0
  2 12  1  0
  2 15  1  0
  3  6  1  0
  3  7  1  0
  4 12  1  0
  5 11  2  0
  5 18  1  0
  5 19  1  0
  5 25  1  0
  6  9  1  0
  6 17  2  0
  7 14  1  0
  7 21  1  0
  8 23  1  0
  9 16  1  0
 10 17  1  0
 10 22  1  0
 13 14  2  0
 14 18  1  0
 15 24  1  0
 16 21  1  0
 17 24  1  0
 20 24  2  0
 22 23  1  0
M  END
>  <ID>  (1) 
conformer_0

$$$$
