
     RDKit          3D

 26 28  0  0  0  0  0  0  0  0999 V2000
  -13.5390    0.0091  -22.8002 N   0  0  0  0  0  0  0  0  0  0  0  0
  -16.0549    2.7150  -22.6552 C   0  0  0  0  0  0  0  0  0  0  0  0
  -15.1735    1.5820  -22.8389 N   0  0  0  0  0  0  0  0  0  0  0  0
  -15.7295    0.4158  -23.3607 C   0  0  0  0  0  0  0  0  0  0  0  0
  -13.8348    1.3218  -22.5595 C   0  0  0  0  0  0  0  0  0  0  0  0
  -12.5690    5.2010  -21.5832 C   0  0  0  0  0  0  0  0  0  0  0  0
  -13.7200    4.5952  -20.6862 C   0  0  0  0  0  0  0  0  0  0  0  0
   -9.5501    3.9191  -19.6472 P   0  0  0  0  0  4  0  0  0  0  0  0
  -17.1798   -1.0819  -24.2078 C   0  0  0  0  0  0  0  0  0  0  0  0
  -11.4637    4.2336  -21.4065 C   0  0  0  0  0  0  0  0  0  0  0  0
  -12.7500   -2.3413  -22.9158 C   0  0  0  0  0  0  0  0  0  0  0  0
   -9.6222    2.4398  -19.3255 O   0  0  0  0  0  1  0  0  0  0  0  0
  -14.8527    4.4712  -21.6424 C   0  0  0  0  0  0  0  0  0  0  0  0
   -8.7706    4.3231  -20.8976 O   0  0  0  0  0  0  0  0  0  0  0  0
  -15.9807    3.4903  -21.3753 C   0  0  0  0  0  0  0  0  0  0  0  0
   -9.0660    4.7796  -18.4817 O   0  0  0  0  0  0  0  0  0  0  0  0
  -14.7281   -0.5474  -23.2659 C   0  0  0  0  0  0  0  0  0  0  0  0
  -16.5105    3.3096  -23.7301 O   0  0  0  0  0  0  0  0  0  0  0  0
  -14.4965    4.7590  -22.9665 O   0  0  0  0  0  0  0  0  0  0  0  0
  -16.3312   -2.1229  -24.0669 N   0  0  0  0  0  0  0  0  0  0  0  0
  -11.0633    4.3077  -19.9766 O   0  0  0  0  0  0  0  0  0  0  0  0
  -14.0847   -2.8868  -23.4694 N   0  0  0  0  0  0  0  0  0  0  0  0
  -17.2793    4.2644  -21.2289 O   0  0  0  0  0  0  0  0  0  0  0  0
  -15.0754   -1.8485  -23.6180 C   0  0  0  0  0  0  0  0  0  0  0  0
  -12.3843   -0.8630  -22.7643 C   0  0  0  0  0  0  0  0  0  0  0  0
  -16.9112    0.1897  -23.8637 N   0  0  0  0  0  0  0  0  0  0  0  0
  1  5  1  0
  1 17  1  0
  1 25  1  0
  2  3  1  0
  2 15  1  0
  2 18  2  0
  3  4  1  0
  3  5  1  0
  4 17  2  0
  4 26  1  0
  6  7  1  0
  6 10  1  0
  7 13  1  0
  8 12  2  0
  8 14  1  0
  8 16  1  0
  8 21  1  0
  9 20  1  0
  9 26  2  0
 10 21  1  0
 11 22  1  0
 11 25  1  0
 13 15  1  0
 13 19  1  0
 15 23  1  0
 17 24  1  0
 20 24  2  0
 22 24  1  0
M  END
>  <ID>  (1) 
conformer_0

$$$$
