
     RDKit          3D

 25 27  0  0  0  0  0  0  0  0999 V2000
  -11.9629    4.3980  -19.9840 C   0  0  0  0  0  0  0  0  0  0  0  0
   -8.5599    4.3014  -21.2752 O   0  0  0  0  0  1  0  0  0  0  0  0
  -14.6775    3.0141  -21.8965 C   0  0  0  0  0  0  0  0  0  0  0  0
  -13.1806    4.2345  -20.6751 C   0  0  0  0  0  0  0  0  0  0  0  0
  -14.2873    0.6539  -22.9515 C   0  0  0  0  0  0  0  0  0  0  0  0
  -13.4231    2.9347  -21.1968 O   0  0  0  0  0  0  0  0  0  0  0  0
  -13.6987    5.1278  -21.7355 C   0  0  0  0  0  0  0  0  0  0  0  0
   -9.7163    2.7403  -19.5859 O   0  0  0  0  0  0  0  0  0  0  0  0
  -16.4053    0.4174  -23.7114 C   0  0  0  0  0  0  0  0  0  0  0  0
   -9.3714    4.2097  -19.9645 P   0  0  0  0  0  4  0  0  0  0  0  0
  -12.4241   -0.8941  -22.6912 C   0  0  0  0  0  0  0  0  0  0  0  0
  -17.4453   -0.2354  -24.2651 N   0  0  0  0  0  0  0  0  0  0  0  0
  -14.9155    1.9366  -22.8458 C   0  0  0  0  0  0  0  0  0  0  0  0
  -14.6074    4.2799  -22.5285 O   0  0  0  0  0  0  0  0  0  0  0  0
   -8.8210    4.9183  -18.7371 O   0  0  0  0  0  0  0  0  0  0  0  0
  -12.8981   -2.1354  -22.9337 C   0  0  0  0  0  0  0  0  0  0  0  0
  -14.1912    5.1199  -20.4235 O   0  0  0  0  0  0  0  0  0  0  0  0
  -10.7857    4.9860  -20.3576 O   0  0  0  0  0  0  0  0  0  0  0  0
  -15.1748   -1.6401  -23.6149 C   0  0  0  0  0  0  0  0  0  0  0  0
  -13.0240    0.3309  -22.7181 C   0  0  0  0  0  0  0  0  0  0  0  0
  -14.1032   -2.5170  -23.3422 C   0  0  0  0  0  0  0  0  0  0  0  0
  -15.2154   -0.2624  -23.4236 C   0  0  0  0  0  0  0  0  0  0  0  0
  -16.2887   -2.2926  -24.1144 N   0  0  0  0  0  0  0  0  0  0  0  0
  -16.2745    1.7609  -23.3317 N   0  0  0  0  0  0  0  0  0  0  0  0
  -17.3409   -1.5681  -24.4632 C   0  0  0  0  0  0  0  0  0  0  0  0
  1  4  1  0
  1 18  1  0
  2 10  2  0
  3  6  1  0
  3 13  1  0
  3 14  1  0
  4  6  1  0
  4 17  2  0
  5 13  1  0
  5 20  2  0
  5 22  1  0
  7 14  1  0
  8 10  1  0
  9 12  2  0
  9 22  1  0
  9 24  1  0
 10 15  1  0
 10 18  1  0
 11 16  1  0
 11 20  1  0
 12 25  1  0
 13 24  1  0
 16 21  2  0
 19 21  1  0
 19 22  2  0
 19 23  1  0
 23 25  2  0
M  END
>  <ID>  (1) 
conformer_0

$$$$
