
     RDKit          3D

 32 35  0  0  0  0  0  0  0  0999 V2000
  -11.7917    5.1558  -20.5318 P   0  0  0  0  0  4  0  0  0  0  0  0
  -17.6067    0.1856  -24.0436 C   0  0  0  0  0  0  0  0  0  0  0  0
  -15.3534   -2.6077  -23.7051 N   0  0  0  0  0  0  0  0  0  0  0  0
  -17.3693   -1.2024  -24.1444 N   0  0  0  0  0  0  0  0  0  0  0  0
  -14.5887    5.7682  -20.8919 C   0  0  0  0  0  0  0  0  0  0  0  0
   -9.0326    5.3760  -20.7501 P   0  0  0  0  0  4  0  0  0  0  0  0
  -10.8654   -1.1469  -22.8752 C   0  0  0  0  0  0  0  0  0  0  0  0
  -14.0502   -2.6467  -23.3146 C   0  0  0  0  0  0  0  0  0  0  0  0
  -16.4213    0.8211  -23.4304 C   0  0  0  0  0  0  0  0  0  0  0  0
  -18.6298    0.7271  -24.4520 O   0  0  0  0  0  0  0  0  0  0  0  0
  -12.0600   -1.6925  -22.3292 C   0  0  0  0  0  0  0  0  0  0  0  0
  -10.5108    5.2248  -21.4546 O   0  0  0  0  0  0  0  0  0  0  0  0
  -16.0464   -1.4368  -23.7549 C   0  0  0  0  0  0  0  0  0  0  0  0
  -13.3190    0.8345  -22.7026 N   0  0  0  0  0  0  0  0  0  0  0  0
  -14.7878    4.0250  -22.4660 N   0  0  0  0  0  0  0  0  0  0  0  0
   -8.6978    6.8200  -20.5449 O   0  0  0  0  0  1  0  0  0  0  0  0
   -8.0658    4.7246  -21.7840 O   0  0  0  0  0  0  0  0  0  0  0  0
  -11.5721    6.2784  -19.5146 O   0  0  0  0  0  1  0  0  0  0  0  0
  -15.4193   -0.2200  -23.3653 C   0  0  0  0  0  0  0  0  0  0  0  0
  -14.0328   -0.3001  -22.9995 C   0  0  0  0  0  0  0  0  0  0  0  0
  -11.9857    3.7323  -20.1474 O   0  0  0  0  0  0  0  0  0  0  0  0
  -14.9038    2.6453  -22.6195 C   0  0  0  0  0  0  0  0  0  0  0  0
  -16.8687    4.2672  -21.5473 O   0  0  0  0  0  0  0  0  0  0  0  0
  -13.7770    2.0359  -22.5993 C   0  0  0  0  0  0  0  0  0  0  0  0
   -9.8014   -1.2819  -21.7717 O   0  0  0  0  0  0  0  0  0  0  0  0
  -13.3474   -1.5047  -22.9182 C   0  0  0  0  0  0  0  0  0  0  0  0
  -13.2045    5.6128  -21.1934 O   0  0  0  0  0  0  0  0  0  0  0  0
  -16.2396    2.1258  -22.8715 C   0  0  0  0  0  0  0  0  0  0  0  0
  -17.2095    3.1559  -22.4990 C   0  0  0  0  0  0  0  0  0  0  0  0
  -14.0468    5.5538  -19.6270 O   0  0  0  0  0  0  0  0  0  0  0  0
  -15.4572    4.6047  -21.3475 C   0  0  0  0  0  0  0  0  0  0  0  0
   -9.0803    4.6622  -19.3787 O   0  0  0  0  0  0  0  0  0  0  0  0
  1 12  1  0
  1 18  2  0
  1 21  1  0
  1 27  1  0
  2  4  1  0
  2  9  1  0
  2 10  2  0
  3  8  1  0
  3 13  2  0
  4 13  1  0
  5 27  1  0
  5 30  1  0
  5 31  1  0
  6 12  1  0
  6 16  2  0
  6 17  1  0
  6 32  1  0
  7 11  1  0
  7 25  1  0
  8 26  2  0
  9 19  1  0
  9 28  1  0
 11 26  1  0
 13 19  1  0
 14 20  1  0
 14 24  2  0
 15 22  1  0
 15 31  1  0
 19 20  2  0
 20 26  1  0
 22 24  1  0
 22 28  1  0
 23 29  1  0
 23 31  1  0
 28 29  1  0
M  END
>  <ID>  (1) 
conformer_0

$$$$
