
     RDKit          3D

 24 27  0  0  0  0  0  0  0  0999 V2000
  -15.9863    0.4702  -23.4693 C   0  0  0  0  0  0  0  0  0  0  0  0
  -12.5799   -1.9003  -23.0437 C   0  0  0  0  0  0  0  0  0  0  0  0
  -17.0596   -0.1081  -24.0347 N   0  0  0  0  0  0  0  0  0  0  0  0
  -13.8451    4.4766  -20.7906 C   0  0  0  0  0  0  0  0  0  0  0  0
   -9.7534    2.8274  -19.2405 O   0  0  0  0  0  1  0  0  0  0  0  0
  -12.9828    3.7874  -21.8309 C   0  0  0  0  0  0  0  0  0  0  0  0
  -13.5487    0.2308  -23.1504 C   0  0  0  0  0  0  0  0  0  0  0  0
  -13.4153    1.6047  -22.9733 C   0  0  0  0  0  0  0  0  0  0  0  0
  -13.7669   -2.4355  -23.4393 N   0  0  0  0  0  0  0  0  0  0  0  0
  -14.8789   -1.6896  -23.6798 C   0  0  0  0  0  0  0  0  0  0  0  0
  -16.0436    1.9077  -22.8965 C   0  0  0  0  0  0  0  0  0  0  0  0
  -14.8222   -0.3271  -23.4444 C   0  0  0  0  0  0  0  0  0  0  0  0
  -16.0445   -2.2137  -24.1547 N   0  0  0  0  0  0  0  0  0  0  0  0
  -13.8723    2.6664  -22.2266 N   0  0  0  0  0  0  0  0  0  0  0  0
  -17.0176   -1.3692  -24.3944 C   0  0  0  0  0  0  0  0  0  0  0  0
   -9.0275    5.2956  -19.0262 O   0  0  0  0  0  0  0  0  0  0  0  0
  -11.1392    4.6355  -20.2893 O   0  0  0  0  0  0  0  0  0  0  0  0
  -11.5715    4.4040  -21.6713 C   0  0  0  0  0  0  0  0  0  0  0  0
   -8.8302    4.1531  -21.2252 O   0  0  0  0  0  0  0  0  0  0  0  0
  -12.4411   -0.5626  -23.2164 C   0  0  0  0  0  0  0  0  0  0  0  0
   -9.6080    4.1868  -19.9279 P   0  0  0  0  0  4  0  0  0  0  0  0
  -13.7464    5.5083  -19.8951 O   0  0  0  0  0  0  0  0  0  0  0  0
  -15.2888    4.1556  -21.1722 C   0  0  0  0  0  0  0  0  0  0  0  0
  -15.2691    3.1157  -22.3129 C   0  0  0  0  0  0  0  0  0  0  0  0
  1  3  2  0
  1 11  1  0
  1 12  1  0
  2  9  1  0
  2 20  1  0
  3 15  1  0
  4  6  1  0
  4 22  1  0
  4 23  1  0
  5 21  2  0
  6 14  1  0
  6 18  1  0
  7  8  1  0
  7 12  2  0
  7 20  1  0
  8 14  1  0
  9 10  2  0
 10 12  1  0
 10 13  1  0
 11 24  1  0
 13 15  2  0
 14 24  1  0
 16 21  1  0
 17 18  1  0
 17 21  1  0
 19 21  1  0
 23 24  1  0
M  END
>  <ID>  (1) 
conformer_0

$$$$
