
     RDKit          3D

 31 35  0  0  0  0  0  0  0  0999 V2000
  -17.0538    1.8717  -23.4669 C   0  0  0  0  0  0  0  0  0  0  0  0
   -9.3583    2.9537  -19.0562 O   0  0  0  0  0  1  0  0  0  0  0  0
  -18.1688    2.6876  -23.5309 C   0  0  0  0  0  0  0  0  0  0  0  0
  -14.0491   -1.2085  -23.0752 C   0  0  0  0  0  0  0  0  0  0  0  0
  -14.6708    4.1492  -21.9182 C   0  0  0  0  0  0  0  0  0  0  0  0
   -8.6864    4.3391  -21.1101 O   0  0  0  0  0  0  0  0  0  0  0  0
  -16.5906   -1.6443  -24.2493 C   0  0  0  0  0  0  0  0  0  0  0  0
  -15.8786    6.2549  -21.4243 C   0  0  0  0  0  0  0  0  0  0  0  0
  -15.7490   -2.7117  -24.0377 N   0  0  0  0  0  0  0  0  0  0  0  0
  -15.8383    3.6343  -22.4183 C   0  0  0  0  0  0  0  0  0  0  0  0
  -18.1711    3.9347  -22.9904 C   0  0  0  0  0  0  0  0  0  0  0  0
  -17.0499    5.7116  -21.9197 C   0  0  0  0  0  0  0  0  0  0  0  0
  -12.6335   -1.3759  -22.5778 C   0  0  0  0  0  0  0  0  0  0  0  0
  -17.0168    4.4387  -22.4462 C   0  0  0  0  0  0  0  0  0  0  0  0
   -9.6139    4.1845  -19.8873 P   0  0  0  0  0  4  0  0  0  0  0  0
  -11.7263   -0.4161  -22.3561 O   0  0  0  0  0  0  0  0  0  0  0  0
  -14.7134    5.4660  -21.4206 C   0  0  0  0  0  0  0  0  0  0  0  0
  -14.9657   -0.0530  -23.2050 C   0  0  0  0  0  0  0  0  0  0  0  0
  -17.1928    0.6165  -23.9522 O   0  0  0  0  0  0  0  0  0  0  0  0
   -9.6677    5.4739  -19.0999 O   0  0  0  0  0  0  0  0  0  0  0  0
  -17.6963   -1.8438  -24.8542 O   0  0  0  0  0  0  0  0  0  0  0  0
  -14.7275    1.3494  -22.7998 C   0  0  0  0  0  0  0  0  0  0  0  0
  -13.4867    1.8708  -22.3042 C   0  0  0  0  0  0  0  0  0  0  0  0
  -11.4042    3.7493  -20.6157 C   0  0  0  0  0  0  0  0  0  0  0  0
  -14.5521   -2.4401  -23.4904 C   0  0  0  0  0  0  0  0  0  0  0  0
  -12.2324    2.3715  -22.6358 C   0  0  0  0  0  0  0  0  0  0  0  0
  -16.2165   -0.3394  -23.7836 C   0  0  0  0  0  0  0  0  0  0  0  0
  -11.4247    4.8306  -21.6037 O   0  0  0  0  0  0  0  0  0  0  0  0
  -13.4295    3.2400  -21.9704 C   0  0  0  0  0  0  0  0  0  0  0  0
  -12.8385    3.3691  -20.5500 C   0  0  0  0  0  0  0  0  0  0  0  0
  -15.8455    2.2762  -22.8980 C   0  0  0  0  0  0  0  0  0  0  0  0
  1  3  2  0
  1 19  1  0
  1 31  1  0
  2 15  2  0
  3 11  1  0
  4 13  2  3
  4 18  1  0
  4 25  1  0
  5 10  2  0
  5 17  1  0
  5 29  1  0
  6 15  1  0
  7  9  1  0
  7 21  2  0
  7 27  1  0
  8 12  2  0
  8 17  1  0
  9 25  2  0
 10 14  1  0
 10 31  1  0
 11 14  2  0
 12 14  1  0
 13 16  1  0
 15 20  1  0
 15 24  1  0
 18 22  1  0
 18 27  2  0
 19 27  1  0
 22 23  1  0
 22 31  2  0
 23 26  1  0
 23 29  1  0
 24 28  1  0
 24 30  1  0
 29 30  1  0
M  END
>  <ID>  (1) 
conformer_0

$$$$
