
     RDKit          3D

 42 45  0  0  0  0  0  0  0  0999 V2000
  -12.5887    5.9636  -19.7040 C   0  0  0  0  0  0  0  0  0  0  0  0
  -14.9919   -0.7495  -23.5190 C   0  0  0  0  0  0  0  0  0  0  0  0
  -10.4086   -1.6520  -22.2280 C   0  0  0  0  0  0  0  0  0  0  0  0
   -5.7810   -2.4696  -21.7340 C   0  0  0  0  0  0  0  0  0  0  0  0
  -19.5239    0.0040  -24.7444 C   0  0  0  0  0  0  0  0  0  0  0  0
  -17.4362    2.0428  -23.9347 C   0  0  0  0  0  0  0  0  0  0  0  0
  -17.0456    3.3009  -23.5609 C   0  0  0  0  0  0  0  0  0  0  0  0
   -8.1953   -1.9792  -21.4332 C   0  0  0  0  0  0  0  0  0  0  0  0
  -19.5725    3.9185  -20.9830 C   0  0  0  0  0  0  0  0  0  0  0  0
  -17.5967    5.1825  -20.4701 C   0  0  0  0  0  0  0  0  0  0  0  0
  -13.9374    5.4273  -20.3959 C   0  0  0  0  0  0  0  0  0  0  0  0
  -17.0211    4.9038  -21.6928 C   0  0  0  0  0  0  0  0  0  0  0  0
  -13.0360   -2.6019  -23.0392 C   0  0  0  0  0  0  0  0  0  0  0  0
  -18.4716   -0.9338  -24.7776 C   0  0  0  0  0  0  0  0  0  0  0  0
  -16.2345   -0.1573  -23.8282 C   0  0  0  0  0  0  0  0  0  0  0  0
  -11.3605    5.2002  -20.1720 C   0  0  0  0  0  0  0  0  0  0  0  0
   -9.8970    7.0206  -19.6446 O   0  0  0  0  0  0  0  0  0  0  0  0
  -16.4534   -2.3923  -24.1106 N   0  0  0  0  0  0  0  0  0  0  0  0
  -12.7039   -1.2729  -22.8446 C   0  0  0  0  0  0  0  0  0  0  0  0
   -9.1333   -0.9168  -21.8546 N   0  0  0  0  0  0  0  0  0  0  0  0
  -17.7033    3.9275  -22.4642 C   0  0  0  0  0  0  0  0  0  0  0  0
  -15.9536    3.6643  -24.2502 F   0  0  0  0  0  0  0  0  0  0  0  0
  -13.4398    0.9678  -22.9522 O   0  0  0  0  0  0  0  0  0  0  0  0
   -9.0262    5.2882  -20.7047 O   0  0  0  0  0  0  0  0  0  0  0  0
   -6.6328   -0.2080  -21.9329 O   0  0  0  0  0  0  0  0  0  0  0  0
  -13.7217   -0.3232  -23.0951 C   0  0  0  0  0  0  0  0  0  0  0  0
  -15.1952   -2.1406  -23.6989 C   0  0  0  0  0  0  0  0  0  0  0  0
  -17.1342   -1.1821  -24.2458 C   0  0  0  0  0  0  0  0  0  0  0  0
  -13.5880    4.8997  -21.7164 C   0  0  0  0  0  0  0  0  0  0  0  0
   -6.8383   -1.4420  -21.5848 C   0  0  0  0  0  0  0  0  0  0  0  0
  -15.8436    5.7231  -22.0665 C   0  0  0  0  0  0  0  0  0  0  0  0
  -16.7104    1.0519  -23.8938 C   0  0  0  0  0  0  0  0  0  0  0  0
  -15.1838    6.3290  -20.7552 C   0  0  0  0  0  0  0  0  0  0  0  0
  -14.7030    5.0208  -22.6408 C   0  0  0  0  0  0  0  0  0  0  0  0
  -11.4966   -0.6559  -22.3761 C   0  0  0  0  0  0  0  0  0  0  0  0
  -12.9147    3.7498  -21.8682 O   0  0  0  0  0  0  0  0  0  0  0  0
  -11.1829    3.8565  -19.9263 O   0  0  0  0  0  0  0  0  0  0  0  0
  -14.2231    5.3741  -23.9199 F   0  0  0  0  0  0  0  0  0  0  0  0
  -19.0095    3.5353  -22.1593 C   0  0  0  0  0  0  0  0  0  0  0  0
  -10.0259    5.9086  -20.1704 C   0  0  0  0  0  0  0  0  0  0  0  0
  -14.2378   -3.0674  -23.4559 N   0  0  0  0  0  0  0  0  0  0  0  0
  -18.8389    4.7267  -20.1021 C   0  0  0  0  0  0  0  0  0  0  0  0
  1 11  1  0
  1 16  1  0
  2 15  1  0
  2 26  1  0
  2 27  1  0
  3 20  1  0
  3 35  1  0
  4 30  1  0
  5 14  1  0
  6  7  1  0
  6 32  2  0
  7 21  1  0
  7 22  1  0
  8 20  1  0
  8 30  1  0
  9 39  2  0
  9 42  1  0
 10 12  1  0
 10 42  2  0
 11 29  1  0
 11 33  1  0
 12 21  1  0
 12 31  1  0
 13 19  1  0
 13 41  1  0
 14 28  1  0
 15 28  1  0
 15 32  2  0
 16 37  1  0
 16 40  1  0
 17 40  2  0
 18 27  1  0
 18 28  1  0
 19 26  2  0
 19 35  1  0
 21 39  1  0
 23 26  1  0
 24 40  1  0
 25 30  1  0
 27 41  2  0
 29 34  1  0
 29 36  1  0
 31 33  1  0
 31 34  1  0
 34 38  1  0
M  END
>  <ID>  (1) 
conformer_0

$$$$
