
     RDKit          3D

 29 32  0  0  0  0  0  0  0  0999 V2000
  -12.9238    4.3010  -20.8005 O   0  0  0  0  0  0  0  0  0  0  0  0
  -11.3268    4.8996  -22.7705 O   0  0  0  0  0  1  0  0  0  0  0  0
  -11.5091    4.3570  -21.4603 P   0  0  0  0  0  4  0  0  0  0  0  0
   -9.5492    4.9153  -19.6226 P   0  0  0  0  0  4  0  0  0  0  0  0
  -13.7830    5.4484  -20.9778 C   0  0  0  0  0  0  0  0  0  0  0  0
  -15.7726    4.9026  -21.1036 C   0  0  0  0  0  0  0  0  0  0  0  0
  -16.3681    3.3517  -22.8868 C   0  0  0  0  0  0  0  0  0  0  0  0
  -16.6407    3.6762  -21.4343 C   0  0  0  0  0  0  0  0  0  0  0  0
   -8.4717    5.6270  -20.4289 O   0  0  0  0  0  1  0  0  0  0  0  0
  -15.3662    4.3454  -23.3301 O   0  0  0  0  0  0  0  0  0  0  0  0
  -14.9488   -0.5242  -23.4151 C   0  0  0  0  0  0  0  0  0  0  0  0
  -16.2293   -0.3298  -23.7872 C   0  0  0  0  0  0  0  0  0  0  0  0
  -16.7301    0.9110  -23.6495 N   0  0  0  0  0  0  0  0  0  0  0  0
  -10.4016    3.9241  -20.6033 O   0  0  0  0  0  0  0  0  0  0  0  0
  -14.6479    1.5255  -22.7972 N   0  0  0  0  0  0  0  0  0  0  0  0
  -11.0576   -1.4900  -22.6419 F   0  0  0  0  0  0  0  0  0  0  0  0
  -12.7882    0.1000  -22.6749 C   0  0  0  0  0  0  0  0  0  0  0  0
  -18.0383    4.0875  -21.3553 O   0  0  0  0  0  0  0  0  0  0  0  0
  -14.1125    0.3855  -22.9423 C   0  0  0  0  0  0  0  0  0  0  0  0
  -14.7202    5.0677  -22.1697 C   0  0  0  0  0  0  0  0  0  0  0  0
  -14.5862   -1.8893  -23.5945 C   0  0  0  0  0  0  0  0  0  0  0  0
  -16.6808   -1.6745  -24.2970 N   0  0  0  0  0  0  0  0  0  0  0  0
   -9.0186    4.0341  -18.5287 O   0  0  0  0  0  0  0  0  0  0  0  0
  -17.7122   -1.9702  -24.9243 O   0  0  0  0  0  0  0  0  0  0  0  0
  -13.2672   -2.2085  -23.2528 C   0  0  0  0  0  0  0  0  0  0  0  0
  -10.4917    5.9481  -19.0376 O   0  0  0  0  0  0  0  0  0  0  0  0
  -15.7028   -2.5950  -24.0740 N   0  0  0  0  0  0  0  0  0  0  0  0
  -12.3654   -1.2113  -22.8501 C   0  0  0  0  0  0  0  0  0  0  0  0
  -15.8972    1.8555  -23.1185 C   0  0  0  0  0  0  0  0  0  0  0  0
  1  3  1  0
  1  5  1  0
  2  3  2  0
  3 14  1  0
  4  9  2  0
  4 14  1  0
  4 23  1  0
  4 26  1  0
  5 20  1  0
  6  8  1  0
  6 20  1  0
  7  8  1  0
  7 10  1  0
  7 29  1  0
  8 18  1  0
 10 20  1  0
 11 12  1  0
 11 19  2  0
 11 21  1  0
 12 13  2  0
 12 22  1  0
 13 29  1  0
 15 19  1  0
 15 29  2  0
 16 28  1  0
 17 19  1  0
 17 28  2  0
 21 25  2  0
 21 27  1  0
 22 24  1  0
 22 27  1  0
 25 28  1  0
M  END
>  <ID>  (1) 
conformer_0

$$$$
