
     RDKit          3D

 19 20  0  0  0  0  0  0  0  0999 V2000
  -10.1455    3.1931  -20.0832 C   0  0  0  0  0  0  0  0  0  0  0  0
  -13.7542   -0.0888  -22.8649 C   0  0  0  0  0  0  0  0  0  0  0  0
  -16.0223   -0.6062  -23.6435 C   0  0  0  0  0  0  0  0  0  0  0  0
  -15.6349   -1.9036  -23.9122 C   0  0  0  0  0  0  0  0  0  0  0  0
  -15.2145    3.6069  -21.6670 C   0  0  0  0  0  0  0  0  0  0  0  0
  -14.3830    4.5088  -20.9849 C   0  0  0  0  0  0  0  0  0  0  0  0
   -9.7532    2.3515  -19.2380 O   0  0  0  0  0  0  0  0  0  0  0  0
  -13.2890    2.0937  -21.9240 C   0  0  0  0  0  0  0  0  0  0  0  0
  -11.0307    2.7167  -21.1047 C   0  0  0  0  0  0  0  0  0  0  0  0
  -16.4564   -2.7171  -24.4457 O   0  0  0  0  0  0  0  0  0  0  0  0
  -12.8022    0.8425  -22.4063 F   0  0  0  0  0  0  0  0  0  0  0  0
  -13.0283    4.2059  -20.8117 C   0  0  0  0  0  0  0  0  0  0  0  0
  -14.6547    2.4067  -22.1261 C   0  0  0  0  0  0  0  0  0  0  0  0
  -14.3319   -2.3061  -23.6080 N   0  0  0  0  0  0  0  0  0  0  0  0
  -15.5353    1.5653  -22.7664 O   0  0  0  0  0  0  0  0  0  0  0  0
  -15.0987    0.2937  -23.0978 C   0  0  0  0  0  0  0  0  0  0  0  0
   -9.4687    4.2430  -20.3421 O   0  0  0  0  0  0  0  0  0  0  0  0
  -12.4164    2.9941  -21.2535 C   0  0  0  0  0  0  0  0  0  0  0  0
  -13.3699   -1.4066  -23.0928 N   0  0  0  0  0  0  0  0  0  0  0  0
  1  7  2  0
  1  9  1  0
  1 17  1  0
  2 11  1  0
  2 16  1  0
  2 19  2  0
  3  4  1  0
  3 16  2  0
  4 10  2  0
  4 14  1  0
  5  6  2  0
  5 13  1  0
  6 12  1  0
  8 13  2  0
  8 18  1  0
  9 18  1  0
 12 18  2  0
 13 15  1  0
 14 19  1  0
 15 16  1  0
M  END
>  <ID>  (1) 
conformer_0

$$$$
