
     RDKit          3D

 16 17  0  0  0  0  0  0  0  0999 V2000
  -13.6625    1.9179  -22.2933 C   0  0  0  0  0  0  0  0  0  0  0  0
  -12.6431   -1.6094  -22.7754 C   0  0  0  0  0  0  0  0  0  0  0  0
  -14.9836   -0.2228  -23.2814 C   0  0  0  0  0  0  0  0  0  0  0  0
  -10.0401    4.6333  -19.6883 O   0  0  0  0  0  0  0  0  0  0  0  0
  -12.6537   -0.2511  -22.5334 C   0  0  0  0  0  0  0  0  0  0  0  0
   -9.7938    2.4299  -19.8557 O   0  0  0  0  0  0  0  0  0  0  0  0
  -17.0196   -1.0735  -24.1572 C   0  0  0  0  0  0  0  0  0  0  0  0
  -16.7631    1.5410  -23.6427 C   0  0  0  0  0  0  0  0  0  0  0  0
  -13.7878    0.4550  -22.7214 C   0  0  0  0  0  0  0  0  0  0  0  0
  -13.7392   -2.2951  -23.2437 C   0  0  0  0  0  0  0  0  0  0  0  0
  -16.0939   -2.1588  -23.9902 O   0  0  0  0  0  0  0  0  0  0  0  0
  -12.2942    2.2783  -21.6853 N   0  0  0  0  0  0  0  0  0  0  0  0
  -10.3837    3.4970  -20.2839 C   0  0  0  0  0  0  0  0  0  0  0  0
  -11.7075    3.5013  -20.9941 C   0  0  0  0  0  0  0  0  0  0  0  0
  -14.9002   -1.5969  -23.5006 C   0  0  0  0  0  0  0  0  0  0  0  0
  -16.3333    0.1524  -23.7022 C   0  0  0  0  0  0  0  0  0  0  0  0
  1  9  1  0
  1 12  1  0
  2  5  2  0
  2 10  1  0
  3  9  2  0
  3 15  1  0
  3 16  1  0
  4 13  2  0
  5  9  1  0
  6 13  1  0
  7 11  1  0
  7 16  1  0
  8 16  1  0
 10 15  2  0
 11 15  1  0
 12 14  2  3
 13 14  1  0
M  END
>  <ID>  (1) 
conformer_0

$$$$
