
     RDKit          3D

 28 30  0  0  0  0  0  0  0  0999 V2000
  -12.5643   -0.5912  -22.4948 N   0  0  0  0  0  0  0  0  0  0  0  0
  -16.2695    1.3219  -23.5387 C   0  0  0  0  0  0  0  0  0  0  0  0
  -11.8981    5.0400  -21.1623 C   0  0  0  0  0  0  0  0  0  0  0  0
  -14.8088   -0.6741  -23.3884 C   0  0  0  0  0  0  0  0  0  0  0  0
  -16.8376   -2.1798  -24.3792 N   0  0  0  0  0  0  0  0  0  0  0  0
  -13.1856    2.2733  -22.0153 C   0  0  0  0  0  0  0  0  0  0  0  0
  -10.0107    5.1240  -22.5106 C   0  0  0  0  0  0  0  0  0  0  0  0
  -14.6240   -2.0384  -23.4964 C   0  0  0  0  0  0  0  0  0  0  0  0
  -11.3442    5.1489  -22.2348 N   0  0  0  0  0  0  0  0  0  0  0  0
   -8.6512    4.3098  -18.1656 O   0  0  0  0  0  0  0  0  0  0  0  0
  -18.5434    1.1693  -24.2034 C   0  0  0  0  0  0  0  0  0  0  0  0
   -9.5731    2.5182  -19.1688 O   0  0  0  0  0  0  0  0  0  0  0  0
  -18.3475   -0.1924  -24.4219 C   0  0  0  0  0  0  0  0  0  0  0  0
   -9.1354    4.8110  -21.4493 C   0  0  0  0  0  0  0  0  0  0  0  0
  -12.8825    5.0181  -20.2393 C   0  0  0  0  0  0  0  0  0  0  0  0
  -15.5330    3.5941  -22.2538 C   0  0  0  0  0  0  0  0  0  0  0  0
  -12.4775   -1.9187  -22.5295 C   0  0  0  0  0  0  0  0  0  0  0  0
  -15.6895   -2.7486  -24.0662 N   0  0  0  0  0  0  0  0  0  0  0  0
  -13.4726   -2.6895  -23.0319 C   0  0  0  0  0  0  0  0  0  0  0  0
  -14.0020    3.4003  -21.6219 C   0  0  0  0  0  0  0  0  0  0  0  0
  -17.0832   -0.8005  -24.1681 C   0  0  0  0  0  0  0  0  0  0  0  0
  -17.4759    1.9530  -23.7499 C   0  0  0  0  0  0  0  0  0  0  0  0
  -13.9306    4.1681  -20.5257 C   0  0  0  0  0  0  0  0  0  0  0  0
  -13.7073    1.3550  -22.8624 N   0  0  0  0  0  0  0  0  0  0  0  0
   -9.4676    4.5054  -20.3302 C   0  0  0  0  0  0  0  0  0  0  0  0
  -16.0103   -0.0282  -23.6797 C   0  0  0  0  0  0  0  0  0  0  0  0
   -9.1379    3.7444  -19.2021 C   0  0  0  0  0  0  0  0  0  0  0  0
  -13.6886    0.0440  -22.8824 C   0  0  0  0  0  0  0  0  0  0  0  0
  1 17  2  0
  1 28  1  0
  2 22  1  0
  2 26  2  0
  3  9  1  0
  3 15  1  0
  4  8  1  0
  4 26  1  0
  4 28  2  0
  5 18  2  0
  5 21  1  0
  6 20  1  0
  6 24  1  0
  7  9  1  0
  7 14  2  3
  8 18  1  0
  8 19  2  0
 10 27  2  0
 11 13  1  0
 11 22  2  0
 12 27  1  0
 13 21  2  0
 14 25  1  0
 15 23  1  0
 16 20  1  0
 17 19  1  0
 20 23  1  0
 21 26  1  0
 24 28  1  0
 25 27  1  0
M  END
>  <ID>  (1) 
conformer_0

$$$$
