
     RDKit          3D

 21 23  0  0  0  0  0  0  0  0999 V2000
  -13.4803   -1.1072  -22.9279 C   0  0  0  0  0  0  0  0  0  0  0  0
  -12.2513    3.7670  -21.2626 C   0  0  0  0  0  0  0  0  0  0  0  0
  -15.2348    0.4968  -23.2721 C   0  0  0  0  0  0  0  0  0  0  0  0
  -14.2620   -2.1095  -23.3991 C   0  0  0  0  0  0  0  0  0  0  0  0
  -17.4575   -0.3029  -24.2872 C   0  0  0  0  0  0  0  0  0  0  0  0
  -14.3292    3.0303  -21.0034 O   0  0  0  0  0  0  0  0  0  0  0  0
   -9.5886    6.2428  -20.0583 O   0  0  0  0  0  1  0  0  0  0  0  0
  -13.0117    1.2171  -22.4220 C   0  0  0  0  0  0  0  0  0  0  0  0
   -8.5060    4.4689  -21.5761 O   0  0  0  0  0  0  0  0  0  0  0  0
   -9.6413    4.7421  -20.5372 P   0  0  0  0  0  4  0  0  0  0  0  0
   -9.5631    3.8146  -19.2871 O   0  0  0  0  0  0  0  0  0  0  0  0
  -11.0650    4.5211  -21.3935 C   0  0  0  0  0  0  0  0  0  0  0  0
  -16.3016   -2.7559  -24.3837 O   0  0  0  0  0  0  0  0  0  0  0  0
  -15.5490   -1.8697  -23.8694 C   0  0  0  0  0  0  0  0  0  0  0  0
  -13.1667    2.4232  -21.7389 C   0  0  0  0  0  0  0  0  0  0  0  0
  -16.0799   -0.5309  -23.7958 C   0  0  0  0  0  0  0  0  0  0  0  0
  -17.9981    1.0062  -24.1829 C   0  0  0  0  0  0  0  0  0  0  0  0
  -13.4297    4.3279  -20.5055 C   0  0  0  0  0  0  0  0  0  0  0  0
  -13.9093    0.1988  -22.8638 C   0  0  0  0  0  0  0  0  0  0  0  0
  -17.0692    2.1303  -23.8033 C   0  0  0  0  0  0  0  0  0  0  0  0
  -15.8053    1.8931  -23.1799 C   0  0  0  0  0  0  0  0  0  0  0  0
  1  4  2  0
  1 19  1  0
  2 12  1  0
  2 15  1  0
  2 18  1  0
  3 16  1  0
  3 19  2  0
  3 21  1  0
  4 14  1  0
  5 16  1  0
  5 17  2  0
  6 15  1  0
  6 18  1  0
  7 10  2  0
  8 15  2  3
  8 19  1  0
  9 10  1  0
 10 11  1  0
 10 12  1  0
 13 14  2  0
 14 16  1  0
 17 20  1  0
 20 21  1  0
M  END
>  <ID>  (1) 
conformer_0

$$$$
