
     RDKit          3D

 28 31  0  0  0  0  0  0  0  0999 V2000
  -16.3723   -1.6622  -23.9957 N   0  0  0  0  0  0  0  0  0  0  0  0
  -18.6506   -0.8955  -24.7209 C   0  0  0  0  0  0  0  0  0  0  0  0
  -11.3839    4.4658  -20.9830 C   0  0  0  0  0  0  0  0  0  0  0  0
  -14.0208   -2.2864  -23.3639 C   0  0  0  0  0  0  0  0  0  0  0  0
   -9.1751    5.1907  -21.6655 C   0  0  0  0  0  0  0  0  0  0  0  0
  -13.6469    3.8427  -21.7925 C   0  0  0  0  0  0  0  0  0  0  0  0
  -12.4635   -0.4366  -22.9170 N   0  0  0  0  0  0  0  0  0  0  0  0
  -10.3112    3.0489  -19.3976 O   0  0  0  0  0  0  0  0  0  0  0  0
  -17.1691    3.5742  -23.2665 C   0  0  0  0  0  0  0  0  0  0  0  0
  -17.2932   -0.6901  -24.1452 C   0  0  0  0  0  0  0  0  0  0  0  0
  -13.4177    0.4118  -23.0064 N   0  0  0  0  0  0  0  0  0  0  0  0
  -12.7414   -1.8032  -22.8713 C   0  0  0  0  0  0  0  0  0  0  0  0
   -8.5091    5.2679  -18.9869 O   0  0  0  0  0  0  0  0  0  0  0  0
  -11.9279   -2.6156  -22.0683 C   0  0  0  0  0  0  0  0  0  0  0  0
  -15.8447    3.2599  -22.8018 N   0  0  0  0  0  0  0  0  0  0  0  0
  -16.9726    0.5801  -23.7837 C   0  0  0  0  0  0  0  0  0  0  0  0
   -9.1814    4.9946  -20.1766 C   0  0  0  0  0  0  0  0  0  0  0  0
  -14.7817    6.1019  -20.7493 C   0  0  0  0  0  0  0  0  0  0  0  0
  -12.8025    4.6893  -21.0525 C   0  0  0  0  0  0  0  0  0  0  0  0
  -14.7202   -0.0160  -23.2954 C   0  0  0  0  0  0  0  0  0  0  0  0
  -15.5387    5.2685  -21.5543 C   0  0  0  0  0  0  0  0  0  0  0  0
  -10.5327    4.2789  -19.8466 C   0  0  0  0  0  0  0  0  0  0  0  0
  -14.9758    4.1250  -22.0466 C   0  0  0  0  0  0  0  0  0  0  0  0
  -15.0935   -1.3246  -23.5780 C   0  0  0  0  0  0  0  0  0  0  0  0
  -10.5847    4.8100  -22.1958 C   0  0  0  0  0  0  0  0  0  0  0  0
  -13.4484    5.8154  -20.4644 C   0  0  0  0  0  0  0  0  0  0  0  0
  -15.7566    0.9204  -23.3410 C   0  0  0  0  0  0  0  0  0  0  0  0
  -15.3616    2.0858  -22.9148 N   0  0  0  0  0  0  0  0  0  0  0  0
  1 10  1  0
  1 24  2  0
  2 10  1  0
  3 19  1  0
  3 22  1  0
  3 25  1  0
  4 12  1  0
  4 24  1  0
  5 17  1  0
  5 25  1  0
  6 19  2  0
  6 23  1  0
  7 11  1  0
  7 12  1  0
  8 22  1  0
  9 15  1  0
 10 16  2  0
 11 20  2  0
 12 14  1  0
 13 17  1  0
 15 23  1  0
 15 28  1  0
 16 27  1  0
 17 22  1  0
 18 21  1  0
 18 26  2  0
 19 26  1  0
 20 24  1  0
 20 27  1  0
 21 23  2  0
 27 28  2  3
M  END
>  <ID>  (1) 
conformer_0

$$$$
