
     RDKit          3D

 40 44  0  0  0  0  0  0  0  0999 V2000
  -17.8840    2.1080  -23.2969 N   0  0  0  0  0  0  0  0  0  0  0  0
  -18.7524    1.2338  -23.9560 C   0  0  0  0  0  0  0  0  0  0  0  0
  -13.7549    1.0358  -22.9259 C   0  0  0  0  0  0  0  0  0  0  0  0
  -12.0306    4.9498  -20.6570 O   0  0  0  0  0  0  0  0  0  0  0  0
  -12.4340    0.8100  -22.6958 C   0  0  0  0  0  0  0  0  0  0  0  0
  -17.2245   -2.4795  -25.0576 O   0  0  0  0  0  0  0  0  0  0  0  0
  -11.9152   -0.4849  -22.7509 C   0  0  0  0  0  0  0  0  0  0  0  0
  -14.7453    0.1127  -23.2849 N   0  0  0  0  0  0  0  0  0  0  0  0
  -17.4574    5.4430  -21.6511 C   0  0  0  0  0  0  0  0  0  0  0  0
  -15.8514    3.6772  -21.7037 C   0  0  0  0  0  0  0  0  0  0  0  0
  -10.0570    4.9004  -23.0493 C   0  0  0  0  0  0  0  0  0  0  0  0
  -15.3055   -2.0800  -23.9706 N   0  0  0  0  0  0  0  0  0  0  0  0
  -14.3940    4.1373  -21.2541 C   0  0  0  0  0  0  0  0  0  0  0  0
  -13.0113   -1.5114  -23.1340 C   0  0  0  0  0  0  0  0  0  0  0  0
  -11.4843    1.8899  -22.3813 C   0  0  0  0  0  0  0  0  0  0  0  0
  -19.9966    1.5847  -24.3375 F   0  0  0  0  0  0  0  0  0  0  0  0
  -16.1069    0.4690  -23.4881 C   0  0  0  0  0  0  0  0  0  0  0  0
   -7.9695   -0.5989  -21.4941 O   0  0  0  0  0  0  0  0  0  0  0  0
   -8.7507    6.7239  -20.6150 O   0  0  0  0  0  1  0  0  0  0  0  0
   -9.6637    5.9240  -19.7219 P   0  0  0  0  0  4  0  0  0  0  0  0
  -17.2553    4.1061  -22.0836 C   0  0  0  0  0  0  0  0  0  0  0  0
  -18.7199    6.0216  -21.7159 C   0  0  0  0  0  0  0  0  0  0  0  0
  -14.3590   -1.2210  -23.4798 C   0  0  0  0  0  0  0  0  0  0  0  0
  -10.4533   -0.7331  -22.4637 C   0  0  0  0  0  0  0  0  0  0  0  0
   -9.9477   -2.0076  -21.9583 C   0  0  0  0  0  0  0  0  0  0  0  0
  -16.5799    1.7084  -23.1831 N   0  0  0  0  0  0  0  0  0  0  0  0
  -17.0364   -0.4203  -24.0293 C   0  0  0  0  0  0  0  0  0  0  0  0
  -14.6564    5.5977  -20.8013 C   0  0  0  0  0  0  0  0  0  0  0  0
   -8.9325    5.0099  -18.7651 O   0  0  0  0  0  0  0  0  0  0  0  0
  -19.5791    3.9716  -22.7180 C   0  0  0  0  0  0  0  0  0  0  0  0
  -16.1268    5.9711  -21.1080 C   0  0  0  0  0  0  0  0  0  0  0  0
  -10.5741    6.8959  -19.0235 O   0  0  0  0  0  0  0  0  0  0  0  0
  -10.0359    4.1990  -21.7573 O   0  0  0  0  0  0  0  0  0  0  0  0
  -19.7924    5.2564  -22.2236 C   0  0  0  0  0  0  0  0  0  0  0  0
  -18.2795    3.3983  -22.7200 C   0  0  0  0  0  0  0  0  0  0  0  0
  -16.5511   -1.7240  -24.3667 C   0  0  0  0  0  0  0  0  0  0  0  0
  -10.6427    4.8057  -20.7100 C   0  0  0  0  0  0  0  0  0  0  0  0
  -12.9279    3.8771  -20.9026 C   0  0  0  0  0  0  0  0  0  0  0  0
  -18.3193    0.0065  -24.2578 C   0  0  0  0  0  0  0  0  0  0  0  0
   -8.4158   -1.9129  -21.6205 C   0  0  0  0  0  0  0  0  0  0  0  0
  1  2  1  0
  1 26  1  0
  1 35  1  0
  2 16  1  0
  2 39  2  0
  3  5  2  0
  3  8  1  0
  4 37  1  0
  4 38  1  0
  5  7  1  0
  5 15  1  0
  6 36  2  0
  7 14  2  0
  7 24  1  0
  8 17  1  0
  8 23  1  0
  9 21  2  0
  9 22  1  0
  9 31  1  0
 10 13  1  0
 10 21  1  0
 11 33  1  0
 12 23  2  0
 12 36  1  0
 13 28  1  0
 13 38  1  0
 14 23  1  0
 17 26  2  0
 17 27  1  0
 18 40  1  0
 19 20  2  0
 20 29  1  0
 20 32  1  0
 20 37  1  0
 21 35  1  0
 22 34  2  0
 24 25  1  0
 25 40  1  0
 27 36  1  0
 27 39  1  0
 28 31  1  0
 30 34  1  0
 30 35  2  0
 33 37  1  0
M  END
>  <ID>  (1) 
conformer_0

$$$$
