
     RDKit          3D

 25 27  0  0  0  0  0  0  0  0999 V2000
  -16.8460   -2.0865  -24.2987 N   0  0  0  0  0  0  0  0  0  0  0  0
  -11.5378    5.9353  -19.4748 O   0  0  0  0  0  0  0  0  0  0  0  0
  -10.0300   -2.7539  -21.8121 O   0  0  0  0  0  0  0  0  0  0  0  0
   -8.9441   -0.7540  -21.4796 O   0  0  0  0  0  0  0  0  0  0  0  0
  -11.3227    5.0400  -20.3238 C   0  0  0  0  0  0  0  0  0  0  0  0
  -13.6436    4.0120  -20.7631 O   0  0  0  0  0  0  0  0  0  0  0  0
  -12.4815    4.7183  -21.2787 C   0  0  0  0  0  0  0  0  0  0  0  0
  -17.8546    0.2519  -24.4265 C   0  0  0  0  0  0  0  0  0  0  0  0
  -12.3243   -1.2946  -22.6427 C   0  0  0  0  0  0  0  0  0  0  0  0
  -15.4422   -0.5236  -23.4611 C   0  0  0  0  0  0  0  0  0  0  0  0
  -13.2782    2.0149  -21.9741 N   0  0  0  0  0  0  0  0  0  0  0  0
  -14.7426   -1.7140  -23.4642 C   0  0  0  0  0  0  0  0  0  0  0  0
  -12.6875   -0.1419  -22.5764 C   0  0  0  0  0  0  0  0  0  0  0  0
   -9.9664   -1.4489  -21.8393 C   0  0  0  0  0  0  0  0  0  0  0  0
  -15.6885   -2.6714  -23.9381 N   0  0  0  0  0  0  0  0  0  0  0  0
  -13.4688   -2.1107  -23.1155 C   0  0  0  0  0  0  0  0  0  0  0  0
  -13.6589    0.8156  -22.5042 C   0  0  0  0  0  0  0  0  0  0  0  0
  -15.8022    1.8117  -22.7621 C   0  0  0  0  0  0  0  0  0  0  0  0
  -16.7383   -0.7307  -24.0345 C   0  0  0  0  0  0  0  0  0  0  0  0
  -15.3976    2.9583  -22.0894 C   0  0  0  0  0  0  0  0  0  0  0  0
  -10.0902    4.4444  -20.5381 C   0  0  0  0  0  0  0  0  0  0  0  0
  -19.2186   -0.2428  -24.6978 C   0  0  0  0  0  0  0  0  0  0  0  0
  -11.1605   -0.8036  -22.2776 C   0  0  0  0  0  0  0  0  0  0  0  0
  -14.9694    0.7062  -22.9266 C   0  0  0  0  0  0  0  0  0  0  0  0
  -14.0939    2.9750  -21.6200 C   0  0  0  0  0  0  0  0  0  0  0  0
  1 15  1  0
  1 19  1  0
  2  5  2  0
  3 14  2  0
  4 14  1  0
  5  7  1  0
  5 21  1  0
  6  7  1  0
  6 25  1  0
  8 19  1  0
  8 22  1  0
  9 13  1  0
  9 16  2  0
  9 23  1  0
 10 12  2  0
 10 19  1  0
 10 24  1  0
 11 17  2  0
 11 25  1  0
 12 15  1  0
 12 16  1  0
 13 17  1  0
 14 23  1  0
 17 24  1  0
 18 20  1  0
 18 24  2  0
 20 25  2  0
M  END
>  <ID>  (1) 
conformer_0

$$$$
