
     RDKit          3D

 28 29  0  0  0  0  0  0  0  0999 V2000
  -10.8110    4.0217  -20.4260 O   0  0  0  0  0  0  0  0  0  0  0  0
  -13.4373   -2.6653  -23.1312 O   0  0  0  0  0  0  0  0  0  0  0  0
   -8.3932    3.9714  -20.8294 O   0  0  0  0  0  1  0  0  0  0  0  0
  -15.9844    2.2999  -23.2369 C   0  0  0  0  0  0  0  0  0  0  0  0
  -15.9821   -0.0851  -23.6838 C   0  0  0  0  0  0  0  0  0  0  0  0
  -13.3524    4.8099  -21.0795 C   0  0  0  0  0  0  0  0  0  0  0  0
  -17.3666   -1.5510  -24.5819 C   0  0  0  0  0  0  0  0  0  0  0  0
  -10.3627    4.6627  -22.9307 O   0  0  0  0  0  1  0  0  0  0  0  0
  -15.3265    4.6263  -22.8912 O   0  0  0  0  0  0  0  0  0  0  0  0
  -16.2454   -2.2284  -24.2272 N   0  0  0  0  0  0  0  0  0  0  0  0
  -16.6953    2.5476  -24.2655 O   0  0  0  0  0  0  0  0  0  0  0  0
  -10.7986    5.1569  -21.6052 P   0  0  0  0  0  4  0  0  0  0  0  0
  -11.9915   -0.4276  -22.5378 O   0  0  0  0  0  0  0  0  0  0  0  0
  -12.3229    5.5324  -21.6836 O   0  0  0  0  0  0  0  0  0  0  0  0
   -9.3951    2.3594  -19.1096 O   0  0  0  0  0  0  0  0  0  0  0  0
  -13.5159    3.3528  -21.3120 C   0  0  0  0  0  0  0  0  0  0  0  0
  -13.9325    0.9283  -22.8318 C   0  0  0  0  0  0  0  0  0  0  0  0
   -9.1254    4.8009  -18.5765 O   0  0  0  0  0  0  0  0  0  0  0  0
   -9.9597    6.3132  -21.0830 O   0  0  0  0  0  0  0  0  0  0  0  0
  -17.2535   -0.2515  -24.1825 N   0  0  0  0  0  0  0  0  0  0  0  0
  -15.0136    2.9632  -21.0563 C   0  0  0  0  0  0  0  0  0  0  0  0
  -15.8519    3.4720  -22.1957 C   0  0  0  0  0  0  0  0  0  0  0  0
  -17.2847    3.7173  -21.6922 O   0  0  0  0  0  0  0  0  0  0  0  0
  -15.3743   -1.3687  -23.6587 C   0  0  0  0  0  0  0  0  0  0  0  0
  -15.2707    1.0409  -23.2061 N   0  0  0  0  0  0  0  0  0  0  0  0
   -9.3672    3.7445  -19.6242 P   0  0  0  0  0  4  0  0  0  0  0  0
  -14.0248   -1.5054  -23.2111 C   0  0  0  0  0  0  0  0  0  0  0  0
  -13.2903   -0.3172  -22.8521 C   0  0  0  0  0  0  0  0  0  0  0  0
  1 12  1  0
  1 26  1  0
  2 27  1  0
  3 26  2  0
  4 11  2  0
  4 22  1  0
  4 25  1  0
  5 20  2  0
  5 24  1  0
  5 25  1  0
  6 14  1  0
  6 16  1  0
  7 10  1  0
  7 20  1  0
  8 12  2  0
  9 22  1  0
 10 24  1  0
 12 14  1  0
 12 19  1  0
 13 28  1  0
 15 26  1  0
 16 21  1  0
 17 25  1  0
 17 28  2  0
 18 26  1  0
 21 22  1  0
 22 23  1  0
 24 27  2  0
 27 28  1  0
M  END
>  <ID>  (1) 
conformer_0

$$$$
