
     RDKit          3D

 19 19  0  0  0  0  0  0  0  0999 V2000
  -15.1799    2.0026  -22.7298 C   0  0  0  0  0  0  0  0  0  0  0  0
  -11.3318    4.3180  -20.9636 C   0  0  0  0  0  0  0  0  0  0  0  0
  -14.3183   -1.6164  -23.3338 C   0  0  0  0  0  0  0  0  0  0  0  0
  -16.5168   -1.2645  -24.1428 C   0  0  0  0  0  0  0  0  0  0  0  0
  -14.1758   -0.2168  -23.0606 C   0  0  0  0  0  0  0  0  0  0  0  0
  -15.4860   -2.1027  -23.8526 C   0  0  0  0  0  0  0  0  0  0  0  0
   -8.9218    4.5391  -21.2586 O   0  0  0  0  0  0  0  0  0  0  0  0
  -13.2104   -2.4992  -22.9968 C   0  0  0  0  0  0  0  0  0  0  0  0
  -12.9340    0.1829  -22.6828 F   0  0  0  0  0  0  0  0  0  0  0  0
   -9.8511    4.1742  -20.4526 C   0  0  0  0  0  0  0  0  0  0  0  0
  -16.1700    2.6318  -22.3840 O   0  0  0  0  0  0  0  0  0  0  0  0
  -16.4274    0.0931  -23.8160 C   0  0  0  0  0  0  0  0  0  0  0  0
  -12.1677    3.4515  -20.1346 O   0  0  0  0  0  0  0  0  0  0  0  0
  -13.5565    3.7581  -20.3635 C   0  0  0  0  0  0  0  0  0  0  0  0
  -13.9254    2.5272  -22.4103 N   0  0  0  0  0  0  0  0  0  0  0  0
  -13.7581    3.8854  -21.8754 C   0  0  0  0  0  0  0  0  0  0  0  0
  -15.2809    0.6342  -23.2228 C   0  0  0  0  0  0  0  0  0  0  0  0
   -9.6875    3.4038  -19.4470 O   0  0  0  0  0  0  0  0  0  0  0  0
  -17.5620   -1.7816  -24.7142 O   0  0  0  0  0  0  0  0  0  0  0  0
  1 11  2  0
  1 15  1  0
  1 17  1  0
  2 10  1  0
  2 13  1  0
  3  5  1  0
  3  6  1  0
  3  8  1  0
  4  6  2  0
  4 12  1  0
  4 19  1  0
  5  9  1  0
  5 17  2  0
  7 10  2  0
 10 18  1  0
 12 17  1  0
 13 14  1  0
 14 16  1  0
 15 16  1  0
M  END
>  <ID>  (1) 
conformer_0

$$$$
