
     RDKit          3D

 33 35  0  0  0  0  0  0  0  0999 V2000
   -8.3515    5.0725  -20.9052 O   0  0  0  0  0  1  0  0  0  0  0  0
   -9.9348   -1.0434  -22.1996 O   0  0  0  0  0  0  0  0  0  0  0  0
  -17.3672    3.4231  -22.8498 N   0  0  0  0  0  0  0  0  0  0  0  0
  -18.7627   -0.5291  -24.5197 N   0  0  0  0  0  0  0  0  0  0  0  0
  -18.5737    3.8600  -22.5289 C   0  0  0  0  0  0  0  0  0  0  0  0
  -15.0702   -1.3281  -23.7975 C   0  0  0  0  0  0  0  0  0  0  0  0
  -11.7156    5.4200  -20.6637 C   0  0  0  0  0  0  0  0  0  0  0  0
  -14.3856   -0.1267  -23.7343 C   0  0  0  0  0  0  0  0  0  0  0  0
  -12.9204    3.5219  -21.5693 C   0  0  0  0  0  0  0  0  0  0  0  0
   -9.3939    4.4675  -19.8240 P   0  0  0  0  0  4  0  0  0  0  0  0
  -14.3812   -2.4732  -23.4006 C   0  0  0  0  0  0  0  0  0  0  0  0
  -15.3147    4.8555  -21.4586 C   0  0  0  0  0  0  0  0  0  0  0  0
   -9.4138    3.0058  -19.1979 O   0  0  0  0  0  0  0  0  0  0  0  0
  -17.4160   -0.4221  -24.1599 C   0  0  0  0  0  0  0  0  0  0  0  0
  -14.1497    5.5471  -21.0737 C   0  0  0  0  0  0  0  0  0  0  0  0
  -12.3930   -1.1622  -22.8260 C   0  0  0  0  0  0  0  0  0  0  0  0
  -19.4043    0.6445  -24.2767 C   0  0  0  0  0  0  0  0  0  0  0  0
  -17.2372    0.8804  -23.7175 C   0  0  0  0  0  0  0  0  0  0  0  0
   -9.3580    5.4555  -18.6803 O   0  0  0  0  0  0  0  0  0  0  0  0
  -16.4650   -1.4942  -24.2960 C   0  0  0  0  0  0  0  0  0  0  0  0
  -12.9420    4.8003  -21.1085 C   0  0  0  0  0  0  0  0  0  0  0  0
  -16.5153    2.6754  -21.9116 C   0  0  0  0  0  0  0  0  0  0  0  0
  -10.6710    4.3509  -20.7444 O   0  0  0  0  0  0  0  0  0  0  0  0
  -18.4126    1.5578  -23.7128 C   0  0  0  0  0  0  0  0  0  0  0  0
  -20.7856    0.9697  -24.5374 C   0  0  0  0  0  0  0  0  0  0  0  0
  -11.1968   -0.9141  -22.3587 N   0  0  0  0  0  0  0  0  0  0  0  0
  -18.6725    2.8568  -23.2711 C   0  0  0  0  0  0  0  0  0  0  0  0
  -13.0612   -2.3866  -22.9366 C   0  0  0  0  0  0  0  0  0  0  0  0
  -12.4627    1.1188  -23.1369 O   0  0  0  0  0  0  0  0  0  0  0  0
  -16.8221   -2.5465  -24.8524 O   0  0  0  0  0  0  0  0  0  0  0  0
  -14.0388    2.8634  -21.9414 C   0  0  0  0  0  0  0  0  0  0  0  0
  -13.0939   -0.0303  -23.2169 C   0  0  0  0  0  0  0  0  0  0  0  0
  -15.2575    3.4898  -21.7894 C   0  0  0  0  0  0  0  0  0  0  0  0
  1 10  2  0
  2 26  1  0
  3  5  1  0
  3 22  1  0
  4 14  1  0
  4 17  1  0
  5 27  1  0
  6  8  2  0
  6 11  1  0
  6 20  1  0
  7 21  1  0
  7 23  1  0
  8 32  1  0
  9 21  2  0
  9 31  1  0
 10 13  1  0
 10 19  1  0
 10 23  1  0
 11 28  2  0
 12 15  2  0
 12 33  1  0
 14 18  1  0
 14 20  1  0
 15 21  1  0
 16 26  1  0
 16 28  1  0
 16 32  2  0
 17 24  2  0
 17 25  1  0
 18 24  1  0
 20 30  2  0
 22 33  1  0
 24 27  1  0
 29 32  1  0
 31 33  2  0
M  END
>  <ID>  (1) 
conformer_0

$$$$
