
     RDKit          3D

 30 33  0  0  0  0  0  0  0  0999 V2000
  -18.0498   -1.4493  -24.6056 N   0  0  0  0  0  0  0  0  0  0  0  0
  -18.8656   -0.3713  -24.6702 C   0  0  0  0  0  0  0  0  0  0  0  0
  -10.8069    7.9148  -19.2729 O   0  0  0  0  0  0  0  0  0  0  0  0
  -13.0336    8.4948  -19.0183 C   0  0  0  0  0  0  0  0  0  0  0  0
  -12.0147   -0.0760  -22.8013 O   0  0  0  0  0  0  0  0  0  0  0  0
  -15.4247   -1.5420  -23.7141 C   0  0  0  0  0  0  0  0  0  0  0  0
  -14.7044    0.7129  -22.9653 C   0  0  0  0  0  0  0  0  0  0  0  0
  -15.2344    2.8884  -22.2968 C   0  0  0  0  0  0  0  0  0  0  0  0
  -11.9275    3.9651  -20.7800 C   0  0  0  0  0  0  0  0  0  0  0  0
  -16.0303    1.0374  -23.2853 N   0  0  0  0  0  0  0  0  0  0  0  0
  -12.6951    6.2043  -19.9292 C   0  0  0  0  0  0  0  0  0  0  0  0
  -12.5001   -2.3137  -22.3179 C   0  0  0  0  0  0  0  0  0  0  0  0
  -16.3540    2.3562  -22.9297 C   0  0  0  0  0  0  0  0  0  0  0  0
   -8.4389    5.6237  -20.9488 O   0  0  0  0  0  1  0  0  0  0  0  0
  -12.9322   -1.0338  -22.8776 C   0  0  0  0  0  0  0  0  0  0  0  0
   -8.1558    5.3078  -18.4427 O   0  0  0  0  0  0  0  0  0  0  0  0
  -10.4787    5.3945  -19.4760 O   0  0  0  0  0  0  0  0  0  0  0  0
  -13.3659    3.8388  -21.2572 C   0  0  0  0  0  0  0  0  0  0  0  0
  -14.3464   -0.6726  -23.1857 C   0  0  0  0  0  0  0  0  0  0  0  0
  -14.8436    3.9289  -21.3636 C   0  0  0  0  0  0  0  0  0  0  0  0
  -14.1492    1.8920  -22.3448 C   0  0  0  0  0  0  0  0  0  0  0  0
  -11.5171    5.4275  -20.5122 C   0  0  0  0  0  0  0  0  0  0  0  0
  -16.9681    0.2530  -23.8278 N   0  0  0  0  0  0  0  0  0  0  0  0
  -16.8222   -1.1035  -24.0941 C   0  0  0  0  0  0  0  0  0  0  0  0
  -15.1726   -2.8101  -23.8445 O   0  0  0  0  0  0  0  0  0  0  0  0
  -13.0883    2.4877  -21.8005 O   0  0  0  0  0  0  0  0  0  0  0  0
   -9.1502    3.3087  -19.8177 O   0  0  0  0  0  0  0  0  0  0  0  0
  -12.0362    7.4636  -19.2486 C   0  0  0  0  0  0  0  0  0  0  0  0
   -8.9958    4.8553  -19.7056 P   0  0  0  0  0  4  0  0  0  0  0  0
  -18.1719    0.7484  -24.1893 C   0  0  0  0  0  0  0  0  0  0  0  0
  1  2  1  0
  1 24  2  0
  2 30  1  0
  3 28  1  0
  4 28  1  0
  5 15  1  0
  6 19  2  0
  6 24  1  0
  6 25  1  0
  7 10  1  0
  7 19  1  0
  7 21  2  0
  8 13  1  0
  8 20  1  0
  8 21  1  0
  9 18  1  0
  9 22  1  0
 10 13  1  0
 10 23  1  0
 11 22  1  0
 11 28  1  0
 12 15  1  0
 14 29  2  0
 15 19  1  0
 16 29  1  0
 17 22  1  0
 17 29  1  0
 18 20  1  0
 18 26  1  0
 21 26  1  0
 23 24  1  0
 23 30  1  0
 27 29  1  0
M  END
>  <ID>  (1) 
conformer_0

$$$$
