
     RDKit          3D

 21 22  0  0  0  0  0  0  0  0999 V2000
  -14.9854   -1.7643  -23.4269 C   0  0  0  0  0  0  0  0  0  0  0  0
  -16.0823    2.3043  -23.4531 C   0  0  0  0  0  0  0  0  0  0  0  0
  -14.6438   -3.0334  -23.3994 O   0  0  0  0  0  0  0  0  0  0  0  0
  -17.0824   -2.1861  -24.5114 O   0  0  0  0  0  0  0  0  0  0  0  0
  -13.5433    1.5105  -22.4391 C   0  0  0  0  0  0  0  0  0  0  0  0
   -9.0354    4.3543  -21.2662 O   0  0  0  0  0  1  0  0  0  0  0  0
  -12.3628    3.2200  -21.3824 C   0  0  0  0  0  0  0  0  0  0  0  0
  -12.6513   -1.2854  -22.6661 C   0  0  0  0  0  0  0  0  0  0  0  0
  -16.1874   -1.3292  -24.0600 C   0  0  0  0  0  0  0  0  0  0  0  0
  -13.9910   -0.8057  -22.9599 C   0  0  0  0  0  0  0  0  0  0  0  0
  -12.4412    4.5617  -20.6901 C   0  0  0  0  0  0  0  0  0  0  0  0
  -11.1325    4.9187  -20.1232 O   0  0  0  0  0  0  0  0  0  0  0  0
  -17.1684    3.0145  -22.8501 C   0  0  0  0  0  0  0  0  0  0  0  0
  -16.6735    3.9134  -21.6768 C   0  0  0  0  0  0  0  0  0  0  0  0
  -13.8523    2.8741  -21.9782 C   0  0  0  0  0  0  0  0  0  0  0  0
  -15.6450    0.9245  -23.4727 C   0  0  0  0  0  0  0  0  0  0  0  0
  -15.1624    3.5734  -21.3894 C   0  0  0  0  0  0  0  0  0  0  0  0
   -9.9456    4.0172  -20.3069 P   0  0  0  0  0  0  0  0  0  0  0  0
  -14.3216    0.5393  -23.0400 C   0  0  0  0  0  0  0  0  0  0  0  0
  -16.3968    0.0495  -24.2528 C   0  0  0  0  0  0  0  0  0  0  0  0
   -9.8517    2.9387  -19.4501 O   0  0  0  0  0  1  0  0  0  0  0  0
  1  3  1  0
  1  9  2  0
  1 10  1  0
  2 13  1  0
  2 16  1  0
  4  9  1  0
  5 15  1  0
  5 19  1  0
  6 18  1  0
  7 11  1  0
  7 15  1  0
  8 10  1  0
  9 20  1  0
 10 19  1  0
 11 12  1  0
 12 18  1  0
 13 14  1  0
 14 17  1  0
 15 17  1  0
 16 19  1  0
 16 20  1  0
 18 21  1  0
M  END
>  <ID>  (1) 
conformer_0

$$$$
