
     RDKit          3D

 30 31  0  0  0  0  0  0  0  0999 V2000
  -17.1212    3.1670  -24.2766 O   0  0  0  0  0  0  0  0  0  0  0  0
  -12.9943    4.8926  -20.9467 C   0  0  0  0  0  0  0  0  0  0  0  0
  -14.3113   -2.3062  -23.3362 C   0  0  0  0  0  0  0  0  0  0  0  0
   -9.0558    3.9219  -18.8636 O   0  0  0  0  0  1  0  0  0  0  0  0
  -11.3909   -0.9750  -23.9782 C   0  0  0  0  0  0  0  0  0  0  0  0
  -16.5513   -1.7464  -24.3192 C   0  0  0  0  0  0  0  0  0  0  0  0
  -16.1408    4.9750  -21.7592 C   0  0  0  0  0  0  0  0  0  0  0  0
  -17.4482   -2.2581  -24.9772 O   0  0  0  0  0  0  0  0  0  0  0  0
  -12.2551   -0.9602  -22.7481 C   0  0  0  0  0  0  0  0  0  0  0  0
  -16.4530    2.8423  -20.8356 O   0  0  0  0  0  0  0  0  0  0  0  0
  -18.3471    5.1831  -20.8802 O   0  0  0  0  0  0  0  0  0  0  0  0
  -13.7325   -0.9994  -23.1495 C   0  0  0  0  0  0  0  0  0  0  0  0
   -9.6348    6.2236  -19.6236 O   0  0  0  0  0  0  0  0  0  0  0  0
  -13.6401   -3.2459  -22.9482 O   0  0  0  0  0  0  0  0  0  0  0  0
  -15.5502   -2.5559  -23.8971 N   0  0  0  0  0  0  0  0  0  0  0  0
  -13.5974    1.3674  -23.2422 F   0  0  0  0  0  0  0  0  0  0  0  0
  -16.9597    5.5974  -20.5195 C   0  0  0  0  0  0  0  0  0  0  0  0
  -16.7124    2.8146  -23.2321 C   0  0  0  0  0  0  0  0  0  0  0  0
  -15.7897    0.4284  -23.4730 C   0  0  0  0  0  0  0  0  0  0  0  0
  -14.6379    4.8641  -21.2322 C   0  0  0  0  0  0  0  0  0  0  0  0
  -18.3416    4.0462  -21.8296 C   0  0  0  0  0  0  0  0  0  0  0  0
  -11.8762    3.9957  -20.4623 C   0  0  0  0  0  0  0  0  0  0  0  0
  -10.5592    4.1407  -20.7126 O   0  0  0  0  0  0  0  0  0  0  0  0
   -8.2943    4.8336  -21.2251 O   0  0  0  0  0  0  0  0  0  0  0  0
  -16.2849    1.6351  -23.0596 N   0  0  0  0  0  0  0  0  0  0  0  0
   -9.3398    4.8180  -20.0730 P   0  0  0  0  0  4  0  0  0  0  0  0
  -16.6349   -0.4397  -24.0264 N   0  0  0  0  0  0  0  0  0  0  0  0
  -14.3561    0.2113  -23.2950 C   0  0  0  0  0  0  0  0  0  0  0  0
  -12.4825    4.2436  -22.1567 C   0  0  0  0  0  0  0  0  0  0  0  0
  -16.8500    3.6387  -21.9530 C   0  0  0  0  0  0  0  0  0  0  0  0
  1 18  2  0
  2 20  1  0
  2 22  1  0
  2 29  1  0
  3 12  1  0
  3 14  2  0
  3 15  1  0
  4 26  2  0
  5  9  1  0
  6  8  2  0
  6 15  1  0
  6 27  1  0
  7 17  1  0
  7 20  1  0
  7 30  1  0
  9 12  1  0
 10 30  1  0
 11 17  1  0
 11 21  1  0
 12 28  2  0
 13 26  1  0
 16 28  1  0
 18 25  1  0
 18 30  1  0
 19 25  1  0
 19 27  2  0
 19 28  1  0
 21 30  1  0
 22 23  1  0
 23 26  1  0
 24 26  1  0
M  END
>  <ID>  (1) 
conformer_0

$$$$
