
     RDKit          3D

 24 24  0  0  0  0  0  0  0  0999 V2000
  -14.4381    3.5159  -20.9781 C   0  0  0  0  0  0  0  0  0  0  0  0
  -15.0362   -0.4489  -23.2919 C   0  0  0  0  0  0  0  0  0  0  0  0
   -9.1367    4.9628  -18.7292 O   0  0  0  0  0  1  0  0  0  0  0  0
  -16.2194   -0.5224  -24.0133 C   0  0  0  0  0  0  0  0  0  0  0  0
  -11.6463    5.6675  -19.7485 O   0  0  0  0  0  0  0  0  0  0  0  0
  -12.0080   -0.4188  -24.2782 F   0  0  0  0  0  0  0  0  0  0  0  0
  -16.7662    1.6891  -23.3814 C   0  0  0  0  0  0  0  0  0  0  0  0
  -11.2775    4.6592  -20.4397 C   0  0  0  0  0  0  0  0  0  0  0  0
  -14.7180    0.7081  -22.6311 C   0  0  0  0  0  0  0  0  0  0  0  0
   -9.6370    4.1349  -19.8699 P   0  0  0  0  0  4  0  0  0  0  0  0
  -13.1722    3.3151  -21.9242 C   0  0  0  0  0  0  0  0  0  0  0  0
  -11.8192   -1.1771  -23.1747 C   0  0  0  0  0  0  0  0  0  0  0  0
  -11.9331    3.5376  -21.1229 C   0  0  0  0  0  0  0  0  0  0  0  0
  -15.6313    3.0072  -21.6806 C   0  0  0  0  0  0  0  0  0  0  0  0
  -14.2385   -1.6742  -23.2627 C   0  0  0  0  0  0  0  0  0  0  0  0
  -15.6280    1.7780  -22.5906 C   0  0  0  0  0  0  0  0  0  0  0  0
  -12.9854   -1.7194  -22.5528 C   0  0  0  0  0  0  0  0  0  0  0  0
  -17.0407    0.5503  -24.0496 C   0  0  0  0  0  0  0  0  0  0  0  0
  -18.1455    0.4774  -24.7910 F   0  0  0  0  0  0  0  0  0  0  0  0
   -8.7690    4.3247  -21.1089 O   0  0  0  0  0  0  0  0  0  0  0  0
  -13.0164   -2.4361  -21.3909 F   0  0  0  0  0  0  0  0  0  0  0  0
  -14.9430   -2.8496  -23.4398 F   0  0  0  0  0  0  0  0  0  0  0  0
   -9.7755    2.6959  -19.3683 O   0  0  0  0  0  0  0  0  0  0  0  0
  -10.6865   -1.2664  -22.5716 F   0  0  0  0  0  0  0  0  0  0  0  0
  1 11  1  0
  1 14  1  0
  2  4  2  0
  2  9  1  0
  2 15  1  0
  3 10  2  0
  4 18  1  0
  5  8  2  0
  6 12  1  0
  7 16  1  0
  7 18  2  0
  8 10  1  0
  8 13  1  0
  9 16  2  0
 10 20  1  0
 10 23  1  0
 11 13  1  0
 12 17  2  3
 12 24  1  0
 14 16  1  0
 15 17  1  0
 15 22  1  0
 17 21  1  0
 18 19  1  0
M  END
>  <ID>  (1) 
conformer_0

$$$$
