
     RDKit          3D

 24 26  0  0  0  0  0  0  0  0999 V2000
  -15.5287   -2.7293  -23.9855 C   0  0  0  0  0  0  0  0  0  0  0  0
  -17.3640   -1.3774  -24.4867 O   0  0  0  0  0  0  0  0  0  0  0  0
  -13.4897    4.8153  -20.6343 C   0  0  0  0  0  0  0  0  0  0  0  0
  -14.7727    1.8141  -22.5350 C   0  0  0  0  0  0  0  0  0  0  0  0
  -14.3041   -3.2168  -23.6959 C   0  0  0  0  0  0  0  0  0  0  0  0
  -13.1578   -2.5095  -23.2749 C   0  0  0  0  0  0  0  0  0  0  0  0
   -9.6093    2.8622  -19.3181 O   0  0  0  0  0  0  0  0  0  0  0  0
   -9.9332    3.6157  -20.3014 C   0  0  0  0  0  0  0  0  0  0  0  0
  -15.9429    3.7844  -22.2749 N   0  0  0  0  0  0  0  0  0  0  0  0
  -12.1088    4.9577  -20.1397 C   0  0  0  0  0  0  0  0  0  0  0  0
  -12.2819    2.9923  -21.3337 C   0  0  0  0  0  0  0  0  0  0  0  0
  -14.7359    3.0706  -22.0415 C   0  0  0  0  0  0  0  0  0  0  0  0
  -16.9418    1.8937  -23.4436 C   0  0  0  0  0  0  0  0  0  0  0  0
  -11.9166   -0.3669  -22.9228 C   0  0  0  0  0  0  0  0  0  0  0  0
  -17.9859    1.3379  -24.0754 O   0  0  0  0  0  0  0  0  0  0  0  0
  -15.7694    1.1458  -23.1876 C   0  0  0  0  0  0  0  0  0  0  0  0
  -16.9855    3.2294  -22.9850 C   0  0  0  0  0  0  0  0  0  0  0  0
  -14.1810   -0.4577  -23.2414 C   0  0  0  0  0  0  0  0  0  0  0  0
  -13.1134   -1.1361  -23.1277 C   0  0  0  0  0  0  0  0  0  0  0  0
  -15.4667   -0.2554  -23.5126 C   0  0  0  0  0  0  0  0  0  0  0  0
   -9.0553    4.2040  -21.0281 O   0  0  0  0  0  0  0  0  0  0  0  0
  -16.1381   -1.4738  -23.9989 C   0  0  0  0  0  0  0  0  0  0  0  0
  -11.3609    3.7725  -20.5923 C   0  0  0  0  0  0  0  0  0  0  0  0
  -13.5782    3.5898  -21.3664 C   0  0  0  0  0  0  0  0  0  0  0  0
  1  5  1  0
  1 22  2  0
  2 22  1  0
  3 10  1  0
  3 24  1  0
  4 12  2  0
  4 16  1  0
  5  6  2  0
  6 19  1  0
  7  8  2  0
  8 21  1  0
  8 23  1  0
  9 12  1  0
  9 17  1  0
 10 23  1  0
 11 23  1  0
 11 24  1  0
 12 24  1  0
 13 15  1  0
 13 16  1  0
 13 17  2  0
 14 19  1  0
 16 20  1  0
 18 19  2  0
 18 20  2  0
 20 22  1  0
M  END
>  <ID>  (1) 
conformer_0

$$$$
