
     RDKit          3D

 21 23  0  0  0  0  0  0  0  0999 V2000
  -12.7209   -1.4458  -22.8041 C   0  0  0  0  0  0  0  0  0  0  0  0
   -9.8316    2.6051  -19.4182 O   0  0  0  0  0  0  0  0  0  0  0  0
  -17.2436   -1.0607  -24.2822 C   0  0  0  0  0  0  0  0  0  0  0  0
  -13.4712    2.0813  -22.0641 C   0  0  0  0  0  0  0  0  0  0  0  0
  -13.8944   -2.0145  -23.2361 C   0  0  0  0  0  0  0  0  0  0  0  0
  -16.1831   -1.8011  -23.9230 N   0  0  0  0  0  0  0  0  0  0  0  0
  -17.1906    0.3367  -24.2101 C   0  0  0  0  0  0  0  0  0  0  0  0
  -14.4222    2.8376  -21.3210 C   0  0  0  0  0  0  0  0  0  0  0  0
   -9.7301    3.8233  -19.8079 C   0  0  0  0  0  0  0  0  0  0  0  0
  -13.7061    0.7728  -22.6553 C   0  0  0  0  0  0  0  0  0  0  0  0
  -14.9320    0.2271  -23.2722 C   0  0  0  0  0  0  0  0  0  0  0  0
  -12.7644    4.2870  -20.3843 C   0  0  0  0  0  0  0  0  0  0  0  0
  -11.8011    3.6774  -21.2200 C   0  0  0  0  0  0  0  0  0  0  0  0
  -12.1929    2.6516  -22.0676 C   0  0  0  0  0  0  0  0  0  0  0  0
  -15.0102   -1.1881  -23.4884 C   0  0  0  0  0  0  0  0  0  0  0  0
  -16.0349    0.9539  -23.7045 C   0  0  0  0  0  0  0  0  0  0  0  0
  -14.0834    3.8821  -20.4886 C   0  0  0  0  0  0  0  0  0  0  0  0
   -9.2715    4.6997  -19.0920 O   0  0  0  0  0  0  0  0  0  0  0  0
  -10.3941    4.2199  -21.1482 C   0  0  0  0  0  0  0  0  0  0  0  0
  -15.7910    2.5841  -21.4608 F   0  0  0  0  0  0  0  0  0  0  0  0
  -12.6238   -0.1041  -22.5683 C   0  0  0  0  0  0  0  0  0  0  0  0
  1  5  1  0
  1 21  2  0
  2  9  2  0
  3  6  2  0
  3  7  1  0
  4  8  1  0
  4 10  1  0
  4 14  1  0
  5 15  2  0
  6 15  1  0
  7 16  1  0
  8 17  1  0
  8 20  1  0
  9 18  1  0
  9 19  1  0
 10 11  1  0
 10 21  1  0
 11 15  1  0
 11 16  2  0
 12 13  1  0
 12 17  2  0
 13 14  2  0
 13 19  1  0
M  END
>  <ID>  (1) 
conformer_0

$$$$
