
     RDKit          3D

 22 23  0  0  0  0  0  0  0  0999 V2000
  -13.6119    0.1554  -23.3202 C   0  0  0  0  0  0  0  0  0  0  0  0
   -9.9584    4.0063  -19.8184 C   0  0  0  0  0  0  0  0  0  0  0  0
  -16.1471    4.2827  -20.9847 C   0  0  0  0  0  0  0  0  0  0  0  0
  -16.1894   -1.5293  -23.8354 C   0  0  0  0  0  0  0  0  0  0  0  0
  -17.3746   -1.8433  -24.3113 O   0  0  0  0  0  0  0  0  0  0  0  0
  -14.9638    0.6584  -23.0882 C   0  0  0  0  0  0  0  0  0  0  0  0
  -14.8351    3.8772  -20.9688 C   0  0  0  0  0  0  0  0  0  0  0  0
  -12.3920    1.0645  -23.6110 C   0  0  0  0  0  0  0  0  0  0  0  0
  -11.1919    0.1469  -23.8757 C   0  0  0  0  0  0  0  0  0  0  0  0
  -15.2482    1.9319  -22.4334 C   0  0  0  0  0  0  0  0  0  0  0  0
  -15.9885   -0.2125  -23.4702 C   0  0  0  0  0  0  0  0  0  0  0  0
  -11.1391    4.2326  -20.7901 C   0  0  0  0  0  0  0  0  0  0  0  0
   -9.8065    2.8423  -19.3504 O   0  0  0  0  0  0  0  0  0  0  0  0
  -14.3687    2.7720  -21.6705 C   0  0  0  0  0  0  0  0  0  0  0  0
  -15.2734   -2.6339  -23.7750 C   0  0  0  0  0  0  0  0  0  0  0  0
  -12.4305    3.5622  -20.5638 C   0  0  0  0  0  0  0  0  0  0  0  0
  -13.9225   -2.3827  -23.5356 C   0  0  0  0  0  0  0  0  0  0  0  0
  -12.9530    2.6392  -21.5322 O   0  0  0  0  0  0  0  0  0  0  0  0
  -17.0263    3.5304  -21.8012 C   0  0  0  0  0  0  0  0  0  0  0  0
  -16.5801    2.4274  -22.4723 C   0  0  0  0  0  0  0  0  0  0  0  0
   -9.1466    4.9527  -19.6572 O   0  0  0  0  0  0  0  0  0  0  0  0
  -13.3579   -1.1685  -23.3906 C   0  0  0  0  0  0  0  0  0  0  0  0
  1  6  1  0
  1  8  1  0
  1 22  1  0
  2 12  1  0
  2 13  2  0
  2 21  1  0
  3  7  2  0
  3 19  1  0
  4  5  1  0
  4 11  2  0
  4 15  1  0
  6 10  1  0
  6 11  1  0
  7 14  1  0
  8  9  1  0
 10 14  2  0
 10 20  1  0
 12 16  1  0
 14 18  1  0
 15 17  1  0
 16 18  1  0
 17 22  2  0
 19 20  2  0
M  END
>  <ID>  (1) 
conformer_0

$$$$
