
     RDKit          3D

 21 22  0  0  0  0  0  0  0  0999 V2000
  -12.6889   -1.3538  -22.6974 C   0  0  0  0  0  0  0  0  0  0  0  0
  -12.6473    3.4712  -20.8154 C   0  0  0  0  0  0  0  0  0  0  0  0
   -9.7850    4.3505  -19.7066 C   0  0  0  0  0  0  0  0  0  0  0  0
  -17.2228   -1.7147  -24.6784 O   0  0  0  0  0  0  0  0  0  0  0  0
  -13.9548    4.2637  -20.8818 C   0  0  0  0  0  0  0  0  0  0  0  0
  -13.4641   -2.3811  -23.2041 C   0  0  0  0  0  0  0  0  0  0  0  0
   -9.8594    3.0787  -19.5653 O   0  0  0  0  0  0  0  0  0  0  0  0
  -15.1427    1.4719  -22.9705 C   0  0  0  0  0  0  0  0  0  0  0  0
  -14.7116   -2.1612  -23.6450 N   0  0  0  0  0  0  0  0  0  0  0  0
  -16.4230    1.6391  -23.4411 C   0  0  0  0  0  0  0  0  0  0  0  0
  -17.1445    0.6034  -24.0251 C   0  0  0  0  0  0  0  0  0  0  0  0
  -10.7716    5.1384  -20.5815 C   0  0  0  0  0  0  0  0  0  0  0  0
  -15.2644   -0.9112  -23.5993 C   0  0  0  0  0  0  0  0  0  0  0  0
  -14.4843    2.5582  -22.4618 O   0  0  0  0  0  0  0  0  0  0  0  0
   -8.9417    5.0414  -19.0471 O   0  0  0  0  0  0  0  0  0  0  0  0
  -11.5764    6.1382  -19.7242 N   0  0  0  0  0  0  0  0  0  0  0  0
  -13.2309   -0.0835  -22.6226 C   0  0  0  0  0  0  0  0  0  0  0  0
  -15.0456    3.2666  -21.3228 C   0  0  0  0  0  0  0  0  0  0  0  0
  -16.6039   -0.7062  -24.1277 C   0  0  0  0  0  0  0  0  0  0  0  0
  -11.5240    4.1808  -21.5288 C   0  0  0  0  0  0  0  0  0  0  0  0
  -14.5246    0.1902  -23.0415 C   0  0  0  0  0  0  0  0  0  0  0  0
  1  6  2  0
  1 17  1  0
  2  5  1  0
  2 20  1  0
  3  7  2  0
  3 12  1  0
  3 15  1  0
  4 19  1  0
  5 18  1  0
  6  9  1  0
  8 10  2  0
  8 14  1  0
  8 21  1  0
  9 13  2  0
 10 11  1  0
 11 19  2  0
 12 16  1  0
 12 20  1  0
 13 19  1  0
 13 21  1  0
 14 18  1  0
 17 21  2  0
M  END
>  <ID>  (1) 
conformer_0

$$$$
