
     RDKit          3D

 26 29  0  0  0  0  0  0  0  0999 V2000
  -16.5065    3.6369  -20.8873 N   0  0  0  0  0  0  0  0  0  0  0  0
  -12.7920   -1.8304  -23.0602 C   0  0  0  0  0  0  0  0  0  0  0  0
  -14.1497    1.5097  -22.4338 C   0  0  0  0  0  0  0  0  0  0  0  0
  -15.4637    2.0942  -22.4716 C   0  0  0  0  0  0  0  0  0  0  0  0
  -10.0125    3.6542  -19.7286 C   0  0  0  0  0  0  0  0  0  0  0  0
  -17.3433   -1.7574  -24.5463 N   0  0  0  0  0  0  0  0  0  0  0  0
  -16.4871    1.5365  -23.2397 C   0  0  0  0  0  0  0  0  0  0  0  0
  -17.5124    4.6025  -21.2638 C   0  0  0  0  0  0  0  0  0  0  0  0
  -15.0980   -1.7672  -23.7398 N   0  0  0  0  0  0  0  0  0  0  0  0
  -11.1980    5.2681  -21.2865 C   0  0  0  0  0  0  0  0  0  0  0  0
  -12.8701   -0.4708  -22.8730 C   0  0  0  0  0  0  0  0  0  0  0  0
  -16.2306   -2.4040  -24.2787 C   0  0  0  0  0  0  0  0  0  0  0  0
  -11.9571    2.8122  -21.0506 O   0  0  0  0  0  0  0  0  0  0  0  0
  -11.2204    3.9428  -20.6222 C   0  0  0  0  0  0  0  0  0  0  0  0
   -9.2889    4.5423  -19.1504 O   0  0  0  0  0  0  0  0  0  0  0  0
  -15.5143    3.1934  -21.6061 C   0  0  0  0  0  0  0  0  0  0  0  0
  -13.9398   -2.4854  -23.4794 C   0  0  0  0  0  0  0  0  0  0  0  0
  -15.1960   -0.4263  -23.4738 C   0  0  0  0  0  0  0  0  0  0  0  0
   -9.8904    2.3952  -19.3927 O   0  0  0  0  0  0  0  0  0  0  0  0
  -16.3826    0.2357  -23.7006 N   0  0  0  0  0  0  0  0  0  0  0  0
  -17.4479   -0.4284  -24.2875 C   0  0  0  0  0  0  0  0  0  0  0  0
  -14.0504    0.2334  -22.9318 C   0  0  0  0  0  0  0  0  0  0  0  0
  -14.1667    3.4935  -21.2471 N   0  0  0  0  0  0  0  0  0  0  0  0
  -13.2859    2.4698  -21.6791 C   0  0  0  0  0  0  0  0  0  0  0  0
  -17.8751    5.2996  -19.9274 C   0  0  0  0  0  0  0  0  0  0  0  0
  -10.5587    6.2955  -20.5614 O   0  0  0  0  0  0  0  0  0  0  0  0
  1  8  1  0
  1 16  2  3
  2 11  2  0
  2 17  1  0
  3  4  2  0
  3 22  1  0
  3 24  1  0
  4  7  1  0
  4 16  1  0
  5 14  1  0
  5 15  2  0
  5 19  1  0
  6 12  2  0
  6 21  1  0
  7 20  1  0
  8 25  1  0
  9 12  1  0
  9 17  1  0
  9 18  1  0
 10 14  1  0
 10 26  1  0
 11 22  1  0
 13 14  1  0
 13 24  1  0
 16 23  1  0
 18 20  1  0
 18 22  2  0
 20 21  1  0
 23 24  1  0
M  END
>  <ID>  (1) 
conformer_0

$$$$
