
     RDKit          3D

 39 43  0  0  0  0  0  0  0  0999 V2000
  -13.1654    5.2069  -20.6812 C   0  0  0  0  0  0  0  0  0  0  0  0
  -18.0692    3.1499  -22.9597 C   0  0  0  0  0  0  0  0  0  0  0  0
  -15.1953    6.7491  -20.3084 C   0  0  0  0  0  0  0  0  0  0  0  0
  -12.1016   -0.4952  -22.6458 C   0  0  0  0  0  0  0  0  0  0  0  0
  -16.1451   -1.8545  -23.9674 N   0  0  0  0  0  0  0  0  0  0  0  0
  -12.8276   -2.7842  -22.8550 C   0  0  0  0  0  0  0  0  0  0  0  0
  -10.0233    4.5036  -22.6179 O   0  0  0  0  0  1  0  0  0  0  0  0
  -16.0089    1.6764  -23.0569 C   0  0  0  0  0  0  0  0  0  0  0  0
  -14.5358    3.3330  -22.0308 C   0  0  0  0  0  0  0  0  0  0  0  0
  -18.6069    4.3118  -22.6330 O   0  0  0  0  0  0  0  0  0  0  0  0
  -15.8477    3.8262  -22.1277 C   0  0  0  0  0  0  0  0  0  0  0  0
  -16.7063    2.9125  -22.7214 C   0  0  0  0  0  0  0  0  0  0  0  0
  -13.2857    3.7850  -21.4521 O   0  0  0  0  0  0  0  0  0  0  0  0
  -10.6725    4.4269  -21.3215 P   0  0  0  0  0  0  0  0  0  0  0  0
  -13.2666    0.1188  -22.8828 C   0  0  0  0  0  0  0  0  0  0  0  0
  -10.1560    7.3763  -19.1748 O   0  0  0  0  0  0  0  0  0  0  0  0
  -18.2292   -1.1328  -24.6522 N   0  0  0  0  0  0  0  0  0  0  0  0
  -18.8466    2.1721  -23.5768 C   0  0  0  0  0  0  0  0  0  0  0  0
  -14.3997   -0.4811  -23.2420 C   0  0  0  0  0  0  0  0  0  0  0  0
  -19.0108   -0.0192  -24.5906 C   0  0  0  0  0  0  0  0  0  0  0  0
  -16.9912   -0.8352  -24.0833 C   0  0  0  0  0  0  0  0  0  0  0  0
  -10.1449    3.6487  -20.2887 O   0  0  0  0  0  1  0  0  0  0  0  0
  -11.9358   -1.8252  -22.6109 C   0  0  0  0  0  0  0  0  0  0  0  0
  -12.9096    6.3782  -19.3746 C   0  0  0  0  0  0  0  0  0  0  0  0
   -7.8101    7.7277  -18.2561 O   0  0  0  0  0  1  0  0  0  0  0  0
  -16.9077    0.5990  -23.6315 C   0  0  0  0  0  0  0  0  0  0  0  0
  -14.0710   -2.7609  -23.2601 C   0  0  0  0  0  0  0  0  0  0  0  0
   -8.9238    5.4886  -17.9083 O   0  0  0  0  0  0  0  0  0  0  0  0
  -11.4843    6.9650  -19.1567 C   0  0  0  0  0  0  0  0  0  0  0  0
  -19.3991    5.0308  -21.9270 C   0  0  0  0  0  0  0  0  0  0  0  0
  -13.3101    1.4874  -22.7583 O   0  0  0  0  0  0  0  0  0  0  0  0
   -8.2210    6.1811  -20.2213 O   0  0  0  0  0  0  0  0  0  0  0  0
  -14.8578   -1.6870  -23.4860 C   0  0  0  0  0  0  0  0  0  0  0  0
  -14.5064    5.7077  -21.0127 N   0  0  0  0  0  0  0  0  0  0  0  0
  -14.5839    2.0403  -22.6660 C   0  0  0  0  0  0  0  0  0  0  0  0
   -8.7651    6.6864  -18.8439 P   0  0  0  0  0  4  0  0  0  0  0  0
  -16.7245    6.6199  -20.4833 C   0  0  0  0  0  0  0  0  0  0  0  0
  -18.2759    1.0036  -23.9300 C   0  0  0  0  0  0  0  0  0  0  0  0
  -11.7227    5.4555  -21.1151 O   0  0  0  0  0  0  0  0  0  0  0  0
  1 13  1  0
  1 24  1  0
  1 34  1  0
  1 39  1  0
  2 10  1  0
  2 12  1  0
  2 18  2  0
  3 34  1  0
  3 37  1  0
  4 15  1  0
  4 23  2  0
  5 21  1  0
  5 33  2  0
  6 23  1  0
  6 27  2  0
  7 14  1  0
  8 12  2  0
  8 26  1  0
  8 35  1  0
  9 11  1  0
  9 13  1  0
  9 35  2  0
 10 30  1  0
 11 12  1  0
 14 22  1  0
 14 39  1  0
 15 19  2  0
 15 31  1  0
 16 29  1  0
 16 36  1  0
 17 20  1  0
 17 21  1  0
 18 38  1  0
 19 33  1  0
 20 38  1  0
 21 26  2  0
 24 29  1  0
 25 36  2  0
 26 38  1  0
 27 33  1  0
 28 36  1  0
 31 35  1  0
 32 36  1  0
M  END
>  <ID>  (1) 
conformer_0

$$$$
