
     RDKit          3D

 35 41  0  0  0  0  0  0  0  0999 V2000
  -16.1635    4.3478  -22.4899 N   0  0  0  0  0  0  0  0  0  0  0  0
  -16.3056   -1.3809  -23.9949 C   0  0  0  0  0  0  0  0  0  0  0  0
  -11.7497   -0.8142  -24.3105 O   0  0  0  0  0  0  0  0  0  0  0  0
  -14.2040    2.8971  -22.0449 C   0  0  0  0  0  0  0  0  0  0  0  0
  -12.2512   -0.9136  -23.0409 C   0  0  0  0  0  0  0  0  0  0  0  0
  -14.5991    0.2792  -23.1268 C   0  0  0  0  0  0  0  0  0  0  0  0
  -11.0625    3.5326  -19.4519 O   0  0  0  0  0  0  0  0  0  0  0  0
  -17.5653   -1.5226  -24.4674 N   0  0  0  0  0  0  0  0  0  0  0  0
  -11.5294    6.7488  -19.3496 C   0  0  0  0  0  0  0  0  0  0  0  0
  -16.5842    6.3836  -21.3304 C   0  0  0  0  0  0  0  0  0  0  0  0
  -16.7516    0.9349  -23.6939 C   0  0  0  0  0  0  0  0  0  0  0  0
   -9.8280    5.4464  -20.4491 C   0  0  0  0  0  0  0  0  0  0  0  0
  -18.3305   -0.4429  -24.6190 C   0  0  0  0  0  0  0  0  0  0  0  0
  -12.1269    6.2539  -20.6519 C   0  0  0  0  0  0  0  0  0  0  0  0
  -11.8175   -0.0747  -22.1293 O   0  0  0  0  0  0  0  0  0  0  0  0
  -14.2525    5.3464  -21.4682 C   0  0  0  0  0  0  0  0  0  0  0  0
   -8.4828    5.5679  -21.0716 C   0  0  0  0  0  0  0  0  0  0  0  0
  -15.8755   -0.1154  -23.6131 C   0  0  0  0  0  0  0  0  0  0  0  0
  -13.3132   -3.1752  -23.0079 O   0  0  0  0  0  0  0  0  0  0  0  0
  -13.1923    5.1828  -20.4103 C   0  0  0  0  0  0  0  0  0  0  0  0
  -10.9407    5.7405  -21.4227 C   0  0  0  0  0  0  0  0  0  0  0  0
  -14.7871    1.7398  -22.7454 N   0  0  0  0  0  0  0  0  0  0  0  0
  -15.4508   -2.4764  -23.8729 C   0  0  0  0  0  0  0  0  0  0  0  0
   -9.9396    4.1174  -19.7669 C   0  0  0  0  0  0  0  0  0  0  0  0
  -15.1687    6.4346  -21.0505 C   0  0  0  0  0  0  0  0  0  0  0  0
   -9.9842    6.7097  -19.5662 C   0  0  0  0  0  0  0  0  0  0  0  0
  -16.1509    2.1188  -23.1834 C   0  0  0  0  0  0  0  0  0  0  0  0
  -17.0919    5.3943  -22.2174 C   0  0  0  0  0  0  0  0  0  0  0  0
  -13.7857   -0.8499  -23.1771 C   0  0  0  0  0  0  0  0  0  0  0  0
   -8.8905    3.3816  -19.5715 O   0  0  0  0  0  0  0  0  0  0  0  0
  -14.9381    4.1313  -21.8964 C   0  0  0  0  0  0  0  0  0  0  0  0
  -16.7879    3.3141  -23.2746 C   0  0  0  0  0  0  0  0  0  0  0  0
  -17.9433    0.7936  -24.2070 N   0  0  0  0  0  0  0  0  0  0  0  0
  -12.0821   -2.4960  -22.5604 C   0  0  0  0  0  0  0  0  0  0  0  0
  -14.2278   -2.1544  -23.3947 C   0  0  0  0  0  0  0  0  0  0  0  0
  1 28  1  0
  1 31  1  0
  1 32  1  0
  2  8  1  0
  2 18  2  0
  2 23  1  0
  3  5  1  0
  4 22  1  0
  4 31  2  0
  5 15  1  0
  5 29  1  0
  5 34  1  0
  6 18  1  0
  6 22  1  0
  6 29  1  0
  7 24  2  0
  8 13  2  0
  9 14  1  0
  9 26  1  0
 10 25  2  0
 10 28  1  0
 11 18  1  0
 11 27  1  0
 11 33  2  0
 12 17  1  0
 12 21  1  0
 12 24  1  0
 12 26  1  0
 13 33  1  0
 14 20  1  0
 14 21  1  0
 16 20  1  0
 16 25  1  0
 16 31  1  0
 19 34  1  0
 19 35  1  0
 22 27  1  0
 23 35  1  0
 24 30  1  0
 27 32  1  0
 29 35  1  0
M  END
>  <ID>  (1) 
conformer_0

$$$$
