
     RDKit          3D

 30 33  0  0  0  0  0  0  0  0999 V2000
  -11.5855    4.1879  -20.6264 C   0  0  0  0  0  0  0  0  0  0  0  0
  -14.3474   -2.9573  -23.7504 C   0  0  0  0  0  0  0  0  0  0  0  0
  -17.3871   -1.6709  -24.3781 C   0  0  0  0  0  0  0  0  0  0  0  0
   -8.5837    4.6799  -21.4326 O   0  0  0  0  0  1  0  0  0  0  0  0
   -8.6538    6.9212  -20.1994 O   0  0  0  0  0  0  0  0  0  0  0  0
  -13.9003    3.9645  -21.4814 C   0  0  0  0  0  0  0  0  0  0  0  0
  -10.7353    5.4635  -20.5197 O   0  0  0  0  0  0  0  0  0  0  0  0
   -9.1690    5.4637  -20.2535 P   0  0  0  0  0  4  0  0  0  0  0  0
  -15.5671   -3.4556  -24.0831 N   0  0  0  0  0  0  0  0  0  0  0  0
  -13.8651    2.6414  -21.7640 C   0  0  0  0  0  0  0  0  0  0  0  0
  -12.7168   -0.9902  -23.7672 C   0  0  0  0  0  0  0  0  0  0  0  0
  -14.8719    0.6961  -23.0543 C   0  0  0  0  0  0  0  0  0  0  0  0
  -14.1613   -1.4758  -23.6019 C   0  0  0  0  0  0  0  0  0  0  0  0
  -12.1833   -1.7350  -24.7359 F   0  0  0  0  0  0  0  0  0  0  0  0
   -8.9442    4.8416  -18.8882 O   0  0  0  0  0  0  0  0  0  0  0  0
  -15.0872   -0.3765  -23.4818 C   0  0  0  0  0  0  0  0  0  0  0  0
  -14.7445    2.0155  -22.5772 C   0  0  0  0  0  0  0  0  0  0  0  0
  -15.8734    2.7635  -23.0008 C   0  0  0  0  0  0  0  0  0  0  0  0
  -11.9843   -1.1962  -22.6599 F   0  0  0  0  0  0  0  0  0  0  0  0
  -14.8684    4.7284  -22.1544 C   0  0  0  0  0  0  0  0  0  0  0  0
  -16.2470    0.4299  -23.5892 C   0  0  0  0  0  0  0  0  0  0  0  0
  -15.8546    4.1100  -22.9012 N   0  0  0  0  0  0  0  0  0  0  0  0
  -12.9725    4.5554  -20.3877 C   0  0  0  0  0  0  0  0  0  0  0  0
  -16.8548    1.8694  -23.4833 C   0  0  0  0  0  0  0  0  0  0  0  0
  -18.6033    0.4735  -24.2820 C   0  0  0  0  0  0  0  0  0  0  0  0
  -16.6550   -2.7050  -24.2620 N   0  0  0  0  0  0  0  0  0  0  0  0
  -17.4659   -0.3329  -24.1314 C   0  0  0  0  0  0  0  0  0  0  0  0
  -12.5378    0.3117  -24.1183 F   0  0  0  0  0  0  0  0  0  0  0  0
  -18.2617    1.8719  -23.8517 C   0  0  0  0  0  0  0  0  0  0  0  0
  -20.0848    0.1295  -24.8405 Cl  0  0  0  0  0  0  0  0  0  0  0  0
  1  7  1  0
  1 23  1  0
  2  9  2  0
  2 13  1  0
  3 26  1  0
  3 27  2  0
  4  8  2  0
  5  8  1  0
  6 10  2  0
  6 20  1  0
  6 23  1  0
  7  8  1  0
  8 15  1  0
  9 26  1  0
 10 17  1  0
 11 13  1  0
 11 14  1  0
 11 19  1  0
 11 28  1  0
 12 16  2  0
 12 17  2  0
 13 16  1  0
 16 21  1  0
 17 18  1  0
 18 22  2  0
 18 24  1  0
 20 22  1  0
 21 24  2  0
 21 27  1  0
 24 29  1  0
 25 27  1  0
 25 29  1  0
 25 30  1  0
M  END
>  <ID>  (1) 
conformer_0

$$$$
