
     RDKit          3D

 25 27  0  0  0  0  0  0  0  0999 V2000
  -18.1904   -0.5508  -24.6593 N   0  0  0  0  0  0  0  0  0  0  0  0
  -15.3046    3.5853  -21.9610 C   0  0  0  0  0  0  0  0  0  0  0  0
  -13.3232    0.0624  -22.7884 C   0  0  0  0  0  0  0  0  0  0  0  0
  -17.7019    0.6432  -24.1828 C   0  0  0  0  0  0  0  0  0  0  0  0
  -15.5389    1.3787  -23.0242 C   0  0  0  0  0  0  0  0  0  0  0  0
  -11.9273    3.8248  -20.1263 C   0  0  0  0  0  0  0  0  0  0  0  0
  -16.4418    0.4378  -23.6573 C   0  0  0  0  0  0  0  0  0  0  0  0
  -13.4659    2.1362  -22.0658 C   0  0  0  0  0  0  0  0  0  0  0  0
  -14.1316    1.1266  -22.6714 C   0  0  0  0  0  0  0  0  0  0  0  0
   -9.4753    4.1055  -20.3789 C   0  0  0  0  0  0  0  0  0  0  0  0
  -15.2043   -1.8346  -23.5765 C   0  0  0  0  0  0  0  0  0  0  0  0
  -17.3116   -1.5461  -24.4556 N   0  0  0  0  0  0  0  0  0  0  0  0
  -14.1616   -2.5750  -23.3227 C   0  0  0  0  0  0  0  0  0  0  0  0
   -9.4112    3.4833  -19.2712 O   0  0  0  0  0  0  0  0  0  0  0  0
  -12.8358   -2.2390  -22.9410 C   0  0  0  0  0  0  0  0  0  0  0  0
  -17.2340    4.6757  -20.7966 C   0  0  0  0  0  0  0  0  0  0  0  0
  -16.0251    2.6244  -22.6398 C   0  0  0  0  0  0  0  0  0  0  0  0
  -13.9812    3.2616  -21.5900 C   0  0  0  0  0  0  0  0  0  0  0  0
  -10.8340    4.5174  -20.8534 C   0  0  0  0  0  0  0  0  0  0  0  0
  -15.8757    4.9902  -21.5136 C   0  0  0  0  0  0  0  0  0  0  0  0
   -8.4964    4.3705  -21.1908 O   0  0  0  0  0  0  0  0  0  0  0  0
  -10.9201    4.5894  -22.3622 C   0  0  0  0  0  0  0  0  0  0  0  0
  -13.2914    4.2460  -20.6287 C   0  0  0  0  0  0  0  0  0  0  0  0
  -12.4923   -0.8768  -22.7234 C   0  0  0  0  0  0  0  0  0  0  0  0
  -16.1972   -0.9656  -23.8422 C   0  0  0  0  0  0  0  0  0  0  0  0
  1  4  1  0
  1 12  1  0
  2 17  2  0
  2 18  1  0
  2 20  1  0
  3  9  2  0
  3 24  2  0
  4  7  1  0
  5  7  2  0
  5  9  1  0
  5 17  1  0
  6 19  1  0
  6 23  1  0
  7 25  1  0
  8  9  1  0
  8 18  2  0
 10 14  2  0
 10 19  1  0
 10 21  1  0
 11 13  2  0
 11 25  2  0
 12 25  1  0
 13 15  1  0
 15 24  1  0
 16 20  1  0
 18 23  1  0
 19 22  1  0
M  END
>  <ID>  (1) 
conformer_0

$$$$
