
     RDKit          3D

 23 25  0  0  0  0  0  0  0  0999 V2000
  -14.2919   -2.0150  -23.3321 C   0  0  0  0  0  0  0  0  0  0  0  0
  -15.5136   -2.5169  -23.8647 O   0  0  0  0  0  0  0  0  0  0  0  0
  -14.1562    3.6390  -21.9670 C   0  0  0  0  0  0  0  0  0  0  0  0
  -14.4159    2.2786  -22.4859 C   0  0  0  0  0  0  0  0  0  0  0  0
  -17.4390    1.2648  -23.9112 O   0  0  0  0  0  0  0  0  0  0  0  0
  -15.1305    5.6564  -22.7412 O   0  0  0  0  0  0  0  0  0  0  0  0
  -10.1305    3.9797  -20.2280 P   0  0  0  0  0  4  0  0  0  0  0  0
  -16.3244    1.1009  -23.4711 C   0  0  0  0  0  0  0  0  0  0  0  0
  -17.5374   -1.5824  -24.6624 N   0  0  0  0  0  0  0  0  0  0  0  0
   -9.4150    4.3511  -21.5047 O   0  0  0  0  0  1  0  0  0  0  0  0
  -11.8313    3.7906  -20.5295 C   0  0  0  0  0  0  0  0  0  0  0  0
  -15.6996   -0.2123  -23.5815 C   0  0  0  0  0  0  0  0  0  0  0  0
   -9.6725    2.6348  -19.5542 O   0  0  0  0  0  0  0  0  0  0  0  0
  -16.4560    3.4561  -22.5255 C   0  0  0  0  0  0  0  0  0  0  0  0
  -13.1876   -2.7647  -22.8638 C   0  0  0  0  0  0  0  0  0  0  0  0
  -16.3549   -1.4102  -24.0754 C   0  0  0  0  0  0  0  0  0  0  0  0
  -13.3474    0.2066  -22.8524 C   0  0  0  0  0  0  0  0  0  0  0  0
  -13.2050    3.8525  -20.9092 C   0  0  0  0  0  0  0  0  0  0  0  0
   -9.9608    5.1524  -19.1962 O   0  0  0  0  0  0  0  0  0  0  0  0
  -14.3999   -0.5928  -23.2180 C   0  0  0  0  0  0  0  0  0  0  0  0
  -15.6860    2.1774  -22.8548 N   0  0  0  0  0  0  0  0  0  0  0  0
  -13.3544    1.4615  -22.5576 N   0  0  0  0  0  0  0  0  0  0  0  0
  -15.4197    4.4134  -21.9482 C   0  0  0  0  0  0  0  0  0  0  0  0
  1  2  1  0
  1 15  1  0
  1 20  1  0
  2 16  1  0
  3  4  1  0
  3 18  1  0
  3 23  1  0
  4 21  1  0
  4 22  1  0
  5  8  2  0
  6 23  1  0
  7 10  2  0
  7 11  1  0
  7 13  1  0
  7 19  1  0
  8 12  1  0
  8 21  1  0
  9 16  2  0
 11 18  1  0
 12 16  1  0
 12 20  2  0
 14 21  1  0
 14 23  1  0
 17 20  1  0
 17 22  2  0
M  END
>  <ID>  (1) 
conformer_0

$$$$
