
     RDKit          3D

 27 30  0  0  0  0  0  0  0  0999 V2000
  -15.1370   -1.4222  -23.5335 C   0  0  0  0  0  0  0  0  0  0  0  0
  -12.0792   -1.1150  -22.7861 C   0  0  0  0  0  0  0  0  0  0  0  0
  -13.8869    0.6166  -22.8604 C   0  0  0  0  0  0  0  0  0  0  0  0
  -14.7565    3.2475  -22.2108 C   0  0  0  0  0  0  0  0  0  0  0  0
  -15.0786    0.0015  -23.4166 C   0  0  0  0  0  0  0  0  0  0  0  0
  -14.1377   -2.3103  -23.2249 C   0  0  0  0  0  0  0  0  0  0  0  0
  -16.1708    5.8358  -22.2372 C   0  0  0  0  0  0  0  0  0  0  0  0
   -9.4713   -1.7968  -23.1036 C   0  0  0  0  0  0  0  0  0  0  0  0
  -14.6000    5.1653  -20.5871 C   0  0  0  0  0  0  0  0  0  0  0  0
  -12.7025    0.0773  -22.7326 C   0  0  0  0  0  0  0  0  0  0  0  0
  -10.6903   -1.1972  -22.6617 O   0  0  0  0  0  0  0  0  0  0  0  0
  -16.0837    3.4651  -21.3620 C   0  0  0  0  0  0  0  0  0  0  0  0
  -17.3086    0.1122  -24.3246 C   0  0  0  0  0  0  0  0  0  0  0  0
  -16.1012    4.9663  -20.9345 C   0  0  0  0  0  0  0  0  0  0  0  0
  -11.4876    5.0233  -19.6438 O   0  0  0  0  0  0  0  0  0  0  0  0
   -8.0111   -1.3040  -22.5083 C   0  0  0  0  0  0  0  0  0  0  0  0
  -13.8359    4.3756  -21.6407 C   0  0  0  0  0  0  0  0  0  0  0  0
   -7.6477   -2.2701  -21.4153 C   0  0  0  0  0  0  0  0  0  0  0  0
  -11.3627    4.2400  -20.6766 C   0  0  0  0  0  0  0  0  0  0  0  0
  -10.2463    4.2424  -21.2641 O   0  0  0  0  0  0  0  0  0  0  0  0
  -13.9186    2.0393  -22.3604 C   0  0  0  0  0  0  0  0  0  0  0  0
  -12.5748    3.6678  -21.2415 C   0  0  0  0  0  0  0  0  0  0  0  0
  -12.8539   -2.2592  -22.9512 C   0  0  0  0  0  0  0  0  0  0  0  0
  -16.1823    0.7079  -23.8287 C   0  0  0  0  0  0  0  0  0  0  0  0
  -12.6521    2.4009  -21.8295 N   0  0  0  0  0  0  0  0  0  0  0  0
  -17.3635   -1.2743  -24.4020 C   0  0  0  0  0  0  0  0  0  0  0  0
  -16.3231   -1.9939  -23.9930 N   0  0  0  0  0  0  0  0  0  0  0  0
  1  5  2  0
  1  6  1  0
  1 27  1  0
  2 10  1  0
  2 11  1  0
  2 23  1  0
  3  5  1  0
  3 10  2  0
  3 21  1  0
  4 12  1  0
  4 17  1  0
  4 21  1  0
  5 24  1  0
  6 23  2  0
  7 14  1  0
  8 11  1  0
  8 16  1  0
  9 14  1  0
  9 17  1  0
 12 14  1  0
 13 24  2  0
 13 26  1  0
 15 19  2  0
 16 18  1  0
 17 22  1  0
 19 20  1  0
 19 22  1  0
 21 25  1  0
 22 25  2  0
 26 27  2  0
M  END
>  <ID>  (1) 
conformer_0

$$$$
