
     RDKit          3D

 29 31  0  0  0  0  0  0  0  0999 V2000
  -17.1295   -0.6314  -24.0325 C   0  0  0  0  0  0  0  0  0  0  0  0
   -9.9930    3.2774  -19.6829 O   0  0  0  0  0  1  0  0  0  0  0  0
  -13.2168   -3.3984  -23.3323 O   0  0  0  0  0  0  0  0  0  0  0  0
  -15.1302    2.8095  -21.9135 C   0  0  0  0  0  0  0  0  0  0  0  0
  -18.5098    0.0693  -24.4657 C   0  0  0  0  0  0  0  0  0  0  0  0
  -15.6440   -2.3563  -23.8814 N   0  0  0  0  0  0  0  0  0  0  0  0
  -16.3922    4.7274  -21.3691 O   0  0  0  0  0  0  0  0  0  0  0  0
  -10.2231    4.6430  -20.2783 P   0  0  0  0  0  4  0  0  0  0  0  0
  -16.2963    6.1793  -21.1078 C   0  0  0  0  0  0  0  0  0  0  0  0
  -16.1574    0.1865  -23.5092 N   0  0  0  0  0  0  0  0  0  0  0  0
   -9.3876    5.1628  -23.8687 C   0  0  0  0  0  0  0  0  0  0  0  0
   -9.9454    5.6978  -19.2129 O   0  0  0  0  0  0  0  0  0  0  0  0
  -12.4487    0.2197  -22.5970 C   0  0  0  0  0  0  0  0  0  0  0  0
  -12.1844   -1.2375  -22.6787 C   0  0  0  0  0  0  0  0  0  0  0  0
   -9.7032    5.8013  -22.5392 O   0  0  0  0  0  0  0  0  0  0  0  0
  -13.9654    4.7770  -21.1340 C   0  0  0  0  0  0  0  0  0  0  0  0
  -11.5767    4.7640  -20.9241 O   0  0  0  0  0  0  0  0  0  0  0  0
  -14.6210   -1.5270  -23.3976 C   0  0  0  0  0  0  0  0  0  0  0  0
  -15.1471    4.1244  -21.4625 C   0  0  0  0  0  0  0  0  0  0  0  0
  -13.9188    2.0735  -22.0796 C   0  0  0  0  0  0  0  0  0  0  0  0
  -16.3519    2.3323  -22.1145 F   0  0  0  0  0  0  0  0  0  0  0  0
  -12.7893    2.7547  -21.7347 C   0  0  0  0  0  0  0  0  0  0  0  0
  -14.8576   -0.1398  -23.1454 C   0  0  0  0  0  0  0  0  0  0  0  0
  -13.8208    0.7149  -22.5980 C   0  0  0  0  0  0  0  0  0  0  0  0
   -9.1569    5.0774  -21.4871 C   0  0  0  0  0  0  0  0  0  0  0  0
   -8.2138    4.2132  -21.8241 O   0  0  0  0  0  0  0  0  0  0  0  0
  -16.8960   -1.9720  -24.2193 N   0  0  0  0  0  0  0  0  0  0  0  0
  -12.7311    4.0822  -21.2449 C   0  0  0  0  0  0  0  0  0  0  0  0
  -13.3037   -2.1033  -23.1033 C   0  0  0  0  0  0  0  0  0  0  0  0
  1  5  1  0
  1 10  2  0
  1 27  1  0
  2  8  2  0
  3 29  1  0
  4 19  2  0
  4 20  1  0
  4 21  1  0
  6 18  1  0
  6 27  1  0
  7  9  1  0
  7 19  1  0
  8 12  1  0
  8 17  1  0
  8 25  1  0
 10 23  1  0
 11 15  1  0
 13 14  1  0
 13 24  1  0
 14 29  1  0
 15 25  1  0
 16 19  1  0
 16 28  2  0
 17 28  1  0
 18 23  1  0
 18 29  2  0
 20 22  2  0
 20 24  1  0
 22 28  1  0
 23 24  2  0
 25 26  2  0
M  END
>  <ID>  (1) 
conformer_0

$$$$
