
     RDKit          3D

 24 26  0  0  0  0  0  0  0  0999 V2000
  -15.7411    1.2193  -23.2063 N   0  0  0  0  0  0  0  0  0  0  0  0
  -13.6645    3.4545  -21.4503 O   0  0  0  0  0  0  0  0  0  0  0  0
  -16.7203    3.3876  -22.7032 O   0  0  0  0  0  0  0  0  0  0  0  0
  -16.9109   -0.9693  -24.1683 C   0  0  0  0  0  0  0  0  0  0  0  0
  -16.9113    2.1727  -23.3312 C   0  0  0  0  0  0  0  0  0  0  0  0
   -9.7364    4.0075  -19.7899 P   0  0  0  0  0  0  0  0  0  0  0  0
  -15.9102   -0.1304  -23.5889 C   0  0  0  0  0  0  0  0  0  0  0  0
  -11.7852    4.6988  -21.0832 C   0  0  0  0  0  0  0  0  0  0  0  0
  -14.9643    4.1631  -21.3880 C   0  0  0  0  0  0  0  0  0  0  0  0
  -14.3436    1.3255  -22.7809 N   0  0  0  0  0  0  0  0  0  0  0  0
  -13.7639    0.1815  -22.8612 C   0  0  0  0  0  0  0  0  0  0  0  0
  -18.0569   -0.4507  -24.5278 O   0  0  0  0  0  0  0  0  0  0  0  0
  -16.0915    3.1760  -21.3349 C   0  0  0  0  0  0  0  0  0  0  0  0
  -15.3751   -2.8144  -24.0270 N   0  0  0  0  0  0  0  0  0  0  0  0
   -9.6836    2.6805  -19.2861 O   0  0  0  0  0  1  0  0  0  0  0  0
   -9.1804    5.0852  -19.1533 O   0  0  0  0  0  1  0  0  0  0  0  0
  -14.3984   -2.0030  -23.5318 C   0  0  0  0  0  0  0  0  0  0  0  0
  -12.8197    3.9513  -20.3729 C   0  0  0  0  0  0  0  0  0  0  0  0
  -13.1465   -2.4726  -23.2052 C   0  0  0  0  0  0  0  0  0  0  0  0
  -14.6831   -0.6620  -23.3357 C   0  0  0  0  0  0  0  0  0  0  0  0
  -10.4364    4.1900  -21.0603 O   0  0  0  0  0  0  0  0  0  0  0  0
  -12.2257   -1.5623  -22.7772 C   0  0  0  0  0  0  0  0  0  0  0  0
  -12.5074   -0.2320  -22.5938 N   0  0  0  0  0  0  0  0  0  0  0  0
  -16.5952   -2.2930  -24.3254 N   0  0  0  0  0  0  0  0  0  0  0  0
  1  5  1  0
  1  7  1  0
  1 10  1  0
  2  9  1  0
  2 18  1  0
  3  5  1  0
  3 13  1  0
  4  7  1  0
  4 12  2  0
  4 24  1  0
  6 15  1  0
  6 16  1  0
  6 21  1  0
  7 20  1  0
  8 18  1  0
  8 21  1  0
  9 13  1  0
 10 11  1  0
 11 20  2  0
 11 23  1  0
 14 17  2  0
 14 24  1  0
 17 19  1  0
 17 20  1  0
 19 22  1  0
 22 23  2  0
M  END
>  <ID>  (1) 
conformer_0

$$$$
