
     RDKit          3D

 24 27  0  0  0  0  0  0  0  0999 V2000
  -10.1146    4.7558  -20.0740 C   0  0  0  0  0  0  0  0  0  0  0  0
   -8.1423   -0.7814  -21.9876 O   0  0  0  0  0  0  0  0  0  0  0  0
  -15.0334    3.2417  -22.0737 C   0  0  0  0  0  0  0  0  0  0  0  0
  -16.8969    2.4709  -23.6297 C   0  0  0  0  0  0  0  0  0  0  0  0
  -12.2990   -1.5074  -22.6984 C   0  0  0  0  0  0  0  0  0  0  0  0
  -16.2549    1.0974  -23.6287 C   0  0  0  0  0  0  0  0  0  0  0  0
  -16.8167   -0.0897  -24.0721 C   0  0  0  0  0  0  0  0  0  0  0  0
  -10.9516    4.1358  -21.1655 O   0  0  0  0  0  0  0  0  0  0  0  0
  -14.9333   -1.3859  -23.4947 C   0  0  0  0  0  0  0  0  0  0  0  0
  -12.0349    5.1198  -20.9724 C   0  0  0  0  0  0  0  0  0  0  0  0
   -9.0531   -1.6564  -21.7605 C   0  0  0  0  0  0  0  0  0  0  0  0
   -8.8228   -2.7336  -21.1377 O   0  0  0  0  0  0  0  0  0  0  0  0
  -10.7036   -1.4574  -22.2728 C   0  0  0  0  0  3  0  0  0  0  0  0
  -13.2643    4.3452  -20.6422 C   0  0  0  0  0  0  0  0  0  0  0  0
  -14.2163    4.4718  -21.8635 C   0  0  0  0  0  0  0  0  0  0  0  0
  -14.3142   -2.6163  -23.3655 C   0  0  0  0  0  0  0  0  0  0  0  0
  -12.9214   -0.3088  -22.7638 C   0  0  0  0  0  0  0  0  0  0  0  0
  -11.3631    5.7560  -19.8660 O   0  0  0  0  0  0  0  0  0  0  0  0
  -14.9416    0.9901  -23.1152 C   0  0  0  0  0  0  0  0  0  0  0  0
  -14.3030    2.1485  -22.5355 C   0  0  0  0  0  0  0  0  0  0  0  0
  -16.1964   -1.2784  -23.9733 N   0  0  0  0  0  0  0  0  0  0  0  0
  -16.5095    3.2711  -22.3383 C   0  0  0  0  0  0  0  0  0  0  0  0
  -13.0375   -2.6501  -22.9705 C   0  0  0  0  0  0  0  0  0  0  0  0
  -14.2472   -0.2270  -23.1185 C   0  0  0  0  0  0  0  0  0  0  0  0
  1  8  1  0
  1 18  1  0
  2 11  2  0
  3 15  1  0
  3 20  2  0
  3 22  1  0
  4  6  1  0
  4 22  1  0
  5 13  2  0
  5 17  1  0
  5 23  1  0
  6  7  1  0
  6 19  2  0
  7 21  2  0
  8 10  1  0
  9 16  1  0
  9 21  1  0
  9 24  1  0
 10 14  1  0
 10 18  1  0
 11 12  1  0
 11 13  1  0
 14 15  1  0
 16 23  2  0
 17 24  2  0
 19 20  1  0
 19 24  1  0
M  END
>  <ID>  (1) 
conformer_0

$$$$
