
     RDKit          3D

 28 30  0  0  0  0  0  0  0  0999 V2000
  -14.9920   -1.2112  -23.4854 C   0  0  0  0  0  0  0  0  0  0  0  0
  -16.7244    4.6238  -22.3240 C   0  0  0  0  0  0  0  0  0  0  0  0
  -18.0943   -1.6518  -24.9816 O   0  0  0  0  0  0  0  0  0  0  0  0
  -16.2216    3.2858  -22.0813 N   0  0  0  0  0  0  0  0  0  0  0  0
  -16.1182    0.8964  -23.4812 C   0  0  0  0  0  0  0  0  0  0  0  0
   -8.9821    5.5818  -18.8540 O   0  0  0  0  0  1  0  0  0  0  0  0
  -12.6433   -1.3029  -22.7872 C   0  0  0  0  0  0  0  0  0  0  0  0
  -11.1271    5.0934  -20.3770 C   0  0  0  0  0  0  0  0  0  0  0  0
  -13.0182    4.5743  -20.5668 C   0  0  0  0  0  0  0  0  0  0  0  0
  -11.7101    4.0161  -21.2367 C   0  0  0  0  0  0  0  0  0  0  0  0
  -13.8116   -1.9466  -23.2259 C   0  0  0  0  0  0  0  0  0  0  0  0
  -13.7535    0.7891  -22.8383 C   0  0  0  0  0  0  0  0  0  0  0  0
  -16.1990    2.2554  -23.0581 N   0  0  0  0  0  0  0  0  0  0  0  0
   -8.6503    4.6821  -21.1703 O   0  0  0  0  0  0  0  0  0  0  0  0
  -14.2788    5.2222  -22.6935 C   0  0  0  0  0  0  0  0  0  0  0  0
  -17.7461    4.1000  -20.1621 O   0  0  0  0  0  0  0  0  0  0  0  0
   -9.6179    3.2145  -19.3145 O   0  0  0  0  0  0  0  0  0  0  0  0
  -15.7262    5.7687  -22.6909 C   0  0  0  0  0  0  0  0  0  0  0  0
  -17.5779    5.1417  -21.1360 C   0  0  0  0  0  0  0  0  0  0  0  0
  -16.1007   -1.8322  -23.9633 N   0  0  0  0  0  0  0  0  0  0  0  0
   -9.4988    4.6209  -19.9173 P   0  0  0  0  0  4  0  0  0  0  0  0
  -17.1329   -1.0829  -24.3355 C   0  0  0  0  0  0  0  0  0  0  0  0
  -14.9082    0.1880  -23.2470 N   0  0  0  0  0  0  0  0  0  0  0  0
  -12.6557    0.1076  -22.6124 C   0  0  0  0  0  0  0  0  0  0  0  0
  -17.1535    0.2636  -24.0607 N   0  0  0  0  0  0  0  0  0  0  0  0
  -11.5473   -1.9680  -22.4957 O   0  0  0  0  0  0  0  0  0  0  0  0
  -15.0697    3.2177  -21.1230 C   0  0  0  0  0  0  0  0  0  0  0  0
  -14.0848    4.2273  -21.5544 C   0  0  0  0  0  0  0  0  0  0  0  0
  1 11  1  0
  1 20  2  0
  1 23  1  0
  2  4  1  0
  2 18  1  0
  2 19  1  0
  3 22  2  0
  4 13  1  0
  4 27  1  0
  5 13  1  0
  5 23  1  0
  5 25  2  0
  6 21  2  0
  7 11  2  0
  7 24  1  0
  7 26  1  0
  8 10  1  0
  8 21  1  0
  9 10  1  0
  9 28  1  0
 12 23  1  0
 12 24  2  0
 14 21  1  0
 15 18  1  0
 15 28  1  0
 16 19  1  0
 17 21  1  0
 20 22  1  0
 22 25  1  0
 27 28  1  0
M  END
>  <ID>  (1) 
conformer_0

$$$$
