
     RDKit          3D

 21 23  0  0  0  0  0  0  0  0999 V2000
  -16.6111    2.6032  -23.2080 C   0  0  0  0  0  0  0  0  0  0  0  0
  -11.3162    4.7586  -22.1546 O   0  0  0  0  0  0  0  0  0  0  0  0
  -16.3873   -0.4333  -23.8453 C   0  0  0  0  0  0  0  0  0  0  0  0
  -17.5171    1.7618  -23.7990 C   0  0  0  0  0  0  0  0  0  0  0  0
  -15.3373    2.4024  -22.7663 C   0  0  0  0  0  0  0  0  0  0  0  0
  -13.2235    2.5934  -21.7685 C   0  0  0  0  0  0  0  0  0  0  0  0
  -13.3317   -3.2979  -23.0528 C   0  0  0  0  0  0  0  0  0  0  0  0
   -9.8688    3.0910  -19.4671 O   0  0  0  0  0  0  0  0  0  0  0  0
  -11.4897    4.1976  -20.8932 C   0  0  0  0  0  0  0  0  0  0  0  0
  -13.4118    1.3228  -22.2687 N   0  0  0  0  0  0  0  0  0  0  0  0
  -14.4339   -2.3271  -23.4180 C   0  0  0  0  0  0  0  0  0  0  0  0
  -14.4150    3.3515  -22.1358 C   0  0  0  0  0  0  0  0  0  0  0  0
  -14.6752    1.1667  -22.8169 C   0  0  0  0  0  0  0  0  0  0  0  0
  -17.4442    0.4359  -24.0896 C   0  0  0  0  0  0  0  0  0  0  0  0
  -15.6120   -2.7456  -23.9501 N   0  0  0  0  0  0  0  0  0  0  0  0
  -10.2476    4.2001  -19.9912 C   0  0  0  0  0  0  0  0  0  0  0  0
  -16.5534   -1.7832  -24.1748 C   0  0  0  0  0  0  0  0  0  0  0  0
  -14.2194   -1.0279  -23.1581 N   0  0  0  0  0  0  0  0  0  0  0  0
  -12.1536    2.9704  -20.9898 N   0  0  0  0  0  0  0  0  0  0  0  0
   -9.7635    5.3578  -19.6125 O   0  0  0  0  0  0  0  0  0  0  0  0
  -15.1462   -0.0758  -23.2964 C   0  0  0  0  0  0  0  0  0  0  0  0
  1  4  1  0
  1  5  2  0
  2  9  1  0
  3 14  1  0
  3 17  2  0
  3 21  1  0
  4 14  2  0
  5 12  1  0
  5 13  1  0
  6 10  2  0
  6 12  1  0
  6 19  1  0
  7 11  1  0
  8 16  2  0
  9 16  1  0
  9 19  1  0
 10 13  1  0
 11 15  2  0
 11 18  1  0
 13 21  1  0
 15 17  1  0
 16 20  1  0
 18 21  2  0
M  END
>  <ID>  (1) 
conformer_0

$$$$
