
     RDKit          3D

 33 37  0  0  0  0  0  0  0  0999 V2000
  -15.0054    3.5082  -22.1836 C   0  0  0  0  0  0  0  0  0  0  0  0
  -10.7327    3.1839  -19.8167 N   0  0  0  0  0  0  0  0  0  0  0  0
  -11.9176    3.5037  -21.7339 C   0  0  0  0  0  0  0  0  0  0  0  0
  -12.3106   -0.3772  -22.6766 C   0  0  0  0  0  0  0  0  0  0  0  0
  -14.3002   -1.2771  -23.2934 C   0  0  0  0  0  0  0  0  0  0  0  0
  -10.7501    5.5426  -20.3838 O   0  0  0  0  0  0  0  0  0  0  0  0
   -8.8891    5.0970  -18.6246 O   0  0  0  0  0  1  0  0  0  0  0  0
  -13.9187    4.5104  -22.6711 C   0  0  0  0  0  0  0  0  0  0  0  0
   -8.3870    5.0926  -21.1693 O   0  0  0  0  0  0  0  0  0  0  0  0
  -12.5599   -2.8989  -22.5997 C   0  0  0  0  0  0  0  0  0  0  0  0
  -12.9628   -1.5902  -22.8620 C   0  0  0  0  0  0  0  0  0  0  0  0
  -15.2412   -2.1437  -23.7222 N   0  0  0  0  0  0  0  0  0  0  0  0
  -15.5436    2.2422  -22.9432 C   0  0  0  0  0  0  0  0  0  0  0  0
  -16.2403    4.4149  -21.9680 C   0  0  0  0  0  0  0  0  0  0  0  0
  -17.3089    3.8260  -22.5819 C   0  0  0  0  0  0  0  0  0  0  0  0
  -16.9754    2.5635  -23.1703 C   0  0  0  0  0  0  0  0  0  0  0  0
  -16.8408    0.4815  -23.7244 C   0  0  0  0  0  0  0  0  0  0  0  0
  -13.1778    0.6480  -22.9450 C   0  0  0  0  0  0  0  0  0  0  0  0
  -13.4819    5.2184  -21.2877 C   0  0  0  0  0  0  0  0  0  0  0  0
  -18.8245    5.5129  -21.8554 C   0  0  0  0  0  0  0  0  0  0  0  0
  -17.7824    6.1511  -21.2108 C   0  0  0  0  0  0  0  0  0  0  0  0
  -17.6570    1.5680  -23.6376 O   0  0  0  0  0  0  0  0  0  0  0  0
  -18.3937   -0.9793  -24.7450 N   0  0  0  0  0  0  0  0  0  0  0  0
  -16.5177    5.6142  -21.2831 C   0  0  0  0  0  0  0  0  0  0  0  0
  -17.2354   -0.8339  -24.1877 C   0  0  0  0  0  0  0  0  0  0  0  0
  -18.5652    4.3516  -22.5493 C   0  0  0  0  0  0  0  0  0  0  0  0
  -11.2852    4.1791  -20.6388 C   0  0  0  0  0  0  0  0  0  0  0  0
  -12.8927    3.9416  -20.6057 C   0  0  0  0  0  0  0  0  0  0  0  0
   -8.8199    7.2341  -19.8984 O   0  0  0  0  0  0  0  0  0  0  0  0
  -14.4202    0.0856  -23.2481 C   0  0  0  0  0  0  0  0  0  0  0  0
  -15.5775    0.8257  -23.3417 C   0  0  0  0  0  0  0  0  0  0  0  0
  -16.4364   -1.9340  -24.0966 N   0  0  0  0  0  0  0  0  0  0  0  0
   -9.1590    5.7874  -20.0045 P   0  0  0  0  0  4  0  0  0  0  0  0
  1  8  1  0
  1 13  1  0
  1 14  1  0
  2 27  1  0
  3 27  1  0
  3 28  1  0
  4 11  1  0
  4 18  1  0
  5 11  1  0
  5 12  2  0
  5 30  1  0
  6 27  1  0
  6 33  1  0
  7 33  2  0
  8 19  1  0
  9 33  1  0
 10 11  1  0
 12 32  1  0
 13 16  1  0
 13 31  1  0
 14 15  1  0
 14 24  2  0
 15 16  2  0
 15 26  1  0
 16 22  1  0
 17 22  1  0
 17 25  1  0
 17 31  2  0
 18 30  1  0
 19 28  1  0
 20 21  1  0
 20 26  2  0
 21 24  1  0
 23 25  2  0
 25 32  1  0
 29 33  1  0
 30 31  1  0
M  END
>  <ID>  (1) 
conformer_0

$$$$
