
     RDKit          3D

 33 36  0  0  0  0  0  0  0  0999 V2000
  -12.2076    5.0398  -20.4926 C   0  0  0  0  0  0  0  0  0  0  0  0
   -8.5949    4.7507  -21.2825 O   0  0  0  0  0  1  0  0  0  0  0  0
  -14.6173    5.1365  -21.1906 C   0  0  0  0  0  0  0  0  0  0  0  0
  -17.8837    1.4578  -23.7387 C   0  0  0  0  0  0  0  0  0  0  0  0
  -18.6006    3.6630  -22.7591 C   0  0  0  0  0  0  0  0  0  0  0  0
  -16.7463   -1.8911  -24.2210 N   0  0  0  0  0  0  0  0  0  0  0  0
   -9.1173    4.5032  -18.7974 O   0  0  0  0  0  0  0  0  0  0  0  0
   -9.7531    6.5768  -20.0005 O   0  0  0  0  0  0  0  0  0  0  0  0
  -14.9976   -3.2926  -23.6292 N   0  0  0  0  0  0  0  0  0  0  0  0
  -16.8324    0.4191  -23.7360 N   0  0  0  0  0  0  0  0  0  0  0  0
  -16.3877    3.3055  -23.0887 C   0  0  0  0  0  0  0  0  0  0  0  0
  -17.6490    2.7407  -23.2349 C   0  0  0  0  0  0  0  0  0  0  0  0
  -15.3830    0.4402  -23.3474 C   0  0  0  0  0  0  0  0  0  0  0  0
  -12.9539   -2.4670  -22.7056 C   0  0  0  0  0  0  0  0  0  0  0  0
  -12.1181    0.1352  -22.8274 S   0  0  0  0  0  4  0  0  0  0  0  0
  -13.8327   -3.5746  -23.0129 C   0  0  0  0  0  0  0  0  0  0  0  0
  -13.2411    4.6092  -21.6096 C   0  0  0  0  0  0  0  0  0  0  0  0
  -19.0054    0.8723  -24.2840 C   0  0  0  0  0  0  0  0  0  0  0  0
  -12.5584    1.2380  -21.8722 O   0  0  0  0  0  0  0  0  0  0  0  0
  -17.8874    4.8183  -22.3248 C   0  0  0  0  0  0  0  0  0  0  0  0
  -10.6470   -0.3981  -22.3407 O   0  0  0  0  0  0  0  0  0  0  0  0
  -18.7352   -0.4553  -24.5981 C   0  0  0  0  0  0  0  0  0  0  0  0
  -12.0636    0.6367  -24.2649 O   0  0  0  0  0  0  0  0  0  0  0  0
  -15.4730   -2.0372  -23.7576 C   0  0  0  0  0  0  0  0  0  0  0  0
  -11.0457    4.0793  -20.5189 C   0  0  0  0  0  0  0  0  0  0  0  0
  -16.4958    4.5722  -22.5638 C   0  0  0  0  0  0  0  0  0  0  0  0
  -20.2976    1.4705  -24.5569 C   0  0  0  0  0  0  0  0  0  0  0  0
  -13.3230   -1.0779  -22.8079 C   0  0  0  0  0  0  0  0  0  0  0  0
  -15.4673    5.4209  -22.3097 O   0  0  0  0  0  0  0  0  0  0  0  0
  -14.6667   -0.8745  -23.3507 C   0  0  0  0  0  0  0  0  0  0  0  0
   -9.5136    5.0725  -20.1285 P   0  0  0  0  0  4  0  0  0  0  0  0
  -10.4512   -1.7916  -22.2159 O   0  0  0  0  0  0  0  0  0  0  0  0
  -17.3887   -0.7333  -24.1909 C   0  0  0  0  0  0  0  0  0  0  0  0
  1 17  1  0
  1 25  1  0
  2 31  2  0
  3 17  1  0
  3 29  1  0
  4 10  1  0
  4 12  1  0
  4 18  2  0
  5 12  1  0
  5 20  1  0
  6 24  1  0
  6 33  2  0
  7 31  1  0
  8 31  1  0
  9 16  2  0
  9 24  1  0
 10 13  1  0
 10 33  1  0
 11 12  1  0
 11 26  1  0
 13 30  1  0
 14 16  1  0
 14 28  2  0
 15 19  1  0
 15 21  1  0
 15 23  1  0
 15 28  1  0
 18 22  1  0
 18 27  1  0
 20 26  1  0
 21 32  1  0
 22 33  1  0
 24 30  2  0
 25 31  1  0
 26 29  1  0
 28 30  1  0
M  END
>  <ID>  (1) 
conformer_0

$$$$
