
     RDKit          3D

 25 27  0  0  0  0  0  0  0  0999 V2000
   -2.1894   11.6694  -28.1232 C   0  0  0  0  0  0  0  0  0  0  0  0
   -0.6452   17.1558  -21.7117 C   0  0  0  0  0  0  0  0  0  0  0  0
    0.5741   17.9376  -28.5073 C   0  0  1  0  0  0  0  0  0  0  0  0
    0.1036   18.7895  -27.6399 C   0  0  0  0  0  0  0  0  0  0  0  0
   -2.1007   11.8779  -30.0895 C   0  0  0  0  0  0  0  0  0  0  0  0
    1.3373   18.8231  -29.5588 C   0  0  0  0  0  0  0  0  0  0  0  0
    2.8369   16.9717  -30.1158 S   0  0  0  0  0  0  0  0  0  0  0  0
   -0.9537   16.1172  -28.7236 N   0  0  0  0  0  0  0  0  0  0  0  0
   -2.6311   10.2942  -28.4227 C   0  0  0  0  0  0  0  0  0  0  0  0
   -1.6874   18.4451  -25.7892 C   0  0  2  0  0  0  0  0  0  0  0  0
   -2.5052   18.5448  -24.3240 S   0  0  0  0  0  3  0  0  0  0  0  0
   -2.0156   14.6743  -28.6785 C   0  0  1  0  0  0  0  0  0  0  0  0
    2.4365   18.2052  -30.2905 C   0  0  0  0  0  0  0  0  0  0  0  0
   -3.7827   18.7312  -24.6904 O   0  0  0  0  0  1  0  0  0  0  0  0
   -2.4791   14.6031  -27.6263 O   0  0  0  0  0  0  0  0  0  0  0  0
   -3.3214   10.2906  -25.7883 F   0  0  0  0  0  0  0  0  0  0  0  0
   -0.5321   19.3055  -26.2922 C   0  0  1  0  0  0  0  0  0  0  0  0
   -2.9611    9.6520  -27.0325 C   0  0  0  0  0  0  0  0  0  0  0  0
   -1.4650   18.0027  -22.6338 C   0  0  0  0  0  0  0  0  0  0  0  0
   -2.5637   10.3240  -29.9879 C   0  0  0  0  0  0  0  0  0  0  0  0
   -1.4809   17.7390  -21.0507 C   0  0  0  0  0  0  0  0  0  0  0  0
   -3.1178    8.7168  -26.9518 F   0  0  0  0  0  0  0  0  0  0  0  0
   -1.3095   17.7167  -26.8663 C   0  0  0  0  0  0  0  0  0  0  0  0
    0.9464   16.9720  -28.8583 C   0  0  0  0  0  0  0  0  0  0  0  0
   -1.1925   14.0343  -28.9560 N   0  0  0  0  0  0  0  0  0  0  0  0
  4  3  1  0
  3  6  1  1
  9  1  1  0
 10 11  1  6
 12  5  1  0
 12  8  1  0
 13  6  1  0
 13  7  2  0
 14 11  1  0
 15 12  1  0
 17  4  1  6
 17 10  1  0
 18  9  1  0
 18 16  1  0
 19  2  1  0
 19 10  1  0
 20  5  1  0
 20  9  2  3
 21  2  1  0
 21 19  1  0
 22 18  1  0
 23  4  2  0
 23 10  1  0
 23 17  1  0
 24  3  1  0
 24  8  1  0
 12 25  1  6
M  RAD  2  11   2  14   2
M  END
>  <ID>  (1) 
conformer_0

$$$$
