
     RDKit          3D

 27 29  0  0  0  0  0  0  0  0999 V2000
   -1.7439   11.3127  -30.3179 C   0  0  0  0  0  0  0  0  0  0  0  0
   -0.2215   19.0710  -27.1122 C   0  0  0  0  0  0  0  0  0  0  0  0
   -0.1123   18.1718  -27.9270 C   0  0  0  0  0  0  0  0  0  0  0  0
   -0.6718   16.9842  -21.2972 C   0  0  0  0  0  0  0  0  0  0  0  0
   -2.1442   10.0297  -29.9254 C   0  0  0  0  0  0  0  0  0  0  0  0
   -2.0787   14.6878  -28.5369 C   0  0  2  0  0  0  0  0  0  0  0  0
   -1.7967   18.5228  -25.6404 C   0  0  0  0  0  0  0  0  0  0  0  0
   -0.6941   19.5825  -25.8788 C   0  0  0  0  0  0  0  0  0  0  0  0
    2.1325   17.6501  -30.1096 C   0  0  0  0  0  0  0  0  0  0  0  0
   -1.0073   16.0079  -28.6376 N   0  0  0  0  0  0  0  0  0  0  0  0
   -2.4949   14.4796  -27.4756 O   0  0  0  0  0  0  0  0  0  0  0  0
   -2.0173   12.2779  -29.0820 C   0  0  2  0  0  0  0  0  0  0  0  0
   -2.3445   18.8196  -23.9977 S   0  0  0  0  0  4  0  0  0  0  0  0
   -3.1497    9.2527  -27.6392 C   0  0  0  0  0  0  0  0  0  0  0  0
   -1.7471   17.5887  -26.5352 C   0  0  0  0  0  0  0  0  0  0  0  0
   -4.0648   18.4513  -24.6052 O   0  0  0  0  0  1  0  0  0  0  0  0
   -1.0578   17.8665  -22.1787 C   0  0  0  0  0  0  0  0  0  0  0  0
   -3.2144    8.7789  -26.9009 F   0  0  0  0  0  0  0  0  0  0  0  0
    2.8388   16.9194  -30.1157 S   0  0  0  0  0  0  0  0  0  0  0  0
    0.0278   16.9979  -28.4777 C   0  0  0  0  0  0  0  0  0  0  0  0
   -1.6057   13.7038  -29.2977 N   0  0  0  0  0  0  0  0  0  0  0  0
   -2.4599   11.4280  -27.9921 C   0  0  0  0  0  0  0  0  0  0  0  0
   -2.5011   20.0097  -23.7435 O   0  0  0  0  0  1  0  0  0  0  0  0
   -1.4258   18.2204  -20.6731 C   0  0  0  0  0  0  0  0  0  0  0  0
    1.3172   18.8696  -29.4274 C   0  0  0  0  0  0  0  0  0  0  0  0
    1.0535   17.1903  -29.2227 C   0  0  0  0  0  0  0  0  0  0  0  0
   -2.7285   10.0892  -28.5324 C   0  0  0  0  0  0  0  0  0  0  0  0
  3  2  2  0
  5  1  2  0
  8  2  1  0
  8  7  1  0
 10  6  1  0
  6 11  1  1
 12  1  1  0
 13  7  1  0
 15  7  2  3
 16 13  1  0
 17  4  1  0
 17 13  1  0
 18 14  1  0
 19  9  2  0
 20  3  2  0
 20 10  1  0
 21  6  1  0
 12 21  1  1
 22 12  1  0
 23 13  1  0
 24  4  1  0
 24 17  1  0
 25  9  1  0
 26  9  1  0
 26 20  1  0
 26 25  2  0
 27  5  1  0
 27 14  1  0
 27 22  2  0
M  RAD  2  16   2  23   2
M  END
>  <ID>  (1) 
conformer_0

$$$$
