
     RDKit          3D

 30 33  0  0  0  0  0  0  0  0999 V2000
   -1.9706   12.0552  -30.0832 C   0  0  0  0  0  0  0  0  0  0  0  0
   -0.8957   17.5930  -21.5539 C   0  0  0  0  0  0  0  0  0  0  0  0
   -0.4863   19.5779  -26.1136 C   0  0  0  0  0  0  0  0  0  0  0  0
    0.3444   19.3612  -27.3132 C   0  0  0  0  0  0  0  0  0  0  0  0
   -2.7949   10.5987  -27.8960 C   0  0  0  0  0  0  0  0  0  0  0  0
    0.9905   17.8922  -29.0030 C   0  0  0  0  0  0  0  0  0  0  0  0
    2.2833   17.5236  -30.1018 C   0  0  0  0  0  0  0  0  0  0  0  0
   -2.5834   18.7294  -24.4678 S   0  0  0  0  0  4  0  0  0  0  0  0
    2.6282   16.5559  -29.8184 S   0  0  0  0  0  0  0  0  0  0  0  0
   -1.5578   18.5167  -25.9167 C   0  0  0  0  0  0  0  0  0  0  0  0
   -2.2467   11.7920  -27.7860 C   0  0  0  0  0  0  0  0  0  0  0  0
   -1.7421   14.7431  -28.4845 C   0  0  0  0  0  0  0  0  0  0  0  0
   -2.4674   14.6630  -27.7827 O   0  0  0  0  0  0  0  0  0  0  0  0
   -0.8086   15.8834  -28.7189 N   0  0  0  0  0  0  0  0  0  0  0  0
   -3.8977   18.1593  -24.8836 O   0  0  0  0  0  1  0  0  0  0  0  0
   -1.8053   12.4790  -28.7363 C   0  0  0  0  0  0  0  0  0  0  0  0
   -3.0866   10.0631  -25.6238 F   0  0  0  0  0  0  0  0  0  0  0  0
   -1.4615   17.7509  -26.7907 C   0  0  0  0  0  3  0  0  0  0  0  0
    0.1719   16.9268  -28.5034 C   0  0  0  0  0  0  0  0  0  0  0  0
   -1.5139   18.2621  -20.8600 C   0  0  0  0  0  0  0  0  0  0  0  0
   -1.5018   18.2619  -22.7447 C   0  0  0  0  0  0  0  0  0  0  0  0
   -3.3404    9.7166  -27.0264 C   0  0  0  0  0  0  0  0  0  0  0  0
   -2.3821   10.6842  -30.3090 C   0  0  0  0  0  0  0  0  0  0  0  0
    1.6421   18.6761  -30.1049 C   0  0  0  0  0  0  0  0  0  0  0  0
   -3.0762    8.4856  -27.0992 F   0  0  0  0  0  0  0  0  0  0  0  0
   -4.7103    9.8697  -26.8288 F   0  0  0  0  0  0  0  0  0  0  0  0
   -1.0933   13.6648  -28.8443 N   0  0  0  0  0  0  0  0  0  0  0  0
   -3.1450   19.8530  -24.4618 O   0  0  0  0  0  1  0  0  0  0  0  0
   -0.0874   18.1244  -27.8409 C   0  0  0  0  0  0  0  0  0  0  0  0
   -2.8363   10.0111  -29.1777 C   0  0  0  0  0  0  0  0  0  0  0  0
  4  3  2  0
  7  6  1  0
  9  7  2  0
 10  3  1  0
 10  8  1  0
 11  5  2  0
 13 12  2  0
 14 12  1  0
 15  8  1  0
 16  1  2  0
 16 11  1  0
 18 10  1  0
 19  6  1  0
 19 14  1  0
 20  2  1  0
 21  2  1  0
 21  8  1  0
 22  5  1  0
 22 17  1  0
 23  1  1  0
 24  6  1  0
 24  7  1  0
 25 22  1  0
 26 22  1  0
 27 12  1  0
 27 16  1  0
 28  8  1  0
 29  4  1  0
 29  6  1  0
 29 18  1  0
 29 19  1  0
 30  5  1  0
 30 23  2  0
M  RAD  3  15   2  18   2  28   2
M  END
>  <ID>  (1) 
conformer_0

$$$$
