
     RDKit          3D

 29 30  0  0  0  0  0  0  0  0999 V2000
   -0.7623   19.0284  -26.7318 C   0  0  0  0  0  0  0  0  0  0  0  0
   -2.4153   10.2179  -29.6461 C   0  0  0  0  0  0  0  0  0  0  0  0
   -1.0723   17.7688  -21.4339 C   0  0  0  0  0  0  0  0  0  0  0  0
   -0.3536   18.0352  -27.5696 C   0  0  0  0  0  0  0  0  0  0  0  0
   -2.0213   11.5669  -30.2065 C   0  0  0  0  0  0  0  0  0  0  0  0
   -1.8971   12.6515  -28.8578 C   0  0  0  0  0  0  0  0  0  0  0  0
    2.7208   16.8855  -30.1111 S   0  0  0  0  0  0  0  0  0  0  0  0
    1.9460   17.8825  -30.1183 C   0  0  0  0  0  0  0  0  0  0  0  0
    1.0927   18.4243  -29.4660 C   0  0  0  0  0  0  0  0  0  0  0  0
   -2.4074   18.6642  -24.4511 S   0  0  0  0  0  4  0  0  0  0  0  0
   -1.5453   13.7595  -29.1668 N   0  0  0  0  0  0  0  0  0  0  0  0
   -2.7487    8.3008  -26.9448 F   0  0  0  0  0  0  0  0  0  0  0  0
   -3.0589    9.5634  -26.9724 C   0  0  0  0  0  0  0  0  0  0  0  0
   -2.6669   10.3701  -28.1846 C   0  0  0  0  0  0  0  0  0  0  0  0
   -1.5869   18.1749  -25.9840 C   0  0  0  0  0  0  0  0  0  0  0  0
   -2.1238   14.7867  -27.2958 O   0  0  0  0  0  0  0  0  0  0  0  0
   -1.6120   18.2176  -20.9262 C   0  0  0  0  0  0  0  0  0  0  0  0
   -4.0737   18.3361  -24.8480 O   0  0  0  0  0  1  0  0  0  0  0  0
   -0.0163   17.0060  -28.4635 C   0  0  0  0  0  0  0  0  0  0  0  0
   -1.5063   15.1196  -28.2361 C   0  0  0  0  0  0  0  0  0  0  0  0
    1.9332   19.4522  -31.0214 C   0  0  0  0  0  0  0  0  0  0  0  0
   -2.5924   19.9262  -24.2456 O   0  0  0  0  0  1  0  0  0  0  0  0
   -1.4948   18.2771  -22.6822 C   0  0  0  0  0  0  0  0  0  0  0  0
   -2.2429   11.6529  -27.8078 C   0  0  0  0  0  0  0  0  0  0  0  0
   -2.6134    9.7974  -25.7003 F   0  0  0  0  0  0  0  0  0  0  0  0
    0.6839   19.0416  -28.5935 C   0  0  0  0  0  0  0  0  0  0  0  0
   -0.7573   15.8474  -28.7583 N   0  0  0  0  0  0  0  0  0  0  0  0
   -2.1122   16.2407  -26.8486 S   0  0  0  0  0  0  0  0  0  0  0  0
   -4.3712    9.8742  -26.6452 F   0  0  0  0  0  0  0  0  0  0  0  0
  4  1  1  0
  5  2  2  0
  6  5  1  0
  8  7  1  0
  9  8  2  0
 11  6  1  0
 13 12  1  0
 14  2  1  0
 14 13  1  0
 15  1  1  0
 15 10  1  0
 17  3  1  0
 18 10  1  0
 19  4  1  0
 20 11  1  0
 20 16  1  0
 21  8  1  0
 22 10  1  0
 23  3  1  0
 23 10  1  0
 24  6  2  0
 24 14  1  0
 25 13  1  0
 26  4  1  0
 26  9  2  0
 27 19  1  0
 27 20  1  0
 28 15  1  0
 28 16  1  0
 29 13  1  0
M  RAD  2  18   2  22   2
M  END
>  <ID>  (1) 
conformer_0

$$$$
