
     RDKit          3D

 29 34  0  0  0  0  0  0  0  0999 V2000
   -0.1029   18.2871  -27.4251 C   0  0  0  0  0  0  0  0  0  0  0  0
   -1.9215   11.8730  -30.1371 C   0  0  0  0  0  0  0  0  0  0  0  0
    0.7685   18.9002  -28.5329 C   0  0  0  0  0  0  0  0  0  0  0  0
   -1.4218   18.4432  -20.8829 C   0  0  0  0  0  0  0  0  0  0  0  0
   -2.2092   11.6656  -27.8387 C   0  0  0  0  0  0  0  0  0  0  0  0
    1.5297   18.8712  -30.0916 C   0  0  0  0  0  0  0  0  0  0  0  0
   -1.8202   18.3974  -25.5595 C   0  0  0  0  0  0  0  0  0  0  0  0
   -0.9690   15.9384  -28.7726 N   0  0  0  0  0  0  0  0  0  0  0  0
    2.2103   17.6349  -29.9495 C   0  0  0  0  0  0  0  0  0  0  0  0
   -2.4585   14.2491  -27.5704 O   0  0  0  0  0  0  0  0  0  0  0  0
   -1.8660   14.5994  -28.4269 C   0  0  0  0  0  0  0  0  0  0  0  0
   -2.0011   12.1838  -28.8639 C   0  0  0  0  0  0  0  0  0  0  0  0
   -0.6275   19.4212  -26.0949 C   0  0  0  0  0  0  0  0  0  0  0  0
   -2.7435   10.2702  -28.1755 C   0  0  0  0  0  0  0  0  0  0  0  0
   -3.9628   17.3517  -24.3890 O   0  0  0  0  0  1  0  0  0  0  0  0
   -1.5009   18.1811  -22.4420 C   0  0  0  0  0  0  0  0  0  0  0  0
   -2.5877   18.4438  -24.2721 S   0  0  0  0  0  4  0  0  0  0  0  0
   -0.0523   16.9752  -28.4756 C   0  0  0  0  0  0  0  0  0  0  0  0
   -3.1288    9.3798  -27.3704 C   0  0  0  0  0  0  0  0  0  0  0  0
   -3.4174    8.3747  -27.3582 F   0  0  0  0  0  0  0  0  0  0  0  0
   -1.6206   13.8625  -29.3162 N   0  0  0  0  0  0  0  0  0  0  0  0
    2.8048   16.8337  -30.0227 S   0  0  0  0  0  0  0  0  0  0  0  0
   -0.7460   17.4580  -21.7592 C   0  0  0  0  0  0  0  0  0  0  0  0
   -1.3123   17.8607  -26.7412 C   0  0  0  0  0  0  0  0  0  0  0  0
   -2.6366    9.6428  -29.6404 C   0  0  0  0  0  0  0  0  0  0  0  0
   -2.1775   10.6456  -30.5524 C   0  0  0  0  0  0  0  0  0  0  0  0
    1.0446   17.3938  -28.9484 C   0  0  0  0  0  0  0  0  0  0  0  0
   -3.0846    9.7544  -26.1272 F   0  0  0  0  0  0  0  0  0  0  0  0
   -3.5682   19.3427  -24.2955 O   0  0  0  0  0  1  0  0  0  0  0  0
  3  1  1  0
  6  3  1  0
  9  6  1  0
 11  8  1  0
 11 10  2  0
 12  2  2  0
 12  5  1  0
 13  1  1  0
 13  7  2  0
 14  5  2  0
 16  4  1  0
 17  7  1  0
 17 15  1  0
 17 16  1  0
 18  1  1  0
 18  8  1  0
 19 14  1  0
 20 19  1  0
 21 11  1  0
 21 12  1  0
 22  9  2  0
 23  4  1  0
 23 16  1  0
 24  1  1  0
 24  7  1  0
 24 13  1  0
 25 14  1  0
 26  2  1  0
 26 25  2  0
 27  3  1  0
 27  9  1  0
 27 18  1  0
 28 19  1  0
 29 17  1  0
M  RAD  2  15   2  29   2
M  END
>  <ID>  (1) 
conformer_0

$$$$
