
     RDKit          3D

 29 34  0  0  0  0  0  0  0  0999 V2000
   -0.6890   19.3123  -26.3870 C   0  0  0  0  0  0  0  0  0  0  0  0
   -1.4202   17.8502  -21.0047 C   0  0  0  0  0  0  0  0  0  0  0  0
   -2.7336   10.1766  -28.5589 C   0  0  0  0  0  0  0  0  0  0  0  0
   -1.1484   17.6912  -26.8920 C   0  0  0  0  0  0  0  0  0  0  0  0
   -2.3741   11.4969  -27.8618 C   0  0  0  0  0  0  0  0  0  0  0  0
    2.4493   17.9670  -30.4385 C   0  0  0  0  0  0  0  0  0  0  0  0
   -1.8052   18.4333  -25.7131 C   0  0  0  0  0  0  0  0  0  0  0  0
    0.0607   18.7140  -27.8168 C   0  0  0  0  0  0  0  0  0  0  0  0
    2.6008   16.6805  -30.1353 S   0  0  0  0  0  0  0  0  0  0  0  0
   -2.5674   14.5699  -27.6827 O   0  0  0  0  0  0  0  0  0  0  0  0
   -0.8000   15.8527  -28.6933 N   0  0  0  0  0  0  0  0  0  0  0  0
   -1.7211   14.6624  -28.3526 C   0  0  0  0  0  0  0  0  0  0  0  0
   -2.4245   18.5925  -24.5088 S   0  0  0  0  0  4  0  0  0  0  0  0
   -1.8683   11.7321  -30.1212 C   0  0  0  0  0  0  0  0  0  0  0  0
   -1.8897   12.3907  -28.6705 C   0  0  0  0  0  0  0  0  0  0  0  0
   -3.1355   10.2352  -25.6679 F   0  0  0  0  0  0  0  0  0  0  0  0
    1.3302   16.9666  -29.2766 C   0  0  0  0  0  0  0  0  0  0  0  0
   -3.3013   19.6858  -24.6453 O   0  0  0  0  0  1  0  0  0  0  0  0
   -3.1832    9.6668  -27.1294 C   0  0  0  0  0  0  0  0  0  0  0  0
   -0.6172   17.2641  -21.7885 C   0  0  0  0  0  0  0  0  0  0  0  0
   -1.3939   18.4233  -22.5393 C   0  0  0  0  0  0  0  0  0  0  0  0
    0.5196   17.6729  -28.6924 C   0  0  0  0  0  0  0  0  0  0  0  0
   -2.3807   10.3499  -30.0408 C   0  0  0  0  0  0  0  0  0  0  0  0
   -1.1833   13.7116  -28.8041 N   0  0  0  0  0  0  0  0  0  0  0  0
   -2.6940    8.5695  -26.8522 F   0  0  0  0  0  0  0  0  0  0  0  0
   -4.4334    9.4629  -27.0450 F   0  0  0  0  0  0  0  0  0  0  0  0
   -0.7594   16.9997  -27.8591 C   0  0  0  0  0  0  0  0  0  0  0  0
    1.3076   18.6901  -29.7579 C   0  0  0  0  0  0  0  0  0  0  0  0
   -3.7941   17.7168  -24.3625 O   0  0  0  0  0  1  0  0  0  0  0  0
  4  1  1  0
  5  3  2  0
  7  1  2  0
  7  4  1  0
  8  1  1  0
  8  4  1  0
  9  6  1  0
 12 10  2  0
 12 11  1  0
 13  7  1  0
 15  5  1  0
 15 14  2  0
 17  9  1  0
 18 13  1  0
 19  3  1  0
 19 16  1  0
 20  2  1  0
 21  2  1  0
 21 13  1  0
 21 20  1  0
 22  8  1  0
 22 17  1  0
 23  3  1  0
 23 14  1  0
 24 12  1  0
 24 15  1  0
 25 19  1  0
 26 19  1  0
 27  4  1  0
 27 11  1  0
 27 22  1  0
 28  6  2  0
 28 22  1  0
 29 13  1  0
M  RAD  2  18   2  29   2
M  END
>  <ID>  (1) 
conformer_0

$$$$
