
     RDKit          3D

 30 33  0  0  0  0  0  0  0  0999 V2000
    0.0983   18.7999  -27.8188 C   0  0  0  0  0  0  0  0  0  0  0  0
   -2.2511   10.1640  -29.7675 C   0  0  0  0  0  0  0  0  0  0  0  0
    0.6564   17.8730  -28.8760 C   0  0  0  0  0  0  0  0  0  0  0  0
   -0.6478   17.5419  -21.6175 C   0  0  0  0  0  0  0  0  0  0  0  0
   -2.0129   11.4437  -30.1366 C   0  0  0  0  0  0  0  0  0  0  0  0
    2.2966   18.2992  -30.4693 C   0  0  0  0  0  0  0  0  0  0  0  0
   -1.9111   18.4337  -25.7894 C   0  0  0  0  0  0  0  0  0  0  0  0
    1.3195   18.9986  -29.7520 C   0  0  0  0  0  0  0  0  0  0  0  0
   -2.0140   14.7154  -28.5454 C   0  0  0  0  0  0  0  0  0  0  0  0
   -0.9449   15.9151  -28.7959 N   0  0  0  0  0  0  0  0  0  0  0  0
   -1.8910   12.2849  -28.7232 C   0  0  0  0  0  0  0  0  0  0  0  0
   -2.4974   14.6254  -27.5973 O   0  0  0  0  0  0  0  0  0  0  0  0
   -2.5132   18.5694  -24.2164 S   0  0  0  0  0  4  0  0  0  0  0  0
    2.5712   16.7903  -30.0065 S   0  0  0  0  0  0  0  0  0  0  0  0
   -4.0971   17.9620  -24.7235 O   0  0  0  0  0  1  0  0  0  0  0  0
   -2.1052   11.4361  -27.6763 C   0  0  0  0  0  0  0  0  0  0  0  0
   -1.4162   17.8843  -22.5157 C   0  0  0  0  0  0  0  0  0  0  0  0
   -2.9555    8.1905  -27.0590 F   0  0  0  0  0  0  0  0  0  0  0  0
    1.1387   17.0936  -29.2327 C   0  0  0  0  0  0  0  0  0  0  0  0
   -1.5517   13.4809  -29.1375 N   0  0  0  0  0  0  0  0  0  0  0  0
   -2.7712    9.2633  -27.0775 C   0  0  0  0  0  0  0  0  0  0  0  0
   -0.7557   19.4655  -26.1820 C   0  0  0  0  0  0  0  0  0  0  0  0
   -1.5822   18.5333  -20.7586 C   0  0  0  0  0  0  0  0  0  0  0  0
   -2.2471   16.2327  -26.6336 S   0  0  0  0  0  0  0  0  0  0  0  0
   -2.3803    9.9951  -28.2352 C   0  0  0  0  0  0  0  0  0  0  0  0
   -2.2590   17.5420  -23.5698 N   0  0  0  0  0  0  0  0  0  0  0  0
   -2.9064    9.6782  -25.8299 F   0  0  0  0  0  0  0  0  0  0  0  0
   -1.1336   17.9043  -26.9694 C   0  0  0  0  0  0  0  0  0  0  0  0
   -3.0732   19.6721  -24.3075 O   0  0  0  0  0  1  0  0  0  0  0  0
   -1.0925   17.0793  -27.7175 C   0  0  0  0  0  0  0  0  0  0  0  0
  3  1  1  0
  5  2  2  0
  8  3  1  0
  8  6  2  0
 10  9  1  0
 11  5  1  0
 12  9  1  0
 13  7  1  0
 14  6  1  0
 15 13  1  0
 16 11  2  0
 17  4  1  0
 19  3  1  0
 19 14  1  0
 20  9  1  0
 20 11  1  0
 21 18  1  0
 22  1  1  0
 22  7  2  0
 23  4  1  0
 24 12  1  0
 25  2  1  0
 25 16  1  0
 25 21  1  0
 26 13  1  0
 26 17  1  0
 27 21  1  0
 28  1  2  0
 28  7  1  0
 29 13  1  0
 30 10  1  0
 30 24  1  0
 30 28  1  0
M  RAD  2  15   2  29   2
M  END
>  <ID>  (1) 
conformer_0

$$$$
