
     RDKit          3D

 30 34  0  0  0  0  0  0  0  0999 V2000
   -0.8018   17.0520  -21.3801 C   0  0  0  0  0  0  0  0  0  0  0  0
   -2.7077   10.2317  -28.2986 C   0  0  0  0  0  0  0  0  0  0  0  0
   -0.0853   18.5545  -27.6910 C   0  0  0  0  0  0  0  0  0  0  0  0
    1.6967   18.8180  -30.1673 C   0  0  0  0  0  0  0  0  0  0  0  0
   -2.4678   10.2254  -29.8208 C   0  0  0  0  0  0  0  0  0  0  0  0
    2.5399   17.7103  -30.6688 C   0  0  0  0  0  0  0  0  0  0  0  0
   -2.2068    8.4008  -26.6955 F   0  0  0  0  0  0  0  0  0  0  0  0
   -1.9345   18.3927  -25.6249 C   0  0  0  0  0  0  0  0  0  0  0  0
   -2.8152   18.7128  -24.4195 S   0  0  0  0  0  4  0  0  0  0  0  0
   -0.7421   19.3761  -26.3513 C   0  0  0  0  0  0  0  0  0  0  0  0
   -1.8502   14.7908  -28.5220 C   0  0  0  0  0  0  0  0  0  0  0  0
    2.5918   16.4936  -29.9779 S   0  0  0  0  0  0  0  0  0  0  0  0
   -1.9899   12.4021  -28.7534 C   0  0  0  0  0  0  0  0  0  0  0  0
    1.1982   17.0524  -28.9822 C   0  0  0  0  0  0  0  0  0  0  0  0
   -0.7454   16.0097  -28.6676 N   0  0  0  0  0  0  0  0  0  0  0  0
   -1.0561   18.3591  -21.6763 C   0  0  0  0  0  0  0  0  0  0  0  0
   -1.9812   11.5414  -30.1304 C   0  0  0  0  0  0  0  0  0  0  0  0
   -4.3130   18.5468  -24.9094 O   0  0  0  0  0  1  0  0  0  0  0  0
   -2.6043   14.7001  -28.1071 O   0  0  0  0  0  0  0  0  0  0  0  0
   -2.9477    9.4465  -27.0678 C   0  0  0  0  0  0  0  0  0  0  0  0
   -2.6653   20.1528  -24.1160 O   0  0  0  0  0  1  0  0  0  0  0  0
   -2.0019   18.1985  -22.7306 C   0  0  0  0  0  0  0  0  0  0  0  0
   -1.4168   17.7053  -26.7006 C   0  0  0  0  0  0  0  0  0  0  0  0
   -1.4100   13.7142  -29.0846 N   0  0  0  0  0  0  0  0  0  0  0  0
   -3.0153    9.9619  -25.7304 F   0  0  0  0  0  0  0  0  0  0  0  0
   -2.3820   11.6251  -27.7530 C   0  0  0  0  0  0  0  0  0  0  0  0
    1.0085   18.0213  -29.1866 C   0  0  0  0  0  0  0  0  0  0  0  0
   -0.8513   17.1341  -27.6752 C   0  0  0  0  0  0  0  0  0  0  0  0
   -3.8293    8.6706  -27.2057 F   0  0  0  0  0  0  0  0  0  0  0  0
   -1.9259   18.2879  -20.4705 C   0  0  0  0  0  0  0  0  0  0  0  0
  5  2  2  0
  6  4  2  0
  9  8  1  0
 10  3  2  0
 10  8  1  0
 12  6  1  0
 14 12  1  0
 15 11  1  0
 16  1  1  0
 17  5  1  0
 17 13  2  0
 18  9  1  0
 19 11  2  0
 20  2  1  0
 20  7  1  0
 21  9  1  0
 22  9  1  0
 22 16  1  0
 23  8  1  0
 23 10  1  0
 24 11  1  0
 24 13  1  0
 25 20  1  0
 26  2  1  0
 26 13  1  0
 27  3  1  0
 27  4  1  0
 27 14  2  0
 28  3  1  0
 28 15  1  0
 28 23  2  0
 29 20  1  0
 30  1  1  0
 30 16  1  0
M  RAD  2  18   2  21   2
M  END
>  <ID>  (1) 
conformer_0

$$$$
