
     RDKit          3D

 27 27  0  0  0  0  0  0  0  0999 V2000
   -2.0579   11.9943  -27.8484 C   0  0  0  0  0  0  0  0  0  0  0  0
    0.2108   18.7653  -27.7917 C   0  0  0  0  0  0  0  0  0  0  0  0
   -0.5744   18.1897  -21.7553 C   0  0  0  0  0  0  0  0  0  0  0  0
   -2.3508   10.8450  -30.2976 C   0  0  0  0  0  0  0  0  0  0  0  0
    0.1013   17.5442  -28.4194 C   0  0  0  0  0  0  0  0  0  0  0  0
    2.2273   18.0107  -30.2741 C   0  0  0  0  0  0  0  0  0  0  0  0
   -1.0340   15.1945  -28.9361 N   0  0  0  0  0  0  0  0  0  0  0  0
   -1.9697   12.1888  -30.0344 C   0  0  0  0  0  0  0  0  0  0  0  0
   -2.4652   14.7088  -27.6669 O   0  0  0  0  0  0  0  0  0  0  0  0
    2.2265   16.9023  -30.1923 S   0  0  0  0  0  0  0  0  0  0  0  0
   -2.0503   14.7318  -28.6474 C   0  0  2  0  0  0  0  0  0  0  0  0
   -2.3747   18.5788  -24.7461 S   0  0  0  0  0  4  0  0  0  0  0  0
   -1.2779   18.2743  -22.8794 C   0  0  0  0  0  0  0  0  0  0  0  0
   -1.5670   18.3115  -26.2161 C   0  0  0  0  0  0  0  0  0  0  0  0
   -4.0005   18.0657  -24.8922 O   0  0  0  0  0  1  0  0  0  0  0  0
   -2.9196    8.4545  -27.0527 F   0  0  0  0  0  0  0  0  0  0  0  0
   -1.9148   12.6571  -28.7630 C   0  0  0  0  0  0  0  0  0  0  0  0
    1.3897   18.7125  -29.5022 C   0  0  0  0  0  0  0  0  0  0  0  0
   -2.9907    9.5834  -27.0786 C   0  0  0  0  0  0  0  0  0  0  0  0
    0.2098   16.9856  -28.8388 C   0  0  0  0  0  0  0  0  0  0  0  0
   -1.5811   18.0232  -20.9698 C   0  0  0  0  0  0  0  0  0  0  0  0
   -2.6237   10.6631  -27.8800 C   0  0  0  0  0  0  0  0  0  0  0  0
   -2.8451   19.8487  -24.5557 O   0  0  0  0  0  1  0  0  0  0  0  0
   -3.0124    9.8516  -25.8044 F   0  0  0  0  0  0  0  0  0  0  0  0
   -1.4662   17.2300  -26.8646 C   0  0  0  0  0  0  0  0  0  0  0  0
   -0.7081   19.1736  -26.6597 C   0  0  0  0  0  0  0  0  0  0  0  0
   -2.8186   10.0927  -29.1781 C   0  0  0  0  0  0  0  0  0  0  0  0
  5  2  1  0
  8  4  2  0
 10  6  2  0
 11  7  1  1
 11  9  1  0
 13  3  1  0
 13 12  1  0
 14 12  1  0
 15 12  1  0
 17  1  2  0
 17  8  1  0
 17 11  1  0
 18  5  1  0
 18  6  1  0
 19 16  1  0
 20  5  2  3
 21  3  1  0
 22  1  1  0
 22 19  1  0
 23 12  1  0
 24 19  1  0
 25 11  1  0
 25 14  1  0
 26  2  1  0
 26 14  2  3
 27  4  1  0
 27 22  2  0
M  RAD  2  15   2  23   2
M  END
>  <ID>  (1) 
conformer_0

$$$$
