
     RDKit          3D

 30 32  0  0  0  0  0  0  0  0999 V2000
    1.7266   19.1767  -30.2345 C   0  0  0  0  0  0  0  0  0  0  0  0
   -1.4884   18.6580  -21.2157 C   0  0  0  0  0  0  0  0  0  0  0  0
   -3.0360   10.4012  -27.8023 C   0  0  0  0  0  0  0  0  0  0  0  0
   -2.5007   11.6923  -27.7262 C   0  0  0  0  0  0  0  0  0  0  0  0
    1.2070   17.2349  -29.3749 C   0  0  0  0  0  3  0  0  0  0  0  0
    1.1337   19.2094  -28.8352 C   0  0  0  0  0  0  0  0  0  0  0  0
   -2.7003   14.5559  -27.3539 O   0  0  0  0  0  0  0  0  0  0  0  0
    2.1245   17.7315  -30.2527 C   0  0  0  0  0  0  0  0  0  0  0  0
   -0.9926   15.9810  -28.6482 N   0  0  0  0  0  0  0  0  0  0  0  0
   -2.0926   14.6404  -28.3245 C   0  0  0  0  0  0  0  0  0  0  0  0
   -2.2980   18.3433  -24.5006 S   0  0  0  0  0  3  0  0  0  0  0  0
   -1.6213   17.4493  -20.6626 C   0  0  0  0  0  0  0  0  0  0  0  0
   -1.0317   16.8361  -27.9052 C   0  0  0  0  0  0  0  0  0  0  0  0
   -1.7491   11.6888  -29.8363 C   0  0  0  0  0  0  0  0  0  0  0  0
   -2.0298   12.3890  -28.6608 C   0  0  0  0  0  0  0  0  0  0  0  0
   -3.6718   18.8128  -24.6550 O   0  0  0  0  0  1  0  0  0  0  0  0
   -3.5834    9.4656  -27.1389 C   0  0  0  0  0  0  0  0  0  0  0  0
   -3.0864    8.3091  -26.8643 F   0  0  0  0  0  0  0  0  0  0  0  0
    0.3501   18.1416  -28.3301 C   0  0  0  0  0  0  0  0  0  0  0  0
   -1.6480   13.8277  -28.9828 N   0  0  0  0  0  0  0  0  0  0  0  0
   -1.6855   18.0421  -22.7246 C   0  0  0  0  0  0  0  0  0  0  0  0
   -1.9349   17.8689  -25.9360 C   0  0  0  0  0  0  0  0  0  0  0  0
   -1.5935   17.2530  -26.8595 C   0  0  0  0  0  0  0  0  0  0  0  0
   -2.0209   10.3214  -30.0290 C   0  0  0  0  0  0  0  0  0  0  0  0
   -0.5394   18.6819  -26.8750 C   0  0  0  0  0  0  0  0  0  0  0  0
    3.3736   17.0382  -31.1316 Cl  0  0  0  0  0  0  0  0  0  0  0  0
   -4.8449    9.5790  -27.1175 F   0  0  0  0  0  0  0  0  0  0  0  0
   -0.7022   16.8135  -21.3562 C   0  0  0  0  0  0  0  0  0  0  0  0
   -3.3739    9.9866  -25.6913 F   0  0  0  0  0  0  0  0  0  0  0  0
   -2.3240    9.6907  -28.8880 C   0  0  0  0  0  0  0  0  0  0  0  0
  4  3  2  0
  6  1  2  0
  8  1  1  0
  8  5  1  0
 10  7  2  0
 10  9  1  0
 12  2  1  0
 13  9  1  0
 15  4  1  0
 15 14  2  0
 16 11  1  0
 17  3  1  0
 18 17  1  0
 19  5  1  0
 19  6  1  0
 19 13  1  0
 20 10  1  0
 20 15  1  0
 21  2  1  0
 22 11  1  0
 22 21  1  0
 23 13  2  0
 23 22  1  0
 24 14  1  0
 25 19  1  0
 25 23  1  0
 26  8  1  0
 27 17  1  0
 28 12  1  0
 29 17  1  0
 30  3  1  0
 30 24  2  0
M  RAD  3   5   2  11   2  16   2
M  END
>  <ID>  (1) 
conformer_0

$$$$
