
     RDKit          3D

 31 34  0  0  0  0  0  0  0  0999 V2000
   -2.1825   11.8735  -27.8522 C   0  0  0  0  0  0  0  0  0  0  0  0
   -0.8239   19.4157  -26.2894 C   0  0  0  0  0  0  0  0  0  0  0  0
    0.2966   19.2570  -27.5566 C   0  0  0  0  0  0  0  0  0  0  0  0
   -2.4652    9.7616  -29.0481 C   0  0  0  0  0  0  0  0  0  0  0  0
   -1.4197   18.1730  -21.0293 C   0  0  0  0  0  0  0  0  0  0  0  0
    2.5379   18.1453  -30.6477 C   0  0  0  0  0  0  0  0  0  0  0  0
   -2.5604   18.3847  -24.4143 S   0  0  0  0  0  4  0  0  0  0  0  0
   -0.9113   16.0262  -28.8015 N   0  0  0  0  0  0  0  0  0  0  0  0
   -0.2121   18.2017  -27.8241 C   0  0  0  0  0  0  0  0  0  0  0  0
    2.6511   16.6996  -30.2298 S   0  0  0  0  0  0  0  0  0  0  0  0
   -1.7526   18.2219  -25.8575 C   0  0  0  0  0  0  0  0  0  0  0  0
   -2.0653   12.5791  -28.8649 C   0  0  0  0  0  0  0  0  0  0  0  0
   -2.5566   14.4886  -27.5737 O   0  0  0  0  0  0  0  0  0  0  0  0
   -4.2920   10.5473  -26.0018 F   0  0  0  0  0  0  0  0  0  0  0  0
   -3.9601   17.8434  -24.8859 O   0  0  0  0  0  1  0  0  0  0  0  0
   -1.9690   11.8707  -30.1351 C   0  0  0  0  0  0  0  0  0  0  0  0
   -1.4584   18.2474  -22.5044 C   0  0  0  0  0  0  0  0  0  0  0  0
    1.2874   17.1831  -29.4052 C   0  0  0  0  0  0  0  0  0  0  0  0
   -1.5478   17.3773  -26.7482 C   0  0  0  0  0  3  0  0  0  0  0  0
   -1.9262   14.7378  -28.5121 C   0  0  0  0  0  0  0  0  0  0  0  0
   -2.9613    9.9804  -26.7782 C   0  0  0  0  0  0  0  0  0  0  0  0
   -1.8389   13.9653  -29.3374 N   0  0  0  0  0  0  0  0  0  0  0  0
   -2.7071   10.6052  -27.7689 C   0  0  0  0  0  0  0  0  0  0  0  0
   -2.7479    8.7746  -26.5998 F   0  0  0  0  0  0  0  0  0  0  0  0
   -3.1123   19.6616  -24.4491 O   0  0  0  0  0  1  0  0  0  0  0  0
    1.6270   19.0527  -29.7176 C   0  0  0  0  0  0  0  0  0  0  0  0
   -2.5522   10.4559  -25.3942 F   0  0  0  0  0  0  0  0  0  0  0  0
   -0.8388   16.9655  -28.0355 C   0  0  0  0  0  0  0  0  0  0  0  0
   -0.3235   18.4729  -22.7870 F   0  0  0  0  0  0  0  0  0  0  0  0
   -2.1954   10.5222  -30.2558 C   0  0  0  0  0  0  0  0  0  0  0  0
    0.9683   17.7705  -28.9940 C   0  0  0  0  0  0  0  0  0  0  0  0
  3  2  2  0
  9  3  1  0
 10  6  1  0
 11  2  1  0
 11  7  1  0
 12  1  2  0
 15  7  1  0
 16 12  1  0
 17  5  1  0
 17  7  1  0
 18 10  1  0
 19  9  1  0
 19 11  1  0
 20  8  1  0
 20 13  2  0
 21 14  1  0
 22 12  1  0
 22 20  1  0
 23  1  1  0
 23  4  2  0
 23 21  1  0
 24 21  1  0
 25  7  1  0
 26  6  1  0
 27 21  1  0
 28  8  1  0
 28  9  1  0
 28 19  1  0
 29 17  1  0
 30  4  1  0
 30 16  2  0
 31  9  1  0
 31 18  1  0
 31 26  2  0
M  RAD  3  15   2  19   2  25   2
M  END
>  <ID>  (1) 
conformer_0

$$$$
