
     RDKit          3D

 27 29  0  0  0  0  0  0  0  0999 V2000
   -0.7622   17.9003  -22.0973 C   0  0  0  0  0  0  0  0  0  0  0  0
   -1.3651   17.5881  -26.9043 C   0  0  0  0  0  0  0  0  0  0  0  0
   -2.5500   10.4578  -28.0769 C   0  0  0  0  0  0  0  0  0  0  0  0
   -1.9809   11.7188  -27.8516 C   0  0  0  0  0  0  0  0  0  0  0  0
    0.5922   19.4076  -28.1081 C   0  0  0  0  0  0  0  0  0  0  0  0
    1.9903   18.0228  -30.0513 C   0  0  0  0  0  0  0  0  0  0  0  0
   -2.4757   14.7302  -27.4358 O   0  0  0  0  0  0  0  0  0  0  0  0
    2.4126   16.9812  -30.0912 S   0  0  0  0  0  0  0  0  0  0  0  0
   -4.0883   17.9844  -24.7600 O   0  0  0  0  0  1  0  0  0  0  0  0
   -1.5555   18.2664  -26.0721 C   0  0  0  0  0  0  0  0  0  0  0  0
   -2.5553   18.4362  -24.6613 S   0  0  0  0  0  4  0  0  0  0  0  0
   -1.8936   14.8675  -28.3850 C   0  0  0  0  0  0  0  0  0  0  0  0
   -0.7855   15.8354  -28.7417 N   0  0  0  0  0  0  0  0  0  0  0  0
   -1.9294   12.5441  -29.0251 C   0  0  0  0  0  0  0  0  0  0  0  0
   -2.0723   11.4402  -30.2725 C   0  0  0  0  0  0  0  0  0  0  0  0
   -2.9994   10.2979  -25.5295 F   0  0  0  0  0  0  0  0  0  0  0  0
    1.3913   18.7557  -29.5743 C   0  0  0  0  0  0  0  0  0  0  0  0
   -2.8844    9.6975  -26.7230 C   0  0  0  0  0  0  0  0  0  0  0  0
    0.2715   17.2370  -28.4728 C   0  0  0  0  0  0  0  0  0  0  0  0
   -1.7103   18.2881  -21.2018 C   0  0  0  0  0  0  0  0  0  0  0  0
   -1.7747   18.2268  -22.7934 C   0  0  0  0  0  0  0  0  0  0  0  0
   -0.6013   19.4459  -26.5604 C   0  0  0  0  0  0  0  0  0  0  0  0
   -2.7607    8.6975  -26.5289 F   0  0  0  0  0  0  0  0  0  0  0  0
   -2.9372   19.6865  -24.5369 O   0  0  0  0  0  1  0  0  0  0  0  0
   -2.5922   10.2021  -29.5873 C   0  0  0  0  0  0  0  0  0  0  0  0
   -1.7578   13.8844  -29.3453 N   0  0  0  0  0  0  0  0  0  0  0  0
    0.0911   18.0598  -28.0169 C   0  0  0  0  0  0  0  0  0  0  0  0
  4  3  2  0
  8  6  2  0
 10  2  2  0
 11  9  1  0
 11 10  1  0
 12  7  2  0
 13 12  1  0
 14  4  1  0
 15 14  2  0
 17  5  1  0
 17  6  1  0
 18  3  1  0
 18 16  1  0
 19 13  1  0
 20  1  1  0
 21  1  1  0
 21 11  1  0
 21 20  1  0
 22  5  2  0
 22 10  1  0
 23 18  1  0
 24 11  1  0
 25  3  1  0
 25 15  1  0
 26 12  1  0
 26 14  1  0
 27  2  1  0
 27  5  1  0
 27 19  1  0
M  RAD  2   9   2  24   2
M  END
>  <ID>  (1) 
conformer_0

$$$$
