
     RDKit          3D

 28 30  0  0  0  0  0  0  0  0999 V2000
   -1.8817   11.6306  -30.1612 C   0  0  0  0  0  0  0  0  0  0  0  0
    0.1790   18.8104  -27.7599 C   0  0  0  0  0  0  0  0  0  0  0  0
   -1.0813   17.5342  -21.2365 C   0  0  0  0  0  0  0  0  0  0  0  0
    0.7046   17.8410  -28.7960 C   0  0  0  0  0  0  0  0  0  0  0  0
   -2.7006   10.2190  -28.3800 C   0  0  0  0  0  0  0  0  0  0  0  0
    1.3626   18.9535  -29.5754 C   0  0  0  0  0  0  0  0  0  0  0  0
    2.2950   18.0218  -30.2431 C   0  0  0  0  0  0  0  0  0  0  0  0
   -0.9020   16.0133  -28.6854 N   0  0  0  0  0  0  0  0  0  0  0  0
    2.6924   16.8907  -30.5061 S   0  0  0  0  0  0  0  0  0  0  0  0
   -2.2813   14.5876  -27.6329 O   0  0  0  0  0  0  0  0  0  0  0  0
   -1.9929   12.5019  -28.8945 C   0  0  0  0  0  0  0  0  0  0  0  0
   -2.5153   18.5918  -24.5429 S   0  0  0  0  0  4  0  0  0  0  0  0
   -4.1427   17.8209  -24.7315 O   0  0  0  0  0  1  0  0  0  0  0  0
   -1.7867   14.8798  -28.3629 C   0  0  0  0  0  0  0  0  0  0  0  0
   -1.7001   18.4595  -25.8699 C   0  0  0  0  0  0  0  0  0  0  0  0
   -2.2867   10.2229  -29.8340 C   0  0  0  0  0  0  0  0  0  0  0  0
   -1.5310   18.0249  -22.6072 C   0  0  0  0  0  0  0  0  0  0  0  0
   -3.2081    9.6466  -27.1454 C   0  0  0  0  0  0  0  0  0  0  0  0
   -2.9407    8.4584  -26.9126 F   0  0  0  0  0  0  0  0  0  0  0  0
   -0.6453   19.3800  -26.1564 C   0  0  0  0  0  0  0  0  0  0  0  0
    0.4554   17.0227  -28.8555 C   0  0  0  0  0  0  0  0  0  0  0  0
   -1.8289   13.9950  -29.3660 N   0  0  0  0  0  0  0  0  0  0  0  0
   -1.6530   18.4714  -20.9439 C   0  0  0  0  0  0  0  0  0  0  0  0
   -2.3708   11.5377  -27.9432 C   0  0  0  0  0  0  0  0  0  0  0  0
   -4.6022    9.9918  -26.8875 F   0  0  0  0  0  0  0  0  0  0  0  0
   -1.0960   17.8279  -27.0343 C   0  0  0  0  0  0  0  0  0  0  0  0
   -3.2275   19.6529  -24.4673 O   0  0  0  0  0  1  0  0  0  0  0  0
   -2.9709   10.0908  -25.7608 F   0  0  0  0  0  0  0  0  0  0  0  0
  4  2  1  0
  6  4  1  0
  7  6  1  0
  9  7  2  0
 11  1  2  0
 13 12  1  0
 14  8  1  0
 14 10  2  0
 15 12  1  0
 16  1  1  0
 16  5  1  0
 17  3  1  0
 17 12  1  0
 18  5  1  0
 19 18  1  0
 20  2  1  0
 20 15  2  0
 21  4  1  0
 21  8  1  0
 22 11  1  0
 22 14  1  0
 23  3  1  0
 24  5  2  0
 24 11  1  0
 25 18  1  0
 26  2  2  0
 26 15  1  0
 26 20  1  0
 27 12  1  0
 28 18  1  0
M  RAD  2  13   2  27   2
M  END
>  <ID>  (1) 
conformer_0

$$$$
