
     RDKit          3D

 27 28  0  0  0  0  0  0  0  0999 V2000
   -2.3891   10.3918  -28.3033 C   0  0  0  0  0  0  0  0  0  0  0  0
    0.4796   17.9812  -28.4911 C   0  0  0  0  0  0  0  0  0  0  0  0
    1.3297   18.5677  -29.6717 C   0  0  0  0  0  0  0  0  0  0  0  0
   -0.8685   17.5098  -21.3074 C   0  0  0  0  0  0  0  0  0  0  0  0
   -2.0321   11.4595  -30.3350 C   0  0  0  0  0  0  0  0  0  0  0  0
   -0.4466   19.4896  -26.2496 C   0  0  0  0  0  0  0  0  0  0  0  0
    2.2913   17.6539  -30.2240 C   0  0  0  0  0  0  0  0  0  0  0  0
   -2.2560   14.4158  -27.7664 O   0  0  0  0  0  0  0  0  0  0  0  0
   -1.5427   18.3729  -26.0490 C   0  0  0  0  0  0  0  0  0  0  0  0
   -2.0483   11.8143  -28.3376 C   0  0  0  0  0  0  0  0  0  0  0  0
   -0.6479   15.9731  -28.8846 N   0  0  0  0  0  0  0  0  0  0  0  0
   -2.5340   18.4993  -24.5103 S   0  0  0  0  0  4  0  0  0  0  0  0
   -4.1101   18.1180  -24.8984 O   0  0  0  0  0  1  0  0  0  0  0  0
   -1.7593   14.3435  -28.7553 C   0  0  0  0  0  0  0  0  0  0  0  0
   -1.7260   18.1054  -22.3334 C   0  0  0  0  0  0  0  0  0  0  0  0
   -3.0197    9.7065  -27.0659 C   0  0  0  0  0  0  0  0  0  0  0  0
   -1.1455   17.6650  -27.1195 C   0  0  0  0  0  0  0  0  0  0  0  0
   -3.1844   10.0709  -25.8785 F   0  0  0  0  0  0  0  0  0  0  0  0
    2.6871   16.8857  -30.0079 S   0  0  0  0  0  0  0  0  0  0  0  0
    0.5011   16.7882  -28.9702 C   0  0  0  0  0  0  0  0  0  0  0  0
   -2.1606   10.0448  -29.8083 C   0  0  0  0  0  0  0  0  0  0  0  0
   -1.9255   18.0002  -20.6479 C   0  0  0  0  0  0  0  0  0  0  0  0
   -2.8282   19.7793  -24.3731 O   0  0  0  0  0  1  0  0  0  0  0  0
   -2.3560   17.2964  -23.8437 N   0  0  0  0  0  0  0  0  0  0  0  0
   -1.2079   13.9637  -29.4142 N   0  0  0  0  0  0  0  0  0  0  0  0
    0.1997   19.0240  -27.4607 C   0  0  0  0  0  0  0  0  0  0  0  0
   -3.1023    8.5591  -27.1216 F   0  0  0  0  0  0  0  0  0  0  0  0
  3  2  1  0
  7  3  1  0
  9  6  2  0
 10  1  1  0
 12  9  1  0
 13 12  1  0
 14  8  1  0
 14 10  1  0
 14 11  1  0
 15  4  1  0
 16  1  1  0
 17  9  1  0
 18 16  1  0
 19  7  2  0
 20  2  1  0
 20 11  1  0
 21  1  1  0
 21  5  1  0
 22  4  1  0
 22 15  1  0
 23 12  1  0
 24 12  1  0
 24 15  1  0
 25 14  1  0
 26  2  1  0
 26  6  1  0
 26 17  2  0
 27 16  1  0
M  RAD  2  13   2  23   2
M  END
>  <ID>  (1) 
conformer_0

$$$$
