
     RDKit          3D

 28 32  0  0  0  0  0  0  0  0999 V2000
   -1.0568   17.4921  -26.9051 C   0  0  0  0  0  0  0  0  0  0  0  0
   -2.2551   10.1651  -29.8754 C   0  0  0  0  0  0  0  0  0  0  0  0
   -0.8743   17.2847  -21.2391 C   0  0  0  0  0  0  0  0  0  0  0  0
    0.0142   18.9260  -27.9467 C   0  0  0  0  0  0  0  0  0  0  0  0
   -2.4498   11.6641  -27.9476 C   0  0  0  0  0  0  0  0  0  0  0  0
    1.9808   17.5956  -29.7932 C   0  0  0  0  0  0  0  0  0  0  0  0
    2.8247   17.1623  -30.1335 S   0  0  0  0  0  0  0  0  0  0  0  0
   -0.7923   15.9735  -28.7473 N   0  0  0  0  0  0  0  0  0  0  0  0
   -2.1171   14.5430  -27.4263 O   0  0  0  0  0  0  0  0  0  0  0  0
   -1.6295   18.2154  -25.9435 C   0  0  0  0  0  0  0  0  0  0  0  0
   -2.3569   18.5814  -24.5491 S   0  0  0  0  0  4  0  0  0  0  0  0
   -1.7958   14.6853  -28.7843 C   0  0  0  0  0  0  0  0  0  0  0  0
   -2.0222   12.4660  -29.0229 C   0  0  0  0  0  0  0  0  0  0  0  0
   -2.8601    8.3785  -27.1114 F   0  0  0  0  0  0  0  0  0  0  0  0
    1.2255   19.0584  -29.3758 C   0  0  0  0  0  0  0  0  0  0  0  0
   -2.0247   11.6007  -30.2652 C   0  0  0  0  0  0  0  0  0  0  0  0
   -3.8913   17.9897  -24.7512 O   0  0  0  0  0  1  0  0  0  0  0  0
   -1.2774   18.0450  -22.3518 C   0  0  0  0  0  0  0  0  0  0  0  0
   -0.0441   16.9644  -28.5370 C   0  0  0  0  0  0  0  0  0  0  0  0
   -3.2570    9.5937  -27.2659 C   0  0  0  0  0  0  0  0  0  0  0  0
   -1.4940   18.5534  -20.8275 C   0  0  0  0  0  0  0  0  0  0  0  0
   -1.7107   13.9381  -29.3803 N   0  0  0  0  0  0  0  0  0  0  0  0
   -0.6840   19.1845  -26.5801 C   0  0  0  0  0  0  0  0  0  0  0  0
   -2.9202   19.8699  -24.4474 O   0  0  0  0  0  1  0  0  0  0  0  0
   -2.6118   10.2710  -28.3904 C   0  0  0  0  0  0  0  0  0  0  0  0
   -3.2131   10.0550  -25.9068 F   0  0  0  0  0  0  0  0  0  0  0  0
   -4.4966    9.4823  -27.2148 F   0  0  0  0  0  0  0  0  0  0  0  0
    0.6506   17.5465  -28.7451 C   0  0  0  0  0  0  0  0  0  0  0  0
  7  6  2  0
 10  1  1  0
 11 10  1  0
 12  8  1  0
 12  9  2  0
 13  5  2  0
 15  4  1  0
 15  6  1  0
 16  2  2  0
 16 13  1  0
 17 11  1  0
 18  3  1  0
 18 11  1  0
 19  8  1  0
 20 14  1  0
 21  3  1  0
 21 18  1  0
 22 12  1  0
 22 13  1  0
 23  1  2  0
 23  4  1  0
 23 10  1  0
 24 11  1  0
 25  2  1  0
 25  5  1  0
 25 20  1  0
 26 20  1  0
 27 20  1  0
 28  4  1  0
 28  6  1  0
 28 15  1  0
 28 19  1  0
M  RAD  2  17   2  24   2
M  END
>  <ID>  (1) 
conformer_0

$$$$
