
     RDKit          3D

 28 33  0  0  0  0  0  0  0  0999 V2000
   -0.2317   18.2867  -27.3696 C   0  0  0  0  0  0  0  0  0  0  0  0
   -2.5026   11.6743  -27.6450 C   0  0  0  0  0  0  0  0  0  0  0  0
   -0.4141   17.3787  -21.8486 C   0  0  0  0  0  0  0  0  0  0  0  0
    0.4499   18.9438  -28.3330 C   0  0  0  0  0  0  0  0  0  0  0  0
   -2.7812   10.2938  -27.9634 C   0  0  0  0  0  0  0  0  0  0  0  0
    1.3794   19.2296  -29.9398 C   0  0  0  0  0  0  0  0  0  0  0  0
   -1.9211   14.8701  -28.6121 C   0  0  0  0  0  0  0  0  0  0  0  0
    2.2635   17.9169  -30.2459 C   0  0  0  0  0  0  0  0  0  0  0  0
   -2.3795   14.7932  -27.4204 O   0  0  0  0  0  0  0  0  0  0  0  0
   -0.8118   16.0136  -28.6316 N   0  0  0  0  0  0  0  0  0  0  0  0
   -1.7351   18.4246  -25.6192 C   0  0  0  0  0  0  0  0  0  0  0  0
   -2.0992   12.3925  -28.7833 C   0  0  0  0  0  0  0  0  0  0  0  0
    2.8737   17.1321  -30.4409 S   0  0  0  0  0  0  0  0  0  0  0  0
   -2.5411   18.6887  -24.3480 S   0  0  0  0  0  4  0  0  0  0  0  0
   -1.6020   13.6014  -29.3077 N   0  0  0  0  0  0  0  0  0  0  0  0
   -1.8510   18.4305  -20.9280 C   0  0  0  0  0  0  0  0  0  0  0  0
   -4.0715   17.8387  -24.5799 O   0  0  0  0  0  1  0  0  0  0  0  0
   -2.2142   11.4260  -30.0867 C   0  0  0  0  0  0  0  0  0  0  0  0
   -0.5905   19.4730  -26.0530 C   0  0  0  0  0  0  0  0  0  0  0  0
   -1.3902   18.3971  -22.5602 C   0  0  0  0  0  0  0  0  0  0  0  0
   -3.1060    9.3710  -27.0746 C   0  0  0  0  0  0  0  0  0  0  0  0
   -2.8738    8.6934  -26.5747 O   0  0  0  0  0  0  0  0  0  0  0  0
    0.4419   17.0630  -28.6538 C   0  0  0  0  0  0  0  0  0  0  0  0
   -1.5367   17.7277  -26.4972 C   0  0  0  0  0  0  0  0  0  0  0  0
   -3.2656   19.7089  -24.3997 O   0  0  0  0  0  1  0  0  0  0  0  0
   -2.5445   10.1574  -29.5398 C   0  0  0  0  0  0  0  0  0  0  0  0
    1.1811   17.6975  -29.2395 C   0  0  0  0  0  0  0  0  0  0  0  0
   -1.3647   17.0227  -20.7309 C   0  0  0  0  0  0  0  0  0  0  0  0
  4  1  1  0
  5  2  2  0
  6  4  1  0
  8  6  1  0
  9  7  1  0
 10  7  1  0
 12  2  1  0
 13  8  2  0
 14 11  1  0
 15  7  1  0
 15 12  1  0
 17 14  1  0
 18 12  1  0
 19  1  1  0
 19 11  1  0
 20  3  1  0
 20 14  1  0
 20 16  1  0
 21  5  1  0
 22 21  1  0
 23  1  1  0
 23 10  1  0
 24  1  1  0
 24 11  2  0
 25 14  1  0
 26  5  1  0
 26 18  2  0
 27  4  1  0
 27  6  1  0
 27  8  1  0
 27 23  1  0
 28  3  1  0
 28 16  1  0
M  RAD  2  17   2  25   2
M  END
>  <ID>  (1) 
conformer_0

$$$$
