
     RDKit          3D

 30 34  0  0  0  0  0  0  0  0999 V2000
   -2.9391   10.6206  -28.0795 C   0  0  0  0  0  0  0  0  0  0  0  0
   -0.2090   18.0112  -27.6438 C   0  0  0  0  0  0  0  0  0  0  0  0
   -1.0403   17.3942  -21.1651 C   0  0  0  0  0  0  0  0  0  0  0  0
    0.7243   18.2663  -28.7778 C   0  0  0  0  0  0  0  0  0  0  0  0
   -2.4744   11.8970  -28.0409 C   0  0  0  0  0  0  0  0  0  0  0  0
   -0.5738   19.7091  -25.5030 C   0  0  0  0  0  0  0  0  0  0  0  0
   -0.0144   16.8818  -28.6453 C   0  0  0  0  0  0  0  0  0  0  0  0
   -0.8794   15.9590  -28.7957 N   0  0  0  0  0  0  0  0  0  0  0  0
   -0.0603   19.3003  -26.8357 C   0  0  0  0  0  3  0  0  0  0  0  0
   -1.6432   18.6915  -25.2862 C   0  0  0  0  0  0  0  0  0  0  0  0
    2.4305   16.9008  -29.8599 S   0  0  0  0  0  0  0  0  0  0  0  0
   -2.5968    9.8595  -29.2483 C   0  0  0  0  0  0  0  0  0  0  0  0
   -2.3985   14.4977  -27.6080 O   0  0  0  0  0  0  0  0  0  0  0  0
   -1.9820   12.5930  -28.9516 C   0  0  0  0  0  0  0  0  0  0  0  0
   -3.7131   17.8148  -24.2735 O   0  0  0  0  0  1  0  0  0  0  0  0
   -2.3249   18.6819  -24.0047 S   0  0  0  0  0  4  0  0  0  0  0  0
   -1.4520   18.1205  -22.1903 C   0  0  0  0  0  0  0  0  0  0  0  0
   -1.8345   14.6629  -28.5716 C   0  0  0  0  0  0  0  0  0  0  0  0
    1.9400   17.8626  -29.9481 C   0  0  0  0  0  0  0  0  0  0  0  0
   -2.8806   10.1100  -25.7206 F   0  0  0  0  0  0  0  0  0  0  0  0
   -3.3415    9.7591  -27.1413 C   0  0  0  0  0  0  0  0  0  0  0  0
   -1.4794   17.8701  -26.4547 C   0  0  0  0  0  0  0  0  0  0  0  0
   -1.5440   18.5572  -20.7196 C   0  0  0  0  0  0  0  0  0  0  0  0
   -1.9929   10.5377  -30.3279 C   0  0  0  0  0  0  0  0  0  0  0  0
   -1.4265   13.9172  -29.2685 N   0  0  0  0  0  0  0  0  0  0  0  0
   -3.2875    8.5292  -27.2409 F   0  0  0  0  0  0  0  0  0  0  0  0
   -3.2908   19.7278  -24.2068 O   0  0  0  0  0  1  0  0  0  0  0  0
    1.2336   18.9736  -29.7695 C   0  0  0  0  0  0  0  0  0  0  0  0
   -4.6883   10.3548  -26.5259 F   0  0  0  0  0  0  0  0  0  0  0  0
   -1.7776   11.9189  -30.2045 C   0  0  0  0  0  0  0  0  0  0  0  0
  4  2  1  0
  5  1  2  0
  7  2  1  0
  7  4  1  0
  8  7  1  0
  9  2  1  0
  9  6  1  0
 10  6  2  0
 12  1  1  0
 14  5  1  0
 16 10  1  0
 16 15  1  0
 17  3  1  0
 17 16  1  0
 18  8  1  0
 18 13  2  0
 19  4  1  0
 19 11  2  0
 21  1  1  0
 21 20  1  0
 22  2  1  0
 22 10  1  0
 23  3  1  0
 23 17  1  0
 24 12  2  0
 25 14  1  0
 25 18  1  0
 26 21  1  0
 27 16  1  0
 28  4  1  0
 28 19  1  0
 29 21  1  0
 30 14  2  0
 30 24  1  0
M  RAD  3   9   2  15   2  27   2
M  END
>  <ID>  (1) 
conformer_0

$$$$
