
     RDKit          3D

 31 34  0  0  0  0  0  0  0  0999 V2000
   -2.1767   10.7244  -30.2907 C   0  0  0  0  0  0  0  0  0  0  0  0
   -0.2608   18.0858  -27.8947 C   0  0  0  0  0  0  0  0  0  0  0  0
   -0.9264   19.5605  -26.3310 C   0  0  0  0  0  0  0  0  0  0  0  0
   -1.1996   17.1533  -20.9266 C   0  0  0  0  0  0  0  0  0  0  0  0
   -2.1410   11.8359  -27.7903 C   0  0  0  0  0  0  0  0  0  0  0  0
    1.3762   18.9551  -29.6519 C   0  0  0  0  0  0  0  0  0  0  0  0
   -2.5599   14.5640  -27.5286 O   0  0  0  0  0  0  0  0  0  0  0  0
   -0.9201   16.0646  -28.6602 N   0  0  0  0  0  0  0  0  0  0  0  0
    1.8659   17.5270  -30.1376 C   0  0  0  0  0  0  0  0  0  0  0  0
   -1.9436   12.5834  -28.7142 C   0  0  0  0  0  0  0  0  0  0  0  0
   -1.6950   18.4887  -25.9613 C   0  0  0  0  0  0  0  0  0  0  0  0
   -1.9810   12.1066  -30.0565 C   0  0  0  0  0  0  0  0  0  0  0  0
   -2.5141   18.6399  -24.5386 S   0  0  0  0  0  4  0  0  0  0  0  0
   -3.9707   17.7920  -24.8307 O   0  0  0  0  0  1  0  0  0  0  0  0
   -2.0850   14.7102  -28.4548 C   0  0  1  0  0  0  0  0  0  0  0  0
   -0.3905   17.3411  -22.0950 C   0  0  0  0  0  0  0  0  0  0  0  0
   -3.0465    9.6489  -26.9005 C   0  0  0  0  0  0  0  0  0  0  0  0
   -0.2594   16.9377  -28.4452 C   0  0  0  0  0  0  0  0  0  0  0  0
   -2.7373    8.4069  -26.8780 F   0  0  0  0  0  0  0  0  0  0  0  0
   -1.4198   18.3717  -22.8259 C   0  0  0  0  0  0  0  0  0  0  0  0
    0.0293   19.1931  -27.5983 C   0  0  0  0  0  0  0  0  0  0  0  0
    2.2610   16.5282  -30.1211 S   0  0  0  0  0  0  0  0  0  0  0  0
   -2.5288   10.0100  -29.2206 C   0  0  0  0  0  0  0  0  0  0  0  0
   -4.3960    9.7660  -26.8003 F   0  0  0  0  0  0  0  0  0  0  0  0
   -2.6746   10.0034  -25.5283 F   0  0  0  0  0  0  0  0  0  0  0  0
   -1.5096   17.4788  -26.6268 C   0  0  0  0  0  0  0  0  0  0  0  0
   -1.3712   14.1165  -29.0515 N   0  0  0  0  0  0  0  0  0  0  0  0
   -3.5435   19.6435  -24.7553 O   0  0  0  0  0  1  0  0  0  0  0  0
   -2.6753   10.5234  -27.8278 C   0  0  0  0  0  0  0  0  0  0  0  0
   -1.8314   18.4662  -20.9916 C   0  0  0  0  0  0  0  0  0  0  0  0
    0.9511   17.5853  -29.2010 C   0  0  0  0  0  0  0  0  0  0  0  0
  9  6  1  0
 10  5  2  0
 11  3  2  0
 12  1  2  0
 12 10  1  0
 13 11  1  0
 14 13  1  0
 15  7  1  1
 15  8  1  0
 16  4  1  0
 18  2  1  0
 18  8  2  3
 19 17  1  0
 20 13  1  0
 20 16  1  0
 21  2  2  0
 21  3  1  0
 22  9  2  0
 23  1  1  0
 24 17  1  0
 25 17  1  0
 26  2  1  0
 26 11  1  0
 27 10  1  0
 27 15  1  0
 28 13  1  0
 29  5  1  0
 29 17  1  0
 29 23  2  0
 30  4  1  0
 30 20  1  0
 31  6  2  0
 31  9  1  0
 31 18  1  0
M  RAD  2  14   2  28   2
M  END
>  <ID>  (1) 
conformer_0

$$$$
