
     RDKit          3D

 27 30  0  0  0  0  0  0  0  0999 V2000
    0.4052   18.6698  -28.0868 C   0  0  0  0  0  0  0  0  0  0  0  0
   -2.6230   10.1031  -28.5486 C   0  0  0  0  0  0  0  0  0  0  0  0
   -1.9538   11.5264  -30.3547 C   0  0  0  0  0  0  0  0  0  0  0  0
   -0.7644   19.2513  -26.2307 C   0  0  0  0  0  0  0  0  0  0  0  0
   -0.8313   17.6646  -21.4238 C   0  0  0  0  0  0  0  0  0  0  0  0
    2.3165   17.6830  -30.0156 C   0  0  0  0  0  0  0  0  0  0  0  0
    1.4401   18.9969  -29.8195 C   0  0  0  0  0  0  0  0  0  0  0  0
   -2.6871   14.4624  -27.5151 O   0  0  0  0  0  0  0  0  0  0  0  0
   -0.8866   15.8969  -28.6201 N   0  0  0  0  0  0  0  0  0  0  0  0
   -2.0389   12.3539  -28.9398 C   0  0  0  0  0  0  0  0  0  0  0  0
   -1.8060   14.6817  -28.2922 C   0  0  0  0  0  0  0  0  0  0  0  0
   -4.0285   17.7447  -24.3886 O   0  0  0  0  0  1  0  0  0  0  0  0
   -2.5857   18.5718  -24.1809 S   0  0  0  0  0  4  0  0  0  0  0  0
   -2.3357   11.3147  -27.9243 C   0  0  0  0  0  0  0  0  0  0  0  0
   -1.4976   18.0957  -22.2930 C   0  0  0  0  0  0  0  0  0  0  0  0
   -3.1642    8.3313  -27.2797 F   0  0  0  0  0  0  0  0  0  0  0  0
   -1.7076   18.2844  -25.6983 C   0  0  0  0  0  0  0  0  0  0  0  0
   -0.0952   17.1054  -28.2998 C   0  0  0  0  0  0  0  0  0  0  0  0
   -2.9281    9.4012  -27.2790 C   0  0  0  0  0  0  0  0  0  0  0  0
   -2.9772   19.9113  -24.1520 O   0  0  0  0  0  1  0  0  0  0  0  0
    1.1443   17.5216  -28.9951 C   0  0  0  0  0  0  0  0  0  0  0  0
   -1.7609   13.7491  -29.2916 N   0  0  0  0  0  0  0  0  0  0  0  0
    3.3211   17.4072  -30.7529 F   0  0  0  0  0  0  0  0  0  0  0  0
   -1.0866   17.7904  -26.7928 C   0  0  0  0  0  0  0  0  0  0  0  0
   -1.7822   18.2421  -20.6486 C   0  0  0  0  0  0  0  0  0  0  0  0
   -2.2912   10.1708  -30.0400 C   0  0  0  0  0  0  0  0  0  0  0  0
   -2.9240    9.6890  -26.0911 F   0  0  0  0  0  0  0  0  0  0  0  0
  7  6  2  0
 10  3  2  0
 11  8  2  0
 11  9  1  0
 13 12  1  0
 14  2  2  0
 14 10  1  0
 15  5  1  0
 15 13  1  0
 17  4  2  0
 17 13  1  0
 18  1  1  0
 18  9  1  0
 19  2  1  0
 19 16  1  0
 20 13  1  0
 21  1  1  0
 21  6  1  0
 21  7  1  0
 21 18  1  0
 22 10  1  0
 22 11  1  0
 23  6  1  0
 24  4  1  0
 24 17  1  0
 24 18  1  0
 25  5  1  0
 26  2  1  0
 26  3  1  0
 27 19  1  0
M  RAD  2  12   2  20   2
M  END
>  <ID>  (1) 
conformer_0

$$$$
