
     RDKit          3D

 28 32  0  0  0  0  0  0  0  0999 V2000
   -1.0987   17.8852  -26.9452 C   0  0  0  0  0  0  0  0  0  0  0  0
    0.3716   19.0314  -28.1472 C   0  0  0  0  0  0  0  0  0  0  0  0
   -2.4054   11.5582  -27.9809 C   0  0  0  0  0  0  0  0  0  0  0  0
   -2.8033   10.3022  -28.5412 C   0  0  0  0  0  0  0  0  0  0  0  0
   -1.7521   18.2824  -20.8721 C   0  0  0  0  0  0  0  0  0  0  0  0
   -2.4810   14.5484  -27.5237 O   0  0  0  0  0  0  0  0  0  0  0  0
   -0.9848   15.9845  -28.6753 N   0  0  0  0  0  0  0  0  0  0  0  0
    1.5174   19.0918  -29.6457 C   0  0  0  0  0  0  0  0  0  0  0  0
   -2.4402   18.5017  -24.3750 S   0  0  0  0  0  4  0  0  0  0  0  0
    1.7331   17.6045  -29.6475 C   0  0  0  0  0  0  0  0  0  0  0  0
   -1.6737   11.5294  -30.2636 C   0  0  0  0  0  0  0  0  0  0  0  0
   -1.9300   14.6888  -28.5650 C   0  0  0  0  0  0  0  0  0  0  0  0
   -1.8063   12.4332  -28.9989 C   0  0  0  0  0  0  0  0  0  0  0  0
   -1.8706   18.2292  -25.9483 C   0  0  1  0  0  0  0  0  0  0  0  0
   -4.0764   17.8680  -24.8146 O   0  0  0  0  0  1  0  0  0  0  0  0
   -3.4029    9.7614  -27.0619 C   0  0  0  0  0  0  0  0  0  0  0  0
   -3.7212   10.3882  -25.8550 F   0  0  0  0  0  0  0  0  0  0  0  0
   -1.5006   18.0792  -22.2653 C   0  0  0  0  0  0  0  0  0  0  0  0
   -0.4878   17.0087  -28.2518 C   0  0  0  0  0  0  0  0  0  0  0  0
    2.5336   16.8943  -29.9568 S   0  0  0  0  0  0  0  0  0  0  0  0
    0.6077   17.6968  -28.7183 C   0  0  1  0  0  0  0  0  0  0  0  0
   -1.3123   13.8349  -29.1701 N   0  0  0  0  0  0  0  0  0  0  0  0
   -2.2848   10.2304  -29.9879 C   0  0  0  0  0  0  0  0  0  0  0  0
   -2.8180   19.6761  -24.2435 O   0  0  0  0  0  1  0  0  0  0  0  0
   -0.8936   19.1654  -26.5564 C   0  0  0  0  0  0  0  0  0  0  0  0
   -2.4154   17.6390  -23.4469 N   0  0  0  0  0  0  0  0  0  0  0  0
   -0.8403   17.1451  -21.4426 C   0  0  0  0  0  0  0  0  0  0  0  0
   -2.8966    8.8892  -26.6027 F   0  0  0  0  0  0  0  0  0  0  0  0
  4  3  2  0
  8  2  2  0
 10  8  1  0
 12  6  2  0
 12  7  1  0
 13  3  1  0
 13 11  1  0
 14  1  1  0
 14  9  1  1
 15  9  1  0
 16  4  1  0
 17 16  1  0
 18  5  1  0
 19  1  1  0
 19  7  2  3
 20 10  2  0
 21  2  1  0
 21  8  1  0
 21 10  1  0
 21 19  1  6
 22 12  1  0
 22 13  1  0
 23  4  1  0
 23 11  2  0
 24  9  1  0
 25  1  2  0
 25 14  1  0
 26  9  1  0
 26 18  1  0
 27  5  1  0
 27 18  1  0
 28 16  1  0
M  RAD  2  15   2  24   2
M  END
>  <ID>  (1) 
conformer_0

$$$$
