
     RDKit          3D

 28 30  0  0  0  0  0  0  0  0999 V2000
    1.1872   18.9247  -29.5830 C   0  0  0  0  0  0  0  0  0  0  0  0
   -0.3123   18.3328  -27.7635 C   0  0  0  0  0  0  0  0  0  0  0  0
   -2.0176   11.8080  -30.0879 C   0  0  0  0  0  0  0  0  0  0  0  0
   -2.3480   10.4433  -30.1197 C   0  0  0  0  0  0  0  0  0  0  0  0
    2.2950   18.2645  -30.3908 C   0  0  0  0  0  0  0  0  0  0  0  0
   -2.2078   14.7523  -28.9108 C   0  0  0  0  0  0  0  0  0  0  0  0
    2.9095   17.0043  -30.2457 S   0  0  0  0  0  0  0  0  0  0  0  0
   -0.9195   16.0932  -28.7496 N   0  0  0  0  0  0  0  0  0  0  0  0
   -1.7095   18.6016  -25.7723 C   0  0  0  0  0  0  0  0  0  0  0  0
   -2.3546   14.5434  -27.4667 O   0  0  0  0  0  0  0  0  0  0  0  0
   -0.8220   19.7362  -25.8499 C   0  0  0  0  0  0  0  0  0  0  0  0
   -1.6883   18.1910  -22.4549 C   0  0  0  0  0  0  0  0  0  0  0  0
   -1.9684   12.3098  -28.7170 C   0  0  0  0  0  0  0  0  0  0  0  0
   -3.7087   18.8793  -24.6752 O   0  0  0  0  0  1  0  0  0  0  0  0
   -0.4785   17.2345  -28.2333 C   0  0  0  0  0  0  0  0  0  0  0  0
   -2.5401   18.7065  -24.4746 S   0  0  0  0  0  3  0  0  0  0  0  0
   -2.6947   10.0710  -28.6306 C   0  0  0  0  0  0  0  0  0  0  0  0
   -3.5674    8.4354  -27.6065 F   0  0  0  0  0  0  0  0  0  0  0  0
   -1.6330   17.4660  -26.5406 C   0  0  0  0  0  0  0  0  0  0  0  0
   -2.9035    9.2934  -27.3985 C   0  0  0  0  0  0  0  0  0  0  0  0
   -1.6273   17.9967  -21.1822 C   0  0  0  0  0  0  0  0  0  0  0  0
   -1.3382   13.8269  -29.0264 N   0  0  0  0  0  0  0  0  0  0  0  0
   -2.3456   11.2832  -27.7573 C   0  0  0  0  0  0  0  0  0  0  0  0
   -0.1650   19.3973  -27.1619 C   0  0  0  0  0  0  0  0  0  0  0  0
   -0.8362   18.2254  -22.5785 F   0  0  0  0  0  0  0  0  0  0  0  0
    0.8358   17.4635  -28.9514 C   0  0  0  0  0  0  0  0  0  0  0  0
   -2.5457    9.1865  -26.2409 F   0  0  0  0  0  0  0  0  0  0  0  0
    1.6457   16.8203  -29.4341 C   0  0  0  0  0  0  0  0  0  0  0  0
  4  3  2  0
  5  1  1  0
  7  5  1  0
  8  6  1  0
 10  6  1  0
 11  9  1  0
 12 11  1  0
 13  3  1  0
 15  2  2  0
 15  8  1  0
 16  9  1  0
 16 14  1  0
 17  4  1  0
 19  9  1  0
 20 17  1  0
 20 18  1  0
 21 12  1  0
 22  6  1  0
 22 13  1  0
 23 13  1  0
 23 17  2  0
 24  2  2  0
 24 11  1  0
 25 12  1  0
 26  1  1  0
 26 15  1  0
 27 20  1  0
 28  5  1  0
 28  7  1  0
 28 26  2  0
M  RAD  2  14   2  16   2
M  END
>  <ID>  (1) 
conformer_0

$$$$
