
     RDKit          3D

 30 34  0  0  0  0  0  0  0  0999 V2000
   -2.5913   10.0152  -28.2874 C   0  0  0  0  0  0  0  0  0  0  0  0
   -0.3835   18.0582  -27.5956 C   0  0  0  0  0  0  0  0  0  0  0  0
   -0.4654   18.1007  -22.1020 C   0  0  0  0  0  0  0  0  0  0  0  0
    1.1414   17.7937  -29.0533 C   0  0  0  0  0  0  0  0  0  0  0  0
   -2.5674   11.3384  -27.9213 C   0  0  0  0  0  0  0  0  0  0  0  0
    2.1033   17.5809  -29.8751 C   0  0  0  0  0  0  0  0  0  0  0  0
    1.5618   19.1733  -29.7813 C   0  0  0  0  0  0  0  0  0  0  0  0
   -0.7435   15.9761  -28.7667 N   0  0  0  0  0  0  0  0  0  0  0  0
   -2.6177   18.6448  -24.4646 S   0  0  0  0  0  4  0  0  0  0  0  0
   -1.8646   12.2624  -28.8349 C   0  0  0  0  0  0  0  0  0  0  0  0
   -1.8493   11.2697  -30.1044 C   0  0  0  0  0  0  0  0  0  0  0  0
    2.3955   16.5388  -30.1455 S   0  0  0  0  0  0  0  0  0  0  0  0
   -1.8752   18.3265  -25.8777 C   0  0  0  0  0  0  0  0  0  0  0  0
   -3.0404    8.2106  -27.0174 F   0  0  0  0  0  0  0  0  0  0  0  0
   -4.1096   17.9908  -24.6462 O   0  0  0  0  0  1  0  0  0  0  0  0
   -2.2022   14.6143  -27.5089 O   0  0  0  0  0  0  0  0  0  0  0  0
   -1.7382   17.2955  -26.5223 C   0  0  0  0  0  0  0  0  0  0  0  0
   -1.8671   18.2856  -20.7729 C   0  0  0  0  0  0  0  0  0  0  0  0
   -3.3300    9.5523  -27.0314 C   0  0  0  0  0  0  0  0  0  0  0  0
   -1.4410   14.6703  -28.4519 C   0  0  0  0  0  0  0  0  0  0  0  0
   -1.5514   18.0964  -22.7284 C   0  0  0  0  0  0  0  0  0  0  0  0
   -1.3499   13.6096  -29.1319 N   0  0  0  0  0  0  0  0  0  0  0  0
    0.0196   17.0047  -28.3931 C   0  0  0  0  0  0  0  0  0  0  0  0
   -4.7214    9.6598  -27.1987 F   0  0  0  0  0  0  0  0  0  0  0  0
   -0.8514   19.2842  -26.3435 C   0  0  0  0  0  0  0  0  0  0  0  0
   -1.9870    9.8637  -29.6484 C   0  0  0  0  0  0  0  0  0  0  0  0
   -3.0550   19.7838  -24.4442 O   0  0  0  0  0  1  0  0  0  0  0  0
   -3.1963    9.8949  -25.8209 F   0  0  0  0  0  0  0  0  0  0  0  0
   -1.2045   16.9429  -20.8944 C   0  0  0  0  0  0  0  0  0  0  0  0
    0.3524   19.0917  -28.1223 C   0  0  0  0  0  0  0  0  0  0  0  0
  5  1  2  0
  6  4  1  0
  7  4  1  0
  7  6  1  0
 10  5  1  0
 11 10  2  0
 12  6  2  0
 13  9  1  0
 15  9  1  0
 17  2  1  0
 17 13  2  0
 18  3  1  0
 19  1  1  0
 19 14  1  0
 20  8  1  0
 20 16  2  0
 21  3  1  0
 21  9  1  0
 22 10  1  0
 22 20  1  0
 23  2  1  0
 23  4  1  0
 23  8  1  0
 24 19  1  0
 25  2  1  0
 25 13  1  0
 26  1  1  0
 26 11  1  0
 27  9  1  0
 28 19  1  0
 29  3  1  0
 29 18  1  0
 30  2  1  0
 30  4  1  0
M  RAD  2  15   2  27   2
M  END
>  <ID>  (1) 
conformer_0

$$$$
