
     RDKit          3D

 30 35  0  0  0  0  0  0  0  0999 V2000
   -2.2623   11.4119  -27.7512 C   0  0  0  0  0  0  0  0  0  0  0  0
   -0.8253   19.2927  -26.5614 C   0  0  0  0  0  0  0  0  0  0  0  0
   -1.5990   17.3143  -20.7281 C   0  0  0  0  0  0  0  0  0  0  0  0
   -0.1347   18.9624  -27.7953 C   0  0  0  0  0  0  0  0  0  0  0  0
   -2.2363   11.6009  -30.2605 C   0  0  0  0  0  0  0  0  0  0  0  0
    2.6620   16.9214  -30.3292 S   0  0  0  0  0  0  0  0  0  0  0  0
    2.4356   18.1631  -30.4866 C   0  0  0  0  0  0  0  0  0  0  0  0
    0.3441   17.9704  -28.7274 C   0  0  0  0  0  0  0  0  0  0  0  0
   -0.6255   17.4547  -21.6139 C   0  0  0  0  0  0  0  0  0  0  0  0
   -0.8497   15.9047  -28.8612 N   0  0  0  0  0  0  0  0  0  0  0  0
   -2.0040   12.3076  -28.8613 C   0  0  0  0  0  0  0  0  0  0  0  0
   -2.4169   18.6633  -24.4681 S   0  0  0  0  0  4  0  0  0  0  0  0
   -1.7660   18.4262  -25.8065 C   0  0  0  0  0  0  0  0  0  0  0  0
   -2.4803   14.5547  -27.7406 O   0  0  0  0  0  0  0  0  0  0  0  0
   -3.0630    8.1887  -27.2683 F   0  0  0  0  0  0  0  0  0  0  0  0
   -1.7861   14.7141  -28.4766 C   0  0  0  0  0  0  0  0  0  0  0  0
   -4.0068   18.3060  -24.7938 O   0  0  0  0  0  1  0  0  0  0  0  0
   -2.5803   10.2098  -29.9778 C   0  0  0  0  0  0  0  0  0  0  0  0
    1.1297   17.0583  -29.4331 C   0  0  0  0  0  0  0  0  0  0  0  0
   -3.0154    9.5576  -26.8865 C   0  0  0  0  0  0  0  0  0  0  0  0
   -1.5377   13.5456  -29.1732 N   0  0  0  0  0  0  0  0  0  0  0  0
   -1.3996   17.5139  -26.9834 C   0  0  0  0  0  0  0  0  0  0  0  0
   -1.4506   18.4510  -22.5218 C   0  0  0  0  0  0  0  0  0  0  0  0
   -2.2216    9.2423  -25.9809 F   0  0  0  0  0  0  0  0  0  0  0  0
   -2.8182   19.9227  -24.2986 O   0  0  0  0  0  1  0  0  0  0  0  0
   -2.6878   10.1403  -28.4029 C   0  0  0  0  0  0  0  0  0  0  0  0
   -1.4653   18.9335  -20.9098 C   0  0  0  0  0  0  0  0  0  0  0  0
    1.3522   18.8768  -29.6663 C   0  0  0  0  0  0  0  0  0  0  0  0
   -3.7514   10.2011  -25.8644 F   0  0  0  0  0  0  0  0  0  0  0  0
   -0.7654   17.0319  -28.0709 C   0  0  0  0  0  3  0  0  0  0  0  0
  4  2  2  0
  7  6  1  0
  8  4  1  0
  9  3  1  0
 11  1  2  0
 11  5  1  0
 13  2  1  0
 13 12  1  0
 16 10  1  0
 16 14  2  0
 17 12  1  0
 18  5  2  0
 19  6  1  0
 19  8  1  0
 20 15  1  0
 21 11  1  0
 21 16  1  0
 22  2  1  0
 22 13  1  0
 23  9  1  0
 23 12  1  0
 24 20  1  0
 25 12  1  0
 26  1  1  0
 26 18  1  0
 26 20  1  0
 27  3  1  0
 27 23  1  0
 28  7  2  0
 28  8  1  0
 28 19  1  0
 29 20  1  0
 30  8  1  0
 30 10  1  0
 30 22  1  0
M  RAD  3  17   2  25   2  30   2
M  END
>  <ID>  (1) 
conformer_0

$$$$
