
     RDKit          3D

 28 31  0  0  0  0  0  0  0  0999 V2000
   -2.5988   10.1463  -28.5566 C   0  0  0  0  0  0  0  0  0  0  0  0
   -0.5819   19.6752  -26.1154 C   0  0  0  0  0  0  0  0  0  0  0  0
   -0.7494   17.3685  -21.4241 C   0  0  0  0  0  0  0  0  0  0  0  0
   -0.0432   19.2366  -27.7605 C   0  0  0  0  0  0  0  0  0  0  0  0
   -2.3166   10.2321  -30.0118 C   0  0  0  0  0  0  0  0  0  0  0  0
    1.8869   17.6261  -29.9700 C   0  0  0  0  0  0  0  0  0  0  0  0
   -1.7981   12.3872  -28.8809 C   0  0  0  0  0  0  0  0  0  0  0  0
   -1.5419   18.3800  -25.7879 C   0  0  0  0  0  0  0  0  0  0  0  0
    1.1781   18.9831  -29.5869 C   0  0  0  0  0  0  0  0  0  0  0  0
   -2.3012   14.4984  -27.4529 O   0  0  0  0  0  0  0  0  0  0  0  0
   -1.6304   14.8191  -28.2284 C   0  0  0  0  0  0  0  0  0  0  0  0
   -1.3666   13.4525  -29.1802 N   0  0  0  0  0  0  0  0  0  0  0  0
   -2.3820   18.4395  -24.1046 S   0  0  0  0  0  4  0  0  0  0  0  0
   -4.0360   18.0265  -24.6193 O   0  0  0  0  0  1  0  0  0  0  0  0
   -1.8344   11.5531  -30.3684 C   0  0  0  0  0  0  0  0  0  0  0  0
   -0.0849   17.3390  -28.2879 C   0  0  0  0  0  0  0  0  0  0  0  0
   -2.9283    9.6529  -27.0899 C   0  0  0  0  0  0  0  0  0  0  0  0
   -3.4733   10.3964  -25.9186 F   0  0  0  0  0  0  0  0  0  0  0  0
    2.5064   16.8303  -30.4702 S   0  0  0  0  0  0  0  0  0  0  0  0
   -1.5150   17.8168  -22.2248 C   0  0  0  0  0  0  0  0  0  0  0  0
   -1.0358   18.0633  -26.7735 C   0  0  0  0  0  0  0  0  0  0  0  0
   -1.8508   18.0918  -20.5814 C   0  0  0  0  0  0  0  0  0  0  0  0
   -2.7976   19.6116  -23.9352 O   0  0  0  0  0  1  0  0  0  0  0  0
    0.7822   17.6100  -28.7684 C   0  0  0  0  0  0  0  0  0  0  0  0
   -2.2110   17.4905  -23.3907 N   0  0  0  0  0  0  0  0  0  0  0  0
   -0.9170   15.7559  -28.7241 N   0  0  0  0  0  0  0  0  0  0  0  0
   -2.8424    8.7937  -26.8083 F   0  0  0  0  0  0  0  0  0  0  0  0
   -2.2689   11.3225  -27.8961 C   0  0  0  0  0  0  0  0  0  0  0  0
  4  2  2  0
  5  1  2  0
  8  2  1  0
  9  6  1  0
 11 10  2  0
 12  7  1  0
 12 11  1  0
 13  8  1  0
 14 13  1  0
 15  5  1  0
 15  7  2  0
 16  4  1  0
 17  1  1  0
 18 17  1  0
 19  6  2  0
 20  3  1  0
 21  4  1  0
 21  8  2  0
 21 16  1  0
 22  3  1  0
 23 13  1  0
 24  6  1  0
 24  9  1  0
 24 16  1  0
 25 13  1  0
 25 20  1  0
 26 11  1  0
 26 16  1  0
 27 17  1  0
 28  1  1  0
 28  7  1  0
M  RAD  2  14   2  23   2
M  END
>  <ID>  (1) 
conformer_0

$$$$
