
     RDKit          3D

 29 34  0  0  0  0  0  0  0  0999 V2000
   -2.5980   11.3708  -27.8992 C   0  0  0  0  0  0  0  0  0  0  0  0
   -0.1437   18.5992  -27.3860 C   0  0  0  0  0  0  0  0  0  0  0  0
   -0.4447   19.4465  -26.1263 C   0  0  0  0  0  0  0  0  0  0  0  0
   -1.2586   17.3979  -21.3313 C   0  0  0  0  0  0  0  0  0  0  0  0
   -2.7205   10.1636  -28.6782 C   0  0  0  0  0  0  0  0  0  0  0  0
    0.7568   19.0055  -29.0089 C   0  0  0  0  0  0  0  0  0  0  0  0
    2.0016   17.6916  -30.0492 C   0  0  0  0  0  0  0  0  0  0  0  0
   -1.6429   18.4347  -25.5952 C   0  0  0  0  0  0  0  0  0  0  0  0
   -2.5205    8.2705  -27.3332 F   0  0  0  0  0  0  0  0  0  0  0  0
   -0.9023   16.0100  -28.7015 N   0  0  0  0  0  0  0  0  0  0  0  0
   -1.8226   14.8234  -28.4168 C   0  0  0  0  0  0  0  0  0  0  0  0
   -1.5777   18.2100  -22.3515 C   0  0  0  0  0  0  0  0  0  0  0  0
   -1.9155   12.4361  -28.6991 C   0  0  0  0  0  0  0  0  0  0  0  0
   -2.5640   14.7637  -27.6387 O   0  0  0  0  0  0  0  0  0  0  0  0
   -2.3661   18.6856  -24.2437 S   0  0  0  0  0  4  0  0  0  0  0  0
   -3.7410   17.8114  -24.4322 O   0  0  0  0  0  1  0  0  0  0  0  0
   -1.5607   11.7046  -30.0334 C   0  0  0  0  0  0  0  0  0  0  0  0
    2.6279   16.8778  -30.0647 S   0  0  0  0  0  0  0  0  0  0  0  0
    1.4502   18.9581  -30.3378 C   0  0  0  0  0  0  0  0  0  0  0  0
   -3.2572    9.5652  -27.3974 C   0  0  0  0  0  0  0  0  0  0  0  0
   -1.4484   13.6801  -28.7171 N   0  0  0  0  0  0  0  0  0  0  0  0
   -0.4930   16.9894  -28.1184 C   0  0  0  0  0  0  0  0  0  0  0  0
   -4.4123    9.2588  -27.3803 F   0  0  0  0  0  0  0  0  0  0  0  0
   -1.3999   17.6579  -26.6833 C   0  0  0  0  0  0  0  0  0  0  0  0
   -1.6363   18.6751  -20.8986 C   0  0  0  0  0  0  0  0  0  0  0  0
   -2.1837   10.4003  -30.1019 C   0  0  0  0  0  0  0  0  0  0  0  0
   -2.9948   19.7602  -24.3129 O   0  0  0  0  0  1  0  0  0  0  0  0
   -2.9535    9.7188  -26.0710 F   0  0  0  0  0  0  0  0  0  0  0  0
    0.7183   17.5322  -28.6540 C   0  0  0  0  0  0  0  0  0  0  0  0
  3  2  1  0
  5  1  2  0
  8  3  2  0
 11 10  1  0
 12  4  1  0
 13  1  1  0
 14 11  2  0
 15  8  1  0
 15 12  1  0
 16 15  1  0
 17 13  1  0
 18  7  2  0
 19  6  1  0
 19  7  1  0
 20  5  1  0
 20  9  1  0
 21 11  1  0
 21 13  1  0
 22  2  1  0
 22 10  1  0
 23 20  1  0
 24  2  1  0
 24  8  1  0
 24 22  1  0
 25  4  1  0
 25 12  1  0
 26  5  1  0
 26 17  2  0
 27 15  1  0
 28 20  1  0
 29  2  1  0
 29  6  1  0
 29  7  1  0
 29 22  1  0
M  RAD  2  16   2  27   2
M  END
>  <ID>  (1) 
conformer_0

$$$$
