
     RDKit          3D

 27 28  0  0  0  0  0  0  0  0999 V2000
    0.5407   18.1597  -28.5637 C   0  0  1  0  0  0  0  0  0  0  0  0
   -2.0720   11.7712  -30.2981 C   0  0  0  0  0  0  0  0  0  0  0  0
    1.2861   18.6125  -29.7707 C   0  0  0  0  0  0  0  0  0  0  0  0
   -2.8249   10.5990  -27.8353 C   0  0  0  0  0  0  0  0  0  0  0  0
   -0.5437   19.6017  -25.8522 C   0  0  0  0  0  0  0  0  0  0  0  0
   -1.3027   17.7074  -21.2379 C   0  0  0  0  0  0  0  0  0  0  0  0
   -1.7356   18.1452  -22.5958 C   0  0  0  0  0  0  0  0  0  0  0  0
   -2.4882   10.4033  -30.2424 C   0  0  0  0  0  0  0  0  0  0  0  0
    2.2085   17.7342  -30.1056 C   0  0  0  0  0  3  0  0  0  0  0  0
    2.6799   16.8220  -30.1273 S   0  0  0  0  0  3  0  0  0  0  0  0
   -0.8751   16.0793  -28.6402 N   0  0  0  0  0  0  0  0  0  0  0  0
   -2.6709   18.6904  -24.3267 S   0  0  0  0  0  4  0  0  0  0  0  0
   -1.8002   18.5886  -25.7548 C   0  0  0  0  0  0  0  0  0  0  0  0
   -3.1535   10.3151  -25.4790 F   0  0  0  0  0  0  0  0  0  0  0  0
   -4.2111   18.2476  -24.8262 O   0  0  0  0  0  1  0  0  0  0  0  0
   -1.9105   14.6697  -28.5509 C   0  0  0  0  0  0  0  0  0  0  0  0
   -2.0512   12.3962  -29.0619 C   0  0  0  0  0  0  0  0  0  0  0  0
   -0.1618   18.9079  -27.0345 C   0  0  0  0  0  0  0  0  0  0  0  0
    0.1613   17.0574  -28.5232 C   0  0  0  0  0  0  0  0  0  0  0  0
   -3.0092    9.8188  -26.6125 C   0  0  0  0  0  0  0  0  0  0  0  0
   -2.3416   14.6518  -27.4388 O   0  0  0  0  0  0  0  0  0  0  0  0
   -2.2614   11.8823  -27.9182 C   0  0  0  0  0  0  0  0  0  0  0  0
   -1.5496   13.9238  -29.1317 N   0  0  0  0  0  0  0  0  0  0  0  0
   -1.4103   17.7571  -26.7874 C   0  0  0  0  0  0  0  0  0  0  0  0
   -2.7018    8.9226  -26.3116 F   0  0  0  0  0  0  0  0  0  0  0  0
   -3.2722   19.8942  -24.3041 O   0  0  0  0  0  1  0  0  0  0  0  0
   -3.0372    9.8698  -29.0461 C   0  0  0  0  0  0  0  0  0  0  0  0
  1  3  1  6
  7  6  1  0
  8  2  2  0
  9  3  1  0
 10  9  2  3
 12  7  1  0
 13  5  2  0
 13 12  1  0
 15 12  1  0
 16 11  1  0
 17  2  1  0
 18  1  1  0
 18  5  1  0
 19  1  1  0
 19 11  1  0
 20  4  1  0
 20 14  1  0
 21 16  2  0
 22  4  1  0
 22 17  2  0
 23 16  1  0
 23 17  1  0
 24 13  1  0
 24 18  2  0
 25 20  1  0
 26 12  1  0
 27  4  2  0
 27  8  1  0
M  RAD  4   9   2  10   2  15   2  26   2
M  END
>  <ID>  (1) 
conformer_0

$$$$
