
     RDKit          3D

 30 34  0  0  0  0  0  0  0  0999 V2000
   -2.2590   11.9314  -27.9629 C   0  0  0  0  0  0  0  0  0  0  0  0
   -0.6819   19.2557  -26.2563 C   0  0  0  0  0  0  0  0  0  0  0  0
   -0.9550   17.8412  -21.4677 C   0  0  0  0  0  0  0  0  0  0  0  0
    0.5914   17.9380  -28.4878 C   0  0  0  0  0  0  0  0  0  0  0  0
   -2.7595   10.6443  -27.8414 C   0  0  0  0  0  0  0  0  0  0  0  0
    2.8253   16.7231  -30.3153 S   0  0  0  0  0  0  0  0  0  0  0  0
    1.3948   18.5972  -29.7741 C   0  0  0  0  0  0  0  0  0  0  0  0
    2.5752   18.2065  -30.5672 C   0  0  0  0  0  0  0  0  0  0  0  0
   -1.7608   18.3857  -25.4940 C   0  0  0  0  0  0  0  0  0  0  0  0
   -2.2471    9.9053  -25.6206 F   0  0  0  0  0  0  0  0  0  0  0  0
   -0.7889   15.9906  -28.6185 N   0  0  0  0  0  0  0  0  0  0  0  0
   -1.9931   12.7191  -29.0222 C   0  0  0  0  0  0  0  0  0  0  0  0
   -2.3762    9.9313  -28.9973 C   0  0  0  0  0  0  0  0  0  0  0  0
   -2.5074   18.6494  -24.3718 S   0  0  0  0  0  4  0  0  0  0  0  0
   -2.6490   14.5727  -27.7438 O   0  0  0  0  0  0  0  0  0  0  0  0
   -2.9222    9.7116  -26.7316 C   0  0  0  0  0  0  0  0  0  0  0  0
   -4.0529   17.9888  -24.5815 O   0  0  0  0  0  1  0  0  0  0  0  0
   -1.9274   14.8049  -28.6121 C   0  0  0  0  0  0  0  0  0  0  0  0
   -1.5857   18.4275  -20.9162 C   0  0  0  0  0  0  0  0  0  0  0  0
   -0.2332   18.5750  -27.2938 C   0  0  0  0  0  0  0  0  0  0  0  0
    1.4252   17.0922  -29.1371 C   0  0  0  0  0  0  0  0  0  0  0  0
   -1.9300   11.9240  -30.2350 C   0  0  0  0  0  0  0  0  0  0  0  0
   -1.5951   18.5220  -22.6064 C   0  0  0  0  0  0  0  0  0  0  0  0
   -2.7676    8.4954  -26.8985 F   0  0  0  0  0  0  0  0  0  0  0  0
   -1.6937   14.0808  -29.3036 N   0  0  0  0  0  0  0  0  0  0  0  0
   -3.0714   19.7631  -24.3344 O   0  0  0  0  0  1  0  0  0  0  0  0
   -1.5491   17.1494  -26.6384 C   0  0  0  0  0  3  0  0  0  0  0  0
   -3.9555   10.0379  -26.1929 F   0  0  0  0  0  0  0  0  0  0  0  0
   -0.9078   17.0299  -27.6935 C   0  0  0  0  0  0  0  0  0  0  0  0
   -2.0351   10.4961  -30.2211 C   0  0  0  0  0  0  0  0  0  0  0  0
  5  1  2  0
  7  4  1  0
  8  6  1  0
  8  7  1  0
  9  2  2  0
 12  1  1  0
 13  5  1  0
 14  9  1  0
 16  5  1  0
 16 10  1  0
 17 14  1  0
 18 11  1  0
 18 15  2  0
 19  3  1  0
 20  2  1  0
 20  4  1  0
 21  4  1  0
 21  6  1  0
 21  7  2  0
 22 12  2  0
 23  3  1  0
 23 14  1  0
 24 16  1  0
 25 12  1  0
 25 18  1  0
 26 14  1  0
 27  9  1  0
 28 16  1  0
 29  4  1  0
 29 11  1  0
 29 20  1  0
 29 27  1  0
 30 13  2  0
 30 22  1  0
M  RAD  3  17   2  26   2  27   2
M  END
>  <ID>  (1) 
conformer_0

$$$$
