
     RDKit          3D

 26 30  0  0  0  0  0  0  0  0999 V2000
   -2.3175   11.6563  -27.8997 C   0  0  0  0  0  0  0  0  0  0  0  0
   -0.3821   19.5347  -26.3305 C   0  0  0  0  0  0  0  0  0  0  0  0
   -1.2852   18.2186  -21.0370 C   0  0  0  0  0  0  0  0  0  0  0  0
    0.1056   18.5199  -27.7939 C   0  0  0  0  0  0  0  0  0  0  0  0
   -2.6924   10.2704  -28.2494 C   0  0  0  0  0  0  0  0  0  0  0  0
    2.4353   18.4298  -30.7588 C   0  0  0  0  0  0  0  0  0  0  0  0
    1.0926   18.3139  -29.4209 C   0  0  0  0  0  0  0  0  0  0  0  0
   -0.6514   16.0686  -28.7863 N   0  0  0  0  0  0  0  0  0  0  0  0
   -1.5705   18.5415  -25.6698 C   0  0  0  0  0  0  0  0  0  0  0  0
   -2.3855   14.5595  -27.6606 O   0  0  0  0  0  0  0  0  0  0  0  0
   -2.4170   18.8031  -24.1280 S   0  0  0  0  0  4  0  0  0  0  0  0
   -1.8815   14.7178  -28.6232 C   0  0  0  0  0  0  0  0  0  0  0  0
   -2.0424   12.4708  -29.0501 C   0  0  0  0  0  0  0  0  0  0  0  0
   -3.5030   10.1560  -25.7947 F   0  0  0  0  0  0  0  0  0  0  0  0
   -2.4108   10.0909  -29.7176 C   0  0  0  0  0  0  0  0  0  0  0  0
    2.5193   16.8605  -30.6403 S   0  0  0  0  0  0  0  0  0  0  0  0
   -3.9291   18.6254  -24.6319 O   0  0  0  0  0  1  0  0  0  0  0  0
   -3.0119    9.6954  -26.8613 C   0  0  0  0  0  0  0  0  0  0  0  0
   -1.6632   13.8452  -29.4973 N   0  0  0  0  0  0  0  0  0  0  0  0
    1.7746   17.0857  -29.7920 C   0  0  0  0  0  0  0  0  0  0  0  0
   -1.0827   17.9934  -26.8101 C   0  0  0  0  0  0  0  0  0  0  0  0
   -1.4078   18.3365  -22.2577 C   0  0  0  0  0  0  0  0  0  0  0  0
   -2.6932    8.6968  -26.5196 F   0  0  0  0  0  0  0  0  0  0  0  0
   -2.1295   11.4685  -30.3007 C   0  0  0  0  0  0  0  0  0  0  0  0
   -0.2825   17.1593  -28.2826 C   0  0  0  0  0  0  0  0  0  0  0  0
   -2.6165   20.0325  -24.0132 O   0  0  0  0  0  1  0  0  0  0  0  0
  4  2  1  0
  5  1  2  0
  7  4  1  0
  7  6  1  0
  9  2  2  0
 11  9  1  0
 12  8  1  0
 12 10  2  0
 13  1  1  0
 15  5  1  0
 16  6  1  0
 17 11  1  0
 18  5  1  0
 18 14  1  0
 19 12  1  0
 19 13  1  0
 20  7  2  0
 20 16  1  0
 21  2  1  0
 21  4  1  0
 21  9  1  0
 22  3  3  0
 22 11  1  0
 23 18  1  0
 24 13  1  0
 24 15  2  0
 25  4  1  0
 25  8  1  0
 25 21  1  0
 26 11  1  0
M  RAD  2  17   2  26   2
M  END
>  <ID>  (1) 
conformer_0

$$$$
