
     RDKit          3D

 28 31  0  0  0  0  0  0  0  0999 V2000
    0.6938   18.0321  -28.6383 C   0  0  0  0  0  0  0  0  0  0  0  0
   -1.1067   17.7615  -21.4707 C   0  0  0  0  0  0  0  0  0  0  0  0
    1.3381   19.0298  -29.4789 C   0  0  0  0  0  0  0  0  0  0  0  0
   -2.1518   11.8632  -27.7314 C   0  0  0  0  0  0  0  0  0  0  0  0
   -1.8761   11.7162  -30.1528 C   0  0  0  0  0  0  0  0  0  0  0  0
    2.8206   17.0909  -30.2811 S   0  0  0  0  0  0  0  0  0  0  0  0
   -0.6725   19.5583  -26.1178 C   0  0  0  0  0  0  0  0  0  0  0  0
    2.4332   18.2324  -30.2297 C   0  0  0  0  0  0  0  0  0  0  0  0
   -1.8380   18.7158  -25.4942 C   0  0  0  0  0  0  0  0  0  0  0  0
   -0.8177   16.0215  -28.7954 N   0  0  0  0  0  0  0  0  0  0  0  0
   -1.8245   12.3404  -28.7981 C   0  0  0  0  0  0  0  0  0  0  0  0
   -2.2997   14.7645  -27.5759 O   0  0  0  0  0  0  0  0  0  0  0  0
   -1.6232   18.1877  -20.9971 C   0  0  0  0  0  0  0  0  0  0  0  0
   -3.9890   17.7667  -24.5847 O   0  0  0  0  0  1  0  0  0  0  0  0
   -2.5075   18.4776  -24.5371 S   0  0  0  0  0  4  0  0  0  0  0  0
   -3.0189    9.5454  -26.8029 C   0  0  0  0  0  0  0  0  0  0  0  0
   -2.3156   10.3602  -29.9427 C   0  0  0  0  0  0  0  0  0  0  0  0
    0.0419   18.8940  -27.5966 C   0  0  0  0  0  0  0  0  0  0  0  0
   -1.4253   14.8649  -28.5160 C   0  0  0  0  0  0  0  0  0  0  0  0
    1.0591   17.0248  -29.1010 C   0  0  0  0  0  0  0  0  0  0  0  0
   -1.4453   13.9283  -29.3222 N   0  0  0  0  0  0  0  0  0  0  0  0
   -2.4454   10.5529  -25.6481 O   0  0  0  0  0  0  0  0  0  0  0  0
   -1.9078   18.0977  -22.7747 C   0  0  0  0  0  0  0  0  0  0  0  0
   -3.1208   19.8802  -24.3020 O   0  0  0  0  0  1  0  0  0  0  0  0
   -3.5000    9.2050  -26.5953 F   0  0  0  0  0  0  0  0  0  0  0  0
   -1.0747   17.8593  -27.0163 C   0  0  0  0  0  0  0  0  0  0  0  0
   -2.6505   10.3062  -28.3869 C   0  0  0  0  0  0  0  0  0  0  0  0
   -1.3106   17.2799  -27.3565 C   0  0  0  0  0  0  0  0  0  0  0  0
  3  1  1  0
  8  3  2  0
  8  6  1  0
  9  7  1  0
 11  4  2  0
 11  5  1  0
 13  2  1  0
 15  9  1  0
 15 14  1  0
 17  5  2  0
 18  1  1  0
 18  7  1  0
 19 10  1  0
 19 12  2  0
 20  1  1  0
 20  6  1  0
 21 11  1  0
 21 19  1  0
 22 16  1  0
 23  2  1  0
 23 15  1  0
 24 15  1  0
 25 16  1  0
 26  7  1  0
 26  9  1  0
 26 18  1  0
 27  4  1  0
 27 16  1  0
 27 17  1  0
 28 10  1  0
 28 26  1  0
M  RAD  2  14   2  24   2
M  END
>  <ID>  (1) 
conformer_0

$$$$
