
     RDKit          3D

 28 28  0  0  0  0  0  0  0  0999 V2000
   -2.7952   10.2684  -30.0379 C   0  0  0  0  0  0  0  0  0  0  0  0
   -1.4540   17.7507  -20.8723 C   0  0  0  0  0  0  0  0  0  0  0  0
   -0.2990   19.3007  -26.8472 C   0  0  0  0  0  0  0  0  0  0  0  0
    0.4550   18.4037  -28.2883 C   0  0  2  0  0  0  0  0  0  0  0  0
   -2.3939   11.3195  -27.8326 C   0  0  0  0  0  0  0  0  0  0  0  0
   -1.7330   14.7602  -28.4960 C   0  0  0  0  0  0  0  0  0  0  0  0
   -0.7852   17.7113  -21.9291 C   0  0  0  0  0  0  0  0  0  0  0  0
   -0.8095   15.9346  -28.7964 N   0  0  0  0  0  0  0  0  0  0  0  0
    2.0360   17.9097  -30.2161 C   0  0  0  0  0  0  0  0  0  0  0  0
   -1.9294   12.2076  -28.8294 C   0  0  0  0  0  0  0  0  0  0  0  0
   -2.4397   18.5734  -24.7050 S   0  0  0  0  0  4  0  0  0  0  0  0
   -2.5192   14.7090  -27.7445 O   0  0  0  0  0  0  0  0  0  0  0  0
    1.1515   18.6887  -29.5714 C   0  0  0  0  0  0  0  0  0  0  0  0
    2.0814   16.5623  -29.6499 S   0  0  0  0  0  0  0  0  0  0  0  0
   -2.7462    8.4691  -26.9136 F   0  0  0  0  0  0  0  0  0  0  0  0
   -2.9722   10.1544  -28.5628 C   0  0  0  0  0  0  0  0  0  0  0  0
   -3.9994   18.1007  -24.8571 O   0  0  0  0  0  1  0  0  0  0  0  0
   -1.2063   13.3679  -28.8708 N   0  0  0  0  0  0  0  0  0  0  0  0
   -1.5255   18.2533  -26.1134 C   0  0  0  0  0  0  0  0  0  0  0  0
    0.0824   17.0342  -28.5416 C   0  0  0  0  0  0  0  0  0  0  0  0
   -3.2649    9.6512  -27.0504 C   0  0  0  0  0  0  0  0  0  0  0  0
   -1.4641   18.2868  -22.9930 C   0  0  0  0  0  0  0  0  0  0  0  0
   -2.7352   19.8329  -24.5203 O   0  0  0  0  0  1  0  0  0  0  0  0
   -1.0089   17.8701  -26.9616 C   0  0  0  0  0  0  0  0  0  0  0  0
   -3.0388   10.1029  -25.7239 F   0  0  0  0  0  0  0  0  0  0  0  0
   -2.1903   11.6029  -30.2934 C   0  0  0  0  0  0  0  0  0  0  0  0
   -4.4285    9.3244  -27.0401 F   0  0  0  0  0  0  0  0  0  0  0  0
    0.0690   18.7524  -21.7390 C   0  0  0  0  0  0  0  0  0  0  0  0
  4  3  1  0
  7  2  1  0
  8  6  1  0
 10  5  2  0
 12  6  2  0
 13  4  1  0
 13  9  2  3
 14  9  1  0
 16  1  2  0
 16  5  1  0
 17 11  1  0
 18  6  1  0
 18 10  1  0
 19 11  1  0
  4 20  1  6
 20  8  1  0
 21 15  1  0
 21 16  1  0
 22  7  1  0
 22 11  1  0
 23 11  1  0
 24  3  2  3
 24 19  1  0
 25 21  1  0
 26  1  1  0
 26 10  1  0
 27 21  1  0
 28  7  1  0
M  RAD  2  17   2  23   2
M  END
>  <ID>  (1) 
conformer_0

$$$$
