
     RDKit          3D

 27 30  0  0  0  0  0  0  0  0999 V2000
   -2.2238   11.6572  -30.3430 C   0  0  0  0  0  0  0  0  0  0  0  0
   -0.7226   17.3284  -21.5320 C   0  0  0  0  0  0  0  0  0  0  0  0
   -0.6092   19.6254  -26.1840 C   0  0  0  0  0  0  0  0  0  0  0  0
    0.4873   18.0494  -28.5052 C   0  0  2  0  0  0  0  0  0  0  0  0
   -2.3069   11.4354  -27.9881 C   0  0  0  0  0  0  0  0  0  0  0  0
    2.9741   16.9903  -30.3359 S   0  0  0  0  0  3  0  0  0  0  0  0
    1.4394   18.5236  -29.7084 C   0  0  0  0  0  0  0  0  0  0  0  0
   -1.6282   18.4023  -25.8129 C   0  0  0  0  0  0  0  0  0  0  0  0
    2.1639   17.6647  -30.0397 C   0  0  0  0  0  3  0  0  0  0  0  0
   -2.5494   18.6382  -24.3183 S   0  0  0  0  0  4  0  0  0  0  0  0
   -2.0392   12.5089  -28.9679 C   0  0  0  0  0  0  0  0  0  0  0  0
   -2.7018   10.1867  -29.9956 C   0  0  0  0  0  0  0  0  0  0  0  0
   -0.7296   15.9217  -28.5768 N   0  0  0  0  0  0  0  0  0  0  0  0
   -2.5792   14.5009  -27.4216 O   0  0  0  0  0  0  0  0  0  0  0  0
   -1.4905   18.2653  -22.4517 C   0  0  0  0  0  0  0  0  0  0  0  0
   -1.9089   14.7351  -28.3393 C   0  0  0  0  0  0  0  0  0  0  0  0
   -3.8072   17.7506  -24.6213 O   0  0  0  0  0  1  0  0  0  0  0  0
   -2.9403    8.4466  -27.2657 F   0  0  0  0  0  0  0  0  0  0  0  0
   -2.9258    9.3536  -27.3528 C   0  0  0  0  0  0  0  0  0  0  0  0
   -1.1870   17.8130  -26.7970 C   0  0  0  0  0  0  0  0  0  0  0  0
   -0.2462   16.8978  -28.2264 C   0  0  2  0  0  0  0  0  0  0  0  0
   -1.5328   17.9850  -20.7905 C   0  0  0  0  0  0  0  0  0  0  0  0
   -1.6158   13.7527  -29.0065 N   0  0  0  0  0  0  0  0  0  0  0  0
   -2.7834   10.1581  -28.5532 C   0  0  0  0  0  0  0  0  0  0  0  0
   -3.3201   19.6783  -24.4331 O   0  0  0  0  0  1  0  0  0  0  0  0
   -3.1883    9.9554  -26.1039 F   0  0  0  0  0  0  0  0  0  0  0  0
   -0.0064   19.1841  -27.3856 C   0  0  0  0  0  0  0  0  0  0  0  0
  4  7  1  6
  8  3  2  0
  9  6  2  3
  9  7  1  0
 10  8  1  0
 11  1  2  0
 11  5  1  0
 12  1  1  0
 15  2  1  0
 15 10  1  0
 16 13  1  0
 16 14  2  0
 17 10  1  0
 19 18  1  0
 20  8  1  0
 21  4  1  0
 21 13  1  6
 21 20  1  0
 22  2  1  0
 22 15  1  0
 23 11  1  0
 23 16  1  0
 24  5  2  0
 24 12  1  0
 24 19  1  0
 25 10  1  0
 26 19  1  0
 27  3  1  0
 27  4  1  0
 27 20  2  0
M  RAD  4   6   2   9   2  17   2  25   2
M  END
>  <ID>  (1) 
conformer_0

$$$$
