
     RDKit          3D

 27 28  0  0  0  0  0  0  0  0999 V2000
   -0.8226   17.4801  -21.5523 C   0  0  0  0  0  0  0  0  0  0  0  0
   -2.9510   10.1522  -28.4589 C   0  0  0  0  0  0  0  0  0  0  0  0
   -0.4007   17.9880  -27.5543 C   0  0  0  0  0  0  0  0  0  0  0  0
    0.7113   18.5496  -28.5776 C   0  0  2  0  0  0  0  0  0  0  0  0
   -1.9660   11.7081  -30.0607 C   0  0  0  0  0  0  0  0  0  0  0  0
    1.2952   18.7948  -29.6055 C   0  0  0  0  0  0  0  0  0  0  0  0
    2.1218   18.0023  -30.4653 C   0  0  0  0  0  0  0  0  0  0  0  0
   -1.6030   18.1301  -26.0142 C   0  0  0  0  0  0  0  0  0  0  0  0
   -0.8057   15.9772  -28.9403 N   0  0  0  0  0  0  0  0  0  0  0  0
   -2.5127   14.7188  -27.5592 O   0  0  0  0  0  0  0  0  0  0  0  0
   -1.4959   18.0094  -20.9734 C   0  0  0  0  0  0  0  0  0  0  0  0
   -2.3587   18.6781  -24.4596 S   0  0  0  0  0  4  0  0  0  0  0  0
   -1.9627   12.3701  -28.6542 C   0  0  0  0  0  0  0  0  0  0  0  0
   -2.5267   10.3329  -29.8810 C   0  0  0  0  0  0  0  0  0  0  0  0
   -3.8654   17.9957  -24.8815 O   0  0  0  0  0  1  0  0  0  0  0  0
   -1.7120   14.7574  -28.4873 C   0  0  0  0  0  0  0  0  0  0  0  0
   -3.3701    9.5490  -27.1657 C   0  0  0  0  0  0  0  0  0  0  0  0
   -2.8302    8.9427  -26.4499 F   0  0  0  0  0  0  0  0  0  0  0  0
    2.8891   17.9887  -31.4606 F   0  0  0  0  0  0  0  0  0  0  0  0
   -0.4943   19.0789  -26.7300 C   0  0  0  0  0  0  0  0  0  0  0  0
   -2.6556   19.9429  -24.3004 O   0  0  0  0  0  1  0  0  0  0  0  0
    0.1118   16.9933  -28.6658 C   0  0  2  0  0  0  0  0  0  0  0  0
   -1.3866   18.3302  -22.6795 C   0  0  0  0  0  0  0  0  0  0  0  0
   -1.3485   13.7816  -28.9006 N   0  0  0  0  0  0  0  0  0  0  0  0
   -2.1560   16.5097  -26.2723 S   0  0  0  0  0  0  0  0  0  0  0  0
   -2.4800   11.3685  -27.7547 C   0  0  0  0  0  0  0  0  0  0  0  0
   -4.4661    9.8780  -26.5812 F   0  0  0  0  0  0  0  0  0  0  0  0
  4  3  1  0
  4  6  1  6
  7  6  2  3
 11  1  1  0
 12  8  1  0
 13  5  2  0
 14  2  2  0
 14  5  1  0
 15 12  1  0
 16  9  1  0
 16 10  2  0
 17  2  1  0
 18 17  1  0
 19  7  1  0
 20  3  2  3
 20  8  1  0
 21 12  1  0
 22  3  1  0
 22  4  1  0
 22  9  1  6
 23  1  1  0
 23 12  1  0
 24 13  1  0
 24 16  1  0
 25  8  2  0
 26  2  1  0
 26 13  1  0
 27 17  1  0
M  RAD  2  15   2  21   2
M  END
>  <ID>  (1) 
conformer_0

$$$$
