
     RDKit          3D

 26 28  0  0  0  0  0  0  0  0999 V2000
   -0.7000   19.5927  -26.1673 C   0  0  0  0  0  0  0  0  0  0  0  0
    0.6777   18.4280  -28.4980 C   0  0  0  0  0  0  0  0  0  0  0  0
   -2.3411   11.2183  -27.9142 C   0  0  0  0  0  0  0  0  0  0  0  0
   -2.5554    9.9687  -28.4757 C   0  0  0  0  0  0  0  0  0  0  0  0
   -0.6051   17.0658  -21.5672 C   0  0  0  0  0  0  0  0  0  0  0  0
    1.4102   19.0627  -29.7331 C   0  0  0  0  0  0  0  0  0  0  0  0
   -2.2422   14.6217  -28.3720 C   0  0  0  0  0  0  0  0  0  0  0  0
    2.7426   17.0832  -30.0998 S   0  0  0  0  0  0  0  0  0  0  0  0
    2.3484   18.0867  -30.2196 C   0  0  0  0  0  0  0  0  0  0  0  0
   -1.7980   18.5097  -25.8381 C   0  0  0  0  0  0  0  0  0  0  0  0
   -1.9516   12.1715  -29.0004 C   0  0  0  0  0  0  0  0  0  0  0  0
   -1.6848   13.6073  -28.9848 N   0  0  0  0  0  0  0  0  0  0  0  0
   -2.7104   18.5844  -24.3652 S   0  0  0  0  0  4  0  0  0  0  0  0
   -2.3342   10.0147  -29.9298 C   0  0  0  0  0  0  0  0  0  0  0  0
   -3.9645   17.4918  -24.5725 O   0  0  0  0  0  1  0  0  0  0  0  0
   -0.1114   19.0138  -27.3761 C   0  0  0  0  0  0  0  0  0  0  0  0
   -3.5661    8.5591  -27.3687 F   0  0  0  0  0  0  0  0  0  0  0  0
   -2.4497   14.6820  -27.3330 O   0  0  0  0  0  0  0  0  0  0  0  0
   -1.3164   18.1304  -22.4565 C   0  0  0  0  0  0  0  0  0  0  0  0
   -0.7822   16.0014  -28.6667 N   0  0  0  0  0  0  0  0  0  0  0  0
   -3.0780    8.8459  -28.2005 C   0  0  0  0  0  0  0  0  0  0  0  0
    0.6022   17.2825  -28.6075 C   0  0  0  0  0  0  0  0  0  0  0  0
   -1.4696   18.1797  -20.7883 C   0  0  0  0  0  0  0  0  0  0  0  0
   -2.1309   11.3502  -30.3414 C   0  0  0  0  0  0  0  0  0  0  0  0
   -1.3051   17.7803  -26.8017 C   0  0  0  0  0  0  0  0  0  0  0  0
   -3.6129   19.4852  -24.5571 O   0  0  0  0  0  1  0  0  0  0  0  0
  4  3  2  0
  6  2  1  0
  9  6  1  0
  9  8  2  0
 10  1  1  0
 11  3  1  0
 12  7  1  0
 12 11  1  0
 13 10  1  0
 14  4  1  0
 15 13  1  0
 16  1  1  0
 16  2  1  0
 18  7  1  0
 19  5  1  0
 19 13  1  0
 20  7  1  0
 21  4  1  0
 21 17  1  0
 22  2  1  0
 22 20  1  0
 23  5  1  0
 23 19  1  0
 24 11  1  0
 24 14  2  0
 25 10  2  0
 25 16  1  0
 26 13  1  0
M  RAD  2  15   2  26   2
M  END
>  <ID>  (1) 
conformer_0

$$$$
