
     RDKit          3D

 28 31  0  0  0  0  0  0  0  0999 V2000
   -2.3114   11.6085  -28.0699 C   0  0  0  0  0  0  0  0  0  0  0  0
   -0.7858   17.7562  -27.3035 C   0  0  1  0  0  0  0  0  0  0  0  0
    0.4229   18.8569  -27.9137 C   0  0  2  0  0  0  0  0  0  0  0  0
   -2.8047   10.2597  -28.4783 C   0  0  0  0  0  0  0  0  0  0  0  0
   -1.9042   14.8401  -28.4504 C   0  0  1  0  0  0  0  0  0  0  0  0
    2.0888   17.8447  -30.0772 C   0  0  0  0  0  3  0  0  0  0  0  0
   -1.1318   15.5966  -28.7860 N   0  0  0  0  0  0  0  0  0  0  0  0
    2.7917   17.2060  -30.3997 S   0  0  0  0  0  3  0  0  0  0  0  0
   -1.7003   18.1347  -25.9773 C   0  0  0  0  0  0  0  0  0  0  0  0
    1.4255   19.0387  -29.2371 C   0  0  1  0  0  0  0  0  0  0  0  0
   -2.1757   11.5748  -30.4070 C   0  0  0  0  0  0  0  0  0  0  0  0
   -2.4625    9.9568  -25.6848 F   0  0  0  0  0  0  0  0  0  0  0  0
   -2.3958   18.3313  -24.7090 S   0  0  0  0  0  4  0  0  0  0  0  0
   -2.9695    9.6908  -26.9321 C   0  0  0  0  0  0  0  0  0  0  0  0
   -2.6999   19.8900  -24.2362 O   0  0  0  0  0  1  0  0  0  0  0  0
   -2.0087   12.4176  -29.1633 C   0  0  2  0  0  0  0  0  0  0  0  0
   -1.3235   18.2004  -22.1376 C   0  0  0  0  0  0  0  0  0  0  0  0
   -1.2766   17.3278  -21.2094 C   0  0  0  0  0  0  0  0  0  0  0  0
   -2.6366   10.2094  -30.0064 C   0  0  0  0  0  0  0  0  0  0  0  0
    0.1419   17.0270  -28.6109 C   0  0  0  0  0  0  0  0  0  0  0  0
    0.6551   17.4458  -29.0107 C   0  0  1  0  0  0  0  0  0  0  0  0
   -2.2948   15.1308  -27.1984 O   0  0  0  0  0  0  0  0  0  0  0  0
   -1.4989   14.0812  -28.4701 N   0  0  0  0  0  0  0  0  0  0  0  0
   -2.8652    8.5177  -26.9804 F   0  0  0  0  0  0  0  0  0  0  0  0
   -0.6626   19.0572  -26.3448 C   0  0  0  0  0  0  0  0  0  0  0  0
   -0.5340   18.9266  -22.1852 F   0  0  0  0  0  0  0  0  0  0  0  0
   -4.1552    9.9614  -26.3576 F   0  0  0  0  0  0  0  0  0  0  0  0
   -3.7700   18.1976  -24.5405 O   0  0  0  0  0  1  0  0  0  0  0  0
  3  2  1  0
  4  1  2  0
  5  7  1  6
  8  6  2  3
  9  2  1  0
 10  3  1  0
 10  6  1  1
 13  9  1  0
 14  4  1  0
 14 12  1  0
 15 13  1  0
 16  1  1  0
 16 11  1  0
 17 13  1  0
 18 17  2  3
 19  4  1  0
 19 11  2  0
  2 20  1  6
 21  3  1  0
 21  5  1  6
 21 10  1  0
 22  5  1  0
 23  5  1  0
 16 23  1  1
 24 14  1  0
 25  2  1  0
  3 25  1  1
 25  9  2  0
 26 17  1  0
 27 14  1  0
 28 13  1  0
M  RAD  4   6   2   8   2  15   2  28   2
M  END
>  <ID>  (1) 
conformer_0

$$$$
