
     RDKit          3D

 26 26  0  0  0  0  0  0  0  0999 V2000
   -0.3800   19.2723  -26.9589 C   0  0  0  0  0  0  0  0  0  0  0  0
   -2.5460   10.0817  -29.8502 C   0  0  0  0  0  0  0  0  0  0  0  0
    0.5506   18.2831  -28.4068 C   0  0  1  0  0  0  0  0  0  0  0  0
   -1.6232   18.1698  -20.7321 C   0  0  0  0  0  0  0  0  0  0  0  0
   -2.3964   11.4806  -27.8105 C   0  0  0  0  0  0  0  0  0  0  0  0
    2.2582   17.7286  -30.1848 C   0  0  0  0  0  3  0  0  0  0  0  0
   -0.7044   15.9366  -28.8118 N   0  0  0  0  0  0  0  0  0  0  0  0
    0.0611   17.0056  -28.5155 C   0  0  0  0  0  0  0  0  0  0  0  0
    2.8325   16.8838  -30.5417 S   0  0  0  0  0  3  0  0  0  0  0  0
   -2.4538   18.6892  -24.4518 S   0  0  0  0  0  4  0  0  0  0  0  0
   -1.9977   12.2879  -28.9039 C   0  0  0  0  0  0  0  0  0  0  0  0
   -1.8499   14.6619  -28.5189 C   0  0  0  0  0  0  0  0  0  0  0  0
   -2.5945   14.6299  -27.9076 O   0  0  0  0  0  0  0  0  0  0  0  0
   -1.4616   18.2632  -26.1335 C   0  0  0  0  0  0  0  0  0  0  0  0
    1.3821   18.5114  -29.5365 C   0  0  0  0  0  0  0  0  0  0  0  0
   -2.0267   11.4083  -30.2478 C   0  0  0  0  0  0  0  0  0  0  0  0
   -1.4580   18.0547  -22.5952 C   0  0  0  0  0  0  0  0  0  0  0  0
   -3.2485   10.0770  -25.7636 F   0  0  0  0  0  0  0  0  0  0  0  0
   -3.9591   18.0952  -24.6727 O   0  0  0  0  0  1  0  0  0  0  0  0
   -1.4835   13.5282  -29.0964 N   0  0  0  0  0  0  0  0  0  0  0  0
   -3.1340    9.7250  -26.9147 C   0  0  0  0  0  0  0  0  0  0  0  0
   -0.5185   17.5327  -21.7796 C   0  0  0  0  0  0  0  0  0  0  0  0
   -1.0263   17.8415  -26.9283 C   0  0  0  0  0  0  0  0  0  0  0  0
   -2.7900   19.8816  -24.3867 O   0  0  0  0  0  1  0  0  0  0  0  0
   -2.7958   10.2068  -28.3277 C   0  0  0  0  0  0  0  0  0  0  0  0
   -3.2541    8.5760  -26.9554 F   0  0  0  0  0  0  0  0  0  0  0  0
  3  1  1  0
  3  8  1  6
  8  7  1  0
  9  6  2  3
 11  5  2  0
 12  7  1  0
 13 12  2  0
 14 10  1  0
 15  3  1  0
 15  6  1  0
 16  2  2  0
 16 11  1  0
 17 10  1  0
 19 10  1  0
 20 11  1  0
 20 12  1  0
 21 18  1  0
 22  4  1  0
 22 17  1  0
 23  1  2  3
 23 14  1  0
 24 10  1  0
 25  2  1  0
 25  5  1  0
 25 21  2  3
 26 21  1  0
M  RAD  4   6   2   9   2  19   2  24   2
M  END
>  <ID>  (1) 
conformer_0

$$$$
