
     RDKit          3D

 32 35  0  0  0  0  0  0  0  0999 V2000
   -1.0498   19.6617  -26.0128 C   0  0  0  0  0  0  0  0  0  0  0  0
   -2.6211   11.2669  -27.9819 C   0  0  0  0  0  0  0  0  0  0  0  0
   -0.7168   18.2633  -27.7348 C   0  0  0  0  0  0  0  0  0  0  0  0
   -0.3850   18.1118  -22.0187 C   0  0  0  0  0  0  0  0  0  0  0  0
   -2.7547   10.1097  -28.7205 C   0  0  0  0  0  0  0  0  0  0  0  0
   -1.9790   14.7147  -28.5433 C   0  0  0  0  0  0  0  0  0  0  0  0
    0.8930   17.5950  -28.9259 C   0  0  0  0  0  0  0  0  0  0  0  0
    2.8317   16.7528  -30.4688 S   0  0  0  0  0  0  0  0  0  0  0  0
    2.6024   17.7307  -30.4642 C   0  0  0  0  0  0  0  0  0  0  0  0
   -1.5578   18.2510  -20.8120 C   0  0  0  0  0  0  0  0  0  0  0  0
   -1.9609   12.3326  -28.7950 C   0  0  0  0  0  0  0  0  0  0  0  0
   -1.8545   18.5446  -25.5925 C   0  0  0  0  0  0  0  0  0  0  0  0
   -0.7537   15.9901  -28.6058 N   0  0  0  0  0  0  0  0  0  0  0  0
   -2.6105   18.3870  -24.4522 S   0  0  0  0  0  4  0  0  0  0  0  0
   -3.9313   17.4785  -24.6520 O   0  0  0  0  0  1  0  0  0  0  0  0
   -0.1848   19.2609  -27.1729 C   0  0  0  0  0  0  0  0  0  0  0  0
   -1.8343   11.6611  -30.2161 C   0  0  0  0  0  0  0  0  0  0  0  0
   -2.3158   14.5266  -27.2791 O   0  0  0  0  0  0  0  0  0  0  0  0
   -3.4304    9.8144  -27.0967 C   0  0  0  0  0  0  0  0  0  0  0  0
   -4.8557   10.3081  -26.7788 F   0  0  0  0  0  0  0  0  0  0  0  0
   -1.3662   13.5268  -28.7875 N   0  0  0  0  0  0  0  0  0  0  0  0
    1.1071   16.9573  -29.2343 C   0  0  0  0  0  0  0  0  0  0  0  0
   -1.6113   17.3332  -26.4174 C   0  0  0  0  0  0  0  0  0  0  0  0
   -1.5566   18.1986  -22.8898 C   0  0  0  0  0  0  0  0  0  0  0  0
   -3.3398    8.6306  -27.0532 F   0  0  0  0  0  0  0  0  0  0  0  0
   -3.3889   19.4471  -24.3845 O   0  0  0  0  0  1  0  0  0  0  0  0
   -1.0002   16.9823  -21.2868 C   0  0  0  0  0  0  0  0  0  0  0  0
   -2.2463   10.2935  -30.1396 C   0  0  0  0  0  0  0  0  0  0  0  0
   -1.0111   17.1589  -27.5873 C   0  0  0  0  0  0  0  0  0  0  0  0
   -3.2156   10.3295  -25.7201 F   0  0  0  0  0  0  0  0  0  0  0  0
    0.8176   19.1027  -29.2378 C   0  0  0  0  0  0  0  0  0  0  0  0
    1.8702   18.8779  -30.3488 C   0  0  0  0  0  0  0  0  0  0  0  0
  5  2  2  0
  7  3  1  0
  9  8  1  0
 10  4  1  0
 11  2  1  0
 12  1  2  0
 13  6  1  0
 14 12  1  0
 15 14  1  0
 16  1  1  0
 16  3  2  0
 17 11  1  0
 18  6  1  0
 19  5  1  0
 20 19  1  0
 21  6  1  0
 21 11  1  0
 22  7  1  0
 22  8  1  0
 23 12  1  0
 24  4  1  0
 24 14  1  0
 25 19  1  0
 26 14  1  0
 27  4  1  0
 27 10  1  0
 28  5  1  0
 28 17  2  0
 29  3  1  0
 29 13  1  0
 29 23  2  0
 30 19  1  0
 31  7  1  0
 32  9  1  0
 32 31  2  0
M  RAD  2  15   2  26   2
M  END
>  <ID>  (1) 
conformer_0

$$$$
