
     RDKit          3D

 29 30  0  0  0  0  0  0  0  0999 V2000
   -0.7255   19.5287  -26.4377 C   0  0  0  0  0  0  0  0  0  0  0  0
   -2.4757   11.9464  -27.7767 C   0  0  0  0  0  0  0  0  0  0  0  0
   -0.1592   18.9137  -27.5509 C   0  0  0  0  0  0  0  0  0  0  0  0
   -0.5849   17.4483  -21.6722 C   0  0  0  0  0  0  0  0  0  0  0  0
   -2.0673   10.7076  -30.2212 C   0  0  0  0  0  0  0  0  0  0  0  0
    2.9658   17.1331  -30.2319 S   0  0  0  0  0  0  0  0  0  0  0  0
   -1.6096   18.3293  -25.8671 C   0  0  0  0  0  0  0  0  0  0  0  0
    0.4989   18.0016  -28.6410 C   0  0  0  0  0  0  0  0  0  0  0  0
   -2.0838   12.4138  -28.7228 C   0  0  0  0  0  0  0  0  0  0  0  0
    2.3625   17.3567  -30.0165 C   0  0  0  0  0  0  0  0  0  0  0  0
   -2.3666   14.7224  -27.4124 O   0  0  0  0  0  0  0  0  0  0  0  0
   -1.9310   14.8459  -28.4352 C   0  0  0  0  0  0  0  0  0  0  0  0
   -0.6653   15.9682  -28.7110 N   0  0  0  0  0  0  0  0  0  0  0  0
   -2.3424   18.6644  -24.1978 S   0  0  0  0  0  4  0  0  0  0  0  0
   -1.6214   11.9261  -30.0212 C   0  0  0  0  0  0  0  0  0  0  0  0
   -3.8343   18.0670  -24.6148 O   0  0  0  0  0  1  0  0  0  0  0  0
   -3.3543    9.9414  -26.8491 C   0  0  0  0  0  0  0  0  0  0  0  0
   -1.2910   17.5557  -26.7745 C   0  0  0  0  0  0  0  0  0  0  0  0
   -4.7822   10.4238  -26.3054 F   0  0  0  0  0  0  0  0  0  0  0  0
    0.2355   17.0140  -28.4810 C   0  0  0  0  0  0  0  0  0  0  0  0
   -1.6068   13.8327  -29.1751 N   0  0  0  0  0  0  0  0  0  0  0  0
   -1.2138   18.0839  -22.4409 C   0  0  0  0  0  0  0  0  0  0  0  0
   -1.5067   18.3916  -20.8626 C   0  0  0  0  0  0  0  0  0  0  0  0
   -2.7529   19.8624  -24.1962 O   0  0  0  0  0  1  0  0  0  0  0  0
   -3.6067    8.7439  -27.1454 F   0  0  0  0  0  0  0  0  0  0  0  0
   -2.4428    9.8819  -29.2613 C   0  0  0  0  0  0  0  0  0  0  0  0
   -2.9496   10.5507  -27.9144 C   0  0  0  0  0  0  0  0  0  0  0  0
    1.5019   18.5426  -29.7365 C   0  0  0  0  0  0  0  0  0  0  0  0
   -3.0258   10.0914  -25.5464 F   0  0  0  0  0  0  0  0  0  0  0  0
  3  1  1  0
  7  1  1  0
  8  3  1  0
  9  2  2  0
 10  6  2  0
 12 11  2  0
 13 12  1  0
 14  7  1  0
 15  5  2  0
 15  9  1  0
 16 14  1  0
 18  3  1  0
 18  7  2  0
 19 17  1  0
 20  8  1  0
 20 13  1  0
 21  9  1  0
 21 12  1  0
 22  4  1  0
 22 14  1  0
 23  4  1  0
 24 14  1  0
 25 17  1  0
 26  5  1  0
 27  2  1  0
 27 17  1  0
 27 26  2  0
 28  8  1  0
 28 10  1  0
 29 17  1  0
M  RAD  2  16   2  24   2
M  END
>  <ID>  (1) 
conformer_0

$$$$
