
     RDKit          3D

 28 32  0  0  0  0  0  0  0  0999 V2000
   -0.3698   18.0881  -22.0713 C   0  0  0  0  0  0  0  0  0  0  0  0
   -2.4594   11.2747  -27.7768 C   0  0  0  0  0  0  0  0  0  0  0  0
    0.1744   18.9141  -27.8052 C   0  0  0  0  0  0  0  0  0  0  0  0
    0.8982   17.4222  -28.8710 C   0  0  0  0  0  0  0  0  0  0  0  0
   -1.9934   11.5814  -30.1908 C   0  0  0  0  0  0  0  0  0  0  0  0
   -0.3292   17.0440  -28.2856 C   0  0  0  0  0  0  0  0  0  0  0  0
    2.0964   17.4899  -29.7634 C   0  0  0  0  0  0  0  0  0  0  0  0
   -2.4226   14.5989  -27.6349 O   0  0  0  0  0  0  0  0  0  0  0  0
   -1.8408   12.1157  -28.8009 C   0  0  0  0  0  0  0  0  0  0  0  0
   -0.8695   15.8413  -28.7166 N   0  0  0  0  0  0  0  0  0  0  0  0
   -2.5166   18.4904  -24.5173 S   0  0  0  0  0  4  0  0  0  0  0  0
   -0.5121   19.3869  -26.7654 C   0  0  0  0  0  0  0  0  0  0  0  0
   -3.9657   18.0371  -24.9400 O   0  0  0  0  0  1  0  0  0  0  0  0
   -2.6689   10.3298  -30.1724 C   0  0  0  0  0  0  0  0  0  0  0  0
   -1.5928   14.5432  -28.3770 C   0  0  0  0  0  0  0  0  0  0  0  0
   -1.5836   18.4772  -20.7819 C   0  0  0  0  0  0  0  0  0  0  0  0
   -3.4090   10.1004  -26.9229 C   0  0  0  0  0  0  0  0  0  0  0  0
   -0.9893   13.3236  -28.8712 N   0  0  0  0  0  0  0  0  0  0  0  0
   -1.6161   18.2206  -26.1500 C   0  0  0  0  0  0  0  0  0  0  0  0
   -1.3632   17.6981  -26.8129 C   0  0  0  0  0  0  0  0  0  0  0  0
    2.9970   16.8393  -29.9373 S   0  0  0  0  0  0  0  0  0  0  0  0
   -1.3682   18.1062  -22.8200 C   0  0  0  0  0  0  0  0  0  0  0  0
   -2.8983    9.8424  -25.9293 O   0  0  0  0  0  0  0  0  0  0  0  0
    1.3786   18.7531  -29.3265 C   0  0  0  0  0  0  0  0  0  0  0  0
   -3.0825   10.0791  -28.7176 C   0  0  0  0  0  0  0  0  0  0  0  0
   -3.1135   19.6695  -24.3985 O   0  0  0  0  0  1  0  0  0  0  0  0
   -1.1450   17.0018  -21.0998 C   0  0  0  0  0  0  0  0  0  0  0  0
   -4.3078    9.7187  -26.8073 F   0  0  0  0  0  0  0  0  0  0  0  0
  6  4  1  0
  7  4  1  0
  9  2  2  0
  9  5  1  0
 10  6  1  0
 12  3  2  0
 13 11  1  0
 14  5  2  0
 15  8  2  0
 15 10  1  0
 16  1  1  0
 17  2  1  0
 18  9  1  0
 18 15  1  0
 19 11  1  0
 19 12  1  0
 20  6  2  0
 20 19  2  0
 21  7  2  0
 22  1  1  0
 22 11  1  0
 23 17  1  0
 24  3  2  0
 24  4  1  0
 24  7  1  0
 25  2  1  0
 25 14  1  0
 25 17  1  0
 26 11  1  0
 27  1  1  0
 27 16  1  0
 28 17  1  0
M  RAD  2  13   2  26   2
M  END
>  <ID>  (1) 
conformer_0

$$$$
