
     RDKit          3D

 25 27  0  0  0  0  0  0  0  0999 V2000
   -1.3068   17.5575  -26.9235 C   0  0  0  0  0  0  0  0  0  0  0  0
   -2.2822   10.3991  -30.0561 C   0  0  0  0  0  0  0  0  0  0  0  0
   -0.5373   18.9042  -27.0240 C   0  0  0  0  0  0  0  0  0  0  0  0
   -2.5856   11.5510  -27.8680 C   0  0  0  0  0  0  0  0  0  0  0  0
   -1.2564   17.9852  -21.0730 C   0  0  0  0  0  0  0  0  0  0  0  0
    2.0314   17.8646  -29.9185 C   0  0  0  0  0  0  0  0  0  0  0  0
   -2.4734   14.6191  -27.3460 O   0  0  0  0  0  0  0  0  0  0  0  0
   -1.0114   15.9630  -28.6382 N   0  0  0  0  0  0  0  0  0  0  0  0
    0.3162   19.0035  -28.4643 C   0  0  0  0  0  0  0  0  0  0  0  0
   -2.3748   18.5382  -24.5323 S   0  0  0  0  0  4  0  0  0  0  0  0
   -1.7518   11.7621  -30.0891 C   0  0  0  0  0  0  0  0  0  0  0  0
   -1.9484   12.5115  -28.7318 C   0  0  0  0  0  0  0  0  0  0  0  0
   -3.7548    8.7329  -27.4620 F   0  0  0  0  0  0  0  0  0  0  0  0
   -1.7786   18.2145  -26.0491 C   0  0  0  0  0  0  0  0  0  0  0  0
   -1.2324   18.0176  -22.2628 C   0  0  0  0  0  0  0  0  0  0  0  0
   -1.7992   14.7488  -28.2072 C   0  0  0  0  0  0  0  0  0  0  0  0
   -4.0507   18.0470  -24.6564 O   0  0  0  0  0  1  0  0  0  0  0  0
    2.7745   17.1272  -29.8115 S   0  0  0  0  0  0  0  0  0  0  0  0
   -3.4009    9.3349  -27.8274 C   0  0  0  0  0  0  0  0  0  0  0  0
   -0.2591   17.0114  -28.3133 C   0  0  1  0  0  0  0  0  0  0  0  0
    1.2251   19.0734  -29.9333 C   0  0  0  0  0  0  0  0  0  0  0  0
   -2.8154   10.3071  -28.5699 C   0  0  0  0  0  0  0  0  0  0  0  0
   -1.4646   13.9179  -28.9545 N   0  0  0  0  0  0  0  0  0  0  0  0
   -2.7242   19.8358  -24.3838 O   0  0  0  0  0  1  0  0  0  0  0  0
    0.5902   17.5059  -28.7547 C   0  0  0  0  0  0  0  0  0  0  0  0
  3  1  2  0
  9  3  1  0
 11  2  2  0
 12  4  2  0
 12 11  1  0
 14  1  1  0
 14 10  1  0
 15  5  2  3
 15 10  1  0
 16  7  2  0
 16  8  1  0
 17 10  1  0
 18  6  2  0
 19 13  1  0
 20  1  1  0
 20  8  1  6
 21  6  1  0
 21  9  1  0
 22  2  1  0
 22  4  1  0
 22 19  1  0
 23 12  1  0
 23 16  1  0
 24 10  1  0
 25  6  1  0
 25  9  2  0
 25 20  1  0
M  RAD  2  17   2  24   2
M  END
>  <ID>  (1) 
conformer_0

$$$$
