
     RDKit          3D

 26 28  0  0  0  0  0  0  0  0999 V2000
    0.3231   18.3832  -28.1509 C   0  0  0  0  0  0  0  0  0  0  0  0
   -2.8524   10.5225  -28.0690 C   0  0  0  0  0  0  0  0  0  0  0  0
   -0.6336   17.4228  -21.6431 C   0  0  0  0  0  0  0  0  0  0  0  0
    1.2058   18.4213  -29.2696 C   0  0  0  0  0  0  0  0  0  0  0  0
   -2.2758   11.9000  -27.8139 C   0  0  0  0  0  0  0  0  0  0  0  0
    0.0474   16.9052  -28.5069 C   0  0  0  0  0  0  0  0  0  0  0  0
    2.4104   16.6471  -30.0757 S   0  0  0  0  0  0  0  0  0  0  0  0
   -1.5690   18.5440  -25.6187 C   0  0  0  0  0  0  0  0  0  0  0  0
   -0.7197   18.2322  -27.0237 C   0  0  0  0  0  0  0  0  0  0  0  0
   -2.6146   14.5781  -27.7831 O   0  0  0  0  0  0  0  0  0  0  0  0
   -1.7930   12.4920  -28.7542 C   0  0  0  0  0  0  0  0  0  0  0  0
   -1.7351   14.6707  -28.4000 C   0  0  0  0  0  0  0  0  0  0  0  0
   -0.8439   16.0171  -28.6047 N   0  0  0  0  0  0  0  0  0  0  0  0
   -1.4430   18.1378  -20.9325 C   0  0  0  0  0  0  0  0  0  0  0  0
   -2.3188   18.3548  -24.7680 S   0  0  0  0  0  3  0  0  0  0  0  0
   -1.6118   12.1313  -30.0240 C   0  0  0  0  0  0  0  0  0  0  0  0
   -4.5933    9.4752  -27.5055 F   0  0  0  0  0  0  0  0  0  0  0  0
   -3.2975    9.6010  -27.4711 C   0  0  0  0  0  0  0  0  0  0  0  0
   -3.3471   18.7900  -24.1898 O   0  0  0  0  0  1  0  0  0  0  0  0
    1.9827   17.5984  -29.9268 C   0  0  0  0  0  0  0  0  0  0  0  0
   -1.4624   18.3552  -22.5528 C   0  0  0  0  0  0  0  0  0  0  0  0
   -0.5545   19.4993  -26.0960 C   0  0  0  0  0  0  0  0  0  0  0  0
   -0.9634   13.9315  -28.9310 N   0  0  0  0  0  0  0  0  0  0  0  0
   -2.2693   10.0025  -29.3474 C   0  0  0  0  0  0  0  0  0  0  0  0
   -2.1072   10.8587  -30.4269 C   0  0  0  0  0  0  0  0  0  0  0  0
   -3.0490    8.6830  -26.9685 F   0  0  0  0  0  0  0  0  0  0  0  0
  4  1  1  0
  5  2  2  0
  6  1  1  0
  9  1  1  0
  9  8  2  0
 11  5  1  0
 12 10  2  0
 13  6  1  0
 13 12  1  0
 14  3  1  0
 15  8  1  0
 16 11  2  0
 18  2  1  0
 18 17  1  0
 19 15  1  0
 20  4  1  0
 20  7  2  0
 21  3  1  0
 21 14  1  0
 22  8  1  0
 22  9  1  0
 22 21  1  0
 23 11  1  0
 23 12  1  0
 24  2  1  0
 25 16  1  0
 25 24  2  0
 26 18  1  0
M  RAD  2  15   2  19   2
M  END
>  <ID>  (1) 
conformer_0

$$$$
