
     RDKit          3D

 28 31  0  0  0  0  0  0  0  0999 V2000
   -0.6916   19.4957  -25.3801 C   0  0  0  0  0  0  0  0  0  0  0  0
   -2.8130   10.3149  -28.2943 C   0  0  0  0  0  0  0  0  0  0  0  0
   -0.5664   17.8454  -27.5664 C   0  0  0  0  0  0  0  0  0  0  0  0
   -2.6399   11.5792  -27.8406 C   0  0  0  0  0  0  0  0  0  0  0  0
   -0.3516   17.1995  -21.6050 C   0  0  0  0  0  0  0  0  0  0  0  0
    0.6678   19.0757  -28.7009 C   0  0  0  0  0  0  0  0  0  0  0  0
    2.0539   17.7781  -30.3434 C   0  0  0  0  0  0  0  0  0  0  0  0
   -0.7248   15.9363  -28.7453 N   0  0  0  0  0  0  0  0  0  0  0  0
   -1.8002   18.6249  -25.2280 C   0  0  0  0  0  0  0  0  0  0  0  0
   -2.5212   14.6072  -27.6570 O   0  0  0  0  0  0  0  0  0  0  0  0
   -1.9299   12.4912  -28.7299 C   0  0  0  0  0  0  0  0  0  0  0  0
    0.8257   17.5361  -29.0188 C   0  0  2  0  0  0  0  0  0  0  0  0
   -1.6439   14.8315  -28.4215 C   0  0  0  0  0  0  0  0  0  0  0  0
   -1.8977   11.6179  -30.0729 C   0  0  0  0  0  0  0  0  0  0  0  0
   -3.2656    9.4082  -27.3805 C   0  0  0  0  0  0  0  0  0  0  0  0
   -1.1395   18.1064  -22.3111 C   0  0  0  0  0  0  0  0  0  0  0  0
   -3.3522    8.4211  -27.2848 F   0  0  0  0  0  0  0  0  0  0  0  0
   -3.6893   19.0195  -24.3761 O   0  0  0  0  0  1  0  0  0  0  0  0
    1.5584   19.1320  -30.0298 C   0  0  0  0  0  0  0  0  0  0  0  0
   -1.4509   18.3898  -20.8759 C   0  0  0  0  0  0  0  0  0  0  0  0
   -2.2852   18.7776  -24.1155 S   0  0  0  0  0  3  0  0  0  0  0  0
    0.3812   16.9227  -28.9834 C   0  0  0  0  0  0  0  0  0  0  0  0
   -1.2232   13.8318  -29.0587 N   0  0  0  0  0  0  0  0  0  0  0  0
   -2.3057   10.3106  -29.8598 C   0  0  0  0  0  0  0  0  0  0  0  0
    2.9631   17.1588  -31.3007 Cl  0  0  0  0  0  0  0  0  0  0  0  0
   -3.8142    9.9152  -26.0806 F   0  0  0  0  0  0  0  0  0  0  0  0
   -0.2015   18.9347  -26.7532 C   0  0  0  0  0  0  0  0  0  0  0  0
   -1.7321   17.6341  -26.3833 C   0  0  0  0  0  0  0  0  0  0  0  0
  4  2  2  0
  9  1  2  0
 11  4  1  0
 12  6  1  6
 12  7  1  0
 13  8  1  0
 13 10  2  0
 14 11  2  0
 15  2  1  0
 16  1  1  0
 16  5  1  0
 17 15  1  0
 19  6  1  0
 19  7  2  0
 20  5  1  0
 20 16  1  0
 21  9  1  0
 21 18  1  0
 22  3  1  0
 22  8  2  3
 22 12  1  0
 23 11  1  0
 23 13  1  0
 24  2  1  0
 24 14  1  0
 25  7  1  0
 26 15  1  0
 27  1  1  0
 27  3  1  0
 28  3  2  0
 28  9  1  0
M  RAD  2  18   2  21   2
M  END
>  <ID>  (1) 
conformer_0

$$$$
