
     RDKit          3D

 29 32  0  0  0  0  0  0  0  0999 V2000
   -0.6214   19.4424  -26.3965 C   0  0  0  0  0  0  0  0  0  0  0  0
    0.1639   18.8162  -27.8614 C   0  0  0  0  0  0  0  0  0  0  0  0
   -1.8129   11.7849  -30.1389 C   0  0  0  0  0  0  0  0  0  0  0  0
   -0.7342   17.4940  -21.4139 C   0  0  0  0  0  0  0  0  0  0  0  0
   -2.2011   10.5058  -29.8168 C   0  0  0  0  0  0  0  0  0  0  0  0
    0.7068   17.9185  -28.8895 C   0  0  0  0  0  0  0  0  0  0  0  0
    2.2740   17.7710  -30.2788 C   0  0  0  0  0  0  0  0  0  0  0  0
   -1.8969   12.7146  -28.8647 C   0  0  0  0  0  0  0  0  0  0  0  0
   -1.7750   18.1895  -26.0567 C   0  0  0  0  0  0  0  0  0  0  0  0
   -1.3773   18.2004  -22.5819 C   0  0  0  0  0  0  0  0  0  0  0  0
   -0.8438   16.0287  -28.7305 N   0  0  0  0  0  0  0  0  0  0  0  0
   -2.6300   18.4463  -24.5816 S   0  0  0  0  0  4  0  0  0  0  0  0
   -2.6380   10.5075  -28.2864 C   0  0  0  0  0  0  0  0  0  0  0  0
   -4.1033   18.1596  -24.7542 O   0  0  0  0  0  1  0  0  0  0  0  0
   -2.5698    8.4275  -26.9768 F   0  0  0  0  0  0  0  0  0  0  0  0
   -2.8775    9.4676  -27.0893 C   0  0  0  0  0  0  0  0  0  0  0  0
    1.3889   18.8183  -29.9891 C   0  0  0  0  0  0  0  0  0  0  0  0
    2.5499   16.7645  -29.9703 S   0  0  0  0  0  0  0  0  0  0  0  0
   -1.5458   14.9399  -28.5043 C   0  0  0  0  0  0  0  0  0  0  0  0
   -1.7037   18.1593  -20.7366 C   0  0  0  0  0  0  0  0  0  0  0  0
   -0.0059   16.9585  -28.4913 C   0  0  0  0  0  0  0  0  0  0  0  0
   -1.4697   13.9681  -29.1386 N   0  0  0  0  0  0  0  0  0  0  0  0
   -2.9510   19.8642  -24.3096 O   0  0  0  0  0  1  0  0  0  0  0  0
   -2.4695   11.8058  -27.8001 C   0  0  0  0  0  0  0  0  0  0  0  0
   -2.1569   14.6574  -27.6038 O   0  0  0  0  0  0  0  0  0  0  0  0
   -1.8903   18.3978  -23.1861 N   0  0  0  0  0  0  0  0  0  0  0  0
   -1.0324   17.8199  -27.0663 C   0  0  0  0  0  0  0  0  0  0  0  0
   -2.5383    9.9153  -25.5712 F   0  0  0  0  0  0  0  0  0  0  0  0
   -4.2479    9.7370  -26.5823 F   0  0  0  0  0  0  0  0  0  0  0  0
  2  1  2  0
  5  3  2  0
  6  2  1  0
  8  3  1  0
  9  1  1  0
 10  4  1  0
 12  9  1  0
 13  5  1  0
 14 12  1  0
 16 13  1  0
 16 15  1  0
 17  6  1  0
 17  7  1  0
 18  7  2  0
 19 11  1  0
 20  4  1  0
 20 10  1  0
 21  6  1  0
 21 11  1  0
 22  8  1  0
 22 19  1  0
 23 12  1  0
 24  8  1  0
 24 13  2  0
 25 19  2  0
 26 10  1  0
 26 12  1  0
 27  2  1  0
 27  9  2  0
 27 21  1  0
 28 16  1  0
 29 16  1  0
M  RAD  2  14   2  23   2
M  END
>  <ID>  (1) 
conformer_0

$$$$
