
     RDKit          3D

 27 30  0  0  0  0  0  0  0  0999 V2000
   -2.5961    9.9837  -28.8266 C   0  0  0  0  0  0  0  0  0  0  0  0
   -0.4571   18.6570  -26.8861 C   0  0  0  0  0  0  0  0  0  0  0  0
   -1.8117   17.7993  -20.7654 C   0  0  0  0  0  0  0  0  0  0  0  0
    0.3993   18.5331  -28.1907 C   0  0  0  0  0  0  0  0  0  0  0  0
   -2.2820   10.3839  -30.2833 C   0  0  0  0  0  0  0  0  0  0  0  0
    1.9681   17.7528  -29.8683 C   0  0  0  0  0  0  0  0  0  0  0  0
   -1.7151   18.5212  -25.5510 C   0  0  0  0  0  0  0  0  0  0  0  0
   -0.8511   16.0556  -28.5301 N   0  0  0  0  0  0  0  0  0  0  0  0
   -2.7387   18.6137  -24.2246 S   0  0  0  0  0  4  0  0  0  0  0  0
   -1.8267   12.2414  -28.7770 C   0  0  0  0  0  0  0  0  0  0  0  0
   -0.7143   19.6585  -25.9310 C   0  0  0  0  0  0  0  0  0  0  0  0
   -0.0358   17.1147  -28.0749 C   0  0  0  0  0  0  0  0  0  0  0  0
   -1.7325   14.7658  -28.4970 C   0  0  0  0  0  0  0  0  0  0  0  0
   -4.2034   17.8569  -24.6498 O   0  0  0  0  0  1  0  0  0  0  0  0
   -1.6593   17.8657  -22.4998 C   0  0  0  0  0  0  0  0  0  0  0  0
   -2.4831   14.5159  -27.7696 O   0  0  0  0  0  0  0  0  0  0  0  0
   -2.2292   11.1597  -27.9532 C   0  0  0  0  0  0  0  0  0  0  0  0
   -2.8662    9.3427  -27.2696 C   0  0  0  0  0  0  0  0  0  0  0  0
   -2.9773    8.3572  -27.1483 F   0  0  0  0  0  0  0  0  0  0  0  0
   -1.2628   13.6337  -28.9054 N   0  0  0  0  0  0  0  0  0  0  0  0
    2.8417   17.0948  -30.1457 S   0  0  0  0  0  0  0  0  0  0  0  0
   -1.6678   17.4473  -26.3921 C   0  0  0  0  0  0  0  0  0  0  0  0
   -3.1999   19.7928  -24.2510 O   0  0  0  0  0  1  0  0  0  0  0  0
   -0.9197   17.1204  -21.3959 C   0  0  0  0  0  0  0  0  0  0  0  0
   -1.6686   11.6483  -30.2722 C   0  0  0  0  0  0  0  0  0  0  0  0
   -3.3478    9.9603  -26.1220 F   0  0  0  0  0  0  0  0  0  0  0  0
    1.2757   17.6619  -29.3599 C   0  0  0  0  0  0  0  0  0  0  0  0
  4  2  1  0
  5  1  2  0
  9  7  1  0
 11  2  2  0
 11  7  1  0
 12  4  1  0
 12  8  1  0
 13  8  1  0
 14  9  1  0
 15  3  1  0
 15  9  1  0
 16 13  2  0
 17  1  1  0
 17 10  1  0
 18  1  1  0
 19 18  1  0
 20 10  1  0
 20 13  1  0
 21  6  2  0
 22  2  1  0
 22  7  2  0
 23  9  1  0
 24  3  1  0
 24 15  1  0
 25  5  1  0
 25 10  2  0
 26 18  1  0
 27  4  1  0
 27  6  1  0
 27 12  1  0
M  RAD  2  14   2  23   2
M  END
>  <ID>  (1) 
conformer_0

$$$$
