
     RDKit          3D

 32 36  0  0  0  0  0  0  0  0999 V2000
   -2.8754   10.6238  -27.7618 C   0  0  0  0  0  0  0  0  0  0  0  0
   -0.5390   18.1622  -27.2780 C   0  0  0  0  0  0  0  0  0  0  0  0
   -0.3944   17.6233  -22.1160 C   0  0  0  0  0  0  0  0  0  0  0  0
    0.6601   19.3826  -29.0457 C   0  0  0  0  0  0  0  0  0  0  0  0
   -2.2370   11.8669  -27.8062 C   0  0  0  0  0  0  0  0  0  0  0  0
    2.6555   16.9497  -30.0993 S   0  0  0  0  0  0  0  0  0  0  0  0
    1.5409   19.1509  -30.1153 C   0  0  0  0  0  0  0  0  0  0  0  0
    2.5305   18.2580  -30.3607 C   0  0  0  0  0  0  0  0  0  0  0  0
   -1.8037   18.3217  -25.2603 C   0  0  0  0  0  0  0  0  0  0  0  0
   -1.9150   14.8370  -28.3891 C   0  0  0  0  0  0  0  0  0  0  0  0
   -0.9382   15.9732  -28.5237 N   0  0  0  0  0  0  0  0  0  0  0  0
   -2.4488   18.6001  -24.2755 S   0  0  0  0  0  4  0  0  0  0  0  0
   -2.4066   14.5588  -27.4969 O   0  0  0  0  0  0  0  0  0  0  0  0
   -2.0166   12.4751  -28.9354 C   0  0  0  0  0  0  0  0  0  0  0  0
   -3.2140    8.3471  -27.2916 F   0  0  0  0  0  0  0  0  0  0  0  0
   -1.9141   11.8081  -30.1657 C   0  0  0  0  0  0  0  0  0  0  0  0
   -3.8700   17.7868  -24.2269 O   0  0  0  0  0  1  0  0  0  0  0  0
   -1.3685   17.3340  -20.8960 C   0  0  0  0  0  0  0  0  0  0  0  0
   -1.8538   17.0313  -26.4262 C   0  0  0  0  0  0  0  0  0  0  0  0
   -3.3360    9.4968  -27.1200 C   0  0  0  0  0  0  0  0  0  0  0  0
   -1.5342   18.3606  -22.5621 C   0  0  0  0  0  0  0  0  0  0  0  0
   -1.7756   13.7531  -29.1842 N   0  0  0  0  0  0  0  0  0  0  0  0
   -1.3948   16.8622  -27.2622 C   0  0  0  0  0  0  0  0  0  0  0  0
   -1.8541   10.3399  -30.0608 C   0  0  0  0  0  0  0  0  0  0  0  0
   -0.7383   19.0352  -26.1137 C   0  0  0  0  0  0  0  0  0  0  0  0
   -4.7040    9.8320  -26.8844 F   0  0  0  0  0  0  0  0  0  0  0  0
   -2.8771    9.6785  -25.8382 F   0  0  0  0  0  0  0  0  0  0  0  0
   -3.1796   19.7555  -24.3721 O   0  0  0  0  0  1  0  0  0  0  0  0
    1.2195   17.3740  -28.9837 C   0  0  0  0  0  0  0  0  0  0  0  0
    0.5787   17.8854  -28.4983 C   0  0  0  0  0  0  0  0  0  0  0  0
   -2.0892    9.8661  -28.7332 C   0  0  0  0  0  0  0  0  0  0  0  0
   -1.5762   18.8190  -20.9481 C   0  0  0  0  0  0  0  0  0  0  0  0
  5  1  2  0
  7  4  1  0
  8  6  1  0
  8  7  1  0
 11 10  1  0
 12  9  1  0
 13 10  2  0
 14  5  1  0
 16 14  2  0
 17 12  1  0
 18  3  1  0
 19  9  2  0
 20  1  1  0
 20 15  1  0
 21  3  1  0
 21 12  1  0
 21 18  1  0
 22 10  1  0
 22 14  1  0
 23  2  2  0
 23 11  1  0
 23 19  1  0
 24 16  1  0
 25  2  1  0
 25  9  1  0
 26 20  1  0
 27 20  1  0
 28 12  1  0
 29  6  1  0
 30  2  1  0
 30  4  2  0
 30 29  1  0
 31  1  1  0
 31 24  2  0
 32 18  1  0
 32 21  1  0
M  RAD  2  17   2  28   2
M  END
>  <ID>  (1) 
conformer_0

$$$$
