
     RDKit          3D

 31 35  0  0  0  0  0  0  0  0999 V2000
    0.4602   18.1987  -28.1722 C   0  0  0  0  0  0  0  0  0  0  0  0
   -2.2607   11.6309  -27.8074 C   0  0  0  0  0  0  0  0  0  0  0  0
    0.0318   19.0880  -27.0901 C   0  0  0  0  0  0  0  0  0  0  0  0
   -2.3257   10.5643  -30.3721 C   0  0  0  0  0  0  0  0  0  0  0  0
   -1.7789   18.2645  -20.7180 C   0  0  0  0  0  0  0  0  0  0  0  0
    2.5905   18.3904  -30.9010 C   0  0  0  0  0  0  0  0  0  0  0  0
    3.0008   16.9515  -30.3580 S   0  0  0  0  0  0  0  0  0  0  0  0
   -0.6828   19.5383  -25.7930 C   0  0  0  0  0  0  0  0  0  0  0  0
   -0.8160   16.1611  -28.7275 N   0  0  0  0  0  0  0  0  0  0  0  0
   -1.2507   18.0393  -22.3300 C   0  0  0  0  0  0  0  0  0  0  0  0
   -1.7298   18.4715  -25.6187 C   0  0  0  0  0  0  0  0  0  0  0  0
   -2.4783   18.4960  -24.2656 S   0  0  0  0  0  4  0  0  0  0  0  0
   -1.6824   11.7519  -30.0189 C   0  0  0  0  0  0  0  0  0  0  0  0
   -2.3006   14.5636  -27.5333 O   0  0  0  0  0  0  0  0  0  0  0  0
   -1.9911   12.3213  -28.7725 C   0  0  0  0  0  0  0  0  0  0  0  0
   -3.9768   17.7795  -24.5872 O   0  0  0  0  0  1  0  0  0  0  0  0
   -0.7408   17.2741  -27.8274 C   0  0  0  0  0  0  0  0  0  0  0  0
   -1.5614   13.8772  -29.1860 N   0  0  0  0  0  0  0  0  0  0  0  0
   -3.2815    9.8279  -26.8646 C   0  0  0  0  0  0  0  0  0  0  0  0
   -1.7599   14.7864  -28.4346 C   0  0  0  0  0  0  0  0  0  0  0  0
    1.3518   19.0589  -30.1113 C   0  0  0  0  0  0  0  0  0  0  0  0
   -2.9798   10.1922  -25.4679 F   0  0  0  0  0  0  0  0  0  0  0  0
   -2.8670   10.3796  -27.9362 C   0  0  0  0  0  0  0  0  0  0  0  0
   -3.1737    8.4391  -26.9180 F   0  0  0  0  0  0  0  0  0  0  0  0
   -3.1205   19.7151  -24.2465 O   0  0  0  0  0  1  0  0  0  0  0  0
   -1.3472   17.7868  -26.7051 C   0  0  0  0  0  0  0  0  0  0  0  0
    1.5291   17.1724  -29.5564 C   0  0  0  0  0  0  0  0  0  0  0  0
   -0.8597   17.0299  -21.2632 C   0  0  0  0  0  0  0  0  0  0  0  0
   -4.6978   10.0789  -26.4623 F   0  0  0  0  0  0  0  0  0  0  0  0
   -2.8843    9.7738  -29.3318 C   0  0  0  0  0  0  0  0  0  0  0  0
    1.2721   17.7423  -29.3547 C   0  0  0  0  0  0  0  0  0  0  0  0
  3  1  1  0
  7  6  1  0
  8  3  1  0
 10  5  1  0
 11  8  2  0
 12 10  1  0
 12 11  1  0
 13  4  2  0
 15  2  2  0
 15 13  1  0
 16 12  1  0
 17  1  1  0
 17  9  1  0
 18 15  1  0
 20  9  1  0
 20 14  2  0
 20 18  1  0
 21  6  2  0
 22 19  1  0
 23  2  1  0
 23 19  1  0
 24 19  1  0
 25 12  1  0
 26  3  1  0
 26 11  1  0
 26 17  2  0
 27  7  1  0
 28  5  1  0
 28 10  1  0
 29 19  1  0
 30  4  1  0
 30 23  2  0
 31  1  1  0
 31 21  1  0
 31 27  1  0
M  RAD  2  16   2  25   2
M  END
>  <ID>  (1) 
conformer_0

$$$$
