
     RDKit          3D

 29 32  0  0  0  0  0  0  0  0999 V2000
   -1.4986   17.3563  -26.7750 C   0  0  0  0  0  0  0  0  0  0  0  0
   -2.7842   10.3056  -28.2370 C   0  0  0  0  0  0  0  0  0  0  0  0
   -1.6783   18.6341  -20.9137 C   0  0  0  0  0  0  0  0  0  0  0  0
    0.5954   18.0780  -28.7834 C   0  0  0  0  0  0  0  0  0  0  0  0
   -2.2385   11.4984  -30.3373 C   0  0  0  0  0  0  0  0  0  0  0  0
   -2.1931   14.6517  -27.1856 O   0  0  0  0  0  0  0  0  0  0  0  0
    1.5065   18.7385  -29.9628 C   0  0  0  0  0  0  0  0  0  0  0  0
   -1.7334   18.2386  -25.8746 C   0  0  0  0  0  0  0  0  0  0  0  0
   -0.8106   15.8954  -28.8201 N   0  0  0  0  0  0  0  0  0  0  0  0
    2.1372   17.7512  -30.3359 C   0  0  0  0  0  0  0  0  0  0  0  0
   -2.4155   18.6482  -24.3583 S   0  0  0  0  0  4  0  0  0  0  0  0
   -1.8811   14.7893  -28.5973 C   0  0  0  0  0  0  0  0  0  0  0  0
    2.4255   16.7095  -30.0714 S   0  0  0  0  0  0  0  0  0  0  0  0
   -1.9989   12.4217  -29.0058 C   0  0  0  0  0  0  0  0  0  0  0  0
   -3.3569   10.2755  -25.8377 O   0  0  0  0  0  0  0  0  0  0  0  0
   -0.3281   17.3343  -21.7852 C   0  0  0  0  0  0  0  0  0  0  0  0
   -4.0387   18.3907  -24.6157 O   0  0  0  0  0  1  0  0  0  0  0  0
   -2.2371   11.6098  -27.9021 C   0  0  0  0  0  0  0  0  0  0  0  0
   -3.0995    9.4031  -27.1091 C   0  0  0  0  0  0  0  0  0  0  0  0
    0.0619   16.9720  -28.5918 C   0  0  0  0  0  0  0  0  0  0  0  0
   -1.3149   18.2369  -22.5937 C   0  0  0  0  0  0  0  0  0  0  0  0
   -1.4964   13.6204  -29.3281 N   0  0  0  0  0  0  0  0  0  0  0  0
   -0.1357   18.4857  -27.5790 C   0  0  0  0  0  0  0  0  0  0  0  0
   -0.7004   19.2558  -26.4383 C   0  0  0  0  0  0  0  0  0  0  0  0
   -2.6313   19.9799  -24.1922 O   0  0  0  0  0  1  0  0  0  0  0  0
   -2.7567   10.1999  -29.7750 C   0  0  0  0  0  0  0  0  0  0  0  0
   -2.7934    8.2498  -26.9143 N   0  0  0  0  0  0  0  0  0  0  0  0
   -1.4321   17.0806  -20.7669 C   0  0  0  0  0  0  0  0  0  0  0  0
   -3.1265   14.7516  -28.6330 O   0  0  0  0  0  0  0  0  0  0  0  0
  7  4  1  0
  8  1  2  0
 10  7  1  0
 11  8  1  0
 12  6  1  0
 12  9  1  0
 13 10  2  0
 14  5  2  0
 17 11  1  0
 18  2  2  0
 18 14  1  0
 19  2  1  0
 19 15  2  0
 20  4  1  0
 20  9  1  0
 21  3  1  0
 21 11  1  0
 21 16  1  0
 22 12  1  0
 22 14  1  0
 23  1  1  0
 23  4  2  3
 24  8  1  0
 24 23  1  0
 25 11  1  0
 26  2  1  0
 26  5  1  0
 27 19  1  0
 28  3  1  0
 28 16  1  0
 29  6  1  0
 29 12  1  0
M  RAD  2  17   2  25   2
M  END
>  <ID>  (1) 
conformer_0

$$$$
