
     RDKit          3D

 26 29  0  0  0  0  0  0  0  0999 V2000
   -1.1552   17.7255  -26.9237 C   0  0  0  0  0  0  0  0  0  0  0  0
   -0.4704   19.3643  -26.4188 C   0  0  0  0  0  0  0  0  0  0  0  0
   -2.2990   10.0866  -29.9128 C   0  0  0  0  0  0  0  0  0  0  0  0
   -2.0015   11.3849  -30.1443 C   0  0  0  0  0  0  0  0  0  0  0  0
   -1.4972   17.7984  -21.1998 C   0  0  0  0  0  0  0  0  0  0  0  0
   -0.0050   18.5935  -27.8714 C   0  0  0  0  0  0  0  0  0  0  0  0
    2.3961   17.9583  -30.3023 C   0  0  0  0  0  0  0  0  0  0  0  0
   -2.2202   14.3539  -27.4844 O   0  0  0  0  0  0  0  0  0  0  0  0
   -0.7746   15.8508  -28.8008 N   0  0  0  0  0  0  0  0  0  0  0  0
   -1.5857   18.5821  -25.7273 C   0  0  0  0  0  0  0  0  0  0  0  0
   -1.9177   12.2509  -28.7346 C   0  0  0  0  0  0  0  0  0  0  0  0
   -1.3726   18.2221  -22.4739 C   0  0  0  0  0  0  0  0  0  0  0  0
    2.8551   17.0099  -30.3560 S   0  0  0  0  0  0  0  0  0  0  0  0
   -2.4083   18.6135  -24.4893 S   0  0  0  0  0  4  0  0  0  0  0  0
   -3.9391   17.6623  -24.7339 O   0  0  0  0  0  1  0  0  0  0  0  0
   -1.6720   14.7222  -28.3891 C   0  0  0  0  0  0  0  0  0  0  0  0
   -2.5796   11.2563  -27.8627 C   0  0  0  0  0  0  0  0  0  0  0  0
    1.2624   18.9765  -29.8464 C   0  0  0  0  0  0  0  0  0  0  0  0
   -3.4341    9.2954  -27.3256 C   0  0  0  0  0  0  0  0  0  0  0  0
   -1.4507   13.5498  -29.1706 N   0  0  0  0  0  0  0  0  0  0  0  0
   -4.3148    9.1657  -26.9769 F   0  0  0  0  0  0  0  0  0  0  0  0
    0.5684   16.9408  -28.8940 C   0  0  0  0  0  0  0  0  0  0  0  0
    0.8689   17.8774  -28.9980 C   0  0  0  0  0  0  0  0  0  0  0  0
   -2.7515   10.0099  -28.3221 C   0  0  0  0  0  0  0  0  0  0  0  0
   -3.2403   19.6099  -24.4616 O   0  0  0  0  0  1  0  0  0  0  0  0
   -0.3033   17.3336  -21.9085 C   0  0  0  0  0  0  0  0  0  0  0  0
  2  1  1  0
  4  3  2  0
  6  1  2  0
  6  2  1  0
 10  1  1  0
 10  2  2  0
 11  4  1  0
 12  5  1  0
 13  7  2  0
 14 10  1  0
 14 12  1  0
 15 14  1  0
 16  8  2  0
 16  9  1  0
 17 11  2  0
 18  7  1  0
 20 11  1  0
 20 16  1  0
 21 19  1  0
 22  9  1  0
 23  6  1  0
 23 18  1  0
 23 22  1  0
 24  3  1  0
 24 17  1  0
 24 19  1  0
 25 14  1  0
 26  5  1  0
 26 12  1  0
M  RAD  2  15   2  25   2
M  END
>  <ID>  (1) 
conformer_0

$$$$
