
     RDKit          3D

 33 36  0  0  0  0  0  0  0  0999 V2000
   -2.2894   11.7285  -27.9135 C   0  0  0  0  0  0  0  0  0  0  0  0
   -0.3063   19.0815  -27.0987 C   0  0  0  0  0  0  0  0  0  0  0  0
   -0.1994   17.2415  -21.6406 C   0  0  0  0  0  0  0  0  0  0  0  0
    1.4273   19.0115  -29.9309 C   0  0  0  0  0  0  0  0  0  0  0  0
   -2.6877   10.4352  -27.8193 C   0  0  0  0  0  0  0  0  0  0  0  0
    1.3127   16.9409  -29.2655 C   0  0  0  0  0  0  0  0  0  0  0  0
   -0.7793   19.5787  -25.8325 C   0  0  0  0  0  0  0  0  0  0  0  0
   -2.0900   14.6571  -28.4130 C   0  0  0  0  0  0  0  0  0  0  0  0
   -2.6885   14.7738  -27.2860 O   0  0  0  0  0  0  0  0  0  0  0  0
    2.8603   17.0904  -30.2138 S   0  0  0  0  0  0  0  0  0  0  0  0
   -0.9346   15.8613  -28.5616 N   0  0  0  0  0  0  0  0  0  0  0  0
   -1.7707   17.3322  -20.8198 C   0  0  0  0  0  0  0  0  0  0  0  0
   -2.3075   10.3632  -30.1947 C   0  0  0  0  0  0  0  0  0  0  0  0
   -3.8997   17.5200  -24.8494 O   0  0  0  0  0  1  0  0  0  0  0  0
   -2.6889   18.5211  -24.6111 S   0  0  0  0  0  4  0  0  0  0  0  0
   -2.0922   12.4141  -28.9404 C   0  0  0  0  0  0  0  0  0  0  0  0
   -1.8164   18.5809  -25.6788 C   0  0  0  0  0  0  0  0  0  0  0  0
   -0.8080   16.8712  -27.9834 C   0  0  0  0  0  0  0  0  0  0  0  0
   -1.7283   17.5539  -26.6662 C   0  0  0  0  0  0  0  0  0  0  0  0
   -2.8969    9.4830  -26.8723 C   0  0  0  0  0  0  0  0  0  0  0  0
   -2.9015    8.1490  -27.0520 F   0  0  0  0  0  0  0  0  0  0  0  0
   -1.7757   13.8332  -29.1271 N   0  0  0  0  0  0  0  0  0  0  0  0
   -1.6170   18.0484  -23.0818 C   0  0  0  0  0  0  0  0  0  0  0  0
   -2.1882   11.7635  -30.2460 C   0  0  0  0  0  0  0  0  0  0  0  0
   -3.5311   19.4882  -24.6214 O   0  0  0  0  0  1  0  0  0  0  0  0
    0.8330   18.8783  -28.3851 C   0  0  2  0  0  0  0  0  0  0  0  0
   -1.2076   18.9695  -20.8295 C   0  0  0  0  0  0  0  0  0  0  0  0
    0.9733   17.0720  -29.2131 C   0  0  0  0  0  0  0  0  0  0  0  0
   -2.6366    9.6094  -25.8692 F   0  0  0  0  0  0  0  0  0  0  0  0
    2.2107   18.2494  -30.3503 C   0  0  0  0  0  0  0  0  0  0  0  0
   -2.5883    9.6779  -28.9810 C   0  0  0  0  0  0  0  0  0  0  0  0
   -0.4560   17.8970  -27.8781 C   0  0  0  0  0  0  0  0  0  0  0  0
   -1.1259   18.1544  -22.4987 C   0  0  0  0  0  0  0  0  0  0  0  0
  5  1  2  0
  7  2  2  0
  9  8  2  0
 10  6  1  0
 11  8  1  0
 12  3  1  0
 15 14  1  0
 16  1  1  0
 17  7  1  0
 17 15  1  0
 18 11  1  0
 19 17  2  0
 19 18  1  0
 20  5  1  0
 21 20  1  0
 22  8  1  0
 22 16  1  0
 23 15  1  0
 24 13  1  0
 24 16  2  0
 25 15  1  0
 26  2  1  0
 26  4  1  6
 27 12  1  0
 28  6  2  3
 29 20  1  0
 30  4  2  3
 30 10  1  0
 31  5  1  0
 31 13  2  0
 32  2  1  0
 32 18  2  0
 32 26  1  0
 33  3  1  0
 33 23  1  0
 33 27  1  0
M  RAD  2  14   2  25   2
M  END
>  <ID>  (1) 
conformer_0

$$$$
