
     RDKit          3D

 28 33  0  0  0  0  0  0  0  0999 V2000
   -2.7264   10.2583  -28.5870 C   0  0  0  0  0  0  0  0  0  0  0  0
   -0.4177   19.5223  -26.7570 C   0  0  0  0  0  0  0  0  0  0  0  0
   -0.4509   18.1799  -21.7412 C   0  0  0  0  0  0  0  0  0  0  0  0
   -2.2881   11.3869  -27.9149 C   0  0  0  0  0  0  0  0  0  0  0  0
   -1.1275   17.9021  -27.0076 C   0  0  0  0  0  0  0  0  0  0  0  0
    2.6180   18.1407  -30.7071 C   0  0  0  0  0  0  0  0  0  0  0  0
    0.2451   18.4592  -28.0592 C   0  0  0  0  0  0  0  0  0  0  0  0
    2.8677   16.6649  -29.8039 S   0  0  0  0  0  0  0  0  0  0  0  0
   -1.6989   18.6030  -25.9324 C   0  0  0  0  0  0  0  0  0  0  0  0
   -2.3355   10.3549  -30.0922 C   0  0  0  0  0  0  0  0  0  0  0  0
   -2.5026   18.6837  -24.5833 S   0  0  0  0  0  4  0  0  0  0  0  0
   -0.7700   16.0535  -28.7180 N   0  0  0  0  0  0  0  0  0  0  0  0
   -1.8484   14.7942  -28.4738 C   0  0  0  0  0  0  0  0  0  0  0  0
   -2.4901   14.4695  -27.6174 O   0  0  0  0  0  0  0  0  0  0  0  0
   -3.2288    9.7476  -26.9445 C   0  0  0  0  0  0  0  0  0  0  0  0
   -1.8274   12.4682  -28.8462 C   0  0  0  0  0  0  0  0  0  0  0  0
   -2.8843   10.0612  -25.5724 F   0  0  0  0  0  0  0  0  0  0  0  0
   -4.0591   18.0906  -24.9433 O   0  0  0  0  0  1  0  0  0  0  0  0
   -1.4656   18.1710  -22.7590 C   0  0  0  0  0  0  0  0  0  0  0  0
    1.4512   17.0941  -29.4114 C   0  0  0  0  0  0  0  0  0  0  0  0
   -1.4824   18.3339  -20.9226 C   0  0  0  0  0  0  0  0  0  0  0  0
    1.3569   18.4194  -29.6691 C   0  0  0  0  0  0  0  0  0  0  0  0
   -1.7464   11.6688  -30.2241 C   0  0  0  0  0  0  0  0  0  0  0  0
   -1.1904   13.8760  -28.9845 N   0  0  0  0  0  0  0  0  0  0  0  0
   -3.1702    8.5343  -27.0227 F   0  0  0  0  0  0  0  0  0  0  0  0
   -0.6238   17.0739  -28.0572 C   0  0  0  0  0  0  0  0  0  0  0  0
   -4.4536   10.1802  -26.4703 F   0  0  0  0  0  0  0  0  0  0  0  0
   -3.2311   19.7878  -24.6549 O   0  0  0  0  0  1  0  0  0  0  0  0
  4  1  2  0
  5  2  1  0
  7  2  1  0
  7  5  1  0
  8  6  1  0
  9  2  2  0
  9  5  1  0
 10  1  1  0
 11  9  1  0
 13 12  1  0
 14 13  2  0
 15  1  1  0
 16  4  1  0
 17 15  1  0
 18 11  1  0
 19  3  1  0
 19 11  1  0
 20  8  1  0
 21  3  1  0
 21 19  1  0
 22  6  1  0
 22  7  1  0
 22 20  1  0
 23 10  1  0
 23 16  2  0
 24 13  1  0
 24 16  1  0
 25 15  1  0
 26  5  1  0
 26  7  1  0
 26 12  1  0
 27 15  1  0
 28 11  1  0
M  RAD  2  18   2  28   2
M  END
>  <ID>  (1) 
conformer_0

$$$$
