
     RDKit          3D

 28 30  0  0  0  0  0  0  0  0999 V2000
   -2.5154   11.3148  -27.9133 C   0  0  0  0  0  0  0  0  0  0  0  0
    0.1953   18.9423  -27.6974 C   0  0  0  0  0  0  0  0  0  0  0  0
    1.3991   18.9121  -29.5895 C   0  0  0  0  0  0  0  0  0  0  0  0
   -1.0934   17.1127  -21.1352 C   0  0  0  0  0  0  0  0  0  0  0  0
   -2.3498   10.2431  -30.0239 C   0  0  0  0  0  0  0  0  0  0  0  0
   -0.7873   16.0527  -28.6095 N   0  0  0  0  0  0  0  0  0  0  0  0
   -2.4539   18.6438  -24.3384 S   0  0  0  0  0  4  0  0  0  0  0  0
    2.0944   17.7977  -30.0929 C   0  0  0  0  0  0  0  0  0  0  0  0
   -2.5601   14.7597  -27.5520 O   0  0  0  0  0  0  0  0  0  0  0  0
   -1.7255   14.8075  -28.2899 C   0  0  0  0  0  0  0  0  0  0  0  0
   -0.4525   19.4460  -26.4509 C   0  0  0  0  0  0  0  0  0  0  0  0
   -1.9844   12.3251  -28.7668 C   0  0  0  0  0  0  0  0  0  0  0  0
   -0.1191   17.2312  -28.2092 C   0  0  0  0  0  0  0  0  0  0  0  0
   -2.0217   11.6053  -30.2631 C   0  0  0  0  0  0  0  0  0  0  0  0
   -1.2851   18.0204  -22.3937 C   0  0  0  0  0  0  0  0  0  0  0  0
   -1.5730   18.4171  -25.9360 C   0  0  0  0  0  0  0  0  0  0  0  0
   -3.9020   17.9755  -24.5686 O   0  0  0  0  0  1  0  0  0  0  0  0
   -3.2791    9.6189  -27.0546 C   0  0  0  0  0  0  0  0  0  0  0  0
   -2.7908    9.9565  -25.7246 F   0  0  0  0  0  0  0  0  0  0  0  0
   -1.4012   13.6168  -28.8359 N   0  0  0  0  0  0  0  0  0  0  0  0
   -1.3181   17.7840  -26.7329 C   0  0  0  0  0  0  0  0  0  0  0  0
    2.7310   17.0035  -29.9956 S   0  0  0  0  0  0  0  0  0  0  0  0
   -2.7764   10.0166  -28.6159 C   0  0  0  0  0  0  0  0  0  0  0  0
   -2.9421   19.8198  -24.3562 O   0  0  0  0  0  1  0  0  0  0  0  0
   -1.7335   18.4356  -20.8927 C   0  0  0  0  0  0  0  0  0  0  0  0
    0.9026   17.7343  -28.8685 C   0  0  2  0  0  0  0  0  0  0  0  0
   -3.0527    8.4030  -27.0543 F   0  0  0  0  0  0  0  0  0  0  0  0
   -4.5346    9.8747  -26.6995 F   0  0  0  0  0  0  0  0  0  0  0  0
  8  3  1  0
 10  6  1  0
 10  9  2  0
 11  2  2  3
 12  1  2  0
 13  2  1  0
 13  6  2  3
 14  5  2  0
 14 12  1  0
 15  4  1  0
 15  7  1  0
 16  7  1  0
 16 11  1  0
 17  7  1  0
 19 18  1  0
 20 10  1  0
 20 12  1  0
 21 16  2  3
 22  8  2  0
 23  1  1  0
 23  5  1  0
 23 18  1  0
 24  7  1  0
 25  4  1  0
 25 15  1  0
 26  3  1  6
 26  8  1  0
 26 13  1  0
 27 18  1  0
 28 18  1  0
M  RAD  2  17   2  24   2
M  END
>  <ID>  (1) 
conformer_0

$$$$
