
     RDKit          3D

 28 32  0  0  0  0  0  0  0  0999 V2000
   -2.3195   11.4485  -27.8838 C   0  0  0  0  0  0  0  0  0  0  0  0
   -0.7078   17.8070  -21.7186 C   0  0  0  0  0  0  0  0  0  0  0  0
   -0.1435   18.8856  -27.2454 C   0  0  0  0  0  0  0  0  0  0  0  0
    0.7912   18.3639  -28.8521 C   0  0  0  0  0  0  0  0  0  0  0  0
   -2.4763   10.1314  -29.9253 C   0  0  0  0  0  0  0  0  0  0  0  0
    2.7515   17.9219  -30.5609 C   0  0  0  0  0  0  0  0  0  0  0  0
    2.7229   16.6607  -30.0685 S   0  0  0  0  0  0  0  0  0  0  0  0
   -0.8082   16.1163  -28.7611 N   0  0  0  0  0  0  0  0  0  0  0  0
   -0.5359   19.5031  -25.9813 C   0  0  0  0  0  0  0  0  0  0  0  0
   -2.7343   18.6644  -24.5034 S   0  0  0  0  0  4  0  0  0  0  0  0
   -1.8247   18.6402  -25.5879 C   0  0  0  0  0  0  0  0  0  0  0  0
   -2.5259   14.4991  -27.7210 O   0  0  0  0  0  0  0  0  0  0  0  0
   -4.1631   17.8586  -24.8340 O   0  0  0  0  0  1  0  0  0  0  0  0
   -1.9424   11.4225  -30.2571 C   0  0  0  0  0  0  0  0  0  0  0  0
   -1.7262   14.7825  -28.3622 C   0  0  0  0  0  0  0  0  0  0  0  0
    1.2499   17.2216  -29.2918 C   0  0  0  0  0  0  0  0  0  0  0  0
   -1.9496   12.3260  -28.9166 C   0  0  0  0  0  0  0  0  0  0  0  0
   -1.5517   13.7538  -29.1357 N   0  0  0  0  0  0  0  0  0  0  0  0
   -3.0260   10.1857  -25.6314 F   0  0  0  0  0  0  0  0  0  0  0  0
   -2.9412    9.5530  -26.8424 C   0  0  0  0  0  0  0  0  0  0  0  0
   -1.8838   18.2884  -22.5752 C   0  0  0  0  0  0  0  0  0  0  0  0
   -1.4406   17.8773  -26.8670 C   0  0  0  0  0  0  0  0  0  0  0  0
   -1.5973   18.4085  -21.1229 C   0  0  0  0  0  0  0  0  0  0  0  0
   -3.3056   19.9378  -24.5196 O   0  0  0  0  0  1  0  0  0  0  0  0
   -2.7266   10.1666  -28.3018 C   0  0  0  0  0  0  0  0  0  0  0  0
   -2.9046    8.5743  -26.7409 F   0  0  0  0  0  0  0  0  0  0  0  0
   -0.7067   17.3388  -27.8431 C   0  0  0  0  0  0  0  0  0  0  0  0
    1.7662   18.7341  -30.1167 C   0  0  0  0  0  0  0  0  0  0  0  0
  4  3  1  0
  7  6  1  0
  9  3  1  0
 11  9  2  0
 11 10  1  0
 13 10  1  0
 14  5  2  0
 15  8  1  0
 15 12  2  0
 16  4  1  0
 16  7  1  0
 17  1  2  0
 17 14  1  0
 18 15  1  0
 18 17  1  0
 20 19  1  0
 21  2  1  0
 21 10  1  0
 22  3  1  0
 22 11  1  0
 23  2  1  0
 23 21  1  0
 24 10  1  0
 25  1  1  0
 25  5  1  0
 25 20  1  0
 26 20  1  0
 27  3  1  0
 27  8  1  0
 27 22  1  0
 28  4  1  0
 28  6  2  0
M  RAD  2  13   2  24   2
M  END
>  <ID>  (1) 
conformer_0

$$$$
