
     RDKit          3D

 28 29  0  0  0  0  0  0  0  0999 V2000
   -0.4971   19.5598  -26.1171 C   0  0  0  0  0  0  0  0  0  0  0  0
   -2.7436   10.2606  -28.1298 C   0  0  0  0  0  0  0  0  0  0  0  0
    0.4284   18.0478  -28.1791 C   0  0  1  0  0  0  0  0  0  0  0  0
   -2.2918   10.1473  -29.6562 C   0  0  0  0  0  0  0  0  0  0  0  0
    2.1114   18.0970  -30.1857 C   0  0  0  0  0  0  0  0  0  0  0  0
    1.2553   18.8875  -29.2670 C   0  0  0  0  0  0  0  0  0  0  0  0
   -2.3796   14.5868  -27.5174 O   0  0  0  0  0  0  0  0  0  0  0  0
   -2.2083   18.8048  -24.1153 S   0  0  0  0  0  4  0  0  0  0  0  0
   -1.7782   14.7984  -28.4029 C   0  0  0  0  0  0  0  0  0  0  0  0
   -0.7510   15.9145  -28.7279 N   0  0  0  0  0  0  0  0  0  0  0  0
   -1.9219   12.3940  -28.7731 C   0  0  0  0  0  0  0  0  0  0  0  0
    2.4991   17.0155  -30.2912 S   0  0  0  0  0  0  0  0  0  0  0  0
   -1.4758   18.6556  -25.5778 C   0  0  0  0  0  0  0  0  0  0  0  0
   -1.9317   11.4525  -30.0915 C   0  0  0  0  0  0  0  0  0  0  0  0
   -3.7826   18.5435  -24.6643 O   0  0  0  0  0  1  0  0  0  0  0  0
   -2.6584    9.9598  -25.5092 F   0  0  0  0  0  0  0  0  0  0  0  0
   -3.2000    9.6147  -26.8393 C   0  0  0  0  0  0  0  0  0  0  0  0
   -1.0326   17.7747  -21.2495 C   0  0  0  0  0  0  0  0  0  0  0  0
   -0.0559   19.0827  -27.3189 C   0  0  0  0  0  0  0  0  0  0  0  0
    0.5301   17.0710  -28.7926 C   0  0  0  0  0  0  0  0  0  0  0  0
   -0.9535   18.0892  -22.3228 C   0  0  0  0  0  0  0  0  0  0  0  0
   -1.4259   13.6791  -29.0452 N   0  0  0  0  0  0  0  0  0  0  0  0
   -2.5610   11.5090  -27.7554 C   0  0  0  0  0  0  0  0  0  0  0  0
   -3.0471    8.4405  -26.8702 F   0  0  0  0  0  0  0  0  0  0  0  0
   -4.5125   10.1434  -26.3328 F   0  0  0  0  0  0  0  0  0  0  0  0
   -1.2462   17.7553  -26.6306 C   0  0  0  0  0  0  0  0  0  0  0  0
   -2.6263   20.0490  -24.1069 O   0  0  0  0  0  1  0  0  0  0  0  0
   -0.2532   18.7419  -22.8769 F   0  0  0  0  0  0  0  0  0  0  0  0
  4  2  2  0
  3  6  1  6
  6  5  1  0
  9  7  2  0
 10  9  1  0
 12  5  2  0
 13  1  2  0
 13  8  1  0
 14  4  1  0
 14 11  2  0
 15  8  1  0
 17  2  1  0
 17 16  1  0
 19  1  1  0
 19  3  1  0
 20  3  1  0
 20 10  1  0
 21  8  1  0
 21 18  2  3
 22  9  1  0
 22 11  1  0
 23  2  1  0
 23 11  1  0
 24 17  1  0
 25 17  1  0
 26 13  1  0
 26 19  2  0
 27  8  1  0
 28 21  1  0
M  RAD  2  15   2  27   2
M  END
>  <ID>  (1) 
conformer_0

$$$$
