
     RDKit          3D

 23 24  0  0  0  0  0  0  0  0999 V2000
   -2.1688   11.6433  -30.1162 C   0  0  0  0  0  0  0  0  0  0  0  0
   -0.6809   19.3789  -26.5345 C   0  0  0  0  0  0  0  0  0  0  0  0
   -2.2153   11.5108  -27.8276 C   0  0  0  0  0  0  0  0  0  0  0  0
   -0.9286   17.7642  -21.3268 C   0  0  0  0  0  0  0  0  0  0  0  0
   -1.1155   17.5816  -26.8605 C   0  0  0  0  0  0  0  0  0  0  0  0
    0.2276   16.9497  -28.6243 C   0  0  0  0  0  0  0  0  0  0  0  0
    0.0693   18.4238  -27.8376 C   0  0  0  0  0  0  0  0  0  0  0  0
    2.4213   16.6854  -29.7875 S   0  0  0  0  0  0  0  0  0  0  0  0
   -1.5811   18.1044  -26.0475 C   0  0  2  0  0  0  0  0  0  0  0  0
   -0.5390   15.9939  -28.8018 N   0  0  0  0  0  0  0  0  0  0  0  0
   -2.3988   18.3724  -24.3446 S   0  0  0  0  0  3  0  0  0  0  0  0
   -2.0176   14.2803  -27.4593 O   0  0  0  0  0  0  0  0  0  0  0  0
   -1.9374   14.5275  -28.8917 C   0  0  2  0  0  0  0  0  0  0  0  0
   -2.6565   10.2100  -29.8930 C   0  0  0  0  0  0  0  0  0  0  0  0
   -3.6842   18.2558  -24.6872 O   0  0  0  0  0  1  0  0  0  0  0  0
   -1.9259   12.4136  -28.8893 C   0  0  0  0  0  0  0  0  0  0  0  0
    2.0726   17.6969  -30.1683 C   0  0  0  0  0  0  0  0  0  0  0  0
   -3.0232    9.9140  -26.8012 C   0  0  0  0  0  0  0  0  0  0  0  0
   -1.1856   18.0751  -22.3629 C   0  0  0  0  0  0  0  0  0  0  0  0
   -1.4158   14.0484  -29.2066 N   0  0  0  0  0  0  0  0  0  0  0  0
    1.1871   18.4062  -29.6001 C   0  0  0  0  0  0  0  0  0  0  0  0
   -2.7636   10.1948  -28.3266 C   0  0  0  0  0  0  0  0  0  0  0  0
   -3.2253    9.7143  -26.0118 F   0  0  0  0  0  0  0  0  0  0  0  0
  7  2  1  0
  7  5  2  0
  7  6  1  0
  9  2  1  0
  9  5  1  0
 10  6  2  3
 11  9  1  0
 13 10  1  0
 13 12  1  1
 14  1  2  0
 15 11  1  0
 16  1  1  0
 16  3  1  0
 17  8  2  0
 19  4  3  0
  9 19  1  6
 20 13  1  0
 20 16  1  0
 21  6  1  0
 21 17  1  0
 22  3  2  0
 22 14  1  0
 22 18  1  0
 23 18  1  0
M  RAD  2  11   2  15   2
M  END
>  <ID>  (1) 
conformer_0

$$$$
