
     RDKit          3D

 33 38  0  0  0  0  0  0  0  0999 V2000
   -2.4648   10.5242  -30.3761 C   0  0  0  0  0  0  0  0  0  0  0  0
   -1.1305   17.4984  -27.2428 C   0  0  0  0  0  0  0  0  0  0  0  0
    0.1367   18.3755  -27.8506 C   0  0  2  0  0  0  0  0  0  0  0  0
   -1.3786   16.9453  -20.8577 C   0  0  0  0  0  0  0  0  0  0  0  0
   -1.9621   11.8267  -28.0781 C   0  0  0  0  0  0  0  0  0  0  0  0
   -1.8272   18.2008  -25.6685 C   0  0  1  0  0  0  0  0  0  0  0  0
    0.7624   19.1083  -29.1537 C   0  0  1  0  0  0  0  0  0  0  0  0
    2.4924   18.1881  -30.3785 C   0  0  0  0  0  0  0  0  0  0  0  0
    2.9497   17.0186  -30.1656 S   0  0  0  0  0  0  0  0  0  0  0  0
   -2.5462   10.6630  -27.9145 C   0  0  0  0  0  0  0  0  0  0  0  0
   -2.5981   14.2956  -27.3627 O   0  0  0  0  0  0  0  0  0  0  0  0
   -4.1618   17.4556  -24.4167 O   0  0  0  0  0  1  0  0  0  0  0  0
   -2.4062   10.1041  -25.6464 F   0  0  0  0  0  0  0  0  0  0  0  0
   -1.6236   18.1636  -22.6819 C   0  0  2  0  0  0  0  0  0  0  0  0
   -1.8053   18.4676  -20.9576 C   0  0  2  0  0  0  0  0  0  0  0  0
   -1.4921   13.6832  -29.1895 N   0  0  0  0  0  0  0  0  0  0  0  0
   -2.5713   18.2512  -24.4489 S   0  0  0  0  0  4  0  0  0  0  0  0
   -1.9668   14.5636  -28.3085 C   0  0  2  0  0  0  0  0  0  0  0  0
   -1.7967   12.5948  -29.0131 C   0  0  0  0  0  0  0  0  0  0  0  0
   -3.0271    9.8118  -26.8658 C   0  0  0  0  0  0  0  0  0  0  0  0
   -2.5389   15.9354  -26.8191 S   0  0  0  0  0  0  0  0  0  0  0  0
    1.4500   18.9650  -30.2923 C   0  0  0  0  0  0  0  0  0  0  0  0
   -1.5169   16.8687  -27.4170 C   0  0  0  0  0  0  0  0  0  0  0  0
   -1.9123   11.8570  -30.2714 C   0  0  0  0  0  0  0  0  0  0  0  0
   -2.9285    8.4831  -26.9897 F   0  0  0  0  0  0  0  0  0  0  0  0
   -0.7785   19.1257  -26.2107 C   0  0  0  0  0  0  0  0  0  0  0  0
    1.2359   17.0898  -29.1134 C   0  0  0  0  0  0  0  0  0  0  0  0
   -4.1350   10.1976  -26.3112 F   0  0  0  0  0  0  0  0  0  0  0  0
   -3.4548   19.2573  -24.5353 O   0  0  0  0  0  1  0  0  0  0  0  0
   -0.3866   17.5955  -21.8759 C   0  0  1  0  0  0  0  0  0  0  0  0
   -1.4318   15.7015  -28.6962 N   0  0  0  0  0  0  0  0  0  0  0  0
   -2.8689    9.8841  -29.1559 C   0  0  0  0  0  0  0  0  0  0  0  0
    0.6138   17.2105  -28.9439 C   0  0  1  0  0  0  0  0  0  0  0  0
  3  2  1  6
  6  2  1  0
  7  3  1  0
  9  8  1  0
 10  5  1  0
 15  4  1  1
 15 14  1  0
 17  6  1  0
 17 12  1  0
 14 17  1  1
 18 11  1  0
 18 16  1  1
 19  5  2  0
 19 16  1  0
 20 10  1  0
 20 13  1  0
 21 11  1  0
  7 22  1  1
 22  8  1  0
 23  2  2  3
 23 21  1  0
 24  1  2  0
 24 19  1  0
 25 20  1  0
  6 26  1  1
 27  9  1  0
 28 20  1  0
 29 17  1  0
 30  4  1  1
 30 14  1  0
 30 15  1  0
 31 18  1  0
 31 23  1  0
 32  1  1  0
 32 10  2  0
 33  3  1  0
 33  7  1  0
 33 27  1  1
M  RAD  2  12   2  29   2
M  END
>  <ID>  (1) 
conformer_0

$$$$
