
     RDKit          3D

 31 37  0  0  0  0  0  0  0  0999 V2000
   -2.8232   10.2199  -28.1336 C   0  0  0  0  0  0  0  0  0  0  0  0
    1.5241   18.8652  -29.6296 C   0  0  0  0  0  0  0  0  0  0  0  0
   -0.0412   19.0250  -27.2680 C   0  0  0  0  0  0  0  0  0  0  0  0
   -0.8549   17.2503  -21.2499 C   0  0  0  0  0  0  0  0  0  0  0  0
   -2.5865    9.9498  -29.5969 C   0  0  0  0  0  0  0  0  0  0  0  0
    2.7487   17.8454  -30.2428 C   0  0  0  0  0  0  0  0  0  0  0  0
   -2.2098   14.4948  -27.7103 O   0  0  0  0  0  0  0  0  0  0  0  0
   -1.3046   17.9677  -26.5371 C   0  0  0  0  0  0  0  0  0  0  0  0
   -1.8447   12.2177  -28.9529 C   0  0  0  0  0  0  0  0  0  0  0  0
   -1.3247   17.9492  -22.4074 C   0  0  0  0  0  0  0  0  0  0  0  0
   -0.7285   15.9220  -28.7990 N   0  0  0  0  0  0  0  0  0  0  0  0
   -3.1672    8.1913  -27.1656 F   0  0  0  0  0  0  0  0  0  0  0  0
    1.1526   16.9461  -29.1898 C   0  0  0  0  0  0  0  0  0  0  0  0
   -1.8193   18.5436  -25.5270 C   0  0  0  0  0  0  0  0  0  0  0  0
    2.8380   16.6503  -30.4016 S   0  0  0  0  0  0  0  0  0  0  0  0
   -1.9875   11.1114  -30.1113 C   0  0  0  0  0  0  0  0  0  0  0  0
   -2.5719   18.6798  -24.3248 S   0  0  0  0  0  4  0  0  0  0  0  0
   -4.0904   18.0223  -24.7129 O   0  0  0  0  0  1  0  0  0  0  0  0
   -1.6573   14.5394  -28.6500 C   0  0  0  0  0  0  0  0  0  0  0  0
   -1.3122   13.4476  -29.2797 N   0  0  0  0  0  0  0  0  0  0  0  0
   -3.4856    9.3893  -27.2188 C   0  0  0  0  0  0  0  0  0  0  0  0
   -4.8173    9.4807  -27.2864 F   0  0  0  0  0  0  0  0  0  0  0  0
   -0.9339   19.7180  -25.8610 C   0  0  0  0  0  0  0  0  0  0  0  0
   -1.7983   18.3947  -20.7375 C   0  0  0  0  0  0  0  0  0  0  0  0
   -3.2940    9.7662  -25.9414 F   0  0  0  0  0  0  0  0  0  0  0  0
   -2.0042   16.3908  -26.8250 S   0  0  0  0  0  3  0  0  0  0  0  0
   -3.1291   19.8721  -24.2303 O   0  0  0  0  0  1  0  0  0  0  0  0
   -2.2595   11.4796  -27.8160 C   0  0  0  0  0  0  0  0  0  0  0  0
    1.4605   17.0903  -29.1383 C   0  0  0  0  0  0  0  0  0  0  0  0
    0.3078   18.1523  -28.1904 C   0  0  0  0  0  0  0  0  0  0  0  0
   -0.7985   17.2683  -27.7208 C   0  0  0  0  0  0  0  0  0  0  0  0
  5  1  2  0
  6  2  1  0
  8  3  1  0
 10  4  1  0
 14  8  1  0
 15  6  1  0
 16  5  1  0
 16  9  2  0
 17 10  1  0
 17 14  1  0
 18 17  1  0
 19  7  1  0
 19 11  1  0
 20  9  1  0
 20 19  1  0
 21  1  1  0
 21 12  1  0
 22 21  1  0
 23  3  1  0
 23 14  2  0
 24  4  1  0
 24 10  1  0
 25 21  1  0
 26  7  1  0
 26  8  1  0
 27 17  1  0
 28  1  1  0
 28  9  1  0
 29  2  1  0
 29 13  1  0
 29 15  1  0
 30  3  1  0
 30 13  1  0
 31  8  1  0
 31 11  1  0
 31 26  1  0
 31 30  1  0
M  RAD  3  18   2  26   2  27   2
M  END
>  <ID>  (1) 
conformer_0

$$$$
