
     RDKit          3D

 31 38  0  0  0  0  0  0  0  0999 V2000
   -1.3288   17.7011  -26.8506 C   0  0  0  0  0  0  0  0  0  0  0  0
   -1.2056   17.0972  -21.1255 C   0  0  0  0  0  0  0  0  0  0  0  0
   -1.9321   11.8150  -30.1406 C   0  0  0  0  0  0  0  0  0  0  0  0
   -0.5494   19.3923  -26.2073 C   0  0  0  0  0  0  0  0  0  0  0  0
   -2.1060   11.6940  -27.8629 C   0  0  0  0  0  0  0  0  0  0  0  0
   -0.1067   18.2822  -27.6791 C   0  0  0  0  0  0  0  0  0  0  0  0
   -1.1034   15.9467  -28.7256 N   0  0  0  0  0  0  0  0  0  0  0  0
    2.0660   17.7154  -30.1448 C   0  0  0  0  0  0  0  0  0  0  0  0
   -2.7291   14.5903  -27.6350 O   0  0  0  0  0  0  0  0  0  0  0  0
   -2.3557   18.6178  -24.4762 S   0  0  0  0  0  4  0  0  0  0  0  0
   -1.7260   18.3949  -25.6552 C   0  0  0  0  0  0  0  0  0  0  0  0
   -2.5415   10.5282  -30.3112 C   0  0  0  0  0  0  0  0  0  0  0  0
   -2.9542   10.1770  -25.6427 F   0  0  0  0  0  0  0  0  0  0  0  0
   -1.9803   12.4754  -28.8138 C   0  0  0  0  0  0  0  0  0  0  0  0
   -2.0062   14.7147  -28.4869 C   0  0  0  0  0  0  0  0  0  0  0  0
    1.4518   18.9417  -30.0830 C   0  0  0  0  0  0  0  0  0  0  0  0
   -2.7301   20.0681  -24.0936 O   0  0  0  0  0  1  0  0  0  0  0  0
   -0.5716   16.9114  -28.3069 C   0  0  0  0  0  0  0  0  0  0  0  0
   -3.2105    9.7006  -26.9332 C   0  0  0  0  0  0  0  0  0  0  0  0
   -2.0209   18.4507  -20.5351 C   0  0  0  0  0  0  0  0  0  0  0  0
   -1.5689   18.2119  -22.4374 C   0  0  0  0  0  0  0  0  0  0  0  0
    2.8712   17.0381  -30.4721 S   0  0  0  0  0  0  0  0  0  0  0  0
    0.7059   18.8638  -28.5950 C   0  0  0  0  0  0  0  0  0  0  0  0
   -1.5795   13.7784  -29.1013 N   0  0  0  0  0  0  0  0  0  0  0  0
   -2.7691   10.5203  -27.9157 C   0  0  0  0  0  0  0  0  0  0  0  0
   -2.8966    8.5706  -26.8488 F   0  0  0  0  0  0  0  0  0  0  0  0
   -4.5236    9.6745  -26.8487 F   0  0  0  0  0  0  0  0  0  0  0  0
    0.9660   17.1664  -29.0922 C   0  0  0  0  0  0  0  0  0  0  0  0
   -3.9197   18.4191  -24.4172 O   0  0  0  0  0  1  0  0  0  0  0  0
   -2.9130    9.8021  -29.1395 C   0  0  0  0  0  0  0  0  0  0  0  0
   -0.5043   18.6693  -21.3812 C   0  0  0  0  0  0  0  0  0  0  0  0
  6  1  1  0
  6  4  1  0
 11  1  1  0
 11  4  2  0
 11 10  1  0
 12  3  2  0
 14  3  1  0
 14  5  2  0
 15  7  1  0
 15  9  2  0
 16  8  1  0
 17 10  1  0
 18  1  1  0
 18  6  1  0
 18  7  1  0
 19 13  1  0
 20  2  1  0
 21  2  1  0
 21 10  1  0
 21 20  1  0
 22  8  2  0
 23  6  1  0
 23 16  1  0
 24 14  1  0
 24 15  1  0
 25  5  1  0
 25 19  1  0
 26 19  1  0
 27 19  1  0
 28  8  1  0
 28 18  1  0
 28 23  1  0
 29 10  1  0
 30 12  1  0
 30 25  2  0
 31  2  1  0
 31 20  1  0
 31 21  1  0
M  RAD  2  17   2  29   2
M  END
>  <ID>  (1) 
conformer_0

$$$$
