
     RDKit          3D

 29 31  0  0  0  0  0  0  0  0999 V2000
   -2.2611   11.6851  -27.8041 C   0  0  0  0  0  0  0  0  0  0  0  0
   -0.0944   18.1897  -27.6701 C   0  0  0  0  0  0  0  0  0  0  0  0
    0.7366   18.5554  -28.4973 C   0  0  0  0  0  0  0  0  0  0  0  0
   -0.6966   17.5400  -21.6129 C   0  0  0  0  0  0  0  0  0  0  0  0
   -2.5455   10.3576  -28.2879 C   0  0  0  0  0  0  0  0  0  0  0  0
    1.5042   18.9707  -29.5909 C   0  0  0  0  0  0  0  0  0  0  0  0
    2.4288   18.0534  -30.2988 C   0  0  0  0  0  0  0  0  0  0  0  0
   -1.9420   12.6182  -28.8799 C   0  0  0  0  0  0  0  0  0  0  0  0
    2.5821   17.0860  -30.3656 S   0  0  0  0  0  0  0  0  0  0  0  0
   -2.3751   14.7142  -27.4655 O   0  0  0  0  0  0  0  0  0  0  0  0
   -2.6055    8.3194  -27.0969 F   0  0  0  0  0  0  0  0  0  0  0  0
   -1.5240   18.1397  -22.5295 C   0  0  0  0  0  0  0  0  0  0  0  0
   -2.5727   18.6102  -24.4218 S   0  0  0  0  0  4  0  0  0  0  0  0
   -0.7948   15.9260  -28.8403 N   0  0  0  0  0  0  0  0  0  0  0  0
   -1.8002   18.2500  -25.9348 C   0  0  0  0  0  0  0  0  0  0  0  0
   -0.5689   19.2422  -26.4026 C   0  0  0  0  0  0  0  0  0  0  0  0
   -2.2330   10.3141  -29.7288 C   0  0  0  0  0  0  0  0  0  0  0  0
   -4.1264   18.0177  -24.6922 O   0  0  0  0  0  1  0  0  0  0  0  0
   -3.0651    9.5502  -27.1426 C   0  0  0  0  0  0  0  0  0  0  0  0
   -1.7100   14.9427  -28.3737 C   0  0  0  0  0  0  0  0  0  0  0  0
   -1.6036   18.4004  -20.7465 C   0  0  0  0  0  0  0  0  0  0  0  0
   -1.6533   13.8590  -29.2649 N   0  0  0  0  0  0  0  0  0  0  0  0
   -4.3092    9.2972  -27.3158 F   0  0  0  0  0  0  0  0  0  0  0  0
   -1.5125   17.4042  -26.7941 C   0  0  0  0  0  0  0  0  0  0  0  0
    0.6779   17.0980  -28.8446 C   0  0  0  0  0  0  0  0  0  0  0  0
   -2.0378   11.6441  -30.2136 C   0  0  0  0  0  0  0  0  0  0  0  0
   -2.9628   19.7868  -24.3673 O   0  0  0  0  0  1  0  0  0  0  0  0
   -2.7592    9.8474  -25.8931 F   0  0  0  0  0  0  0  0  0  0  0  0
   -2.1135   18.3714  -23.2134 N   0  0  0  0  0  0  0  0  0  0  0  0
  3  2  1  0
  5  1  2  0
  6  3  1  0
  7  6  1  0
  8  1  1  0
  9  7  2  0
 12  4  1  0
 15 13  1  0
 16  2  2  0
 16 15  1  0
 17  5  1  0
 18 13  1  0
 19  5  1  0
 19 11  1  0
 20 10  2  0
 20 14  1  0
 21  4  1  0
 21 12  1  0
 22  8  1  0
 22 20  1  0
 23 19  1  0
 24  2  1  0
 24 15  1  0
 25  3  1  0
 25 14  1  0
 26  8  1  0
 26 17  2  0
 27 13  1  0
 28 19  1  0
 29 12  1  0
 29 13  1  0
M  RAD  2  18   2  27   2
M  END
>  <ID>  (1) 
conformer_0

$$$$
