
     RDKit          3D

 31 35  0  0  0  0  0  0  0  0999 V2000
   -0.8247   19.6418  -26.2000 C   0  0  0  0  0  0  0  0  0  0  0  0
   -1.4831   17.7733  -26.5602 C   0  0  0  0  0  0  0  0  0  0  0  0
   -2.3749   10.4810  -30.2215 C   0  0  0  0  0  0  0  0  0  0  0  0
   -2.0074   18.4686  -20.7212 C   0  0  0  0  0  0  0  0  0  0  0  0
   -2.0904   11.9325  -27.9190 C   0  0  0  0  0  0  0  0  0  0  0  0
   -0.3313   18.2588  -27.3188 C   0  0  0  0  0  0  0  0  0  0  0  0
   -2.3333   14.5540  -27.4823 O   0  0  0  0  0  0  0  0  0  0  0  0
    1.3538   17.0097  -29.1847 C   0  0  0  0  0  0  0  0  0  0  0  0
   -0.7500   15.8688  -28.6633 N   0  0  0  0  0  0  0  0  0  0  0  0
   -1.2867   18.0987  -22.3448 C   0  0  0  0  0  0  0  0  0  0  0  0
   -1.8744   18.6246  -25.6441 C   0  0  0  0  0  0  0  0  0  0  0  0
   -0.7224   16.8708  -28.0139 C   0  0  0  0  0  0  0  0  0  0  0  0
   -2.0389    8.5508  -26.6081 F   0  0  0  0  0  0  0  0  0  0  0  0
   -2.0983   11.8296  -30.1310 C   0  0  0  0  0  0  0  0  0  0  0  0
   -2.6439   18.6888  -24.3434 S   0  0  0  0  0  4  0  0  0  0  0  0
    2.9265   16.9750  -30.4266 S   0  0  0  0  0  0  0  0  0  0  0  0
   -4.0171   17.7271  -24.5094 O   0  0  0  0  0  1  0  0  0  0  0  0
   -2.0749   12.5710  -28.9233 C   0  0  0  0  0  0  0  0  0  0  0  0
   -1.9301   14.6742  -28.5233 C   0  0  0  0  0  0  0  0  0  0  0  0
    1.3143   18.8312  -29.9476 C   0  0  0  0  0  0  0  0  0  0  0  0
   -2.8570    9.4139  -27.1114 C   0  0  0  0  0  0  0  0  0  0  0  0
   -1.8141   13.9979  -29.3349 N   0  0  0  0  0  0  0  0  0  0  0  0
   -2.6948    9.8115  -29.1166 C   0  0  0  0  0  0  0  0  0  0  0  0
   -2.9011   10.1441  -25.7032 F   0  0  0  0  0  0  0  0  0  0  0  0
    0.3948   18.7151  -28.1709 C   0  0  0  0  0  0  0  0  0  0  0  0
   -3.4018   19.7030  -24.4973 O   0  0  0  0  0  1  0  0  0  0  0  0
   -1.1070   17.3798  -21.1783 C   0  0  0  0  0  0  0  0  0  0  0  0
    1.1050   17.3227  -29.0227 C   0  0  0  0  0  0  0  0  0  0  0  0
   -2.5571   10.6357  -27.8287 C   0  0  0  0  0  0  0  0  0  0  0  0
   -3.6388    8.6114  -27.1033 F   0  0  0  0  0  0  0  0  0  0  0  0
    2.5134   18.1572  -30.4930 C   0  0  0  0  0  0  0  0  0  0  0  0
  6  1  1  0
  6  2  1  0
 10  4  1  0
 11  1  2  0
 11  2  1  0
 12  2  1  0
 12  6  1  0
 12  9  1  0
 14  3  2  0
 15 10  1  0
 15 11  1  0
 16  8  1  0
 17 15  1  0
 18  5  2  0
 18 14  1  0
 19  7  2  0
 19  9  1  0
 21 13  1  0
 22 18  1  0
 22 19  1  0
 23  3  1  0
 24 21  1  0
 25  6  1  0
 26 15  1  0
 27  4  1  0
 27 10  1  0
 28  8  1  0
 28 20  1  0
 28 25  1  0
 29  5  1  0
 29 21  1  0
 29 23  2  0
 30 21  1  0
 31 16  1  0
 31 20  2  0
M  RAD  2  17   2  26   2
M  END
>  <ID>  (1) 
conformer_0

$$$$
