
     RDKit          3D

 29 31  0  0  0  0  0  0  0  0999 V2000
   -2.3406   11.5602  -27.8772 C   0  0  0  0  0  0  0  0  0  0  0  0
    1.1058   18.2173  -29.2165 C   0  0  0  0  0  0  0  0  0  0  0  0
    0.1775   18.5269  -27.8735 C   0  0  0  0  0  0  0  0  0  0  0  0
   -2.9002   10.4000  -28.0239 C   0  0  0  0  0  0  0  0  0  0  0  0
    1.7290   18.9222  -30.3175 C   0  0  0  0  0  0  0  0  0  0  0  0
   -1.5071   18.0893  -22.3208 C   0  0  0  0  0  0  0  0  0  0  0  0
    1.4352   17.2186  -29.2676 C   0  0  0  0  0  0  0  0  0  0  0  0
    2.7171   16.6645  -30.3908 S   0  0  0  0  0  0  0  0  0  0  0  0
   -0.7271   17.1255  -27.9078 C   0  0  0  0  0  0  0  0  0  0  0  0
   -2.5825   18.5924  -24.4409 S   0  0  0  0  0  4  0  0  0  0  0  0
   -0.7842   16.1056  -28.7063 N   0  0  0  0  0  0  0  0  0  0  0  0
   -2.3131   10.5316  -30.3676 C   0  0  0  0  0  0  0  0  0  0  0  0
   -1.9481   12.4151  -28.8154 C   0  0  0  0  0  0  0  0  0  0  0  0
   -2.4819   14.5682  -27.8292 O   0  0  0  0  0  0  0  0  0  0  0  0
   -3.9718   18.1775  -24.8357 O   0  0  0  0  0  1  0  0  0  0  0  0
   -1.7761   14.6834  -28.4910 C   0  0  0  0  0  0  0  0  0  0  0  0
   -1.6894   18.3026  -25.9052 C   0  0  0  0  0  0  0  0  0  0  0  0
   -3.5152    9.9148  -27.1669 C   0  0  0  0  0  0  0  0  0  0  0  0
   -1.4124   17.5471  -26.6978 C   0  0  0  0  0  0  0  0  0  0  0  0
   -3.4995   10.3787  -25.9572 F   0  0  0  0  0  0  0  0  0  0  0  0
   -1.5660   17.6972  -21.1521 C   0  0  0  0  0  0  0  0  0  0  0  0
   -1.3456   13.8435  -28.9537 N   0  0  0  0  0  0  0  0  0  0  0  0
   -2.0130   11.9160  -30.1330 C   0  0  0  0  0  0  0  0  0  0  0  0
   -2.9584   19.8008  -24.4078 O   0  0  0  0  0  1  0  0  0  0  0  0
   -0.5891   19.2993  -26.7264 C   0  0  0  0  0  0  0  0  0  0  0  0
    2.7140   18.0117  -30.8527 C   0  0  0  0  0  0  0  0  0  0  0  0
   -4.1066    9.0820  -27.1644 F   0  0  0  0  0  0  0  0  0  0  0  0
   -0.7215   17.1455  -22.0801 F   0  0  0  0  0  0  0  0  0  0  0  0
   -2.7627    9.7917  -29.2772 C   0  0  0  0  0  0  0  0  0  0  0  0
  3  2  1  0
  4  1  2  0
  5  2  1  0
  7  2  2  0
  8  7  1  0
  9  3  2  0
 10  6  1  0
 11  9  1  0
 13  1  1  0
 15 10  1  0
 16 11  1  0
 16 14  2  0
 17 10  1  0
 18  4  1  0
 19  9  1  0
 19 17  2  0
 20 18  1  0
 21  6  1  0
 22 13  1  0
 22 16  1  0
 23 12  1  0
 23 13  2  0
 24 10  1  0
 25  3  1  0
 25 17  1  0
 26  5  2  0
 26  8  1  0
 27 18  1  0
 28  6  1  0
 29  4  1  0
 29 12  2  0
M  RAD  2  15   2  24   2
M  END
>  <ID>  (1) 
conformer_0

$$$$
