
     RDKit          3D

 28 33  0  0  0  0  0  0  0  0999 V2000
   -1.9165   11.4715  -30.1484 C   0  0  0  0  0  0  0  0  0  0  0  0
   -0.8186   18.1719  -21.8047 C   0  0  0  0  0  0  0  0  0  0  0  0
    0.3771   18.9219  -27.9675 C   0  0  0  0  0  0  0  0  0  0  0  0
   -0.8007   17.8233  -27.1930 C   0  0  0  0  0  0  0  0  0  0  0  0
   -2.4701   10.1749  -29.6883 C   0  0  0  0  0  0  0  0  0  0  0  0
    2.0154   17.8098  -29.7804 C   0  0  0  0  0  0  0  0  0  0  0  0
   -0.8352   15.8662  -28.5990 N   0  0  0  0  0  0  0  0  0  0  0  0
   -2.3985   14.6524  -27.3857 O   0  0  0  0  0  0  0  0  0  0  0  0
   -1.6255   18.1818  -25.9832 C   0  0  0  0  0  0  0  0  0  0  0  0
   -2.4586    8.2478  -27.0178 F   0  0  0  0  0  0  0  0  0  0  0  0
    1.3754   19.1210  -29.3556 C   0  0  0  0  0  0  0  0  0  0  0  0
   -1.8845   14.6889  -28.3497 C   0  0  0  0  0  0  0  0  0  0  0  0
   -2.1776   11.5845  -27.9444 C   0  0  0  0  0  0  0  0  0  0  0  0
   -1.9589   12.5737  -28.9512 C   0  0  0  0  0  0  0  0  0  0  0  0
    2.7823   16.9352  -30.1321 S   0  0  0  0  0  0  0  0  0  0  0  0
   -2.4391   18.4661  -24.7532 S   0  0  0  0  0  4  0  0  0  0  0  0
   -0.2215   16.9276  -28.2188 C   0  0  0  0  0  0  0  0  0  0  0  0
   -3.9676   18.0886  -24.9923 O   0  0  0  0  0  1  0  0  0  0  0  0
   -3.0221    9.3405  -27.2662 C   0  0  0  0  0  0  0  0  0  0  0  0
   -1.5388   18.5328  -20.9232 C   0  0  0  0  0  0  0  0  0  0  0  0
   -1.6985   13.8785  -29.3570 N   0  0  0  0  0  0  0  0  0  0  0  0
   -1.3214   18.2344  -22.8187 C   0  0  0  0  0  0  0  0  0  0  0  0
    0.9375   17.3766  -28.8901 C   0  0  0  0  0  0  0  0  0  0  0  0
   -2.6834   10.3372  -28.2571 C   0  0  0  0  0  0  0  0  0  0  0  0
   -3.0617    9.9003  -25.8532 F   0  0  0  0  0  0  0  0  0  0  0  0
   -0.7377   19.2185  -26.4934 C   0  0  0  0  0  0  0  0  0  0  0  0
   -4.1629    8.9612  -27.2826 F   0  0  0  0  0  0  0  0  0  0  0  0
   -2.9390   19.7644  -24.4444 O   0  0  0  0  0  1  0  0  0  0  0  0
  4  3  1  0
  5  1  2  0
  9  4  1  0
 11  3  1  0
 11  6  1  0
 12  7  1  0
 12  8  2  0
 14  1  1  0
 14 13  1  0
 15  6  2  0
 16  9  1  0
 17  4  1  0
 17  7  1  0
 18 16  1  0
 19 10  1  0
 20  2  1  0
 21 12  1  0
 21 14  1  0
 22  2  1  0
 22 16  1  0
 23  3  1  0
 23  6  1  0
 23 11  1  0
 23 17  1  0
 24  5  1  0
 24 13  2  0
 24 19  1  0
 25 19  1  0
 26  3  1  0
 26  4  1  0
 26  9  2  0
 27 19  1  0
 28 16  1  0
M  RAD  2  18   2  28   2
M  END
>  <ID>  (1) 
conformer_0

$$$$
