
     RDKit          3D

 29 36  0  0  0  0  0  0  0  0999 V2000
   -2.6468   10.6568  -27.9167 C   0  0  0  0  0  0  0  0  0  0  0  0
   -0.8032   19.4376  -26.1145 C   0  0  0  0  0  0  0  0  0  0  0  0
   -1.1385   17.8484  -26.8083 C   0  0  0  0  0  0  0  0  0  0  0  0
   -0.9185   17.1934  -21.3980 C   0  0  0  0  0  0  0  0  0  0  0  0
   -1.9151   11.9406  -30.2902 C   0  0  0  0  0  0  0  0  0  0  0  0
    2.3294   17.9782  -30.4990 C   0  0  0  0  0  0  0  0  0  0  0  0
   -0.2140   18.5814  -27.6810 C   0  0  0  0  0  0  0  0  0  0  0  0
   -1.9185   18.2831  -25.6525 C   0  0  0  0  0  0  0  0  0  0  0  0
    2.6699   16.6086  -30.1892 S   0  0  0  0  0  0  0  0  0  0  0  0
   -2.6162   10.2276  -25.5836 F   0  0  0  0  0  0  0  0  0  0  0  0
   -1.9054   12.6173  -29.0526 C   0  0  0  0  0  0  0  0  0  0  0  0
   -3.9586   18.6505  -24.6450 O   0  0  0  0  0  1  0  0  0  0  0  0
   -2.0721   11.9892  -27.9600 C   0  0  0  0  0  0  0  0  0  0  0  0
   -2.7407   18.3185  -24.4185 S   0  0  0  0  0  3  0  0  0  0  0  0
   -1.7157   18.1989  -22.5557 C   0  0  0  0  0  0  0  0  0  0  0  0
   -1.3037   14.2466  -29.2155 N   0  0  0  0  0  0  0  0  0  0  0  0
   -2.4093   14.3802  -27.7565 O   0  0  0  0  0  0  0  0  0  0  0  0
   -1.8760   14.6215  -28.5502 C   0  0  0  0  0  0  0  0  0  0  0  0
    0.6199   18.3049  -28.9488 C   0  0  0  0  0  0  0  0  0  0  0  0
    1.2784   16.7987  -29.4096 C   0  0  0  0  0  0  0  0  0  0  0  0
   -1.5119   18.2480  -20.9635 C   0  0  0  0  0  0  0  0  0  0  0  0
   -3.0667    9.7218  -26.9216 C   0  0  0  0  0  0  0  0  0  0  0  0
   -2.9982    8.5859  -26.9620 F   0  0  0  0  0  0  0  0  0  0  0  0
   -2.0313   15.7718  -27.2778 S   0  0  0  0  0  0  0  0  0  0  0  0
   -2.4575   10.6198  -30.3695 C   0  0  0  0  0  0  0  0  0  0  0  0
   -4.2899   10.2489  -26.3563 F   0  0  0  0  0  0  0  0  0  0  0  0
    1.3524   18.9129  -30.0283 C   0  0  0  0  0  0  0  0  0  0  0  0
   -0.4621   16.9722  -28.1860 C   0  0  0  0  0  0  0  0  0  0  0  0
   -2.8281    9.9794  -29.1265 C   0  0  0  0  0  0  0  0  0  0  0  0
  3  2  1  0
  7  2  1  0
  7  3  1  0
  8  2  1  0
  8  3  1  0
  9  6  1  0
 11  5  2  0
 13  1  2  0
 13 11  1  0
 14  8  1  0
 14 12  1  0
 15  4  1  0
 15  8  1  0
 16 11  1  0
 18 16  1  0
 18 17  1  0
 19  7  1  0
 20  6  1  0
 20  9  1  0
 20 18  1  0
 20 19  1  0
 21  4  1  0
 21 15  1  0
 22  1  1  0
 22 10  1  0
 23 22  1  0
 24 17  1  0
 25  5  1  0
 26 22  1  0
 27  6  2  0
 27 19  1  0
 28  3  1  0
 28  7  1  0
 28 19  1  0
 29  1  1  0
 29 25  2  0
M  RAD  2  12   2  14   2
M  END
>  <ID>  (1) 
conformer_0

$$$$
