
     RDKit          3D

 25 27  0  0  0  0  0  0  0  0999 V2000
   -0.5225   19.3311  -26.7342 C   0  0  0  0  0  0  0  0  0  0  0  0
   -1.9680   11.6747  -30.1576 C   0  0  0  0  0  0  0  0  0  0  0  0
   -2.6196   10.3580  -29.9270 C   0  0  0  0  0  0  0  0  0  0  0  0
    0.3467   18.5001  -28.1382 C   0  0  1  0  0  0  0  0  0  0  0  0
    1.1411   18.5541  -29.5122 C   0  0  0  0  0  0  0  0  0  0  0  0
    2.7032   17.0492  -29.6203 S   0  0  0  0  0  0  0  0  0  0  0  0
   -1.6571   18.0788  -26.1339 C   0  0  0  0  0  0  0  0  0  0  0  0
   -0.8515   16.1126  -28.8700 N   0  0  0  0  0  0  0  0  0  0  0  0
   -2.6668   10.2427  -28.4282 C   0  0  0  0  0  0  0  0  0  0  0  0
    2.0206   17.9805  -29.8557 C   0  0  0  0  0  0  0  0  0  0  0  0
   -1.1761   17.9152  -21.0371 C   0  0  0  0  0  0  0  0  0  0  0  0
   -1.3378   18.1022  -22.2184 C   0  0  0  0  0  0  0  0  0  0  0  0
   -2.4462   18.2328  -24.5176 S   0  0  0  0  0  4  0  0  0  0  0  0
   -3.8226   17.5906  -24.6978 O   0  0  0  0  0  1  0  0  0  0  0  0
   -2.9717    8.4457  -27.1372 F   0  0  0  0  0  0  0  0  0  0  0  0
   -1.9809   14.6276  -28.5999 C   0  0  2  0  0  0  0  0  0  0  0  0
   -3.0429    9.2627  -27.4145 C   0  0  0  0  0  0  0  0  0  0  0  0
   -1.9030   12.5999  -28.9638 C   0  0  1  0  0  0  0  0  0  0  0  0
   -0.3396   17.0089  -28.3258 C   0  0  2  0  0  0  0  0  0  0  0  0
   -2.3178   14.4134  -27.6372 O   0  0  0  0  0  0  0  0  0  0  0  0
   -1.0307   17.6631  -27.0823 C   0  0  0  0  0  0  0  0  0  0  0  0
   -2.8031   19.5935  -24.3734 O   0  0  0  0  0  1  0  0  0  0  0  0
   -2.0941   11.4771  -28.0144 C   0  0  0  0  0  0  0  0  0  0  0  0
   -1.5537   13.9289  -29.1356 N   0  0  0  0  0  0  0  0  0  0  0  0
   -3.2354    9.8452  -26.0142 F   0  0  0  0  0  0  0  0  0  0  0  0
  3  2  2  0
  4  1  1  6
  5  4  1  0
  9  3  1  0
 10  5  2  3
 10  6  1  0
 12 11  3  0
 13  7  1  0
 13 12  1  0
 14 13  1  0
 16  8  1  0
 17  9  1  0
 17 15  1  0
 18  2  1  0
 19  4  1  0
 19  8  1  6
 16 20  1  1
 21  1  1  0
 21  4  1  0
 21  7  1  0
 21 19  1  0
 22 13  1  0
 23  9  2  0
 23 18  1  0
 24 16  1  0
 18 24  1  1
 25 17  1  0
M  RAD  2  14   2  22   2
M  END
>  <ID>  (1) 
conformer_0

$$$$
