
     RDKit          3D

 30 34  0  0  0  0  0  0  0  0999 V2000
   -2.2457   11.9785  -27.8353 C   0  0  0  0  0  0  0  0  0  0  0  0
    1.0264   17.7774  -29.1255 C   0  0  0  0  0  0  0  0  0  0  0  0
    1.7762   19.0011  -30.1520 C   0  0  0  0  0  0  0  0  0  0  0  0
   -1.7229   18.4195  -20.7015 C   0  0  0  0  0  0  0  0  0  0  0  0
   -2.0143   10.5793  -30.2545 C   0  0  0  0  0  0  0  0  0  0  0  0
   -1.6102   11.8439  -30.0243 C   0  0  0  0  0  0  0  0  0  0  0  0
   -0.6343   19.7876  -26.1339 C   0  0  0  0  0  0  0  0  0  0  0  0
    2.6688   17.9719  -30.5523 C   0  0  0  0  0  0  0  0  0  0  0  0
   -1.7375   18.5818  -25.8122 C   0  0  0  0  0  0  0  0  0  0  0  0
    2.6661   16.5328  -30.2407 S   0  0  0  0  0  0  0  0  0  0  0  0
   -0.8133   16.0544  -28.7507 N   0  0  0  0  0  0  0  0  0  0  0  0
   -2.4025   14.4972  -27.5759 O   0  0  0  0  0  0  0  0  0  0  0  0
   -2.3025   18.6107  -24.3407 S   0  0  0  0  0  3  0  0  0  0  0  0
   -1.9055   12.4289  -28.8391 C   0  0  0  0  0  0  0  0  0  0  0  0
   -1.8357   14.6243  -28.5606 C   0  0  0  0  0  0  0  0  0  0  0  0
    0.4356   18.9507  -28.2776 C   0  0  0  0  0  0  0  0  0  0  0  0
    1.3692   16.9252  -29.3802 C   0  0  0  0  0  0  0  0  0  0  0  0
   -3.0559    9.7426  -26.8685 C   0  0  0  0  0  0  0  0  0  0  0  0
   -4.5221   10.1392  -26.4540 F   0  0  0  0  0  0  0  0  0  0  0  0
   -3.4892   18.7457  -24.7166 O   0  0  0  0  0  1  0  0  0  0  0  0
   -1.4840   18.1299  -22.1784 C   0  0  0  0  0  0  0  0  0  0  0  0
   -1.4982   14.0379  -29.2914 N   0  0  0  0  0  0  0  0  0  0  0  0
   -2.4375    9.7828  -29.1459 C   0  0  0  0  0  0  0  0  0  0  0  0
   -0.8992   17.1997  -21.1084 C   0  0  0  0  0  0  0  0  0  0  0  0
   -2.8193    8.5385  -26.8448 F   0  0  0  0  0  0  0  0  0  0  0  0
   -0.2700   18.8260  -27.1698 C   0  0  0  0  0  0  0  0  0  0  0  0
   -1.3465   17.5541  -26.9345 C   0  0  0  0  0  0  0  0  0  0  0  0
   -0.5520   17.2591  -28.0232 C   0  0  0  0  0  0  0  0  0  0  0  0
   -2.7253   10.5474  -27.8244 C   0  0  0  0  0  0  0  0  0  0  0  0
   -2.8264   10.2183  -25.4789 F   0  0  0  0  0  0  0  0  0  0  0  0
  3  2  1  0
  6  5  2  0
  8  3  2  0
  9  7  1  0
 10  8  1  0
 13  9  1  0
 14  1  2  0
 14  6  1  0
 15 11  1  0
 15 12  2  0
 16  2  1  0
 17  2  1  0
 17 10  1  0
 19 18  1  0
 20 13  1  0
 21  4  1  0
 21  9  1  0
 22 14  1  0
 22 15  1  0
 23  5  1  0
 24  4  1  0
 24 21  1  0
 25 18  1  0
 26  7  1  0
 26 16  1  0
 27  9  1  0
 27 26  1  0
 28 11  1  0
 28 26  1  0
 28 27  2  0
 29  1  1  0
 29 18  1  0
 29 23  2  0
 30 18  1  0
M  RAD  2  13   2  20   2
M  END
>  <ID>  (1) 
conformer_0

$$$$
