
     RDKit          3D

 29 32  0  0  0  0  0  0  0  0999 V2000
    0.0379   19.1576  -27.4638 C   0  0  0  0  0  0  0  0  0  0  0  0
   -2.8884   10.2554  -27.8192 C   0  0  0  0  0  0  0  0  0  0  0  0
   -0.3213   18.2312  -21.7022 C   0  0  0  0  0  0  0  0  0  0  0  0
   -0.3048   18.0610  -28.0043 C   0  0  0  0  0  3  0  0  0  0  0  0
   -2.3892   10.3437  -30.1654 C   0  0  0  0  0  0  0  0  0  0  0  0
   -2.3560   18.4490  -24.4139 S   0  0  0  0  0  4  0  0  0  0  0  0
    2.4690   18.2069  -30.6592 C   0  0  0  0  0  0  0  0  0  0  0  0
   -0.9606   19.6047  -26.4968 C   0  0  0  0  0  0  0  0  0  0  0  0
   -2.5743   14.5266  -27.8597 O   0  0  0  0  0  0  0  0  0  0  0  0
   -1.6383   18.3843  -25.8338 C   0  0  0  0  0  0  0  0  0  0  0  0
   -0.7759   15.7942  -28.7377 N   0  0  0  0  0  0  0  0  0  0  0  0
   -2.8645    9.5223  -29.0171 C   0  0  0  0  0  0  0  0  0  0  0  0
   -3.9959   18.1659  -24.8316 O   0  0  0  0  0  1  0  0  0  0  0  0
    2.8397   16.8452  -30.2995 S   0  0  0  0  0  0  0  0  0  0  0  0
   -1.7503   14.5447  -28.6159 C   0  0  0  0  0  0  0  0  0  0  0  0
   -2.4768   19.8750  -24.1425 O   0  0  0  0  0  1  0  0  0  0  0  0
   -1.4319   18.2114  -22.4035 C   0  0  0  0  0  0  0  0  0  0  0  0
   -1.9075   12.2076  -28.7007 C   0  0  0  0  0  0  0  0  0  0  0  0
   -3.3421    9.8666  -26.7386 C   0  0  0  0  0  0  0  0  0  0  0  0
    1.5747   16.6744  -29.6744 C   0  0  0  0  0  0  0  0  0  0  0  0
   -1.4379   17.3740  -26.6435 C   0  0  0  0  0  0  0  0  0  0  0  0
   -1.6289   18.1242  -20.9638 C   0  0  0  0  0  0  0  0  0  0  0  0
   -2.3785   11.6665  -27.8500 C   0  0  0  0  0  0  0  0  0  0  0  0
   -1.9376   11.6482  -29.9345 C   0  0  0  0  0  0  0  0  0  0  0  0
   -3.2640   10.0660  -25.6498 F   0  0  0  0  0  0  0  0  0  0  0  0
   -1.0473   13.6638  -28.9924 N   0  0  0  0  0  0  0  0  0  0  0  0
    1.3488   18.5042  -29.6015 C   0  0  0  0  0  0  0  0  0  0  0  0
   -0.4870   16.9566  -28.1385 C   0  0  0  0  0  0  0  0  0  0  0  0
    0.9005   17.0112  -29.1857 C   0  0  0  0  0  0  0  0  0  0  0  0
  4  1  2  0
  8  1  1  0
 10  6  1  0
 10  8  1  0
 12  2  2  0
 12  5  1  0
 13  6  1  0
 14  7  1  0
 15  9  2  0
 15 11  1  0
 16  6  1  0
 17  3  1  0
 17  6  1  0
 19  2  1  0
 20 14  1  0
 21 10  2  0
 22  3  1  0
 22 17  1  0
 23  2  1  0
 23 18  2  0
 24  5  2  0
 24 18  1  0
 25 19  1  0
 26 15  1  0
 26 18  1  0
 27  7  1  0
 28  4  1  0
 28 11  1  0
 28 21  1  0
 29 20  1  0
 29 27  2  0
 29 28  1  0
M  RAD  3   4   2  13   2  16   2
M  END
>  <ID>  (1) 
conformer_0

$$$$
