
     RDKit          3D

 26 28  0  0  0  0  0  0  0  0999 V2000
   -1.0510   17.9067  -26.9378 C   0  0  0  0  0  3  0  0  0  0  0  0
   -1.2260   17.4861  -21.5124 C   0  0  0  0  0  0  0  0  0  0  0  0
   -2.4379   11.3430  -27.8796 C   0  0  0  0  0  0  0  0  0  0  0  0
   -2.7156   10.0449  -28.4334 C   0  0  0  0  0  0  0  0  0  0  0  0
    0.3829   18.9136  -28.2401 C   0  0  0  0  0  0  0  0  0  0  0  0
    2.5205   16.8344  -30.2929 S   0  0  0  0  0  0  0  0  0  0  0  0
   -2.4639   18.6594  -24.4958 S   0  0  0  0  0  4  0  0  0  0  0  0
    0.0070   17.2116  -28.4086 C   0  0  0  0  0  0  0  0  0  0  0  0
   -0.7174   16.0095  -28.6896 N   0  0  0  0  0  0  0  0  0  0  0  0
    2.1590   17.9282  -30.1425 C   0  0  0  0  0  0  0  0  0  0  0  0
   -1.9897   12.2562  -28.9196 C   0  0  0  0  0  0  0  0  0  0  0  0
   -2.2885   14.4598  -27.7280 O   0  0  0  0  0  0  0  0  0  0  0  0
    1.1354   18.3913  -29.3985 C   0  0  0  0  0  0  0  0  0  0  0  0
   -1.6168   14.6267  -28.5748 C   0  0  0  0  0  0  0  0  0  0  0  0
   -1.9837   11.4393  -30.2716 C   0  0  0  0  0  0  0  0  0  0  0  0
   -1.3464   18.1844  -22.7280 C   0  0  0  0  0  0  0  0  0  0  0  0
   -3.8411   17.9665  -24.8255 O   0  0  0  0  0  1  0  0  0  0  0  0
   -1.5538   13.7494  -29.3785 N   0  0  0  0  0  0  0  0  0  0  0  0
   -2.9356    9.2684  -27.2197 C   0  0  0  0  0  0  0  0  0  0  0  0
   -1.4350   18.2983  -26.3399 C   0  0  0  0  0  0  0  0  0  0  0  0
   -2.8344   19.8602  -24.3140 O   0  0  0  0  0  1  0  0  0  0  0  0
   -0.4002   19.6118  -27.0611 C   0  0  0  0  0  0  0  0  0  0  0  0
   -2.9687   10.1665  -25.5591 F   0  0  0  0  0  0  0  0  0  0  0  0
   -1.9287   18.0518  -20.5423 C   0  0  0  0  0  0  0  0  0  0  0  0
   -2.2985   10.0597  -29.9254 C   0  0  0  0  0  0  0  0  0  0  0  0
   -2.8660    8.4205  -26.8283 F   0  0  0  0  0  0  0  0  0  0  0  0
  4  3  2  0
  8  1  1  0
  8  5  1  0
  9  8  1  0
 10  6  2  0
 11  3  1  0
 13  5  1  0
 13  8  1  0
 13 10  1  0
 14  9  1  0
 14 12  2  0
 15 11  1  0
 16  2  1  0
 16  7  1  0
 17  7  1  0
 18 11  1  0
 18 14  1  0
 19  4  1  0
 20  1  1  0
 20  7  1  0
 21  7  1  0
 22  5  2  0
 22 20  1  0
 23 19  1  0
 24  2  1  0
 25  4  1  0
 25 15  2  0
 26 19  1  0
M  RAD  3   1   2  17   2  21   2
M  END
>  <ID>  (1) 
conformer_0

$$$$
