
     RDKit          3D

 28 32  0  0  0  0  0  0  0  0999 V2000
   -2.5116   11.2492  -27.8001 C   0  0  0  0  0  0  0  0  0  0  0  0
    0.1317   18.8728  -28.1115 C   0  0  0  0  0  0  0  0  0  0  0  0
   -0.6874   17.9719  -21.5160 C   0  0  0  0  0  0  0  0  0  0  0  0
    0.6208   17.7649  -28.7998 C   0  0  0  0  0  0  0  0  0  0  0  0
   -2.3081   10.4680  -30.0391 C   0  0  0  0  0  0  0  0  0  0  0  0
    2.4279   17.8875  -30.1668 C   0  0  0  0  0  0  0  0  0  0  0  0
   -1.2178   16.8267  -27.6204 C   0  0  0  0  0  0  0  0  0  0  0  0
   -2.4911   18.7522  -24.3945 S   0  0  0  0  0  3  0  0  0  0  0  0
   -0.8512   15.9943  -28.6463 N   0  0  0  0  0  0  0  0  0  0  0  0
    1.4780   18.9706  -29.8025 C   0  0  0  0  0  0  0  0  0  0  0  0
   -2.6873   14.3340  -27.5602 O   0  0  0  0  0  0  0  0  0  0  0  0
   -1.9933   12.4179  -28.5537 C   0  0  0  0  0  0  0  0  0  0  0  0
   -1.9720   14.5714  -28.3402 C   0  0  0  0  0  0  0  0  0  0  0  0
   -1.8469   11.8230  -30.0542 C   0  0  0  0  0  0  0  0  0  0  0  0
    2.5753   16.7986  -30.0627 S   0  0  0  0  0  0  0  0  0  0  0  0
   -1.7905   18.1106  -25.6156 C   0  0  0  0  0  0  0  0  0  0  0  0
   -3.1878    9.6771  -27.0928 C   0  0  0  0  0  0  0  0  0  0  0  0
   -3.6870   18.6450  -24.5480 O   0  0  0  0  0  1  0  0  0  0  0  0
   -1.5356   18.2907  -22.3318 C   0  0  0  0  0  0  0  0  0  0  0  0
   -3.6480   10.3508  -25.7581 F   0  0  0  0  0  0  0  0  0  0  0  0
   -1.6783   18.2318  -20.6970 C   0  0  0  0  0  0  0  0  0  0  0  0
   -1.1243   17.5906  -26.8664 C   0  0  0  0  0  0  0  0  0  0  0  0
   -2.5782   16.5674  -26.2807 S   0  0  0  0  0  0  0  0  0  0  0  0
   -1.3961   13.8788  -28.7816 N   0  0  0  0  0  0  0  0  0  0  0  0
   -2.7702   10.1183  -28.6474 C   0  0  0  0  0  0  0  0  0  0  0  0
   -0.7981   19.1315  -26.5001 C   0  0  0  0  0  0  0  0  0  0  0  0
    0.8645   17.1146  -28.9808 C   0  0  0  0  0  0  0  0  0  0  0  0
   -3.6204    8.7970  -27.0310 F   0  0  0  0  0  0  0  0  0  0  0  0
  4  2  1  0
  9  7  1  0
 10  4  1  0
 10  6  2  0
 12  1  2  0
 13  9  1  0
 13 11  2  0
 14  5  2  0
 14 12  1  0
 15  6  1  0
 16  8  1  0
 17  1  1  0
 18  8  1  0
 19  3  1  0
 19 16  1  0
 20 17  1  0
 21  3  1  0
 21 19  1  0
 22  7  1  0
 22 16  1  0
 23 16  1  0
 23 22  1  0
 24 12  1  0
 24 13  1  0
 25  1  1  0
 25  5  1  0
 25 17  1  0
 26  2  1  0
 26 22  1  0
 27  4  1  0
 27 15  1  0
 28 17  1  0
M  RAD  2   8   2  18   2
M  END
>  <ID>  (1) 
conformer_0

$$$$
