
     RDKit          3D

 28 29  0  0  0  0  0  0  0  0999 V2000
   -0.7758   19.3973  -26.1698 C   0  0  0  0  0  0  0  0  0  0  0  0
   -0.4881   17.6542  -21.8947 C   0  0  0  0  0  0  0  0  0  0  0  0
   -2.6340   10.3750  -28.0334 C   0  0  0  0  0  0  0  0  0  0  0  0
   -2.6275   10.2448  -29.6042 C   0  0  0  0  0  0  0  0  0  0  0  0
    0.0821   18.9558  -27.4447 C   0  0  0  0  0  0  0  0  0  0  0  0
    1.2191   18.4037  -29.1695 C   0  0  0  0  0  0  0  0  0  0  0  0
    2.1523   17.9433  -30.2480 C   0  0  0  0  0  0  0  0  0  0  0  0
   -1.7465   18.3370  -25.8600 C   0  0  0  0  0  0  0  0  0  0  0  0
    2.5997   17.2607  -30.2980 S   0  0  0  0  0  0  0  0  0  0  0  0
   -1.8148   12.4069  -28.8194 C   0  0  0  0  0  0  0  0  0  0  0  0
   -1.2114   13.5025  -29.0911 N   0  0  0  0  0  0  0  0  0  0  0  0
   -1.6629   14.8304  -28.5987 C   0  0  0  0  0  0  0  0  0  0  0  0
   -2.4016   14.8528  -27.8009 O   0  0  0  0  0  0  0  0  0  0  0  0
   -2.6834   18.7134  -24.4087 S   0  0  0  0  0  4  0  0  0  0  0  0
   -2.0781   11.4829  -30.1150 C   0  0  0  0  0  0  0  0  0  0  0  0
   -4.2368   18.2536  -24.7900 O   0  0  0  0  0  1  0  0  0  0  0  0
   -3.0413    9.2383  -27.4142 C   0  0  0  0  0  0  0  0  0  0  0  0
   -3.3140    8.3858  -27.1403 F   0  0  0  0  0  0  0  0  0  0  0  0
    0.3645   17.0269  -28.7788 C   0  0  0  0  0  0  0  0  0  0  0  0
   -0.0320   17.8918  -27.9880 C   0  0  0  0  0  0  0  0  0  0  0  0
   -1.3787   17.7933  -21.0779 C   0  0  0  0  0  0  0  0  0  0  0  0
   -1.5219   18.0008  -22.6456 C   0  0  0  0  0  0  0  0  0  0  0  0
   -0.5764   15.8447  -28.8833 N   0  0  0  0  0  0  0  0  0  0  0  0
   -2.5743   17.7637  -23.3476 N   0  0  0  0  0  0  0  0  0  0  0  0
   -2.8558   19.9609  -24.2945 O   0  0  0  0  0  1  0  0  0  0  0  0
   -1.9837   11.6558  -27.5354 C   0  0  0  0  0  0  0  0  0  0  0  0
   -1.4845   17.4182  -26.5793 C   0  0  0  0  0  0  0  0  0  0  0  0
   -3.3164    9.6989  -25.9442 F   0  0  0  0  0  0  0  0  0  0  0  0
  4  3  2  0
  5  1  1  0
  7  6  1  0
  8  1  1  0
  9  7  2  0
 11 10  1  0
 12 11  1  0
 13 12  2  0
 14  8  1  0
 15  4  1  0
 15 10  2  0
 16 14  1  0
 17  3  1  0
 18 17  1  0
 19  6  1  0
 20  5  2  3
 20 19  1  0
 21  2  1  0
 22  2  1  0
 22 21  1  0
 23 12  1  0
 23 19  2  3
 24 14  1  0
 24 22  1  0
 25 14  1  0
 26  3  1  0
 26 10  1  0
 27  8  2  3
 28 17  1  0
M  RAD  2  16   2  25   2
M  END
>  <ID>  (1) 
conformer_0

$$$$
