
     RDKit          3D

 30 33  0  0  0  0  0  0  0  0999 V2000
   -1.6382   17.6229  -26.6778 C   0  0  0  0  0  0  0  0  0  0  0  0
   -0.2738   19.1305  -27.0668 C   0  0  0  0  0  0  0  0  0  0  0  0
   -2.2082   11.8921  -27.8651 C   0  0  0  0  0  0  0  0  0  0  0  0
   -0.6639   17.2385  -21.9640 C   0  0  0  0  0  0  0  0  0  0  0  0
   -2.0427   11.6714  -30.0850 C   0  0  0  0  0  0  0  0  0  0  0  0
   -2.2809   14.4722  -27.6045 O   0  0  0  0  0  0  0  0  0  0  0  0
    1.6233   18.9080  -30.1894 C   0  0  0  0  0  0  0  0  0  0  0  0
   -0.8897   16.0038  -28.6815 N   0  0  0  0  0  0  0  0  0  0  0  0
    2.3304   17.6359  -29.9335 C   0  0  0  0  0  0  0  0  0  0  0  0
   -1.8113   18.6653  -25.8295 C   0  0  0  0  0  0  0  0  0  0  0  0
   -4.2395   18.0502  -24.8275 O   0  0  0  0  0  1  0  0  0  0  0  0
   -2.7191   18.7239  -24.4895 S   0  0  0  0  0  4  0  0  0  0  0  0
   -2.0415   12.1384  -28.7757 C   0  0  0  0  0  0  0  0  0  0  0  0
   -1.7399   14.5721  -28.4564 C   0  0  0  0  0  0  0  0  0  0  0  0
   -0.8399   19.7360  -25.9700 C   0  0  0  0  0  0  0  0  0  0  0  0
   -2.2932   10.3396  -30.2418 C   0  0  0  0  0  0  0  0  0  0  0  0
   -2.9496    9.2756  -26.9968 C   0  0  0  0  0  0  0  0  0  0  0  0
   -1.5837   13.8517  -29.2952 N   0  0  0  0  0  0  0  0  0  0  0  0
   -2.8636   10.3567  -25.7292 O   0  0  0  0  0  0  0  0  0  0  0  0
   -1.6377   18.1572  -22.7201 C   0  0  0  0  0  0  0  0  0  0  0  0
    2.7961   16.8605  -29.6348 S   0  0  0  0  0  0  0  0  0  0  0  0
    0.1828   16.9759  -28.4822 C   0  0  0  0  0  0  0  0  0  0  0  0
   -1.4916   17.9304  -21.1497 C   0  0  0  0  0  0  0  0  0  0  0  0
   -0.0310   18.1686  -27.8905 C   0  0  0  0  0  0  0  0  0  0  0  0
   -3.0326   19.8577  -24.2513 O   0  0  0  0  0  1  0  0  0  0  0  0
   -2.6815    9.5819  -29.0949 C   0  0  0  0  0  0  0  0  0  0  0  0
   -3.0448    8.6456  -26.5425 F   0  0  0  0  0  0  0  0  0  0  0  0
    1.1624   17.0854  -28.9514 C   0  0  0  0  0  0  0  0  0  0  0  0
    1.0307   19.0008  -28.8617 C   0  0  0  0  0  0  0  0  0  0  0  0
   -2.7419   10.3158  -27.7915 C   0  0  0  0  0  0  0  0  0  0  0  0
  9  7  1  0
 10  1  1  0
 12 10  1  0
 12 11  1  0
 13  3  2  0
 13  5  1  0
 14  6  2  0
 14  8  1  0
 15  2  2  0
 15 10  1  0
 16  5  2  0
 18 13  1  0
 18 14  1  0
 19 17  1  0
 20  4  1  0
 20 12  1  0
 21  9  1  0
 22  8  1  0
 23  4  1  0
 23 20  1  0
 24  2  2  0
 24 22  1  0
 25 12  1  0
 26 16  1  0
 27 17  1  0
 28 21  1  0
 28 22  1  0
 29  7  1  0
 29 24  1  0
 29 28  1  0
 30  3  1  0
 30 17  1  0
 30 26  2  0
M  RAD  2  11   2  25   2
M  END
>  <ID>  (1) 
conformer_0

$$$$
