
     RDKit          3D

 27 30  0  0  0  0  0  0  0  0999 V2000
   -0.3395   19.4626  -26.3994 C   0  0  0  0  0  0  0  0  0  0  0  0
    0.6775   17.8550  -28.5715 C   0  0  0  0  0  0  0  0  0  0  0  0
   -2.5211   10.1669  -29.7428 C   0  0  0  0  0  0  0  0  0  0  0  0
   -1.6332   18.1238  -20.9359 C   0  0  0  0  0  0  0  0  0  0  0  0
   -1.9796   11.4462  -30.0597 C   0  0  0  0  0  0  0  0  0  0  0  0
   -1.5947   18.5891  -25.8090 C   0  0  0  0  0  0  0  0  0  0  0  0
    1.2120   18.6231  -29.7883 C   0  0  0  0  0  0  0  0  0  0  0  0
    2.1974   17.8695  -30.0514 C   0  0  0  0  0  0  0  0  0  0  0  0
   -0.8778   15.8432  -28.8214 N   0  0  0  0  0  0  0  0  0  0  0  0
   -2.2678   14.5302  -27.3985 O   0  0  0  0  0  0  0  0  0  0  0  0
   -2.1432   12.2291  -28.6838 C   0  0  0  0  0  0  0  0  0  0  0  0
   -1.7572   14.6953  -28.4807 C   0  0  0  0  0  0  0  0  0  0  0  0
    2.6534   16.8008  -29.9770 S   0  0  0  0  0  0  0  0  0  0  0  0
   -4.0600   17.9071  -24.6932 O   0  0  0  0  0  1  0  0  0  0  0  0
   -2.4049   18.6493  -24.4522 S   0  0  0  0  0  4  0  0  0  0  0  0
   -3.1143    8.2426  -27.1009 F   0  0  0  0  0  0  0  0  0  0  0  0
   -3.3949    9.3877  -27.3245 C   0  0  0  0  0  0  0  0  0  0  0  0
   -2.6562   11.6137  -27.6720 C   0  0  0  0  0  0  0  0  0  0  0  0
   -1.5298   13.5115  -29.2385 N   0  0  0  0  0  0  0  0  0  0  0  0
    0.1681   18.7244  -27.6859 C   0  0  0  0  0  0  0  0  0  0  0  0
    0.2989   16.9079  -28.6743 C   0  0  0  0  0  0  0  0  0  0  0  0
   -1.5108   18.2015  -22.6159 C   0  0  0  0  0  0  0  0  0  0  0  0
   -0.7235   17.5916  -21.6470 C   0  0  0  0  0  0  0  0  0  0  0  0
   -2.9533   19.7677  -24.4396 O   0  0  0  0  0  1  0  0  0  0  0  0
   -3.0219   10.1122  -28.3078 C   0  0  0  0  0  0  0  0  0  0  0  0
   -1.1204   17.8166  -26.9449 C   0  0  0  0  0  0  0  0  0  0  0  0
   -3.5664    9.7090  -26.0648 F   0  0  0  0  0  0  0  0  0  0  0  0
  5  3  2  0
  6  1  2  0
  7  2  1  0
  8  7  1  0
 11  5  1  0
 12  9  1  0
 12 10  2  0
 13  8  2  0
 15  6  1  0
 15 14  1  0
 17 16  1  0
 18 11  2  0
 19 11  1  0
 19 12  1  0
 20  1  1  0
 20  2  1  0
 21  2  1  0
 21  9  1  0
 22  4  1  0
 22 15  1  0
 23  4  1  0
 23 22  1  0
 24 15  1  0
 25  3  1  0
 25 17  1  0
 25 18  1  0
 26  1  1  0
 26  6  1  0
 26 20  2  0
 27 17  1  0
M  RAD  2  14   2  24   2
M  END
>  <ID>  (1) 
conformer_0

$$$$
