
     RDKit          3D

 26 30  0  0  0  0  0  0  0  0999 V2000
   -1.2057   18.0321  -26.6776 C   0  0  0  0  0  0  0  0  0  0  0  0
   -2.4977   10.3053  -30.1014 C   0  0  0  0  0  0  0  0  0  0  0  0
   -0.1662   18.7200  -27.5766 C   0  0  0  0  0  0  0  0  0  0  0  0
   -1.1224   17.2213  -21.0361 C   0  0  0  0  0  0  0  0  0  0  0  0
   -2.6194   10.1570  -28.5271 C   0  0  0  0  0  0  0  0  0  0  0  0
   -0.5784   19.6689  -26.0113 C   0  0  0  0  0  0  0  0  0  0  0  0
   -1.6564   18.5622  -25.4876 C   0  0  0  0  0  0  0  0  0  0  0  0
    2.1922   17.6573  -30.3006 C   0  0  0  0  0  0  0  0  0  0  0  0
   -2.2810   14.5040  -27.6887 O   0  0  0  0  0  0  0  0  0  0  0  0
   -1.8589   12.3780  -28.8965 C   0  0  0  0  0  0  0  0  0  0  0  0
   -3.2735   10.5050  -25.5715 F   0  0  0  0  0  0  0  0  0  0  0  0
   -1.1251   13.6401  -29.1023 N   0  0  0  0  0  0  0  0  0  0  0  0
   -2.1903   18.6091  -23.9848 S   0  0  0  0  0  3  0  0  0  0  0  0
   -2.1204   11.7600  -30.3010 C   0  0  0  0  0  0  0  0  0  0  0  0
   -2.9625    9.7786  -26.8954 C   0  0  0  0  0  0  0  0  0  0  0  0
    0.2541   17.0179  -28.6116 C   0  0  0  0  0  0  0  0  0  0  0  0
    2.4384   16.6136  -30.2352 S   0  0  0  0  0  0  0  0  0  0  0  0
   -1.5623   14.7839  -28.4807 C   0  0  0  0  0  0  0  0  0  0  0  0
    0.8719   17.8433  -29.0424 C   0  0  0  0  0  0  0  0  0  0  0  0
   -1.5286   18.0579  -22.1660 C   0  0  0  0  0  0  0  0  0  0  0  0
   -3.5155   18.3276  -24.1785 O   0  0  0  0  0  1  0  0  0  0  0  0
   -2.2062   11.4502  -27.8632 C   0  0  0  0  0  0  0  0  0  0  0  0
   -0.6780   15.8218  -28.7348 N   0  0  0  0  0  0  0  0  0  0  0  0
    1.3449   18.7933  -29.8625 C   0  0  0  0  0  0  0  0  0  0  0  0
   -1.8341   18.5093  -20.7362 C   0  0  0  0  0  0  0  0  0  0  0  0
   -3.1349    9.0989  -26.5943 F   0  0  0  0  0  0  0  0  0  0  0  0
  3  1  2  0
  5  2  2  0
  6  1  1  0
  6  3  1  0
  7  1  1  0
  7  6  1  0
 12 10  1  0
 13  7  1  0
 14  2  1  0
 14 10  1  0
 15  5  1  0
 15 11  1  0
 17  8  2  0
 18  9  2  0
 18 12  1  0
 19  3  1  0
 19  8  1  0
 19 16  1  0
 20  4  1  0
 20  7  1  0
 21 13  1  0
 22  5  1  0
 22 10  2  0
 23 16  1  0
 23 18  1  0
 24  8  1  0
 24 19  1  0
 25  4  1  0
 25 20  1  0
 26 15  1  0
M  RAD  2  13   2  21   2
M  END
>  <ID>  (1) 
conformer_0

$$$$
