
     RDKit          3D

 32 35  0  0  0  0  0  0  0  0999 V2000
   -0.3920   18.0208  -22.2554 C   0  0  0  0  0  0  0  0  0  0  0  0
   -0.0175   18.1671  -28.0833 C   0  0  0  0  0  0  0  0  0  0  0  0
   -2.1456   11.9126  -27.8649 C   0  0  0  0  0  0  0  0  0  0  0  0
    1.4822   18.7661  -30.0982 C   0  0  0  0  0  0  0  0  0  0  0  0
   -2.7968   10.0124  -29.0513 C   0  0  0  0  0  0  0  0  0  0  0  0
    1.4430   16.8511  -29.4944 C   0  0  0  0  0  0  0  0  0  0  0  0
   -0.0312   19.2430  -27.4154 C   0  0  0  0  0  0  0  0  0  0  0  0
   -1.8147   18.4528  -25.8222 C   0  0  0  0  0  0  0  0  0  0  0  0
   -0.8034   16.0406  -28.6859 N   0  0  0  0  0  0  0  0  0  0  0  0
   -2.2911   14.5210  -27.5019 O   0  0  0  0  0  0  0  0  0  0  0  0
   -1.8305   12.5945  -28.8597 C   0  0  0  0  0  0  0  0  0  0  0  0
   -4.0067   17.7090  -24.6515 O   0  0  0  0  0  1  0  0  0  0  0  0
   -0.6804   17.1280  -28.0034 C   0  0  0  0  0  0  0  0  0  0  0  0
   -2.7870   18.5326  -24.4778 S   0  0  0  0  0  4  0  0  0  0  0  0
   -2.0191   12.0054  -30.2080 C   0  0  0  0  0  0  0  0  0  0  0  0
    3.0310   16.8071  -30.1975 S   0  0  0  0  0  0  0  0  0  0  0  0
   -2.6666   10.0456  -25.5097 F   0  0  0  0  0  0  0  0  0  0  0  0
   -1.5783   18.4250  -20.9270 C   0  0  0  0  0  0  0  0  0  0  0  0
   -1.6582   14.7185  -28.5041 C   0  0  0  0  0  0  0  0  0  0  0  0
   -1.5657   17.5131  -26.6051 C   0  0  0  0  0  0  0  0  0  0  0  0
   -3.2039    9.7898  -26.9561 C   0  0  0  0  0  0  0  0  0  0  0  0
   -1.5508   18.3379  -22.7909 C   0  0  0  0  0  0  0  0  0  0  0  0
   -2.7962   10.7379  -27.8164 C   0  0  0  0  0  0  0  0  0  0  0  0
   -1.2675   13.9556  -29.1244 N   0  0  0  0  0  0  0  0  0  0  0  0
   -3.3241    8.6362  -27.0552 F   0  0  0  0  0  0  0  0  0  0  0  0
   -0.9179   19.4642  -26.2614 C   0  0  0  0  0  0  0  0  0  0  0  0
   -3.4392   19.5015  -24.5618 O   0  0  0  0  0  1  0  0  0  0  0  0
    2.6134   17.8269  -30.7774 C   0  0  0  0  0  0  0  0  0  0  0  0
   -4.3966   10.1723  -26.1922 F   0  0  0  0  0  0  0  0  0  0  0  0
    1.0393   17.4420  -29.2916 C   0  0  0  0  0  0  0  0  0  0  0  0
   -1.0906   17.0561  -21.2808 C   0  0  0  0  0  0  0  0  0  0  0  0
   -2.3554   10.6187  -30.2515 C   0  0  0  0  0  0  0  0  0  0  0  0
  7  2  2  0
 11  3  2  0
 13  2  1  0
 13  9  1  0
 14  8  1  0
 14 12  1  0
 15 11  1  0
 16  6  1  0
 18  1  1  0
 19  9  1  0
 19 10  2  0
 20  8  1  0
 20 13  2  0
 21 17  1  0
 22  1  1  0
 22 14  1  0
 23  3  1  0
 23  5  2  0
 23 21  1  0
 24 11  1  0
 24 19  1  0
 25 21  1  0
 26  7  1  0
 26  8  2  0
 27 14  1  0
 28  4  1  0
 28 16  1  0
 29 21  1  0
 30  2  1  0
 30  4  2  0
 30  6  1  0
 31  1  1  0
 31 18  1  0
 32  5  1  0
 32 15  2  0
M  RAD  2  12   2  27   2
M  END
>  <ID>  (1) 
conformer_0

$$$$
