
     RDKit          3D

 26 32  0  0  0  0  0  0  0  0999 V2000
   -1.2478   17.8395  -26.9146 C   0  0  0  0  0  0  0  0  0  0  0  0
   -2.4832   11.5607  -27.8079 C   0  0  0  0  0  0  0  0  0  0  0  0
    0.2552   18.6363  -27.9508 C   0  0  0  0  0  0  0  0  0  0  0  0
   -2.3816   10.1940  -28.0488 C   0  0  0  0  0  0  0  0  0  0  0  0
   -0.6274   17.2808  -21.4418 C   0  0  0  0  0  0  0  0  0  0  0  0
    1.9976   17.7124  -30.0516 C   0  0  0  0  0  0  0  0  0  0  0  0
    0.7857   17.4409  -28.8494 C   0  0  0  0  0  0  0  0  0  0  0  0
   -0.9553   15.9218  -28.5583 N   0  0  0  0  0  0  0  0  0  0  0  0
   -1.7798   14.8860  -28.2414 C   0  0  0  0  0  0  0  0  0  0  0  0
   -1.9186   18.4156  -25.6546 C   0  0  0  0  0  0  0  0  0  0  0  0
   -2.3209   14.6616  -27.3199 O   0  0  0  0  0  0  0  0  0  0  0  0
   -1.9947   12.3907  -28.8399 C   0  0  0  0  0  0  0  0  0  0  0  0
   -4.0423   18.4097  -24.7625 O   0  0  0  0  0  1  0  0  0  0  0  0
   -1.7780   11.5468  -30.1070 C   0  0  0  0  0  0  0  0  0  0  0  0
   -2.6929   18.5444  -24.4539 S   0  0  0  0  0  3  0  0  0  0  0  0
   -3.1380    9.5623  -26.9054 C   0  0  0  0  0  0  0  0  0  0  0  0
   -2.8943    9.9755  -25.4967 F   0  0  0  0  0  0  0  0  0  0  0  0
   -1.3697   18.2496  -22.3075 C   0  0  0  0  0  0  0  0  0  0  0  0
    1.3336   19.0105  -29.4227 C   0  0  0  0  0  0  0  0  0  0  0  0
   -0.3916   16.9619  -28.2006 C   0  0  0  0  0  0  0  0  0  0  0  0
   -1.6705   13.8738  -29.0877 N   0  0  0  0  0  0  0  0  0  0  0  0
   -1.7603   10.1895  -29.5991 C   0  0  0  0  0  0  0  0  0  0  0  0
   -0.6968   19.1252  -26.4027 C   0  0  0  0  0  0  0  0  0  0  0  0
   -3.0603    8.3827  -26.9650 F   0  0  0  0  0  0  0  0  0  0  0  0
   -1.7015   18.1188  -20.8070 C   0  0  0  0  0  0  0  0  0  0  0  0
   -4.4928   10.0377  -26.5102 F   0  0  0  0  0  0  0  0  0  0  0  0
  4  2  2  0
  7  3  1  0
  7  6  1  0
  9  8  1  0
 10  1  1  0
 11  9  2  0
 12  2  1  0
 14 12  1  0
 15 10  1  0
 15 13  1  0
 16  4  1  0
 17 16  1  0
 18  5  1  0
 18 10  1  0
 19  3  1  0
 19  6  2  0
 19  7  1  0
 20  1  1  0
 20  3  1  0
 20  7  1  0
 20  8  1  0
 21  9  1  0
 21 12  1  0
 22  4  1  0
 22 14  2  0
 23  1  2  0
 23  3  1  0
 23 10  1  0
 24 16  1  0
 25  5  1  0
 25 18  1  0
 26 16  1  0
M  RAD  2  13   2  15   2
M  END
>  <ID>  (1) 
conformer_0

$$$$
