
     RDKit          3D

 28 32  0  0  0  0  0  0  0  0999 V2000
   -0.2306   18.7109  -27.2574 C   0  0  0  0  0  0  0  0  0  0  0  0
   -2.3574   11.0679  -27.8269 C   0  0  0  0  0  0  0  0  0  0  0  0
    1.6306   18.9312  -30.1192 C   0  0  0  0  0  0  0  0  0  0  0  0
   -2.7080    9.8953  -28.7530 C   0  0  0  0  0  0  0  0  0  0  0  0
   -0.7993   17.0736  -21.8167 C   0  0  0  0  0  0  0  0  0  0  0  0
   -1.4328   17.6921  -26.6167 C   0  0  0  0  0  0  0  0  0  0  0  0
    2.2168   17.3568  -30.0773 C   0  0  0  0  0  0  0  0  0  0  0  0
   -2.6208   18.6727  -24.3979 S   0  0  0  0  0  4  0  0  0  0  0  0
   -0.5577   16.1070  -28.4968 N   0  0  0  0  0  0  0  0  0  0  0  0
   -4.1085   17.8949  -24.8421 O   0  0  0  0  0  1  0  0  0  0  0  0
   -2.0218   11.8155  -29.9948 C   0  0  0  0  0  0  0  0  0  0  0  0
   -1.9453   12.2610  -28.4960 C   0  0  0  0  0  0  0  0  0  0  0  0
   -1.7338   18.4332  -25.8225 C   0  0  0  0  0  0  0  0  0  0  0  0
   -2.3749   14.3882  -27.5135 O   0  0  0  0  0  0  0  0  0  0  0  0
   -1.5915   14.5832  -28.3691 C   0  0  0  0  0  0  0  0  0  0  0  0
   -2.8569    9.7847  -26.6712 C   0  0  0  0  0  0  0  0  0  0  0  0
   -1.5556   18.0864  -22.5664 C   0  0  0  0  0  0  0  0  0  0  0  0
   -0.7013   19.6278  -26.0583 C   0  0  0  0  0  0  0  0  0  0  0  0
    0.1065   17.0180  -28.3770 C   0  0  0  0  0  0  0  0  0  0  0  0
   -3.2141    9.8200  -25.9022 F   0  0  0  0  0  0  0  0  0  0  0  0
    0.4015   18.7853  -28.5672 C   0  0  0  0  0  0  0  0  0  0  0  0
   -2.4530   10.3786  -30.1451 C   0  0  0  0  0  0  0  0  0  0  0  0
    2.4939   16.2360  -29.7858 S   0  0  0  0  0  0  0  0  0  0  0  0
   -1.7823   18.1525  -20.9603 C   0  0  0  0  0  0  0  0  0  0  0  0
   -3.4637   19.7824  -24.6418 O   0  0  0  0  0  1  0  0  0  0  0  0
   -1.0366   14.0551  -28.8081 N   0  0  0  0  0  0  0  0  0  0  0  0
    3.2283   16.5841  -31.1091 Cl  0  0  0  0  0  0  0  0  0  0  0  0
    1.1751   17.3920  -29.1290 C   0  0  0  0  0  0  0  0  0  0  0  0
  4  2  2  0
  6  1  1  0
  7  3  1  0
 10  8  1  0
 12  2  1  0
 12 11  1  0
 13  6  2  0
 13  8  1  0
 15  9  1  0
 15 12  1  0
 15 14  1  0
 16  2  1  0
 17  5  1  0
 17  8  1  0
 18  1  1  0
 18 13  1  0
 19  9  1  0
 20 16  1  0
 21  1  1  0
 21 19  1  0
 22  4  1  0
 22 11  2  0
 23  7  1  0
 24  5  1  0
 24 17  1  0
 25  8  1  0
 26 15  1  0
 27 23  1  0
 28  3  1  0
 28  7  1  0
 28 19  1  0
 28 21  1  0
M  RAD  2  10   2  25   2
M  END
>  <ID>  (1) 
conformer_0

$$$$
