
     RDKit          3D

 30 33  0  0  0  0  0  0  0  0999 V2000
   -1.4484   17.5032  -26.7392 C   0  0  0  0  0  0  0  0  0  0  0  0
   -2.0485   11.8461  -27.8996 C   0  0  0  0  0  0  0  0  0  0  0  0
   -0.3668   17.9159  -27.7500 C   0  0  0  0  0  0  0  0  0  0  0  0
   -1.0662   17.4155  -21.2190 C   0  0  0  0  0  0  0  0  0  0  0  0
   -2.7159   10.7002  -27.7359 C   0  0  0  0  0  0  0  0  0  0  0  0
    0.2734   19.0302  -27.8657 C   0  0  0  0  0  0  0  0  0  0  0  0
    2.2393   17.8107  -30.3174 C   0  0  0  0  0  0  0  0  0  0  0  0
   -1.6729   18.5616  -25.8164 C   0  0  0  0  0  0  0  0  0  0  0  0
   -0.5224   15.8565  -28.8354 N   0  0  0  0  0  0  0  0  0  0  0  0
   -1.9451   12.6026  -28.9687 C   0  0  0  0  0  0  0  0  0  0  0  0
   -2.0975   11.8544  -30.2679 C   0  0  0  0  0  0  0  0  0  0  0  0
   -3.1784    9.8650  -26.6780 C   0  0  0  0  0  0  0  0  0  0  0  0
   -2.3287   18.7037  -24.4431 S   0  0  0  0  0  4  0  0  0  0  0  0
   -0.7060   19.4547  -26.3947 C   0  0  0  0  0  0  0  0  0  0  0  0
   -3.9233   18.0322  -24.8620 O   0  0  0  0  0  1  0  0  0  0  0  0
    2.7253   16.8910  -30.4601 S   0  0  0  0  0  0  0  0  0  0  0  0
   -2.2092   14.5588  -27.6670 O   0  0  0  0  0  0  0  0  0  0  0  0
   -4.5030   10.2920  -26.2140 F   0  0  0  0  0  0  0  0  0  0  0  0
   -1.4689   18.3216  -22.5926 C   0  0  0  0  0  0  0  0  0  0  0  0
   -1.4858   18.3553  -20.9309 C   0  0  0  0  0  0  0  0  0  0  0  0
   -1.5133   14.7686  -28.5165 C   0  0  0  0  0  0  0  0  0  0  0  0
   -1.8959   14.0949  -29.4603 N   0  0  0  0  0  0  0  0  0  0  0  0
    0.4140   16.8761  -28.9482 C   0  0  0  0  0  0  0  0  0  0  0  0
   -2.3945   10.4790  -30.2039 C   0  0  0  0  0  0  0  0  0  0  0  0
    1.5565   19.1480  -29.7163 C   0  0  0  0  0  0  0  0  0  0  0  0
   -3.1710    8.5689  -26.7964 F   0  0  0  0  0  0  0  0  0  0  0  0
   -2.6751   10.0127  -25.4514 F   0  0  0  0  0  0  0  0  0  0  0  0
   -2.9409   19.7731  -24.4655 O   0  0  0  0  0  1  0  0  0  0  0  0
    1.0007   17.9775  -29.2650 C   0  0  0  0  0  0  0  0  0  0  0  0
   -2.8129    9.9236  -28.9430 C   0  0  0  0  0  0  0  0  0  0  0  0
  3  1  2  0
  5  2  2  0
  6  3  1  0
  8  1  1  0
 10  2  1  0
 11 10  2  0
 12  5  1  0
 13  8  1  0
 14  6  2  0
 14  8  1  0
 15 13  1  0
 16  7  2  0
 18 12  1  0
 19 13  1  0
 20  4  1  0
 20 19  1  0
 21  9  1  0
 21 17  2  0
 22 10  1  0
 22 21  1  0
 23  3  1  0
 23  9  1  0
 24 11  1  0
 25  7  1  0
 26 12  1  0
 27 12  1  0
 28 13  1  0
 29  6  1  0
 29  7  1  0
 29 23  1  0
 29 25  1  0
 30  5  1  0
 30 24  2  0
M  RAD  2  15   2  28   2
M  END
>  <ID>  (1) 
conformer_0

$$$$
