
     RDKit          3D

 29 32  0  0  0  0  0  0  0  0999 V2000
   -0.8121   19.3283  -26.3301 C   0  0  0  0  0  0  0  0  0  0  0  0
   -1.1515   17.2500  -21.2365 C   0  0  0  0  0  0  0  0  0  0  0  0
   -2.6182    9.3939  -28.7659 C   0  0  0  0  0  0  0  0  0  0  0  0
    0.7520   18.0948  -28.8829 C   0  0  0  0  0  0  0  0  0  0  0  0
   -2.9477   10.5035  -27.8533 C   0  0  0  0  0  0  0  0  0  0  0  0
    2.7702   16.9055  -30.1977 S   0  0  0  0  0  0  0  0  0  0  0  0
   -0.9058   15.8808  -28.7436 N   0  0  0  0  0  0  0  0  0  0  0  0
   -2.0530   14.5002  -28.7925 C   0  0  0  0  0  0  0  0  0  0  0  0
    0.9563   16.9566  -29.1314 C   0  0  0  0  0  0  0  0  0  0  0  0
   -1.9159   18.3672  -25.7052 C   0  0  0  0  0  0  0  0  0  0  0  0
   -2.3972   14.3206  -27.4928 O   0  0  0  0  0  0  0  0  0  0  0  0
    1.5436   18.9077  -29.8143 C   0  0  0  0  0  0  0  0  0  0  0  0
   -2.5357   18.4160  -24.4482 S   0  0  0  0  0  4  0  0  0  0  0  0
   -2.6390    9.9479  -30.1023 C   0  0  0  0  0  0  0  0  0  0  0  0
   -1.1021   13.3866  -29.0442 N   0  0  0  0  0  0  0  0  0  0  0  0
    2.4305   18.1432  -30.4763 C   0  0  0  0  0  0  0  0  0  0  0  0
   -3.0038   19.8524  -24.3258 O   0  0  0  0  0  1  0  0  0  0  0  0
   -1.7846   12.0447  -28.9666 C   0  0  0  0  0  0  0  0  0  0  0  0
   -1.7435   18.1405  -22.5585 C   0  0  0  0  0  0  0  0  0  0  0  0
   -1.7806   18.1119  -20.8350 C   0  0  0  0  0  0  0  0  0  0  0  0
   -3.5167    9.8884  -26.9483 C   0  0  0  0  0  0  0  0  0  0  0  0
   -0.0072   18.6615  -27.6936 C   0  0  0  0  0  0  0  0  0  0  0  0
   -3.3734   10.4467  -25.8340 F   0  0  0  0  0  0  0  0  0  0  0  0
   -2.1493   11.5410  -27.9724 C   0  0  0  0  0  0  0  0  0  0  0  0
   -2.2030   11.4759  -30.1655 C   0  0  0  0  0  0  0  0  0  0  0  0
   -4.0993   17.9460  -24.5893 O   0  0  0  0  0  1  0  0  0  0  0  0
   -1.2688   17.5922  -26.8632 C   0  0  0  0  0  0  0  0  0  0  0  0
   -0.9403   17.0510  -27.7741 C   0  0  0  0  0  0  0  0  0  0  0  0
   -4.4576    9.2929  -27.0856 F   0  0  0  0  0  0  0  0  0  0  0  0
  5  3  2  0
  8  7  1  0
  9  4  1  0
  9  6  1  0
 10  1  2  0
 11  8  1  0
 12  4  1  0
 13 10  1  0
 14  3  1  0
 15  8  1  0
 16  6  1  0
 16 12  2  0
 17 13  1  0
 18 15  1  0
 19  2  1  0
 19 13  1  0
 20  2  1  0
 21  5  1  0
 22  1  1  0
 22  4  1  0
 23 21  1  0
 24  5  1  0
 24 18  2  0
 25 14  2  0
 25 18  1  0
 26 13  1  0
 27  1  1  0
 27 10  1  0
 27 22  1  0
 28  7  1  0
 28 27  1  0
 29 21  1  0
M  RAD  2  17   2  26   2
M  END
>  <ID>  (1) 
conformer_0

$$$$
