
     RDKit          3D

 26 27  0  0  0  0  0  0  0  0999 V2000
   -2.5301   11.3203  -27.8532 C   0  0  0  0  0  0  0  0  0  0  0  0
   -1.3181   17.6299  -26.6083 C   0  0  0  0  0  0  0  0  0  0  0  0
    0.2267   18.4461  -28.1500 C   0  0  0  0  0  0  0  0  0  0  0  0
   -2.7693    9.9786  -28.3706 C   0  0  0  0  0  0  0  0  0  0  0  0
   -1.4122   18.6709  -20.8927 C   0  0  0  0  0  0  0  0  0  0  0  0
    1.7451   17.5526  -29.6278 C   0  0  0  0  0  3  0  0  0  0  0  0
   -0.7857   15.9652  -28.7912 N   0  0  0  0  0  0  0  0  0  0  0  0
   -0.9920   18.0759  -22.5019 C   0  0  0  0  0  0  0  0  0  0  0  0
   -2.0202   12.2396  -28.7788 C   0  0  0  0  0  0  0  0  0  0  0  0
   -2.5004   14.5742  -27.7229 O   0  0  0  0  0  0  0  0  0  0  0  0
   -1.6320   18.3814  -25.8889 C   0  0  0  0  0  0  0  0  0  0  0  0
    2.4759   16.7893  -29.8719 S   0  0  0  0  0  3  0  0  0  0  0  0
   -2.4885    9.9799  -29.8603 C   0  0  0  0  0  0  0  0  0  0  0  0
    1.1908   18.6105  -29.2626 C   0  0  0  0  0  0  0  0  0  0  0  0
   -2.3989   18.7946  -24.4969 S   0  0  0  0  0  4  0  0  0  0  0  0
   -3.9275   17.9818  -24.5159 O   0  0  0  0  0  1  0  0  0  0  0  0
   -1.7922   14.6206  -28.6302 C   0  0  0  0  0  0  0  0  0  0  0  0
   -1.4722   13.5843  -29.1240 N   0  0  0  0  0  0  0  0  0  0  0  0
   -3.3526   10.1385  -25.7912 F   0  0  0  0  0  0  0  0  0  0  0  0
   -0.2613   17.0599  -28.2446 C   0  0  0  0  0  0  0  0  0  0  0  0
   -3.2212    9.4913  -27.1077 C   0  0  0  0  0  0  0  0  0  0  0  0
   -0.5763   19.2227  -26.9222 C   0  0  0  0  0  0  0  0  0  0  0  0
   -2.1374   11.3690  -30.2285 C   0  0  0  0  0  0  0  0  0  0  0  0
   -3.2079    8.5053  -26.8883 F   0  0  0  0  0  0  0  0  0  0  0  0
   -0.6773   17.2683  -21.3187 C   0  0  0  0  0  0  0  0  0  0  0  0
   -3.1026   19.8659  -24.6434 O   0  0  0  0  0  1  0  0  0  0  0  0
  4  1  2  0
  8  5  1  0
  9  1  1  0
 11  2  2  3
 12  6  2  3
 13  4  1  0
 14  3  1  0
 14  6  1  0
 15  8  1  0
 15 11  1  0
 16 15  1  0
 17  7  1  0
 17 10  2  0
 18  9  1  0
 18 17  1  0
 20  3  1  0
 20  7  1  0
 21  4  1  0
 21 19  1  0
 22  3  2  3
 22 11  1  0
 23  9  1  0
 23 13  2  0
 24 21  1  0
 25  5  1  0
 25  8  1  0
 26 15  1  0
M  RAD  4   6   2  12   2  16   2  26   2
M  END
>  <ID>  (1) 
conformer_0

$$$$
