
     RDKit          3D

 30 33  0  0  0  0  0  0  0  0999 V2000
    0.2908   17.5818  -28.4103 C   0  0  0  0  0  0  0  0  0  0  0  0
    0.8616   18.8814  -28.7066 C   0  0  0  0  0  0  0  0  0  0  0  0
   -2.1257   10.7515  -30.1838 C   0  0  0  0  0  0  0  0  0  0  0  0
   -0.6166   17.2390  -21.5372 C   0  0  0  0  0  0  0  0  0  0  0  0
   -2.5066   11.9344  -27.7945 C   0  0  0  0  0  0  0  0  0  0  0  0
    1.5872   18.7723  -29.9169 C   0  0  0  0  0  0  0  0  0  0  0  0
    2.1498   17.6396  -30.3580 C   0  0  0  0  0  0  0  0  0  0  0  0
   -1.9065   12.7085  -28.6530 C   0  0  0  0  0  0  0  0  0  0  0  0
   -1.8107   18.3842  -25.4640 C   0  0  0  0  0  0  0  0  0  0  0  0
   -0.7047   19.3580  -25.9880 C   0  0  0  0  0  0  0  0  0  0  0  0
   -2.2930   14.6409  -27.4326 O   0  0  0  0  0  0  0  0  0  0  0  0
   -0.8656   15.8955  -28.7468 N   0  0  0  0  0  0  0  0  0  0  0  0
   -2.5616    8.7034  -26.6095 F   0  0  0  0  0  0  0  0  0  0  0  0
   -4.2458   17.9846  -24.8282 O   0  0  0  0  0  1  0  0  0  0  0  0
   -1.3689   12.0398  -29.7517 C   0  0  0  0  0  0  0  0  0  0  0  0
   -1.5498   18.2357  -22.4499 C   0  0  0  0  0  0  0  0  0  0  0  0
   -2.6736   18.5672  -24.4916 S   0  0  0  0  0  4  0  0  0  0  0  0
   -3.0859    9.2472  -27.5917 C   0  0  0  0  0  0  0  0  0  0  0  0
   -1.7315   14.9235  -28.4012 C   0  0  0  0  0  0  0  0  0  0  0  0
    2.0569   16.4020  -29.8777 S   0  0  0  0  0  0  0  0  0  0  0  0
   -0.4356   18.4586  -27.1645 C   0  0  0  0  0  0  0  0  0  0  0  0
   -1.7026   18.1946  -21.0227 C   0  0  0  0  0  0  0  0  0  0  0  0
    0.4116   16.8637  -28.9037 C   0  0  0  0  0  0  0  0  0  0  0  0
   -1.9369   10.1065  -29.0312 C   0  0  0  0  0  0  0  0  0  0  0  0
    3.1186   17.0589  -31.2697 Cl  0  0  0  0  0  0  0  0  0  0  0  0
   -3.2039   19.7233  -24.3565 O   0  0  0  0  0  1  0  0  0  0  0  0
   -1.4519   13.9975  -29.1567 N   0  0  0  0  0  0  0  0  0  0  0  0
   -1.4534   17.4383  -26.6734 C   0  0  0  0  0  0  0  0  0  0  0  0
   -3.9067    8.7404  -27.5092 F   0  0  0  0  0  0  0  0  0  0  0  0
   -2.9720   10.4863  -28.1248 C   0  0  0  0  0  0  0  0  0  0  0  0
  2  1  2  0
  6  2  1  0
  7  6  2  0
  8  5  2  0
 10  9  2  0
 15  3  2  0
 15  8  1  0
 16  4  1  0
 17  9  1  0
 17 14  1  0
 17 16  1  0
 18 13  1  0
 19 11  2  0
 19 12  1  0
 20  7  1  0
 21  1  1  0
 21 10  1  0
 22  4  1  0
 22 16  1  0
 23  1  1  0
 23 12  1  0
 23 20  1  0
 24  3  1  0
 25  7  1  0
 26 17  1  0
 27  8  1  0
 27 19  1  0
 28  9  1  0
 28 21  2  0
 29 18  1  0
 30  5  1  0
 30 18  1  0
 30 24  2  0
M  RAD  2  14   2  26   2
M  END
>  <ID>  (1) 
conformer_0

$$$$
