
     RDKit          3D

 28 30  0  0  0  0  0  0  0  0999 V2000
   -0.3094   18.2571  -27.2559 C   0  0  0  0  0  0  0  0  0  0  0  0
    0.6080   18.7506  -28.2903 C   0  0  0  0  0  0  0  0  0  0  0  0
   -2.4958   11.1082  -27.7825 C   0  0  0  0  0  0  0  0  0  0  0  0
   -1.0531   17.2810  -21.4259 C   0  0  0  0  0  0  0  0  0  0  0  0
   -3.0962    9.7013  -28.5973 C   0  0  0  0  0  0  0  0  0  0  0  0
    2.9861   16.7393  -30.1738 S   0  0  0  0  0  3  0  0  0  0  0  0
    1.5676   18.6591  -29.9597 C   0  0  0  0  0  0  0  0  0  0  0  0
    2.3404   17.4831  -29.9689 C   0  0  0  0  0  3  0  0  0  0  0  0
   -1.9236   13.9740  -28.5031 C   0  0  0  0  0  0  0  0  0  0  0  0
   -2.5847   18.6398  -24.3876 S   0  0  0  0  0  4  0  0  0  0  0  0
   -2.6936   13.9784  -27.7254 O   0  0  0  0  0  0  0  0  0  0  0  0
   -1.7150   18.4500  -25.6904 C   0  0  0  0  0  0  0  0  0  0  0  0
   -1.0373   15.1145  -28.5162 N   0  0  0  0  0  0  0  0  0  0  0  0
   -4.0531   17.8682  -24.6216 O   0  0  0  0  0  1  0  0  0  0  0  0
   -2.1472   10.9130  -30.4924 C   0  0  0  0  0  0  0  0  0  0  0  0
   -1.3883   17.9617  -22.5963 C   0  0  0  0  0  0  0  0  0  0  0  0
   -0.6177   19.4108  -25.9944 C   0  0  0  0  0  0  0  0  0  0  0  0
   -2.3226   11.4448  -28.1773 C   0  0  0  0  0  0  0  0  0  0  0  0
   -3.2815    9.3119  -27.1686 C   0  0  0  0  0  0  0  0  0  0  0  0
    0.3675   16.8302  -28.4176 C   0  0  0  0  0  0  0  0  0  0  0  0
   -3.5653   10.0961  -25.9938 F   0  0  0  0  0  0  0  0  0  0  0  0
   -2.6081    9.7989  -29.8679 C   0  0  0  0  0  0  0  0  0  0  0  0
   -1.6955   18.2899  -20.9142 C   0  0  0  0  0  0  0  0  0  0  0  0
   -1.4577   17.4647  -26.6841 C   0  0  0  0  0  0  0  0  0  0  0  0
   -3.1728   19.7762  -24.3897 O   0  0  0  0  0  1  0  0  0  0  0  0
    0.7811   17.2171  -28.7204 C   0  0  0  0  0  0  0  0  0  0  0  0
   -1.8900   12.0780  -29.5829 C   0  0  0  0  0  0  0  0  0  0  0  0
   -3.5790    8.4234  -27.1206 F   0  0  0  0  0  0  0  0  0  0  0  0
  2  1  1  0
  5  3  2  0
  7  2  1  0
  8  6  2  3
  8  7  1  0
 11  9  2  0
 12 10  1  0
 13  9  1  0
 14 10  1  0
 16  4  1  0
 16 10  1  0
 17  1  2  0
 17 12  1  0
 18  3  1  0
 19  5  1  0
 20 13  1  0
 21 19  1  0
 22  5  1  0
 22 15  2  0
 23  4  1  0
 23 16  1  0
 24  1  1  0
 24 12  2  0
 25 10  1  0
 26  2  2  3
 26 20  1  0
 27  9  1  0
 27 15  1  0
 27 18  2  0
 28 19  1  0
M  RAD  4   6   2   8   2  14   2  25   2
M  END
>  <ID>  (1) 
conformer_0

$$$$
