
     RDKit          3D

 28 30  0  0  0  0  0  0  0  0999 V2000
   -0.5253   19.3869  -26.5309 C   0  0  1  0  0  0  0  0  0  0  0  0
   -1.7837   11.7201  -30.4692 C   0  0  0  0  0  0  0  0  0  0  0  0
   -1.0029   17.3734  -21.3576 C   0  0  0  0  0  0  0  0  0  0  0  0
    0.3890   17.8840  -28.4381 C   0  0  2  0  0  0  0  0  0  0  0  0
   -2.0978   10.4457  -30.0945 C   0  0  0  0  0  0  0  0  0  0  0  0
    2.0637   17.4390  -29.7788 C   0  0  0  0  0  3  0  0  0  0  0  0
   -1.9460   12.5984  -29.0476 C   0  0  1  0  0  0  0  0  0  0  0  0
    1.4389   18.7591  -29.5884 C   0  0  0  0  0  0  0  0  0  0  0  0
   -2.4081   18.6064  -24.5721 S   0  0  0  0  0  4  0  0  0  0  0  0
   -1.5788   18.5172  -25.7658 C   0  0  0  0  0  0  0  0  0  0  0  0
   -2.5033    9.8533  -25.7585 F   0  0  0  0  0  0  0  0  0  0  0  0
   -0.8224   15.8939  -28.9397 N   0  0  0  0  0  0  0  0  0  0  0  0
   -3.9025   17.8686  -24.8867 O   0  0  0  0  0  1  0  0  0  0  0  0
   -1.5081   15.2034  -28.6479 C   0  0  0  0  0  0  0  0  0  0  0  0
    2.4973   16.5673  -29.9524 S   0  0  0  0  0  3  0  0  0  0  0  0
   -2.2806   14.5444  -27.4951 O   0  0  0  0  0  0  0  0  0  0  0  0
   -3.0068    9.7594  -27.0049 C   0  0  0  0  0  0  0  0  0  0  0  0
   -2.3700   11.6164  -27.9016 C   0  0  0  0  0  0  0  0  0  0  0  0
   -1.7242   18.0660  -22.5437 C   0  0  0  0  0  0  0  0  0  0  0  0
   -1.5836   18.4348  -20.9043 C   0  0  0  0  0  0  0  0  0  0  0  0
   -1.0512   17.9153  -27.0031 C   0  0  0  0  0  0  0  0  0  0  0  0
   -2.9874    8.5882  -27.2576 F   0  0  0  0  0  0  0  0  0  0  0  0
   -1.6214   13.8767  -29.2299 N   0  0  0  0  0  0  0  0  0  0  0  0
   -3.1072   19.7083  -24.5992 O   0  0  0  0  0  1  0  0  0  0  0  0
   -2.5238   10.3877  -28.6324 C   0  0  0  0  0  0  0  0  0  0  0  0
   -4.1459   10.1386  -26.4214 F   0  0  0  0  0  0  0  0  0  0  0  0
    0.3992   16.8853  -28.8510 C   0  0  0  0  0  0  0  0  0  0  0  0
    0.3528   19.2259  -27.9924 C   0  0  0  0  0  0  0  0  0  0  0  0
  5  2  2  0
  7  2  1  0
  4  8  1  6
  8  6  1  0
 10  1  1  0
 10  9  1  0
 13  9  1  0
 14 12  1  0
 15  6  2  3
 16 14  2  0
 17 11  1  0
 18  7  1  0
 19  3  1  0
 19  9  1  0
 20  3  1  0
 20 19  1  0
 21  1  1  0
 21 10  2  0
 22 17  1  0
  7 23  1  1
 23 14  1  0
 24  9  1  0
 25  5  1  0
 25 17  1  0
 25 18  2  0
 26 17  1  0
 27  4  1  0
 27 12  1  0
  1 28  1  6
 28  4  1  0
M  RAD  4   6   2  13   2  15   2  24   2
M  END
>  <ID>  (1) 
conformer_0

$$$$
