
     RDKit          3D

 26 26  0  0  0  0  0  0  0  0999 V2000
    0.9525   19.1230  -28.8142 C   0  0  0  0  0  0  0  0  0  0  0  0
   -2.4811   11.5169  -27.9364 C   0  0  0  0  0  0  0  0  0  0  0  0
   -0.4844   18.0697  -21.4962 C   0  0  0  0  0  0  0  0  0  0  0  0
   -1.0306   18.1958  -26.8640 C   0  0  1  0  0  0  0  0  0  0  0  0
   -2.1649   10.1906  -29.9515 C   0  0  0  0  0  0  0  0  0  0  0  0
   -2.5508   14.5255  -27.6401 O   0  0  0  0  0  0  0  0  0  0  0  0
   -0.8977   16.0377  -28.6020 N   0  0  0  0  0  0  0  0  0  0  0  0
   -1.7065   18.2969  -25.8921 C   0  0  1  0  0  0  0  0  0  0  0  0
   -1.1243   18.0671  -22.4021 C   0  0  0  0  0  0  0  0  0  0  0  0
   -2.2023   18.6685  -24.5204 S   0  0  0  0  0  3  0  0  0  0  0  0
   -1.9086   12.4694  -28.9221 C   0  0  0  0  0  0  0  0  0  0  0  0
   -3.8028   18.5848  -24.6179 O   0  0  0  0  0  1  0  0  0  0  0  0
   -1.7673   14.8211  -28.4088 C   0  0  0  0  0  0  0  0  0  0  0  0
    1.7082   17.8010  -29.8551 C   0  0  0  0  0  0  0  0  0  0  0  0
   -1.8928   11.5149  -30.1852 C   0  0  0  0  0  0  0  0  0  0  0  0
   -3.3412    9.8435  -26.9656 C   0  0  2  0  0  0  0  0  0  0  0  0
    0.8577   17.8664  -28.9974 C   0  0  0  0  0  0  0  0  0  0  0  0
   -0.2579   19.3363  -27.2216 C   0  0  0  0  0  0  0  0  0  0  0  0
   -3.8933   10.6330  -25.9923 O   0  0  0  0  0  0  0  0  0  0  0  0
   -1.3666   13.8532  -29.2145 N   0  0  0  0  0  0  0  0  0  0  0  0
   -0.4440   17.2757  -27.9873 C   0  0  0  0  0  0  0  0  0  0  0  0
    2.6292   17.2025  -30.4674 S   0  0  0  0  0  3  0  0  0  0  0  0
   -1.8367   18.1750  -20.7442 C   0  0  0  0  0  0  0  0  0  0  0  0
   -2.6544   10.1665  -28.4174 C   0  0  2  0  0  0  0  0  0  0  0  0
    2.8827   17.0551  -31.2439 O   0  0  0  0  0  1  0  0  0  0  0  0
   -3.4171    8.4436  -27.1028 F   0  0  0  0  0  0  0  0  0  0  0  0
  8  4  1  0
  9  3  1  0
  8  9  1  1
 10  8  1  0
 11  2  2  0
 12 10  1  0
 13  6  2  0
 13  7  1  0
 15  5  2  0
 15 11  1  0
 17  1  2  3
 17 14  1  0
  4 18  1  1
 16 19  1  6
 20 11  1  0
 20 13  1  0
 21  4  1  0
 21  7  2  3
 21 17  1  0
 22 14  1  0
 23  3  1  0
 24  2  1  6
 24  5  1  0
 24 16  1  0
 25 22  1  0
 26 16  1  0
M  RAD  4  10   2  12   2  22   2  25   2
M  END
>  <ID>  (1) 
conformer_0

$$$$
