
     RDKit          3D

 25 25  0  0  0  0  0  0  0  0999 V2000
   -0.6072   19.2353  -26.2246 C   0  0  0  0  0  0  0  0  0  0  0  0
   -2.7140   10.2850  -27.9102 C   0  0  0  0  0  0  0  0  0  0  0  0
    0.5673   17.9259  -28.5850 C   0  0  0  0  0  0  0  0  0  0  0  0
   -2.3675    9.7557  -29.2046 C   0  0  0  0  0  0  0  0  0  0  0  0
   -1.1241   17.8576  -21.1152 C   0  0  0  0  0  0  0  0  0  0  0  0
    2.8452   17.1649  -30.3171 S   0  0  0  0  0  3  0  0  0  0  0  0
    2.0666   18.0128  -30.2248 C   0  0  0  0  0  3  0  0  0  0  0  0
   -0.9350   15.9505  -28.7194 N   0  0  0  0  0  0  0  0  0  0  0  0
    1.2654   18.8621  -29.5776 C   0  0  0  0  0  0  0  0  0  0  0  0
   -2.5789   14.4722  -27.5011 O   0  0  0  0  0  0  0  0  0  0  0  0
   -1.8939   14.7151  -28.3544 C   0  0  0  0  0  0  0  0  0  0  0  0
   -1.6964   18.2563  -25.8895 C   0  0  1  0  0  0  0  0  0  0  0  0
   -2.2627   10.6210  -30.3235 C   0  0  0  0  0  0  0  0  0  0  0  0
   -3.8358   18.3152  -24.6928 O   0  0  0  0  0  1  0  0  0  0  0  0
   -3.1730    8.6101  -26.9186 F   0  0  0  0  0  0  0  0  0  0  0  0
   -1.9817   12.3602  -28.6364 C   0  0  0  0  0  0  0  0  0  0  0  0
   -2.5420   18.4778  -24.5845 S   0  0  0  0  0  3  0  0  0  0  0  0
    0.1487   18.6884  -27.6017 C   0  0  0  0  0  0  0  0  0  0  0  0
   -1.2202   18.1222  -22.3802 C   0  0  0  0  0  0  0  0  0  0  0  0
    0.3481   16.9789  -28.6796 C   0  0  0  0  0  0  0  0  0  0  0  0
   -2.9460    9.0322  -27.4952 C   0  0  0  0  0  0  0  0  0  0  0  0
   -1.3257   13.7689  -28.7184 N   0  0  0  0  0  0  0  0  0  0  0  0
   -2.3589   11.6158  -27.7636 C   0  0  0  0  0  0  0  0  0  0  0  0
   -2.0005   11.9511  -29.9289 C   0  0  0  0  0  0  0  0  0  0  0  0
   -1.3044   17.4531  -26.9333 C   0  0  0  0  0  0  0  0  0  0  0  0
  4  2  2  0
  7  6  2  3
  9  3  1  0
  9  7  1  0
 11  8  1  0
 11 10  2  0
 12  1  1  0
 13  4  1  0
 17 12  1  0
 17 14  1  0
 18  1  2  0
 18  3  2  0
 19  5  3  0
 19 12  1  0
 20  3  1  0
 20  8  1  0
 21  2  1  0
 21 15  1  0
 22 11  1  0
 22 16  1  0
 23  2  1  0
 23 16  2  0
 24 13  2  0
 24 16  1  0
 12 25  1  6
M  RAD  4   6   2   7   2  14   2  17   2
M  END
>  <ID>  (1) 
conformer_0

$$$$
