
     RDKit          3D

 28 34  0  0  0  0  0  0  0  0999 V2000
   -2.4620   11.4084  -27.7905 C   0  0  0  0  0  0  0  0  0  0  0  0
    0.5090   17.5582  -28.7087 C   0  0  0  0  0  0  0  0  0  0  0  0
    1.3587   18.8681  -29.5696 C   0  0  0  0  0  0  0  0  0  0  0  0
   -0.4108   17.3729  -21.7857 C   0  0  0  0  0  0  0  0  0  0  0  0
   -2.5284   10.2989  -29.9567 C   0  0  0  0  0  0  0  0  0  0  0  0
    2.1410   17.7963  -30.0532 C   0  0  0  0  0  0  0  0  0  0  0  0
   -1.0101   17.8611  -27.1428 C   0  0  0  0  0  0  0  0  0  0  0  0
   -1.9692   12.4273  -28.7736 C   0  0  0  0  0  0  0  0  0  0  0  0
   -1.2772   18.3068  -22.5694 C   0  0  0  0  0  0  0  0  0  0  0  0
   -0.9862   15.8968  -28.7827 N   0  0  0  0  0  0  0  0  0  0  0  0
   -1.7627   18.3464  -25.9493 C   0  0  0  0  0  0  0  0  0  0  0  0
   -2.3632   14.5762  -27.5340 O   0  0  0  0  0  0  0  0  0  0  0  0
   -2.0237   11.6608  -30.2372 C   0  0  0  0  0  0  0  0  0  0  0  0
   -2.6050   10.2826  -25.4683 F   0  0  0  0  0  0  0  0  0  0  0  0
   -2.4464   18.1929  -24.6912 S   0  0  0  0  0  4  0  0  0  0  0  0
   -1.6857   14.7705  -28.4159 C   0  0  0  0  0  0  0  0  0  0  0  0
   -3.8098   17.4524  -24.6835 O   0  0  0  0  0  1  0  0  0  0  0  0
   -3.0955    9.9139  -26.7390 C   0  0  0  0  0  0  0  0  0  0  0  0
   -0.6740   19.2625  -26.3707 C   0  0  0  0  0  0  0  0  0  0  0  0
   -0.0682   16.8833  -28.5569 C   0  0  0  0  0  0  0  0  0  0  0  0
    2.2450   16.7033  -29.5079 S   0  0  0  0  0  0  0  0  0  0  0  0
   -1.4837   13.7323  -29.0233 N   0  0  0  0  0  0  0  0  0  0  0  0
   -2.9317    8.6798  -26.7094 F   0  0  0  0  0  0  0  0  0  0  0  0
   -2.8546   10.2077  -28.4904 C   0  0  0  0  0  0  0  0  0  0  0  0
   -1.6423   17.8013  -20.9951 C   0  0  0  0  0  0  0  0  0  0  0  0
    0.3087   18.8271  -27.9634 C   0  0  0  0  0  0  0  0  0  0  0  0
   -3.3297   19.3682  -24.5496 O   0  0  0  0  0  1  0  0  0  0  0  0
   -4.3291   10.2423  -26.2021 F   0  0  0  0  0  0  0  0  0  0  0  0
  3  2  1  0
  6  3  1  0
  8  1  2  0
  9  4  1  0
 11  7  1  0
 13  5  2  0
 13  8  1  0
 15  9  1  0
 15 11  1  0
 16 10  1  0
 16 12  2  0
 17 15  1  0
 18 14  1  0
 19  7  1  0
 19 11  1  0
 20  2  1  0
 20  7  1  0
 20 10  1  0
 21  2  1  0
 21  6  1  0
 22  8  1  0
 22 16  1  0
 23 18  1  0
 24  1  1  0
 24  5  1  0
 24 18  1  0
 25  4  1  0
 25  9  1  0
 26  2  1  0
 26  3  1  0
 26  7  1  0
 26 19  1  0
 27 15  1  0
 28 18  1  0
M  RAD  2  17   2  27   2
M  END
>  <ID>  (1) 
conformer_0

$$$$
