
     RDKit          3D

 29 31  0  0  0  0  0  0  0  0999 V2000
   -0.9200   17.3012  -21.2887 C   0  0  0  0  0  0  0  0  0  0  0  0
   -1.1122   17.6971  -26.9029 C   0  0  0  0  0  0  0  0  0  0  0  0
    1.0019   17.8775  -29.1646 C   0  0  0  0  0  0  0  0  0  0  0  0
   -2.2591   10.2758  -30.1547 C   0  0  0  0  0  0  0  0  0  0  0  0
   -1.9399   11.6201  -30.3590 C   0  0  0  0  0  0  0  0  0  0  0  0
    2.6383   17.7489  -30.4650 C   0  0  0  0  0  0  0  0  0  0  0  0
    2.7475   16.5113  -30.3250 S   0  0  0  0  0  0  0  0  0  0  0  0
   -0.8374   16.0278  -28.6945 N   0  0  0  0  0  0  0  0  0  0  0  0
   -1.8081   18.2862  -25.7313 C   0  0  0  0  0  0  0  0  0  0  0  0
   -1.8456   14.8022  -28.3971 C   0  0  0  0  0  0  0  0  0  0  0  0
   -2.5783   14.5946  -27.5876 O   0  0  0  0  0  0  0  0  0  0  0  0
   -1.8879   12.3641  -28.8689 C   0  0  0  0  0  0  0  0  0  0  0  0
    1.6633   18.8819  -29.9709 C   0  0  0  0  0  0  0  0  0  0  0  0
   -2.3630   18.3777  -24.5543 S   0  0  0  0  0  4  0  0  0  0  0  0
   -1.3029   18.0722  -22.6932 C   0  0  0  0  0  0  0  0  0  0  0  0
   -1.5926   17.9781  -20.8252 C   0  0  0  0  0  0  0  0  0  0  0  0
   -2.3049   11.3798  -27.8931 C   0  0  0  0  0  0  0  0  0  0  0  0
   -2.3020    9.8982  -25.6812 F   0  0  0  0  0  0  0  0  0  0  0  0
   -1.4515   13.6183  -29.0982 N   0  0  0  0  0  0  0  0  0  0  0  0
   -3.7411   18.0892  -24.5592 O   0  0  0  0  0  1  0  0  0  0  0  0
    1.0064   16.9707  -29.1274 C   0  0  0  0  0  0  0  0  0  0  0  0
   -2.9015    9.5871  -27.1026 C   0  0  0  0  0  0  0  0  0  0  0  0
   -0.7457   19.3069  -26.4721 C   0  0  0  0  0  0  0  0  0  0  0  0
   -2.7516    8.3477  -27.1295 F   0  0  0  0  0  0  0  0  0  0  0  0
   -2.5117   10.1412  -28.5836 C   0  0  0  0  0  0  0  0  0  0  0  0
   -2.5941   19.7838  -24.1922 O   0  0  0  0  0  1  0  0  0  0  0  0
   -1.1338   17.1071  -27.6460 C   0  0  0  0  0  0  0  0  0  0  0  0
    0.1169   18.7144  -28.0798 C   0  0  0  0  0  0  0  0  0  0  0  0
   -3.9780    9.9558  -26.3797 F   0  0  0  0  0  0  0  0  0  0  0  0
  5  4  2  0
  7  6  1  0
  9  2  1  0
 10  8  1  0
 11 10  2  0
 12  5  1  0
 13  3  1  0
 13  6  2  0
 14  9  1  0
 15  1  1  0
 15 14  1  0
 16  1  1  0
 17 12  2  0
 19 10  1  0
 19 12  1  0
 20 14  1  0
 21  3  1  0
 21  7  1  0
 22 18  1  0
 23  2  1  0
 23  9  1  0
 24 22  1  0
 25  4  1  0
 25 17  1  0
 25 22  1  0
 26 14  1  0
 27  2  1  0
 27  8  1  0
 28  3  2  0
 28 23  2  0
 29 22  1  0
M  RAD  2  20   2  26   2
M  END
>  <ID>  (1) 
conformer_0

$$$$
