
     RDKit          3D

 29 31  0  0  0  0  0  0  0  0999 V2000
   -0.7588   17.6329  -21.4980 C   0  0  0  0  0  0  0  0  0  0  0  0
   -0.9811   17.8679  -27.1209 C   0  0  0  0  0  0  0  0  0  0  0  0
   -2.6853   10.1746  -29.7000 C   0  0  0  0  0  0  0  0  0  0  0  0
   -2.7916   10.2471  -28.1704 C   0  0  0  0  0  0  0  0  0  0  0  0
    0.4246   17.8142  -28.6718 C   0  0  0  0  0  0  0  0  0  0  0  0
    1.3067   18.9408  -29.4722 C   0  0  0  0  0  0  0  0  0  0  0  0
    2.8018   16.9307  -29.9723 S   0  0  0  0  0  0  0  0  0  0  0  0
    1.9014   17.7813  -29.9498 C   0  0  0  0  0  0  0  0  0  0  0  0
   -0.8548   15.7258  -28.7964 N   0  0  0  0  0  0  0  0  0  0  0  0
   -3.6784    8.3006  -27.5819 F   0  0  0  0  0  0  0  0  0  0  0  0
   -2.1142   11.4290  -30.0126 C   0  0  0  0  0  0  0  0  0  0  0  0
   -1.6078   18.1343  -26.0716 C   0  0  0  0  0  0  0  0  0  0  0  0
   -1.8670   12.3916  -28.7809 C   0  0  0  0  0  0  0  0  0  0  0  0
   -3.9107   17.7288  -24.9255 O   0  0  0  0  0  1  0  0  0  0  0  0
   -2.5283   18.3389  -24.6609 S   0  0  0  0  0  4  0  0  0  0  0  0
   -1.9372   14.5756  -28.4946 C   0  0  0  0  0  0  0  0  0  0  0  0
   -1.3466   18.4771  -20.9631 C   0  0  0  0  0  0  0  0  0  0  0  0
   -2.1907   14.3250  -27.3468 O   0  0  0  0  0  0  0  0  0  0  0  0
   -1.7107   18.0690  -22.5729 C   0  0  0  0  0  0  0  0  0  0  0  0
   -0.2120   16.8972  -28.4370 C   0  0  0  0  0  0  0  0  0  0  0  0
   -3.1297    9.3767  -27.1292 C   0  0  0  0  0  0  0  0  0  0  0  0
    0.3835   19.3581  -27.9319 C   0  0  0  0  0  0  0  0  0  0  0  0
   -0.5908   19.3736  -26.7516 C   0  0  0  0  0  0  0  0  0  0  0  0
    2.0473   19.2602  -31.1820 C   0  0  0  0  0  0  0  0  0  0  0  0
   -2.1151   17.4038  -23.8926 N   0  0  0  0  0  0  0  0  0  0  0  0
   -2.2164   11.4709  -27.7395 C   0  0  0  0  0  0  0  0  0  0  0  0
   -1.4534   13.6721  -29.1544 N   0  0  0  0  0  0  0  0  0  0  0  0
   -3.1731   19.6174  -24.5485 O   0  0  0  0  0  1  0  0  0  0  0  0
   -3.2991    9.3501  -26.2596 F   0  0  0  0  0  0  0  0  0  0  0  0
  4  3  2  0
  6  5  1  0
  8  6  1  0
  8  7  2  0
 11  3  1  0
 12  2  1  0
 13 11  1  0
 15 12  1  0
 15 14  1  0
 16  9  1  0
 17  1  1  0
 18 16  1  0
 19  1  1  0
 20  2  2  0
 20  5  1  0
 20  9  1  0
 21  4  1  0
 21 10  1  0
 22  5  2  0
 22  6  1  0
 23  2  1  0
 23 22  1  0
 24  6  1  0
 25 15  1  0
 25 19  1  0
 26  4  1  0
 26 13  2  0
 27 13  1  0
 27 16  1  0
 28 15  1  0
 29 21  1  0
M  RAD  2  14   2  28   2
M  END
>  <ID>  (1) 
conformer_0

$$$$
