
     RDKit          3D

 27 29  0  0  0  0  0  0  0  0999 V2000
    0.0151   18.7137  -27.6693 C   0  0  0  0  0  0  0  0  0  0  0  0
   -2.2873   11.1922  -27.8086 C   0  0  0  0  0  0  0  0  0  0  0  0
    0.6753   18.1564  -28.6328 C   0  0  0  0  0  0  0  0  0  0  0  0
   -2.2852   10.2668  -30.1417 C   0  0  0  0  0  0  0  0  0  0  0  0
   -0.6168   17.1792  -21.4256 C   0  0  0  0  0  0  0  0  0  0  0  0
   -2.0321   14.6483  -28.4775 C   0  0  2  0  0  0  0  0  0  0  0  0
    1.3330   19.0951  -29.6363 C   0  0  0  0  0  0  0  0  0  0  0  0
    1.9357   17.9366  -30.2463 C   0  0  0  0  0  0  0  0  0  0  0  0
   -0.7956   16.0584  -28.5793 N   0  0  0  0  0  0  0  0  0  0  0  0
   -2.3655   14.4972  -27.3877 O   0  0  0  0  0  0  0  0  0  0  0  0
   -2.4037   18.6815  -24.2970 S   0  0  0  0  0  4  0  0  0  0  0  0
   -1.7677   11.5827  -30.0787 C   0  0  0  0  0  0  0  0  0  0  0  0
   -1.7025   18.2407  -25.8834 C   0  0  0  0  0  0  0  0  0  0  0  0
    2.3927   16.8548  -30.1617 S   0  0  0  0  0  0  0  0  0  0  0  0
   -1.8660   12.1845  -28.6953 C   0  0  0  0  0  0  0  0  0  0  0  0
   -3.2704    9.6484  -27.1417 C   0  0  2  0  0  0  0  0  0  0  0  0
    0.0334   17.0353  -28.4173 C   0  0  0  0  0  0  0  0  0  0  0  0
   -1.4358   17.5142  -26.6179 C   0  0  0  0  0  0  0  0  0  0  0  0
   -4.0719   18.1355  -24.7205 O   0  0  0  0  0  1  0  0  0  0  0  0
   -1.3744   18.1252  -22.2786 C   0  0  0  0  0  0  0  0  0  0  0  0
   -1.3478   13.9054  -29.0479 N   0  0  0  0  0  0  0  0  0  0  0  0
   -2.6374    9.9353  -28.5979 C   0  0  2  0  0  0  0  0  0  0  0  0
   -0.6964   19.3069  -26.3686 C   0  0  0  0  0  0  0  0  0  0  0  0
   -2.7400    8.9030  -26.6267 O   0  0  0  0  0  0  0  0  0  0  0  0
   -1.5361   18.6230  -20.7530 C   0  0  0  0  0  0  0  0  0  0  0  0
   -2.9014   19.8252  -24.2402 O   0  0  0  0  0  1  0  0  0  0  0  0
   -3.4310    9.5840  -26.1699 F   0  0  0  0  0  0  0  0  0  0  0  0
  3  1  2  0
  7  3  1  0
  8  7  1  0
  9  6  1  0
  6 10  1  1
 12  4  2  0
 13 11  1  0
 14  8  2  0
 15  2  2  0
 15 12  1  0
 16  2  1  0
 17  3  1  0
 17  9  1  0
 18 13  2  3
 19 11  1  0
 20  5  1  0
 20 11  1  0
 21  6  1  0
 21 15  1  0
 22  2  1  0
 22  4  1  6
 22 16  1  0
 23  1  2  0
 23 13  1  0
 16 24  1  1
 25  5  1  0
 25 20  1  0
 26 11  1  0
 27 16  1  0
M  RAD  2  19   2  26   2
M  END
>  <ID>  (1) 
conformer_0

$$$$
