
     RDKit          3D

 30 32  0  0  0  0  0  0  0  0999 V2000
   -0.5410   19.7873  -26.1288 C   0  0  0  0  0  0  0  0  0  0  0  0
   -2.2637   10.2255  -30.1432 C   0  0  0  0  0  0  0  0  0  0  0  0
   -0.9626   17.8009  -21.3289 C   0  0  0  0  0  0  0  0  0  0  0  0
   -0.5933   18.6254  -27.0117 C   0  0  0  0  0  0  0  0  0  0  0  0
   -2.0104   11.6870  -30.3467 C   0  0  0  0  0  0  0  0  0  0  0  0
    0.2712   18.7451  -28.0895 C   0  0  0  0  0  0  0  0  0  0  0  0
    2.2457   17.6550  -30.3513 C   0  0  0  0  0  0  0  0  0  0  0  0
   -0.9897   15.9657  -28.7270 N   0  0  0  0  0  0  0  0  0  0  0  0
   -1.2210   18.3261  -22.3709 C   0  0  0  0  0  0  0  0  0  0  0  0
   -1.5834   18.5641  -25.7092 C   0  0  0  0  0  0  0  0  0  0  0  0
   -2.3589   18.7157  -24.3673 S   0  0  0  0  0  4  0  0  0  0  0  0
   -2.5490   14.4638  -27.7485 O   0  0  0  0  0  0  0  0  0  0  0  0
    2.5629   16.6195  -30.2537 S   0  0  0  0  0  0  0  0  0  0  0  0
   -2.4101    8.4855  -27.2958 F   0  0  0  0  0  0  0  0  0  0  0  0
   -3.9577   17.8878  -24.7070 O   0  0  0  0  0  1  0  0  0  0  0  0
   -2.4733   11.5112  -28.0819 C   0  0  0  0  0  0  0  0  0  0  0  0
   -1.8404   14.6775  -28.5914 C   0  0  0  0  0  0  0  0  0  0  0  0
   -1.4595   17.4118  -26.8151 C   0  0  0  0  0  0  0  0  0  0  0  0
   -2.0560   12.5370  -29.1499 C   0  0  0  0  0  0  0  0  0  0  0  0
   -2.8694    9.6699  -27.0721 C   0  0  0  0  0  0  0  0  0  0  0  0
    0.3928   16.8320  -28.8770 C   0  0  0  0  0  0  0  0  0  0  0  0
   -1.7386   18.7397  -23.0134 N   0  0  0  0  0  0  0  0  0  0  0  0
   -1.7922   18.5674  -20.5912 C   0  0  0  0  0  0  0  0  0  0  0  0
   -3.0574   19.7969  -24.3068 O   0  0  0  0  0  1  0  0  0  0  0  0
   -1.6453   14.0044  -29.3346 N   0  0  0  0  0  0  0  0  0  0  0  0
   -2.7336   10.1743  -28.6323 C   0  0  2  0  0  0  0  0  0  0  0  0
    1.4869   18.8089  -29.9259 C   0  0  0  0  0  0  0  0  0  0  0  0
   -2.1404    9.9713  -25.8981 F   0  0  0  0  0  0  0  0  0  0  0  0
   -4.1583    9.8951  -26.7118 F   0  0  0  0  0  0  0  0  0  0  0  0
    0.6572   17.4955  -28.8940 C   0  0  0  0  0  0  0  0  0  0  0  0
  4  1  1  0
  5  2  2  0
  6  4  1  0
  9  3  1  0
 10  1  1  0
 10  4  1  0
 11 10  1  0
 13  7  2  0
 15 11  1  0
 17  8  1  0
 17 12  2  0
 18  4  1  0
 18 10  1  0
 19  5  1  0
 19 16  2  0
 20 14  1  0
 21  8  1  0
 22  9  1  0
 22 11  1  0
 23  3  1  0
 24 11  1  0
 25 17  1  0
 25 19  1  0
 26  2  1  0
 26 16  1  0
 26 20  1  1
 27  7  1  0
 28 20  1  0
 29 20  1  0
 30  6  2  3
 30 21  1  0
 30 27  1  0
M  RAD  2  15   2  24   2
M  END
>  <ID>  (1) 
conformer_0

$$$$
