
     RDKit          3D

 27 29  0  0  0  0  0  0  0  0999 V2000
   -2.4225   10.6184  -30.0653 C   0  0  0  0  0  0  0  0  0  0  0  0
    0.5725   18.1726  -28.8215 C   0  0  0  0  0  0  0  0  0  0  0  0
    1.1837   18.9509  -29.8965 C   0  0  0  0  0  0  0  0  0  0  0  0
   -2.1730   11.8082  -27.8240 C   0  0  0  0  0  0  0  0  0  0  0  0
   -1.6801   18.1526  -20.7980 C   0  0  0  0  0  0  0  0  0  0  0  0
   -0.6171   19.4780  -26.1467 C   0  0  0  0  0  0  0  0  0  0  0  0
    2.2561   17.9695  -30.0596 C   0  0  0  0  0  0  0  0  0  0  0  0
   -1.2709   18.0979  -22.3424 C   0  0  0  0  0  0  0  0  0  0  0  0
   -0.1858   18.7677  -27.5311 C   0  0  0  0  0  0  0  0  0  0  0  0
   -1.5786   18.4061  -25.5362 C   0  0  0  0  0  0  0  0  0  0  0  0
    2.6880   16.9607  -29.5192 S   0  0  0  0  0  0  0  0  0  0  0  0
   -1.7904   12.5843  -28.8481 C   0  0  0  0  0  0  0  0  0  0  0  0
   -2.3509   14.7438  -27.7281 O   0  0  0  0  0  0  0  0  0  0  0  0
   -0.7071   16.0411  -28.6861 N   0  0  0  0  0  0  0  0  0  0  0  0
   -2.3175   18.4109  -24.1471 S   0  0  0  0  0  3  0  0  0  0  0  0
   -3.4011    9.9911  -27.0313 C   0  0  0  0  0  0  0  0  0  0  0  0
   -3.7286   18.2471  -24.5035 O   0  0  0  0  0  1  0  0  0  0  0  0
   -1.8277   11.9056  -30.2021 C   0  0  0  0  0  0  0  0  0  0  0  0
   -4.7762   10.3248  -26.6140 F   0  0  0  0  0  0  0  0  0  0  0  0
   -1.7907   14.9431  -28.5908 C   0  0  0  0  0  0  0  0  0  0  0  0
    0.2717   17.1256  -28.5152 C   0  0  0  0  0  0  0  0  0  0  0  0
   -1.2580   17.6384  -26.7012 C   0  0  0  0  0  0  0  0  0  0  0  0
   -3.2877    8.7079  -27.1456 F   0  0  0  0  0  0  0  0  0  0  0  0
   -2.8039   10.5244  -28.4648 C   0  0  0  0  0  0  0  0  0  0  0  0
   -1.1305   13.9238  -29.1088 N   0  0  0  0  0  0  0  0  0  0  0  0
   -0.2565   17.4337  -21.5470 C   0  0  0  0  0  0  0  0  0  0  0  0
   -3.1125   10.2455  -25.6391 F   0  0  0  0  0  0  0  0  0  0  0  0
  3  2  1  0
  7  3  1  0
  8  5  1  0
  9  2  1  0
  9  6  1  0
 10  6  1  0
 10  8  1  0
 11  7  2  0
 12  4  2  0
 15 10  1  0
 17 15  1  0
 18  1  2  0
 18 12  1  0
 19 16  1  0
 20 13  1  0
 20 14  1  0
 21  2  1  0
 21 14  1  0
 22  9  2  0
 22 10  1  0
 23 16  1  0
 24  1  1  0
 24  4  1  0
 24 16  1  0
 25 12  1  0
 25 20  1  0
 26  5  1  0
 26  8  1  0
 27 16  1  0
M  RAD  2  15   2  17   2
M  END
>  <ID>  (1) 
conformer_0

$$$$
