
     RDKit          3D

 30 31  0  0  0  0  0  0  0  0999 V2000
   -0.7829   19.4878  -26.5013 C   0  0  0  0  0  0  0  0  0  0  0  0
   -2.4199   11.2246  -27.8188 C   0  0  0  0  0  0  0  0  0  0  0  0
   -1.5139   17.3034  -20.8078 C   0  0  0  0  0  0  0  0  0  0  0  0
    0.0806   17.9579  -28.0975 C   0  0  1  0  0  0  0  0  0  0  0  0
   -2.0882   11.6637  -30.3405 C   0  0  0  0  0  0  0  0  0  0  0  0
    0.9276   18.2919  -29.3012 C   0  0  0  0  0  0  0  0  0  0  0  0
   -1.9045   12.4061  -28.9042 C   0  0  0  0  0  0  0  0  0  0  0  0
   -0.8555   15.5437  -28.7678 N   0  0  0  0  0  0  0  0  0  0  0  0
    2.5200   16.5510  -29.8510 S   0  0  0  0  0  0  0  0  0  0  0  0
   -2.4966   18.4662  -24.3816 S   0  0  0  0  0  4  0  0  0  0  0  0
   -1.7853   14.1482  -28.6856 C   0  0  0  0  0  0  0  0  0  0  0  0
    2.2385   17.5536  -30.2819 C   0  0  0  0  0  0  0  0  0  0  0  0
   -2.4397   14.5515  -27.6766 O   0  0  0  0  0  0  0  0  0  0  0  0
   -1.5766   18.3179  -26.0442 C   0  0  0  0  0  0  0  0  0  0  0  0
   -0.0617   19.3352  -27.5949 C   0  0  0  0  0  0  0  0  0  0  0  0
   -3.8593   17.7571  -24.6848 O   0  0  0  0  0  1  0  0  0  0  0  0
   -1.3031   18.1359  -22.6202 C   0  0  0  0  0  0  0  0  0  0  0  0
   -3.3020    9.7639  -27.1357 C   0  0  0  0  0  0  0  0  0  0  0  0
   -3.1578   10.2402  -25.6454 F   0  0  0  0  0  0  0  0  0  0  0  0
    0.1008   16.9046  -28.4992 C   0  0  0  0  0  0  0  0  0  0  0  0
   -2.5026   10.2603  -30.0816 C   0  0  0  0  0  0  0  0  0  0  0  0
   -1.7354   18.6533  -20.6555 C   0  0  0  0  0  0  0  0  0  0  0  0
   -2.8464   19.7493  -24.3245 O   0  0  0  0  0  1  0  0  0  0  0  0
   -3.1256    8.5631  -27.2131 F   0  0  0  0  0  0  0  0  0  0  0  0
   -1.3726   17.4647  -26.7108 C   0  0  0  0  0  0  0  0  0  0  0  0
   -1.9420   18.3111  -23.0964 N   0  0  0  0  0  0  0  0  0  0  0  0
   -2.8324   10.0710  -28.6179 C   0  0  1  0  0  0  0  0  0  0  0  0
   -4.6922    9.9006  -26.8389 F   0  0  0  0  0  0  0  0  0  0  0  0
    1.6428   18.7288  -30.3827 C   0  0  0  0  0  0  0  0  0  0  0  0
   -0.1767   17.7453  -21.9127 C   0  0  0  0  0  0  0  0  0  0  0  0
  6  4  1  0
  7  2  2  0
  7  5  1  0
 11  7  1  0
 11  8  1  0
 12  6  1  0
 12  9  2  0
 13 11  2  0
 14  1  1  0
 14 10  1  0
 15  1  2  3
 15  4  1  0
 16 10  1  0
 19 18  1  0
  4 20  1  6
 20  8  1  0
 21  5  2  0
 22  3  1  0
 23 10  1  0
 24 18  1  0
 25 14  2  3
 26 10  1  0
 26 17  1  0
 27  2  1  0
 27 18  1  6
 27 21  1  0
 28 18  1  0
 29  6  2  0
 29 12  1  0
 30  3  1  0
 30 17  1  0
M  RAD  2  16   2  23   2
M  END
>  <ID>  (1) 
conformer_0

$$$$
