
     RDKit          3D

 31 34  0  0  0  0  0  0  0  0999 V2000
   -2.1928   11.7714  -28.0051 C   0  0  0  0  0  0  0  0  0  0  0  0
    0.1437   18.9517  -27.8486 C   0  0  0  0  0  3  0  0  0  0  0  0
   -0.5089   17.1609  -21.8479 C   0  0  0  0  0  0  0  0  0  0  0  0
    0.6292   17.9280  -28.6945 C   0  0  0  0  0  0  0  0  0  0  0  0
   -2.5121   10.5717  -30.3418 C   0  0  0  0  0  0  0  0  0  0  0  0
   -1.9781   11.8688  -30.0845 C   0  0  0  0  0  0  0  0  0  0  0  0
    2.0567   17.8032  -30.0974 C   0  0  0  0  0  0  0  0  0  0  0  0
   -2.5866   14.6495  -27.3595 O   0  0  0  0  0  0  0  0  0  0  0  0
   -2.1412   14.5699  -28.6861 C   0  0  0  0  0  0  0  0  0  0  0  0
   -0.8466   16.1530  -28.6470 N   0  0  0  0  0  0  0  0  0  0  0  0
   -1.4999   18.3277  -26.0277 C   0  0  0  0  0  0  0  0  0  0  0  0
    1.4771   18.9095  -29.7754 C   0  0  0  0  0  0  0  0  0  0  0  0
   -2.6380   10.1605  -25.5869 F   0  0  0  0  0  0  0  0  0  0  0  0
   -2.2213   18.4799  -24.5623 S   0  0  0  0  0  4  0  0  0  0  0  0
   -1.4856   18.8549  -20.9114 C   0  0  0  0  0  0  0  0  0  0  0  0
   -3.5221   17.2943  -24.6293 O   0  0  0  0  0  1  0  0  0  0  0  0
   -0.1906   17.0435  -28.3269 C   0  0  0  0  0  0  0  0  0  0  0  0
   -3.2749    9.8549  -26.8550 C   0  0  0  0  0  0  0  0  0  0  0  0
   -1.1292   18.0700  -22.5987 C   0  0  0  0  0  0  0  0  0  0  0  0
    2.1326   16.7247  -29.8417 S   0  0  0  0  0  0  0  0  0  0  0  0
   -1.2417   17.6079  -26.8675 C   0  0  0  0  0  0  0  0  0  0  0  0
   -2.1428   12.4990  -28.8574 C   0  0  0  0  0  0  0  0  0  0  0  0
   -2.8608   10.5568  -27.9364 C   0  0  0  0  0  0  0  0  0  0  0  0
   -3.0390    8.6349  -26.8835 F   0  0  0  0  0  0  0  0  0  0  0  0
   -2.0004   18.0019  -23.2687 N   0  0  0  0  0  0  0  0  0  0  0  0
   -4.4082   10.1895  -26.3057 F   0  0  0  0  0  0  0  0  0  0  0  0
   -1.4584   14.1879  -28.8960 N   0  0  0  0  0  0  0  0  0  0  0  0
   -3.0431    9.8231  -29.1843 C   0  0  0  0  0  0  0  0  0  0  0  0
   -0.5456   19.3970  -26.6082 C   0  0  0  0  0  0  0  0  0  0  0  0
   -1.4050   17.1668  -20.6163 C   0  0  0  0  0  0  0  0  0  0  0  0
   -3.3374   19.3018  -24.6273 O   0  0  0  0  0  1  0  0  0  0  0  0
  4  2  1  0
  6  5  2  0
  9  8  1  0
 10  9  1  0
 12  4  1  0
 12  7  2  0
 14 11  1  0
 16 14  1  0
 17  4  1  0
 17 10  1  0
 18 13  1  0
 19  3  1  0
 19 15  1  0
 20  4  1  0
 20  7  1  0
 21 11  1  0
 21 17  2  0
 22  1  2  0
 22  6  1  0
 23  1  1  0
 23 18  1  0
 24 18  1  0
 25 14  1  0
 25 19  1  0
 26 18  1  0
 27  9  1  0
 27 22  1  0
 28  5  1  0
 28 23  2  0
 29  2  1  0
 29 11  2  0
 30  3  1  0
 30 15  1  0
 31 14  1  0
M  RAD  3   2   2  16   2  31   2
M  END
>  <ID>  (1) 
conformer_0

$$$$
