
     RDKit          3D

 29 29  0  0  0  0  0  0  0  0999 V2000
   -0.9579   17.5121  -21.2941 C   0  0  0  0  0  0  0  0  0  0  0  0
   -1.7590   11.5502  -30.0974 C   0  0  0  0  0  0  0  0  0  0  0  0
   -0.6574   19.5172  -26.3054 C   0  0  0  0  0  0  0  0  0  0  0  0
    0.4536   18.1276  -28.4224 C   0  0  1  0  0  0  0  0  0  0  0  0
   -2.2991   10.2137  -29.7708 C   0  0  0  0  0  0  0  0  0  0  0  0
    0.1045   17.0206  -28.5184 C   0  0  0  0  0  0  0  0  0  0  0  0
   -2.5272   14.6432  -27.6362 O   0  0  0  0  0  0  0  0  0  0  0  0
   -0.7612   16.0304  -28.7402 N   0  0  0  0  0  0  0  0  0  0  0  0
    1.3343   18.7070  -29.5309 C   0  0  2  0  0  0  0  0  0  0  0  0
    2.3003   16.6914  -29.9202 S   0  0  0  0  0  0  0  0  0  0  0  0
   -1.5474   18.4081  -25.9857 C   0  0  0  0  0  0  0  0  0  0  0  0
   -1.8394   12.5340  -28.9083 C   0  0  0  0  0  0  0  0  0  0  0  0
   -2.2852   11.7170  -27.8987 C   0  0  0  0  0  0  0  0  0  0  0  0
   -1.4741   18.2251  -22.7265 C   0  0  0  0  0  0  0  0  0  0  0  0
   -2.6291    8.2988  -27.0292 F   0  0  0  0  0  0  0  0  0  0  0  0
   -3.8391   17.6924  -24.9647 O   0  0  0  0  0  1  0  0  0  0  0  0
   -1.8077   14.6827  -28.5955 C   0  0  0  0  0  0  0  0  0  0  0  0
   -3.0250    9.4629  -27.3041 C   0  0  0  0  0  0  0  0  0  0  0  0
   -2.4062   18.4767  -24.6431 S   0  0  0  0  0  4  0  0  0  0  0  0
   -1.2984   18.5237  -20.9674 C   0  0  0  0  0  0  0  0  0  0  0  0
    0.0681   19.2211  -27.6290 C   0  0  0  0  0  0  0  0  0  0  0  0
    1.9912   17.7861  -29.9954 C   0  0  0  0  0  0  0  0  0  0  0  0
   -1.4234   13.9958  -29.2025 N   0  0  0  0  0  0  0  0  0  0  0  0
    1.7850   20.0414  -29.9404 C   0  0  0  0  0  0  0  0  0  0  0  0
   -2.6301   10.3257  -28.2707 C   0  0  0  0  0  0  0  0  0  0  0  0
   -4.4209    9.3270  -27.3554 F   0  0  0  0  0  0  0  0  0  0  0  0
   -3.0451    9.8737  -25.8896 F   0  0  0  0  0  0  0  0  0  0  0  0
   -3.2706   19.4965  -24.6489 O   0  0  0  0  0  1  0  0  0  0  0  0
   -1.1644   17.6265  -26.8484 C   0  0  0  0  0  0  0  0  0  0  0  0
  5  2  2  0
  4  6  1  6
  8  6  1  0
  9  4  1  0
 11  3  1  0
 12  2  1  0
 13 12  1  0
 14  1  1  0
 17  7  2  0
 17  8  1  0
 18 15  1  0
 19 11  1  0
 19 14  1  0
 19 16  1  0
 20  1  1  0
 21  3  1  0
 21  4  1  0
 22  9  1  0
 22 10  2  0
 23 12  1  0
 23 17  1  0
  9 24  1  1
 25  5  1  0
 25 13  2  0
 25 18  1  0
 26 18  1  0
 27 18  1  0
 28 19  1  0
 29 11  2  3
M  RAD  2  16   2  28   2
M  END
>  <ID>  (1) 
conformer_0

$$$$
