
     RDKit          3D

 29 31  0  0  0  0  0  0  0  0999 V2000
   -2.0364   11.2470  -30.2510 C   0  0  0  0  0  0  0  0  0  0  0  0
   -0.7895   19.3963  -26.0641 C   0  0  0  0  0  0  0  0  0  0  0  0
   -0.5062   17.6402  -22.1138 C   0  0  0  0  0  0  0  0  0  0  0  0
    0.4853   18.3188  -28.4376 C   0  0  1  0  0  0  0  0  0  0  0  0
   -2.6075    9.9391  -29.8386 C   0  0  0  0  0  0  0  0  0  0  0  0
    1.2626   18.9716  -29.5205 C   0  0  0  0  0  0  0  0  0  0  0  0
    2.6189   17.2017  -30.3276 S   0  0  0  0  0  3  0  0  0  0  0  0
   -0.7249   15.9131  -28.8295 N   0  0  0  0  0  0  0  0  0  0  0  0
    2.0187   18.0928  -30.1834 C   0  0  0  0  0  3  0  0  0  0  0  0
   -2.1827   14.4799  -27.6496 O   0  0  0  0  0  0  0  0  0  0  0  0
   -1.7590   18.3066  -25.6836 C   0  0  0  0  0  0  0  0  0  0  0  0
   -1.8395   14.4755  -28.6538 C   0  0  2  0  0  0  0  0  0  0  0  0
   -1.1372   13.3579  -29.1852 N   0  0  0  0  0  0  0  0  0  0  0  0
   -1.3024   17.3238  -20.8894 C   0  0  0  0  0  0  0  0  0  0  0  0
   -1.7831   12.0551  -28.9768 C   0  0  1  0  0  0  0  0  0  0  0  0
   -2.5200   18.4240  -24.3153 S   0  0  0  0  0  4  0  0  0  0  0  0
   -2.2798   11.4209  -27.8198 C   0  0  0  0  0  0  0  0  0  0  0  0
   -0.1591   18.7797  -27.3574 C   0  0  0  0  0  0  0  0  0  0  0  0
    0.2445   17.0603  -28.6378 C   0  0  0  0  0  0  0  0  0  0  0  0
   -3.8423   17.6508  -24.3891 O   0  0  0  0  0  1  0  0  0  0  0  0
   -4.9036    9.5795  -27.3984 F   0  0  0  0  0  0  0  0  0  0  0  0
   -3.4655    9.5476  -27.3428 C   0  0  0  0  0  0  0  0  0  0  0  0
   -1.3762   18.1267  -22.6573 C   0  0  0  0  0  0  0  0  0  0  0  0
   -2.8435   10.1220  -28.3121 C   0  0  0  0  0  0  0  0  0  0  0  0
   -1.2722   17.5749  -26.7695 C   0  0  0  0  0  0  0  0  0  0  0  0
   -3.2684   19.5919  -24.3254 O   0  0  0  0  0  1  0  0  0  0  0  0
   -3.1601    8.4496  -26.9988 F   0  0  0  0  0  0  0  0  0  0  0  0
   -1.4507   18.9036  -20.8992 C   0  0  0  0  0  0  0  0  0  0  0  0
   -3.8512   10.3203  -25.9313 F   0  0  0  0  0  0  0  0  0  0  0  0
  5  1  2  0
  4  6  1  6
  9  6  1  0
  9  7  2  3
 11  2  2  0
 12  8  1  0
 12 10  1  1
 13 12  1  0
 14  3  1  0
 15  1  1  0
 15 13  1  6
 16 11  1  0
 17 15  1  0
 18  2  1  0
 18  4  1  0
 19  4  1  0
 19  8  1  0
 20 16  1  0
 22 21  1  0
 23  3  1  0
 23 16  1  0
 24  5  1  0
 24 17  2  0
 24 22  1  0
 25 11  1  0
 25 18  2  0
 26 16  1  0
 27 22  1  0
 28 14  1  0
 28 23  1  0
 29 22  1  0
M  RAD  4   7   2   9   2  20   2  26   2
M  END
>  <ID>  (1) 
conformer_0

$$$$
