
     RDKit          3D

 26 28  0  0  0  0  0  0  0  0999 V2000
   -1.6395   11.5864  -30.1513 C   0  0  0  0  0  0  0  0  0  0  0  0
   -1.0278   18.0538  -26.7462 C   0  0  0  0  0  0  0  0  0  0  0  0
   -0.2213   19.1271  -26.9534 C   0  0  0  0  0  0  0  0  0  0  0  0
   -1.7886   18.3032  -20.6401 C   0  0  0  0  0  0  0  0  0  0  0  0
   -2.7136   10.1773  -28.7340 C   0  0  0  0  0  0  0  0  0  0  0  0
   -0.2673   16.8622  -28.2718 C   0  0  0  0  0  0  0  0  0  0  0  0
    1.8334   17.8937  -29.9822 C   0  0  0  0  0  3  0  0  0  0  0  0
   -2.3763   14.1998  -27.5071 O   0  0  0  0  0  0  0  0  0  0  0  0
   -0.7280   15.8423  -28.6732 N   0  0  0  0  0  0  0  0  0  0  0  0
   -1.3269   18.0337  -22.2833 C   0  0  0  0  0  0  0  0  0  0  0  0
    0.4882   18.1250  -28.3220 C   0  0  1  0  0  0  0  0  0  0  0  0
   -4.1254   18.3292  -24.8154 O   0  0  0  0  0  1  0  0  0  0  0  0
   -1.7407   18.0201  -26.0149 C   0  0  2  0  0  0  0  0  0  0  0  0
   -2.2467   10.3017  -30.1885 C   0  0  0  0  0  0  0  0  0  0  0  0
   -2.4903   18.6174  -24.3980 S   0  0  0  0  0  4  0  0  0  0  0  0
   -1.9131   12.4864  -28.9379 C   0  0  1  0  0  0  0  0  0  0  0  0
   -1.7910   14.3523  -28.3557 C   0  0  1  0  0  0  0  0  0  0  0  0
   -3.1951    9.3300  -27.6219 C   0  0  0  0  0  0  0  0  0  0  0  0
   -3.9977    9.1345  -27.2465 O   0  0  0  0  0  0  0  0  0  0  0  0
    2.4746   17.0043  -30.3424 S   0  0  0  0  0  3  0  0  0  0  0  0
   -2.5416   19.8332  -24.2085 O   0  0  0  0  0  1  0  0  0  0  0  0
   -0.7662   17.0269  -21.4550 C   0  0  0  0  0  0  0  0  0  0  0  0
   -2.1782   16.0110  -26.8956 S   0  0  0  0  0  0  0  0  0  0  0  0
    1.2146   18.9090  -29.1422 C   0  0  0  0  0  0  0  0  0  0  0  0
   -2.3348   11.4181  -28.0304 C   0  0  0  0  0  0  0  0  0  0  0  0
   -1.4402   13.9835  -29.1502 N   0  0  0  0  0  0  0  0  0  0  0  0
  3  2  2  0
  9  6  1  0
 10  4  1  0
 11  3  1  0
 11  6  1  0
 13  2  1  0
 14  1  2  0
 14  5  1  0
 15 10  1  0
 15 12  1  0
 13 15  1  1
 16  1  1  0
 17  8  1  0
 17  9  1  0
 18  5  1  0
 19 18  2  0
 20  7  2  3
 21 15  1  0
 22  4  1  0
 22 10  1  0
 23  8  1  0
 23 13  1  0
 24  7  1  0
 11 24  1  6
 25  5  2  0
 25 16  1  0
 16 26  1  1
 17 26  1  1
M  RAD  4   7   2  12   2  20   2  21   2
M  END
>  <ID>  (1) 
conformer_0

$$$$
