
     RDKit          3D

 29 32  0  0  0  0  0  0  0  0999 V2000
   -2.0832   10.0135  -29.8308 C   0  0  0  0  0  0  0  0  0  0  0  0
   -1.0437   17.3568  -21.2466 C   0  0  0  0  0  0  0  0  0  0  0  0
    0.5062   18.6640  -28.0780 C   0  0  2  0  0  0  0  0  0  0  0  0
   -0.9505   18.1785  -27.0713 C   0  0  0  0  0  0  0  0  0  0  0  0
   -2.7335   10.2421  -28.4674 C   0  0  0  0  0  0  0  0  0  0  0  0
   -2.0968   18.3785  -25.4402 C   0  0  1  0  0  0  0  0  0  0  0  0
   -2.3515   14.5392  -27.5769 O   0  0  0  0  0  0  0  0  0  0  0  0
    1.5668   19.0725  -29.6360 C   0  0  1  0  0  0  0  0  0  0  0  0
   -1.7488   12.3520  -29.0026 C   0  0  0  0  0  0  0  0  0  0  0  0
    2.2220   17.8957  -30.5224 C   0  0  2  0  0  0  0  0  0  0  0  0
   -0.7511   16.0032  -28.6915 N   0  0  0  0  0  0  0  0  0  0  0  0
   -1.5865   17.2002  -27.1147 C   0  0  0  0  0  0  0  0  0  0  0  0
   -1.4004   18.4090  -20.9033 C   0  0  0  0  0  0  0  0  0  0  0  0
   -3.2888    9.9307  -26.9141 C   0  0  0  0  0  0  0  0  0  0  0  0
   -1.6695   11.2923  -30.2150 C   0  0  0  0  0  0  0  0  0  0  0  0
   -2.3645   16.2143  -26.4482 S   0  0  0  0  0  0  0  0  0  0  0  0
   -1.3217   13.5782  -29.2148 N   0  0  0  0  0  0  0  0  0  0  0  0
   -2.6945   10.1483  -25.7707 F   0  0  0  0  0  0  0  0  0  0  0  0
   -1.6526   14.7203  -28.3958 C   0  0  1  0  0  0  0  0  0  0  0  0
   -2.5284   18.3537  -24.2630 S   0  0  0  0  0  3  0  0  0  0  0  0
   -1.1005   19.4093  -26.2182 C   0  0  0  0  0  0  0  0  0  0  0  0
   -1.6171   18.2903  -22.5255 C   0  0  0  0  0  0  0  0  0  0  0  0
   -3.7412   18.4853  -24.1831 O   0  0  0  0  0  1  0  0  0  0  0  0
   -4.7095   10.0992  -26.9816 F   0  0  0  0  0  0  0  0  0  0  0  0
    1.1388   17.6774  -29.2802 C   0  0  1  0  0  0  0  0  0  0  0  0
    3.0648   17.1377  -30.9712 F   0  0  0  0  0  0  0  0  0  0  0  0
   -2.3032   11.4390  -27.9435 C   0  0  0  0  0  0  0  0  0  0  0  0
   -3.1892    8.6301  -27.0483 F   0  0  0  0  0  0  0  0  0  0  0  0
    0.2984   17.0909  -28.7172 C   0  0  0  0  0  0  0  0  0  0  0  0
  3  4  1  6
  5  1  2  0
  8  3  1  0
  8 10  1  1
 12  4  1  0
 13  2  1  0
 14  5  1  0
 15  1  1  0
 15  9  1  0
 16  7  1  0
 16 12  1  0
 17  9  1  0
 18 14  1  0
 19  7  1  0
 19 11  1  0
 19 17  1  1
 20  6  1  0
 21  4  2  3
 21  6  1  0
  6 22  1  1
 22 13  1  0
 23 20  1  0
 24 14  1  0
 25  3  1  0
 25  8  1  0
 25 10  1  0
 10 26  1  1
 27  5  1  0
 27  9  2  0
 28 14  1  0
 29 11  1  0
 25 29  1  6
M  RAD  2  20   2  23   2
M  END
>  <ID>  (1) 
conformer_0

$$$$
