
     RDKit          3D

 30 33  0  0  0  0  0  0  0  0999 V2000
   -2.8304   10.6047  -27.9169 C   0  0  0  0  0  0  0  0  0  0  0  0
   -0.6097   19.6203  -26.1663 C   0  0  0  0  0  0  0  0  0  0  0  0
   -1.4152   18.3186  -21.1492 C   0  0  0  0  0  0  0  0  0  0  0  0
    0.5475   18.3086  -28.4993 C   0  0  0  0  0  0  0  0  0  0  0  0
   -2.2706   11.8503  -27.7992 C   0  0  0  0  0  0  0  0  0  0  0  0
    2.5071   16.4941  -29.7603 S   0  0  0  0  0  0  0  0  0  0  0  0
    1.5957   18.6629  -29.8290 C   0  0  0  0  0  0  0  0  0  0  0  0
   -0.7662   16.1180  -28.6916 N   0  0  0  0  0  0  0  0  0  0  0  0
    2.6815   17.8519  -30.4296 C   0  0  0  0  0  0  0  0  0  0  0  0
   -1.6285   18.5580  -25.7074 C   0  0  0  0  0  0  0  0  0  0  0  0
   -1.8231   14.8887  -28.5229 C   0  0  0  0  0  0  0  0  0  0  0  0
   -1.9331   12.5729  -28.7728 C   0  0  0  0  0  0  0  0  0  0  0  0
   -2.5037   18.5654  -24.5100 S   0  0  0  0  0  4  0  0  0  0  0  0
   -2.1479   10.6404  -30.3053 C   0  0  0  0  0  0  0  0  0  0  0  0
   -1.4400   18.1530  -22.8518 C   0  0  0  0  0  0  0  0  0  0  0  0
   -2.5672   14.7032  -27.6583 O   0  0  0  0  0  0  0  0  0  0  0  0
   -3.9713   17.7871  -24.7240 O   0  0  0  0  0  1  0  0  0  0  0  0
   -4.4617   10.3095  -26.0986 F   0  0  0  0  0  0  0  0  0  0  0  0
   -1.3250   17.5729  -26.7689 C   0  0  0  0  0  0  0  0  0  0  0  0
    1.1567   17.0105  -29.1372 C   0  0  0  0  0  0  0  0  0  0  0  0
   -3.1837    9.7507  -26.8881 C   0  0  0  0  0  0  0  0  0  0  0  0
   -1.4044   13.9040  -29.1769 N   0  0  0  0  0  0  0  0  0  0  0  0
   -0.7167   17.5029  -21.6731 C   0  0  0  0  0  0  0  0  0  0  0  0
   -1.7027   11.9203  -30.1732 C   0  0  0  0  0  0  0  0  0  0  0  0
   -2.9019    8.6361  -26.7714 F   0  0  0  0  0  0  0  0  0  0  0  0
   -3.3323   19.6681  -24.6521 O   0  0  0  0  0  1  0  0  0  0  0  0
   -0.0722   19.0405  -27.4260 C   0  0  0  0  0  3  0  0  0  0  0  0
   -0.6914   17.2111  -27.8049 C   0  0  0  0  0  0  0  0  0  0  0  0
   -2.7636   10.1267  -25.4235 F   0  0  0  0  0  0  0  0  0  0  0  0
   -2.4790   10.0020  -29.0913 C   0  0  0  0  0  0  0  0  0  0  0  0
  5  1  2  0
  7  4  1  0
  9  6  1  0
  9  7  2  0
 10  2  1  0
 11  8  1  0
 12  5  1  0
 13 10  1  0
 15 13  1  0
 16 11  2  0
 17 13  1  0
 19 10  1  0
 20  4  1  0
 20  6  1  0
 20  7  1  0
 21  1  1  0
 21 18  1  0
 22 11  1  0
 22 12  1  0
 23  3  1  0
 23 15  1  0
 24 12  2  0
 24 14  1  0
 25 21  1  0
 26 13  1  0
 27  2  2  0
 27  4  1  0
 28  4  1  0
 28  8  1  0
 28 19  2  0
 29 21  1  0
 30  1  1  0
 30 14  2  0
M  RAD  3  17   2  26   2  27   2
M  END
>  <ID>  (1) 
conformer_0

$$$$
