
     RDKit          3D

 18 21  0  0  0  0  0  0  0  0999 V2000
  -11.0593   13.3094   17.0103 N   0  0  0  0  0  0  0  0  0  0  0  0
   -9.9593   13.0094   17.7103 C   0  0  0  0  0  0  0  0  0  0  0  0
   -8.8593   13.0094   16.9103 C   0  0  0  0  0  0  0  0  0  0  0  0
   -8.9593   12.1094   15.8103 C   0  0  0  0  0  0  0  0  0  0  0  0
  -10.3593   11.7094   15.8103 N   0  0  0  0  0  0  0  0  0  0  0  0
   -7.5593   13.1094   17.6103 C   0  0  0  0  0  0  0  0  0  0  0  0
   -9.7593   13.6094   19.0103 N   0  0  0  0  0  0  0  0  0  0  0  0
   -8.6593   13.2094   19.7103 C   0  0  0  0  0  0  0  0  0  0  0  0
   -7.4593   13.1094   19.0103 C   0  0  0  0  0  0  0  0  0  0  0  0
   -7.8593   11.5094   15.1103 C   0  0  0  0  0  0  0  0  0  0  0  0
   -6.5593   11.7094   15.8103 C   0  0  0  0  0  0  0  0  0  0  0  0
   -6.4593   12.7094   16.8103 N   0  0  0  0  0  0  0  0  0  0  0  0
   -5.3593   11.3094   15.0103 C   0  0  0  0  0  0  0  0  0  0  0  0
  -10.9593   12.9094   15.9103 C   0  0  0  0  0  0  0  0  0  0  0  0
   -4.1593   11.2094   15.8103 C   0  0  0  0  0  0  0  0  0  0  0  0
   -3.9593    9.9094   16.5103 C   0  0  0  0  0  0  0  0  0  0  0  0
   -4.6593   11.0094   17.2103 O   0  0  0  0  0  0  0  0  0  0  0  0
   -3.2593    9.2094   17.2103 O   0  0  0  0  0  0  0  0  0  0  0  0
  2  1  1  0
  3  2  1  0
  4  3  1  0
  5  4  1  0
  6  3  1  0
  7  2  1  0
  8  7  1  0
  9  6  2  0
  9  8  1  0
 10  4  1  0
 11 10  1  0
 12  6  1  0
 12 11  1  0
 13 11  1  0
 14  1  1  0
 14  5  1  0
 15 13  1  0
 16 15  1  0
 17 15  1  0
 17 16  1  0
 18 16  1  0
M  END
>  <ID>  (1) 
conformer_0

$$$$
