
     RDKit          3D

 11 13  0  0  0  0  0  0  0  0999 V2000
  -11.0593   13.3094   17.0103 N   0  0  0  0  0  0  0  0  0  0  0  0
   -9.9593   13.0094   17.7103 C   0  0  0  0  0  0  0  0  0  0  0  0
   -8.8593   13.0094   16.9103 C   0  0  0  0  0  0  0  0  0  0  0  0
   -8.9593   12.1094   15.8103 C   0  0  0  0  0  0  0  0  0  0  0  0
  -10.3593   11.7094   15.8103 N   0  0  0  0  0  0  0  0  0  0  0  0
   -7.5593   13.1094   17.6103 C   0  0  0  0  0  0  0  0  0  0  0  0
   -9.7593   13.6094   19.0103 N   0  0  0  0  0  0  0  0  0  0  0  0
   -8.6593   13.2094   19.7103 C   0  0  0  0  0  0  0  0  0  0  0  0
   -7.4593   13.2094   19.0103 C   0  0  0  0  0  0  0  0  0  0  0  0
  -11.0593   12.8094   15.8103 C   0  0  0  0  0  0  0  0  0  0  0  0
   -8.7593   13.4094   15.5103 C   0  0  0  0  0  0  0  0  0  0  0  0
  2  1  1  0
  3  2  1  0
  4  3  1  0
  5  4  1  0
  6  3  1  0
  7  2  1  0
  8  7  1  0
  9  6  2  0
  9  8  1  0
 10  1  1  0
 10  5  1  0
 11  3  1  0
 11  4  1  0
M  END
>  <ID>  (1) 
conformer_0

$$$$
