
     RDKit          3D

 12 14  0  0  0  0  0  0  0  0999 V2000
  -10.1243   13.2919   16.6901 C   0  0  0  0  0  0  0  0  0  0  0  0
  -10.9243   12.1919   16.2901 N   0  0  0  0  0  0  0  0  0  0  0  0
   -8.7243   13.0919   16.5901 C   0  0  0  0  0  0  0  0  0  0  0  0
   -8.5243   11.9919   15.5901 C   0  0  0  0  0  0  0  0  0  0  0  0
   -7.2243   11.4919   15.3901 C   0  0  0  0  0  0  0  0  0  0  0  0
   -7.7243   13.0919   17.5901 C   0  0  0  0  0  0  0  0  0  0  0  0
   -9.8243   11.2919   15.3901 C   0  0  0  0  0  0  0  0  0  0  0  0
  -10.6243   14.1919   17.5901 N   0  0  0  0  0  0  0  0  0  0  0  0
   -9.5243   14.7919   18.1901 C   0  0  0  0  0  0  0  0  0  0  0  0
   -6.6243   12.8919   17.1901 N   0  0  0  0  0  0  0  0  0  0  0  0
   -6.3243   11.9919   16.2901 C   0  0  0  0  0  0  0  0  0  0  0  0
   -8.4243   13.9919   18.5901 N   0  0  0  0  0  0  0  0  0  0  0  0
  2  1  2  0
  3  1  1  0
  4  3  1  0
  5  4  1  0
  6  3  1  0
  7  2  1  0
  7  4  1  0
  8  1  1  0
  9  8  1  0
 10  6  2  0
 11  5  1  0
 11 10  1  0
 12  6  1  0
 12  9  1  0
M  END
>  <ID>  (1) 
conformer_0

$$$$
