
     RDKit          3D

 14 15  0  0  0  0  0  0  0  0999 V2000
  -10.8540   12.5740   16.8299 N   0  0  0  0  0  0  0  0  0  0  0  0
   -9.8540   13.0740   17.6299 C   0  0  0  0  0  0  0  0  0  0  0  0
   -9.9540   13.7740   18.7299 N   0  0  0  0  0  0  0  0  0  0  0  0
  -10.5540   11.7740   15.8299 C   0  0  0  0  0  0  0  0  0  0  0  0
   -8.5540   12.8740   16.9299 C   0  0  0  0  0  0  0  0  0  0  0  0
   -7.2540   12.9740   17.3299 N   0  0  0  0  0  0  0  0  0  0  0  0
   -6.4540   12.1740   16.6299 C   0  0  0  0  0  0  0  0  0  0  0  0
   -7.0540   11.9740   15.4299 N   0  0  0  0  0  0  0  0  0  0  0  0
   -8.4540   12.4740   15.6299 C   0  0  0  0  0  0  0  0  0  0  0  0
   -9.4540   11.5740   15.1299 N   0  0  0  0  0  0  0  0  0  0  0  0
   -6.9540   10.5740   14.9299 C   0  0  0  0  0  0  0  0  0  0  0  0
   -5.7540   10.0740   15.0299 O   0  0  0  0  0  0  0  0  0  0  0  0
   -7.9540   10.0740   14.0299 C   0  0  0  0  0  0  0  0  0  0  0  0
   -7.5540    8.6740   13.8299 O   0  0  0  0  0  0  0  0  0  0  0  0
  2  1  2  0
  3  2  1  0
  4  1  1  0
  5  2  1  0
  6  5  1  0
  7  6  2  0
  8  7  1  0
  9  5  2  0
  9  8  1  0
 10  4  2  0
 10  9  1  0
 11  8  1  0
 12 11  2  0
 13 11  1  0
 14 13  1  0
M  END
>  <ID>  (1) 
conformer_0

$$$$
