
     RDKit          3D

 19 22  0  0  0  0  0  0  0  0999 V2000
   -9.8414   12.8863   17.3892 C   0  0  0  0  0  0  0  0  0  0  0  0
  -10.9414   13.0863   16.6892 N   0  0  0  0  0  0  0  0  0  0  0  0
   -9.5414   13.7863   18.3892 N   0  0  0  0  0  0  0  0  0  0  0  0
   -8.6414   12.8863   16.6892 C   0  0  0  0  0  0  0  0  0  0  0  0
   -7.4414   13.1863   17.3892 C   0  0  0  0  0  0  0  0  0  0  0  0
   -8.5414   12.1863   15.3892 C   0  0  0  0  0  0  0  0  0  0  0  0
   -7.3414   11.5863   15.2892 N   0  0  0  0  0  0  0  0  0  0  0  0
   -8.1414   13.7863   18.5893 N   0  0  0  0  0  0  0  0  0  0  0  0
   -9.7414   11.3863   15.2892 N   0  0  0  0  0  0  0  0  0  0  0  0
   -7.0414   10.2863   14.9892 C   0  0  0  0  0  0  0  0  0  0  0  0
   -5.9414    9.6863   15.1892 N   0  0  0  0  0  0  0  0  0  0  0  0
  -10.8414   12.0863   15.6892 C   0  0  0  0  0  0  0  0  0  0  0  0
   -8.7414   14.8863   18.1892 C   0  0  0  0  0  0  0  0  0  0  0  0
   -8.1414    9.4863   14.3892 C   0  0  0  0  0  0  0  0  0  0  0  0
   -6.2414   12.2863   15.7892 C   0  0  0  0  0  0  0  0  0  0  0  0
   -6.2414   12.6863   17.0892 C   0  0  0  0  0  0  0  0  0  0  0  0
   -4.8414   10.0863   16.0892 C   0  0  0  0  0  0  0  0  0  0  0  0
   -4.3414   11.0863   17.0892 C   0  0  0  0  0  0  0  0  0  0  0  0
   -4.0414   11.3863   15.6892 C   0  0  0  0  0  0  0  0  0  0  0  0
  2  1  1  0
  3  1  1  0
  4  1  1  0
  5  4  2  0
  6  4  1  0
  7  6  1  0
  8  5  1  0
  9  6  2  0
 10  7  1  0
 11 10  1  0
 12  2  2  0
 12  9  1  0
 13  3  1  0
 13  8  1  0
 14 10  1  0
 15  7  1  0
 16  5  1  0
 16 15  2  0
 17 11  1  0
 18 17  1  0
 19 17  1  0
 19 18  1  0
M  END
>  <ID>  (1) 
conformer_0

$$$$
