
     RDKit          3D

 13 15  0  0  0  0  0  0  0  0999 V2000
  -11.0593   13.3094   17.0103 N   0  0  0  0  0  0  0  0  0  0  0  0
   -9.9593   13.0094   17.7103 C   0  0  0  0  0  0  0  0  0  0  0  0
   -8.8593   12.9094   16.7103 C   0  0  0  0  0  0  0  0  0  0  0  0
   -9.0593   12.0094   15.6103 C   0  0  0  0  0  0  0  0  0  0  0  0
  -10.3593   11.7094   15.7103 N   0  0  0  0  0  0  0  0  0  0  0  0
   -7.6593   13.1094   17.4103 C   0  0  0  0  0  0  0  0  0  0  0  0
   -9.7593   13.1094   18.9103 N   0  0  0  0  0  0  0  0  0  0  0  0
   -8.5593   13.1094   19.6103 C   0  0  0  0  0  0  0  0  0  0  0  0
   -7.6593   13.2094   18.6103 N   0  0  0  0  0  0  0  0  0  0  0  0
   -8.1593   11.4094   14.9103 N   0  0  0  0  0  0  0  0  0  0  0  0
   -6.8593   11.8094   15.2103 C   0  0  0  0  0  0  0  0  0  0  0  0
   -6.7593   12.5094   16.4103 N   0  0  0  0  0  0  0  0  0  0  0  0
  -11.2593   12.8094   15.9103 C   0  0  0  0  0  0  0  0  0  0  0  0
  2  1  2  0
  3  2  1  0
  4  3  1  0
  5  4  2  0
  6  3  1  0
  7  2  1  0
  8  7  2  0
  9  6  2  0
  9  8  1  0
 10  4  1  0
 11 10  1  0
 12  6  1  0
 12 11  2  0
 13  1  1  0
 13  5  1  0
M  END
>  <ID>  (1) 
conformer_0

$$$$
