
     RDKit          3D

 13 14  0  0  0  0  0  0  0  0999 V2000
  -11.0628   12.4912   16.9116 N   0  0  0  0  0  0  0  0  0  0  0  0
   -9.8628   12.9912   17.3116 C   0  0  0  0  0  0  0  0  0  0  0  0
   -8.8628   12.8912   16.4116 C   0  0  0  0  0  0  0  0  0  0  0  0
   -8.9628   11.8912   15.5116 C   0  0  0  0  0  0  0  0  0  0  0  0
   -9.8628   13.7912   18.4116 N   0  0  0  0  0  0  0  0  0  0  0  0
  -10.0628   11.1912   15.3116 N   0  0  0  0  0  0  0  0  0  0  0  0
   -7.6628   11.2912   15.2116 N   0  0  0  0  0  0  0  0  0  0  0  0
   -6.6628   11.9912   15.9116 C   0  0  0  0  0  0  0  0  0  0  0  0
   -7.3628   12.8912   16.8116 C   0  0  0  0  0  0  0  0  0  0  0  0
  -11.1628   11.7912   15.8116 C   0  0  0  0  0  0  0  0  0  0  0  0
   -7.4628    9.9912   14.7116 C   0  0  0  0  0  0  0  0  0  0  0  0
   -6.4628    9.1912   14.9116 O   0  0  0  0  0  0  0  0  0  0  0  0
   -8.5628    9.4912   13.9116 C   0  0  0  0  0  0  0  0  0  0  0  0
  2  1  2  0
  3  2  1  0
  4  3  2  0
  5  2  1  0
  6  4  1  0
  7  4  1  0
  8  7  1  0
  9  3  1  0
  9  8  2  0
 10  1  1  0
 10  6  2  0
 11  7  1  0
 12 11  2  0
 13 11  1  0
M  END
>  <ID>  (1) 
conformer_0

$$$$
