
     RDKit          3D

 20 22  0  0  0  0  0  0  0  0999 V2000
  -10.8540   12.5740   16.8299 N   0  0  0  0  0  0  0  0  0  0  0  0
   -9.8540   13.0740   17.6299 C   0  0  0  0  0  0  0  0  0  0  0  0
   -9.9540   13.7740   18.7299 N   0  0  0  0  0  0  0  0  0  0  0  0
  -10.5540   11.7740   15.8299 C   0  0  0  0  0  0  0  0  0  0  0  0
   -8.5540   12.9740   16.9299 C   0  0  0  0  0  0  0  0  0  0  0  0
   -7.3540   13.0740   17.6299 N   0  0  0  0  0  0  0  0  0  0  0  0
   -8.4540   12.3740   15.7299 C   0  0  0  0  0  0  0  0  0  0  0  0
   -7.0540   11.9740   15.6299 N   0  0  0  0  0  0  0  0  0  0  0  0
   -9.3540   11.4740   15.3299 N   0  0  0  0  0  0  0  0  0  0  0  0
   -6.3540   12.4740   16.7299 C   0  0  0  0  0  0  0  0  0  0  0  0
   -6.6540   10.7740   15.0299 C   0  0  0  0  0  0  0  0  0  0  0  0
   -5.2540   10.6740   14.9299 O   0  0  0  0  0  0  0  0  0  0  0  0
   -4.4540   11.3740   15.9299 C   0  0  0  0  0  0  0  0  0  0  0  0
   -3.3540   10.5740   16.5299 C   0  0  0  0  0  0  0  0  0  0  0  0
   -3.3540   10.7740   17.9299 O   0  0  0  0  0  0  0  0  0  0  0  0
   -4.8540   12.3740   16.8299 C   0  0  0  0  0  0  0  0  0  0  0  0
   -7.6540    9.8740   14.6299 C   0  0  0  0  0  0  0  0  0  0  0  0
   -7.0540    8.5740   14.4299 O   0  0  0  0  0  0  0  0  0  0  0  0
   -3.8540   13.1740   17.1299 O   0  0  0  0  0  0  0  0  0  0  0  0
   -3.1540    9.2740   15.9299 O   0  0  0  0  0  0  0  0  0  0  0  0
  2  1  2  0
  3  2  1  0
  4  1  1  0
  5  2  1  0
  6  5  1  0
  7  5  2  0
  8  7  1  0
  9  4  2  0
  9  7  1  0
 10  6  2  0
 10  8  1  0
 11  8  1  0
 12 11  1  0
 13 12  1  0
 14 13  1  0
 15 14  2  0
 16 10  1  0
 16 13  2  0
 17 11  1  0
 18 17  1  0
 19 16  1  0
 20 14  1  0
M  END
>  <ID>  (1) 
conformer_0

$$$$
