
     RDKit          3D

 25 31  0  0  0  0  0  0  0  0999 V2000
  -11.0673   12.5277   16.8297 N   0  0  0  0  0  0  0  0  0  0  0  0
   -9.8673   12.9277   17.3297 C   0  0  0  0  0  0  0  0  0  0  0  0
   -8.8673   12.9277   16.4297 C   0  0  0  0  0  0  0  0  0  0  0  0
   -9.1673   11.9277   15.4297 C   0  0  0  0  0  0  0  0  0  0  0  0
   -9.8673   13.5277   18.5297 N   0  0  0  0  0  0  0  0  0  0  0  0
  -10.2674   11.2277   15.2297 N   0  0  0  0  0  0  0  0  0  0  0  0
   -7.4673   12.9277   16.7297 C   0  0  0  0  0  0  0  0  0  0  0  0
   -7.6673   13.3277   18.1297 N   0  0  0  0  0  0  0  0  0  0  0  0
   -6.7673   12.0277   15.8297 C   0  0  0  0  0  0  0  0  0  0  0  0
  -11.2673   11.7277   15.8297 C   0  0  0  0  0  0  0  0  0  0  0  0
   -7.8673   11.5277   15.0297 N   0  0  0  0  0  0  0  0  0  0  0  0
   -5.3673   11.9277   15.6297 C   0  0  0  0  0  0  0  0  0  0  0  0
   -9.3673   14.5277   19.2297 C   0  0  0  0  0  0  0  0  0  0  0  0
   -9.7673   15.8277   19.6297 C   0  0  0  0  0  0  0  0  0  0  0  0
   -8.3673   13.9277   18.7297 C   0  0  0  0  0  0  0  0  0  0  0  0
   -4.3673   10.8277   15.7297 C   0  0  0  0  0  0  0  0  0  0  0  0
   -3.6673   10.7277   17.0297 C   0  0  0  0  0  0  0  0  0  0  0  0
   -4.2673   11.5277   18.1297 C   0  0  0  0  0  0  0  0  0  0  0  0
   -3.7673   12.9277   18.0297 C   0  0  0  0  0  0  0  0  0  0  0  0
   -2.4673   12.9277   17.3297 C   0  0  0  0  0  0  0  0  0  0  0  0
   -3.4673   13.1277   16.4297 O   0  0  0  0  0  0  0  0  0  0  0  0
   -2.8673   11.0277   15.9297 O   0  0  0  0  0  0  0  0  0  0  0  0
   -9.9674   10.0277   14.6297 C   0  0  0  0  0  0  0  0  0  0  0  0
   -8.7674    9.3277   14.3297 C   0  0  0  0  0  0  0  0  0  0  0  0
   -7.6674   10.2277   14.5297 C   0  0  0  0  0  0  0  0  0  0  0  0
  2  1  1  0
  3  2  2  0
  4  3  1  0
  5  2  1  0
  6  4  1  0
  7  3  1  0
  8  7  1  0
  9  7  2  0
 10  1  2  0
 10  6  1  0
 11  4  1  0
 11  9  1  0
 12  9  1  0
 13  5  1  0
 14 13  1  0
 15  5  1  0
 15  8  1  0
 15 13  1  0
 16 12  1  0
 17 16  1  0
 18 17  1  0
 19 18  1  0
 20 19  1  0
 21 19  1  0
 21 20  1  0
 22 16  1  0
 22 17  1  0
 23  6  1  0
 24 23  1  0
 25 11  1  0
 25 24  2  0
M  END
>  <ID>  (1) 
conformer_0

$$$$
