
     RDKit          3D

 12 14  0  0  0  0  0  0  0  0999 V2000
   -9.8414   12.8863   17.3892 C   0  0  0  0  0  0  0  0  0  0  0  0
  -10.9414   13.0863   16.6892 N   0  0  0  0  0  0  0  0  0  0  0  0
   -8.5414   12.8863   16.8892 C   0  0  0  0  0  0  0  0  0  0  0  0
   -8.5414   12.3863   15.4893 C   0  0  0  0  0  0  0  0  0  0  0  0
   -9.7414   11.5863   15.3892 N   0  0  0  0  0  0  0  0  0  0  0  0
   -7.5414   13.1863   17.7892 C   0  0  0  0  0  0  0  0  0  0  0  0
   -9.8414   13.1863   18.6892 N   0  0  0  0  0  0  0  0  0  0  0  0
   -8.3414   13.3863   18.9893 N   0  0  0  0  0  0  0  0  0  0  0  0
   -9.5414   10.4863   14.4893 C   0  0  0  0  0  0  0  0  0  0  0  0
   -7.3414   11.6863   14.9893 C   0  0  0  0  0  0  0  0  0  0  0  0
   -7.9414   10.5863   14.2893 C   0  0  0  0  0  0  0  0  0  0  0  0
  -10.8414   11.9863   15.8892 C   0  0  0  0  0  0  0  0  0  0  0  0
  2  1  2  0
  3  1  1  0
  4  3  1  0
  5  4  1  0
  6  3  2  0
  7  1  1  0
  8  6  1  0
  8  7  2  0
  9  5  1  0
 10  4  1  0
 11  9  1  0
 11 10  1  0
 12  2  1  0
 12  5  1  0
M  END
>  <ID>  (1) 
conformer_0

$$$$
