
     RDKit          3D

  8  9  0  0  0  0  0  0  0  0999 V2000
  -11.0472   12.8488   16.6922 N   0  0  0  0  0  0  0  0  0  0  0  0
  -10.2472   11.9488   16.0922 C   0  0  0  0  0  0  0  0  0  0  0  0
  -10.9472   10.9488   15.4922 N   0  0  0  0  0  0  0  0  0  0  0  0
   -8.8472   12.1488   15.8922 C   0  0  0  0  0  0  0  0  0  0  0  0
   -7.5472   12.2488   15.8922 N   0  0  0  0  0  0  0  0  0  0  0  0
   -8.2472   12.9488   16.7922 C   0  0  0  0  0  0  0  0  0  0  0  0
   -9.0472   13.1488   17.8922 C   0  0  0  0  0  0  0  0  0  0  0  0
  -10.2472   13.7488   17.4922 C   0  0  0  0  0  0  0  0  0  0  0  0
  2  1  2  0
  3  2  1  0
  4  2  1  0
  5  4  1  0
  6  4  2  0
  6  5  1  0
  7  6  1  0
  8  1  1  0
  8  7  2  0
M  END
>  <ID>  (1) 
conformer_0

$$$$
