
     RDKit          3D

 20 22  0  0  0  0  0  0  0  0999 V2000
  -10.8540   12.5740   16.8299 N   0  0  0  0  0  0  0  0  0  0  0  0
   -9.8540   13.0740   17.6299 C   0  0  0  0  0  0  0  0  0  0  0  0
   -9.9540   13.7740   18.7299 N   0  0  0  0  0  0  0  0  0  0  0  0
  -10.5540   11.7740   15.8299 C   0  0  0  0  0  0  0  0  0  0  0  0
   -8.5540   12.9740   16.9299 C   0  0  0  0  0  0  0  0  0  0  0  0
   -7.3540   13.0740   17.6299 N   0  0  0  0  0  0  0  0  0  0  0  0
   -8.4540   12.3740   15.7299 C   0  0  0  0  0  0  0  0  0  0  0  0
   -7.0540   11.8740   15.7299 N   0  0  0  0  0  0  0  0  0  0  0  0
   -9.4540   11.4740   15.3299 N   0  0  0  0  0  0  0  0  0  0  0  0
   -6.3540   12.5740   16.8299 C   0  0  0  0  0  0  0  0  0  0  0  0
   -6.8540   10.4740   15.2299 C   0  0  0  0  0  0  0  0  0  0  0  0
   -5.4540   10.2740   15.2299 O   0  0  0  0  0  0  0  0  0  0  0  0
   -4.8540   10.7740   16.3299 C   0  0  0  0  0  0  0  0  0  0  0  0
   -4.9540   12.0740   16.9299 C   0  0  0  0  0  0  0  0  0  0  0  0
   -3.8540    9.8740   16.9299 C   0  0  0  0  0  0  0  0  0  0  0  0
   -3.5540   10.0740   18.3299 O   0  0  0  0  0  0  0  0  0  0  0  0
   -7.8540    9.7740   14.7299 C   0  0  0  0  0  0  0  0  0  0  0  0
   -3.6540   12.5740   17.2299 O   0  0  0  0  0  0  0  0  0  0  0  0
   -7.2540    8.4740   14.3299 O   0  0  0  0  0  0  0  0  0  0  0  0
   -2.9540    9.2740   16.0299 O   0  0  0  0  0  0  0  0  0  0  0  0
  2  1  2  0
  3  2  1  0
  4  1  1  0
  5  2  1  0
  6  5  1  0
  7  5  2  0
  8  7  1  0
  9  4  2  0
  9  7  1  0
 10  6  2  0
 10  8  1  0
 11  8  1  0
 12 11  1  0
 13 12  1  0
 14 10  1  0
 14 13  1  0
 15 13  1  0
 16 15  2  0
 17 11  1  0
 18 14  1  0
 19 17  1  0
 20 15  1  0
M  END
>  <ID>  (1) 
conformer_0

$$$$
