
     RDKit          3D

 24 26  0  0  0  0  0  0  0  0999 V2000
  -10.8540   12.5740   16.8299 N   0  0  0  0  0  0  0  0  0  0  0  0
   -9.8540   13.0740   17.6299 C   0  0  0  0  0  0  0  0  0  0  0  0
   -9.9540   13.7740   18.7299 N   0  0  0  0  0  0  0  0  0  0  0  0
  -10.5540   11.7740   15.8299 C   0  0  0  0  0  0  0  0  0  0  0  0
   -8.5540   12.9740   16.9299 C   0  0  0  0  0  0  0  0  0  0  0  0
   -7.3540   13.0740   17.6299 N   0  0  0  0  0  0  0  0  0  0  0  0
   -8.4540   12.3740   15.7299 C   0  0  0  0  0  0  0  0  0  0  0  0
   -7.0540   11.9740   15.6299 N   0  0  0  0  0  0  0  0  0  0  0  0
   -9.3540   11.4740   15.3299 N   0  0  0  0  0  0  0  0  0  0  0  0
   -6.3540   12.4740   16.7299 C   0  0  0  0  0  0  0  0  0  0  0  0
   -6.6540   10.7740   15.0299 C   0  0  0  0  0  0  0  0  0  0  0  0
   -5.2540   10.6740   14.9299 O   0  0  0  0  0  0  0  0  0  0  0  0
   -4.4540   11.3740   15.9299 C   0  0  0  0  0  0  0  0  0  0  0  0
   -3.3540   10.5740   16.5299 C   0  0  0  0  0  0  0  0  0  0  0  0
   -3.8540    9.2740   16.9299 O   0  0  0  0  0  0  0  0  0  0  0  0
   -7.6540    9.8740   14.6299 C   0  0  0  0  0  0  0  0  0  0  0  0
   -4.9540   12.4740   16.7299 C   0  0  0  0  0  0  0  0  0  0  0  0
   -7.1540    8.5740   14.5299 O   0  0  0  0  0  0  0  0  0  0  0  0
   -2.9540   11.2740   17.7299 C   0  0  0  0  0  0  0  0  0  0  0  0
   -2.0540   10.5740   18.6299 O   0  0  0  0  0  0  0  0  0  0  0  0
   -2.3540   12.5740   17.3299 C   0  0  0  0  0  0  0  0  0  0  0  0
   -1.6540   13.2740   18.3299 O   0  0  0  0  0  0  0  0  0  0  0  0
   -4.3540   13.7740   16.6299 O   0  0  0  0  0  0  0  0  0  0  0  0
   -2.1540   12.4740   15.9299 O   0  0  0  0  0  0  0  0  0  0  0  0
  2  1  2  0
  3  2  1  0
  4  1  1  0
  5  2  1  0
  6  5  1  0
  7  5  2  0
  8  7  1  0
  9  4  2  0
  9  7  1  0
 10  6  2  0
 10  8  1  0
 11  8  1  0
 12 11  1  0
 13 12  1  0
 14 13  1  0
 15 14  1  0
 16 11  1  0
 17 10  1  0
 17 13  2  0
 18 16  1  0
 19 14  1  0
 20 19  1  0
 21 19  1  0
 22 21  2  0
 23 17  1  0
 24 21  1  0
M  END
>  <ID>  (1) 
conformer_0

$$$$
