
     RDKit          3D

  8  9  0  0  0  0  0  0  0  0999 V2000
  -11.0673   12.5277   16.8297 N   0  0  0  0  0  0  0  0  0  0  0  0
   -9.8673   12.9277   17.3297 C   0  0  0  0  0  0  0  0  0  0  0  0
   -9.9674   13.4277   18.6297 N   0  0  0  0  0  0  0  0  0  0  0  0
   -8.7673   12.9277   16.5297 C   0  0  0  0  0  0  0  0  0  0  0  0
   -7.4673   12.5277   16.3297 N   0  0  0  0  0  0  0  0  0  0  0  0
   -8.5673   12.1277   15.5297 C   0  0  0  0  0  0  0  0  0  0  0  0
  -10.8673   11.7277   15.7297 C   0  0  0  0  0  0  0  0  0  0  0  0
   -9.7673   11.3277   15.3297 N   0  0  0  0  0  0  0  0  0  0  0  0
  2  1  1  0
  3  2  1  0
  4  2  1  0
  5  4  1  0
  6  4  1  0
  6  5  2  0
  7  1  2  0
  8  6  1  0
  8  7  1  0
M  END
>  <ID>  (1) 
conformer_0

$$$$
