
     RDKit          3D

 24 28  0  0  0  0  0  0  0  0999 V2000
  -11.0593   13.3094   17.0103 N   0  0  0  0  0  0  0  0  0  0  0  0
   -9.9593   13.0094   17.7103 C   0  0  0  0  0  0  0  0  0  0  0  0
   -8.8593   13.0094   16.9103 C   0  0  0  0  0  0  0  0  0  0  0  0
   -8.9593   12.1094   15.8103 C   0  0  0  0  0  0  0  0  0  0  0  0
  -10.3593   11.7094   15.8103 N   0  0  0  0  0  0  0  0  0  0  0  0
   -7.5593   13.1094   17.6103 C   0  0  0  0  0  0  0  0  0  0  0  0
   -9.7593   13.6094   19.0103 N   0  0  0  0  0  0  0  0  0  0  0  0
   -8.6593   13.2094   19.7103 C   0  0  0  0  0  0  0  0  0  0  0  0
   -7.4593   13.1094   19.0103 C   0  0  0  0  0  0  0  0  0  0  0  0
  -11.2593   12.7094   15.9103 C   0  0  0  0  0  0  0  0  0  0  0  0
   -7.6593   12.1094   15.3103 N   0  0  0  0  0  0  0  0  0  0  0  0
   -6.4593   11.6094   15.7103 C   0  0  0  0  0  0  0  0  0  0  0  0
   -6.3593   12.3094   17.0103 N   0  0  0  0  0  0  0  0  0  0  0  0
   -5.4593   10.6094   15.4103 C   0  0  0  0  0  0  0  0  0  0  0  0
   -4.4593   10.5094   16.5103 C   0  0  0  0  0  0  0  0  0  0  0  0
   -3.1593   10.8094   15.9103 C   0  0  0  0  0  0  0  0  0  0  0  0
   -2.3593    9.7094   15.3103 C   0  0  0  0  0  0  0  0  0  0  0  0
   -3.0593   10.8094   14.6103 O   0  0  0  0  0  0  0  0  0  0  0  0
   -0.9593    9.7094   15.5103 O   0  0  0  0  0  0  0  0  0  0  0  0
   -0.1593    8.7094   16.2103 P   0  0  0  0  0  4  0  0  0  0  0  0
   -0.6593    7.4094   16.0103 O   0  0  0  0  0  1  0  0  0  0  0  0
    1.2407    8.9094   16.0103 O   0  0  0  0  0  0  0  0  0  0  0  0
   -0.2593    9.2094   17.6103 O   0  0  0  0  0  0  0  0  0  0  0  0
   -5.3593   12.8094   16.2103 C   0  0  0  0  0  0  0  0  0  0  0  0
  2  1  1  0
  3  2  1  0
  4  3  1  0
  5  4  2  0
  6  3  1  0
  7  2  1  0
  8  7  1  0
  9  6  1  0
  9  8  1  0
 10  1  1  0
 10  5  1  0
 11  4  1  0
 12 11  1  0
 13  6  1  0
 13 12  1  0
 14 12  1  0
 15 14  1  0
 16 15  1  0
 17 16  1  0
 18 16  1  0
 18 17  1  0
 19 17  1  0
 20 19  1  0
 21 20  2  0
 22 20  1  0
 23 20  1  0
 24 12  1  0
 24 13  1  0
M  END
>  <ID>  (1) 
conformer_0

$$$$
