
     RDKit          3D

 24 28  0  0  0  0  0  0  0  0999 V2000
  -10.8540   12.5740   16.8299 N   0  0  0  0  0  0  0  0  0  0  0  0
   -9.8540   13.0740   17.6299 C   0  0  0  0  0  0  0  0  0  0  0  0
   -9.9540   13.7740   18.7299 N   0  0  0  0  0  0  0  0  0  0  0  0
  -10.5540   11.7740   15.8299 C   0  0  0  0  0  0  0  0  0  0  0  0
   -8.5540   12.8740   16.9299 C   0  0  0  0  0  0  0  0  0  0  0  0
   -7.2540   12.9740   17.3299 N   0  0  0  0  0  0  0  0  0  0  0  0
   -6.4540   12.1740   16.6299 C   0  0  0  0  0  0  0  0  0  0  0  0
   -7.0540   11.6740   15.5299 N   0  0  0  0  0  0  0  0  0  0  0  0
   -9.4540   11.3740   15.2299 N   0  0  0  0  0  0  0  0  0  0  0  0
   -8.4540   12.2740   15.6299 C   0  0  0  0  0  0  0  0  0  0  0  0
   -7.0540   10.3740   15.0299 C   0  0  0  0  0  0  0  0  0  0  0  0
   -5.8540    9.7740   15.2299 O   0  0  0  0  0  0  0  0  0  0  0  0
   -4.9540   10.4740   15.9299 C   0  0  0  0  0  0  0  0  0  0  0  0
   -5.1540   11.4740   17.0299 C   0  0  0  0  0  0  0  0  0  0  0  0
   -3.5540    9.9740   16.0299 C   0  0  0  0  0  0  0  0  0  0  0  0
   -3.0540    9.0740   15.1299 O   0  0  0  0  0  0  0  0  0  0  0  0
   -2.9540   10.3740   17.3299 C   0  0  0  0  0  0  0  0  0  0  0  0
   -1.5540   10.1740   17.5299 O   0  0  0  0  0  0  0  0  0  0  0  0
   -0.9540   10.8740   18.5299 C   0  0  0  0  0  0  0  0  0  0  0  0
   -1.7540   12.0740   18.6299 O   0  0  0  0  0  0  0  0  0  0  0  0
    0.4460   11.0740   18.5299 C   0  0  0  0  0  0  0  0  0  0  0  0
   -3.0540   11.8740   17.9299 C   0  0  0  0  0  0  0  0  0  0  0  0
    0.8460   12.1740   19.4299 O   0  0  0  0  0  0  0  0  0  0  0  0
   -3.5540   10.6740   18.6299 C   0  0  0  0  0  0  0  0  0  0  0  0
  2  1  2  0
  3  2  1  0
  4  1  1  0
  5  2  1  0
  6  5  1  0
  7  6  2  0
  8  7  1  0
  9  4  2  0
 10  5  2  0
 10  8  1  0
 10  9  1  0
 11  8  1  0
 12 11  1  0
 13 12  1  0
 14  7  1  0
 14 13  1  0
 15 13  1  0
 16 15  1  0
 17 15  1  0
 18 17  1  0
 19 18  1  0
 20 19  1  0
 21 19  1  0
 22 17  1  0
 22 20  1  0
 23 21  1  0
 24 17  1  0
 24 22  1  0
M  END
>  <ID>  (1) 
conformer_0

$$$$
