
     RDKit          3D

 18 20  0  0  0  0  0  0  0  0999 V2000
  -10.8540   12.5740   16.8299 N   0  0  0  0  0  0  0  0  0  0  0  0
   -9.8540   13.0740   17.6299 C   0  0  0  0  0  0  0  0  0  0  0  0
   -9.9540   13.7740   18.7299 N   0  0  0  0  0  0  0  0  0  0  0  0
  -10.5540   11.7740   15.8299 C   0  0  0  0  0  0  0  0  0  0  0  0
   -8.5540   12.9740   16.9299 C   0  0  0  0  0  0  0  0  0  0  0  0
   -7.3540   13.0740   17.6299 N   0  0  0  0  0  0  0  0  0  0  0  0
   -8.4540   12.3740   15.7299 C   0  0  0  0  0  0  0  0  0  0  0  0
   -7.0540   11.8740   15.7299 N   0  0  0  0  0  0  0  0  0  0  0  0
   -9.4540   11.4740   15.3299 N   0  0  0  0  0  0  0  0  0  0  0  0
   -6.3540   12.5740   16.7299 C   0  0  0  0  0  0  0  0  0  0  0  0
   -6.7540   10.5740   15.1299 C   0  0  0  0  0  0  0  0  0  0  0  0
   -5.3540   10.1740   15.1299 O   0  0  0  0  0  0  0  0  0  0  0  0
   -4.7540   10.7740   16.2299 C   0  0  0  0  0  0  0  0  0  0  0  0
   -4.0540   11.9740   16.3299 C   0  0  0  0  0  0  0  0  0  0  0  0
   -3.0540   11.9740   17.4299 O   0  0  0  0  0  0  0  0  0  0  0  0
   -4.1540    9.7740   17.1299 C   0  0  0  0  0  0  0  0  0  0  0  0
   -2.8540    9.2740   16.8299 O   0  0  0  0  0  0  0  0  0  0  0  0
   -5.0540   13.0740   16.4299 C   0  0  0  0  0  0  0  0  0  0  0  0
  2  1  2  0
  3  2  1  0
  4  1  1  0
  5  2  1  0
  6  5  1  0
  7  5  2  0
  8  7  1  0
  9  4  2  0
  9  7  1  0
 10  6  2  0
 10  8  1  0
 11  8  1  0
 12 11  1  0
 13 12  1  0
 14 13  1  0
 15 14  1  0
 16 13  1  0
 17 16  1  0
 18 10  1  0
 18 14  1  0
M  END
>  <ID>  (1) 
conformer_0

$$$$
