
     RDKit          3D

 24 26  0  0  0  0  0  0  0  0999 V2000
    6.7589   24.5584   29.2936 C   0  0  0  0  0  0  0  0  0  0  0  0
    5.0218   26.4267   23.2529 C   0  0  0  0  0  0  0  0  0  0  0  0
    8.1640   24.5912   29.4304 C   0  0  0  0  0  0  0  0  0  0  0  0
    6.4642   25.4208   25.4533 C   0  0  0  0  0  0  0  0  0  0  0  0
    4.3697   27.3536   25.6514 N   0  0  0  0  0  2  0  0  0  0  0  0
    5.8598   26.0184   26.2422 N   0  0  0  0  0  0  0  0  0  0  0  0
    6.2354   25.4498   24.1996 N   0  0  0  0  0  0  0  0  0  0  0  0
   11.0192   22.1614   28.7445 P   0  0  0  0  0  4  0  0  0  0  0  0
    5.5922   25.2431   28.6795 C   0  0  0  0  0  0  0  0  0  0  0  0
    9.0982   22.8621   26.7609 O   0  0  0  0  0  0  0  0  0  0  0  0
   10.3806   24.8509   26.0049 O   0  0  0  0  0  0  0  0  0  0  0  0
    7.3220   25.9344   28.1460 O   0  0  0  0  0  0  0  0  0  0  0  0
   11.6485   22.2564   29.7096 O   0  0  0  0  0  0  0  0  0  0  0  0
    4.3153   26.2114   29.2593 O   0  0  0  0  0  0  0  0  0  0  0  0
   10.4738   23.2641   28.3778 O   0  0  0  0  0  1  0  0  0  0  0  0
    5.1602   26.0917   21.7738 N   0  0  0  0  0  0  0  0  0  0  0  0
    3.6752   27.5144   24.5229 C   0  0  0  0  0  0  0  0  0  0  0  0
    5.7376   24.4741   30.4152 O   0  0  0  0  0  0  0  0  0  0  0  0
    9.3313   24.9330   28.0394 O   0  0  0  0  0  0  0  0  0  0  0  0
    3.9350   27.2268   23.3749 N   0  0  0  0  0  0  0  0  0  0  0  0
   10.0242   24.2825   27.0524 P   0  0  0  0  0  0  0  0  0  0  0  0
    5.5629   26.0358   27.8393 C   0  0  0  0  0  0  0  0  0  0  0  0
    5.3560   26.4571   25.0658 C   0  0  0  0  0  0  0  0  0  0  0  0
   11.6933   21.6163   27.5799 O   0  0  0  0  0  0  0  0  0  0  0  0
  3  1  1  0
  6  4  1  0
  7  2  1  0
  7  4  1  0
  8  3  1  0
  9  1  1  0
 13  8  1  0
 14  9  1  0
 15  8  1  0
 16  2  1  0
 17  5  1  0
 18  1  1  0
 19  3  1  0
 20  2  1  0
 20 17  2  0
 21 10  1  0
 21 11  1  0
 21 19  1  0
 22  6  1  0
 22  9  1  0
 22 12  1  0
 23  4  1  0
 23  5  1  0
 23  6  1  0
 23  7  1  0
 24  8  1  0
M  RAD  3   5   2   8   2  15   2
M  END
>  <ID>  (1) 
conformer_0

$$$$
