
     RDKit          3D

 25 26  0  0  0  0  0  0  0  0999 V2000
    5.7960   26.1602   24.0500 C   0  0  0  0  0  0  0  0  0  0  0  0
    7.0010   24.7784   29.4076 C   0  0  0  0  0  0  0  0  0  0  0  0
    8.3767   24.8943   29.1315 C   0  0  0  0  0  0  0  0  0  0  0  0
    6.8500   25.6052   25.5544 C   0  0  0  0  0  0  0  0  0  0  0  0
    4.7689   27.5322   25.4425 N   0  0  0  0  0  0  0  0  0  0  0  0
   10.8440   21.0781   28.9727 O   0  0  0  0  0  0  0  0  0  0  0  0
   10.5854   24.6137   26.5453 O   0  0  0  0  0  1  0  0  0  0  0  0
    6.6274   25.3080   24.4212 N   0  0  0  0  0  0  0  0  0  0  0  0
    7.5712   26.2506   28.0836 O   0  0  0  0  0  0  0  0  0  0  0  0
   11.4390   21.7061   28.4657 P   0  0  0  0  0  4  0  0  0  0  0  0
   12.4359   21.3318   27.4068 O   0  0  0  0  0  1  0  0  0  0  0  0
    6.2523   26.2860   26.3838 N   0  0  0  0  0  0  0  0  0  0  0  0
    5.3512   25.7776   21.8967 N   0  0  0  0  0  0  0  0  0  0  0  0
    5.8218   25.2502   28.7908 C   0  0  0  0  0  0  0  0  0  0  0  0
    3.7549   27.6629   24.2148 C   0  0  0  0  0  0  0  0  0  0  0  0
    4.0612   27.1296   23.1837 N   0  0  0  0  0  0  0  0  0  0  0  0
    5.7165   24.7421   30.4637 O   0  0  0  0  0  0  0  0  0  0  0  0
    9.3248   22.4093   27.4083 O   0  0  0  0  0  0  0  0  0  0  0  0
   10.2652   23.9654   27.4714 P   0  0  0  0  0  4  0  0  0  0  0  0
    9.2656   24.6139   28.1790 O   0  0  0  0  0  0  0  0  0  0  0  0
   11.3366   23.2917   28.3515 O   0  0  0  0  0  0  0  0  0  0  0  0
    5.9983   26.1885   27.9429 C   0  0  0  0  0  0  0  0  0  0  0  0
    5.0692   26.1664   23.0094 C   0  0  0  0  0  0  0  0  0  0  0  0
    4.6606   26.2235   29.5483 O   0  0  0  0  0  0  0  0  0  0  0  0
    5.4282   26.8070   25.4318 C   0  0  0  0  0  0  0  0  0  0  0  0
  3  2  1  0
  8  1  1  0
  8  4  2  0
 10  6  1  0
 11 10  1  0
 12  4  1  0
 14  2  1  0
 15  5  1  0
 16 15  2  0
 17  2  1  0
 19  7  1  0
 19 18  1  0
 20  3  1  0
 20 19  1  0
 21 10  1  0
 21 19  1  0
 22  9  1  0
 22 12  1  0
 22 14  1  0
 23  1  2  0
 23 13  1  0
 23 16  1  0
 24 14  1  0
 25  1  1  0
 25  5  2  0
 25 12  1  0
M  RAD  4   7   2  10   2  11   2  19   2
M  END
>  <ID>  (1) 
conformer_0

$$$$
