
     RDKit          3D

 25 27  0  0  0  0  0  0  0  0999 V2000
    5.5893   26.1248   28.0379 C   0  0  0  0  0  0  0  0  0  0  0  0
    4.0271   27.7994   24.6360 C   0  0  0  0  0  0  0  0  0  0  0  0
    5.6005   25.1868   28.8636 C   0  0  0  0  0  0  0  0  0  0  0  0
    6.4507   25.9805   25.6731 C   0  0  0  0  0  0  0  0  0  0  0  0
   12.0108   21.8016   28.4135 P   0  0  0  0  0  5  0  0  0  0  0  0
    6.8281   24.7239   29.3521 C   0  0  0  0  0  0  0  0  0  0  0  0
    4.7995   27.6550   25.5859 N   0  0  0  0  0  0  0  0  0  0  0  0
    7.3764   25.9899   28.2920 O   0  0  0  0  0  0  0  0  0  0  0  0
    5.2167   26.1900   21.8149 N   0  0  0  0  0  0  0  0  0  0  0  0
   10.8032   20.8712   28.4958 O   0  0  0  0  0  0  0  0  0  0  0  0
   11.3688   23.1847   28.2513 O   0  0  0  0  0  0  0  0  0  0  0  0
    6.0783   26.3567   26.4402 N   0  0  0  0  0  0  0  0  0  0  0  0
   12.7107   21.4793   27.1526 O   0  0  0  0  0  0  0  0  0  0  0  0
    8.9692   22.5690   27.1361 O   0  0  0  0  0  0  0  0  0  0  0  0
    5.6376   26.6426   24.6643 C   0  0  0  0  0  0  0  0  0  0  0  0
    4.4668   26.2283   29.6855 O   0  0  0  0  0  0  0  0  0  0  0  0
    4.0068   27.3994   23.2766 N   0  0  0  0  0  0  0  0  0  0  0  0
    6.4337   25.6082   24.4326 N   0  0  0  0  0  0  0  0  0  0  0  0
    5.5913   24.0742   30.3053 O   0  0  0  0  0  0  0  0  0  0  0  0
   10.1011   23.6434   27.5424 P   0  0  0  0  0  0  0  0  0  0  0  0
   10.4255   24.5982   26.4850 O   0  0  0  0  0  0  0  0  0  0  0  0
    9.2956   24.2317   28.3627 O   0  0  0  0  0  0  0  0  0  0  0  0
    8.4173   24.6011   29.3694 C   0  0  0  0  0  0  0  0  0  0  0  0
   12.4346   21.7361   29.4603 O   0  0  0  0  0  0  0  0  0  0  0  0
    5.1828   26.4802   23.1401 C   0  0  0  0  0  3  0  0  0  0  0  0
  3  1  1  0
  6  3  1  0
  7  2  2  0
  8  1  1  0
  8  6  1  0
 10  5  1  0
 11  5  1  0
 12  1  1  0
 12  4  1  0
 13  5  1  0
 15  4  1  0
 15  7  1  0
 16  3  1  0
 17  2  1  0
 18  4  2  0
 18 15  1  0
 19  6  1  0
 20 14  1  0
 21  5  1  0
 21 20  1  0
 22 20  1  0
 23  6  1  0
 23 22  1  0
 24  5  1  0
 25  9  1  0
 25 15  1  0
 25 17  1  0
M  RAD  1  25   2
M  END
>  <ID>  (1) 
conformer_0

$$$$
