
     RDKit          3D

 26 28  0  0  0  0  0  0  0  0999 V2000
    5.9296   25.4857   28.7020 C   0  0  0  0  0  0  0  0  0  0  0  0
    4.6836   26.4078   23.0511 C   0  0  0  0  0  0  0  0  0  0  0  0
    6.9715   24.9403   29.4901 C   0  0  0  0  0  0  0  0  0  0  0  0
    7.0258   25.6907   25.4811 C   0  0  0  0  0  0  0  0  0  0  0  0
    3.7001   27.2608   23.3412 N   0  0  0  0  0  0  0  0  0  0  0  0
    9.2091   24.4382   28.6090 O   0  0  0  0  0  0  0  0  0  0  0  0
   11.3091   21.8196   28.6385 P   0  0  0  0  0  4  0  0  0  0  0  0
    7.6671   26.1313   28.3672 O   0  0  0  0  0  0  0  0  0  0  0  0
    6.5524   25.5395   24.1670 N   0  0  0  0  0  0  0  0  0  0  0  0
    5.9461   26.2330   27.9085 C   0  0  0  0  0  0  0  0  0  0  0  0
   11.5382   21.4033   29.7630 O   0  0  0  0  0  0  0  0  0  0  0  0
    9.4022   23.2038   26.6296 O   0  0  0  0  0  0  0  0  0  0  0  0
    6.1578   26.1942   26.2321 N   0  0  0  0  0  0  0  0  0  0  0  0
    5.4839   25.9930   23.9431 C   0  0  0  0  0  0  0  0  0  0  0  0
    4.7517   25.9329   21.8287 N   0  0  0  0  0  0  0  0  0  0  0  0
   12.4180   21.6141   27.3320 O   0  0  0  0  0  1  0  0  0  0  0  0
    5.7453   24.3132   30.4153 O   0  0  0  0  0  0  0  0  0  0  0  0
    4.5280   26.3379   29.0571 O   0  0  0  0  0  0  0  0  0  0  0  0
    4.5570   27.4089   25.4800 N   0  0  0  0  0  0  0  0  0  0  0  0
   10.9045   24.8378   26.9148 O   0  0  0  0  0  1  0  0  0  0  0  0
    3.4937   27.6960   24.5831 C   0  0  0  0  0  0  0  0  0  0  0  0
    8.2031   24.3232   29.7728 C   0  0  0  0  0  0  0  0  0  0  0  0
   10.2384   23.8687   27.6468 P   0  0  0  0  0  4  0  0  0  0  0  0
    9.8488   21.4447   28.2940 O   0  0  0  0  0  0  0  0  0  0  0  0
   11.0536   23.1781   28.6419 O   0  0  0  0  0  0  0  0  0  0  0  0
    5.2808   26.6166   25.2998 C   0  0  0  0  0  0  0  0  0  0  0  0
  3  1  1  0
  5  2  2  0
  8  3  1  0
  9  4  2  0
 10  1  1  0
 10  8  1  0
 11  7  1  0
 13  4  1  0
 13 10  1  0
 14  2  1  0
 14  9  1  0
 15  2  1  0
 16  7  1  0
 17  3  1  0
 18  1  1  0
 21  5  1  0
 21 19  2  0
 22  3  1  0
 22  6  1  0
 23  6  1  0
 23 12  1  0
 23 20  1  0
 24  7  1  0
 25  7  1  0
 25 23  1  0
 26 13  1  0
 26 14  2  0
 26 19  1  0
M  RAD  4   7   2  16   2  20   2  23   2
M  END
>  <ID>  (1) 
conformer_0

$$$$
