
     RDKit          3D

 22 21  0  0  0  0  0  0  0  0999 V2000
    6.2398   25.2146   28.8699 C   0  0  2  0  0  0  0  0  0  0  0  0
    5.2207   26.2207   23.7963 C   0  0  0  0  0  0  0  0  0  0  0  0
    7.9006   24.9616   29.2803 C   0  0  2  0  0  0  0  0  0  0  0  0
    6.1301   25.8912   25.4131 C   0  0  0  0  0  0  0  0  0  0  0  0
    4.3961   27.3198   25.5040 N   0  0  0  0  0  0  0  0  0  0  0  0
    7.8324   26.0816   28.2135 O   0  0  0  0  0  0  0  0  0  0  0  0
   11.8128   21.7914   28.7913 P   0  0  0  0  0  5  0  0  0  0  0  0
    6.5546   25.4717   24.2691 N   0  0  0  0  0  0  0  0  0  0  0  0
    6.0527   26.0926   26.2730 N   0  0  0  0  0  0  0  0  0  0  0  0
    9.2710   22.9359   27.0482 O   0  0  0  0  0  0  0  0  0  0  0  0
   10.2373   23.4725   28.7876 O   0  0  0  0  0  0  0  0  0  0  0  0
   12.7198   22.4644   29.5986 O   0  0  0  0  0  0  0  0  0  0  0  0
   12.0880   21.5315   27.7629 O   0  0  0  0  0  0  0  0  0  0  0  0
    5.7492   25.9739   28.1048 C   0  0  1  0  0  0  0  0  0  0  0  0
    5.0528   25.9234   21.8155 N   0  0  0  0  0  0  0  0  0  0  0  0
    4.5282   26.1615   29.4228 O   0  0  0  0  0  0  0  0  0  0  0  0
    4.0444   27.1453   24.5000 C   0  0  0  0  0  0  0  0  0  0  0  0
   10.7723   20.9695   29.4238 O   0  0  0  0  0  0  0  0  0  0  0  0
    3.8452   27.0768   23.2460 N   0  0  0  0  0  0  0  0  0  0  0  0
   10.1399   23.7783   27.7623 P   0  0  0  0  0  0  0  0  0  0  0  0
    5.7868   24.4345   30.2467 O   0  0  0  0  0  0  0  0  0  0  0  0
   10.6911   24.8045   27.3924 O   0  0  0  0  0  0  0  0  0  0  0  0
  3  1  1  0
  3  6  1  6
  8  2  2  3
  8  4  1  0
  9  4  1  0
 11  7  1  0
 12  7  1  0
 13  7  1  0
 14  1  1  0
 14  9  1  0
 14 16  1  6
 17  2  1  0
 17  5  2  3
 18  7  1  0
 19 15  1  0
 19 17  1  0
 20  3  1  0
 20 10  1  0
 20 11  1  0
  1 21  1  1
 22  7  1  0
M  END
>  <ID>  (1) 
conformer_0

$$$$
