
     RDKit          3D

 27 29  0  0  0  0  0  0  0  0999 V2000
    6.5700   24.4122   29.2803 C   0  0  0  0  0  0  0  0  0  0  0  0
    4.9385   26.4394   23.2022 C   0  0  0  0  0  0  0  0  0  0  0  0
    5.2859   25.4274   28.6751 C   0  0  0  0  0  0  0  0  0  0  0  0
    6.8343   25.4832   25.7707 C   0  0  0  0  0  0  0  0  0  0  0  0
    4.5247   27.4992   25.7468 N   0  0  0  0  0  0  0  0  0  0  0  0
   11.9693   21.6907   28.6559 P   0  0  0  0  0  4  0  0  0  0  0  0
    5.0948   26.0332   22.0528 N   0  0  0  0  0  0  0  0  0  0  0  0
    9.2257   24.6876   28.3784 O   0  0  0  0  0  0  0  0  0  0  0  0
    6.1408   26.2092   26.4795 N   0  0  0  0  0  0  0  0  0  0  0  0
    7.4493   26.3752   28.4082 O   0  0  0  0  0  0  0  0  0  0  0  0
   12.6164   21.1347   27.3450 O   0  0  0  0  0  1  0  0  0  0  0  0
    6.5609   25.3637   24.3746 N   0  0  0  0  0  0  0  0  0  0  0  0
   12.8301   22.1975   29.5354 O   0  0  0  0  0  0  0  0  0  0  0  0
    8.7028   24.5102   29.4370 C   0  0  0  0  0  0  0  0  0  0  0  0
    9.2509   22.6541   27.1649 O   0  0  0  0  0  0  0  0  0  0  0  0
    5.6192   26.1906   24.2618 C   0  0  0  0  0  0  0  0  0  0  0  0
    4.4186   25.6863   29.6073 O   0  0  0  0  0  0  0  0  0  0  0  0
   10.0761   23.9300   27.6305 P   0  0  0  0  0  0  0  0  0  0  0  0
    3.7480   27.4021   23.5212 N   0  0  0  0  0  0  0  0  0  0  0  0
   10.8792   21.0279   29.1032 O   0  0  0  0  0  0  0  0  0  0  0  0
   10.5129   24.7735   26.6048 O   0  0  0  0  0  0  0  0  0  0  0  0
    5.9212   24.1731   30.4644 O   0  0  0  0  0  0  0  0  0  0  0  0
    3.5300   27.7046   24.7168 C   0  0  0  0  0  0  0  0  0  0  0  0
   11.0698   23.2089   28.2846 O   0  0  0  0  0  0  0  0  0  0  0  0
    7.1757   25.5688   29.4574 C   0  0  0  0  0  0  0  0  0  0  0  0
    5.9864   26.3575   27.7634 C   0  0  0  0  0  0  0  0  0  0  0  0
    5.3736   26.7571   25.6000 C   0  0  0  0  0  0  0  0  0  0  0  0
  3  1  1  0
  7  2  1  0
  9  4  1  0
 11  6  1  0
 12  4  2  0
 13  6  1  0
 14  8  1  0
 16  2  2  0
 16 12  1  0
 17  3  1  0
 18  8  1  0
 18 15  1  0
 19  2  1  0
 20  6  1  0
 21 14  1  0
 22  1  1  0
 23  5  1  0
 23 19  2  0
 24  6  1  0
 24 18  1  0
 25  1  1  0
 25 10  1  0
 25 14  1  0
 26  3  1  0
 26  9  1  0
 26 10  1  0
 27  5  2  0
 27  9  1  0
 27 16  1  0
M  RAD  2   6   2  11   2
M  END
>  <ID>  (1) 
conformer_0

$$$$
