
     RDKit          3D

 27 29  0  0  0  0  0  0  0  0999 V2000
    5.5552   25.6516   28.7233 C   0  0  0  0  0  0  0  0  0  0  0  0
    4.8618   26.1571   23.1116 C   0  0  0  0  0  0  0  0  0  0  0  0
    6.6191   24.8314   29.1494 C   0  0  0  0  0  0  0  0  0  0  0  0
    5.3054   26.6512   25.5177 C   0  0  0  0  0  0  0  0  0  0  0  0
    4.4086   27.4296   25.4935 N   0  0  0  0  0  0  0  0  0  0  0  0
   11.9635   21.9560   28.5255 P   0  0  0  0  0  4  0  0  0  0  0  0
    6.2432   26.3523   26.3050 N   0  0  0  0  0  0  0  0  0  0  0  0
    6.7274   25.3900   24.4022 N   0  0  0  0  0  0  0  0  0  0  0  0
    5.1113   25.7020   21.9927 N   0  0  0  0  0  0  0  0  0  0  0  0
   11.6167   23.3760   28.2428 O   0  0  0  0  0  0  0  0  0  0  0  0
    7.9792   24.8707   29.3213 C   0  0  0  0  0  0  0  0  0  0  0  0
    7.4919   26.0839   27.9926 O   0  0  0  0  0  0  0  0  0  0  0  0
   12.3992   21.1745   27.2664 O   0  0  0  0  0  1  0  0  0  0  0  0
   12.5582   22.0242   29.5401 O   0  0  0  0  0  0  0  0  0  0  0  0
    9.3964   22.9214   26.9104 O   0  0  0  0  0  0  0  0  0  0  0  0
    3.4541   27.4922   24.4665 C   0  0  0  0  0  0  0  0  0  0  0  0
    4.1845   26.0910   29.1889 O   0  0  0  0  0  0  0  0  0  0  0  0
    5.9102   24.0535   30.0800 O   0  0  0  0  0  0  0  0  0  0  0  0
    3.9332   26.9918   23.3446 N   0  0  0  0  0  0  0  0  0  0  0  0
   10.2984   23.8004   27.4993 P   0  0  0  0  0  4  0  0  0  0  0  0
    5.9845   26.7741   30.2964 O   0  0  0  0  0  0  0  0  0  0  0  0
   10.5104   21.3525   28.6890 O   0  0  0  0  0  0  0  0  0  0  0  0
    9.2844   24.3154   28.2794 O   0  0  0  0  0  0  0  0  0  0  0  0
    5.6402   26.0245   24.2235 C   0  0  0  0  0  0  0  0  0  0  0  0
    5.8351   26.4029   27.9111 C   0  0  0  0  0  0  0  0  0  0  0  0
   10.7984   24.8986   26.9184 O   0  0  0  0  0  1  0  0  0  0  0  0
    7.1056   25.8267   25.7489 C   0  0  0  0  0  0  0  0  0  0  0  0
  3  1  1  0
  5  4  1  0
  7  4  1  0
  9  2  1  0
 10  6  1  0
 11  3  1  0
 12 11  1  0
 13  6  1  0
 14  6  1  0
 16  5  2  0
 17  1  1  0
 18  3  1  0
 19  2  2  0
 19 16  1  0
 20 10  1  0
 20 15  1  0
 21  1  1  0
 22  6  1  0
 23 11  1  0
 23 20  1  0
 24  2  1  0
 24  4  2  0
 24  8  1  0
 25  1  1  0
 25  7  1  0
 25 12  1  0
 26 20  1  0
 27  7  1  0
 27  8  2  0
M  RAD  4   6   2  13   2  20   2  26   2
M  END
>  <ID>  (1) 
conformer_0

$$$$
