
     RDKit          3D

 25 27  0  0  0  0  0  0  0  0999 V2000
    5.4734   26.3860   24.6122 C   0  0  0  0  0  0  0  0  0  0  0  0
    5.6691   25.3471   28.8503 C   0  0  0  0  0  0  0  0  0  0  0  0
    6.8115   24.7191   29.4649 C   0  0  0  0  0  0  0  0  0  0  0  0
    6.0490   26.1202   25.7543 C   0  0  0  0  0  0  0  0  0  0  0  0
    3.7604   27.4186   23.2927 N   0  0  0  0  0  0  0  0  0  0  0  0
    8.2945   24.6980   29.5574 C   0  0  0  0  0  0  0  0  0  0  0  0
    4.7562   25.8071   21.9792 N   0  0  0  0  0  0  0  0  0  0  0  0
   10.1384   23.7447   27.5041 P   0  0  0  0  0  0  0  0  0  0  0  0
   10.5714   21.5224   28.5354 O   0  0  0  0  0  0  0  0  0  0  0  0
    6.0363   26.3015   26.4920 N   0  0  0  0  0  0  0  0  0  0  0  0
    6.1760   25.3687   24.6257 N   0  0  0  0  0  0  0  0  0  0  0  0
    9.3364   22.8946   26.9796 O   0  0  0  0  0  0  0  0  0  0  0  0
   10.3992   24.5901   26.2177 O   0  0  0  0  0  0  0  0  0  0  0  0
   12.8647   21.1172   27.4677 O   0  0  0  0  0  0  0  0  0  0  0  0
    7.4059   26.0219   28.4339 O   0  0  0  0  0  0  0  0  0  0  0  0
    4.3238   26.3181   29.2660 O   0  0  0  0  0  0  0  0  0  0  0  0
    4.7235   27.7128   25.4599 N   0  0  0  0  0  2  0  0  0  0  0  0
    5.5250   24.1594   30.3616 O   0  0  0  0  0  0  0  0  0  0  0  0
    4.7905   26.3199   23.1451 C   0  0  0  0  0  0  0  0  0  0  0  0
    9.2656   24.4250   28.4078 O   0  0  0  0  0  0  0  0  0  0  0  0
   12.0496   21.7348   28.3850 P   0  0  0  0  0  5  0  0  0  0  0  0
   11.5791   23.4797   27.9353 O   0  0  0  0  0  0  0  0  0  0  0  0
    5.5944   26.1775   28.0841 C   0  0  0  0  0  0  0  0  0  0  0  0
   12.4117   21.7708   29.5196 O   0  0  0  0  0  0  0  0  0  0  0  0
    4.0671   27.6629   24.6115 C   0  0  0  0  0  0  0  0  0  0  0  0
  3  2  1  0
  4  1  1  0
  6  3  1  0
 10  4  1  0
 11  1  1  0
 11  4  2  0
 12  8  1  0
 15  3  1  0
 16  2  1  0
 17  1  1  0
 18  3  1  0
 19  1  1  0
 19  5  1  0
 19  7  1  0
 20  6  1  0
 20  8  1  0
 21  9  1  0
 21 13  1  0
 21 14  1  0
 22  8  1  0
 22 21  1  0
 23  2  1  0
 23 10  1  0
 23 15  1  0
 24 21  1  0
 25  5  2  0
 25 17  1  0
M  RAD  1  17   2
M  END
>  <ID>  (1) 
conformer_0

$$$$
