
     RDKit          3D

 26 28  0  0  0  0  0  0  0  0999 V2000
    5.7821   26.0462   27.9572 C   0  0  0  0  0  0  0  0  0  0  0  0
    3.2276   27.7394   24.7649 C   0  0  0  0  0  0  0  0  0  0  0  0
    5.6456   25.2910   28.7198 C   0  0  0  0  0  0  0  0  0  0  0  0
    6.6627   25.8341   25.5796 C   0  0  0  0  0  0  0  0  0  0  0  0
   12.0604   21.7927   28.3767 P   0  0  0  0  0  4  0  0  0  0  0  0
    3.6318   27.4704   23.3908 N   0  0  0  0  0  0  0  0  0  0  0  0
    6.8331   24.8444   29.4375 C   0  0  0  0  0  0  0  0  0  0  0  0
    7.6606   25.9072   28.1505 O   0  0  0  0  0  0  0  0  0  0  0  0
    9.0461   22.7667   27.1017 O   0  0  0  0  0  0  0  0  0  0  0  0
    6.0231   26.3566   26.2562 N   0  0  0  0  0  0  0  0  0  0  0  0
   12.7719   21.1212   27.0824 O   0  0  0  0  0  1  0  0  0  0  0  0
    6.3524   25.8995   24.1990 N   0  0  0  0  0  0  0  0  0  0  0  0
    9.8416   24.0466   28.8844 O   0  0  0  0  0  0  0  0  0  0  0  0
   11.1555   20.9271   28.7659 O   0  0  0  0  0  0  0  0  0  0  0  0
    4.6551   26.3663   21.9041 N   0  0  0  0  0  0  0  0  0  0  0  0
    4.5822   26.3260   29.4603 O   0  0  0  0  0  0  0  0  0  0  0  0
    4.4555   26.7409   23.1123 C   0  0  0  0  0  0  0  0  0  0  0  0
    5.6955   24.2683   30.3104 O   0  0  0  0  0  0  0  0  0  0  0  0
    4.3223   27.5003   25.7213 N   0  0  0  0  0  0  0  0  0  0  0  0
   10.1104   23.6669   27.6973 P   0  0  0  0  0  0  0  0  0  0  0  0
   10.3673   24.7621   26.8104 O   0  0  0  0  0  0  0  0  0  0  0  0
    8.4144   24.7736   29.3874 C   0  0  0  0  0  0  0  0  0  0  0  0
   12.6882   22.3480   29.3074 O   0  0  0  0  0  0  0  0  0  0  0  0
   11.3600   22.8407   27.9234 O   0  0  0  0  0  0  0  0  0  0  0  0
    5.0099   27.0611   25.6182 C   0  0  0  0  0  0  0  0  0  0  0  0
    5.5445   26.4245   24.1011 C   0  0  0  0  0  0  0  0  0  0  0  0
  3  1  1  0
  6  2  2  0
  7  3  1  0
  8  7  1  0
 10  1  1  0
 10  4  1  0
 11  5  1  0
 12  4  2  0
 14  5  1  0
 16  3  1  0
 17  6  1  0
 17 15  1  0
 18  7  1  0
 19  2  1  0
 20  9  1  0
 20 13  1  0
 22  7  1  0
 22  8  1  0
 22 13  1  0
 22 21  1  0
 23  5  1  0
 24  5  1  0
 24 20  1  0
 25 10  1  0
 25 19  2  0
 26 12  1  0
 26 17  2  0
 26 25  1  0
M  RAD  2   5   2  11   2
M  END
>  <ID>  (1) 
conformer_0

$$$$
