
     RDKit          3D

 27 29  0  0  0  0  0  0  0  0999 V2000
    5.0658   26.4947   23.2211 C   0  0  0  0  0  0  0  0  0  0  0  0
    5.6253   25.4308   28.7970 C   0  0  0  0  0  0  0  0  0  0  0  0
    5.9063   25.9797   27.8492 C   0  0  0  0  0  0  0  0  0  0  0  0
    6.7369   25.9623   25.7374 C   0  0  0  0  0  0  0  0  0  0  0  0
    3.9027   27.2172   23.2351 N   0  0  0  0  0  0  0  0  0  0  0  0
   11.1708   23.4416   28.0789 O   0  0  0  0  0  0  0  0  0  0  0  0
    9.1710   23.0280   26.7228 O   0  0  0  0  0  0  0  0  0  0  0  0
   11.7713   21.8325   28.4989 P   0  0  0  0  0  5  0  0  0  0  0  0
    7.5299   26.1665   28.6077 O   0  0  0  0  0  0  0  0  0  0  0  0
    7.6246   25.2157   29.4702 C   0  0  0  0  0  0  0  0  0  0  0  0
    6.0870   26.3477   26.5518 N   0  0  0  0  0  0  0  0  0  0  0  0
    6.7893   25.7661   24.5608 N   0  0  0  0  0  0  0  0  0  0  0  0
   11.1432   20.6168   28.4033 O   0  0  0  0  0  0  0  0  0  0  0  0
    4.5677   27.6349   25.5741 N   0  0  0  0  0  0  0  0  0  0  0  0
    5.3703   26.2854   22.0007 N   0  0  0  0  0  0  0  0  0  0  0  0
    5.7097   26.3965   24.2302 C   0  0  0  0  0  0  0  0  0  0  0  0
   12.7490   21.8866   27.4256 O   0  0  0  0  0  0  0  0  0  0  0  0
    5.7572   24.4326   30.4895 O   0  0  0  0  0  0  0  0  0  0  0  0
   10.0493   23.8833   27.0562 P   0  0  0  0  0  0  0  0  0  0  0  0
   10.5304   24.4908   26.0279 O   0  0  0  0  0  0  0  0  0  0  0  0
    4.5950   25.9430   29.4414 O   0  0  0  0  0  0  0  0  0  0  0  0
    8.8756   24.0506   29.5052 C   0  0  0  0  0  0  0  0  0  0  0  0
   12.2731   21.7619   29.6036 O   0  0  0  0  0  0  0  0  0  0  0  0
    3.6036   27.7819   24.4571 C   0  0  0  0  0  0  0  0  0  0  0  0
    9.2439   24.6002   28.1952 O   0  0  0  0  0  0  0  0  0  0  0  0
    5.1825   27.1677   25.7576 C   0  0  0  0  0  0  0  0  0  0  0  0
    6.6641   24.1771   29.1965 C   0  0  0  0  0  0  0  0  0  0  0  0
  3  2  1  0
  5  1  2  0
  8  6  1  0
  9  3  1  0
 10  9  1  0
 11  3  1  0
 11  4  1  0
 12  4  2  0
 13  8  1  0
 15  1  1  0
 16  1  1  0
 16 12  1  0
 17  8  1  0
 19  7  1  0
 20 19  1  0
 21  2  1  0
 22  8  1  0
 22 10  1  0
 23  8  1  0
 24  5  1  0
 24 14  2  0
 25 19  1  0
 25 22  1  0
 26 11  1  0
 26 14  1  0
 26 16  2  0
 27  2  1  0
 27 10  1  0
 27 18  1  0
M  END
>  <ID>  (1) 
conformer_0

$$$$
