
     RDKit          3D

 25 26  0  0  0  0  0  0  0  0999 V2000
    5.9730   24.8628   28.8975 C   0  0  1  0  0  0  0  0  0  0  0  0
    6.6349   25.7640   25.7268 C   0  0  0  0  0  0  0  0  0  0  0  0
    7.3694   24.4490   29.4351 C   0  0  2  0  0  0  0  0  0  0  0  0
    5.1386   26.4653   23.5518 C   0  0  0  0  0  0  0  0  0  0  0  0
    3.7432   27.4839   23.5194 N   0  0  0  0  0  0  0  0  0  0  0  0
    6.6137   25.4860   24.5542 N   0  0  0  0  0  0  0  0  0  0  0  0
    7.4752   26.0333   28.7164 O   0  0  0  0  0  0  0  0  0  0  0  0
    5.1929   26.3128   22.0824 N   0  0  0  0  0  0  0  0  0  0  0  0
    8.8545   24.7228   29.3694 C   0  0  2  0  0  0  0  0  0  0  0  0
   10.9825   25.1406   26.5806 O   0  0  0  0  0  0  0  0  0  0  0  0
   11.6198   21.8580   28.5691 P   0  0  0  0  0  4  0  0  0  0  0  0
   12.1185   22.0095   29.6755 O   0  0  0  0  0  0  0  0  0  0  0  0
   12.2837   21.1579   27.4204 O   0  0  0  0  0  1  0  0  0  0  0  0
    6.1189   26.0832   26.5892 N   0  0  0  0  0  0  0  0  0  0  0  0
    5.4087   26.5078   24.9632 C   0  0  0  0  0  0  0  0  0  0  0  0
    5.2445   24.6157   30.2216 O   0  0  0  0  0  0  0  0  0  0  0  0
    4.4542   27.4774   25.8318 N   0  0  0  0  0  0  0  0  0  0  0  0
   10.1494   21.3703   28.7529 O   0  0  0  0  0  0  0  0  0  0  0  0
   10.5240   24.2890   27.2342 P   0  0  0  0  0  0  0  0  0  0  0  0
    9.4492   22.9504   26.8042 O   0  0  0  0  0  0  0  0  0  0  0  0
    3.9215   27.5431   24.9568 C   0  0  0  0  0  0  0  0  0  0  0  0
    5.8657   25.8166   28.2772 C   0  0  1  0  0  0  0  0  0  0  0  0
    9.3598   24.7168   28.0303 O   0  0  0  0  0  0  0  0  0  0  0  0
   11.3995   23.4333   27.9533 O   0  0  0  0  0  0  0  0  0  0  0  0
    4.3408   26.2506   29.1218 O   0  0  0  0  0  0  0  0  0  0  0  0
  3  1  1  0
  5  4  2  0
  6  2  2  3
  3  7  1  1
  8  4  1  0
  9  3  1  0
 10  9  1  0
 12 11  1  0
 13 11  1  0
 14  2  1  0
 15  2  1  0
 15  4  1  0
  1 16  1  1
 17 15  2  0
 18 11  1  0
 19 10  1  0
 20 19  1  0
 21  5  1  0
 21 17  1  0
 22  1  1  0
 22  7  1  0
 22 14  1  0
  9 23  1  6
 24 11  1  0
 24 19  1  0
 22 25  1  1
M  RAD  2  11   2  13   2
M  END
>  <ID>  (1) 
conformer_0

$$$$
