
     RDKit          3D

 26 27  0  0  0  0  0  0  0  0999 V2000
    6.7166   25.3523   25.6335 C   0  0  0  0  0  0  0  0  0  0  0  0
    5.8498   25.0716   29.0519 C   0  0  0  0  0  0  0  0  0  0  0  0
    7.1437   24.4713   29.5990 C   0  0  0  0  0  0  0  0  0  0  0  0
    8.5221   24.4894   29.4474 C   0  0  0  0  0  0  0  0  0  0  0  0
    5.4315   26.2491   24.3541 C   0  0  0  0  0  0  0  0  0  0  0  0
    3.7094   27.2712   23.5119 N   0  0  0  0  0  0  0  0  0  0  0  0
    6.4403   25.2100   24.4577 N   0  0  0  0  0  0  0  0  0  0  0  0
    7.4752   26.1137   28.5987 O   0  0  0  0  0  0  0  0  0  0  0  0
   11.5412   21.7381   28.3899 P   0  0  0  0  0  5  0  0  0  0  0  0
    4.9335   25.9238   22.1499 N   0  0  0  0  0  0  0  0  0  0  0  0
    9.4103   23.1282   26.2415 O   0  0  0  0  0  0  0  0  0  0  0  0
    6.1801   26.2141   26.5466 N   0  0  0  0  0  0  0  0  0  0  0  0
    9.9785   21.4626   28.4704 O   0  0  0  0  0  0  0  0  0  0  0  0
    4.7818   26.3461   23.2701 C   0  0  0  0  0  0  0  0  0  0  0  0
   12.3387   21.0410   27.1962 O   0  0  0  0  0  0  0  0  0  0  0  0
   11.2970   23.4083   27.8585 O   0  0  0  0  0  0  0  0  0  0  0  0
    4.5414   27.5453   25.8734 N   0  0  0  0  0  0  0  0  0  0  0  0
    4.4543   25.9770   29.4671 O   0  0  0  0  0  0  0  0  0  0  0  0
   10.2917   24.0656   27.0623 P   0  0  0  0  0  0  0  0  0  0  0  0
   11.9850   21.8091   29.3014 O   0  0  0  0  0  0  0  0  0  0  0  0
    5.6386   24.2376   30.6746 O   0  0  0  0  0  0  0  0  0  0  0  0
    9.2389   24.6015   28.1426 O   0  0  0  0  0  0  0  0  0  0  0  0
    3.5654   27.8052   24.8245 C   0  0  0  0  0  0  0  0  0  0  0  0
    6.0641   25.8505   28.1478 C   0  0  0  0  0  0  0  0  0  0  0  0
   10.6894   25.0058   26.4710 O   0  0  0  0  0  0  0  0  0  0  0  0
    5.2496   26.9635   25.7931 C   0  0  0  0  0  0  0  0  0  0  0  0
  3  2  1  0
  4  3  1  0
  7  1  2  0
  7  5  1  0
 12  1  1  0
 13  9  1  0
 14  5  2  0
 14  6  1  0
 14 10  1  0
 15  9  1  0
 16  9  1  0
 18  2  1  0
 19 11  1  0
 20  9  1  0
 21  2  1  0
 22  4  1  0
 22 19  1  0
 23  6  2  0
 23 17  1  0
 24  2  1  0
 24  8  2  0
 24 12  1  0
 25  9  1  0
 25 19  1  0
 26  5  1  0
 26 12  1  0
 26 17  2  0
M  END
>  <ID>  (1) 
conformer_0

$$$$
