
     RDKit          3D

 26 27  0  0  0  0  0  0  0  0999 V2000
    6.9215   25.4290   25.7180 C   0  0  0  0  0  0  0  0  0  0  0  0
    8.3083   24.6872   29.2534 C   0  0  0  0  0  0  0  0  0  0  0  0
    6.9687   24.5401   29.5124 C   0  0  0  0  0  0  0  0  0  0  0  0
    4.8812   26.5006   23.1364 C   0  0  0  0  0  0  0  0  0  0  0  0
    4.6030   27.4430   25.6044 N   0  0  0  0  0  0  0  0  0  0  0  0
   11.6677   21.8289   28.6702 P   0  0  0  0  0  5  0  0  0  0  0  0
   10.6131   24.6443   26.5152 O   0  0  0  0  0  0  0  0  0  0  0  0
    6.1040   26.0089   26.4815 N   0  0  0  0  0  0  0  0  0  0  0  0
    6.6089   25.4155   24.3498 N   0  0  0  0  0  0  0  0  0  0  0  0
    7.3650   26.2028   28.6561 O   0  0  0  0  0  0  0  0  0  0  0  0
    5.2854   26.2037   21.9356 N   0  0  0  0  0  0  0  0  0  0  0  0
   12.5315   22.0637   29.8484 O   0  0  0  0  0  0  0  0  0  0  0  0
    5.5110   26.2188   24.1283 C   0  0  0  0  0  0  0  0  0  0  0  0
   12.5478   21.5767   27.4081 O   0  0  0  0  0  0  0  0  0  0  0  0
    4.5931   26.0184   29.3658 O   0  0  0  0  0  0  0  0  0  0  0  0
    5.7999   24.9321   28.7354 C   0  0  0  0  0  0  0  0  0  0  0  0
    3.7713   27.3411   23.3561 N   0  0  0  0  0  0  0  0  0  0  0  0
    5.8603   23.9956   30.4085 O   0  0  0  0  0  0  0  0  0  0  0  0
   10.2903   24.0580   27.3907 P   0  0  0  0  0  0  0  0  0  0  0  0
   11.0273   20.9650   29.0026 O   0  0  0  0  0  0  0  0  0  0  0  0
    3.5639   27.7497   24.6712 C   0  0  0  0  0  0  0  0  0  0  0  0
    9.1261   24.6245   28.0409 O   0  0  0  0  0  0  0  0  0  0  0  0
   11.0502   23.2754   28.1958 O   0  0  0  0  0  0  0  0  0  0  0  0
    5.8939   25.9653   28.0223 C   0  0  0  0  0  0  0  0  0  0  0  0
    5.3501   26.6814   25.5307 C   0  0  0  0  0  0  0  0  0  0  0  0
    9.1581   22.0223   28.0811 O   0  0  0  0  0  0  0  0  0  0  0  0
  3  2  1  0
  7  6  1  0
  8  1  1  0
  9  1  2  0
 11  4  1  0
 12  6  1  0
 13  4  2  0
 13  9  1  0
 14  6  1  0
 16  3  1  0
 16 15  1  0
 17  4  1  0
 18  3  1  0
 19  7  1  0
 20  6  1  0
 21  5  1  0
 21 17  2  0
 22  2  1  0
 22 19  1  0
 23  6  1  0
 24  8  1  0
 24 10  1  0
 24 16  1  0
 25  5  2  0
 25  8  1  0
 25 13  1  0
 26 19  1  0
M  END
>  <ID>  (1) 
conformer_0

$$$$
