
     RDKit          3D

 25 26  0  0  0  0  0  0  0  0999 V2000
    5.8095   25.2916   29.0201 C   0  0  0  0  0  0  0  0  0  0  0  0
    5.3089   26.4502   23.5963 C   0  0  0  0  0  0  0  0  0  0  0  0
    7.1733   24.4944   29.3859 C   0  0  0  0  0  0  0  0  0  0  0  0
    6.8597   25.6176   25.7112 C   0  0  0  0  0  0  0  0  0  0  0  0
    4.5141   27.4515   25.8011 N   0  0  0  0  0  0  0  0  0  0  0  0
   11.9627   21.6333   28.3085 P   0  0  0  0  0  4  0  0  0  0  0  0
    7.7854   25.8260   28.3897 O   0  0  0  0  0  0  0  0  0  0  0  0
    6.3568   26.1449   26.4813 N   0  0  0  0  0  0  0  0  0  0  0  0
    5.2745   26.2667   22.0865 N   0  0  0  0  0  0  0  0  0  0  0  0
    6.7447   25.4860   24.3645 N   0  0  0  0  0  0  0  0  0  0  0  0
   10.8919   21.0055   28.9089 O   0  0  0  0  0  0  0  0  0  0  0  0
    9.6412   24.3249   27.5212 O   0  0  0  0  0  0  0  0  0  0  0  0
    5.7631   26.1262   28.2257 C   0  0  0  0  0  0  0  0  0  0  0  0
    5.2026   24.8615   30.3879 O   0  0  0  0  0  0  0  0  0  0  0  0
    5.6775   26.4939   25.1962 C   0  0  0  0  0  3  0  0  0  0  0  0
   12.5784   21.0261   27.1304 O   0  0  0  0  0  1  0  0  0  0  0  0
    4.4035   26.7960   29.2281 O   0  0  0  0  0  0  0  0  0  0  0  0
    3.8657   27.3595   23.6794 N   0  0  0  0  0  0  0  0  0  0  0  0
   12.6477   22.4826   29.1249 O   0  0  0  0  0  0  0  0  0  0  0  0
    9.2432   22.8328   26.0934 O   0  0  0  0  0  0  0  0  0  0  0  0
    3.9587   27.4783   24.7021 C   0  0  0  0  0  0  0  0  0  0  0  0
    8.4582   24.0369   29.0325 C   0  0  0  0  0  0  0  0  0  0  0  0
   10.3513   23.4866   27.2583 P   0  0  0  0  0  0  0  0  0  0  0  0
   11.1380   22.9984   27.4812 O   0  0  0  0  0  0  0  0  0  0  0  0
    6.8343   23.4437   30.7386 O   0  0  0  0  0  0  0  0  0  0  0  0
  3  1  1  0
  7  3  1  0
  8  4  1  0
  9  2  1  0
 10  2  1  0
 10  4  2  0
 11  6  1  0
 13  1  1  0
 13  8  1  0
 14  1  1  0
 15  2  1  0
 15  5  1  0
 15  8  1  0
 16  6  1  0
 17 13  1  0
 18  2  1  0
 19  6  1  0
 21  5  1  0
 21 18  1  0
 22  3  1  0
 22 12  1  0
 23 12  1  0
 23 20  1  0
 24  6  1  0
 24 23  1  0
 25  3  1  0
M  RAD  3   6   2  15   2  16   2
M  END
>  <ID>  (1) 
conformer_0

$$$$
