
     RDKit          3D

 26 27  0  0  0  0  0  0  0  0999 V2000
    6.6631   25.5885   25.7487 C   0  0  0  0  0  0  0  0  0  0  0  0
    5.7010   26.0880   28.2073 C   0  0  0  0  0  0  0  0  0  0  0  0
    5.5380   25.2857   28.7513 C   0  0  0  0  0  0  0  0  0  0  0  0
    6.8492   24.7173   29.3251 C   0  0  0  0  0  0  0  0  0  0  0  0
    5.2907   26.8316   25.4656 C   0  0  0  0  0  0  0  0  0  0  0  0
    4.5358   27.4980   25.6670 N   0  0  0  0  0  0  0  0  0  0  0  0
   11.9829   21.6719   28.4962 P   0  0  0  0  0  4  0  0  0  0  0  0
    6.0538   26.1144   26.4181 N   0  0  0  0  0  0  0  0  0  0  0  0
    9.3014   22.8905   26.6582 O   0  0  0  0  0  0  0  0  0  0  0  0
   10.6695   24.9614   26.4588 O   0  0  0  0  0  0  0  0  0  0  0  0
    4.8648   25.8916   21.9253 N   0  0  0  0  0  0  0  0  0  0  0  0
    7.6458   25.9523   28.3454 O   0  0  0  0  0  0  0  0  0  0  0  0
   11.0843   20.6934   28.5218 O   0  0  0  0  0  0  0  0  0  0  0  0
   13.2556   21.5758   27.4828 O   0  0  0  0  0  1  0  0  0  0  0  0
    3.5187   27.7513   24.5308 C   0  0  0  0  0  0  0  0  0  0  0  0
    3.8439   27.2808   23.3898 N   0  0  0  0  0  0  0  0  0  0  0  0
   10.2321   23.8794   27.3549 P   0  0  0  0  0  0  0  0  0  0  0  0
    4.5581   26.5838   29.4633 O   0  0  0  0  0  0  0  0  0  0  0  0
    6.4032   25.5659   24.3058 N   0  0  0  0  0  0  0  0  0  0  0  0
    5.2139   24.3509   30.1604 O   0  0  0  0  0  0  0  0  0  0  0  0
   12.4898   21.7253   29.7304 O   0  0  0  0  0  0  0  0  0  0  0  0
   11.3947   23.0346   27.9632 O   0  0  0  0  0  0  0  0  0  0  0  0
    9.4175   24.3218   28.1665 O   0  0  0  0  0  0  0  0  0  0  0  0
    8.2225   24.3226   29.1834 C   0  0  0  0  0  0  0  0  0  0  0  0
    5.5313   26.1846   24.1406 C   0  0  0  0  0  0  0  0  0  0  0  0
    4.7704   26.4739   23.0779 C   0  0  0  0  0  0  0  0  0  0  0  0
  3  2  1  0
  4  3  1  0
  6  5  2  0
  8  1  1  0
  8  2  1  0
  8  5  1  0
 12  4  1  0
 13  7  1  0
 14  7  1  0
 15  6  1  0
 16 15  2  0
 17  9  1  0
 18  2  1  0
 19  1  2  0
 20  3  1  0
 21  7  1  0
 22  7  1  0
 22 17  1  0
 23 17  1  0
 24  4  1  0
 24 10  1  0
 24 23  1  0
 25  5  1  0
 25 19  1  0
 26 11  1  0
 26 16  1  0
 26 25  2  0
M  RAD  2   7   2  14   2
M  END
>  <ID>  (1) 
conformer_0

$$$$
