
     RDKit          3D

 27 28  0  0  0  0  0  0  0  0999 V2000
    5.0587   26.4477   23.1884 C   0  0  0  0  0  0  0  0  0  0  0  0
    5.1766   25.3067   28.5939 C   0  0  0  0  0  0  0  0  0  0  0  0
    6.6647   25.4908   29.4052 C   0  0  0  0  0  0  0  0  0  0  0  0
    5.9954   26.1099   24.2132 C   0  0  0  0  0  0  0  0  0  0  0  0
    4.5959   27.3733   25.6841 N   0  0  0  0  0  0  0  0  0  0  0  0
   11.7254   21.7151   28.4189 P   0  0  0  0  0  5  0  0  0  0  0  0
    5.3203   26.0159   21.9705 N   0  0  0  0  0  0  0  0  0  0  0  0
   10.8879   24.9801   26.8119 O   0  0  0  0  0  0  0  0  0  0  0  0
   12.5833   21.2706   27.1532 O   0  0  0  0  0  0  0  0  0  0  0  0
    6.8247   25.4707   24.3173 N   0  0  0  0  0  0  0  0  0  0  0  0
   12.3534   21.8965   29.4457 O   0  0  0  0  0  0  0  0  0  0  0  0
    7.6060   25.8760   28.5041 O   0  0  0  0  0  0  0  0  0  0  0  0
    6.3849   26.0181   26.4391 N   0  0  0  0  0  0  0  0  0  0  0  0
    5.8439   26.2091   27.7791 C   0  0  0  0  0  0  0  0  0  0  0  0
    3.6456   27.5871   24.5800 C   0  0  0  0  0  0  0  0  0  0  0  0
    3.9702   27.1903   23.4012 N   0  0  0  0  0  0  0  0  0  0  0  0
   10.4983   21.1042   28.6981 O   0  0  0  0  0  0  0  0  0  0  0  0
    4.4422   26.3148   29.3334 O   0  0  0  0  0  0  0  0  0  0  0  0
    5.6481   24.2329   30.3260 O   0  0  0  0  0  0  0  0  0  0  0  0
    7.3819   25.4529   25.9531 C   0  0  0  0  0  0  0  0  0  0  0  0
   10.3434   24.0002   27.6626 P   0  0  0  0  0  0  0  0  0  0  0  0
    9.5123   24.3775   28.5118 O   0  0  0  0  0  0  0  0  0  0  0  0
    8.5732   24.4881   29.4769 C   0  0  0  0  0  0  0  0  0  0  0  0
    9.4223   22.5834   27.1779 O   0  0  0  0  0  0  0  0  0  0  0  0
   11.4784   23.1814   28.0617 O   0  0  0  0  0  0  0  0  0  0  0  0
    5.5546   26.5119   25.4755 C   0  0  0  0  0  0  0  0  0  0  0  0
    6.8523   24.1272   29.2278 C   0  0  0  0  0  0  0  0  0  0  0  0
  3  2  1  0
  4  1  2  0
  7  1  1  0
  8  6  1  0
  9  6  1  0
 10  4  1  0
 11  6  1  0
 12  3  1  0
 14  2  1  0
 14 13  1  0
 15  5  1  0
 16  1  1  0
 16 15  2  0
 17  6  1  0
 18  2  1  0
 20 10  2  0
 20 13  1  0
 21  8  1  0
 22 21  1  0
 23 22  1  0
 24 21  1  0
 25  6  1  0
 26  4  1  0
 26  5  2  0
 26 13  1  0
 27  3  1  0
 27 19  1  0
 27 23  1  0
M  END
>  <ID>  (1) 
conformer_0

$$$$
