
     RDKit          3D

 27 29  0  0  0  0  0  0  0  0999 V2000
    6.4553   24.4435   29.3931 C   0  0  0  0  0  0  0  0  0  0  0  0
    6.5688   25.1250   25.6067 C   0  0  0  0  0  0  0  0  0  0  0  0
    7.5918   25.4641   28.9542 C   0  0  0  0  0  0  0  0  0  0  0  0
    5.3505   26.9069   25.8175 C   0  0  0  0  0  0  0  0  0  0  0  0
    6.3233   25.0748   24.4671 N   0  0  0  0  0  0  0  0  0  0  0  0
    4.4553   27.6532   25.5482 N   0  0  0  0  0  0  0  0  0  0  0  0
   12.0803   21.7951   28.5010 P   0  0  0  0  0  5  0  0  0  0  0  0
    7.2462   26.2370   28.2693 O   0  0  0  0  0  0  0  0  0  0  0  0
    5.1180   26.0440   22.0018 N   0  0  0  0  0  0  0  0  0  0  0  0
    5.8055   26.3875   26.5451 N   0  0  0  0  0  0  0  0  0  0  0  0
   11.3387   23.1547   28.1291 O   0  0  0  0  0  0  0  0  0  0  0  0
   10.9416   20.8829   28.8188 O   0  0  0  0  0  0  0  0  0  0  0  0
   12.7010   21.2347   27.2655 O   0  0  0  0  0  0  0  0  0  0  0  0
    8.7183   24.3918   29.4557 C   0  0  0  0  0  0  0  0  0  0  0  0
    9.1052   22.7624   26.8122 O   0  0  0  0  0  0  0  0  0  0  0  0
    4.9750   26.3200   23.2493 C   0  0  0  0  0  0  0  0  0  0  0  0
    5.5619   24.7428   30.4058 O   0  0  0  0  0  0  0  0  0  0  0  0
    3.8790   27.2915   23.3643 N   0  0  0  0  0  0  0  0  0  0  0  0
   10.3774   23.7256   27.4517 P   0  0  0  0  0  0  0  0  0  0  0  0
   10.6837   24.6854   26.3879 O   0  0  0  0  0  0  0  0  0  0  0  0
    9.4357   24.3809   28.2537 O   0  0  0  0  0  0  0  0  0  0  0  0
   12.8089   21.9888   29.3524 O   0  0  0  0  0  0  0  0  0  0  0  0
    3.7962   27.6602   24.5868 C   0  0  0  0  0  0  0  0  0  0  0  0
    3.9654   25.9471   29.1808 O   0  0  0  0  0  0  0  0  0  0  0  0
    5.3585   25.4794   28.8254 C   0  0  0  0  0  0  0  0  0  0  0  0
    5.5815   26.3461   27.8527 C   0  0  0  0  0  0  0  0  0  0  0  0
    5.4529   26.1195   24.3669 C   0  0  0  0  0  0  0  0  0  0  0  0
  3  1  1  0
  5  2  2  0
  6  4  1  0
  8  3  1  0
 10  2  1  0
 10  4  1  0
 11  7  1  0
 12  7  1  0
 13  7  1  0
 14  3  1  0
 16  9  1  0
 17  1  1  0
 18 16  2  0
 19 11  1  0
 19 15  1  0
 20  7  1  0
 21 14  1  0
 21 19  1  0
 22  7  1  0
 23  6  2  0
 23 18  1  0
 25  1  1  0
 25 24  1  0
 26  8  1  0
 26 10  1  0
 26 25  1  0
 27  4  2  0
 27  5  1  0
 27 16  1  0
M  END
>  <ID>  (1) 
conformer_0

$$$$
