
     RDKit          3D

 27 28  0  0  0  0  0  0  0  0999 V2000
    6.1140   25.8813   29.2180 C   0  0  0  0  0  0  0  0  0  0  0  0
    6.5827   25.6079   25.5968 C   0  0  0  0  0  0  0  0  0  0  0  0
    7.4243   24.5261   29.5964 C   0  0  0  0  0  0  0  0  0  0  0  0
    4.7866   26.4306   23.2060 C   0  0  0  0  0  0  0  0  0  0  0  0
    4.3682   27.5576   25.8307 N   0  0  0  0  0  0  0  0  0  0  0  0
   12.0678   21.7064   28.3166 P   0  0  0  0  0  4  0  0  0  0  0  0
    8.7101   24.4815   29.2410 C   0  0  0  0  0  0  0  0  0  0  0  0
    6.3363   25.4787   24.4357 N   0  0  0  0  0  0  0  0  0  0  0  0
    3.7043   27.3095   23.4277 N   0  0  0  0  0  0  0  0  0  0  0  0
   10.6363   24.9007   26.5502 O   0  0  0  0  0  0  0  0  0  0  0  0
   11.2901   20.6205   28.4741 O   0  0  0  0  0  0  0  0  0  0  0  0
    7.6577   25.9294   28.3296 O   0  0  0  0  0  0  0  0  0  0  0  0
    5.9789   26.2673   26.5305 N   0  0  0  0  0  0  0  0  0  0  0  0
    4.9924   26.0478   21.9450 N   0  0  0  0  0  0  0  0  0  0  0  0
    9.3876   23.0150   26.5284 O   0  0  0  0  0  0  0  0  0  0  0  0
   13.0726   21.3849   27.1703 O   0  0  0  0  0  1  0  0  0  0  0  0
   10.2790   23.9231   27.2312 P   0  0  0  0  0  0  0  0  0  0  0  0
    5.3028   26.3249   24.1583 C   0  0  0  0  0  0  0  0  0  0  0  0
    4.7978   26.6383   29.8044 O   0  0  0  0  0  0  0  0  0  0  0  0
   12.4711   22.1973   29.5877 O   0  0  0  0  0  0  0  0  0  0  0  0
    5.4432   24.5516   30.3966 O   0  0  0  0  0  0  0  0  0  0  0  0
   11.4554   23.0796   27.9029 O   0  0  0  0  0  0  0  0  0  0  0  0
    9.4700   24.3469   28.3183 O   0  0  0  0  0  0  0  0  0  0  0  0
    3.4548   27.7888   24.7113 C   0  0  0  0  0  0  0  0  0  0  0  0
    5.6291   26.1688   27.8087 C   0  0  0  0  0  0  0  0  0  0  0  0
    5.1542   26.8814   25.6537 C   0  0  0  0  0  0  0  0  0  0  0  0
    5.9093   24.6423   28.8124 C   0  0  0  0  0  0  0  0  0  0  0  0
  7  3  1  0
  8  2  2  0
  9  4  1  0
 10  7  1  0
 11  6  1  0
 12  1  1  0
 13  2  1  0
 14  4  1  0
 16  6  1  0
 17 10  1  0
 17 15  1  0
 18  4  2  0
 18  8  1  0
 19  1  1  0
 20  6  1  0
 22  6  1  0
 22 17  1  0
 23  7  1  0
 24  5  1  0
 24  9  2  0
 25  1  1  0
 25 13  1  0
 26  5  2  0
 26 13  1  0
 26 18  1  0
 27  1  1  0
 27  3  1  0
 27 21  1  0
M  RAD  2   6   2  16   2
M  END
>  <ID>  (1) 
conformer_0

$$$$
