
     RDKit          3D

 27 28  0  0  0  0  0  0  0  0999 V2000
    5.6837   26.4700   27.7659 C   0  0  0  0  0  0  0  0  0  0  0  0
    6.8079   25.6157   25.7150 C   0  0  0  0  0  0  0  0  0  0  0  0
    5.3883   25.3688   28.5052 C   0  0  0  0  0  0  0  0  0  0  0  0
    6.4592   25.3063   29.3351 C   0  0  0  0  0  0  0  0  0  0  0  0
    5.5963   26.1531   23.9827 C   0  0  0  0  0  0  0  0  0  0  0  0
    4.4549   27.4782   25.6307 N   0  0  0  0  0  0  0  0  0  0  0  0
    6.6468   25.3979   24.4519 N   0  0  0  0  0  0  0  0  0  0  0  0
   12.1345   21.7871   28.3574 P   0  0  0  0  0  4  0  0  0  0  0  0
    7.4860   26.1577   28.3950 O   0  0  0  0  0  0  0  0  0  0  0  0
    3.7713   27.2046   23.3408 N   0  0  0  0  0  0  0  0  0  0  0  0
    6.0576   26.2681   26.4243 N   0  0  0  0  0  0  0  0  0  0  0  0
    4.7805   26.2986   23.0633 C   0  0  0  0  0  0  0  0  0  0  0  0
    9.3567   23.0073   26.6237 O   0  0  0  0  0  0  0  0  0  0  0  0
   10.8531   20.9096   28.4580 O   0  0  0  0  0  0  0  0  0  0  0  0
    5.0575   25.8159   21.8587 N   0  0  0  0  0  0  0  0  0  0  0  0
   11.5095   23.0698   28.0874 O   0  0  0  0  0  0  0  0  0  0  0  0
   13.1155   21.5873   27.2808 O   0  0  0  0  0  1  0  0  0  0  0  0
    4.4300   26.2653   29.4050 O   0  0  0  0  0  0  0  0  0  0  0  0
    7.5146   24.4774   29.4824 C   0  0  0  0  0  0  0  0  0  0  0  0
    5.4154   24.2224   30.0729 O   0  0  0  0  0  0  0  0  0  0  0  0
   12.4384   21.9829   29.4241 O   0  0  0  0  0  0  0  0  0  0  0  0
   10.4201   23.6638   27.5569 P   0  0  0  0  0  0  0  0  0  0  0  0
    3.3966   27.7643   24.5184 C   0  0  0  0  0  0  0  0  0  0  0  0
    9.4352   24.2374   28.5009 O   0  0  0  0  0  0  0  0  0  0  0  0
   10.9102   24.9226   26.9857 O   0  0  0  0  0  0  0  0  0  0  0  0
    5.1232   26.7563   25.3319 C   0  0  0  0  0  0  0  0  0  0  0  0
    8.9729   24.8035   29.2773 C   0  0  0  0  0  0  0  0  0  0  0  0
  3  1  1  0
  4  3  1  0
  7  2  2  0
  7  5  1  0
  9  4  1  0
 11  1  1  0
 11  2  1  0
 12  5  2  0
 12 10  1  0
 14  8  1  0
 15 12  1  0
 16  8  1  0
 17  8  1  0
 18  3  1  0
 19  4  1  0
 20  4  1  0
 21  8  1  0
 22 13  1  0
 22 16  1  0
 23  6  1  0
 23 10  2  0
 25 22  1  0
 26  5  1  0
 26  6  2  0
 26 11  1  0
 27 19  1  0
 27 24  1  0
 27 25  1  0
M  RAD  2   8   2  17   2
M  END
>  <ID>  (1) 
conformer_0

$$$$
