
     RDKit          3D

 25 27  0  0  0  0  0  0  0  0999 V2000
    5.6202   26.3435   25.0154 C   0  0  0  0  0  0  0  0  0  0  0  0
    5.7571   26.3227   28.0668 C   0  0  0  0  0  0  0  0  0  0  0  0
    5.5421   25.4121   28.7775 C   0  0  0  0  0  0  0  0  0  0  0  0
    6.7555   25.5707   25.7305 C   0  0  0  0  0  0  0  0  0  0  0  0
    4.6046   27.2973   25.6475 N   0  0  0  0  0  2  0  0  0  0  0  0
    7.6328   26.0112   28.5479 O   0  0  0  0  0  0  0  0  0  0  0  0
   11.9492   21.9987   28.4358 P   0  0  0  0  0  4  0  0  0  0  0  0
    6.8173   24.8066   29.4348 C   0  0  0  0  0  0  0  0  0  0  0  0
    9.1552   22.8084   27.0006 O   0  0  0  0  0  0  0  0  0  0  0  0
    5.1680   25.7095   21.9569 N   0  0  0  0  0  0  0  0  0  0  0  0
    6.2637   26.1379   26.4534 N   0  0  0  0  0  0  0  0  0  0  0  0
    6.8116   25.5185   24.4752 N   0  0  0  0  0  0  0  0  0  0  0  0
    9.8166   24.1122   28.5626 O   0  0  0  0  0  0  0  0  0  0  0  0
    3.9130   27.3870   24.4513 C   0  0  0  0  0  0  0  0  0  0  0  0
   12.0028   21.9090   27.4500 O   0  0  0  0  0  1  0  0  0  0  0  0
   12.7739   22.4660   29.2604 O   0  0  0  0  0  0  0  0  0  0  0  0
    4.0685   27.1154   23.4461 N   0  0  0  0  0  0  0  0  0  0  0  0
    5.0393   24.5134   30.1289 O   0  0  0  0  0  0  0  0  0  0  0  0
    4.3414   26.7190   29.2460 O   0  0  0  0  0  0  0  0  0  0  0  0
   10.6650   21.3038   28.8092 O   0  0  0  0  0  0  0  0  0  0  0  0
   10.9329   24.3364   26.9430 O   0  0  0  0  0  0  0  0  0  0  0  0
    8.5237   24.7274   29.6005 C   0  0  0  0  0  0  0  0  0  0  0  0
    5.3218   26.1539   23.4923 C   0  0  0  0  0  0  0  0  0  0  0  0
    6.9847   23.2673   29.8620 O   0  0  0  0  0  0  0  0  0  0  0  0
   10.2204   23.6917   27.6431 P   0  0  0  0  0  0  0  0  0  0  0  0
  3  2  1  0
  4  1  1  0
  5  1  1  0
  8  3  1  0
  8  6  1  0
 11  2  1  0
 11  4  1  0
 12  1  1  0
 12  4  1  0
 14  5  1  0
 15  7  1  0
 16  7  1  0
 17 14  2  0
 18  3  1  0
 19  3  1  0
 20  7  1  0
 21  7  1  0
 22  8  1  0
 22 13  1  0
 23  1  1  0
 23 10  1  0
 23 12  1  0
 23 17  1  0
 24  8  1  0
 25  9  1  0
 25 13  1  0
 25 21  1  0
M  RAD  3   5   2   7   2  15   2
M  END
>  <ID>  (1) 
conformer_0

$$$$
