
     RDKit          3D

 27 29  0  0  0  0  0  0  0  0999 V2000
    6.9255   24.1001   29.3075 C   0  0  0  0  0  0  0  0  0  0  0  0
    4.8939   26.3372   22.9426 C   0  0  0  0  0  0  0  0  0  0  0  0
    8.5406   24.5427   29.3772 C   0  0  0  0  0  0  0  0  0  0  0  0
    6.7920   25.5671   25.7373 C   0  0  0  0  0  0  0  0  0  0  0  0
    4.6671   27.4122   25.3293 N   0  0  0  0  0  0  0  0  0  0  0  0
   10.5275   24.8103   26.5005 O   0  0  0  0  0  0  0  0  0  0  0  0
    6.5320   25.4777   24.3926 N   0  0  0  0  0  0  0  0  0  0  0  0
    7.5884   26.1131   28.5041 O   0  0  0  0  0  0  0  0  0  0  0  0
   11.8731   21.7841   28.6286 P   0  0  0  0  0  4  0  0  0  0  0  0
    5.4642   25.2020   28.4623 C   0  0  0  0  0  0  0  0  0  0  0  0
    6.1315   26.1602   26.3822 N   0  0  0  0  0  0  0  0  0  0  0  0
   10.8526   20.9362   28.7922 O   0  0  0  0  0  0  0  0  0  0  0  0
    5.6094   26.1057   23.9265 C   0  0  0  0  0  0  0  0  0  0  0  0
    5.2766   26.0319   21.6680 N   0  0  0  0  0  0  0  0  0  0  0  0
   12.7363   21.3178   27.4285 O   0  0  0  0  0  1  0  0  0  0  0  0
   10.0734   24.0354   27.3874 P   0  0  0  0  0  0  0  0  0  0  0  0
    4.6364   26.4961   29.4232 O   0  0  0  0  0  0  0  0  0  0  0  0
    3.8192   27.1509   23.0770 N   0  0  0  0  0  0  0  0  0  0  0  0
   12.4523   22.0978   29.8597 O   0  0  0  0  0  0  0  0  0  0  0  0
    5.2979   24.2962   30.1825 O   0  0  0  0  0  0  0  0  0  0  0  0
    9.2791   22.6204   27.2838 O   0  0  0  0  0  0  0  0  0  0  0  0
    9.2600   24.4600   28.2619 O   0  0  0  0  0  0  0  0  0  0  0  0
   11.2644   23.2099   27.9875 O   0  0  0  0  0  0  0  0  0  0  0  0
    5.8003   26.5980   27.8571 C   0  0  0  0  0  0  0  0  0  0  0  0
    3.4747   27.6615   24.3275 C   0  0  0  0  0  0  0  0  0  0  0  0
    5.2804   26.7174   25.2788 C   0  0  0  0  0  0  0  0  0  0  0  0
    6.5880   25.6449   29.3753 C   0  0  0  0  0  0  0  0  0  0  0  0
  3  1  1  0
  6  3  1  0
  7  4  2  0
 11  4  1  0
 12  9  1  0
 13  2  2  0
 13  7  1  0
 14  2  1  0
 15  9  1  0
 16  6  1  0
 17 10  1  0
 18  2  1  0
 19  9  1  0
 20  1  1  0
 21 16  1  0
 22  3  1  0
 23  9  1  0
 23 16  1  0
 24 10  1  0
 24 11  1  0
 25  5  1  0
 25 18  2  0
 26  5  2  0
 26 11  1  0
 26 13  1  0
 27  1  1  0
 27  8  1  0
 27 10  1  0
 27 24  1  0
M  RAD  2   9   2  15   2
M  END
>  <ID>  (1) 
conformer_0

$$$$
