
     RDKit          3D

 24 27  0  0  0  0  0  0  0  0999 V2000
    5.3190   26.2777   23.4959 C   0  0  0  0  0  0  0  0  0  0  0  0
    5.5399   25.3686   29.0205 C   0  0  0  0  0  0  0  0  0  0  0  0
    6.6485   24.6423   29.3712 C   0  0  0  0  0  0  0  0  0  0  0  0
    6.7036   25.6381   25.6628 C   0  0  0  0  0  0  0  0  0  0  0  0
    4.5658   27.3561   25.7948 N   0  0  0  0  0  2  0  0  0  0  0  0
   10.3728   21.1971   28.5540 O   0  0  0  0  0  0  0  0  0  0  0  0
   11.6104   21.8652   28.2268 P   0  0  0  0  0  5  0  0  0  0  0  0
    6.2083   26.1935   26.4760 N   0  0  0  0  0  0  0  0  0  0  0  0
   10.7737   25.2699   26.5736 O   0  0  0  0  0  0  0  0  0  0  0  0
   12.4903   21.1438   27.2475 O   0  0  0  0  0  0  0  0  0  0  0  0
    7.3941   26.1804   28.1518 O   0  0  0  0  0  0  0  0  0  0  0  0
    9.3587   23.1977   26.4550 O   0  0  0  0  0  0  0  0  0  0  0  0
    6.5713   25.3634   24.4196 N   0  0  0  0  0  0  0  0  0  0  0  0
    5.1956   26.2028   21.9953 N   0  0  0  0  0  0  0  0  0  0  0  0
    8.0475   24.9526   29.2553 C   0  0  0  0  0  0  0  0  0  0  0  0
    4.0031   27.3818   24.6979 C   0  0  0  0  0  0  0  0  0  0  0  0
    4.5230   25.3456   29.7966 O   0  0  0  0  0  0  0  0  0  0  0  0
   12.1841   22.3867   29.3773 O   0  0  0  0  0  0  0  0  0  0  0  0
   10.1973   24.2028   27.2774 P   0  0  0  0  0  0  0  0  0  0  0  0
    4.1057   27.1821   23.7012 N   0  0  0  0  0  0  0  0  0  0  0  0
    9.2649   24.5530   28.1401 O   0  0  0  0  0  0  0  0  0  0  0  0
   11.2806   23.3358   27.7684 O   0  0  0  0  0  0  0  0  0  0  0  0
    5.6477   26.4501   25.2653 C   0  0  0  0  0  0  0  0  0  0  0  0
    5.8599   26.1516   28.0306 C   0  0  0  0  0  0  0  0  0  0  0  0
  3  2  1  0
  7  6  1  0
  8  4  1  0
  9  7  1  0
 10  7  1  0
 13  1  1  0
 13  4  1  0
 14  1  1  0
 15  3  1  0
 15 11  1  0
 16  5  1  0
 17  2  1  0
 18  7  1  0
 19  9  1  0
 19 12  1  0
 20  1  1  0
 20 16  2  0
 21 15  1  0
 21 19  1  0
 22  7  1  0
 23  4  1  0
 23  5  1  0
 23  8  1  0
 23 13  1  0
 24  2  1  0
 24  8  1  0
 24 11  1  0
M  RAD  1   5   2
M  END
>  <ID>  (1) 
conformer_0

$$$$
