
     RDKit          3D

 22 23  0  0  0  0  0  0  0  0999 V2000
    6.3839   25.1481   29.0383 C   0  0  0  0  0  0  0  0  0  0  0  0
    5.0886   26.1906   23.5330 C   0  0  0  0  0  0  0  0  0  0  0  0
    5.8382   25.6765   28.3695 C   0  0  0  0  0  0  0  0  0  0  0  0
    4.7707   27.1537   25.7507 N   0  0  0  0  0  0  0  0  0  0  0  0
    6.1809   25.9817   25.5810 C   0  0  0  0  0  3  0  0  0  0  0  0
   11.7508   21.8822   28.4814 P   0  0  0  0  0  5  0  0  0  0  0  0
    4.9841   25.8577   22.0552 N   0  0  0  0  0  0  0  0  0  0  0  0
    3.8339   27.1956   23.4914 N   0  0  0  0  0  0  0  0  0  0  0  0
    8.1232   24.7369   29.2460 C   0  0  0  0  0  0  0  0  0  0  0  0
   10.8355   23.9563   28.1010 O   0  0  0  0  0  0  0  0  0  0  0  0
   10.8695   20.9995   28.6498 O   0  0  0  0  0  0  0  0  0  0  0  0
    8.3069   25.6182   28.1562 O   0  0  0  0  0  0  0  0  0  0  0  0
    6.3631   26.0588   26.5158 N   0  0  0  0  0  0  0  0  0  0  0  0
   12.5917   21.6448   27.4148 O   0  0  0  0  0  0  0  0  0  0  0  0
    5.0254   26.6038   29.8259 O   0  0  0  0  0  0  0  0  0  0  0  0
    9.4678   22.6258   27.2004 O   0  0  0  0  0  0  0  0  0  0  0  0
    4.3069   27.1781   24.7289 C   0  0  0  0  0  0  0  0  0  0  0  0
   10.3099   24.2211   27.1900 P   0  0  0  0  0  0  0  0  0  0  0  0
   10.2744   24.7512   26.2039 O   0  0  0  0  0  0  0  0  0  0  0  0
    5.1924   24.3109   29.8576 O   0  0  0  0  0  0  0  0  0  0  0  0
   12.3396   22.2018   29.6562 O   0  0  0  0  0  0  0  0  0  0  0  0
    5.8874   25.4657   23.7787 C   0  0  0  0  0  0  0  0  0  0  0  0
  3  1  1  0
  5  4  1  0
  7  2  1  0
  8  2  1  0
  9  1  1  0
 10  6  1  0
 11  6  1  0
 12  9  1  0
 13  3  1  0
 13  5  1  0
 14  6  1  0
 15  3  1  0
 17  2  1  0
 17  4  2  0
 17  8  1  0
 18  9  1  0
 18 10  1  0
 18 16  1  0
 19  6  1  0
 20  1  1  0
 21  6  1  0
 22  2  1  0
 22  5  1  0
M  RAD  1   5   2
M  END
>  <ID>  (1) 
conformer_0

$$$$
