
     RDKit          3D

 25 27  0  0  0  0  0  0  0  0999 V2000
    5.0518   26.1863   23.2272 C   0  0  0  0  0  0  0  0  0  0  0  0
    5.6954   25.5099   28.9070 C   0  0  0  0  0  0  0  0  0  0  0  0
    6.7225   24.9743   29.5443 C   0  0  0  0  0  0  0  0  0  0  0  0
    4.0284   27.1481   23.1950 N   0  0  0  0  0  0  0  0  0  0  0  0
    5.4782   26.3561   24.7207 C   0  0  0  0  0  0  0  0  0  0  0  0
    6.4118   25.4411   24.3810 N   0  0  0  0  0  0  0  0  0  0  0  0
   11.6653   21.7571   28.5330 P   0  0  0  0  0  5  0  0  0  0  0  0
   10.7721   22.8512   28.6435 O   0  0  0  0  0  0  0  0  0  0  0  0
    5.8201   26.2942   28.0501 C   0  0  0  0  0  0  0  0  0  0  0  0
    7.6605   26.1003   28.3183 O   0  0  0  0  0  0  0  0  0  0  0  0
    5.0717   25.6163   21.8614 N   0  0  0  0  0  0  0  0  0  0  0  0
    6.2866   26.0328   26.3185 N   0  0  0  0  0  0  0  0  0  0  0  0
   12.6085   22.3780   29.5744 O   0  0  0  0  0  0  0  0  0  0  0  0
   12.3639   21.7007   27.1892 O   0  0  0  0  0  0  0  0  0  0  0  0
    4.6756   27.2927   25.4096 N   0  0  0  0  0  0  0  0  0  0  0  0
    3.7561   27.5404   24.3995 C   0  0  0  0  0  0  0  0  0  0  0  0
    9.1101   22.3914   27.4696 O   0  0  0  0  0  0  0  0  0  0  0  0
    5.2274   26.6928   30.2248 O   0  0  0  0  0  0  0  0  0  0  0  0
   10.7226   24.5569   26.7107 O   0  0  0  0  0  0  0  0  0  0  0  0
   11.3535   20.7268   28.7119 O   0  0  0  0  0  0  0  0  0  0  0  0
   10.0963   23.8040   27.6809 P   0  0  0  0  0  0  0  0  0  0  0  0
    8.2997   25.0406   29.4141 C   0  0  0  0  0  0  0  0  0  0  0  0
    4.2268   26.7714   28.4169 O   0  0  0  0  0  0  0  0  0  0  0  0
    6.5652   25.5684   25.6594 C   0  0  0  0  0  0  0  0  0  0  0  0
    9.3551   24.5898   28.5038 O   0  0  0  0  0  0  0  0  0  0  0  0
  3  2  1  0
  4  1  2  0
  5  1  1  0
  6  5  1  0
  8  7  1  0
  9  2  1  0
 10  9  1  0
 11  1  1  0
 12  9  1  0
 13  7  1  0
 14  7  1  0
 15  5  1  0
 16  4  1  0
 16 15  2  0
 18  2  1  0
 19  7  1  0
 20  7  1  0
 21 17  1  0
 21 19  1  0
 22  3  1  0
 22 10  1  0
 23  9  1  0
 24  5  1  0
 24  6  2  0
 24 12  1  0
 25 21  1  0
 25 22  1  0
M  END
>  <ID>  (1) 
conformer_0

$$$$
