
     RDKit          3D

 27 28  0  0  0  0  0  0  0  0999 V2000
    6.6877   24.7591   29.4440 C   0  0  0  0  0  0  0  0  0  0  0  0
    6.6295   25.2314   25.6629 C   0  0  0  0  0  0  0  0  0  0  0  0
    8.1210   24.9230   29.2973 C   0  0  0  0  0  0  0  0  0  0  0  0
    5.7182   26.0279   23.9952 C   0  0  0  0  0  0  0  0  0  0  0  0
    4.4959   27.3507   25.4575 N   0  0  0  0  0  0  0  0  0  0  0  0
    6.5725   25.1869   24.3845 N   0  0  0  0  0  0  0  0  0  0  0  0
   11.7705   22.0504   28.5539 P   0  0  0  0  0  7  0  0  0  0  0  0
    7.2494   26.4145   28.4114 O   0  0  0  0  0  0  0  0  0  0  0  0
    5.9144   26.0163   26.3657 N   0  0  0  0  0  0  0  0  0  0  0  0
   10.7176   20.9243   28.6714 O   0  0  0  0  0  0  0  0  0  0  0  0
    8.9991   24.8201   28.2938 O   0  0  0  0  0  0  0  0  0  0  0  0
    5.5532   25.2846   28.8375 C   0  0  0  0  0  0  0  0  0  0  0  0
    4.9268   26.3204   23.0793 C   0  0  0  0  0  0  0  0  0  0  0  0
    9.3241   23.0129   26.9372 O   0  0  0  0  0  0  0  0  0  0  0  0
    5.4761   26.0685   21.7772 N   0  0  0  0  0  0  0  0  0  0  0  0
   13.0788   22.9780   28.8465 O   0  0  0  0  0  0  0  0  0  0  0  0
    4.2217   26.0316   29.4526 O   0  0  0  0  0  0  0  0  0  0  0  0
   12.2632   21.8162   27.3509 O   0  0  0  0  0  0  0  0  0  0  0  0
    3.9629   27.1839   23.1476 N   0  0  0  0  0  0  0  0  0  0  0  0
   10.2712   24.0744   27.5129 P   0  0  0  0  0  0  0  0  0  0  0  0
    5.4772   24.0979   30.2593 O   0  0  0  0  0  0  0  0  0  0  0  0
   10.8603   24.8494   26.4757 O   0  0  0  0  0  0  0  0  0  0  0  0
   10.7325   23.5753   28.3207 O   0  0  0  0  0  0  0  0  0  0  0  0
    5.6883   26.1183   27.9912 C   0  0  0  0  0  0  0  0  0  0  0  0
    3.6697   27.7010   24.4314 C   0  0  0  0  0  0  0  0  0  0  0  0
    5.2197   26.5583   25.4295 C   0  0  0  0  0  0  0  0  0  0  0  0
   11.4519   22.1326   30.0585 O   0  0  0  0  0  0  0  0  0  0  0  0
  3  1  1  0
  6  2  2  0
  6  4  1  0
  9  2  1  0
 10  7  1  0
 11  3  1  0
 12  1  1  0
 13  4  2  0
 15 13  1  0
 16  7  1  0
 17 12  1  0
 18  7  1  0
 19 13  1  0
 20 11  1  0
 20 14  1  0
 21  1  1  0
 22  7  1  0
 23  7  1  0
 23 20  1  0
 24  8  1  0
 24  9  1  0
 24 12  1  0
 25  5  1  0
 25 19  2  0
 26  4  1  0
 26  5  2  0
 26  9  1  0
 27  7  1  0
M  END
>  <ID>  (1) 
conformer_0

$$$$
