
     RDKit          3D

 27 29  0  0  0  0  0  0  0  0999 V2000
    4.7715   26.4033   23.2215 C   0  0  0  0  0  0  0  0  0  0  0  0
    5.4388   24.9482   28.9620 C   0  0  0  0  0  0  0  0  0  0  0  0
    7.3536   24.1031   29.7587 C   0  0  0  0  0  0  0  0  0  0  0  0
    7.0091   25.4025   25.9633 C   0  0  0  0  0  0  0  0  0  0  0  0
    3.7639   27.2214   23.4393 N   0  0  0  0  0  0  0  0  0  0  0  0
    6.6940   25.5431   24.5665 N   0  0  0  0  0  0  0  0  0  0  0  0
   11.8993   21.6725   28.2023 P   0  0  0  0  0  4  0  0  0  0  0  0
   10.5974   24.9456   26.2365 O   0  0  0  0  0  0  0  0  0  0  0  0
   10.7882   20.9623   28.5956 O   0  0  0  0  0  0  0  0  0  0  0  0
    5.5621   26.0730   24.2502 C   0  0  0  0  0  0  0  0  0  0  0  0
    7.5655   26.0882   28.7119 O   0  0  0  0  0  0  0  0  0  0  0  0
    5.0394   25.8779   21.9618 N   0  0  0  0  0  0  0  0  0  0  0  0
   12.8792   21.1696   27.1968 O   0  0  0  0  0  1  0  0  0  0  0  0
    9.3552   22.9742   26.6592 O   0  0  0  0  0  0  0  0  0  0  0  0
    6.1655   25.8757   26.6229 N   0  0  0  0  0  0  0  0  0  0  0  0
    8.9026   24.5604   29.4174 C   0  0  0  0  0  0  0  0  0  0  0  0
    4.4069   26.1071   29.3676 O   0  0  0  0  0  0  0  0  0  0  0  0
   10.1703   24.0403   27.0743 P   0  0  0  0  0  0  0  0  0  0  0  0
    4.5663   27.2380   25.6985 N   0  0  0  0  0  0  0  0  0  0  0  0
   12.4330   22.1444   29.2316 O   0  0  0  0  0  0  0  0  0  0  0  0
    5.4925   24.2971   30.3809 O   0  0  0  0  0  0  0  0  0  0  0  0
    9.2388   24.6386   28.0994 O   0  0  0  0  0  0  0  0  0  0  0  0
    3.4553   27.6874   24.6987 C   0  0  0  0  0  0  0  0  0  0  0  0
    6.8689   25.5135   29.1140 C   0  0  0  0  0  0  0  0  0  0  0  0
   11.2780   23.4215   27.6406 O   0  0  0  0  0  0  0  0  0  0  0  0
    5.2326   26.4478   25.5874 C   0  0  0  0  0  0  0  0  0  0  0  0
    5.5792   26.1296   27.9600 C   0  0  0  0  0  0  0  0  0  0  0  0
  5  1  2  0
  6  4  2  0
  9  7  1  0
 10  1  1  0
 10  6  1  0
 12  1  1  0
 13  7  1  0
 15  4  1  0
 16  3  1  0
 16  8  1  0
 17  2  1  0
 18  8  1  0
 18 14  1  0
 20  7  1  0
 21  2  1  0
 22 16  1  0
 23  5  1  0
 23 19  2  0
 24  2  1  0
 24  3  1  0
 24 11  1  0
 25  7  1  0
 25 18  1  0
 26 10  2  0
 26 15  1  0
 26 19  1  0
 27  2  1  0
 27 15  1  0
 27 24  1  0
M  RAD  2   7   2  13   2
M  END
>  <ID>  (1) 
conformer_0

$$$$
