
     RDKit          3D

 26 28  0  0  0  0  0  0  0  0999 V2000
    5.1596   26.2050   23.2855 C   0  0  0  0  0  0  0  0  0  0  0  0
    6.6911   24.3998   29.1877 C   0  0  2  0  0  0  0  0  0  0  0  0
    8.5632   24.7346   29.3441 C   0  0  2  0  0  0  0  0  0  0  0  0
    6.3671   25.6406   25.5777 C   0  0  0  0  0  0  0  0  0  0  0  0
    3.8266   27.1471   23.1120 N   0  0  0  0  0  0  0  0  0  0  0  0
    6.5779   25.2362   24.4275 N   0  0  0  0  0  0  0  0  0  0  0  0
   11.8336   21.7297   28.5406 P   0  0  0  0  0  4  0  0  0  0  0  0
   12.6920   20.9684   27.4583 O   0  0  0  0  0  1  0  0  0  0  0  0
   10.4637   21.3362   28.6270 O   0  0  0  0  0  0  0  0  0  0  0  0
   11.5232   23.4167   27.9921 O   0  0  0  0  0  0  0  0  0  0  0  0
    6.8663   25.8789   29.3447 C   0  0  1  0  0  0  0  0  0  0  0  0
    5.3583   26.0019   21.9031 N   0  0  0  0  0  0  0  0  0  0  0  0
    9.7452   24.7026   28.3199 O   0  0  0  0  0  0  0  0  0  0  0  0
   10.2032   24.3333   27.2427 P   0  0  0  0  0  0  0  0  0  0  0  0
    5.2806   26.2989   24.7400 C   0  0  1  0  0  0  0  0  0  0  0  0
    9.4031   23.0012   26.6816 O   0  0  0  0  0  0  0  0  0  0  0  0
    5.8430   26.0272   26.4051 N   0  0  0  0  0  0  0  0  0  0  0  0
    4.6018   26.6953   29.4680 O   0  0  0  0  0  0  0  0  0  0  0  0
   10.3375   25.0130   26.1373 O   0  0  0  0  0  0  0  0  0  0  0  0
    5.6967   24.6632   30.3870 O   0  0  0  0  0  0  0  0  0  0  0  0
    4.4583   27.3662   25.2324 N   0  0  0  0  0  0  0  0  0  0  0  0
   12.3234   21.7680   29.8191 O   0  0  0  0  0  0  0  0  0  0  0  0
    5.6274   26.3439   27.7929 C   0  0  0  0  0  0  0  0  0  0  0  0
    3.8000   27.5039   24.6500 C   0  0  0  0  0  0  0  0  0  0  0  0
    7.8672   25.9916   28.2578 O   0  0  0  0  0  0  0  0  0  0  0  0
    5.2152   25.5780   28.7085 C   0  0  2  0  0  0  0  0  0  0  0  0
  3  2  1  0
  5  1  2  0
  6  4  2  3
  8  7  1  0
  9  7  1  0
 10  7  1  0
 11  2  1  0
 12  1  1  0
 13  3  1  0
 14 10  1  0
 14 13  1  0
 15  1  1  0
 15  4  1  6
 16 14  1  0
 17  4  1  0
  3 19  1  6
  2 20  1  1
 21 15  1  0
 22  7  1  0
 23 17  1  0
 24  5  1  0
 24 21  2  0
 25  3  1  0
 11 25  1  6
 26  2  1  0
 26 11  1  0
 26 18  1  1
 26 23  1  0
M  RAD  2   7   2   8   2
M  END
>  <ID>  (1) 
conformer_0

$$$$
