
     RDKit          3D

 24 26  0  0  0  0  0  0  0  0999 V2000
    8.2056   24.5655   29.4805 C   0  0  2  0  0  0  0  0  0  0  0  0
    6.5249   25.7683   25.5951 C   0  0  0  0  0  0  0  0  0  0  0  0
    6.7090   24.7157   29.3969 C   0  0  1  0  0  0  0  0  0  0  0  0
    5.5705   26.4811   24.7036 C   0  0  1  0  0  0  0  0  0  0  0  0
    4.6881   27.4434   25.5824 N   0  0  0  0  0  2  0  0  0  0  0  0
   10.0540   23.7941   28.5879 O   0  0  0  0  0  0  0  0  0  0  0  0
   11.4444   21.8257   28.7308 P   0  0  0  0  0  5  0  0  0  0  0  0
    6.4795   25.2709   24.3840 N   0  0  0  0  0  0  0  0  0  0  0  0
    7.6542   25.7550   28.3539 O   0  0  0  0  0  0  0  0  0  0  0  0
    6.3043   26.2166   26.4023 N   0  0  0  0  0  0  0  0  0  0  0  0
   10.4642   20.8893   28.8004 O   0  0  0  0  0  0  0  0  0  0  0  0
   12.2057   21.9448   27.6756 O   0  0  0  0  0  0  0  0  0  0  0  0
    5.5858   25.2340   28.8402 C   0  0  1  0  0  0  0  0  0  0  0  0
    9.4912   23.0535   26.6632 O   0  0  0  0  0  0  0  0  0  0  0  0
    5.3327   26.1000   21.8311 N   0  0  0  0  0  0  0  0  0  0  0  0
    3.9465   27.5188   24.4989 C   0  0  0  0  0  0  0  0  0  0  0  0
    3.9399   27.2265   23.3134 N   0  0  0  0  0  0  0  0  0  0  0  0
    5.6399   24.3052   30.6697 O   0  0  0  0  0  0  0  0  0  0  0  0
   11.9964   22.2456   29.9783 O   0  0  0  0  0  0  0  0  0  0  0  0
   10.7421   24.9566   26.9112 O   0  0  0  0  0  0  0  0  0  0  0  0
   10.2707   24.0931   27.4925 P   0  0  0  0  0  0  0  0  0  0  0  0
    4.4815   26.1427   29.5425 O   0  0  0  0  0  0  0  0  0  0  0  0
    5.7986   26.1481   27.9835 C   0  0  0  0  0  0  0  0  0  0  0  0
    5.1751   26.2749   23.2406 C   0  0  2  0  0  0  0  0  0  0  0  0
  3  1  1  0
  4  2  1  0
  4  5  1  1
  7  6  1  0
  8  2  2  0
  8  4  1  0
  9  1  1  0
  9  3  1  0
 10  2  1  0
 11  7  1  0
 12  7  1  0
 13  3  1  0
 16  5  1  0
 17 16  2  0
  3 18  1  1
 19  7  1  0
 20  7  1  0
  1 21  1  6
 21 14  1  0
 21 20  1  0
 13 22  1  1
 23 10  2  3
 23 13  1  0
 24  4  1  0
 24 15  1  6
 24 17  1  0
M  RAD  1   5   2
M  END
>  <ID>  (1) 
conformer_0

$$$$
