
     RDKit          3D

 26 28  0  0  0  0  0  0  0  0999 V2000
    5.9688   25.8310   28.1828 C   0  0  0  0  0  0  0  0  0  0  0  0
    6.9896   25.5150   25.7350 C   0  0  0  0  0  0  0  0  0  0  0  0
    5.8993   24.9981   28.8908 C   0  0  0  0  0  0  0  0  0  0  0  0
    4.9058   26.7520   23.3166 C   0  0  0  0  0  0  0  0  0  0  0  0
    4.3934   27.4743   25.7379 N   0  0  0  0  0  0  0  0  0  0  0  0
   11.7981   21.5809   28.4106 P   0  0  0  0  0  4  0  0  0  0  0  0
    6.6322   25.7130   24.4522 N   0  0  0  0  0  0  0  0  0  0  0  0
    6.1966   26.0353   26.4606 N   0  0  0  0  0  0  0  0  0  0  0  0
   11.4796   23.1119   27.8450 O   0  0  0  0  0  0  0  0  0  0  0  0
   10.4468   21.0840   28.4967 O   0  0  0  0  0  0  0  0  0  0  0  0
    7.6412   26.1087   28.5944 O   0  0  0  0  0  0  0  0  0  0  0  0
    7.2253   24.4782   29.2313 C   0  0  0  0  0  0  0  0  0  0  0  0
    5.3135   26.3827   22.1694 N   0  0  0  0  0  0  0  0  0  0  0  0
   12.9125   21.2608   27.3616 O   0  0  0  0  0  1  0  0  0  0  0  0
    3.6790   27.4600   23.5205 N   0  0  0  0  0  0  0  0  0  0  0  0
    5.5099   26.3161   24.2997 C   0  0  0  0  0  0  0  0  0  0  0  0
    4.6289   26.0656   29.5418 O   0  0  0  0  0  0  0  0  0  0  0  0
   10.2844   23.9432   27.2355 P   0  0  0  0  0  0  0  0  0  0  0  0
    9.3698   22.9596   26.6304 O   0  0  0  0  0  0  0  0  0  0  0  0
    5.5049   23.9281   30.0569 O   0  0  0  0  0  0  0  0  0  0  0  0
    9.3795   24.4156   28.1268 O   0  0  0  0  0  0  0  0  0  0  0  0
    3.3970   27.7524   24.7916 C   0  0  0  0  0  0  0  0  0  0  0  0
   11.9856   21.5254   29.5870 O   0  0  0  0  0  0  0  0  0  0  0  0
    8.5889   24.5532   29.1113 C   0  0  0  0  0  0  0  0  0  0  0  0
   10.7080   24.8202   26.5600 O   0  0  0  0  0  0  0  0  0  0  0  0
    5.3281   26.7930   25.6421 C   0  0  0  0  0  0  0  0  0  0  0  0
  3  1  1  0
  7  2  2  0
  8  1  1  0
  8  2  1  0
  9  6  1  0
 10  6  1  0
 11  1  1  0
 12  3  1  0
 12 11  1  0
 13  4  1  0
 14  6  1  0
 15  4  1  0
 16  4  2  0
 16  7  1  0
 17  3  1  0
 18  9  1  0
 19 18  1  0
 20  3  1  0
 22  5  1  0
 22 15  2  0
 23  6  1  0
 24 12  1  0
 24 21  1  0
 25 18  1  0
 25 24  1  0
 26  5  2  0
 26  8  1  0
 26 16  1  0
M  RAD  2   6   2  14   2
M  END
>  <ID>  (1) 
conformer_0

$$$$
