
     RDKit          3D

 26 28  0  0  0  0  0  0  0  0999 V2000
    4.9763   26.3907   23.1307 C   0  0  0  0  0  0  0  0  0  0  0  0
    5.2838   25.5708   28.7950 C   0  0  0  0  0  0  0  0  0  0  0  0
    5.8765   26.2753   27.9678 C   0  0  0  0  0  0  0  0  0  0  0  0
    6.9528   25.4623   25.7573 C   0  0  0  0  0  0  0  0  0  0  0  0
    4.4869   27.4604   25.5455 N   0  0  0  0  0  0  0  0  0  0  0  0
    6.1231   26.2432   26.3380 N   0  0  0  0  0  0  0  0  0  0  0  0
   12.0702   21.6986   28.5061 P   0  0  0  0  0  4  0  0  0  0  0  0
   12.8925   21.0098   27.3409 O   0  0  0  0  0  1  0  0  0  0  0  0
    6.6312   25.3525   24.2243 N   0  0  0  0  0  0  0  0  0  0  0  0
    9.6275   23.0168   26.7543 O   0  0  0  0  0  0  0  0  0  0  0  0
    5.2504   26.1619   21.8794 N   0  0  0  0  0  0  0  0  0  0  0  0
   10.9594   21.0367   28.7294 O   0  0  0  0  0  0  0  0  0  0  0  0
   11.5853   23.4773   28.1711 O   0  0  0  0  0  0  0  0  0  0  0  0
    9.4607   24.3513   28.4573 O   0  0  0  0  0  0  0  0  0  0  0  0
    6.3708   24.8469   29.3665 C   0  0  0  0  0  0  0  0  0  0  0  0
   10.2088   24.0917   27.5986 P   0  0  0  0  0  0  0  0  0  0  0  0
    5.6538   26.2175   24.2121 C   0  0  0  0  0  0  0  0  0  0  0  0
    5.1670   24.7567   30.5179 O   0  0  0  0  0  0  0  0  0  0  0  0
   12.8102   22.0913   29.5616 O   0  0  0  0  0  0  0  0  0  0  0  0
    3.8597   27.2235   23.3653 N   0  0  0  0  0  0  0  0  0  0  0  0
    7.6296   25.6867   28.0436 O   0  0  0  0  0  0  0  0  0  0  0  0
   10.7908   25.1747   26.8065 O   0  0  0  0  0  0  0  0  0  0  0  0
    3.6210   27.6360   24.5808 C   0  0  0  0  0  0  0  0  0  0  0  0
    7.8932   24.5292   29.2652 C   0  0  0  0  0  0  0  0  0  0  0  0
    4.4165   26.4751   29.6760 O   0  0  0  0  0  0  0  0  0  0  0  0
    5.4690   26.6787   25.5440 C   0  0  0  0  0  0  0  0  0  0  0  0
  3  2  1  0
  6  3  1  0
  6  4  1  0
  8  7  1  0
  9  4  2  0
 11  1  1  0
 12  7  1  0
 13  7  1  0
 15  2  1  0
 16 10  1  0
 16 13  1  0
 16 14  1  0
 17  1  2  0
 17  9  1  0
 18 15  1  0
 19  7  1  0
 20  1  1  0
 21  3  1  0
 23  5  1  0
 23 20  2  0
 24 14  1  0
 24 15  1  0
 24 21  1  0
 24 22  1  0
 25  2  1  0
 26  5  2  0
 26  6  1  0
 26 17  1  0
M  RAD  2   7   2   8   2
M  END
>  <ID>  (1) 
conformer_0

$$$$
