
     RDKit          3D

 26 27  0  0  0  0  0  0  0  0999 V2000
    5.5328   25.6732   29.0165 C   0  0  0  0  0  0  0  0  0  0  0  0
    6.5893   25.6549   25.5106 C   0  0  0  0  0  0  0  0  0  0  0  0
    5.4502   26.3507   27.9975 C   0  0  0  0  0  0  0  0  0  0  0  0
    3.3948   27.6192   24.6507 C   0  0  0  0  0  0  0  0  0  0  0  0
    6.4936   25.4902   24.5397 N   0  0  0  0  0  0  0  0  0  0  0  0
    7.2789   25.9934   28.2700 O   0  0  0  0  0  0  0  0  0  0  0  0
    6.6219   24.8294   29.1645 C   0  0  0  0  0  0  0  0  0  0  0  0
   11.7331   21.9344   28.2519 P   0  0  0  0  0  5  0  0  0  0  0  0
   10.3512   21.2413   28.4895 O   0  0  0  0  0  0  0  0  0  0  0  0
   11.4500   23.5068   28.2210 O   0  0  0  0  0  0  0  0  0  0  0  0
    3.8869   27.1245   23.3436 N   0  0  0  0  0  0  0  0  0  0  0  0
    5.0780   25.7523   21.9284 N   0  0  0  0  0  0  0  0  0  0  0  0
   12.6500   21.5231   27.2140 O   0  0  0  0  0  0  0  0  0  0  0  0
    4.9215   26.1676   23.0233 C   0  0  0  0  0  0  0  0  0  0  0  0
    4.3494   26.1209   29.9837 O   0  0  0  0  0  0  0  0  0  0  0  0
    9.4192   22.7771   26.9140 O   0  0  0  0  0  0  0  0  0  0  0  0
    5.5283   26.4505   26.5530 N   0  0  0  0  0  0  0  0  0  0  0  0
    5.7548   24.0444   30.3055 O   0  0  0  0  0  0  0  0  0  0  0  0
    9.3617   24.5042   28.4736 O   0  0  0  0  0  0  0  0  0  0  0  0
    4.1621   27.5142   25.6989 N   0  0  0  0  0  0  0  0  0  0  0  0
   10.7386   25.0387   26.7308 O   0  0  0  0  0  0  0  0  0  0  0  0
    8.0506   24.4330   29.4293 C   0  0  0  0  0  0  0  0  0  0  0  0
   10.3578   24.0899   27.7601 P   0  0  0  0  0  0  0  0  0  0  0  0
   12.1035   21.7813   29.3887 O   0  0  0  0  0  0  0  0  0  0  0  0
    5.3640   26.2569   24.2707 C   0  0  0  0  0  0  0  0  0  0  0  0
    4.8064   26.8477   25.9126 C   0  0  0  0  0  0  0  0  0  0  0  0
  3  1  1  0
  5  2  2  0
  7  1  1  0
  7  6  1  0
  9  8  1  0
 10  8  1  0
 11  4  2  0
 13  8  1  0
 14 11  1  0
 14 12  1  0
 15  1  1  0
 17  2  1  0
 17  3  1  0
 18  7  1  0
 20  4  1  0
 21  8  1  0
 22  7  1  0
 22 19  1  0
 23 10  1  0
 23 16  1  0
 23 19  1  0
 24  8  1  0
 25  5  1  0
 25 14  2  0
 26 17  1  0
 26 20  2  0
 26 25  1  0
M  END
>  <ID>  (1) 
conformer_0

$$$$
