
     RDKit          3D

 24 26  0  0  0  0  0  0  0  0999 V2000
    6.3029   25.7236   25.7004 C   0  0  0  0  0  0  0  0  0  0  0  0
    5.7646   26.1270   28.1950 C   0  0  0  0  0  0  0  0  0  0  0  0
    5.8825   25.4412   28.9655 C   0  0  0  0  0  0  0  0  0  0  0  0
    5.5076   26.4626   24.6988 C   0  0  0  0  0  0  0  0  0  0  0  0
    3.9871   27.3459   23.3436 N   0  0  0  0  0  0  0  0  0  0  0  0
    9.4427   23.4029   26.3234 O   0  0  0  0  0  0  0  0  0  0  0  0
    6.9302   24.8027   29.5323 C   0  0  0  0  0  0  0  0  0  0  0  0
    6.5624   25.2470   24.4395 N   0  0  0  0  0  0  0  0  0  0  0  0
   11.4863   21.7689   28.6036 P   0  0  0  0  0  4  0  0  0  0  0  0
    6.0681   26.0848   26.4494 N   0  0  0  0  0  0  0  0  0  0  0  0
    5.3931   25.9851   21.9217 N   0  0  0  0  0  0  0  0  0  0  0  0
   10.2791   21.1103   28.6015 O   0  0  0  0  0  0  0  0  0  0  0  0
    3.9831   27.6904   24.6917 C   0  0  0  0  0  0  0  0  0  0  0  0
    9.7369   23.7390   28.6080 O   0  0  0  0  0  0  0  0  0  0  0  0
    7.8473   25.6562   28.3447 O   0  0  0  0  0  0  0  0  0  0  0  0
   12.2140   21.7872   27.5107 O   0  0  0  0  0  1  0  0  0  0  0  0
    4.9897   26.8510   29.6924 O   0  0  0  0  0  0  0  0  0  0  0  0
   10.0225   23.9889   27.3138 P   0  0  0  0  0  0  0  0  0  0  0  0
    4.7503   27.4374   25.5959 N   0  0  0  0  0  2  0  0  0  0  0  0
    5.4246   24.4922   30.2691 O   0  0  0  0  0  0  0  0  0  0  0  0
   11.0820   24.5136   27.2426 O   0  0  0  0  0  0  0  0  0  0  0  0
   12.1006   21.8798   29.6986 O   0  0  0  0  0  0  0  0  0  0  0  0
    8.4144   24.4864   29.6128 C   0  0  0  0  0  0  0  0  0  0  0  0
    5.1698   26.2689   23.2659 C   0  0  0  0  0  0  0  0  0  0  0  0
  3  2  1  0
  4  1  1  0
  7  3  1  0
  8  1  2  0
  8  4  1  0
 10  1  1  0
 10  2  1  0
 12  9  1  0
 13  5  2  0
 15  7  1  0
 16  9  1  0
 17  3  1  0
 18  6  1  0
 18 14  1  0
 19  4  1  0
 19 13  1  0
 20  3  1  0
 21  9  1  0
 21 18  1  0
 22  9  1  0
 23  7  1  0
 23 14  1  0
 23 15  1  0
 24  4  1  0
 24  5  1  0
 24 11  1  0
M  RAD  3   9   2  16   2  19   2
M  END
>  <ID>  (1) 
conformer_0

$$$$
