
     RDKit          3D

 25 27  0  0  0  0  0  0  0  0999 V2000
    5.7742   26.0353   28.0125 C   0  0  0  0  0  0  0  0  0  0  0  0
    5.1029   26.3468   23.2400 C   0  0  0  0  0  0  0  0  0  0  0  0
    5.6361   25.1439   28.8650 C   0  0  0  0  0  0  0  0  0  0  0  0
    6.4235   25.7231   25.5133 C   0  0  0  0  0  0  0  0  0  0  0  0
    3.7734   27.3034   23.2626 N   0  0  0  0  0  0  0  0  0  0  0  0
   10.4487   23.6071   27.4745 P   0  0  0  0  0  0  0  0  0  0  0  0
    7.3170   26.3903   28.4816 O   0  0  0  0  0  0  0  0  0  0  0  0
    6.6142   25.4848   24.2947 N   0  0  0  0  0  0  0  0  0  0  0  0
    5.0674   26.0505   21.7550 N   0  0  0  0  0  0  0  0  0  0  0  0
   10.8059   20.7630   28.6411 O   0  0  0  0  0  0  0  0  0  0  0  0
    6.0269   26.1032   26.3676 N   0  0  0  0  0  0  0  0  0  0  0  0
    7.1430   24.8876   29.4289 C   0  0  0  0  0  0  0  0  0  0  0  0
    9.4700   23.0220   26.8936 O   0  0  0  0  0  0  0  0  0  0  0  0
    5.4435   26.4878   24.7160 C   0  0  0  0  0  0  0  0  0  0  0  0
   11.5857   22.9047   28.0593 O   0  0  0  0  0  0  0  0  0  0  0  0
   12.9247   21.1638   27.5194 O   0  0  0  0  0  0  0  0  0  0  0  0
    4.2392   25.7978   29.4855 O   0  0  0  0  0  0  0  0  0  0  0  0
    4.6123   27.4863   25.5945 N   0  0  0  0  0  0  0  0  0  0  0  0
   11.9575   21.5748   28.5980 P   0  0  0  0  0  5  0  0  0  0  0  0
    5.7411   23.9975   30.2138 O   0  0  0  0  0  0  0  0  0  0  0  0
   12.3345   21.7455   29.9023 O   0  0  0  0  0  0  0  0  0  0  0  0
    9.4011   24.4451   28.4161 O   0  0  0  0  0  0  0  0  0  0  0  0
    3.8868   27.5667   24.6251 C   0  0  0  0  0  0  0  0  0  0  0  0
    8.5880   25.0927   29.2314 C   0  0  0  0  0  0  0  0  0  0  0  0
   11.2054   24.7324   27.1250 O   0  0  0  0  0  0  0  0  0  0  0  0
  3  1  1  0
  5  2  2  0
  7  1  1  0
  8  4  2  0
  9  2  1  0
 11  1  1  0
 11  4  1  0
 12  3  1  0
 12  7  1  0
 13  6  1  0
 14  2  1  0
 14  4  1  0
 14  8  1  0
 17  3  1  0
 18 14  1  0
 19 10  1  0
 19 15  1  0
 19 16  1  0
 20  3  1  0
 21 19  1  0
 22  6  1  0
 23  5  1  0
 23 18  2  0
 24 12  1  0
 24 22  1  0
 25  6  1  0
 25 19  1  0
M  END
>  <ID>  (1) 
conformer_0

$$$$
