
     RDKit          3D

 25 26  0  0  0  0  0  0  0  0999 V2000
    5.7398   26.2129   28.1816 C   0  0  1  0  0  0  0  0  0  0  0  0
    4.8213   26.3241   23.2347 C   0  0  0  0  0  0  0  0  0  0  0  0
    5.7241   25.3155   28.6451 C   0  0  0  0  0  0  0  0  0  0  0  0
    6.2486   25.9328   25.7311 C   0  0  0  0  0  0  0  0  0  0  0  0
    3.7288   27.3197   23.5298 N   0  0  0  0  0  0  0  0  0  0  0  0
   11.6546   21.9613   28.6822 P   0  0  0  0  0  4  0  0  0  0  0  0
    4.6960   25.9193   22.0701 N   0  0  0  0  0  0  0  0  0  0  0  0
    6.0394   26.1182   26.3849 N   0  0  0  0  0  0  0  0  0  0  0  0
   10.5739   21.0218   28.6790 O   0  0  0  0  0  0  0  0  0  0  0  0
    6.9448   24.8361   29.2727 C   0  0  1  0  0  0  0  0  0  0  0  0
   10.2785   24.9363   26.0996 O   0  0  0  0  0  0  0  0  0  0  0  0
   11.3876   23.3419   28.1845 O   0  0  0  0  0  0  0  0  0  0  0  0
   12.6690   21.5117   27.5065 O   0  0  0  0  0  1  0  0  0  0  0  0
    7.5888   25.8320   28.2145 O   0  0  0  0  0  0  0  0  0  0  0  0
    9.1656   22.7522   26.9652 O   0  0  0  0  0  0  0  0  0  0  0  0
    4.6865   26.5201   29.4405 O   0  0  0  0  0  0  0  0  0  0  0  0
    3.8705   27.5536   24.8851 C   0  0  0  0  0  0  0  0  0  0  0  0
   10.1289   24.1523   27.2417 P   0  0  0  0  0  0  0  0  0  0  0  0
    5.5009   24.2392   29.9872 O   0  0  0  0  0  0  0  0  0  0  0  0
    6.1802   25.3383   24.3519 N   0  0  0  0  0  0  0  0  0  0  0  0
    4.4470   27.5766   25.6807 N   0  0  0  0  0  0  0  0  0  0  0  0
   12.2440   21.7625   29.6862 O   0  0  0  0  0  0  0  0  0  0  0  0
    9.5696   24.3933   28.2056 O   0  0  0  0  0  0  0  0  0  0  0  0
    5.4545   26.3732   24.7710 C   0  0  0  0  0  0  0  0  0  0  0  0
    8.3238   24.6489   29.3016 C   0  0  1  0  0  0  0  0  0  0  0  0
  3  1  1  0
  5  2  1  0
  7  2  2  3
  8  1  1  0
  8  4  1  0
  9  6  1  0
 10  3  1  0
 12  6  1  0
 13  6  1  0
 14 10  1  0
  1 16  1  6
 17  5  1  0
 18 12  1  0
 18 15  1  0
 10 19  1  1
 20  4  2  0
 21 17  2  3
 22  6  1  0
 23 18  1  0
 24  2  1  0
 24  4  1  0
 24 20  1  0
 25 10  1  0
 25 11  1  6
 25 14  1  0
 25 23  1  0
M  RAD  2   6   2  13   2
M  END
>  <ID>  (1) 
conformer_0

$$$$
