
     RDKit          3D

 25 27  0  0  0  0  0  0  0  0999 V2000
    8.2108   24.7045   29.2126 C   0  0  0  0  0  0  0  0  0  0  0  0
    5.3415   26.3974   24.8675 C   0  0  0  0  0  0  0  0  0  0  0  0
    5.6577   25.2875   28.7489 C   0  0  0  0  0  0  0  0  0  0  0  0
    6.3619   25.8108   25.6642 C   0  0  0  0  0  0  0  0  0  0  0  0
    4.6248   27.4955   25.7633 N   0  0  0  0  0  2  0  0  0  0  0  0
   10.5050   24.9792   26.2487 O   0  0  0  0  0  0  0  0  0  0  0  0
   11.9038   21.9817   28.2777 P   0  0  0  0  0  5  0  0  0  0  0  0
    7.5812   26.1238   28.3348 O   0  0  0  0  0  0  0  0  0  0  0  0
    4.7694   26.0401   22.0233 N   0  0  0  0  0  0  0  0  0  0  0  0
    9.0879   22.8667   26.7410 O   0  0  0  0  0  0  0  0  0  0  0  0
    6.1552   26.1130   26.4813 N   0  0  0  0  0  0  0  0  0  0  0  0
    5.8511   26.1594   28.0213 C   0  0  0  0  0  0  0  0  0  0  0  0
   10.7638   21.3050   28.8423 O   0  0  0  0  0  0  0  0  0  0  0  0
    6.2289   25.3913   24.4523 N   0  0  0  0  0  0  0  0  0  0  0  0
   12.4985   21.1033   27.1457 O   0  0  0  0  0  0  0  0  0  0  0  0
    4.9353   26.3172   23.3444 C   0  0  0  0  0  0  0  0  0  0  0  0
    3.7964   27.3752   23.6241 N   0  0  0  0  0  0  0  0  0  0  0  0
    4.4793   26.0742   29.4088 O   0  0  0  0  0  0  0  0  0  0  0  0
   10.1256   24.0620   27.1774 P   0  0  0  0  0  0  0  0  0  0  0  0
    5.8512   23.9097   30.2318 O   0  0  0  0  0  0  0  0  0  0  0  0
   12.7467   22.4945   29.0743 O   0  0  0  0  0  0  0  0  0  0  0  0
    9.4235   24.5529   28.1676 O   0  0  0  0  0  0  0  0  0  0  0  0
   11.2677   23.1526   27.5556 O   0  0  0  0  0  0  0  0  0  0  0  0
    3.8123   27.6178   24.7145 C   0  0  0  0  0  0  0  0  0  0  0  0
    6.8362   24.6457   29.3469 C   0  0  0  0  0  0  0  0  0  0  0  0
  4  2  1  0
  5  2  1  0
  7  6  1  0
  8  1  1  0
 11  4  1  0
 12  3  1  0
 12  8  1  0
 12 11  1  0
 13  7  1  0
 14  2  1  0
 14  4  2  0
 15  7  1  0
 16  2  1  0
 16  9  1  0
 17 16  1  0
 18  3  1  0
 19  6  1  0
 19 10  1  0
 21  7  1  0
 22  1  1  0
 22 19  1  0
 23  7  1  0
 24  5  1  0
 24 17  2  0
 25  1  1  0
 25  3  1  0
 25 20  1  0
M  RAD  1   5   2
M  END
>  <ID>  (1) 
conformer_0

$$$$
