
     RDKit          3D

 27 28  0  0  0  0  0  0  0  0999 V2000
    5.7280   26.5907   27.6249 C   0  0  1  0  0  0  0  0  0  0  0  0
    5.5010   26.4863   24.8763 C   0  0  0  0  0  0  0  0  0  0  0  0
    5.0814   26.0809   28.5746 C   0  0  1  0  0  0  0  0  0  0  0  0
    6.6507   25.8840   25.4825 C   0  0  0  0  0  0  0  0  0  0  0  0
    4.4028   27.5282   25.2826 N   0  0  0  0  0  0  0  0  0  0  0  0
    7.3067   26.5130   28.0853 O   0  0  0  0  0  0  0  0  0  0  0  0
   11.9112   21.6833   28.4954 P   0  0  0  0  0  4  0  0  0  0  0  0
    6.2398   24.8496   29.1089 C   0  0  2  0  0  0  0  0  0  0  0  0
    6.1137   26.3412   26.1358 N   0  0  0  0  0  0  0  0  0  0  0  0
    6.6639   25.4624   24.2556 N   0  0  0  0  0  0  0  0  0  0  0  0
   13.0517   21.7399   29.4593 O   0  0  0  0  0  0  0  0  0  0  0  0
   12.3329   20.9955   27.1680 O   0  0  0  0  0  1  0  0  0  0  0  0
    9.1316   24.7512   28.0672 O   0  0  0  0  0  0  0  0  0  0  0  0
    9.4506   23.1286   26.3601 O   0  0  0  0  0  0  0  0  0  0  0  0
    4.9222   25.9184   21.7602 N   0  0  0  0  0  0  0  0  0  0  0  0
    4.2036   26.2546   29.5685 O   0  0  0  0  0  0  0  0  0  0  0  0
    3.7427   27.2950   24.3008 C   0  0  0  0  0  0  0  0  0  0  0  0
   10.3379   23.9195   27.3922 P   0  0  0  0  0  5  0  0  0  0  0  0
    5.8510   24.5711   30.2903 O   0  0  0  0  0  0  0  0  0  0  0  0
   11.5138   23.2519   28.2438 O   0  0  0  0  0  0  0  0  0  0  0  0
   11.1792   20.8841   29.1721 O   0  0  0  0  0  0  0  0  0  0  0  0
    3.7873   27.1013   23.2134 N   0  0  0  0  0  0  0  0  0  0  0  0
    7.3104   25.6165   29.0887 C   0  0  1  0  0  0  0  0  0  0  0  0
   10.9127   24.8313   26.8281 O   0  0  0  0  0  0  0  0  0  0  0  0
    5.1857   26.1959   23.2697 C   0  0  0  0  0  0  0  0  0  0  0  0
    9.4722   21.8535   28.1865 O   0  0  0  0  0  0  0  0  0  0  0  0
    8.7394   24.7127   29.2104 C   0  0  2  0  0  0  0  0  0  0  0  0
  3  1  1  0
  4  2  1  0
  5  2  2  0
  6  1  1  0
  8  3  1  0
  1  9  1  6
  9  4  1  0
 10  4  2  3
 11  7  1  0
 12  7  1  0
  3 16  1  1
 17  5  1  0
 18 14  1  0
  8 19  1  1
 20  7  1  0
 20 18  1  0
 21  7  1  0
 22 17  2  0
 23  6  1  6
 23  8  1  0
 24 18  1  0
 25  2  1  0
 25 15  1  0
 25 22  1  0
 26 18  1  0
 27 13  1  6
 27 23  1  0
 27 24  1  0
M  RAD  2   7   2  12   2
M  END
>  <ID>  (1) 
conformer_0

$$$$
