
     RDKit          3D

 24 27  0  0  0  0  0  0  0  0999 V2000
    5.3080   26.2534   23.4523 C   0  0  0  0  0  0  0  0  0  0  0  0
    5.6087   25.4020   28.9958 C   0  0  0  0  0  0  0  0  0  0  0  0
    5.9968   26.1811   28.1874 C   0  0  0  0  0  0  0  0  0  0  0  0
    6.6396   25.4494   25.7720 C   0  0  0  0  0  0  0  0  0  0  0  0
    4.8258   27.3881   25.7290 N   0  0  0  0  0  0  0  0  0  0  0  0
   11.7998   21.7896   28.4191 P   0  0  0  0  0  4  0  0  0  0  0  0
    5.1462   26.0955   22.0599 N   0  0  0  0  0  0  0  0  0  0  0  0
    6.6216   25.2774   24.4453 N   0  0  0  0  0  0  0  0  0  0  0  0
   11.3769   23.5433   28.2186 O   0  0  0  0  0  0  0  0  0  0  0  0
   10.3103   21.2243   28.4635 O   0  0  0  0  0  0  0  0  0  0  0  0
    6.8583   24.7732   29.4588 C   0  0  0  0  0  0  0  0  0  0  0  0
    7.6817   25.9539   28.5678 O   0  0  0  0  0  0  0  0  0  0  0  0
    9.6030   23.3353   26.5191 O   0  0  0  0  0  0  0  0  0  0  0  0
    6.4318   25.8708   26.5226 N   0  0  0  0  0  0  0  0  0  0  0  0
   12.5967   21.5896   27.1285 O   0  0  0  0  0  1  0  0  0  0  0  0
    5.6226   26.3728   25.0178 C   0  0  0  0  0  0  0  0  0  0  0  0
    4.5300   26.5643   29.5215 O   0  0  0  0  0  0  0  0  0  0  0  0
    3.9319   27.3325   23.6437 N   0  0  0  0  0  0  0  0  0  0  0  0
    5.2335   24.3206   30.0673 O   0  0  0  0  0  0  0  0  0  0  0  0
   10.1262   23.9573   27.5329 P   0  0  0  0  0  0  0  0  0  0  0  0
   12.2542   21.6082   29.2964 O   0  0  0  0  0  0  0  0  0  0  0  0
    3.9587   27.4755   24.8108 C   0  0  0  0  0  0  0  0  0  0  0  0
    8.3572   24.5961   29.4148 C   0  0  0  0  0  0  0  0  0  0  0  0
    9.6244   24.5635   28.2108 O   0  0  0  0  0  0  0  0  0  0  0  0
  3  2  1  0
  7  1  1  0
  8  1  1  0
  8  4  1  0
  9  6  1  0
 10  6  1  0
 11  2  1  0
 12 11  1  0
 14  3  1  0
 14  4  1  0
 15  6  1  0
 16  1  1  0
 16  4  1  0
 16  5  1  0
 16  8  1  0
 17  2  1  0
 18  1  1  0
 19  2  1  0
 20  9  1  0
 20 13  1  0
 21  6  1  0
 22  5  2  0
 22 18  1  0
 23 11  1  0
 23 12  1  0
 24 20  1  0
 24 23  1  0
M  RAD  2   6   2  15   2
M  END
>  <ID>  (1) 
conformer_0

$$$$
