
     RDKit          3D

 25 27  0  0  0  0  0  0  0  0999 V2000
    4.7650   26.5573   23.1983 C   0  0  0  0  0  0  0  0  0  0  0  0
    5.8130   25.4435   28.7817 C   0  0  0  0  0  0  0  0  0  0  0  0
    6.0449   26.3074   27.9926 C   0  0  0  0  0  0  0  0  0  0  0  0
    5.6565   26.0692   24.1307 C   0  0  0  0  0  0  0  0  0  0  0  0
    4.7009   27.4115   25.7328 N   0  0  0  0  0  0  0  0  0  0  0  0
    9.3981   23.2034   26.4675 O   0  0  0  0  0  0  0  0  0  0  0  0
    6.6606   25.3541   24.2906 N   0  0  0  0  0  0  0  0  0  0  0  0
    3.5233   27.6956   24.8246 C   0  0  0  0  0  0  0  0  0  0  0  0
    4.9812   26.0903   21.9433 N   0  0  0  0  0  0  0  0  0  0  0  0
    9.9017   23.8371   28.4439 O   0  0  0  0  0  0  0  0  0  0  0  0
    6.3467   25.9647   26.3843 N   0  0  0  0  0  0  0  0  0  0  0  0
   11.4898   21.8104   28.5734 P   0  0  0  0  0  0  0  0  0  0  0  0
    6.8980   24.6950   29.4272 C   0  0  0  0  0  0  0  0  0  0  0  0
    7.8327   25.7135   28.2890 O   0  0  0  0  0  0  0  0  0  0  0  0
   10.6244   20.9057   28.5831 O   0  0  0  0  0  0  0  0  0  0  0  0
    6.0320   24.3855   30.6763 O   0  0  0  0  0  0  0  0  0  0  0  0
   11.9524   22.3475   27.4288 O   0  0  0  0  0  0  0  0  0  0  0  0
    3.7896   27.3138   23.4649 N   0  0  0  0  0  0  0  0  0  0  0  0
    4.7003   26.0702   29.4837 O   0  0  0  0  0  0  0  0  0  0  0  0
   10.1159   23.8368   27.1749 P   0  0  0  0  0  4  0  0  0  0  0  0
    7.0833   25.2587   25.6908 C   0  0  0  0  0  0  0  0  0  0  0  0
   12.1634   21.8183   29.6305 O   0  0  0  0  0  0  0  0  0  0  0  0
    8.4785   24.4326   29.3142 C   0  0  0  0  0  0  0  0  0  0  0  0
   10.8286   24.8808   26.7844 O   0  0  0  0  0  1  0  0  0  0  0  0
    5.4614   26.5813   25.5317 C   0  0  0  0  0  0  0  0  0  0  0  0
  3  2  1  0
  4  1  2  0
  7  4  1  0
  8  5  1  0
  9  1  1  0
 11  3  1  0
 13  2  1  0
 14 13  1  0
 15 12  1  0
 16 13  1  0
 17 12  1  0
 18  1  1  0
 18  8  2  0
 19  2  1  0
 20  6  1  0
 20 10  1  0
 20 17  1  0
 21  7  2  0
 21 11  1  0
 22 12  1  0
 23 10  1  0
 23 13  1  0
 23 14  1  0
 24 20  1  0
 25  4  1  0
 25  5  2  0
 25 11  1  0
M  RAD  2  20   2  24   2
M  END
>  <ID>  (1) 
conformer_0

$$$$
