
     RDKit          3D

 25 25  0  0  0  0  0  0  0  0999 V2000
    6.0054   26.1634   28.0533 C   0  0  2  0  0  0  0  0  0  0  0  0
    6.5224   25.5004   25.5284 C   0  0  0  0  0  0  0  0  0  0  0  0
    5.5795   25.3620   28.7870 C   0  0  0  0  0  0  0  0  0  0  0  0
    5.0935   26.1773   23.3778 C   0  0  0  0  0  0  0  0  0  0  0  0
    4.6959   27.6119   25.6939 N   0  0  0  0  0  0  0  0  0  0  0  0
   11.6322   21.9342   28.4534 P   0  0  0  0  0  5  0  0  0  0  0  0
    6.3671   25.0369   24.3244 N   0  0  0  0  0  0  0  0  0  0  0  0
   11.0116   25.0153   26.7002 O   0  0  0  0  0  0  0  0  0  0  0  0
    6.1742   26.1816   26.3078 N   0  0  0  0  0  0  0  0  0  0  0  0
    7.5542   26.0828   28.1672 O   0  0  0  0  0  0  0  0  0  0  0  0
    4.8075   25.9039   21.9797 N   0  0  0  0  0  0  0  0  0  0  0  0
    6.8963   24.6987   29.2544 C   0  0  0  0  0  0  0  0  0  0  0  0
   10.4130   21.1509   28.6642 O   0  0  0  0  0  0  0  0  0  0  0  0
   12.4038   21.4975   27.1577 O   0  0  0  0  0  0  0  0  0  0  0  0
    5.5595   26.4824   24.9262 C   0  0  0  0  0  0  0  0  0  0  0  0
    4.3561   26.4014   29.3367 O   0  0  0  0  0  0  0  0  0  0  0  0
    9.4123   22.9928   26.8023 O   0  0  0  0  0  0  0  0  0  0  0  0
    3.8906   27.3041   23.4987 N   0  0  0  0  0  0  0  0  0  0  0  0
   10.4437   24.3097   27.3035 P   0  0  0  0  0  0  0  0  0  0  0  0
   12.4617   21.9280   29.3137 O   0  0  0  0  0  0  0  0  0  0  0  0
    9.3341   24.5724   28.2666 O   0  0  0  0  0  0  0  0  0  0  0  0
    4.1223   27.5788   24.6992 C   0  0  0  0  0  0  0  0  0  0  0  0
    8.4562   24.5919   29.3069 C   0  0  0  0  0  0  0  0  0  0  0  0
   11.2738   23.3838   28.1023 O   0  0  0  0  0  0  0  0  0  0  0  0
    5.4528   24.9343   30.2535 O   0  0  0  0  0  0  0  0  0  0  0  0
  3  1  1  0
  7  2  2  3
  8  6  1  0
  9  1  1  0
  9  2  1  0
  1 10  1  1
 11  4  1  0
 12  3  1  0
 13  6  1  0
 14  6  1  0
 15  2  1  0
 15  4  2  0
 15  5  1  0
 16  3  1  0
 18  4  1  0
 19  8  1  0
 19 17  1  0
 20  6  1  0
 21 19  1  0
 22  5  2  0
 22 18  1  0
 23 12  1  0
 23 21  1  0
 24  6  1  0
 25  3  1  0
M  END
>  <ID>  (1) 
conformer_0

$$$$
