
     RDKit          3D

 25 26  0  0  0  0  0  0  0  0999 V2000
    6.7293   24.4765   29.2350 C   0  0  0  0  0  0  0  0  0  0  0  0
    3.3803   27.6598   24.8640 C   0  0  0  0  0  0  0  0  0  0  0  0
    8.0077   24.6889   29.0270 C   0  0  0  0  0  0  0  0  0  0  0  0
    4.3331   27.4600   25.8397 N   0  0  0  0  0  0  0  0  0  0  0  0
    9.0736   23.2040   26.3385 O   0  0  0  0  0  0  0  0  0  0  0  0
    6.2935   25.7857   25.5289 C   0  0  0  0  0  0  0  0  0  0  0  0
   11.2008   23.6418   27.9949 O   0  0  0  0  0  0  0  0  0  0  0  0
    5.9976   25.7489   24.3713 N   0  0  0  0  0  0  0  0  0  0  0  0
   11.4939   22.1718   28.5377 P   0  0  0  0  0  4  0  0  0  0  0  0
    7.4189   26.1031   28.2328 O   0  0  0  0  0  0  0  0  0  0  0  0
    4.5503   26.2902   22.2194 N   0  0  0  0  0  0  0  0  0  0  0  0
    5.5957   25.2356   28.7378 C   0  0  0  0  0  0  0  0  0  0  0  0
   10.3079   21.2791   28.4155 O   0  0  0  0  0  0  0  0  0  0  0  0
    5.9173   26.2294   26.4446 N   0  0  0  0  0  0  0  0  0  0  0  0
   12.4432   21.8950   27.5451 O   0  0  0  0  0  1  0  0  0  0  0  0
    4.5125   26.1809   29.4802 O   0  0  0  0  0  0  0  0  0  0  0  0
   10.0522   24.3061   26.8904 P   0  0  0  0  0  0  0  0  0  0  0  0
    4.7821   26.4472   23.4586 C   0  0  0  0  0  0  0  0  0  0  0  0
    5.6865   23.9704   30.1136 O   0  0  0  0  0  0  0  0  0  0  0  0
   10.3588   24.9789   25.8542 O   0  0  0  0  0  0  0  0  0  0  0  0
   11.8461   21.9550   29.8033 O   0  0  0  0  0  0  0  0  0  0  0  0
    3.6465   27.3674   23.8588 N   0  0  0  0  0  0  0  0  0  0  0  0
    5.7681   26.2019   28.0158 C   0  0  0  0  0  0  0  0  0  0  0  0
    9.2411   24.8062   27.8632 O   0  0  0  0  0  0  0  0  0  0  0  0
    5.0408   26.6540   25.3545 C   0  0  0  0  0  0  0  0  0  0  0  0
  3  1  1  0
  4  2  1  0
  8  6  1  0
  9  7  1  0
 10  3  1  0
 12  1  1  0
 13  9  1  0
 14  6  1  0
 15  9  1  0
 16 12  1  0
 17  5  1  0
 17  7  1  0
 18  8  2  0
 18 11  1  0
 19  1  1  0
 20  3  1  0
 20 17  1  0
 21  9  1  0
 22  2  1  0
 22 18  1  0
 23 10  1  0
 23 12  1  0
 23 14  1  0
 24  3  1  0
 25  4  2  0
 25 14  1  0
M  RAD  2   9   2  15   2
M  END
>  <ID>  (1) 
conformer_0

$$$$
