
     RDKit          3D

 26 27  0  0  0  0  0  0  0  0999 V2000
    4.8216   26.4400   23.1183 C   0  0  0  0  0  0  0  0  0  0  0  0
    5.6084   26.3620   28.1179 C   0  0  0  0  0  0  0  0  0  0  0  0
    5.6280   25.4751   28.9116 C   0  0  0  0  0  0  0  0  0  0  0  0
    6.6525   25.4482   25.6879 C   0  0  0  0  0  0  0  0  0  0  0  0
    3.7070   27.2840   23.2606 N   0  0  0  0  0  0  0  0  0  0  0  0
    5.1337   26.0287   22.0791 N   0  0  0  0  0  0  0  0  0  0  0  0
   12.0568   21.7795   28.3813 P   0  0  0  0  0  4  0  0  0  0  0  0
   11.3970   23.1761   27.9467 O   0  0  0  0  0  0  0  0  0  0  0  0
    5.9730   26.3046   26.4642 N   0  0  0  0  0  0  0  0  0  0  0  0
    7.5233   26.1716   28.3477 O   0  0  0  0  0  0  0  0  0  0  0  0
   13.0626   21.3507   27.2858 O   0  0  0  0  0  1  0  0  0  0  0  0
   11.0751   20.9463   28.7782 O   0  0  0  0  0  0  0  0  0  0  0  0
    6.8860   24.8317   29.3019 C   0  0  0  0  0  0  0  0  0  0  0  0
    6.3900   25.4332   24.4653 N   0  0  0  0  0  0  0  0  0  0  0  0
    9.2169   22.4356   27.3979 O   0  0  0  0  0  0  0  0  0  0  0  0
    3.4599   27.7158   24.5859 C   0  0  0  0  0  0  0  0  0  0  0  0
    4.3085   26.2842   29.4603 O   0  0  0  0  0  0  0  0  0  0  0  0
    4.3713   27.5413   25.4734 N   0  0  0  0  0  0  0  0  0  0  0  0
   10.3077   23.9178   27.6003 P   0  0  0  0  0  0  0  0  0  0  0  0
    5.5500   24.2807   30.2235 O   0  0  0  0  0  0  0  0  0  0  0  0
   12.7977   22.2728   29.4623 O   0  0  0  0  0  0  0  0  0  0  0  0
   10.5161   24.7505   26.5427 O   0  0  0  0  0  0  0  0  0  0  0  0
    9.4649   24.4373   28.4224 O   0  0  0  0  0  0  0  0  0  0  0  0
    8.2507   24.6528   29.2031 C   0  0  0  0  0  0  0  0  0  0  0  0
    5.2057   26.7946   25.6446 C   0  0  0  0  0  0  0  0  0  0  0  0
    5.4913   26.1696   24.2785 C   0  0  0  0  0  0  0  0  0  0  0  0
  3  2  1  0
  5  1  2  0
  6  1  1  0
  8  7  1  0
  9  2  1  0
  9  4  1  0
 11  7  1  0
 12  7  1  0
 13  3  1  0
 13 10  1  0
 14  4  2  0
 16  5  1  0
 17  3  1  0
 18 16  2  0
 19  8  1  0
 19 15  1  0
 20 13  1  0
 21  7  1  0
 23 19  1  0
 24 13  1  0
 24 22  1  0
 24 23  1  0
 25  9  1  0
 25 18  1  0
 26  1  1  0
 26 14  1  0
 26 25  2  0
M  RAD  2   7   2  11   2
M  END
>  <ID>  (1) 
conformer_0

$$$$
