
     RDKit          3D

 26 27  0  0  0  0  0  0  0  0999 V2000
    4.8881   26.5008   23.0819 C   0  0  0  0  0  0  0  0  0  0  0  0
    6.0278   26.1478   28.2661 C   0  0  0  0  0  0  0  0  0  0  0  0
    5.6451   25.1840   28.9390 C   0  0  0  0  0  0  0  0  0  0  0  0
    5.6032   26.2012   24.1597 C   0  0  0  0  0  0  0  0  0  0  0  0
    4.6705   27.4907   25.6634 N   0  0  0  0  0  0  0  0  0  0  0  0
   11.8435   21.8203   28.3530 P   0  0  0  0  0  5  0  0  0  0  0  0
   10.9563   25.1465   26.8567 O   0  0  0  0  0  0  0  0  0  0  0  0
   10.6282   21.1043   28.7287 O   0  0  0  0  0  0  0  0  0  0  0  0
    7.4842   26.2186   28.5738 O   0  0  0  0  0  0  0  0  0  0  0  0
    6.4814   25.4180   24.5153 N   0  0  0  0  0  0  0  0  0  0  0  0
    5.4225   26.0475   22.0279 N   0  0  0  0  0  0  0  0  0  0  0  0
    9.4812   23.4173   26.3606 O   0  0  0  0  0  0  0  0  0  0  0  0
   12.3498   21.2540   27.0283 O   0  0  0  0  0  0  0  0  0  0  0  0
    6.1576   26.0696   26.5452 N   0  0  0  0  0  0  0  0  0  0  0  0
    3.5219   27.7491   24.4632 C   0  0  0  0  0  0  0  0  0  0  0  0
    6.9515   24.5670   29.3541 C   0  0  0  0  0  0  0  0  0  0  0  0
    3.8574   27.3517   23.3324 N   0  0  0  0  0  0  0  0  0  0  0  0
   10.0970   24.0962   27.2768 P   0  0  0  0  0  0  0  0  0  0  0  0
    4.4683   26.2954   29.4399 O   0  0  0  0  0  0  0  0  0  0  0  0
   12.6731   21.9566   29.1568 O   0  0  0  0  0  0  0  0  0  0  0  0
    9.1792   24.4225   28.1964 O   0  0  0  0  0  0  0  0  0  0  0  0
   11.2974   23.2975   28.0326 O   0  0  0  0  0  0  0  0  0  0  0  0
    5.2426   26.9032   25.4515 C   0  0  0  0  0  0  0  0  0  0  0  0
    5.0681   24.3141   30.1698 O   0  0  0  0  0  0  0  0  0  0  0  0
    8.3993   24.5630   29.2710 C   0  0  0  0  0  0  0  0  0  0  0  0
    6.5288   25.4880   25.8312 C   0  0  0  0  0  0  0  0  0  0  0  0
  3  2  1  0
  4  1  2  0
  7  6  1  0
  8  6  1  0
  9  2  1  0
 10  4  1  0
 11  1  1  0
 13  6  1  0
 14  2  1  0
 15  5  1  0
 16  3  1  0
 17  1  1  0
 17 15  2  0
 18  7  1  0
 18 12  1  0
 19  3  1  0
 20  6  1  0
 21 18  1  0
 22  6  1  0
 23  4  1  0
 23  5  2  0
 23 14  1  0
 24  3  1  0
 25 16  1  0
 25 21  1  0
 26 10  2  0
 26 14  1  0
M  END
>  <ID>  (1) 
conformer_0

$$$$
