
     RDKit          3D

 27 29  0  0  0  0  0  0  0  0999 V2000
    4.6700   26.4458   23.0897 C   0  0  0  0  0  0  0  0  0  0  0  0
    5.8970   26.5102   27.6617 C   0  0  0  0  0  0  0  0  0  0  0  0
    5.1759   25.6382   28.6302 C   0  0  0  0  0  0  0  0  0  0  0  0
    6.8429   25.3621   25.5959 C   0  0  0  0  0  0  0  0  0  0  0  0
    4.5035   27.4884   25.5874 N   0  0  0  0  0  0  0  0  0  0  0  0
    6.5248   25.4153   24.1698 N   0  0  0  0  0  0  0  0  0  0  0  0
   10.9066   25.0418   26.7885 O   0  0  0  0  0  0  0  0  0  0  0  0
   11.8408   21.8750   28.4976 P   0  0  0  0  0  5  0  0  0  0  0  0
    7.5593   26.0031   28.1448 O   0  0  0  0  0  0  0  0  0  0  0  0
    4.7901   26.0389   21.8048 N   0  0  0  0  0  0  0  0  0  0  0  0
    5.4435   26.0879   24.0935 C   0  0  0  0  0  0  0  0  0  0  0  0
    6.0931   26.0324   26.2083 N   0  0  0  0  0  0  0  0  0  0  0  0
    6.5258   24.2579   29.3924 C   0  0  0  0  0  0  0  0  0  0  0  0
   12.8696   21.9956   29.2513 O   0  0  0  0  0  0  0  0  0  0  0  0
   10.4105   21.6112   28.8845 O   0  0  0  0  0  0  0  0  0  0  0  0
   12.0588   20.8176   27.5251 O   0  0  0  0  0  0  0  0  0  0  0  0
   10.3094   24.2739   27.4199 P   0  0  0  0  0  0  0  0  0  0  0  0
    4.6126   26.3714   29.5111 O   0  0  0  0  0  0  0  0  0  0  0  0
    3.7101   27.2895   23.4181 N   0  0  0  0  0  0  0  0  0  0  0  0
    9.4056   22.8027   26.8637 O   0  0  0  0  0  0  0  0  0  0  0  0
    5.6244   24.3841   30.4644 O   0  0  0  0  0  0  0  0  0  0  0  0
    3.4318   27.7436   24.6703 C   0  0  0  0  0  0  0  0  0  0  0  0
   11.5474   23.2968   27.9948 O   0  0  0  0  0  0  0  0  0  0  0  0
    9.3559   24.6535   28.2159 O   0  0  0  0  0  0  0  0  0  0  0  0
    6.8111   25.6952   29.0371 C   0  0  0  0  0  0  0  0  0  0  0  0
    8.3170   24.5788   29.3201 C   0  0  0  0  0  0  0  0  0  0  0  0
    5.2014   26.5036   25.4703 C   0  0  0  0  0  0  0  0  0  0  0  0
  3  2  1  0
  6  4  2  0
  8  7  1  0
 10  1  1  0
 11  1  2  0
 11  6  1  0
 12  2  1  0
 12  4  1  0
 14  8  1  0
 15  8  1  0
 16  8  1  0
 17  7  1  0
 18  3  1  0
 19  1  1  0
 20 17  1  0
 21 13  1  0
 22  5  1  0
 22 19  2  0
 23  8  1  0
 24 17  1  0
 25  2  1  0
 25  3  1  0
 25  9  1  0
 25 13  1  0
 26 13  1  0
 26 24  1  0
 27  5  2  0
 27 11  1  0
 27 12  1  0
M  END
>  <ID>  (1) 
conformer_0

$$$$
