
     RDKit          3D

 25 27  0  0  0  0  0  0  0  0999 V2000
    5.0311   26.1431   23.0496 C   0  0  0  0  0  0  0  0  0  0  0  0
    5.9209   26.1743   28.0576 C   0  0  0  0  0  0  0  0  0  0  0  0
    5.7953   25.3168   28.8955 C   0  0  0  0  0  0  0  0  0  0  0  0
    6.7191   25.4369   25.7335 C   0  0  0  0  0  0  0  0  0  0  0  0
    4.6359   27.4495   25.6605 N   0  0  0  0  0  0  0  0  0  0  0  0
   11.5063   21.8723   28.3546 P   0  0  0  0  0  4  0  0  0  0  0  0
    7.7710   25.7823   28.3421 O   0  0  0  0  0  0  0  0  0  0  0  0
   10.2688   21.2380   28.5974 O   0  0  0  0  0  0  0  0  0  0  0  0
    5.2709   25.7051   21.9555 N   0  0  0  0  0  0  0  0  0  0  0  0
    7.0114   24.5952   29.3799 C   0  0  0  0  0  0  0  0  0  0  0  0
   10.0493   24.0025   28.1866 O   0  0  0  0  0  0  0  0  0  0  0  0
    5.7396   26.1320   24.1818 C   0  0  0  0  0  0  0  0  0  0  0  0
   12.0870   21.8426   27.2283 O   0  0  0  0  0  1  0  0  0  0  0  0
    6.5213   25.2945   24.4480 N   0  0  0  0  0  0  0  0  0  0  0  0
    6.1406   26.2127   26.5105 N   0  0  0  0  0  0  0  0  0  0  0  0
    4.5603   26.5980   29.3199 O   0  0  0  0  0  0  0  0  0  0  0  0
    9.1719   22.7274   26.7941 O   0  0  0  0  0  0  0  0  0  0  0  0
    4.0284   27.1233   23.2832 N   0  0  0  0  0  0  0  0  0  0  0  0
   10.1374   23.9564   27.1994 P   0  0  0  0  0  5  0  0  0  0  0  0
   12.0031   22.1972   29.2442 O   0  0  0  0  0  0  0  0  0  0  0  0
   10.5702   24.5699   26.4513 O   0  0  0  0  0  0  0  0  0  0  0  0
    8.3827   24.4461   29.3416 C   0  0  0  0  0  0  0  0  0  0  0  0
    3.7660   27.6387   24.5352 C   0  0  0  0  0  0  0  0  0  0  0  0
    5.2021   24.8398   30.2361 O   0  0  0  0  0  0  0  0  0  0  0  0
    5.2412   26.8240   25.7614 C   0  0  0  0  0  0  0  0  0  0  0  0
  3  2  1  0
  8  6  1  0
  9  1  1  0
 10  3  1  0
 10  7  1  0
 12  1  2  0
 13  6  1  0
 14  4  2  0
 14 12  1  0
 15  2  1  0
 15  4  1  0
 16  3  1  0
 18  1  1  0
 19  6  1  0
 19 11  1  0
 19 17  1  0
 20  6  1  0
 21 11  1  0
 22  7  1  0
 22 10  1  0
 22 19  1  0
 23  5  1  0
 23 18  2  0
 24  3  1  0
 25  5  2  0
 25 12  1  0
 25 15  1  0
M  RAD  2   6   2  13   2
M  END
>  <ID>  (1) 
conformer_0

$$$$
