
     RDKit          3D

 26 28  0  0  0  0  0  0  0  0999 V2000
    5.9796   24.8963   28.8820 C   0  0  0  0  0  0  0  0  0  0  0  0
    5.6619   26.1531   24.3241 C   0  0  0  0  0  0  0  0  0  0  0  0
    7.3108   24.5767   29.4841 C   0  0  0  0  0  0  0  0  0  0  0  0
    5.3384   26.6315   25.5997 C   0  0  0  0  0  0  0  0  0  0  0  0
    3.7452   27.2077   23.3949 N   0  0  0  0  0  0  0  0  0  0  0  0
    7.4804   26.0552   28.6382 O   0  0  0  0  0  0  0  0  0  0  0  0
   11.7745   21.8261   28.3532 P   0  0  0  0  0  4  0  0  0  0  0  0
    6.1932   26.1010   26.5510 N   0  0  0  0  0  0  0  0  0  0  0  0
    5.1938   26.1043   22.0614 N   0  0  0  0  0  0  0  0  0  0  0  0
   12.6062   21.1386   27.2212 O   0  0  0  0  0  1  0  0  0  0  0  0
   10.6087   21.1374   28.8004 O   0  0  0  0  0  0  0  0  0  0  0  0
    5.9023   25.9721   28.1101 C   0  0  0  0  0  0  0  0  0  0  0  0
    3.4102   27.5989   24.6764 C   0  0  0  0  0  0  0  0  0  0  0  0
    6.9227   25.6843   24.6364 N   0  0  0  0  0  0  0  0  0  0  0  0
   11.2763   23.1479   27.7268 O   0  0  0  0  0  0  0  0  0  0  0  0
    5.8613   23.9653   30.3388 O   0  0  0  0  0  0  0  0  0  0  0  0
    4.4639   27.3810   25.7114 N   0  0  0  0  0  0  0  0  0  0  0  0
    9.1779   22.8309   26.7961 O   0  0  0  0  0  0  0  0  0  0  0  0
   10.2139   24.0903   27.1167 P   0  0  0  0  0  0  0  0  0  0  0  0
   12.4557   22.1751   29.3034 O   0  0  0  0  0  0  0  0  0  0  0  0
   10.5542   25.0280   26.4366 O   0  0  0  0  0  0  0  0  0  0  0  0
    7.1890   25.6412   25.9438 C   0  0  0  0  0  0  0  0  0  0  0  0
    8.7505   24.4622   29.4925 C   0  0  0  0  0  0  0  0  0  0  0  0
    9.5174   24.4808   28.3448 O   0  0  0  0  0  0  0  0  0  0  0  0
    4.6046   25.3573   29.5904 O   0  0  0  0  0  0  0  0  0  0  0  0
    4.8082   26.5166   23.2795 C   0  0  0  0  0  0  0  0  0  0  0  0
  3  1  1  0
  4  2  1  0
  6  3  1  0
  8  4  1  0
 10  7  1  0
 11  7  1  0
 12  1  1  0
 12  6  1  0
 12  8  1  0
 13  5  2  0
 14  2  1  0
 15  7  1  0
 16  1  1  0
 17  4  2  0
 17 13  1  0
 19 15  1  0
 19 18  1  0
 20  7  1  0
 21 19  1  0
 22  8  1  0
 22 14  2  0
 22 21  1  0
 23  3  1  0
 24 23  1  0
 25  1  1  0
 26  2  2  0
 26  5  1  0
 26  9  1  0
M  RAD  2   7   2  10   2
M  END
>  <ID>  (1) 
conformer_0

$$$$
