
     RDKit          3D

 27 29  0  0  0  0  0  0  0  0999 V2000
    5.2428   26.6367   25.4753 C   0  0  0  0  0  0  0  0  0  0  0  0
    5.3665   25.7168   28.7098 C   0  0  0  0  0  0  0  0  0  0  0  0
    5.8007   26.3080   27.8147 C   0  0  0  0  0  0  0  0  0  0  0  0
    6.5242   25.1836   25.8364 C   0  0  0  0  0  0  0  0  0  0  0  0
    3.9760   27.0633   23.1086 N   0  0  0  0  0  0  0  0  0  0  0  0
    7.5047   25.9711   28.2565 O   0  0  0  0  0  0  0  0  0  0  0  0
    6.3618   24.4881   29.2478 C   0  0  0  0  0  0  0  0  0  0  0  0
    9.4390   23.1395   26.3999 O   0  0  0  0  0  0  0  0  0  0  0  0
   11.6267   22.4138   28.6513 P   0  0  0  0  0  5  0  0  0  0  0  0
    6.0030   26.0442   26.4027 N   0  0  0  0  0  0  0  0  0  0  0  0
    6.1908   25.1581   24.2985 N   0  0  0  0  0  0  0  0  0  0  0  0
    5.2382   25.7613   21.8368 N   0  0  0  0  0  0  0  0  0  0  0  0
    9.5032   24.3475   28.2591 O   0  0  0  0  0  0  0  0  0  0  0  0
   11.9971   22.5997   29.9031 O   0  0  0  0  0  0  0  0  0  0  0  0
   12.2995   21.8727   27.5044 O   0  0  0  0  0  0  0  0  0  0  0  0
    3.5762   27.6932   24.3857 C   0  0  0  0  0  0  0  0  0  0  0  0
    4.5254   26.3780   29.4632 O   0  0  0  0  0  0  0  0  0  0  0  0
    4.5415   27.4663   25.4381 N   0  0  0  0  0  0  0  0  0  0  0  0
   10.3743   24.7913   25.8082 O   0  0  0  0  0  0  0  0  0  0  0  0
    5.7495   24.4603   30.4311 O   0  0  0  0  0  0  0  0  0  0  0  0
    7.5535   25.0169   29.3468 C   0  0  0  0  0  0  0  0  0  0  0  0
   10.2258   24.0594   26.9529 P   0  0  0  0  0  0  0  0  0  0  0  0
    4.8025   26.3616   22.9935 C   0  0  0  0  0  0  0  0  0  0  0  0
   10.9756   21.2691   28.6214 O   0  0  0  0  0  0  0  0  0  0  0  0
   11.5741   23.9837   27.9329 O   0  0  0  0  0  0  0  0  0  0  0  0
    8.7926   24.1741   29.3964 C   0  0  0  0  0  0  0  0  0  0  0  0
    5.5624   25.9062   24.1571 C   0  0  0  0  0  0  0  0  0  0  0  0
  3  2  1  0
  6  3  1  0
  7  2  1  0
 10  1  1  0
 10  3  1  0
 10  4  1  0
 11  4  2  0
 14  9  1  0
 15  9  1  0
 16  5  2  0
 17  2  1  0
 18  1  2  0
 18 16  1  0
 20  7  1  0
 21  6  1  0
 21  7  1  0
 22  8  1  0
 22 13  1  0
 22 19  1  0
 23  5  1  0
 23 12  1  0
 24  9  1  0
 25  9  1  0
 26  9  1  0
 26 13  1  0
 26 21  1  0
 27  1  1  0
 27 11  1  0
 27 23  2  0
M  END
>  <ID>  (1) 
conformer_0

$$$$
