
     RDKit          3D

 25 27  0  0  0  0  0  0  0  0999 V2000
    5.7121   26.1821   27.9060 C   0  0  0  0  0  0  0  0  0  0  0  0
    4.9832   26.2580   23.1746 C   0  0  0  0  0  0  0  0  0  0  0  0
    5.6366   25.3783   28.7138 C   0  0  0  0  0  0  0  0  0  0  0  0
    6.4696   26.0450   25.4448 C   0  0  0  0  0  0  0  0  0  0  0  0
   11.8907   21.8433   28.4326 P   0  0  0  0  0  4  0  0  0  0  0  0
    6.8326   24.7946   29.1378 C   0  0  0  0  0  0  0  0  0  0  0  0
    4.4454   27.4380   25.7154 N   0  0  0  0  0  0  0  0  0  0  0  0
    6.5469   25.7075   24.2347 N   0  0  0  0  0  0  0  0  0  0  0  0
    7.4617   26.1292   28.3315 O   0  0  0  0  0  0  0  0  0  0  0  0
    4.9432   25.9758   21.9061 N   0  0  0  0  0  0  0  0  0  0  0  0
   11.2269   22.9882   27.9531 O   0  0  0  0  0  0  0  0  0  0  0  0
   12.3347   21.7585   29.4297 O   0  0  0  0  0  0  0  0  0  0  0  0
   12.8411   21.4002   27.2842 O   0  0  0  0  0  1  0  0  0  0  0  0
    9.2117   22.9766   26.5179 O   0  0  0  0  0  0  0  0  0  0  0  0
    6.0114   26.3426   26.2506 N   0  0  0  0  0  0  0  0  0  0  0  0
    3.6376   27.5454   24.7388 C   0  0  0  0  0  0  0  0  0  0  0  0
    4.6400   26.3594   29.5749 O   0  0  0  0  0  0  0  0  0  0  0  0
    3.8252   27.1822   23.4591 N   0  0  0  0  0  0  0  0  0  0  0  0
    5.7846   24.0832   30.1568 O   0  0  0  0  0  0  0  0  0  0  0  0
   10.1687   23.7496   27.3548 P   0  0  0  0  0  0  0  0  0  0  0  0
   10.6968   24.8705   26.5835 O   0  0  0  0  0  0  0  0  0  0  0  0
    8.4527   24.7991   29.1679 C   0  0  0  0  0  0  0  0  0  0  0  0
   10.3346   21.1648   28.7123 O   0  0  0  0  0  0  0  0  0  0  0  0
    9.2539   24.2419   28.1242 O   0  0  0  0  0  0  0  0  0  0  0  0
    5.2750   26.4730   24.7050 C   0  0  0  0  0  0  0  0  0  0  0  0
  3  1  1  0
  6  3  1  0
  8  4  2  0
  9  1  1  0
  9  6  1  0
 10  2  1  0
 11  5  1  0
 12  5  1  0
 13  5  1  0
 15  1  1  0
 15  4  1  0
 16  7  2  0
 17  3  1  0
 18  2  2  0
 18 16  1  0
 19  6  1  0
 20 11  1  0
 20 14  1  0
 22  6  1  0
 22 21  1  0
 23  5  1  0
 24 20  1  0
 24 22  1  0
 25  2  1  0
 25  4  1  0
 25  7  1  0
 25  8  1  0
M  RAD  2   5   2  13   2
M  END
>  <ID>  (1) 
conformer_0

$$$$
