
     RDKit          3D

 25 26  0  0  0  0  0  0  0  0999 V2000
    6.0199   25.7899   28.0931 C   0  0  2  0  0  0  0  0  0  0  0  0
    6.3666   25.6644   25.3260 C   0  0  0  0  0  0  0  0  0  0  0  0
    5.5972   25.2173   28.7978 C   0  0  0  0  0  0  0  0  0  0  0  0
    5.2088   26.6445   25.4317 C   0  0  0  0  0  0  0  0  0  0  0  0
    4.0889   27.5498   26.1574 N   0  0  0  0  0  0  0  0  0  0  0  0
    6.4847   25.6104   24.3539 N   0  0  0  0  0  0  0  0  0  0  0  0
   12.1217   21.8744   28.1669 P   0  0  0  0  0  5  0  0  0  0  0  0
    4.7471   26.7134   22.2776 N   0  0  0  0  0  0  0  0  0  0  0  0
   10.7975   24.8915   26.6113 O   0  0  0  0  0  0  0  0  0  0  0  0
    5.9047   26.1075   26.4545 N   0  0  0  0  0  0  0  0  0  0  0  0
   12.7556   21.0120   26.9845 O   0  0  0  0  0  0  0  0  0  0  0  0
    7.5377   26.0127   28.3493 O   0  0  0  0  0  0  0  0  0  0  0  0
   10.9029   21.2106   28.7650 O   0  0  0  0  0  0  0  0  0  0  0  0
    9.3004   22.8488   26.6637 O   0  0  0  0  0  0  0  0  0  0  0  0
    7.1131   24.4670   29.3028 C   0  0  2  0  0  0  0  0  0  0  0  0
    4.9185   26.6424   23.6173 C   0  0  0  0  0  0  0  0  0  0  0  0
    4.5906   26.3712   29.4963 O   0  0  0  0  0  0  0  0  0  0  0  0
    3.5162   27.5496   23.9944 N   0  0  0  0  0  0  0  0  0  0  0  0
   12.9898   22.3983   29.0273 O   0  0  0  0  0  0  0  0  0  0  0  0
    9.5073   24.0506   28.4108 O   0  0  0  0  0  0  0  0  0  0  0  0
   10.4574   23.6896   27.3435 P   0  0  0  0  0  0  0  0  0  0  0  0
   11.5103   23.0660   27.7384 O   0  0  0  0  0  0  0  0  0  0  0  0
    5.1833   24.2679   30.0726 O   0  0  0  0  0  0  0  0  0  0  0  0
    3.7474   27.5323   25.1878 C   0  0  0  0  0  0  0  0  0  0  0  0
    8.5173   24.5362   29.1570 C   0  0  0  0  0  0  0  0  0  0  0  0
  3  1  1  0
  4  2  1  0
  5  4  2  3
  6  2  2  3
  9  7  1  0
  1 10  1  6
 10  2  1  0
 10  4  1  0
 11  7  1  0
 12  1  1  0
 13  7  1  0
 15  3  1  0
 15 12  1  0
 16  8  1  0
 17  3  1  0
 18 16  2  3
 19  7  1  0
 21 14  1  0
 21 20  1  0
 22  7  1  0
 22 21  1  0
 23  3  1  0
 24  5  1  0
 24 18  1  0
 15 25  1  6
 25 20  1  0
M  END
>  <ID>  (1) 
conformer_0

$$$$
