
     RDKit          3D

 26 27  0  0  0  0  0  0  0  0999 V2000
    6.6773   25.4235   25.6809 C   0  0  0  0  0  0  0  0  0  0  0  0
    7.1094   24.7677   29.4615 C   0  0  0  0  0  0  0  0  0  0  0  0
    8.3492   24.4437   29.3018 C   0  0  0  0  0  0  0  0  0  0  0  0
    5.4862   26.2692   24.2056 C   0  0  0  0  0  0  0  0  0  0  0  0
    4.5618   27.5530   25.8891 N   0  0  0  0  0  0  0  0  0  0  0  0
    7.6576   26.1737   28.3450 O   0  0  0  0  0  0  0  0  0  0  0  0
    4.9369   25.9956   22.0488 N   0  0  0  0  0  0  0  0  0  0  0  0
    6.3798   25.4321   24.4818 N   0  0  0  0  0  0  0  0  0  0  0  0
    3.8210   27.3729   23.4951 N   0  0  0  0  0  0  0  0  0  0  0  0
   10.5955   21.0246   28.4105 O   0  0  0  0  0  0  0  0  0  0  0  0
    9.5304   22.9590   26.3646 O   0  0  0  0  0  0  0  0  0  0  0  0
   11.7130   21.8549   28.3283 P   0  0  0  0  0  5  0  0  0  0  0  0
    6.0888   26.2334   26.4942 N   0  0  0  0  0  0  0  0  0  0  0  0
    9.2878   24.0914   28.3228 O   0  0  0  0  0  0  0  0  0  0  0  0
    4.7774   26.5290   23.2331 C   0  0  0  0  0  0  0  0  0  0  0  0
    5.7840   25.2398   28.9214 C   0  0  0  0  0  0  0  0  0  0  0  0
   12.9389   21.2124   27.4739 O   0  0  0  0  0  0  0  0  0  0  0  0
    4.6512   26.0870   29.6370 O   0  0  0  0  0  0  0  0  0  0  0  0
   10.7612   24.9771   26.7712 O   0  0  0  0  0  0  0  0  0  0  0  0
    5.8255   24.4383   30.5570 O   0  0  0  0  0  0  0  0  0  0  0  0
   10.1077   23.7677   27.3891 P   0  0  0  0  0  0  0  0  0  0  0  0
    3.5691   27.8780   24.7983 C   0  0  0  0  0  0  0  0  0  0  0  0
   11.2748   23.1324   28.0532 O   0  0  0  0  0  0  0  0  0  0  0  0
    6.0906   26.1782   28.0783 C   0  0  0  0  0  0  0  0  0  0  0  0
   11.9463   21.8533   29.6010 O   0  0  0  0  0  0  0  0  0  0  0  0
    5.2028   26.9595   25.6864 C   0  0  0  0  0  0  0  0  0  0  0  0
  3  2  1  0
  8  1  2  0
  8  4  1  0
 12 10  1  0
 13  1  1  0
 14  3  1  0
 15  4  2  0
 15  7  1  0
 15  9  1  0
 16  2  1  0
 17 12  1  0
 18 16  1  0
 19 12  1  0
 20  2  1  0
 21 11  1  0
 21 14  1  0
 22  5  1  0
 22  9  2  0
 23 12  1  0
 23 21  1  0
 24  6  1  0
 24 13  1  0
 24 16  1  0
 25 12  1  0
 26  4  1  0
 26  5  2  0
 26 13  1  0
M  END
>  <ID>  (1) 
conformer_0

$$$$
