
     RDKit          3D

 27 30  0  0  0  0  0  0  0  0999 V2000
    6.5862   25.4321   25.6102 C   0  0  0  0  0  0  0  0  0  0  0  0
    7.0351   25.8183   28.7265 C   0  0  0  0  0  0  0  0  0  0  0  0
    5.5342   25.1246   28.7584 C   0  0  0  0  0  0  0  0  0  0  0  0
    5.1678   26.7461   25.8368 C   0  0  0  0  0  0  0  0  0  0  0  0
    3.6540   27.2753   23.6947 N   0  0  0  0  0  0  0  0  0  0  0  0
    5.8922   26.2253   26.4311 N   0  0  0  0  0  0  0  0  0  0  0  0
    6.2760   25.3497   24.3457 N   0  0  0  0  0  0  0  0  0  0  0  0
    4.6955   26.1655   22.1048 N   0  0  0  0  0  0  0  0  0  0  0  0
   10.9083   20.8132   28.6473 O   0  0  0  0  0  0  0  0  0  0  0  0
   11.9630   21.5853   28.2911 P   0  0  0  0  0  4  0  0  0  0  0  0
   12.8829   20.9900   27.1341 O   0  0  0  0  0  1  0  0  0  0  0  0
   10.2028   23.9807   27.2326 P   0  0  0  0  0  0  0  0  0  0  0  0
   11.4922   23.1733   27.9162 O   0  0  0  0  0  0  0  0  0  0  0  0
    9.5164   22.9631   26.5914 O   0  0  0  0  0  0  0  0  0  0  0  0
    5.6439   24.0060   30.1298 O   0  0  0  0  0  0  0  0  0  0  0  0
    4.6776   26.4257   23.2505 C   0  0  0  0  0  0  0  0  0  0  0  0
    5.5018   26.4163   27.7905 C   0  0  0  0  0  0  0  0  0  0  0  0
    9.6147   24.3324   28.3177 O   0  0  0  0  0  0  0  0  0  0  0  0
   10.4507   24.9022   26.2260 O   0  0  0  0  0  0  0  0  0  0  0  0
   12.6554   21.7862   29.3886 O   0  0  0  0  0  0  0  0  0  0  0  0
    4.1694   27.6403   25.6264 N   0  0  0  0  0  0  0  0  0  0  0  0
    4.6574   26.0127   29.4142 O   0  0  0  0  0  0  0  0  0  0  0  0
    7.7595   25.6909   27.9897 O   0  0  0  0  0  0  0  0  0  0  0  0
    3.4472   27.6255   24.9046 C   0  0  0  0  0  0  0  0  0  0  0  0
    7.0791   24.2503   29.4837 C   0  0  0  0  0  0  0  0  0  0  0  0
    8.6852   24.6567   29.2525 C   0  0  0  0  0  0  0  0  0  0  0  0
    5.3715   26.1985   24.3426 C   0  0  0  0  0  0  0  0  0  0  0  0
  3  2  1  0
  6  1  1  0
  6  4  1  0
  7  1  2  0
 10  9  1  0
 11 10  1  0
 13 10  1  0
 13 12  1  0
 14 12  1  0
 16  5  1  0
 16  8  1  0
 17  2  1  0
 17  3  1  0
 17  6  1  0
 18 12  1  0
 20 10  1  0
 21  4  2  0
 22  3  1  0
 23  2  1  0
 24  5  2  0
 24 21  1  0
 25  2  1  0
 25  3  1  0
 25 15  1  0
 26 18  1  0
 26 19  1  0
 26 25  1  0
 27  4  1  0
 27  7  1  0
 27 16  2  0
M  RAD  2  10   2  11   2
M  END
>  <ID>  (1) 
conformer_0

$$$$
