
     RDKit          3D

 26 27  0  0  0  0  0  0  0  0999 V2000
    5.5763   25.9977   28.1739 C   0  0  0  0  0  0  0  0  0  0  0  0
    5.4771   26.0380   24.1313 C   0  0  0  0  0  0  0  0  0  0  0  0
    5.7043   25.2131   28.7629 C   0  0  0  0  0  0  0  0  0  0  0  0
    4.7971   26.4050   23.2115 C   0  0  0  0  0  0  0  0  0  0  0  0
    4.4907   27.3108   25.6918 N   0  0  0  0  0  0  0  0  0  0  0  0
    6.6700   25.3741   24.4797 N   0  0  0  0  0  0  0  0  0  0  0  0
   11.7167   22.2018   28.3178 P   0  0  0  0  0  5  0  0  0  0  0  0
    6.8558   24.8037   29.4280 C   0  0  0  0  0  0  0  0  0  0  0  0
    9.3724   24.3737   28.4541 O   0  0  0  0  0  0  0  0  0  0  0  0
    5.0524   26.0771   21.9506 N   0  0  0  0  0  0  0  0  0  0  0  0
   10.7539   21.2428   28.5512 O   0  0  0  0  0  0  0  0  0  0  0  0
    7.4934   26.0067   28.3921 O   0  0  0  0  0  0  0  0  0  0  0  0
    6.0456   26.0395   26.4654 N   0  0  0  0  0  0  0  0  0  0  0  0
    3.5672   27.6276   24.6737 C   0  0  0  0  0  0  0  0  0  0  0  0
   12.4814   21.6658   26.9928 O   0  0  0  0  0  0  0  0  0  0  0  0
    9.1261   22.7660   26.9363 O   0  0  0  0  0  0  0  0  0  0  0  0
    4.4525   26.2861   29.4972 O   0  0  0  0  0  0  0  0  0  0  0  0
    3.7556   27.2117   23.4773 N   0  0  0  0  0  0  0  0  0  0  0  0
   10.1223   24.2352   27.2551 P   0  0  0  0  0  0  0  0  0  0  0  0
    5.4350   24.3049   30.1045 O   0  0  0  0  0  0  0  0  0  0  0  0
   10.4200   25.1279   26.5141 O   0  0  0  0  0  0  0  0  0  0  0  0
   12.5366   22.3687   29.2091 O   0  0  0  0  0  0  0  0  0  0  0  0
    7.1108   25.4527   25.7122 C   0  0  0  0  0  0  0  0  0  0  0  0
    8.2737   24.6255   29.4902 C   0  0  0  0  0  0  0  0  0  0  0  0
   11.2523   23.5345   27.9110 O   0  0  0  0  0  0  0  0  0  0  0  0
    5.3043   26.5661   25.6031 C   0  0  0  0  0  0  0  0  0  0  0  0
  3  1  1  0
  4  2  2  0
  6  2  1  0
  8  3  1  0
 10  4  1  0
 11  7  1  0
 12  8  1  0
 13  1  1  0
 14  5  1  0
 15  7  1  0
 17  1  1  0
 18  4  1  0
 18 14  2  0
 19  9  1  0
 19 16  1  0
 20  3  1  0
 21  7  1  0
 21 19  1  0
 22  7  1  0
 23  6  2  0
 23 13  1  0
 24  8  1  0
 24  9  1  0
 25  7  1  0
 26  2  1  0
 26  5  2  0
 26 13  1  0
M  END
>  <ID>  (1) 
conformer_0

$$$$
