
     RDKit          3D

 27 29  0  0  0  0  0  0  0  0999 V2000
    5.6984   25.3223   29.0825 C   0  0  0  0  0  0  0  0  0  0  0  0
    6.5946   25.7433   25.8681 C   0  0  0  0  0  0  0  0  0  0  0  0
    7.7700   25.1349   29.6211 C   0  0  0  0  0  0  0  0  0  0  0  0
    4.9467   26.6119   23.1383 C   0  0  0  0  0  0  0  0  0  0  0  0
    4.7541   27.4941   25.7099 N   0  0  0  0  0  0  0  0  0  0  0  0
    9.3462   23.1965   26.3382 O   0  0  0  0  0  0  0  0  0  0  0  0
   11.2697   23.5371   28.0574 O   0  0  0  0  0  0  0  0  0  0  0  0
    9.1705   24.3685   29.6469 C   0  0  0  0  0  0  0  0  0  0  0  0
   11.5769   22.0068   28.4684 P   0  0  0  0  0  5  0  0  0  0  0  0
    7.5542   26.0909   28.6089 O   0  0  0  0  0  0  0  0  0  0  0  0
    3.7926   27.3801   23.2378 N   0  0  0  0  0  0  0  0  0  0  0  0
   10.3650   21.1141   28.4232 O   0  0  0  0  0  0  0  0  0  0  0  0
    5.6154   26.2392   21.9913 N   0  0  0  0  0  0  0  0  0  0  0  0
    6.6468   25.6785   24.5397 N   0  0  0  0  0  0  0  0  0  0  0  0
   12.4273   21.8122   27.3650 O   0  0  0  0  0  0  0  0  0  0  0  0
    6.1024   26.0775   26.5644 N   0  0  0  0  0  0  0  0  0  0  0  0
    5.5719   26.2162   24.0527 C   0  0  0  0  0  0  0  0  0  0  0  0
   10.1649   24.3039   27.0014 P   0  0  0  0  0  0  0  0  0  0  0  0
    4.5563   25.7330   29.5740 O   0  0  0  0  0  0  0  0  0  0  0  0
    5.8171   23.9993   30.8140 O   0  0  0  0  0  0  0  0  0  0  0  0
   10.5990   25.1330   26.1468 O   0  0  0  0  0  0  0  0  0  0  0  0
    5.9707   25.8294   27.9951 C   0  0  0  0  0  0  0  0  0  0  0  0
    3.4854   27.8106   24.4978 C   0  0  0  0  0  0  0  0  0  0  0  0
   12.0242   21.5622   29.4448 O   0  0  0  0  0  0  0  0  0  0  0  0
    9.3429   24.7471   28.1356 O   0  0  0  0  0  0  0  0  0  0  0  0
    5.1737   27.0487   25.3515 C   0  0  0  0  0  0  0  0  0  0  0  0
    6.7722   24.3141   29.7219 C   0  0  0  0  0  0  0  0  0  0  0  0
  8  3  1  0
  9  7  1  0
  9  8  1  0
 10  3  1  0
 11  4  1  0
 12  9  1  0
 13  4  1  0
 14  2  2  0
 15  9  1  0
 16  2  1  0
 17  4  2  0
 17 14  1  0
 18  6  1  0
 19  1  1  0
 21 18  1  0
 22  1  1  0
 22 10  1  0
 22 16  1  0
 23  5  1  0
 23 11  2  0
 24  9  1  0
 25  8  1  0
 25 18  1  0
 26  5  2  0
 26 16  1  0
 26 17  1  0
 27  1  1  0
 27  3  1  0
 27 20  1  0
M  END
>  <ID>  (1) 
conformer_0

$$$$
