
     RDKit          3D

 26 28  0  0  0  0  0  0  0  0999 V2000
    5.5370   26.5164   27.6628 C   0  0  0  0  0  0  0  0  0  0  0  0
    6.4263   25.4483   25.4379 C   0  0  0  0  0  0  0  0  0  0  0  0
    5.0953   25.8287   28.6979 C   0  0  0  0  0  0  0  0  0  0  0  0
    3.9027   27.4064   24.2009 C   0  0  0  0  0  0  0  0  0  0  0  0
    4.4324   27.6482   25.3242 N   0  0  0  0  0  0  0  0  0  0  0  0
   11.7740   21.6012   28.6036 P   0  0  0  0  0  4  0  0  0  0  0  0
   10.7295   20.7960   28.8032 O   0  0  0  0  0  0  0  0  0  0  0  0
   12.7756   20.9822   27.5629 O   0  0  0  0  0  1  0  0  0  0  0  0
    6.1305   25.2760   24.1916 N   0  0  0  0  0  0  0  0  0  0  0  0
   10.6370   24.8841   26.6572 O   0  0  0  0  0  0  0  0  0  0  0  0
    9.3208   24.6263   28.2987 O   0  0  0  0  0  0  0  0  0  0  0  0
    6.6590   24.2646   29.1434 C   0  0  0  0  0  0  0  0  0  0  0  0
    6.0443   26.2167   26.1275 N   0  0  0  0  0  0  0  0  0  0  0  0
    5.0473   26.2514   21.8128 N   0  0  0  0  0  0  0  0  0  0  0  0
   12.3880   22.0812   29.8291 O   0  0  0  0  0  0  0  0  0  0  0  0
    4.7054   26.9663   29.4562 O   0  0  0  0  0  0  0  0  0  0  0  0
    9.4697   22.6103   27.1873 O   0  0  0  0  0  0  0  0  0  0  0  0
   10.3142   24.0428   27.6581 P   0  0  0  0  0  0  0  0  0  0  0  0
    5.2810   24.6139   30.1538 O   0  0  0  0  0  0  0  0  0  0  0  0
    5.5195   26.6105   25.0683 C   0  0  0  0  0  0  0  0  0  0  0  0
    5.1406   26.2907   23.3015 C   0  0  0  0  0  0  0  0  0  0  0  0
    3.8241   27.2756   23.1885 N   0  0  0  0  0  0  0  0  0  0  0  0
    7.5231   25.9236   28.0621 O   0  0  0  0  0  0  0  0  0  0  0  0
    6.6884   25.6445   28.9865 C   0  0  0  0  0  0  0  0  0  0  0  0
   11.5175   23.3522   27.9048 O   0  0  0  0  0  0  0  0  0  0  0  0
    8.5786   24.3970   29.3114 C   0  0  0  0  0  0  0  0  0  0  0  0
  3  1  1  0
  5  4  1  0
  7  6  1  0
  8  6  1  0
  9  2  1  0
 13  1  1  0
 13  2  1  0
 15  6  1  0
 16  3  1  0
 18 11  1  0
 18 17  1  0
 19 12  1  0
 20  2  1  0
 20  5  1  0
 20  9  1  0
 20 13  1  0
 21  9  1  0
 21 14  1  0
 22  4  1  0
 22 21  1  0
 24  3  1  0
 24 12  1  0
 24 23  1  0
 25  6  1  0
 25 18  1  0
 26 10  1  0
 26 11  1  0
 26 12  1  0
M  RAD  2   6   2   8   2
M  END
>  <ID>  (1) 
conformer_0

$$$$
