
     RDKit          3D

 25 27  0  0  0  0  0  0  0  0999 V2000
    5.5337   25.4034   28.9312 C   0  0  0  0  0  0  0  0  0  0  0  0
    5.3691   26.2946   23.5382 C   0  0  0  0  0  0  0  0  0  0  0  0
    6.7003   24.7497   29.4206 C   0  0  0  0  0  0  0  0  0  0  0  0
    5.5525   26.3104   25.1020 C   0  0  0  0  0  3  0  0  0  0  0  0
    4.4960   27.3233   25.6790 N   0  0  0  0  0  0  0  0  0  0  0  0
   11.7584   21.7737   28.6356 P   0  0  0  0  0  4  0  0  0  0  0  0
    6.6910   25.3759   24.3253 N   0  0  0  0  0  0  0  0  0  0  0  0
    6.1165   25.9016   26.3865 N   0  0  0  0  0  0  0  0  0  0  0  0
    9.3233   23.0352   26.5673 O   0  0  0  0  0  0  0  0  0  0  0  0
    5.3039   26.0577   22.0356 N   0  0  0  0  0  0  0  0  0  0  0  0
    8.2450   24.6290   29.3898 C   0  0  0  0  0  0  0  0  0  0  0  0
   10.5927   21.1070   28.5933 O   0  0  0  0  0  0  0  0  0  0  0  0
   11.2309   23.3962   28.1317 O   0  0  0  0  0  0  0  0  0  0  0  0
    7.4502   25.9042   28.4519 O   0  0  0  0  0  0  0  0  0  0  0  0
    3.9179   27.4020   24.6124 C   0  0  0  0  0  0  0  0  0  0  0  0
   10.0229   23.9296   27.0633 P   0  0  0  0  0  0  0  0  0  0  0  0
   12.7499   21.4784   27.3594 O   0  0  0  0  0  1  0  0  0  0  0  0
    5.2701   23.9930   30.0421 O   0  0  0  0  0  0  0  0  0  0  0  0
    4.5323   26.6873   29.5076 O   0  0  0  0  0  0  0  0  0  0  0  0
    4.0020   27.2061   23.5463 N   0  0  0  0  0  0  0  0  0  0  0  0
   12.3375   21.8678   29.7930 O   0  0  0  0  0  0  0  0  0  0  0  0
   10.4983   24.8869   26.0868 O   0  0  0  0  0  0  0  0  0  0  0  0
    6.7264   25.4165   25.6437 C   0  0  0  0  0  0  0  0  0  0  0  0
    5.5409   26.1998   28.1880 C   0  0  0  0  0  0  0  0  0  0  0  0
    9.2485   24.5359   28.0639 O   0  0  0  0  0  0  0  0  0  0  0  0
  3  1  1  0
  4  2  1  0
  5  4  1  0
  7  2  1  0
  8  4  1  0
 10  2  1  0
 11  3  1  0
 12  6  1  0
 13  6  1  0
 14  3  1  0
 14 11  1  0
 15  5  2  0
 16  9  1  0
 16 13  1  0
 17  6  1  0
 18  3  1  0
 19  1  1  0
 20  2  1  0
 20 15  1  0
 21  6  1  0
 23  7  1  0
 23  8  1  0
 23 22  2  0
 24  1  1  0
 24  8  1  0
 25 11  1  0
 25 16  1  0
M  RAD  3   4   2   6   2  17   2
M  END
>  <ID>  (1) 
conformer_0

$$$$
