
     RDKit          3D

 25 27  0  0  0  0  0  0  0  0999 V2000
    5.3995   26.5085   24.9271 C   0  0  0  0  0  0  0  0  0  0  0  0
    5.8263   26.1987   28.0328 C   0  0  0  0  0  0  0  0  0  0  0  0
    5.6459   25.4084   28.9105 C   0  0  0  0  0  0  0  0  0  0  0  0
    6.3910   25.7765   25.5406 C   0  0  0  0  0  0  0  0  0  0  0  0
    4.6122   27.4352   25.6677 N   0  0  0  0  0  2  0  0  0  0  0  0
    7.4823   26.2215   28.4487 O   0  0  0  0  0  0  0  0  0  0  0  0
   11.6592   21.7736   28.5548 P   0  0  0  0  0  4  0  0  0  0  0  0
    6.8774   24.7791   29.2367 C   0  0  0  0  0  0  0  0  0  0  0  0
    5.2759   25.9866   22.1772 N   0  0  0  0  0  0  0  0  0  0  0  0
    9.3147   22.9920   26.4604 O   0  0  0  0  0  0  0  0  0  0  0  0
    6.2342   26.1757   26.4132 N   0  0  0  0  0  0  0  0  0  0  0  0
   12.2048   21.2290   29.6406 O   0  0  0  0  0  0  0  0  0  0  0  0
    3.8514   27.2431   23.3649 N   0  0  0  0  0  0  0  0  0  0  0  0
   10.3868   24.9234   26.0185 O   0  0  0  0  0  0  0  0  0  0  0  0
   11.3346   23.2096   28.2330 O   0  0  0  0  0  0  0  0  0  0  0  0
    6.4224   25.3389   24.3839 N   0  0  0  0  0  0  0  0  0  0  0  0
    3.7940   27.6415   24.6090 C   0  0  0  0  0  0  0  0  0  0  0  0
    4.4370   26.3051   29.5509 O   0  0  0  0  0  0  0  0  0  0  0  0
   10.0261   24.1604   26.9113 P   0  0  0  0  0  0  0  0  0  0  0  0
    5.6861   24.2291   30.3270 O   0  0  0  0  0  0  0  0  0  0  0  0
   12.4970   21.2789   27.3129 O   0  0  0  0  0  1  0  0  0  0  0  0
    9.3293   24.6565   27.8475 O   0  0  0  0  0  0  0  0  0  0  0  0
   10.2395   21.1663   28.5794 O   0  0  0  0  0  0  0  0  0  0  0  0
    8.4168   24.7086   29.1763 C   0  0  0  0  0  0  0  0  0  0  0  0
    5.0511   26.2648   23.2923 C   0  0  0  0  0  0  0  0  0  0  0  0
  3  2  1  0
  4  1  1  0
  5  1  1  0
  6  2  1  0
  8  3  1  0
  8  6  1  0
 11  2  1  0
 11  4  1  0
 12  7  1  0
 15  7  1  0
 16  1  1  0
 16  4  2  0
 17  5  1  0
 17 13  2  0
 18  3  1  0
 19 10  1  0
 19 14  1  0
 19 15  1  0
 20  8  1  0
 21  7  1  0
 23  7  1  0
 24  8  1  0
 24 14  1  0
 24 22  1  0
 25  1  1  0
 25  9  1  0
 25 13  1  0
M  RAD  3   5   2   7   2  21   2
M  END
>  <ID>  (1) 
conformer_0

$$$$
