
     RDKit          3D

 25 26  0  0  0  0  0  0  0  0999 V2000
    5.4651   26.5161   24.6705 C   0  0  0  0  0  0  0  0  0  0  0  0
    5.7966   25.3797   28.9035 C   0  0  0  0  0  0  0  0  0  0  0  0
    6.9926   24.7569   29.5858 C   0  0  0  0  0  0  0  0  0  0  0  0
    6.3054   25.6509   25.6046 C   0  0  0  0  0  0  0  0  0  0  0  0
    4.6350   27.4907   25.7003 N   0  0  0  0  0  2  0  0  0  0  0  0
    6.0447   25.9314   26.4207 N   0  0  0  0  0  0  0  0  0  0  0  0
   11.6153   21.7018   28.5908 P   0  0  0  0  0  4  0  0  0  0  0  0
    6.5297   25.5346   24.3414 N   0  0  0  0  0  0  0  0  0  0  0  0
    8.4721   24.8598   29.5582 C   0  0  0  0  0  0  0  0  0  0  0  0
    5.0734   26.0449   21.8780 N   0  0  0  0  0  0  0  0  0  0  0  0
   10.3459   24.8210   26.2725 O   0  0  0  0  0  0  0  0  0  0  0  0
   10.3815   21.1349   28.7969 O   0  0  0  0  0  0  0  0  0  0  0  0
    7.4928   26.1093   28.5039 O   0  0  0  0  0  0  0  0  0  0  0  0
   12.5573   20.9036   27.4775 O   0  0  0  0  0  1  0  0  0  0  0  0
    3.8727   27.4873   23.4542 N   0  0  0  0  0  0  0  0  0  0  0  0
    5.1126   26.4370   23.2971 C   0  0  0  0  0  0  0  0  0  0  0  0
    9.0916   22.7722   26.8836 O   0  0  0  0  0  0  0  0  0  0  0  0
    9.9655   24.0425   27.1292 P   0  0  0  0  0  0  0  0  0  0  0  0
    4.4782   26.5844   29.3439 O   0  0  0  0  0  0  0  0  0  0  0  0
   12.1486   21.9993   29.7723 O   0  0  0  0  0  0  0  0  0  0  0  0
   11.3227   23.1330   27.7598 O   0  0  0  0  0  0  0  0  0  0  0  0
    9.2653   24.5564   28.1318 O   0  0  0  0  0  0  0  0  0  0  0  0
    3.8738   27.6668   24.6363 C   0  0  0  0  0  0  0  0  0  0  0  0
    5.5821   25.9920   28.0956 C   0  0  0  0  0  0  0  0  0  0  0  0
    4.9978   24.6547   30.0673 O   0  0  0  0  0  0  0  0  0  0  0  0
  3  2  1  0
  4  1  1  0
  5  1  1  0
  6  4  1  0
  8  1  1  0
  8  4  2  0
  9  3  1  0
 11  9  1  0
 12  7  1  0
 13  3  1  0
 14  7  1  0
 16  1  1  0
 16 10  1  0
 16 15  1  0
 18 11  1  0
 18 17  1  0
 20  7  1  0
 21  7  1  0
 21 18  1  0
 22  9  1  0
 23  5  1  0
 23 15  2  0
 24  2  1  0
 24  6  1  0
 24 19  1  0
 25  2  1  0
M  RAD  3   5   2   7   2  14   2
M  END
>  <ID>  (1) 
conformer_0

$$$$
