
     RDKit          3D

 24 26  0  0  0  0  0  0  0  0999 V2000
    5.9191   25.7773   28.0943 C   0  0  0  0  0  0  0  0  0  0  0  0
    5.5792   26.4485   24.8538 C   0  0  0  0  0  0  0  0  0  0  0  0
    6.1291   25.0967   28.8826 C   0  0  0  0  0  0  0  0  0  0  0  0
    7.0465   25.5568   25.5895 C   0  0  0  0  0  0  0  0  0  0  0  0
    4.6534   27.4443   25.6316 N   0  0  0  0  0  2  0  0  0  0  0  0
    6.6833   25.5497   24.2914 N   0  0  0  0  0  0  0  0  0  0  0  0
   11.9066   21.4097   28.6533 P   0  0  0  0  0  4  0  0  0  0  0  0
    4.6231   26.2326   22.1914 N   0  0  0  0  0  0  0  0  0  0  0  0
    6.5738   25.8639   26.3491 N   0  0  0  0  0  0  0  0  0  0  0  0
    4.9913   26.5323   23.6578 C   0  0  0  0  0  0  0  0  0  0  0  0
    7.8471   25.8637   28.4953 O   0  0  0  0  0  0  0  0  0  0  0  0
    7.3576   24.6058   29.6766 C   0  0  0  0  0  0  0  0  0  0  0  0
   11.6371   23.3621   27.8923 O   0  0  0  0  0  0  0  0  0  0  0  0
    9.4452   22.2661   27.5892 O   0  0  0  0  0  0  0  0  0  0  0  0
    6.0981   24.2356   30.7178 O   0  0  0  0  0  0  0  0  0  0  0  0
   11.0038   21.3568   29.5465 O   0  0  0  0  0  0  0  0  0  0  0  0
    4.6730   26.0690   29.3605 O   0  0  0  0  0  0  0  0  0  0  0  0
   11.9375   20.6132   27.7438 O   0  0  0  0  0  1  0  0  0  0  0  0
    3.5621   27.6350   24.7592 C   0  0  0  0  0  0  0  0  0  0  0  0
    3.4356   27.5290   23.7602 N   0  0  0  0  0  0  0  0  0  0  0  0
    8.8718   24.7073   29.4012 C   0  0  0  0  0  0  0  0  0  0  0  0
   10.6727   23.5174   27.7061 P   0  0  0  0  0  0  0  0  0  0  0  0
   13.1541   21.7145   28.9735 O   0  0  0  0  0  0  0  0  0  0  0  0
    9.9266   24.5067   27.8707 O   0  0  0  0  0  0  0  0  0  0  0  0
  3  1  1  0
  4  2  1  0
  5  2  1  0
  6  2  1  0
  6  4  2  0
  9  1  1  0
  9  4  1  0
 10  2  1  0
 10  8  1  0
 12  3  1  0
 12 11  1  0
 13  7  1  0
 15 12  1  0
 16  7  1  0
 17  1  1  0
 18  7  1  0
 19  5  1  0
 20 10  1  0
 20 19  2  0
 21 11  1  0
 21 12  1  0
 22 13  1  0
 22 14  1  0
 23  7  1  0
 24 21  1  0
 24 22  1  0
M  RAD  3   5   2   7   2  18   2
M  END
>  <ID>  (1) 
conformer_0

$$$$
