
     RDKit          3D

 25 26  0  0  0  0  0  0  0  0999 V2000
    5.5754   26.3340   25.0023 C   0  0  0  0  0  3  0  0  0  0  0  0
    7.9314   24.4532   29.2324 C   0  0  0  0  0  0  0  0  0  0  0  0
    6.9802   25.1101   29.3931 C   0  0  2  0  0  0  0  0  0  0  0  0
    6.5863   25.6813   25.6007 C   0  0  0  0  0  0  0  0  0  0  0  0
    4.5244   27.3920   25.5567 N   0  0  0  0  0  0  0  0  0  0  0  0
    6.1535   26.2495   26.4588 N   0  0  0  0  0  0  0  0  0  0  0  0
   11.9474   21.7266   28.3162 P   0  0  0  0  0  5  0  0  0  0  0  0
    6.5899   25.4355   24.2878 N   0  0  0  0  0  0  0  0  0  0  0  0
   11.3020   23.1803   28.1476 O   0  0  0  0  0  0  0  0  0  0  0  0
    5.0479   26.1045   21.9954 N   0  0  0  0  0  0  0  0  0  0  0  0
   10.7114   20.8028   28.5483 O   0  0  0  0  0  0  0  0  0  0  0  0
    5.6329   25.4465   29.0722 C   0  0  0  0  0  0  0  0  0  0  0  0
    3.8983   27.4074   24.6986 C   0  0  0  0  0  0  0  0  0  0  0  0
   10.4563   24.7874   26.3907 O   0  0  0  0  0  0  0  0  0  0  0  0
   10.0913   24.0119   27.3309 P   0  0  0  0  0  0  0  0  0  0  0  0
    4.4097   26.6378   29.4146 O   0  0  0  0  0  0  0  0  0  0  0  0
    7.4557   26.0422   27.9625 O   0  0  0  0  0  0  0  0  0  0  0  0
    9.0200   22.8029   26.7709 O   0  0  0  0  0  0  0  0  0  0  0  0
   12.6281   21.3962   27.1712 O   0  0  0  0  0  0  0  0  0  0  0  0
    9.2805   24.3816   28.0736 O   0  0  0  0  0  0  0  0  0  0  0  0
    3.8008   27.2028   23.3783 N   0  0  0  0  0  0  0  0  0  0  0  0
    5.2952   24.5851   30.1900 O   0  0  0  0  0  0  0  0  0  0  0  0
    5.0908   26.2700   23.4015 C   0  0  0  0  0  0  0  0  0  0  0  0
    5.6793   26.3825   28.1255 C   0  0  1  0  0  0  0  0  0  0  0  0
   12.6276   21.2760   29.0098 O   0  0  0  0  0  0  0  0  0  0  0  0
  3  2  1  6
  4  1  1  0
  5  1  1  0
  6  4  1  0
  8  1  1  0
  8  4  2  0
  9  7  1  0
 11  7  1  0
 12  3  1  0
 13  5  1  0
 14  7  1  0
 15 14  1  0
 16 12  1  0
 17  3  1  0
 18 15  1  0
 19  7  1  0
 20  2  1  0
 20 15  1  0
 21 13  1  0
 22 12  1  0
 23 10  1  0
 23 21  2  3
 24  6  1  6
 24 12  1  0
 24 17  1  0
 25  7  1  0
M  RAD  1   1   2
M  END
>  <ID>  (1) 
conformer_0

$$$$
