
     RDKit          3D

 26 27  0  0  0  0  0  0  0  0999 V2000
    5.7893   26.1821   27.8738 C   0  0  0  0  0  0  0  0  0  0  0  0
    5.3268   26.3655   25.1649 C   0  0  0  0  0  0  0  0  0  0  0  0
    5.4459   25.4897   28.6949 C   0  0  0  0  0  0  0  0  0  0  0  0
    6.7089   25.0573   25.6140 C   0  0  0  0  0  0  0  0  0  0  0  0
    3.8015   27.1118   23.0865 N   0  0  0  0  0  0  0  0  0  0  0  0
    6.0530   25.8031   26.1558 N   0  0  0  0  0  0  0  0  0  0  0  0
   11.9233   21.9074   28.6359 P   0  0  0  0  0  5  0  0  0  0  0  0
    6.3573   25.1533   24.2575 N   0  0  0  0  0  0  0  0  0  0  0  0
   10.9872   25.0657   26.8300 O   0  0  0  0  0  0  0  0  0  0  0  0
    5.3835   25.8444   23.9361 C   0  0  0  0  0  0  0  0  0  0  0  0
    7.3632   26.3148   28.4390 O   0  0  0  0  0  0  0  0  0  0  0  0
    6.6199   24.7545   29.3649 C   0  0  0  0  0  0  0  0  0  0  0  0
   11.2188   23.3568   28.2797 O   0  0  0  0  0  0  0  0  0  0  0  0
    5.0760   25.6914   21.7733 N   0  0  0  0  0  0  0  0  0  0  0  0
    4.5419   27.3788   25.3241 N   0  0  0  0  0  0  0  0  0  0  0  0
   12.8147   22.1774   29.5429 O   0  0  0  0  0  0  0  0  0  0  0  0
   10.3867   24.2855   27.6179 P   0  0  0  0  0  0  0  0  0  0  0  0
    4.2592   26.3538   29.2703 O   0  0  0  0  0  0  0  0  0  0  0  0
    9.2195   22.5590   27.4375 O   0  0  0  0  0  0  0  0  0  0  0  0
    5.1884   24.2603   30.1138 O   0  0  0  0  0  0  0  0  0  0  0  0
    9.2096   24.7245   28.1664 O   0  0  0  0  0  0  0  0  0  0  0  0
    3.4884   27.6560   24.3325 C   0  0  0  0  0  0  0  0  0  0  0  0
   10.9619   21.0220   29.1117 O   0  0  0  0  0  0  0  0  0  0  0  0
   12.2338   21.5009   27.4077 O   0  0  0  0  0  0  0  0  0  0  0  0
    8.0567   24.7897   29.2907 C   0  0  0  0  0  0  0  0  0  0  0  0
    4.6838   26.3125   22.8999 C   0  0  0  0  0  0  0  0  0  0  0  0
  3  1  1  0
  6  1  1  0
  6  2  1  0
  6  4  1  0
  8  4  2  0
  9  7  1  0
 10  2  2  0
 10  8  1  0
 11  1  1  0
 12  3  1  0
 13  7  1  0
 15  2  1  0
 16  7  1  0
 17  9  1  0
 18  3  1  0
 19 17  1  0
 20 12  1  0
 21 17  1  0
 22  5  1  0
 22 15  2  0
 23  7  1  0
 24  7  1  0
 25 12  1  0
 25 21  1  0
 26  5  2  0
 26 10  1  0
 26 14  1  0
M  END
>  <ID>  (1) 
conformer_0

$$$$
