
     RDKit          3D

 26 27  0  0  0  0  0  0  0  0999 V2000
    6.9953   24.5971   29.2477 C   0  0  0  0  0  0  0  0  0  0  0  0
    6.8446   25.8616   25.6433 C   0  0  0  0  0  0  0  0  0  0  0  0
    5.5721   25.2343   28.7220 C   0  0  0  0  0  0  0  0  0  0  0  0
    4.2329   27.3806   26.1362 N   0  0  0  0  0  0  0  0  0  0  0  0
    3.4500   27.7287   24.9972 C   0  0  0  0  0  0  0  0  0  0  0  0
    6.6495   25.8590   24.3646 N   0  0  0  0  0  0  0  0  0  0  0  0
    6.1447   26.2789   26.4817 N   0  0  0  0  0  0  0  0  0  0  0  0
    9.6196   23.0010   26.5090 O   0  0  0  0  0  0  0  0  0  0  0  0
    9.2295   24.3891   28.2956 O   0  0  0  0  0  0  0  0  0  0  0  0
   10.2042   23.9153   27.3932 P   0  0  0  0  0  0  0  0  0  0  0  0
    7.4655   26.1045   28.1606 O   0  0  0  0  0  0  0  0  0  0  0  0
    5.5024   26.3522   22.1064 N   0  0  0  0  0  0  0  0  0  0  0  0
   12.7744   21.2584   27.5329 O   0  0  0  0  0  0  0  0  0  0  0  0
    8.3075   24.4632   29.3314 C   0  0  0  0  0  0  0  0  0  0  0  0
    3.9793   27.3681   23.7809 N   0  0  0  0  0  0  0  0  0  0  0  0
    4.9608   26.7008   23.4182 C   0  0  0  0  0  0  0  0  0  0  0  0
   11.1651   21.0714   29.0106 O   0  0  0  0  0  0  0  0  0  0  0  0
    4.4577   25.5311   29.4938 O   0  0  0  0  0  0  0  0  0  0  0  0
   10.7812   25.0496   26.6296 O   0  0  0  0  0  0  0  0  0  0  0  0
   11.7293   21.8063   28.5571 P   0  0  0  0  0  5  0  0  0  0  0  0
    5.6317   26.3853   24.4550 C   0  0  0  0  0  0  0  0  0  0  0  0
   11.1331   23.1171   28.1424 O   0  0  0  0  0  0  0  0  0  0  0  0
    5.8173   24.0945   30.2404 O   0  0  0  0  0  0  0  0  0  0  0  0
    6.2005   26.0482   28.0111 C   0  0  0  0  0  0  0  0  0  0  0  0
   12.4501   22.4257   29.7726 O   0  0  0  0  0  0  0  0  0  0  0  0
    4.9168   26.8876   26.1289 C   0  0  0  0  0  0  0  0  0  0  0  0
  3  1  1  0
  5  4  1  0
  6  2  2  0
  7  2  1  0
 10  8  1  0
 10  9  1  0
 14  1  1  0
 14  9  1  0
 15  5  2  0
 16 12  1  0
 16 15  1  0
 18  3  1  0
 20 13  1  0
 20 17  1  0
 20 19  1  0
 21  6  1  0
 21 16  2  0
 22 10  1  0
 22 20  1  0
 23  1  1  0
 24  3  1  0
 24  7  1  0
 24 11  2  0
 25 20  1  0
 26  4  2  0
 26  7  1  0
 26 21  1  0
M  END
>  <ID>  (1) 
conformer_0

$$$$
