
     RDKit          3D

 27 28  0  0  0  0  0  0  0  0999 V2000
    6.8131   25.6661   25.7690 C   0  0  0  0  0  0  0  0  0  0  0  0
    5.9629   25.1607   28.8502 C   0  0  0  0  0  0  0  0  0  0  0  0
    5.9080   26.3375   28.2458 C   0  0  0  0  0  0  0  0  0  0  0  0
    4.6568   26.6342   23.5561 C   0  0  0  0  0  0  0  0  0  0  0  0
    4.1636   27.5292   26.1647 N   0  0  0  0  0  0  0  0  0  0  0  0
    6.3792   25.5015   24.5839 N   0  0  0  0  0  0  0  0  0  0  0  0
   11.3333   21.4288   28.9307 P   0  0  0  0  0  5  0  0  0  0  0  0
    4.5753   26.1968   22.2179 N   0  0  0  0  0  0  0  0  0  0  0  0
    7.3029   26.5151   28.3745 O   0  0  0  0  0  0  0  0  0  0  0  0
    9.2553   23.1423   26.4745 O   0  0  0  0  0  0  0  0  0  0  0  0
    5.8554   26.4363   26.7465 N   0  0  0  0  0  0  0  0  0  0  0  0
   10.2126   23.9725   27.4301 P   0  0  0  0  0  0  0  0  0  0  0  0
    5.2529   26.3475   24.4050 C   0  0  0  0  0  0  0  0  0  0  0  0
    9.1612   24.7816   28.1924 O   0  0  0  0  0  0  0  0  0  0  0  0
    7.2171   24.9886   29.4604 C   0  0  0  0  0  0  0  0  0  0  0  0
    9.2806   21.5941   28.5870 O   0  0  0  0  0  0  0  0  0  0  0  0
    4.6780   26.1962   29.5964 O   0  0  0  0  0  0  0  0  0  0  0  0
    3.6095   27.4462   24.0584 N   0  0  0  0  0  0  0  0  0  0  0  0
   10.9423   23.3844   28.4463 O   0  0  0  0  0  0  0  0  0  0  0  0
   11.5649   21.6445   30.3411 O   0  0  0  0  0  0  0  0  0  0  0  0
   10.8002   24.9309   26.6140 O   0  0  0  0  0  0  0  0  0  0  0  0
    3.3122   27.7856   25.1717 C   0  0  0  0  0  0  0  0  0  0  0  0
    5.4597   24.2499   29.8077 O   0  0  0  0  0  0  0  0  0  0  0  0
    8.5841   25.1945   29.3664 C   0  0  0  0  0  0  0  0  0  0  0  0
   12.3582   21.5680   27.8795 O   0  0  0  0  0  0  0  0  0  0  0  0
   11.0950   20.3479   28.6890 O   0  0  0  0  0  0  0  0  0  0  0  0
    5.1393   26.8403   25.8577 C   0  0  0  0  0  0  0  0  0  0  0  0
  3  2  1  0
  6  1  2  0
  8  4  1  0
  9  3  1  0
 11  1  1  0
 11  3  1  0
 12 10  1  0
 13  4  2  0
 13  6  1  0
 15  2  1  0
 16  7  1  0
 17  2  1  0
 18  4  1  0
 19  7  1  0
 19 12  1  0
 20  7  1  0
 21 12  1  0
 22  5  1  0
 22 18  2  0
 23  2  1  0
 24 14  1  0
 24 15  1  0
 24 21  1  0
 25  7  1  0
 26  7  1  0
 27  5  2  0
 27 11  1  0
 27 13  1  0
M  END
>  <ID>  (1) 
conformer_0

$$$$
