
     RDKit          3D

 24 26  0  0  0  0  0  0  0  0999 V2000
    5.1244   26.1851   23.3043 C   0  0  0  0  0  0  0  0  0  0  0  0
    5.6839   25.3236   29.0048 C   0  0  0  0  0  0  0  0  0  0  0  0
    6.9413   24.6253   29.5095 C   0  0  0  0  0  0  0  0  0  0  0  0
    6.3633   25.8166   25.6639 C   0  0  0  0  0  0  0  0  0  0  0  0
    4.4238   27.3898   25.5618 N   0  0  0  0  0  0  0  0  0  0  0  0
    6.0596   26.1648   26.4646 N   0  0  0  0  0  0  0  0  0  0  0  0
   10.1394   23.9679   27.0637 P   0  0  0  0  0  0  0  0  0  0  0  0
    7.3736   26.2221   28.4121 O   0  0  0  0  0  0  0  0  0  0  0  0
    8.3373   24.9422   29.1302 C   0  0  0  0  0  0  0  0  0  0  0  0
    9.1362   22.7946   26.9186 O   0  0  0  0  0  0  0  0  0  0  0  0
    3.7878   27.1260   23.2734 N   0  0  0  0  0  0  0  0  0  0  0  0
   12.2747   22.0749   29.4106 O   0  0  0  0  0  0  0  0  0  0  0  0
    6.6221   25.5770   24.3930 N   0  0  0  0  0  0  0  0  0  0  0  0
    5.4613   26.3662   24.7738 C   0  0  0  0  0  0  0  0  0  0  0  0
   12.5026   21.1260   27.4005 O   0  0  0  0  0  1  0  0  0  0  0  0
   11.2528   23.2461   27.8027 O   0  0  0  0  0  0  0  0  0  0  0  0
    5.2832   25.9298   21.8727 N   0  0  0  0  0  0  0  0  0  0  0  0
    4.2665   26.2696   29.4004 O   0  0  0  0  0  0  0  0  0  0  0  0
   11.8676   21.9186   28.4730 P   0  0  0  0  0  4  0  0  0  0  0  0
   10.4089   24.6770   25.9142 O   0  0  0  0  0  0  0  0  0  0  0  0
    3.8232   27.3760   24.4401 C   0  0  0  0  0  0  0  0  0  0  0  0
    5.3601   24.6960   30.5756 O   0  0  0  0  0  0  0  0  0  0  0  0
    5.5971   26.0855   28.1695 C   0  0  0  0  0  0  0  0  0  0  0  0
    9.3695   24.6651   28.0155 O   0  0  0  0  0  0  0  0  0  0  0  0
  3  2  1  0
  6  4  1  0
  9  3  1  0
  9  8  1  0
 10  7  1  0
 11  1  2  0
 13  4  2  0
 14  1  1  0
 14  4  1  0
 14  5  1  0
 14 13  1  0
 16  7  1  0
 17  1  1  0
 18  2  1  0
 19 12  1  0
 19 15  1  0
 19 16  1  0
 20  7  1  0
 20  9  1  0
 21  5  2  0
 21 11  1  0
 22  2  1  0
 23  2  1  0
 23  6  1  0
 23  8  1  0
 24  9  1  0
M  RAD  2  15   2  19   2
M  END
>  <ID>  (1) 
conformer_0

$$$$
