
     RDKit          3D

 27 29  0  0  0  0  0  0  0  0999 V2000
    4.8257   26.4209   23.1123 C   0  0  0  0  0  0  0  0  0  0  0  0
    5.8070   26.3402   27.7798 C   0  0  0  0  0  0  0  0  0  0  0  0
    5.2921   25.7530   28.7900 C   0  0  0  0  0  0  0  0  0  0  0  0
    6.7662   25.3911   25.8760 C   0  0  0  0  0  0  0  0  0  0  0  0
    9.3124   23.1253   26.5151 O   0  0  0  0  0  0  0  0  0  0  0  0
    4.0341   27.1428   23.1763 N   0  0  0  0  0  0  0  0  0  0  0  0
    6.4045   24.3955   29.2467 C   0  0  0  0  0  0  0  0  0  0  0  0
    6.1145   26.0690   26.3849 N   0  0  0  0  0  0  0  0  0  0  0  0
   11.6099   21.9119   28.5266 P   0  0  0  0  0  5  0  0  0  0  0  0
    5.3209   25.8057   21.9938 N   0  0  0  0  0  0  0  0  0  0  0  0
   10.7401   25.0437   26.4250 O   0  0  0  0  0  1  0  0  0  0  0  0
   10.8046   21.0138   28.5303 O   0  0  0  0  0  0  0  0  0  0  0  0
    7.4022   26.0456   28.3753 O   0  0  0  0  0  0  0  0  0  0  0  0
   12.5733   21.6007   27.2946 O   0  0  0  0  0  0  0  0  0  0  0  0
    3.5091   27.7035   24.4402 C   0  0  0  0  0  0  0  0  0  0  0  0
    6.5458   25.4213   24.3126 N   0  0  0  0  0  0  0  0  0  0  0  0
    4.4369   26.6279   29.2140 O   0  0  0  0  0  0  0  0  0  0  0  0
    9.9522   24.1108   27.1094 P   0  0  0  0  0  4  0  0  0  0  0  0
    4.5602   27.3711   25.4759 N   0  0  0  0  0  0  0  0  0  0  0  0
    5.2760   24.5669   30.1911 O   0  0  0  0  0  0  0  0  0  0  0  0
   12.2517   22.0994   29.7202 O   0  0  0  0  0  0  0  0  0  0  0  0
   11.1770   23.3902   28.0694 O   0  0  0  0  0  0  0  0  0  0  0  0
    7.2656   25.3407   29.4405 C   0  0  0  0  0  0  0  0  0  0  0  0
    5.8189   26.0808   24.1835 C   0  0  0  0  0  0  0  0  0  0  0  0
    9.1002   24.5086   28.1668 O   0  0  0  0  0  0  0  0  0  0  0  0
    5.2186   26.6355   25.4764 C   0  0  0  0  0  0  0  0  0  0  0  0
    8.8690   24.3734   29.2621 C   0  0  0  0  0  0  0  0  0  0  0  0
  3  2  1  0
  6  1  2  0
  7  3  1  0
  8  2  1  0
  8  4  1  0
 10  1  1  0
 12  9  1  0
 13  2  1  0
 14  9  1  0
 15  6  1  0
 16  4  2  0
 17  3  1  0
 18  5  1  0
 18 11  1  0
 19 15  2  0
 20  7  1  0
 21  9  1  0
 22  9  1  0
 23  7  1  0
 23 13  1  0
 24  1  1  0
 24 16  1  0
 25 18  1  0
 26  8  1  0
 26 19  1  0
 26 24  2  0
 27  9  1  0
 27 23  1  0
 27 25  1  0
M  RAD  2  11   2  18   2
M  END
>  <ID>  (1) 
conformer_0

$$$$
