
     RDKit          3D

 27 29  0  0  0  0  0  0  0  0999 V2000
    5.5048   26.5442   25.3312 C   0  0  0  0  0  0  0  0  0  0  0  0
    5.5001   25.6447   28.7237 C   0  0  0  0  0  0  0  0  0  0  0  0
    6.5118   24.6601   29.3779 C   0  0  0  0  0  0  0  0  0  0  0  0
    7.1410   25.5610   25.8184 C   0  0  0  0  0  0  0  0  0  0  0  0
    3.8739   27.0786   23.1723 N   0  0  0  0  0  0  0  0  0  0  0  0
    5.9068   26.1899   27.7950 C   0  0  0  0  0  0  0  0  0  0  0  0
   12.0244   21.7805   28.3048 P   0  0  0  0  0  4  0  0  0  0  0  0
    7.5698   26.0738   28.4597 O   0  0  0  0  0  0  0  0  0  0  0  0
    6.3485   26.0963   26.4476 N   0  0  0  0  0  0  0  0  0  0  0  0
   10.9991   21.0949   28.6609 O   0  0  0  0  0  0  0  0  0  0  0  0
    6.7308   25.4036   24.3515 N   0  0  0  0  0  0  0  0  0  0  0  0
    5.1114   26.0516   21.6896 N   0  0  0  0  0  0  0  0  0  0  0  0
   11.4213   23.2790   27.8901 O   0  0  0  0  0  0  0  0  0  0  0  0
    9.2810   22.6984   27.0347 O   0  0  0  0  0  0  0  0  0  0  0  0
   12.7034   21.1700   27.0071 O   0  0  0  0  0  1  0  0  0  0  0  0
    5.7267   25.9999   24.0694 C   0  0  0  0  0  0  0  0  0  0  0  0
    5.8486   24.2715   30.4248 O   0  0  0  0  0  0  0  0  0  0  0  0
   10.2172   23.9472   27.1315 P   0  0  0  0  0  0  0  0  0  0  0  0
    4.6584   27.2511   25.3644 N   0  0  0  0  0  0  0  0  0  0  0  0
    4.4202   26.1391   29.3055 O   0  0  0  0  0  0  0  0  0  0  0  0
   10.4731   24.6450   26.0890 O   0  0  0  0  0  0  0  0  0  0  0  0
    7.6581   24.9539   29.4952 C   0  0  0  0  0  0  0  0  0  0  0  0
   12.9091   22.1497   29.1288 O   0  0  0  0  0  0  0  0  0  0  0  0
    9.5264   24.5670   28.1629 O   0  0  0  0  0  0  0  0  0  0  0  0
    3.6299   27.5582   24.3572 C   0  0  0  0  0  0  0  0  0  0  0  0
    4.8667   26.3366   22.9792 C   0  0  0  0  0  0  0  0  0  0  0  0
    9.0484   24.3721   29.3954 C   0  0  0  0  0  0  0  0  0  0  0  0
  3  2  1  0
  6  2  1  0
  8  6  1  0
  9  1  1  0
  9  4  1  0
  9  6  1  0
 10  7  1  0
 11  4  2  0
 13  7  1  0
 15  7  1  0
 16  1  2  0
 16 11  1  0
 17  3  1  0
 18 13  1  0
 18 14  1  0
 19  1  1  0
 20  2  1  0
 21  4  1  0
 21 18  1  0
 22  3  1  0
 22  8  1  0
 23  7  1  0
 25  5  1  0
 25 19  2  0
 26  5  2  0
 26 12  1  0
 26 16  1  0
 27 22  1  0
 27 24  1  0
M  RAD  2   7   2  15   2
M  END
>  <ID>  (1) 
conformer_0

$$$$
