
     RDKit          3D

 26 28  0  0  0  0  0  0  0  0999 V2000
    5.8462   25.5532   28.9067 C   0  0  0  0  0  0  0  0  0  0  0  0
    4.4416   26.5030   23.2078 C   0  0  0  0  0  0  0  0  0  0  0  0
    6.9113   24.8003   29.6869 C   0  0  0  0  0  0  0  0  0  0  0  0
    6.7149   25.8244   25.7892 C   0  0  0  0  0  0  0  0  0  0  0  0
    3.5100   27.2472   23.6072 N   0  0  0  0  0  0  0  0  0  0  0  0
   11.6226   21.7886   28.3304 P   0  0  0  0  0  4  0  0  0  0  0  0
   11.4211   23.1960   27.7806 O   0  0  0  0  0  0  0  0  0  0  0  0
    4.5708   25.8994   22.1106 N   0  0  0  0  0  0  0  0  0  0  0  0
    7.7310   26.1248   28.4805 O   0  0  0  0  0  0  0  0  0  0  0  0
    6.3186   25.7260   24.5171 N   0  0  0  0  0  0  0  0  0  0  0  0
   12.4910   21.0604   27.2290 O   0  0  0  0  0  1  0  0  0  0  0  0
   11.7343   21.2667   29.2523 O   0  0  0  0  0  0  0  0  0  0  0  0
    3.1709   27.8124   24.7983 C   0  0  0  0  0  0  0  0  0  0  0  0
    9.0711   23.2274   26.2853 O   0  0  0  0  0  0  0  0  0  0  0  0
    8.2655   24.8728   29.3762 C   0  0  0  0  0  0  0  0  0  0  0  0
   10.0186   24.1562   27.0521 P   0  0  0  0  0  0  0  0  0  0  0  0
    4.5447   26.6122   29.1992 O   0  0  0  0  0  0  0  0  0  0  0  0
    6.1048   26.2964   26.5566 N   0  0  0  0  0  0  0  0  0  0  0  0
    4.6226   27.4816   25.6573 N   0  0  0  0  0  0  0  0  0  0  0  0
   10.3961   24.9648   25.9677 O   0  0  0  0  0  0  0  0  0  0  0  0
    5.4986   24.9029   30.5962 O   0  0  0  0  0  0  0  0  0  0  0  0
    9.4436   24.5473   27.9250 O   0  0  0  0  0  0  0  0  0  0  0  0
    9.8143   21.6095   28.4213 O   0  0  0  0  0  0  0  0  0  0  0  0
    5.9505   26.3366   28.1929 C   0  0  0  0  0  0  0  0  0  0  0  0
    5.3038   26.0872   24.1131 C   0  0  0  0  0  0  0  0  0  0  0  0
    4.9798   26.9225   25.5130 C   0  0  0  0  0  0  0  0  0  0  0  0
  3  1  1  0
  5  2  2  0
  7  6  1  0
  8  2  1  0
 10  4  1  0
 11  6  1  0
 12  6  1  0
 13  5  1  0
 15  3  1  0
 15  9  1  0
 16  7  1  0
 16 14  1  0
 17  1  1  0
 18  4  1  0
 19 13  2  0
 20  4  2  0
 21  3  1  0
 22 15  1  0
 22 16  1  0
 23  6  1  0
 24  1  1  0
 24  9  1  0
 24 18  1  0
 25  2  1  0
 25 10  1  0
 26 18  1  0
 26 19  1  0
 26 25  2  0
M  RAD  2   6   2  11   2
M  END
>  <ID>  (1) 
conformer_0

$$$$
