
     RDKit          3D

 27 29  0  0  0  0  0  0  0  0999 V2000
    6.4052   25.1947   25.8475 C   0  0  0  0  0  0  0  0  0  0  0  0
    5.1173   25.3940   28.8183 C   0  0  0  0  0  0  0  0  0  0  0  0
    6.6328   24.2050   29.5292 C   0  0  0  0  0  0  0  0  0  0  0  0
    4.8043   26.3501   23.0164 C   0  0  0  0  0  0  0  0  0  0  0  0
    6.3118   25.1633   24.5093 N   0  0  0  0  0  0  0  0  0  0  0  0
    4.6287   27.4647   25.7067 N   0  0  0  0  0  0  0  0  0  0  0  0
    9.9184   24.0936   27.1990 P   0  0  0  0  0  0  0  0  0  0  0  0
    8.9919   23.0751   26.6002 O   0  0  0  0  0  0  0  0  0  0  0  0
   10.3391   21.1088   28.5909 O   0  0  0  0  0  0  0  0  0  0  0  0
    5.2757   25.8380   21.9467 N   0  0  0  0  0  0  0  0  0  0  0  0
    5.4925   26.0464   24.0471 C   0  0  0  0  0  0  0  0  0  0  0  0
    5.9817   25.9805   26.5290 N   0  0  0  0  0  0  0  0  0  0  0  0
   11.2845   23.3870   27.9441 O   0  0  0  0  0  0  0  0  0  0  0  0
    3.8838   27.2908   23.3563 N   0  0  0  0  0  0  0  0  0  0  0  0
    7.5084   25.8547   28.4909 O   0  0  0  0  0  0  0  0  0  0  0  0
   12.5117   21.5159   27.2601 O   0  0  0  0  0  0  0  0  0  0  0  0
    8.2902   24.7011   29.5313 C   0  0  0  0  0  0  0  0  0  0  0  0
    4.7924   26.8314   29.7826 O   0  0  0  0  0  0  0  0  0  0  0  0
   11.5706   22.0924   28.3844 P   0  0  0  0  0  5  0  0  0  0  0  0
   10.3686   24.9345   26.2865 O   0  0  0  0  0  0  0  0  0  0  0  0
   12.2050   21.8036   29.4098 O   0  0  0  0  0  0  0  0  0  0  0  0
    3.6378   27.7902   24.5032 C   0  0  0  0  0  0  0  0  0  0  0  0
    4.7715   24.7988   30.1986 O   0  0  0  0  0  0  0  0  0  0  0  0
    9.3353   24.4507   28.3203 O   0  0  0  0  0  0  0  0  0  0  0  0
    5.8477   26.3498   27.8418 C   0  0  0  0  0  0  0  0  0  0  0  0
    6.5707   25.7864   29.6706 C   0  0  0  0  0  0  0  0  0  0  0  0
    5.2111   26.7310   25.4197 C   0  0  0  0  0  0  0  0  0  0  0  0
  5  1  2  0
  8  7  1  0
 10  4  1  0
 11  4  2  0
 11  5  1  0
 12  1  1  0
 14  4  1  0
 17  3  1  0
 17 15  1  0
 18  2  1  0
 19  9  1  0
 19 13  1  0
 19 16  1  0
 20  7  1  0
 20 19  1  0
 21 19  1  0
 22  6  1  0
 22 14  2  0
 23  2  1  0
 24  7  1  0
 24 17  1  0
 25  2  1  0
 25 12  1  0
 26  2  1  0
 26  3  1  0
 26 15  1  0
 27  6  2  0
 27 11  1  0
 27 12  1  0
M  END
>  <ID>  (1) 
conformer_0

$$$$
