
     RDKit          3D

 26 28  0  0  0  0  0  0  0  0999 V2000
    5.5977   25.3759   28.7908 C   0  0  0  0  0  0  0  0  0  0  0  0
    5.6427   26.2653   24.0263 C   0  0  0  0  0  0  0  0  0  0  0  0
    6.8250   24.8024   29.4339 C   0  0  0  0  0  0  0  0  0  0  0  0
    6.6762   25.7748   25.6864 C   0  0  0  0  0  0  0  0  0  0  0  0
    3.7619   27.2050   23.0398 N   0  0  0  0  0  0  0  0  0  0  0  0
    6.2804   26.2747   26.2936 N   0  0  0  0  0  0  0  0  0  0  0  0
   11.7155   21.6159   28.4942 P   0  0  0  0  0  4  0  0  0  0  0  0
   11.2704   23.1556   28.1981 O   0  0  0  0  0  0  0  0  0  0  0  0
   10.8198   20.7969   28.3779 O   0  0  0  0  0  0  0  0  0  0  0  0
    7.7221   26.1044   28.3051 O   0  0  0  0  0  0  0  0  0  0  0  0
    9.0952   22.8532   26.8350 O   0  0  0  0  0  0  0  0  0  0  0  0
    8.2852   24.8297   29.1086 C   0  0  0  0  0  0  0  0  0  0  0  0
    5.1773   25.6948   21.9716 N   0  0  0  0  0  0  0  0  0  0  0  0
    6.5177   25.6586   24.3073 N   0  0  0  0  0  0  0  0  0  0  0  0
   12.6148   21.4257   27.0949 O   0  0  0  0  0  1  0  0  0  0  0  0
   10.2964   24.4435   25.8757 O   0  0  0  0  0  0  0  0  0  0  0  0
    3.4462   27.6694   24.3867 C   0  0  0  0  0  0  0  0  0  0  0  0
    4.4230   26.4335   29.2547 O   0  0  0  0  0  0  0  0  0  0  0  0
   10.2014   23.8716   27.2722 P   0  0  0  0  0  0  0  0  0  0  0  0
    4.3323   27.5696   25.2964 N   0  0  0  0  0  0  0  0  0  0  0  0
   12.4653   21.5275   29.5764 O   0  0  0  0  0  0  0  0  0  0  0  0
    5.4263   24.5589   30.4816 O   0  0  0  0  0  0  0  0  0  0  0  0
    4.5896   26.3559   22.8874 C   0  0  0  0  0  0  0  0  0  0  0  0
    9.6005   24.5262   28.2252 O   0  0  0  0  0  0  0  0  0  0  0  0
    6.0354   26.2225   28.0151 C   0  0  0  0  0  0  0  0  0  0  0  0
    5.1986   26.8910   25.3035 C   0  0  0  0  0  0  0  0  0  0  0  0
  3  1  1  0
  6  4  1  0
  8  7  1  0
  9  7  1  0
 12  3  1  0
 12 10  1  0
 14  2  1  0
 14  4  2  0
 15  7  1  0
 16 12  1  0
 17  5  1  0
 18  1  1  0
 19  8  1  0
 19 11  1  0
 20 17  2  0
 21  7  1  0
 22  3  1  0
 23  2  1  0
 23  5  2  0
 23 13  1  0
 24 12  1  0
 24 19  1  0
 25  1  1  0
 25  6  1  0
 25 10  1  0
 26  2  2  0
 26  6  1  0
 26 20  1  0
M  RAD  2   7   2  15   2
M  END
>  <ID>  (1) 
conformer_0

$$$$
