
     RDKit          3D

 26 28  0  0  0  0  0  0  0  0999 V2000
    4.7833   26.3429   23.2050 C   0  0  0  0  0  0  0  0  0  0  0  0
    7.9781   24.3164   29.5090 C   0  0  0  0  0  0  0  0  0  0  0  0
    6.8288   24.9291   29.4020 C   0  0  0  0  0  0  0  0  0  0  0  0
    5.5591   26.1471   24.2378 C   0  0  0  0  0  0  0  0  0  0  0  0
    4.4981   27.4622   25.6777 N   0  0  0  0  0  0  0  0  0  0  0  0
    5.0412   25.9804   22.0481 N   0  0  0  0  0  0  0  0  0  0  0  0
    9.2752   24.8557   28.1556 O   0  0  0  0  0  0  0  0  0  0  0  0
   12.1625   21.5558   27.3340 O   0  0  0  0  0  1  0  0  0  0  0  0
    7.4019   26.1707   28.1765 O   0  0  0  0  0  0  0  0  0  0  0  0
   11.3456   21.9161   28.5586 P   0  0  0  0  0  4  0  0  0  0  0  0
    6.0092   26.1861   26.4378 N   0  0  0  0  0  0  0  0  0  0  0  0
    6.5783   25.3929   24.4801 N   0  0  0  0  0  0  0  0  0  0  0  0
   11.8543   21.7116   29.6229 O   0  0  0  0  0  0  0  0  0  0  0  0
    5.1852   26.6609   25.6257 C   0  0  0  0  0  0  0  0  0  0  0  0
   10.1130   24.6088   27.1583 P   0  0  0  0  0  0  0  0  0  0  0  0
    5.7780   25.1864   28.6667 C   0  0  0  0  0  0  0  0  0  0  0  0
    4.6085   26.2989   29.3989 O   0  0  0  0  0  0  0  0  0  0  0  0
    9.1844   23.2374   26.5692 O   0  0  0  0  0  0  0  0  0  0  0  0
   10.2825   25.3342   26.0987 O   0  0  0  0  0  0  0  0  0  0  0  0
    3.8237   27.1997   23.4979 N   0  0  0  0  0  0  0  0  0  0  0  0
    5.6059   24.4413   30.3039 O   0  0  0  0  0  0  0  0  0  0  0  0
    3.4714   27.7079   24.6386 C   0  0  0  0  0  0  0  0  0  0  0  0
   10.0579   21.4054   28.5469 O   0  0  0  0  0  0  0  0  0  0  0  0
    5.8934   26.3259   27.9726 C   0  0  0  0  0  0  0  0  0  0  0  0
   11.1255   23.8494   27.7648 O   0  0  0  0  0  0  0  0  0  0  0  0
    6.8064   25.4095   25.7079 C   0  0  0  0  0  0  0  0  0  0  0  0
  3  2  1  0
  4  1  2  0
  6  1  1  0
  7  2  1  0
  9  3  1  0
 10  8  1  0
 12  4  1  0
 13 10  1  0
 14  4  1  0
 14  5  2  0
 14 11  1  0
 16  3  1  0
 17 16  1  0
 18 15  1  0
 19 15  1  0
 20  1  1  0
 21  3  1  0
 22  5  1  0
 22 20  2  0
 23 10  1  0
 24  9  1  0
 24 11  1  0
 24 16  1  0
 25 10  1  0
 25 15  1  0
 26 11  1  0
 26 12  2  0
 26 19  1  0
M  RAD  2   8   2  10   2
M  END
>  <ID>  (1) 
conformer_0

$$$$
