
     RDKit          3D

 25 26  0  0  0  0  0  0  0  0999 V2000
    6.6342   24.8919   29.5148 C   0  0  0  0  0  0  0  0  0  0  0  0
    5.2497   26.2129   23.1039 C   0  0  0  0  0  0  0  0  0  0  0  0
    5.5551   25.2752   28.7629 C   0  0  0  0  0  0  0  0  0  0  0  0
    6.4307   25.5723   25.5218 C   0  0  0  0  0  0  0  0  0  0  0  0
    4.4430   27.3306   25.4569 N   0  0  0  0  0  0  0  0  0  0  0  0
   10.2832   23.8166   27.7831 P   0  0  0  0  0  0  0  0  0  0  0  0
    7.2126   26.4219   28.2873 O   0  0  0  0  0  0  0  0  0  0  0  0
   12.4854   22.4818   29.9948 O   0  0  0  0  0  0  0  0  0  0  0  0
    5.9225   26.1243   26.3245 N   0  0  0  0  0  0  0  0  0  0  0  0
    8.9874   24.6576   28.4871 O   0  0  0  0  0  0  0  0  0  0  0  0
    5.6925   26.1672   27.8589 C   0  0  0  0  0  0  0  0  0  0  0  0
    6.6419   25.2860   24.1569 N   0  0  0  0  0  0  0  0  0  0  0  0
    5.4062   26.0696   21.5689 N   0  0  0  0  0  0  0  0  0  0  0  0
    9.4245   22.8189   27.1020 O   0  0  0  0  0  0  0  0  0  0  0  0
    5.5315   26.2481   24.5408 C   0  0  0  0  0  0  0  0  0  0  0  0
    4.5251   26.1892   29.8248 O   0  0  0  0  0  0  0  0  0  0  0  0
    3.9189   27.1366   23.2376 N   0  0  0  0  0  0  0  0  0  0  0  0
   10.6365   21.2121   28.9750 O   0  0  0  0  0  0  0  0  0  0  0  0
   12.6290   21.5632   28.0194 O   0  0  0  0  0  0  0  0  0  0  0  0
   10.8699   24.7049   26.9021 O   0  0  0  0  0  0  0  0  0  0  0  0
   11.8589   22.0133   28.9457 P   0  0  0  0  0  5  0  0  0  0  0  0
    4.0082   27.3267   24.5267 C   0  0  0  0  0  0  0  0  0  0  0  0
    8.1387   25.0044   29.2974 C   0  0  0  0  0  0  0  0  0  0  0  0
    5.5696   24.2739   30.4940 O   0  0  0  0  0  0  0  0  0  0  0  0
   10.8500   23.4313   28.7648 O   0  0  0  0  0  0  0  0  0  0  0  0
  3  1  1  0
  9  4  1  0
 10  6  1  0
 11  3  1  0
 11  7  1  0
 11  9  1  0
 12  4  2  0
 13  2  1  0
 14  6  1  0
 15  2  1  0
 15  4  1  0
 15  5  1  0
 15 12  1  0
 16  3  1  0
 17  2  2  0
 21  8  1  0
 21 18  1  0
 21 19  1  0
 21 20  1  0
 22  5  1  0
 22 17  1  0
 23  1  1  0
 23 10  1  0
 24  1  1  0
 25  6  1  0
 25 21  1  0
M  END
>  <ID>  (1) 
conformer_0

$$$$
