
     RDKit          3D

 26 28  0  0  0  0  0  0  0  0999 V2000
    6.1345   25.0699   29.0161 C   0  0  0  0  0  0  0  0  0  0  0  0
    5.3965   26.1555   24.2316 C   0  0  0  0  0  0  0  0  0  0  0  0
    5.9913   26.0061   28.1664 C   0  0  0  0  0  0  0  0  0  0  0  0
    6.7406   25.4654   25.8127 C   0  0  0  0  0  0  0  0  0  0  0  0
    3.6843   27.4170   23.4684 N   0  0  0  0  0  0  0  0  0  0  0  0
   11.7782   21.9175   28.6610 P   0  0  0  0  0  4  0  0  0  0  0  0
    9.3977   23.0948   26.4786 O   0  0  0  0  0  0  0  0  0  0  0  0
   10.6277   24.8655   26.2392 O   0  0  0  0  0  1  0  0  0  0  0  0
    4.9315   26.1782   22.0229 N   0  0  0  0  0  0  0  0  0  0  0  0
    7.6742   26.3545   28.2570 O   0  0  0  0  0  0  0  0  0  0  0  0
    6.1370   26.0097   26.5043 N   0  0  0  0  0  0  0  0  0  0  0  0
    6.5175   25.3188   24.4610 N   0  0  0  0  0  0  0  0  0  0  0  0
   10.7309   20.9738   28.5851 O   0  0  0  0  0  0  0  0  0  0  0  0
    7.4042   25.1696   29.5581 C   0  0  0  0  0  0  0  0  0  0  0  0
    4.8043   26.4570   23.1726 C   0  0  0  0  0  0  0  0  0  0  0  0
   11.2023   23.3902   28.4786 O   0  0  0  0  0  0  0  0  0  0  0  0
    4.5601   27.4191   25.7112 N   0  0  0  0  0  0  0  0  0  0  0  0
   10.1062   24.1168   27.0804 P   0  0  0  0  0  4  0  0  0  0  0  0
    5.5063   26.1006   30.3498 O   0  0  0  0  0  0  0  0  0  0  0  0
   12.4470   21.8207   27.3782 O   0  0  0  0  0  1  0  0  0  0  0  0
   12.5099   21.7198   29.5825 O   0  0  0  0  0  0  0  0  0  0  0  0
    3.4923   27.7252   24.6756 C   0  0  0  0  0  0  0  0  0  0  0  0
    6.1381   23.9037   30.1634 O   0  0  0  0  0  0  0  0  0  0  0  0
    9.2932   24.7368   27.9773 O   0  0  0  0  0  0  0  0  0  0  0  0
    8.8272   24.9515   29.2382 C   0  0  0  0  0  0  0  0  0  0  0  0
    5.2378   26.6548   25.5322 C   0  0  0  0  0  0  0  0  0  0  0  0
  3  1  1  0
 10  3  1  0
 11  3  1  0
 11  4  1  0
 12  2  1  0
 12  4  2  0
 13  6  1  0
 14  1  1  0
 14 10  1  0
 15  2  1  0
 15  5  2  0
 15  9  1  0
 16  6  1  0
 18  7  1  0
 18  8  1  0
 18 16  1  0
 19  1  1  0
 20  6  1  0
 21  6  1  0
 22  5  1  0
 22 17  2  0
 23  1  1  0
 24 18  1  0
 25 14  1  0
 25 24  1  0
 26  2  2  0
 26 11  1  0
 26 17  1  0
M  RAD  4   6   2   8   2  18   2  20   2
M  END
>  <ID>  (1) 
conformer_0

$$$$
