
     RDKit          3D

 25 26  0  0  0  0  0  0  0  0999 V2000
    5.7176   25.2843   28.9638 C   0  0  0  0  0  0  0  0  0  0  0  0
    5.7563   26.2186   24.1300 C   0  0  0  0  0  0  0  0  0  0  0  0
    6.9330   24.7144   29.4256 C   0  0  0  0  0  0  0  0  0  0  0  0
    6.6698   25.3546   25.7940 C   0  0  0  0  0  0  0  0  0  0  0  0
    4.4134   27.3975   25.5489 N   0  0  0  0  0  0  0  0  0  0  0  0
    8.4835   24.5936   29.3335 C   0  0  0  0  0  0  0  0  0  0  0  0
   11.7699   21.8551   28.5847 P   0  0  0  0  0  4  0  0  0  0  0  0
    7.4647   26.0536   28.4162 O   0  0  0  0  0  0  0  0  0  0  0  0
    6.5711   25.5673   24.3232 N   0  0  0  0  0  0  0  0  0  0  0  0
    5.9424   26.1067   26.4359 N   0  0  0  0  0  0  0  0  0  0  0  0
   11.2191   21.0824   28.6619 O   0  0  0  0  0  0  0  0  0  0  0  0
    9.2765   22.7381   26.7752 O   0  0  0  0  0  0  0  0  0  0  0  0
   10.5867   24.6205   26.2240 O   0  0  0  0  0  0  0  0  0  0  0  0
    5.5592   26.4118   21.9503 N   0  0  0  0  0  0  0  0  0  0  0  0
    4.9301   26.5542   23.0817 C   0  0  0  0  0  0  0  0  0  0  0  0
    3.8642   27.2328   23.2305 N   0  0  0  0  0  0  0  0  0  0  0  0
   11.2833   23.1869   28.5503 O   0  0  0  0  0  1  0  0  0  0  0  0
    4.0772   26.0433   29.3575 O   0  0  0  0  0  0  0  0  0  0  0  0
   10.2197   24.0507   27.1630 P   0  0  0  0  0  0  0  0  0  0  0  0
   12.8259   21.9326   27.5294 O   0  0  0  0  0  0  0  0  0  0  0  0
    9.4587   24.5496   28.0626 O   0  0  0  0  0  0  0  0  0  0  0  0
    5.5070   26.0556   28.0892 C   0  0  0  0  0  0  0  0  0  0  0  0
    5.4462   24.6372   30.5238 O   0  0  0  0  0  0  0  0  0  0  0  0
    3.4836   27.6260   24.4691 C   0  0  0  0  0  0  0  0  0  0  0  0
    5.2514   26.6484   25.5042 C   0  0  0  0  0  0  0  0  0  0  0  0
  3  1  1  0
  6  3  1  0
  8  3  1  0
  9  2  1  0
  9  4  2  0
 10  4  1  0
 11  7  1  0
 13  7  1  0
 15  2  2  0
 15 14  1  0
 16 15  1  0
 17  7  1  0
 18  1  1  0
 19 12  1  0
 19 13  1  0
 20  7  1  0
 21  6  1  0
 21 19  1  0
 22  1  1  0
 22 10  1  0
 23  1  1  0
 24  5  1  0
 24 16  2  0
 25  2  1  0
 25  5  2  0
 25 10  1  0
M  RAD  2   7   2  17   2
M  END
>  <ID>  (1) 
conformer_0

$$$$
