
     RDKit          3D

 25 26  0  0  0  0  0  0  0  0999 V2000
    5.6868   26.3560   28.0652 C   0  0  2  0  0  0  0  0  0  0  0  0
    5.0203   26.5821   23.1073 C   0  0  0  0  0  0  0  0  0  0  0  0
    5.7161   25.3795   28.8161 C   0  0  1  0  0  0  0  0  0  0  0  0
    6.1982   26.1597   25.8578 C   0  0  0  0  0  0  0  0  0  0  0  0
    4.4871   27.5357   25.6068 N   0  0  0  0  0  0  0  0  0  0  0  0
    6.8157   24.7786   29.2877 C   0  0  2  0  0  0  0  0  0  0  0  0
    6.0767   26.3707   26.4148 N   0  0  0  0  0  0  0  0  0  0  0  0
   11.8671   21.7726   28.4571 P   0  0  0  0  0  4  0  0  0  0  0  0
   10.5452   24.9582   26.3986 O   0  0  0  0  0  0  0  0  0  0  0  0
    9.3999   23.0733   26.5986 O   0  0  0  0  0  0  0  0  0  0  0  0
    7.4378   26.1130   28.2672 O   0  0  0  0  0  0  0  0  0  0  0  0
   12.9392   21.3918   27.3344 O   0  0  0  0  0  1  0  0  0  0  0  0
   10.5144   21.1341   28.4437 O   0  0  0  0  0  0  0  0  0  0  0  0
    5.4948   26.4417   21.9404 N   0  0  0  0  0  0  0  0  0  0  0  0
    6.7077   25.5588   24.3338 N   0  0  0  0  0  0  0  0  0  0  0  0
    3.9217   27.5233   24.9757 C   0  0  0  0  0  0  0  0  0  0  0  0
    4.4028   26.4729   29.4391 O   0  0  0  0  0  0  0  0  0  0  0  0
   10.0637   24.0731   27.2888 P   0  0  0  0  0  0  0  0  0  0  0  0
   11.4381   23.3666   28.2304 O   0  0  0  0  0  0  0  0  0  0  0  0
    5.6062   24.4764   30.3764 O   0  0  0  0  0  0  0  0  0  0  0  0
    3.8138   27.3597   23.5214 N   0  0  0  0  0  0  0  0  0  0  0  0
    9.3492   24.5760   28.2373 O   0  0  0  0  0  0  0  0  0  0  0  0
    8.5257   24.5564   29.5171 C   0  0  2  0  0  0  0  0  0  0  0  0
   12.3114   21.4309   29.5462 O   0  0  0  0  0  0  0  0  0  0  0  0
    5.7299   26.3815   24.5798 C   0  0  1  0  0  0  0  0  0  0  0  0
  3  1  1  0
  6  3  1  0
  1  7  1  6
  7  4  1  0
 11  1  1  0
 11  6  1  0
 12  8  1  0
 13  8  1  0
 14  2  2  3
 15  4  2  0
 16  5  2  3
  3 17  1  1
 18 10  1  0
 19  8  1  0
 19 18  1  0
  6 20  1  1
 21  2  1  0
 21 16  1  0
 22 18  1  0
 23  6  1  0
 23  9  1  1
 23 22  1  0
 24  8  1  0
 25  2  1  1
 25  4  1  0
 25 15  1  0
M  RAD  2   8   2  12   2
M  END
>  <ID>  (1) 
conformer_0

$$$$
