
     RDKit          3D

 26 28  0  0  0  0  0  0  0  0999 V2000
    5.9384   26.1159   28.0360 C   0  0  0  0  0  0  0  0  0  0  0  0
    5.8062   26.2788   24.1833 C   0  0  0  0  0  0  0  0  0  0  0  0
    5.8007   25.2430   28.8821 C   0  0  0  0  0  0  0  0  0  0  0  0
    6.8330   25.7703   25.7497 C   0  0  0  0  0  0  0  0  0  0  0  0
    3.8994   27.2869   23.3471 N   0  0  0  0  0  0  0  0  0  0  0  0
    6.2525   26.1888   26.4021 N   0  0  0  0  0  0  0  0  0  0  0  0
   11.8294   21.7179   28.3215 P   0  0  0  0  0  5  0  0  0  0  0  0
    9.2757   22.8867   26.7106 O   0  0  0  0  0  0  0  0  0  0  0  0
   11.2685   23.1910   28.0889 O   0  0  0  0  0  0  0  0  0  0  0  0
    6.9237   24.9098   29.5568 C   0  0  0  0  0  0  0  0  0  0  0  0
    7.7008   26.0411   28.3442 O   0  0  0  0  0  0  0  0  0  0  0  0
    5.3622   26.2065   22.0318 N   0  0  0  0  0  0  0  0  0  0  0  0
   10.7165   21.0117   28.4872 O   0  0  0  0  0  0  0  0  0  0  0  0
    6.7423   25.6016   24.3532 N   0  0  0  0  0  0  0  0  0  0  0  0
   12.5965   21.2513   27.0439 O   0  0  0  0  0  0  0  0  0  0  0  0
    4.9248   26.5220   23.1803 C   0  0  0  0  0  0  0  0  0  0  0  0
    4.5042   26.3436   29.2355 O   0  0  0  0  0  0  0  0  0  0  0  0
   10.0788   23.8532   27.2683 P   0  0  0  0  0  0  0  0  0  0  0  0
    5.7022   24.2911   30.3992 O   0  0  0  0  0  0  0  0  0  0  0  0
    4.4493   27.4177   25.5669 N   0  0  0  0  0  0  0  0  0  0  0  0
   12.6063   21.8073   29.2652 O   0  0  0  0  0  0  0  0  0  0  0  0
   10.6665   24.8250   26.4768 O   0  0  0  0  0  0  0  0  0  0  0  0
    8.4062   24.7838   29.4411 C   0  0  0  0  0  0  0  0  0  0  0  0
    3.4483   27.6140   24.5073 C   0  0  0  0  0  0  0  0  0  0  0  0
    9.3811   24.4520   28.3479 O   0  0  0  0  0  0  0  0  0  0  0  0
    5.2733   26.8451   25.4730 C   0  0  0  0  0  0  0  0  0  0  0  0
  3  1  1  0
  6  1  1  0
  6  4  1  0
  9  7  1  0
 10  3  1  0
 11  1  1  0
 13  7  1  0
 14  2  1  0
 14  4  2  0
 15  7  1  0
 16  2  1  0
 16  5  2  0
 16 12  1  0
 17  3  1  0
 18  8  1  0
 19 10  1  0
 21  7  1  0
 22  7  1  0
 22 18  1  0
 23 10  1  0
 23 11  1  0
 24  5  1  0
 24 20  2  0
 25 18  1  0
 25 23  1  0
 26  2  2  0
 26  6  1  0
 26 20  1  0
M  END
>  <ID>  (1) 
conformer_0

$$$$
