
     RDKit          3D

 27 29  0  0  0  0  0  0  0  0999 V2000
    6.4510   24.6084   29.4829 C   0  0  0  0  0  0  0  0  0  0  0  0
    5.7662   26.2115   24.0013 C   0  0  0  0  0  0  0  0  0  0  0  0
    5.4191   25.3899   28.3706 C   0  0  0  0  0  0  0  0  0  0  0  0
    4.6388   27.4477   25.5034 N   0  0  0  0  0  0  0  0  0  0  0  0
    6.8100   25.4033   25.6924 C   0  0  0  0  0  0  0  0  0  0  0  0
   11.8887   22.0119   28.5497 P   0  0  0  0  0  5  0  0  0  0  0  0
    5.7575   26.3018   27.8612 C   0  0  0  0  0  0  0  0  0  0  0  0
    6.6288   25.4713   24.3690 N   0  0  0  0  0  0  0  0  0  0  0  0
    7.4833   26.0316   28.2692 O   0  0  0  0  0  0  0  0  0  0  0  0
   10.6373   21.1231   28.3777 O   0  0  0  0  0  0  0  0  0  0  0  0
    6.0962   26.0483   26.3235 N   0  0  0  0  0  0  0  0  0  0  0  0
    5.3792   26.1167   21.7579 N   0  0  0  0  0  0  0  0  0  0  0  0
   11.3360   23.2546   28.5747 O   0  0  0  0  0  0  0  0  0  0  0  0
    9.4402   22.9041   26.6402 O   0  0  0  0  0  0  0  0  0  0  0  0
    3.9323   27.2669   23.2502 N   0  0  0  0  0  0  0  0  0  0  0  0
    5.2596   26.6904   25.3797 C   0  0  0  0  0  0  0  0  0  0  0  0
   12.8816   21.7601   27.3402 O   0  0  0  0  0  0  0  0  0  0  0  0
    5.6877   24.2727   30.3901 O   0  0  0  0  0  0  0  0  0  0  0  0
   10.8068   24.6774   26.5641 O   0  0  0  0  0  0  0  0  0  0  0  0
    4.5165   26.1106   29.2771 O   0  0  0  0  0  0  0  0  0  0  0  0
    9.2896   24.2690   28.3153 O   0  0  0  0  0  0  0  0  0  0  0  0
    7.6304   25.0939   29.1775 C   0  0  0  0  0  0  0  0  0  0  0  0
   10.3501   23.7947   27.3878 P   0  0  0  0  0  0  0  0  0  0  0  0
   12.3726   21.6192   29.4741 O   0  0  0  0  0  0  0  0  0  0  0  0
    3.5207   27.7719   24.4200 C   0  0  0  0  0  0  0  0  0  0  0  0
    4.9466   26.4607   23.0231 C   0  0  0  0  0  0  0  0  0  0  0  0
    8.7690   24.1140   29.6052 C   0  0  0  0  0  0  0  0  0  0  0  0
  3  1  1  0
  7  3  1  0
  8  2  1  0
  8  5  2  0
  9  7  1  0
 10  6  1  0
 11  5  1  0
 11  7  1  0
 13  6  1  0
 16  2  1  0
 16  4  2  0
 16 11  1  0
 17  6  1  0
 18  1  1  0
 19  6  1  0
 20  3  1  0
 22  1  1  0
 22  9  1  0
 23 14  1  0
 23 19  1  0
 23 21  1  0
 24  6  1  0
 25  4  1  0
 25 15  2  0
 26  2  2  0
 26 12  1  0
 26 15  1  0
 27 21  1  0
 27 22  1  0
M  END
>  <ID>  (1) 
conformer_0

$$$$
