
     RDKit          3D

 27 29  0  0  0  0  0  0  0  0999 V2000
    5.3738   25.4304   28.6557 C   0  0  0  0  0  0  0  0  0  0  0  0
    4.6459   26.4053   23.0634 C   0  0  0  0  0  0  0  0  0  0  0  0
    6.0471   26.4598   27.6725 C   0  0  0  0  0  0  0  0  0  0  0  0
    6.9112   25.6286   25.6654 C   0  0  0  0  0  0  0  0  0  0  0  0
    4.6820   27.4026   25.6451 N   0  0  0  0  0  0  0  0  0  0  0  0
    6.5412   25.3625   24.3706 N   0  0  0  0  0  0  0  0  0  0  0  0
   11.6458   21.7799   28.8323 P   0  0  0  0  0  4  0  0  0  0  0  0
   10.8022   24.8413   26.6792 O   0  0  0  0  0  0  0  0  0  0  0  0
    3.6745   27.2784   23.4498 N   0  0  0  0  0  0  0  0  0  0  0  0
    7.6453   26.0689   28.3057 O   0  0  0  0  0  0  0  0  0  0  0  0
    5.4910   26.0403   23.9052 C   0  0  0  0  0  0  0  0  0  0  0  0
    6.8720   25.6124   29.0549 C   0  0  0  0  0  0  0  0  0  0  0  0
   11.9420   21.7441   30.1366 O   0  0  0  0  0  0  0  0  0  0  0  0
    4.9027   26.0545   21.8175 N   0  0  0  0  0  0  0  0  0  0  0  0
    6.3590   26.1311   26.3011 N   0  0  0  0  0  0  0  0  0  0  0  0
   12.9177   21.7359   27.6797 O   0  0  0  0  0  1  0  0  0  0  0  0
    9.6513   22.9559   26.7099 O   0  0  0  0  0  0  0  0  0  0  0  0
    5.5566   24.2153   30.3520 O   0  0  0  0  0  0  0  0  0  0  0  0
   10.3116   23.9761   27.3652 P   0  0  0  0  0  0  0  0  0  0  0  0
    4.7894   26.3707   29.4507 O   0  0  0  0  0  0  0  0  0  0  0  0
   10.7021   21.1969   28.5340 O   0  0  0  0  0  0  0  0  0  0  0  0
    3.3764   27.7356   24.6798 C   0  0  0  0  0  0  0  0  0  0  0  0
    8.7533   24.4737   29.2892 C   0  0  0  0  0  0  0  0  0  0  0  0
    9.1553   24.5322   28.2274 O   0  0  0  0  0  0  0  0  0  0  0  0
   11.2650   23.3880   28.3344 O   0  0  0  0  0  0  0  0  0  0  0  0
    5.2094   26.6884   25.1941 C   0  0  0  0  0  0  0  0  0  0  0  0
    7.0391   24.3268   29.6829 C   0  0  0  0  0  0  0  0  0  0  0  0
  3  1  1  0
  6  4  2  0
  9  2  2  0
 11  2  1  0
 11  6  1  0
 12  1  1  0
 12  3  1  0
 12 10  1  0
 13  7  1  0
 14  2  1  0
 15  3  1  0
 15  4  1  0
 16  7  1  0
 19  8  1  0
 19 17  1  0
 20  1  1  0
 21  7  1  0
 22  5  2  0
 22  9  1  0
 23  8  1  0
 24 23  1  0
 25  7  1  0
 25 19  1  0
 26  5  1  0
 26 11  2  0
 26 15  1  0
 27 12  1  0
 27 18  1  0
 27 23  1  0
M  RAD  2   7   2  16   2
M  END
>  <ID>  (1) 
conformer_0

$$$$
