
     RDKit          3D

 24 26  0  0  0  0  0  0  0  0999 V2000
    5.6400   25.2511   28.8093 C   0  0  0  0  0  0  0  0  0  0  0  0
    4.9286   26.1338   23.2236 C   0  0  0  0  0  3  0  0  0  0  0  0
    6.7903   24.6246   29.3644 C   0  0  0  0  0  0  0  0  0  0  0  0
    5.3914   26.2171   24.6951 C   0  0  0  0  0  0  0  0  0  0  0  0
    4.7453   27.2674   25.6461 N   0  0  0  0  0  0  0  0  0  0  0  0
   10.9256   25.1493   26.8264 O   0  0  0  0  0  1  0  0  0  0  0  0
    3.8002   27.4820   24.5736 C   0  0  0  0  0  0  0  0  0  0  0  0
   11.6838   22.0718   28.5032 P   0  0  0  0  0  0  0  0  0  0  0  0
    7.6024   25.8802   28.3497 O   0  0  0  0  0  0  0  0  0  0  0  0
    8.2875   24.5118   29.3746 C   0  0  0  0  0  0  0  0  0  0  0  0
    3.8257   27.0459   23.2745 N   0  0  0  0  0  0  0  0  0  0  0  0
    9.5748   23.1792   26.5322 O   0  0  0  0  0  0  0  0  0  0  0  0
    6.4194   25.2555   24.3082 N   0  0  0  0  0  0  0  0  0  0  0  0
    4.8579   25.7589   21.8058 N   0  0  0  0  0  0  0  0  0  0  0  0
   12.5864   22.0620   29.2740 O   0  0  0  0  0  0  0  0  0  0  0  0
    6.4421   26.0084   26.4032 N   0  0  0  0  0  0  0  0  0  0  0  0
    4.5861   26.1552   29.5916 O   0  0  0  0  0  0  0  0  0  0  0  0
   11.7116   22.8542   27.7728 O   0  0  0  0  0  0  0  0  0  0  0  0
   10.2062   24.3719   27.2497 P   0  0  0  0  0  4  0  0  0  0  0  0
   10.4968   21.3792   28.6260 O   0  0  0  0  0  0  0  0  0  0  0  0
    5.4674   24.1225   30.2305 O   0  0  0  0  0  0  0  0  0  0  0  0
    9.6417   24.4074   28.3255 O   0  0  0  0  0  0  0  0  0  0  0  0
    6.0049   25.9998   27.9405 C   0  0  0  0  0  0  0  0  0  0  0  0
    6.6308   25.7023   25.5904 C   0  0  0  0  0  0  0  0  0  0  0  0
  3  1  1  0
  4  2  1  0
  5  4  1  0
  7  5  2  0
  9  3  1  0
 10  3  1  0
 11  2  1  0
 11  7  1  0
 13  4  1  0
 14  2  1  0
 15  8  1  0
 17  1  1  0
 18  8  1  0
 19  6  1  0
 19 12  1  0
 19 18  1  0
 20  8  1  0
 21  3  1  0
 22 10  1  0
 22 19  1  0
 23  1  1  0
 23  9  1  0
 23 16  1  0
 24  4  1  0
 24 13  2  0
 24 16  1  0
M  RAD  3   2   2   6   2  19   2
M  END
>  <ID>  (1) 
conformer_0

$$$$
