
     RDKit          3D

 26 28  0  0  0  0  0  0  0  0999 V2000
    4.7710   26.4873   23.1015 C   0  0  0  0  0  0  0  0  0  0  0  0
    5.6314   25.2869   28.9004 C   0  0  0  0  0  0  0  0  0  0  0  0
    6.8081   24.8342   29.3592 C   0  0  0  0  0  0  0  0  0  0  0  0
    6.8194   25.6386   25.6619 C   0  0  0  0  0  0  0  0  0  0  0  0
    4.3536   27.5189   25.6387 N   0  0  0  0  0  0  0  0  0  0  0  0
   10.2482   23.8904   27.4620 P   0  0  0  0  0  0  0  0  0  0  0  0
    5.9860   26.2904   26.3459 N   0  0  0  0  0  0  0  0  0  0  0  0
    7.4095   26.2610   28.3056 O   0  0  0  0  0  0  0  0  0  0  0  0
   11.9391   20.8688   29.2236 O   0  0  0  0  0  0  0  0  0  0  0  0
   10.6072   24.5484   26.4484 O   0  0  0  0  0  0  0  0  0  0  0  0
    5.0329   26.1128   21.8497 N   0  0  0  0  0  0  0  0  0  0  0  0
   12.5416   20.9650   27.1622 O   0  0  0  0  0  0  0  0  0  0  0  0
    6.6744   25.5682   24.2464 N   0  0  0  0  0  0  0  0  0  0  0  0
    8.2544   24.9212   29.1735 C   0  0  0  0  0  0  0  0  0  0  0  0
    9.1921   23.0144   26.6517 O   0  0  0  0  0  0  0  0  0  0  0  0
    5.5419   26.3056   24.1290 C   0  0  0  0  0  0  0  0  0  0  0  0
    4.4929   26.1449   29.7237 O   0  0  0  0  0  0  0  0  0  0  0  0
    3.7362   27.2788   23.4689 N   0  0  0  0  0  0  0  0  0  0  0  0
   11.7575   21.6455   28.4035 P   0  0  0  0  0  5  0  0  0  0  0  0
   11.5342   23.0604   28.3520 O   0  0  0  0  0  0  0  0  0  0  0  0
    9.5436   24.5127   28.3586 O   0  0  0  0  0  0  0  0  0  0  0  0
    5.6690   24.1695   30.3187 O   0  0  0  0  0  0  0  0  0  0  0  0
    3.4147   27.6242   24.5604 C   0  0  0  0  0  0  0  0  0  0  0  0
    5.3043   26.8085   25.5431 C   0  0  0  0  0  0  0  0  0  0  0  0
    9.9567   21.3848   28.5024 O   0  0  0  0  0  0  0  0  0  0  0  0
    5.6769   26.2670   28.0264 C   0  0  0  0  0  0  0  0  0  0  0  0
  3  2  1  0
  7  4  1  0
 10  6  1  0
 11  1  1  0
 13  4  2  0
 14  3  1  0
 14  8  1  0
 15  6  1  0
 16  1  2  0
 16 13  1  0
 17  2  1  0
 18  1  1  0
 19  9  1  0
 19 10  1  0
 19 12  1  0
 20 19  1  0
 21  6  1  0
 21 14  1  0
 22  3  1  0
 23  5  1  0
 23 18  2  0
 24  5  2  0
 24  7  1  0
 24 16  1  0
 25 19  1  0
 26  2  1  0
 26  7  1  0
 26  8  1  0
M  END
>  <ID>  (1) 
conformer_0

$$$$
