
     RDKit          3D

 27 29  0  0  0  0  0  0  0  0999 V2000
    6.8513   25.4764   25.4858 C   0  0  0  0  0  0  0  0  0  0  0  0
    6.4421   25.4127   29.4127 C   0  0  0  0  0  0  0  0  0  0  0  0
    7.1559   24.2829   29.1194 C   0  0  0  0  0  0  0  0  0  0  0  0
    6.6685   25.4010   24.2080 N   0  0  0  0  0  0  0  0  0  0  0  0
    4.8303   26.4850   23.3389 C   0  0  0  0  0  0  0  0  0  0  0  0
    4.2947   27.5074   25.8403 N   0  0  0  0  0  0  0  0  0  0  0  0
   11.7411   21.6793   28.6939 P   0  0  0  0  0  4  0  0  0  0  0  0
    5.0899   26.1697   21.9984 N   0  0  0  0  0  0  0  0  0  0  0  0
    9.5128   23.2179   26.5753 O   0  0  0  0  0  0  0  0  0  0  0  0
    7.3840   26.3169   28.3377 O   0  0  0  0  0  0  0  0  0  0  0  0
    5.9249   26.2629   26.3680 N   0  0  0  0  0  0  0  0  0  0  0  0
   10.3985   21.2057   28.6422 O   0  0  0  0  0  0  0  0  0  0  0  0
    8.6824   25.1622   29.2840 C   0  0  0  0  0  0  0  0  0  0  0  0
   12.6194   21.1992   27.4823 O   0  0  0  0  0  1  0  0  0  0  0  0
   11.4781   23.2798   28.3815 O   0  0  0  0  0  0  0  0  0  0  0  0
    5.6385   26.2332   24.0769 C   0  0  0  0  0  0  0  0  0  0  0  0
   10.2662   24.0202   27.4559 P   0  0  0  0  0  0  0  0  0  0  0  0
    4.5440   25.8389   29.6503 O   0  0  0  0  0  0  0  0  0  0  0  0
    3.8041   27.3912   23.6237 N   0  0  0  0  0  0  0  0  0  0  0  0
   12.2678   21.5347   29.8528 O   0  0  0  0  0  0  0  0  0  0  0  0
    6.0357   23.8908   30.2667 O   0  0  0  0  0  0  0  0  0  0  0  0
   10.8806   24.9994   26.7634 O   0  0  0  0  0  0  0  0  0  0  0  0
    9.3684   24.6332   28.3574 O   0  0  0  0  0  0  0  0  0  0  0  0
    3.5100   27.7106   25.0525 C   0  0  0  0  0  0  0  0  0  0  0  0
    5.2690   25.1290   28.3774 C   0  0  0  0  0  0  0  0  0  0  0  0
    5.8332   26.4422   27.7759 C   0  0  0  0  0  0  0  0  0  0  0  0
    5.2083   26.7277   25.7497 C   0  0  0  0  0  0  0  0  0  0  0  0
  3  2  1  0
  4  1  2  0
  8  5  1  0
 10  2  1  0
 11  1  1  0
 12  7  1  0
 13  3  1  0
 14  7  1  0
 15  7  1  0
 16  4  1  0
 16  5  2  0
 17  9  1  0
 17 15  1  0
 19  5  1  0
 20  7  1  0
 21  3  1  0
 22 13  1  0
 22 17  1  0
 23 13  1  0
 24  6  1  0
 24 19  2  0
 25  2  1  0
 25 18  1  0
 26 10  1  0
 26 11  1  0
 26 25  1  0
 27  6  2  0
 27 11  1  0
 27 16  1  0
M  RAD  2   7   2  14   2
M  END
>  <ID>  (1) 
conformer_0

$$$$
