
     RDKit          3D

 26 27  0  0  0  0  0  0  0  0999 V2000
    4.8291   26.3967   23.1092 C   0  0  0  0  0  0  0  0  0  0  0  0
    5.8923   26.2556   28.0691 C   0  0  0  0  0  0  0  0  0  0  0  0
    5.7854   25.2654   28.7917 C   0  0  0  0  0  0  0  0  0  0  0  0
    6.7062   25.3208   25.6752 C   0  0  0  0  0  0  0  0  0  0  0  0
    3.8517   27.2377   23.2670 N   0  0  0  0  0  0  0  0  0  0  0  0
   11.2586   21.9783   28.7607 P   0  0  0  0  0  5  0  0  0  0  0  0
    9.1858   23.0213   26.2653 O   0  0  0  0  0  0  0  0  0  0  0  0
    6.0307   26.0004   26.4150 N   0  0  0  0  0  0  0  0  0  0  0  0
    7.3137   26.3487   28.6697 O   0  0  0  0  0  0  0  0  0  0  0  0
    7.0085   24.6240   29.4406 C   0  0  0  0  0  0  0  0  0  0  0  0
    6.5093   25.3343   24.3302 N   0  0  0  0  0  0  0  0  0  0  0  0
    5.1036   25.9091   21.9802 N   0  0  0  0  0  0  0  0  0  0  0  0
   10.6106   23.3485   28.1345 O   0  0  0  0  0  0  0  0  0  0  0  0
   10.1566   24.0255   26.7141 P   0  0  0  0  0  0  0  0  0  0  0  0
    5.5344   26.0862   24.2027 C   0  0  0  0  0  0  0  0  0  0  0  0
   12.0040   22.5417   29.8160 O   0  0  0  0  0  0  0  0  0  0  0  0
    4.4142   26.4543   29.0679 O   0  0  0  0  0  0  0  0  0  0  0  0
   12.0046   21.7424   27.3577 O   0  0  0  0  0  0  0  0  0  0  0  0
    4.4930   27.4668   25.4745 N   0  0  0  0  0  0  0  0  0  0  0  0
    5.1911   24.4343   30.0299 O   0  0  0  0  0  0  0  0  0  0  0  0
   10.6750   24.6982   25.9820 O   0  0  0  0  0  0  0  0  0  0  0  0
   10.7776   21.2264   28.8343 O   0  0  0  0  0  0  0  0  0  0  0  0
    8.4445   24.8632   29.0920 C   0  0  0  0  0  0  0  0  0  0  0  0
    3.5894   27.6761   24.5633 C   0  0  0  0  0  0  0  0  0  0  0  0
    9.0902   24.8611   27.7407 O   0  0  0  0  0  0  0  0  0  0  0  0
    5.1891   26.5899   25.6360 C   0  0  0  0  0  0  0  0  0  0  0  0
  3  2  1  0
  5  1  2  0
  8  2  1  0
  8  4  1  0
  9  2  1  0
 10  3  2  3
 11  4  2  0
 12  1  1  0
 13  6  1  0
 14  7  1  0
 15  1  1  0
 15 11  1  0
 16  6  1  0
 17  2  1  0
 18  6  1  0
 20  3  1  0
 21  6  1  0
 21 14  1  0
 22  6  1  0
 23 10  1  0
 24  5  1  0
 24 19  2  0
 25 14  1  0
 25 23  1  0
 26  8  1  0
 26 15  2  0
 26 19  1  0
M  END
>  <ID>  (1) 
conformer_0

$$$$
