
     RDKit          3D

 25 25  0  0  0  0  0  0  0  0999 V2000
    4.9401   26.3570   23.3309 C   0  0  0  0  0  0  0  0  0  0  0  0
    8.7702   24.8864   29.0591 C   0  0  2  0  0  0  0  0  0  0  0  0
    7.3863   24.7219   29.4872 C   0  0  0  0  0  0  0  0  0  0  0  0
    6.4512   25.6397   25.5720 C   0  0  0  0  0  0  0  0  0  0  0  0
    4.4828   27.4451   25.7187 N   0  0  0  0  0  0  0  0  0  0  0  0
    7.6070   26.3377   28.1807 O   0  0  0  0  0  0  0  0  0  0  0  0
    6.0921   25.3886   29.0573 C   0  0  0  0  0  0  0  0  0  0  0  0
   10.0830   21.3311   28.5889 O   0  0  0  0  0  0  0  0  0  0  0  0
    6.4330   25.4520   24.4742 N   0  0  0  0  0  0  0  0  0  0  0  0
   11.5400   21.6694   28.2836 P   0  0  0  0  0  4  0  0  0  0  0  0
    4.9559   25.9943   21.9394 N   0  0  0  0  0  0  0  0  0  0  0  0
    6.1303   26.1864   26.4026 N   0  0  0  0  0  0  0  0  0  0  0  0
    3.7587   27.2846   23.4540 N   0  0  0  0  0  0  0  0  0  0  0  0
    5.3531   26.4837   24.8969 C   0  0  2  0  0  0  0  0  0  0  0  0
   10.3856   24.7003   25.9991 O   0  0  0  0  0  0  0  0  0  0  0  0
   12.3573   20.7665   27.3383 O   0  0  0  0  0  1  0  0  0  0  0  0
    8.7762   22.7399   26.6786 O   0  0  0  0  0  0  0  0  0  0  0  0
    4.7701   26.1801   29.7621 O   0  0  0  0  0  0  0  0  0  0  0  0
   10.0896   23.8174   27.0126 P   0  0  0  0  0  0  0  0  0  0  0  0
    9.4563   24.4084   28.0672 O   0  0  0  0  0  0  0  0  0  0  0  0
    5.8761   26.2183   28.1223 C   0  0  2  0  0  0  0  0  0  0  0  0
   11.0913   22.9663   27.2729 O   0  0  0  0  0  0  0  0  0  0  0  0
    5.8231   24.2783   30.4727 O   0  0  0  0  0  0  0  0  0  0  0  0
    3.6310   27.5208   24.6381 C   0  0  0  0  0  0  0  0  0  0  0  0
   12.0083   22.1675   29.1904 O   0  0  0  0  0  0  0  0  0  0  0  0
  3  2  1  0
  7  3  1  0
  9  4  2  3
 10  8  1  0
 11  1  1  0
 12  4  1  0
 13  1  2  0
 14  1  1  0
 14  4  1  1
 14  5  1  0
  2 15  1  6
 16 10  1  0
 18  7  1  0
 19 17  1  0
 20  2  1  0
 20 19  1  0
 21  6  1  1
 21  7  1  0
 21 12  1  0
 22 10  1  0
 22 19  1  0
 23  7  1  0
 24  5  2  0
 24 13  1  0
 25 10  1  0
M  RAD  2  10   2  16   2
M  END
>  <ID>  (1) 
conformer_0

$$$$
