
     RDKit          3D

 26 27  0  0  0  0  0  0  0  0999 V2000
    5.9280   26.2141   28.1146 C   0  0  0  0  0  0  0  0  0  0  0  0
    6.5493   25.2018   25.9304 C   0  0  0  0  0  0  0  0  0  0  0  0
    5.8052   25.2269   28.9011 C   0  0  0  0  0  0  0  0  0  0  0  0
    5.3774   26.2510   24.2847 C   0  0  0  0  0  0  0  0  0  0  0  0
    3.7418   27.4409   23.4739 N   0  0  0  0  0  0  0  0  0  0  0  0
    4.9255   26.1431   22.0788 N   0  0  0  0  0  0  0  0  0  0  0  0
   11.8554   22.0127   28.2327 P   0  0  0  0  0  5  0  0  0  0  0  0
    5.9864   26.0446   26.5610 N   0  0  0  0  0  0  0  0  0  0  0  0
   11.4501   23.3027   27.8908 O   0  0  0  0  0  0  0  0  0  0  0  0
   10.6263   21.3518   28.7214 O   0  0  0  0  0  0  0  0  0  0  0  0
    7.5520   26.0884   28.4987 O   0  0  0  0  0  0  0  0  0  0  0  0
   12.4762   21.1301   27.0165 O   0  0  0  0  0  0  0  0  0  0  0  0
    6.2601   25.3116   24.5502 N   0  0  0  0  0  0  0  0  0  0  0  0
    9.3899   23.1398   26.6594 O   0  0  0  0  0  0  0  0  0  0  0  0
    6.8835   24.5027   29.4017 C   0  0  0  0  0  0  0  0  0  0  0  0
    4.7675   26.4672   23.1838 C   0  0  0  0  0  0  0  0  0  0  0  0
    4.6345   26.1351   29.6046 O   0  0  0  0  0  0  0  0  0  0  0  0
    4.5709   27.6279   25.7288 N   0  0  0  0  0  0  0  0  0  0  0  0
   12.8665   22.2699   29.0477 O   0  0  0  0  0  0  0  0  0  0  0  0
   10.2727   24.1925   27.3661 P   0  0  0  0  0  0  0  0  0  0  0  0
    9.4079   24.4908   28.3021 O   0  0  0  0  0  0  0  0  0  0  0  0
    3.6103   27.8140   24.6690 C   0  0  0  0  0  0  0  0  0  0  0  0
   10.8870   25.0985   26.7098 O   0  0  0  0  0  0  0  0  0  0  0  0
    5.7159   24.4892   30.5886 O   0  0  0  0  0  0  0  0  0  0  0  0
    8.3036   24.4485   29.3718 C   0  0  0  0  0  0  0  0  0  0  0  0
    5.2623   26.7105   25.6129 C   0  0  0  0  0  0  0  0  0  0  0  0
  3  1  1  0
  8  1  1  0
  8  2  1  0
  9  7  1  0
 10  7  1  0
 11  1  1  0
 12  7  1  0
 13  2  2  0
 13  4  1  0
 15  3  1  0
 16  4  1  0
 16  5  2  0
 16  6  1  0
 17  3  1  0
 19  7  1  0
 20 14  1  0
 21 20  1  0
 22  5  1  0
 22 18  2  0
 23  7  1  0
 23 20  1  0
 24 15  1  0
 25 15  1  0
 25 21  1  0
 26  4  2  0
 26  8  1  0
 26 18  1  0
M  END
>  <ID>  (1) 
conformer_0

$$$$
