
     RDKit          3D

 25 25  0  0  0  0  0  0  0  0999 V2000
    5.7857   25.3385   28.8067 C   0  0  1  0  0  0  0  0  0  0  0  0
    5.4749   26.2698   23.4651 C   0  0  0  0  0  0  0  0  0  0  0  0
    5.7134   26.1282   28.1696 C   0  0  0  0  0  0  0  0  0  0  0  0
    6.8582   25.7972   25.7565 C   0  0  0  0  0  0  0  0  0  0  0  0
   11.6870   21.7367   28.1763 P   0  0  0  0  0  5  0  0  0  0  0  0
   11.2201   23.1659   27.7204 O   0  0  0  0  0  0  0  0  0  0  0  0
    4.5934   27.2751   25.6112 N   0  0  0  0  0  0  0  0  0  0  0  0
    7.5990   26.0991   28.3750 O   0  0  0  0  0  0  0  0  0  0  0  0
    6.2198   26.1829   26.4569 N   0  0  0  0  0  0  0  0  0  0  0  0
   10.3045   21.1872   28.5055 O   0  0  0  0  0  0  0  0  0  0  0  0
    6.9347   24.7833   29.4412 C   0  0  0  0  0  0  0  0  0  0  0  0
   12.7217   21.2081   27.0647 O   0  0  0  0  0  0  0  0  0  0  0  0
    5.3927   26.1936   21.9835 N   0  0  0  0  0  0  0  0  0  0  0  0
    9.3318   23.2736   26.4208 O   0  0  0  0  0  0  0  0  0  0  0  0
    6.9893   25.4778   24.6254 N   0  0  0  0  0  0  0  0  0  0  0  0
    4.5911   26.3270   29.5879 O   0  0  0  0  0  0  0  0  0  0  0  0
    5.6169   26.4775   25.1852 C   0  0  0  0  0  0  0  0  0  0  0  0
   10.0090   24.0388   27.1672 P   0  0  0  0  0  0  0  0  0  0  0  0
    5.5125   24.3196   30.2577 O   0  0  0  0  0  0  0  0  0  0  0  0
   12.1564   21.8068   29.2018 O   0  0  0  0  0  0  0  0  0  0  0  0
    4.0744   27.1951   23.3918 N   0  0  0  0  0  0  0  0  0  0  0  0
   10.6079   25.1398   26.6010 O   0  0  0  0  0  0  0  0  0  0  0  0
    8.3883   24.4816   29.4210 C   0  0  0  0  0  0  0  0  0  0  0  0
    9.2776   24.4367   28.2865 O   0  0  0  0  0  0  0  0  0  0  0  0
    4.0212   27.3155   24.5127 C   0  0  0  0  0  0  0  0  0  0  0  0
  3  1  1  0
  6  5  1  0
  9  3  1  0
  9  4  1  0
 10  5  1  0
 11  1  1  0
 11  8  1  0
 12  5  1  0
 13  2  1  0
 15  4  2  3
  1 16  1  1
 17  2  2  0
 17  7  1  0
 17  9  1  0
 18 14  1  0
 19 11  1  0
 20  5  1  0
 21  2  1  0
 22  5  1  0
 22 18  1  0
 23 11  1  0
 24 18  1  0
 24 23  1  0
 25  7  2  0
 25 21  1  0
M  END
>  <ID>  (1) 
conformer_0

$$$$
