
     RDKit          3D

 25 26  0  0  0  0  0  0  0  0999 V2000
    4.8790   26.3451   23.1256 C   0  0  0  0  0  3  0  0  0  0  0  0
    5.7246   26.2498   28.0175 C   0  0  0  0  0  0  0  0  0  0  0  0
    5.8618   25.3991   28.7946 C   0  0  0  0  0  0  0  0  0  0  0  0
    6.1897   26.3340   25.6207 C   0  0  0  0  0  0  0  0  0  0  0  0
    4.3570   27.5948   25.5000 N   0  0  0  0  0  0  0  0  0  0  0  0
    9.5235   24.6881   28.2755 O   0  0  0  0  0  0  0  0  0  0  0  0
   11.6293   21.6072   28.6141 P   0  0  0  0  0  4  0  0  0  0  0  0
    7.6194   26.2097   28.2467 O   0  0  0  0  0  0  0  0  0  0  0  0
    7.0803   24.8831   29.3926 C   0  0  0  0  0  0  0  0  0  0  0  0
   12.2556   21.6403   29.7141 O   0  0  0  0  0  0  0  0  0  0  0  0
    6.4430   25.6487   24.4150 N   0  0  0  0  0  0  0  0  0  0  0  0
    6.0542   26.4889   26.3929 N   0  0  0  0  0  0  0  0  0  0  0  0
    5.2140   25.9123   21.8754 N   0  0  0  0  0  0  0  0  0  0  0  0
    5.4731   26.4679   24.5006 C   0  0  0  0  0  0  0  0  0  0  0  0
   10.2225   24.2048   27.2744 P   0  0  0  0  0  0  0  0  0  0  0  0
   10.2892   21.3635   28.4685 O   0  0  0  0  0  0  0  0  0  0  0  0
    3.6950   27.1997   23.1820 N   0  0  0  0  0  0  0  0  0  0  0  0
    9.3548   23.0389   26.7368 O   0  0  0  0  0  0  0  0  0  0  0  0
    4.3727   26.3500   29.3643 O   0  0  0  0  0  0  0  0  0  0  0  0
   11.4720   23.4725   28.0281 O   0  0  0  0  0  0  0  0  0  0  0  0
   10.5105   24.9942   26.2356 O   0  0  0  0  0  0  0  0  0  0  0  0
    8.5308   24.6907   29.4267 C   0  0  0  0  0  0  0  0  0  0  0  0
   12.3853   20.9888   27.4584 O   0  0  0  0  0  1  0  0  0  0  0  0
    3.7253   27.5457   24.6022 C   0  0  0  0  0  0  0  0  0  0  0  0
    5.4807   24.7621   30.3472 O   0  0  0  0  0  0  0  0  0  0  0  0
  3  2  1  0
  9  3  1  0
  9  8  1  0
 10  7  1  0
 11  4  2  0
 12  2  1  0
 12  4  1  0
 13  1  1  0
 14  1  1  0
 14  4  1  0
 14  5  1  0
 14 11  1  0
 15  6  1  0
 16  7  1  0
 17  1  1  0
 18 15  1  0
 19  3  1  0
 20  7  1  0
 20 15  1  0
 22  6  1  0
 22  9  1  0
 22 21  1  0
 23  7  1  0
 24  5  2  0
 24 17  1  0
 25  3  1  0
M  RAD  3   1   2   7   2  23   2
M  END
>  <ID>  (1) 
conformer_0

$$$$
