
     RDKit          3D

 27 29  0  0  0  0  0  0  0  0999 V2000
    4.8571   26.4888   23.0769 C   0  0  0  0  0  0  0  0  0  0  0  0
    6.9073   25.5453   29.1864 C   0  0  0  0  0  0  0  0  0  0  0  0
    6.5642   24.2959   29.2736 C   0  0  0  0  0  0  0  0  0  0  0  0
    6.8408   25.5789   25.6332 C   0  0  0  0  0  0  0  0  0  0  0  0
    4.3429   27.4594   25.5381 N   0  0  0  0  0  0  0  0  0  0  0  0
    6.0559   26.3132   26.2724 N   0  0  0  0  0  0  0  0  0  0  0  0
   10.5772   24.7833   26.4619 O   0  0  0  0  0  0  0  0  0  0  0  0
   11.5057   21.6571   28.7131 P   0  0  0  0  0  4  0  0  0  0  0  0
    7.3894   26.1439   28.2336 O   0  0  0  0  0  0  0  0  0  0  0  0
    6.5093   25.4857   24.2586 N   0  0  0  0  0  0  0  0  0  0  0  0
   12.4951   21.0128   27.5536 O   0  0  0  0  0  1  0  0  0  0  0  0
    5.6703   26.3609   27.6242 C   0  0  0  0  0  0  0  0  0  0  0  0
    5.1251   26.0185   21.8663 N   0  0  0  0  0  0  0  0  0  0  0  0
   11.9476   21.4951   30.0598 O   0  0  0  0  0  0  0  0  0  0  0  0
    5.5217   26.3220   24.1054 C   0  0  0  0  0  0  0  0  0  0  0  0
    3.7858   27.3223   23.3321 N   0  0  0  0  0  0  0  0  0  0  0  0
    4.3784   26.2605   29.4711 O   0  0  0  0  0  0  0  0  0  0  0  0
   10.3526   24.1938   27.5020 P   0  0  0  0  0  0  0  0  0  0  0  0
    5.6034   24.2752   30.4080 O   0  0  0  0  0  0  0  0  0  0  0  0
    9.3828   22.7361   27.2149 O   0  0  0  0  0  0  0  0  0  0  0  0
    9.4328   24.6225   28.3372 O   0  0  0  0  0  0  0  0  0  0  0  0
   11.4111   23.2163   28.2967 O   0  0  0  0  0  0  0  0  0  0  0  0
    3.3585   27.6871   24.4805 C   0  0  0  0  0  0  0  0  0  0  0  0
    8.5570   24.6124   29.4760 C   0  0  0  0  0  0  0  0  0  0  0  0
   10.3172   21.0607   28.7890 O   0  0  0  0  0  0  0  0  0  0  0  0
    5.3862   26.8271   25.3893 C   0  0  0  0  0  0  0  0  0  0  0  0
    5.1392   25.4996   28.6730 C   0  0  0  0  0  0  0  0  0  0  0  0
  3  2  1  0
  6  4  1  0
  9  2  1  0
 10  4  2  0
 11  8  1  0
 12  6  1  0
 12  9  1  0
 13  1  1  0
 14  8  1  0
 15  1  2  0
 15 10  1  0
 16  1  1  0
 18  7  1  0
 19  3  1  0
 20 18  1  0
 22  8  1  0
 22 18  1  0
 23  5  1  0
 23 16  2  0
 24  2  1  0
 24  7  1  0
 24 21  1  0
 25  8  1  0
 26  5  2  0
 26  6  1  0
 26 15  1  0
 27  2  1  0
 27 12  1  0
 27 17  1  0
M  RAD  2   8   2  11   2
M  END
>  <ID>  (1) 
conformer_0

$$$$
