
     RDKit          3D

 24 25  0  0  0  0  0  0  0  0999 V2000
    5.9606   25.2236   29.0474 C   0  0  0  0  0  0  0  0  0  0  0  0
    6.4360   25.8069   25.7162 C   0  0  0  0  0  0  0  0  0  0  0  0
    7.1362   24.6286   29.5351 C   0  0  0  0  0  0  0  0  0  0  0  0
    5.6190   26.6141   24.9138 C   0  0  0  0  0  0  0  0  0  0  0  0
    4.8202   27.6537   25.6721 N   0  0  0  0  0  0  0  0  0  0  0  0
    8.6801   24.1677   29.6356 C   0  0  0  0  0  0  0  0  0  0  0  0
   11.8793   21.8519   28.3338 P   0  0  0  0  0  4  0  0  0  0  0  0
    9.3707   23.0168   26.4461 O   0  0  0  0  0  0  0  0  0  0  0  0
   11.3200   21.0380   28.7771 O   0  0  0  0  0  0  0  0  0  0  0  0
    5.5082   26.2583   21.9628 N   0  0  0  0  0  0  0  0  0  0  0  0
   11.3637   23.0555   28.0088 O   0  0  0  0  0  1  0  0  0  0  0  0
    6.1201   26.0624   26.5730 N   0  0  0  0  0  0  0  0  0  0  0  0
    7.6897   25.7598   28.5968 O   0  0  0  0  0  0  0  0  0  0  0  0
    6.6947   25.4814   24.5814 N   0  0  0  0  0  0  0  0  0  0  0  0
   13.0474   21.4091   27.3283 O   0  0  0  0  0  0  0  0  0  0  0  0
    5.3250   26.4122   23.3824 C   0  0  0  0  0  0  0  0  0  0  0  0
    5.0135   24.2261   30.0553 O   0  0  0  0  0  0  0  0  0  0  0  0
    3.9678   27.3470   23.3497 N   0  0  0  0  0  0  0  0  0  0  0  0
   10.6551   24.9721   26.5667 O   0  0  0  0  0  0  0  0  0  0  0  0
   10.1741   23.8741   27.2299 P   0  0  0  0  0  0  0  0  0  0  0  0
    4.9882   26.5153   29.9882 O   0  0  0  0  0  0  0  0  0  0  0  0
    5.7363   26.0073   28.3315 C   0  0  0  0  0  0  0  0  0  0  0  0
    4.1754   27.6008   24.4962 C   0  0  0  0  0  0  0  0  0  0  0  0
    9.4592   24.1092   28.4954 O   0  0  0  0  0  0  0  0  0  0  0  0
  3  1  1  0
  4  2  1  0
  5  4  1  0
  6  3  1  0
  9  7  1  0
 11  7  1  0
 12  2  1  0
 13  3  1  0
 14  2  2  0
 14  4  1  0
 15  7  1  0
 16  4  1  0
 16 10  1  0
 17  1  1  0
 18 16  2  0
 19  7  1  0
 20  8  1  0
 20 19  1  0
 21  1  1  0
 22  1  1  0
 22 12  1  0
 23  5  1  0
 23 18  1  0
 24  6  1  0
 24 20  1  0
M  RAD  2   7   2  11   2
M  END
>  <ID>  (1) 
conformer_0

$$$$
