
     RDKit          3D

 24 26  0  0  0  0  0  0  0  0999 V2000
    6.0180   26.1434   28.2499 C   0  0  0  0  0  0  0  0  0  0  0  0
    5.3323   26.4749   23.4960 C   0  0  0  0  0  0  0  0  0  0  0  0
    5.8576   25.1990   28.8149 C   0  0  0  0  0  0  0  0  0  0  0  0
    4.6403   27.4050   25.8057 N   0  0  0  0  0  0  0  0  0  0  0  0
    6.7398   25.8132   25.7521 C   0  0  0  0  0  0  0  0  0  0  0  0
   11.5859   21.4967   28.8645 P   0  0  0  0  0  4  0  0  0  0  0  0
    6.9049   25.5287   24.4491 N   0  0  0  0  0  0  0  0  0  0  0  0
    6.9954   24.8489   29.4419 C   0  0  0  0  0  0  0  0  0  0  0  0
    6.2528   26.0955   26.5313 N   0  0  0  0  0  0  0  0  0  0  0  0
    9.4079   22.8916   26.7773 O   0  0  0  0  0  0  0  0  0  0  0  0
    5.3535   26.3583   21.9946 N   0  0  0  0  0  0  0  0  0  0  0  0
    8.0931   25.4587   28.3817 O   0  0  0  0  0  0  0  0  0  0  0  0
   10.5010   20.8517   28.5200 O   0  0  0  0  0  0  0  0  0  0  0  0
   10.5390   23.2793   28.7942 O   0  0  0  0  0  0  0  0  0  0  0  0
    3.9639   27.3199   23.6063 N   0  0  0  0  0  0  0  0  0  0  0  0
   12.5316   21.8405   27.6985 O   0  0  0  0  0  1  0  0  0  0  0  0
    5.6447   26.5149   24.9221 C   0  0  0  0  0  0  0  0  0  0  0  0
    5.3201   26.7088   29.7453 O   0  0  0  0  0  0  0  0  0  0  0  0
    5.8383   24.2886   30.4064 O   0  0  0  0  0  0  0  0  0  0  0  0
   10.7588   24.5896   27.1149 O   0  0  0  0  0  0  0  0  0  0  0  0
   10.2816   23.5813   27.6081 P   0  0  0  0  0  0  0  0  0  0  0  0
   11.8576   21.2406   29.9641 O   0  0  0  0  0  0  0  0  0  0  0  0
    4.0158   27.5910   24.8523 C   0  0  0  0  0  0  0  0  0  0  0  0
    8.5652   24.3131   29.3909 C   0  0  0  0  0  0  0  0  0  0  0  0
  3  1  1  0
  7  5  2  0
  8  3  1  0
  9  1  1  0
  9  5  1  0
 11  2  1  0
 12  8  1  0
 13  6  1  0
 14  6  1  0
 15  2  2  0
 16  6  1  0
 17  2  1  0
 17  4  1  0
 17  5  1  0
 17  7  1  0
 18  1  1  0
 19  8  1  0
 21 10  1  0
 21 14  1  0
 21 20  1  0
 22  6  1  0
 23  4  2  0
 23 15  1  0
 24  8  1  0
 24 12  1  0
 24 20  1  0
M  RAD  2   6   2  16   2
M  END
>  <ID>  (1) 
conformer_0

$$$$
