
     RDKit          3D

 25 27  0  0  0  0  0  0  0  0999 V2000
    6.1681   25.8295   25.7564 C   0  0  0  0  0  0  0  0  0  0  0  0
    6.9907   24.7399   29.3131 C   0  0  0  0  0  0  0  0  0  0  0  0
    5.7298   25.1929   28.8091 C   0  0  0  0  0  0  0  0  0  0  0  0
    4.8638   26.4044   23.1830 C   0  0  0  0  0  3  0  0  0  0  0  0
    4.8112   27.5215   25.6034 N   0  0  0  0  0  0  0  0  0  0  0  0
    6.2125   25.2908   24.6519 N   0  0  0  0  0  0  0  0  0  0  0  0
    7.3659   26.2553   28.4451 O   0  0  0  0  0  0  0  0  0  0  0  0
   12.1017   21.9444   28.4601 P   0  0  0  0  0  4  0  0  0  0  0  0
    8.3256   24.7180   29.2015 C   0  0  0  0  0  0  0  0  0  0  0  0
    9.1882   23.1427   26.3940 O   0  0  0  0  0  0  0  0  0  0  0  0
    4.9076   26.0263   21.9418 N   0  0  0  0  0  0  0  0  0  0  0  0
   11.3725   23.4421   27.8719 O   0  0  0  0  0  0  0  0  0  0  0  0
   12.6115   22.0775   29.6219 O   0  0  0  0  0  0  0  0  0  0  0  0
   13.1606   21.5050   27.5127 O   0  0  0  0  0  1  0  0  0  0  0  0
   10.0404   24.1495   27.1160 P   0  0  0  0  0  0  0  0  0  0  0  0
    4.5053   25.3387   29.6660 O   0  0  0  0  0  0  0  0  0  0  0  0
    5.4167   26.3914   24.5156 C   0  0  0  0  0  0  0  0  0  0  0  0
    6.1045   26.0674   26.5367 N   0  0  0  0  0  0  0  0  0  0  0  0
    3.8598   27.4920   23.4554 N   0  0  0  0  0  0  0  0  0  0  0  0
   10.3995   25.0570   26.2023 O   0  0  0  0  0  0  0  0  0  0  0  0
    9.3137   24.5460   28.0862 O   0  0  0  0  0  0  0  0  0  0  0  0
    6.2106   23.7396   30.0805 O   0  0  0  0  0  0  0  0  0  0  0  0
   10.8299   21.2658   28.6235 O   0  0  0  0  0  0  0  0  0  0  0  0
    5.7307   26.2710   28.0402 C   0  0  0  0  0  0  0  0  0  0  0  0
    4.0229   27.7720   24.7491 C   0  0  0  0  0  0  0  0  0  0  0  0
  3  2  1  0
  6  1  2  0
  7  2  1  0
  9  2  1  0
 11  4  1  0
 12  8  1  0
 13  8  1  0
 14  8  1  0
 15 10  1  0
 15 12  1  0
 16  3  1  0
 17  1  1  0
 17  4  1  0
 17  5  1  0
 17  6  1  0
 18  1  1  0
 19  4  1  0
 20  9  1  0
 21  9  1  0
 21 15  1  0
 22  2  1  0
 23  8  1  0
 24  3  1  0
 24  7  1  0
 24 18  1  0
 25  5  2  0
 25 19  1  0
M  RAD  3   4   2   8   2  14   2
M  END
>  <ID>  (1) 
conformer_0

$$$$
