
     RDKit          3D

 26 28  0  0  0  0  0  0  0  0999 V2000
    5.8553   25.2222   29.1168 C   0  0  0  0  0  0  0  0  0  0  0  0
    3.4605   27.7872   24.8861 C   0  0  0  0  0  0  0  0  0  0  0  0
    6.9053   24.6928   29.5133 C   0  0  0  0  0  0  0  0  0  0  0  0
    4.4069   27.6041   25.9960 N   0  0  0  0  0  0  0  0  0  0  0  0
    5.6594   26.3302   24.4226 C   0  0  0  0  0  0  0  0  0  0  0  0
    6.1919   26.2840   26.7358 N   0  0  0  0  0  0  0  0  0  0  0  0
    6.5570   25.5615   24.6977 N   0  0  0  0  0  0  0  0  0  0  0  0
   11.7501   21.7376   28.3173 P   0  0  0  0  0  5  0  0  0  0  0  0
    7.3544   26.0638   28.5924 O   0  0  0  0  0  0  0  0  0  0  0  0
   10.1604   21.3035   28.4980 O   0  0  0  0  0  0  0  0  0  0  0  0
    5.0583   26.0416   22.2706 N   0  0  0  0  0  0  0  0  0  0  0  0
    8.1551   24.2509   29.3683 C   0  0  0  0  0  0  0  0  0  0  0  0
    3.8655   27.3816   23.7531 N   0  0  0  0  0  0  0  0  0  0  0  0
   12.6419   21.2975   27.1777 O   0  0  0  0  0  0  0  0  0  0  0  0
   11.4251   23.2426   28.0110 O   0  0  0  0  0  0  0  0  0  0  0  0
    4.8561   26.5685   23.4078 C   0  0  0  0  0  0  0  0  0  0  0  0
    9.1518   22.8656   26.6331 O   0  0  0  0  0  0  0  0  0  0  0  0
    5.5040   24.0375   30.4598 O   0  0  0  0  0  0  0  0  0  0  0  0
    9.9815   23.6838   27.3725 P   0  0  0  0  0  0  0  0  0  0  0  0
   10.4269   24.7461   26.4762 O   0  0  0  0  0  0  0  0  0  0  0  0
    9.2419   24.2186   28.3419 O   0  0  0  0  0  0  0  0  0  0  0  0
    5.2679   26.8601   25.7845 C   0  0  0  0  0  0  0  0  0  0  0  0
    5.8468   26.3143   28.2059 C   0  0  0  0  0  0  0  0  0  0  0  0
    4.5347   25.8732   29.6866 O   0  0  0  0  0  0  0  0  0  0  0  0
   11.9989   21.4636   29.2972 O   0  0  0  0  0  0  0  0  0  0  0  0
    6.8022   25.5886   25.9982 C   0  0  0  0  0  0  0  0  0  0  0  0
  3  1  1  0
  4  2  2  0
  7  5  1  0
  9  3  1  0
 10  8  1  0
 12  3  1  0
 13  2  1  0
 14  8  1  0
 15  8  1  0
 16  5  1  0
 16 11  1  0
 16 13  2  0
 18  3  1  0
 19 17  1  0
 20  8  1  0
 20 19  1  0
 21 12  1  0
 21 19  1  0
 22  4  1  0
 22  5  2  0
 22  6  1  0
 23  1  1  0
 23  6  1  0
 23  9  1  0
 24  1  1  0
 25  8  1  0
 26  6  1  0
 26  7  2  0
M  END
>  <ID>  (1) 
conformer_0

$$$$
