
     RDKit          3D

 26 28  0  0  0  0  0  0  0  0999 V2000
    6.0415   26.3714   28.0854 C   0  0  0  0  0  0  0  0  0  0  0  0
    6.4925   25.2398   25.5619 C   0  0  0  0  0  0  0  0  0  0  0  0
    5.6617   25.4383   28.6648 C   0  0  0  0  0  0  0  0  0  0  0  0
    4.7729   26.1829   23.1870 C   0  0  0  0  0  0  0  0  0  0  0  0
   11.8640   21.7353   28.8203 P   0  0  0  0  0  5  0  0  0  0  0  0
    7.5445   26.0916   28.2892 O   0  0  0  0  0  0  0  0  0  0  0  0
    4.6293   27.5268   25.7135 N   0  0  0  0  0  0  0  0  0  0  0  0
    8.5112   24.6769   29.3979 C   0  0  0  0  0  0  0  0  0  0  0  0
    6.4506   25.2629   24.5339 N   0  0  0  0  0  0  0  0  0  0  0  0
    4.7968   25.8006   21.9834 N   0  0  0  0  0  0  0  0  0  0  0  0
   11.0517   20.7910   28.5394 O   0  0  0  0  0  0  0  0  0  0  0  0
    9.1092   22.6139   27.2591 O   0  0  0  0  0  0  0  0  0  0  0  0
    5.4699   26.2720   24.0547 C   0  0  0  0  0  0  0  0  0  0  0  0
   11.2806   23.1741   28.2287 O   0  0  0  0  0  0  0  0  0  0  0  0
   13.0936   21.8033   27.8816 O   0  0  0  0  0  0  0  0  0  0  0  0
    5.9412   26.2040   26.5524 N   0  0  0  0  0  0  0  0  0  0  0  0
    4.5908   26.6021   29.2857 O   0  0  0  0  0  0  0  0  0  0  0  0
   12.0521   21.9929   30.1274 O   0  0  0  0  0  0  0  0  0  0  0  0
   10.1659   23.7840   27.5661 P   0  0  0  0  0  0  0  0  0  0  0  0
    3.8736   27.3149   23.4634 N   0  0  0  0  0  0  0  0  0  0  0  0
    5.2205   24.5363   30.0882 O   0  0  0  0  0  0  0  0  0  0  0  0
    3.6923   27.8153   24.7519 C   0  0  0  0  0  0  0  0  0  0  0  0
   10.5814   24.5219   26.6042 O   0  0  0  0  0  0  0  0  0  0  0  0
    6.7814   24.7807   29.3570 C   0  0  0  0  0  0  0  0  0  0  0  0
    9.2044   24.4815   28.3385 O   0  0  0  0  0  0  0  0  0  0  0  0
    5.2192   26.6627   25.6761 C   0  0  0  0  0  0  0  0  0  0  0  0
  3  1  1  0
  6  1  1  0
  9  2  2  0
 10  4  1  0
 11  5  1  0
 13  4  2  0
 13  9  1  0
 14  5  1  0
 15  5  1  0
 16  1  1  0
 16  2  1  0
 17  3  1  0
 18  5  1  0
 19 12  1  0
 20  4  1  0
 22  7  1  0
 22 20  2  0
 23  5  1  0
 23 19  1  0
 24  3  1  0
 24  6  1  0
 24  8  1  0
 24 21  1  0
 25  8  1  0
 25 19  1  0
 26  7  2  0
 26 13  1  0
 26 16  1  0
M  END
>  <ID>  (1) 
conformer_0

$$$$
