
     RDKit          3D

 26 28  0  0  0  0  0  0  0  0999 V2000
    5.8368   25.2373   28.9170 C   0  0  0  0  0  0  0  0  0  0  0  0
    6.9043   25.5741   25.6593 C   0  0  0  0  0  0  0  0  0  0  0  0
    7.1662   24.7658   29.4172 C   0  0  0  0  0  0  0  0  0  0  0  0
    5.4115   26.3189   24.0999 C   0  0  0  0  0  0  0  0  0  0  0  0
    3.5786   27.4247   23.3364 N   0  0  0  0  0  0  0  0  0  0  0  0
    6.1220   26.2086   26.3791 N   0  0  0  0  0  0  0  0  0  0  0  0
    7.4943   26.1467   28.4684 O   0  0  0  0  0  0  0  0  0  0  0  0
   12.8356   22.0690   29.7319 O   0  0  0  0  0  0  0  0  0  0  0  0
   12.1687   21.4481   28.6555 P   0  0  0  0  0  4  0  0  0  0  0  0
    6.5107   25.5245   24.2666 N   0  0  0  0  0  0  0  0  0  0  0  0
   12.8880   21.0249   27.3700 O   0  0  0  0  0  1  0  0  0  0  0  0
    5.7493   26.1429   28.0772 C   0  0  0  0  0  0  0  0  0  0  0  0
    5.3047   26.7430   25.4133 C   0  0  0  0  0  0  0  0  0  0  0  0
    4.9920   26.2395   21.8581 N   0  0  0  0  0  0  0  0  0  0  0  0
   11.3152   23.0851   28.4977 O   0  0  0  0  0  0  0  0  0  0  0  0
    5.8662   23.9835   30.3078 O   0  0  0  0  0  0  0  0  0  0  0  0
    4.3926   27.5495   25.6285 N   0  0  0  0  0  0  0  0  0  0  0  0
   11.2079   20.6304   28.8734 O   0  0  0  0  0  0  0  0  0  0  0  0
   10.4487   23.6779   27.7804 P   0  0  0  0  0  0  0  0  0  0  0  0
    9.4327   22.1621   27.7240 O   0  0  0  0  0  0  0  0  0  0  0  0
    3.3527   27.7359   24.6574 C   0  0  0  0  0  0  0  0  0  0  0  0
   10.5837   24.5728   26.7582 O   0  0  0  0  0  0  0  0  0  0  0  0
    9.3948   24.3483   28.5674 O   0  0  0  0  0  0  0  0  0  0  0  0
    8.6037   24.5865   29.4399 C   0  0  0  0  0  0  0  0  0  0  0  0
    4.8225   26.0271   29.9025 O   0  0  0  0  0  0  0  0  0  0  0  0
    4.6832   26.6531   23.1469 C   0  0  0  0  0  0  0  0  0  0  0  0
  3  1  1  0
  6  2  1  0
  7  3  1  0
  9  8  1  0
 10  2  2  0
 10  4  1  0
 11  9  1  0
 12  1  1  0
 12  6  1  0
 12  7  1  0
 13  4  2  0
 13  6  1  0
 15  9  1  0
 16  3  1  0
 17 13  1  0
 18  9  1  0
 19 15  1  0
 20 19  1  0
 21  5  1  0
 21 17  2  0
 22 19  1  0
 24  3  1  0
 24 22  1  0
 24 23  1  0
 25  1  1  0
 26  4  1  0
 26  5  2  0
 26 14  1  0
M  RAD  2   9   2  11   2
M  END
>  <ID>  (1) 
conformer_0

$$$$
