
     RDKit          3D

 25 26  0  0  0  0  0  0  0  0999 V2000
    6.0461   26.1012   28.0320 C   0  0  2  0  0  0  0  0  0  0  0  0
    5.2994   26.4492   25.0689 C   0  0  2  0  0  0  0  0  0  0  0  0
    5.6197   25.1501   28.7278 C   0  0  0  0  0  0  0  0  0  0  0  0
    6.4685   25.5456   25.5125 C   0  0  0  0  0  0  0  0  0  0  0  0
    3.6875   27.2453   23.4210 N   0  0  0  0  0  0  0  0  0  0  0  0
    9.2465   23.2124   26.4189 O   0  0  0  0  0  0  0  0  0  0  0  0
   10.2749   23.9626   27.3538 P   0  0  0  0  0  0  0  0  0  0  0  0
    6.3574   25.5935   24.1971 N   0  0  0  0  0  0  0  0  0  0  0  0
    5.9728   26.0604   26.3971 N   0  0  0  0  0  0  0  0  0  0  0  0
    7.4109   26.2603   28.3001 O   0  0  0  0  0  0  0  0  0  0  0  0
   11.4572   21.3852   29.2247 O   0  0  0  0  0  0  0  0  0  0  0  0
    4.8917   26.1644   21.9094 N   0  0  0  0  0  0  0  0  0  0  0  0
   11.0619   23.3837   28.2455 O   0  0  0  0  0  0  0  0  0  0  0  0
    6.8846   24.6499   29.5450 C   0  0  0  0  0  0  0  0  0  0  0  0
    4.9271   26.3673   23.3417 C   0  0  0  0  0  0  0  0  0  0  0  0
    4.5268   26.2812   29.3665 O   0  0  0  0  0  0  0  0  0  0  0  0
   12.5376   21.8781   27.5036 O   0  0  0  0  0  0  0  0  0  0  0  0
    4.2759   27.3742   25.7390 N   0  0  0  0  0  0  0  0  0  0  0  0
    3.7094   27.4064   24.7706 C   0  0  0  0  0  0  0  0  0  0  0  0
   11.5121   22.0642   28.4764 P   0  0  0  0  0  5  0  0  0  0  0  0
    9.3561   21.8663   28.0522 O   0  0  0  0  0  0  0  0  0  0  0  0
   10.8573   24.8465   26.6392 O   0  0  0  0  0  0  0  0  0  0  0  0
    8.3431   24.9741   29.4087 C   0  0  0  0  0  0  0  0  0  0  0  0
    5.0261   24.4419   30.1106 O   0  0  0  0  0  0  0  0  0  0  0  0
    9.1295   24.7691   28.2200 O   0  0  0  0  0  0  0  0  0  0  0  0
  3  1  1  0
  4  2  1  0
  7  6  1  0
  8  2  1  0
  8  4  1  0
  9  1  1  0
  9  4  2  3
  1 10  1  6
 14  3  1  0
 15  5  2  0
 15  8  1  0
 15 12  1  0
 16  3  1  0
  2 18  1  6
 19  5  1  0
 19 18  2  0
 20 11  1  0
 20 13  1  0
 20 17  1  0
 21 20  1  0
 22  7  1  0
 22 20  1  0
 23 14  1  0
 24  3  1  0
 25  7  1  0
 25 23  1  0
M  END
>  <ID>  (1) 
conformer_0

$$$$
