
     RDKit          3D

 26 28  0  0  0  0  0  0  0  0999 V2000
    5.8695   26.0673   28.1365 C   0  0  0  0  0  0  0  0  0  0  0  0
    4.7469   26.5001   23.2289 C   0  0  0  0  0  0  0  0  0  0  0  0
    5.7664   24.9547   28.6842 C   0  0  0  0  0  0  0  0  0  0  0  0
    6.7464   25.4950   25.6183 C   0  0  0  0  0  0  0  0  0  0  0  0
    4.4029   27.3392   25.7337 N   0  0  0  0  0  0  0  0  0  0  0  0
    6.5495   25.2855   24.2678 N   0  0  0  0  0  0  0  0  0  0  0  0
    6.0718   25.9541   26.3886 N   0  0  0  0  0  0  0  0  0  0  0  0
   11.7908   21.9537   28.7223 P   0  0  0  0  0  5  0  0  0  0  0  0
    7.3745   26.2986   28.3643 O   0  0  0  0  0  0  0  0  0  0  0  0
    5.2113   25.9515   21.9821 N   0  0  0  0  0  0  0  0  0  0  0  0
    9.1487   22.9732   26.7080 O   0  0  0  0  0  0  0  0  0  0  0  0
    7.1160   24.8455   29.4282 C   0  0  0  0  0  0  0  0  0  0  0  0
    3.7975   27.2404   23.4728 N   0  0  0  0  0  0  0  0  0  0  0  0
    5.1230   26.6223   25.5193 C   0  0  0  0  0  0  0  0  0  0  0  0
   11.3294   23.3720   28.4389 O   0  0  0  0  0  0  0  0  0  0  0  0
   12.2643   21.5642   29.7009 O   0  0  0  0  0  0  0  0  0  0  0  0
   12.4589   21.6323   27.3633 O   0  0  0  0  0  0  0  0  0  0  0  0
    4.5455   26.0962   29.4072 O   0  0  0  0  0  0  0  0  0  0  0  0
   10.5482   24.3387   26.1261 O   0  0  0  0  0  0  0  0  0  0  0  0
   10.1158   23.6947   27.1901 P   0  0  0  0  0  0  0  0  0  0  0  0
    5.5225   23.9988   30.0064 O   0  0  0  0  0  0  0  0  0  0  0  0
   10.0678   21.5094   28.6051 O   0  0  0  0  0  0  0  0  0  0  0  0
    9.2891   24.6003   28.1262 O   0  0  0  0  0  0  0  0  0  0  0  0
    3.4679   27.7924   24.8279 C   0  0  0  0  0  0  0  0  0  0  0  0
    8.5459   24.9437   29.3215 C   0  0  0  0  0  0  0  0  0  0  0  0
    5.5532   26.0514   24.1106 C   0  0  0  0  0  0  0  0  0  0  0  0
  3  1  1  0
  6  4  2  0
  7  1  1  0
  7  4  1  0
  9  1  1  0
 10  2  1  0
 12  3  1  0
 12  9  1  0
 13  2  2  0
 14  5  1  0
 14  7  1  0
 15  8  1  0
 16  8  1  0
 17  8  1  0
 18  3  1  0
 19  8  1  0
 20 11  1  0
 20 19  1  0
 21  3  1  0
 22  8  1  0
 23 20  1  0
 24  5  2  0
 24 13  1  0
 25 12  1  0
 25 23  1  0
 26  2  1  0
 26  6  1  0
 26 14  2  0
M  END
>  <ID>  (1) 
conformer_0

$$$$
