
     RDKit          3D

 27 29  0  0  0  0  0  0  0  0999 V2000
    5.7339   26.3892   24.2087 C   0  0  0  0  0  0  0  0  0  0  0  0
    5.4910   25.2111   28.7739 C   0  0  0  0  0  0  0  0  0  0  0  0
    5.9416   26.2658   27.8323 C   0  0  0  0  0  0  0  0  0  0  0  0
    7.0279   25.5207   25.7978 C   0  0  0  0  0  0  0  0  0  0  0  0
    4.5280   27.4942   25.6696 N   0  0  0  0  0  0  0  0  0  0  0  0
    6.1939   26.1516   26.4753 N   0  0  0  0  0  0  0  0  0  0  0  0
   11.9501   21.8639   28.7217 P   0  0  0  0  0  5  0  0  0  0  0  0
    5.2127   26.1166   21.9480 N   0  0  0  0  0  0  0  0  0  0  0  0
   11.2091   23.2017   28.4780 O   0  0  0  0  0  0  0  0  0  0  0  0
    6.8000   25.6016   24.4233 N   0  0  0  0  0  0  0  0  0  0  0  0
    7.5691   26.0059   28.3261 O   0  0  0  0  0  0  0  0  0  0  0  0
    3.8506   27.2690   23.4958 N   0  0  0  0  0  0  0  0  0  0  0  0
    7.0021   24.1676   29.5572 C   0  0  0  0  0  0  0  0  0  0  0  0
   12.7757   22.1142   29.6747 O   0  0  0  0  0  0  0  0  0  0  0  0
    4.9135   26.3807   23.2669 C   0  0  0  0  0  0  0  0  0  0  0  0
    9.3804   22.6663   27.0956 O   0  0  0  0  0  0  0  0  0  0  0  0
   12.6902   21.4752   27.3697 O   0  0  0  0  0  0  0  0  0  0  0  0
    4.6561   26.2433   29.4755 O   0  0  0  0  0  0  0  0  0  0  0  0
   10.9352   21.0047   28.5722 O   0  0  0  0  0  0  0  0  0  0  0  0
   10.7307   24.6036   26.5213 O   0  0  0  0  0  1  0  0  0  0  0  0
    3.5253   27.7222   24.6620 C   0  0  0  0  0  0  0  0  0  0  0  0
   10.2952   23.6205   27.4886 P   0  0  0  0  0  4  0  0  0  0  0  0
    7.1843   25.4740   29.3433 C   0  0  0  0  0  0  0  0  0  0  0  0
    9.2483   24.3518   28.3781 O   0  0  0  0  0  0  0  0  0  0  0  0
    5.3673   24.4133   30.1679 O   0  0  0  0  0  0  0  0  0  0  0  0
    5.3716   26.5901   25.5057 C   0  0  0  0  0  0  0  0  0  0  0  0
    8.9639   24.2865   29.6108 C   0  0  0  0  0  0  0  0  0  0  0  0
  3  2  1  0
  6  3  1  0
  6  4  1  0
  9  7  1  0
 10  1  1  0
 10  4  2  0
 11  3  1  0
 14  7  1  0
 15  1  1  0
 15  8  1  0
 15 12  2  0
 17  7  1  0
 18  2  1  0
 19  7  1  0
 21  5  2  0
 21 12  1  0
 22  9  1  0
 22 16  1  0
 22 20  1  0
 23  2  1  0
 23 11  1  0
 23 13  1  0
 25  2  1  0
 26  1  2  0
 26  5  1  0
 26  6  1  0
 27  7  1  0
 27 13  1  0
 27 24  1  0
M  RAD  2  20   2  22   2
M  END
>  <ID>  (1) 
conformer_0

$$$$
