
     RDKit          3D

 28 30  0  0  0  0  0  0  0  0999 V2000
    6.0511   26.3746   27.8235 C   0  0  0  0  0  0  0  0  0  0  0  0
    4.9007   26.4569   23.1855 C   0  0  0  0  0  0  0  0  0  0  0  0
    5.0912   25.9994   28.5950 C   0  0  0  0  0  0  0  0  0  0  0  0
    6.7892   25.6011   25.6420 C   0  0  0  0  0  0  0  0  0  0  0  0
    4.5284   27.6426   25.6194 N   0  0  0  0  0  0  0  0  0  0  0  0
    5.9426   24.7363   29.1001 C   0  0  0  0  0  0  0  0  0  0  0  0
   11.0172   24.9405   26.8590 O   0  0  0  0  0  0  0  0  0  0  0  0
   11.8693   21.4716   28.6049 P   0  0  0  0  0  4  0  0  0  0  0  0
    7.5185   25.9700   28.1696 O   0  0  0  0  0  0  0  0  0  0  0  0
    6.0718   26.3765   26.4165 N   0  0  0  0  0  0  0  0  0  0  0  0
    6.5666   25.4897   24.3734 N   0  0  0  0  0  0  0  0  0  0  0  0
   12.5427   21.0162   27.2345 O   0  0  0  0  0  1  0  0  0  0  0  0
    5.0529   26.1484   21.9351 N   0  0  0  0  0  0  0  0  0  0  0  0
    9.6805   23.2216   26.3264 O   0  0  0  0  0  0  0  0  0  0  0  0
   12.6919   21.8886   29.6603 O   0  0  0  0  0  0  0  0  0  0  0  0
    5.6177   26.3196   24.2105 C   0  0  0  0  0  0  0  0  0  0  0  0
   10.3810   23.9077   27.5635 P   0  0  0  0  0  5  0  0  0  0  0  0
    4.2355   26.7170   29.2673 O   0  0  0  0  0  0  0  0  0  0  0  0
    3.8693   27.3410   23.3601 N   0  0  0  0  0  0  0  0  0  0  0  0
   11.2773   20.4425   28.9361 O   0  0  0  0  0  0  0  0  0  0  0  0
   11.2397   22.9744   28.2912 O   0  0  0  0  0  0  0  0  0  0  0  0
    9.3224   24.5085   28.2408 O   0  0  0  0  0  0  0  0  0  0  0  0
    7.2507   24.9015   29.0264 C   0  0  0  0  0  0  0  0  0  0  0  0
    3.6014   27.7629   24.6098 C   0  0  0  0  0  0  0  0  0  0  0  0
    9.1984   21.8805   27.9876 O   0  0  0  0  0  0  0  0  0  0  0  0
    5.1691   25.1188   30.1572 O   0  0  0  0  0  0  0  0  0  0  0  0
    5.3219   26.8717   25.5932 C   0  0  0  0  0  0  0  0  0  0  0  0
    8.8410   24.3310   29.2613 C   0  0  0  0  0  0  0  0  0  0  0  0
  3  1  1  0
  6  3  1  0
  9  1  1  0
 10  1  1  0
 10  4  1  0
 11  4  2  0
 12  8  1  0
 13  2  1  0
 15  8  1  0
 16  2  2  0
 16 11  1  0
 17 14  1  0
 18  3  1  0
 19  2  1  0
 20  8  1  0
 21  8  1  0
 21 17  1  0
 22 17  1  0
 23  6  1  0
 23  9  1  0
 24  5  1  0
 24 19  2  0
 25 17  1  0
 26  6  1  0
 27  5  2  0
 27 10  1  0
 27 16  1  0
 28  7  1  0
 28 22  1  0
 28 23  1  0
M  RAD  2   8   2  12   2
M  END
>  <ID>  (1) 
conformer_0

$$$$
