
     RDKit          3D

 25 27  0  0  0  0  0  0  0  0999 V2000
    4.7350   26.3600   23.1212 C   0  0  0  0  0  3  0  0  0  0  0  0
    5.8265   25.3493   28.6513 C   0  0  0  0  0  0  0  0  0  0  0  0
    8.3063   24.7762   29.3924 C   0  0  0  0  0  0  0  0  0  0  0  0
    6.3151   25.7640   25.4516 C   0  0  0  0  0  0  0  0  0  0  0  0
    4.7400   27.4541   25.5958 N   0  0  0  0  0  0  0  0  0  0  0  0
    6.2240   25.3403   24.2911 N   0  0  0  0  0  0  0  0  0  0  0  0
   11.4876   21.8536   28.8696 P   0  0  0  0  0  4  0  0  0  0  0  0
   10.7779   25.1258   26.5807 O   0  0  0  0  0  0  0  0  0  0  0  0
    9.3329   22.9738   26.6283 O   0  0  0  0  0  0  0  0  0  0  0  0
    7.6778   25.7447   28.1254 O   0  0  0  0  0  0  0  0  0  0  0  0
    4.6931   26.0845   21.8551 N   0  0  0  0  0  0  0  0  0  0  0  0
    6.3179   26.1438   28.0728 C   0  0  0  0  0  0  0  0  0  0  0  0
   11.9368   21.6766   29.9070 O   0  0  0  0  0  0  0  0  0  0  0  0
    5.2848   26.3791   24.4202 C   0  0  0  0  0  0  0  0  0  0  0  0
   12.1751   21.6560   27.4334 O   0  0  0  0  0  1  0  0  0  0  0  0
    6.3411   25.9189   26.3099 N   0  0  0  0  0  0  0  0  0  0  0  0
    4.8713   26.2178   29.3564 O   0  0  0  0  0  0  0  0  0  0  0  0
    3.5845   27.3992   23.4981 N   0  0  0  0  0  0  0  0  0  0  0  0
    5.9518   24.2317   30.5919 O   0  0  0  0  0  0  0  0  0  0  0  0
   10.1930   23.9848   27.2797 P   0  0  0  0  0  0  0  0  0  0  0  0
   11.1295   23.2839   28.4467 O   0  0  0  0  0  0  0  0  0  0  0  0
   10.0654   21.2702   28.6229 O   0  0  0  0  0  0  0  0  0  0  0  0
    6.9209   24.5172   29.6492 C   0  0  0  0  0  0  0  0  0  0  0  0
    3.7895   27.6490   24.7882 C   0  0  0  0  0  0  0  0  0  0  0  0
    9.3031   24.4631   28.1581 O   0  0  0  0  0  0  0  0  0  0  0  0
  6  4  2  0
  8  3  1  0
 10  3  1  0
 11  1  1  0
 12  2  1  0
 12 10  1  0
 13  7  1  0
 14  1  1  0
 14  4  1  0
 14  5  1  0
 14  6  1  0
 15  7  1  0
 16  4  1  0
 16 12  1  0
 17  2  1  0
 18  1  1  0
 20  9  1  0
 21  7  1  0
 21 20  1  0
 22  7  1  0
 23  2  1  0
 23  3  1  0
 23 19  1  0
 24  5  2  0
 24 18  1  0
 25  3  1  0
 25 20  1  0
M  RAD  3   1   2   7   2  15   2
M  END
>  <ID>  (1) 
conformer_0

$$$$
