
     RDKit          3D

 24 24  0  0  0  0  0  0  0  0999 V2000
    7.1239   24.5206   29.5393 C   0  0  0  0  0  0  0  0  0  0  0  0
    5.0299   26.4656   23.5560 C   0  0  0  0  0  0  0  0  0  0  0  0
    5.9039   25.1680   28.9224 C   0  0  1  0  0  0  0  0  0  0  0  0
    4.3946   27.4176   25.8133 N   0  0  0  0  0  0  0  0  0  0  0  0
    5.3285   26.5395   25.0221 C   0  0  0  0  0  0  0  0  0  0  0  0
    6.6149   25.5542   24.4605 N   0  0  0  0  0  0  0  0  0  0  0  0
   10.6386   23.6755   28.4012 O   0  0  0  0  0  0  0  0  0  0  0  0
   12.0943   21.9479   28.4452 P   0  0  0  0  0  4  0  0  0  0  0  0
    5.0416   26.1999   22.1539 N   0  0  0  0  0  0  0  0  0  0  0  0
    7.8951   25.6680   28.3547 O   0  0  0  0  0  0  0  0  0  0  0  0
    8.3837   24.5001   29.3521 C   0  0  2  0  0  0  0  0  0  0  0  0
    3.5203   27.5853   24.9162 C   0  0  0  0  0  0  0  0  0  0  0  0
   11.0396   21.1406   28.8293 O   0  0  0  0  0  0  0  0  0  0  0  0
    6.4048   26.1135   26.5014 N   0  0  0  0  0  0  0  0  0  0  0  0
   12.5194   21.8608   27.2776 O   0  0  0  0  0  1  0  0  0  0  0  0
    4.5019   26.2304   29.2731 O   0  0  0  0  0  0  0  0  0  0  0  0
    3.6633   27.4085   23.5512 N   0  0  0  0  0  0  0  0  0  0  0  0
    5.6000   24.1157   30.2752 O   0  0  0  0  0  0  0  0  0  0  0  0
   12.7899   22.5350   29.3712 O   0  0  0  0  0  0  0  0  0  0  0  0
    9.3616   22.3887   27.5301 O   0  0  0  0  0  0  0  0  0  0  0  0
    6.7936   25.7175   25.6552 C   0  0  0  0  0  0  0  0  0  0  0  0
   10.4840   24.8396   26.9127 O   0  0  0  0  0  0  0  0  0  0  0  0
    6.0144   26.0535   28.0482 C   0  0  0  0  0  0  0  0  0  0  0  0
   10.5041   23.8149   27.4991 P   0  0  0  0  0  0  0  0  0  0  0  0
  3  1  1  0
  5  2  1  0
  5  4  2  0
  6  5  1  0
  8  7  1  0
  9  2  1  0
 11  1  1  0
 11 10  1  1
 12  4  1  0
 13  8  1  0
 15  8  1  0
  3 16  1  1
 17  2  2  0
 17 12  1  0
 18  1  1  0
 19  8  1  0
 21  6  2  3
 21 14  1  0
 22 11  1  0
 23  3  1  0
 23 14  2  3
 24  7  1  0
 24 20  1  0
 24 22  1  0
M  RAD  2   8   2  15   2
M  END
>  <ID>  (1) 
conformer_0

$$$$
