
     RDKit          3D

 25 27  0  0  0  0  0  0  0  0999 V2000
    5.7763   25.1450   29.0372 C   0  0  0  0  0  0  0  0  0  0  0  0
    5.0600   26.4312   23.4578 C   0  0  0  0  0  0  0  0  0  0  0  0
    7.0792   24.6308   29.5446 C   0  0  0  0  0  0  0  0  0  0  0  0
    6.2926   25.7861   25.7284 C   0  0  0  0  0  0  0  0  0  0  0  0
    3.7480   27.3618   23.3863 N   0  0  0  0  0  0  0  0  0  0  0  0
    5.9405   26.1588   26.6756 N   0  0  0  0  0  0  0  0  0  0  0  0
    4.9710   26.1119   22.1485 N   0  0  0  0  0  0  0  0  0  0  0  0
   11.9646   21.9799   28.4025 P   0  0  0  0  0  5  0  0  0  0  0  0
    7.3505   26.1663   28.4657 O   0  0  0  0  0  0  0  0  0  0  0  0
    9.8910   23.8064   26.8712 P   0  0  0  0  0  0  0  0  0  0  0  0
   12.8594   22.3960   29.0990 O   0  0  0  0  0  0  0  0  0  0  0  0
    8.3731   24.7621   29.0672 C   0  0  0  0  0  0  0  0  0  0  0  0
    6.4002   25.5281   24.5692 N   0  0  0  0  0  0  0  0  0  0  0  0
    8.8606   22.8357   26.6103 O   0  0  0  0  0  0  0  0  0  0  0  0
   10.3904   24.6498   25.9428 O   0  0  0  0  0  0  0  0  0  0  0  0
    3.6930   27.6264   24.8839 C   0  0  0  0  0  0  0  0  0  0  0  0
    5.6325   24.3655   30.4942 O   0  0  0  0  0  0  0  0  0  0  0  0
   11.3099   23.0840   27.5797 O   0  0  0  0  0  0  0  0  0  0  0  0
   10.7193   21.2607   28.3839 O   0  0  0  0  0  0  0  0  0  0  0  0
    4.3437   27.5330   25.5589 N   0  0  0  0  0  0  0  0  0  0  0  0
    9.2263   24.4221   27.8380 O   0  0  0  0  0  0  0  0  0  0  0  0
   11.9005   20.7090   28.6398 O   0  0  0  0  0  0  0  0  0  0  0  0
    4.3853   26.0092   29.4404 O   0  0  0  0  0  0  0  0  0  0  0  0
    5.3189   26.5823   25.1155 C   0  0  0  0  0  0  0  0  0  0  0  0
    5.7431   26.0816   28.1028 C   0  0  0  0  0  0  0  0  0  0  0  0
  3  1  1  0
  5  2  2  0
  6  4  1  0
  7  2  1  0
 11  8  1  0
 12  3  1  0
 12  9  1  0
 13  4  2  0
 14 10  1  0
 15  8  1  0
 15 10  1  0
 16  5  1  0
 17  1  1  0
 18  8  1  0
 19  8  1  0
 20 16  2  0
 21 10  1  0
 21 12  1  0
 22  8  1  0
 23  1  1  0
 24  2  1  0
 24  4  1  0
 24 13  1  0
 24 20  1  0
 25  1  1  0
 25  6  1  0
 25  9  1  0
M  END
>  <ID>  (1) 
conformer_0

$$$$
