
     RDKit          3D

 24 25  0  0  0  0  0  0  0  0999 V2000
    6.9976   24.7656   29.4202 C   0  0  0  0  0  0  0  0  0  0  0  0
    5.3924   26.1506   23.2569 C   0  0  0  0  0  3  0  0  0  0  0  0
    8.3935   24.7620   29.4562 C   0  0  0  0  0  0  0  0  0  0  0  0
    6.5970   25.5305   25.5732 C   0  0  0  0  0  0  0  0  0  0  0  0
    4.8988   27.4892   25.4456 N   0  0  0  0  0  0  0  0  0  0  0  0
   11.9818   21.9062   28.5380 P   0  0  0  0  0  4  0  0  0  0  0  0
    7.5663   26.1081   28.3864 O   0  0  0  0  0  0  0  0  0  0  0  0
    5.7898   25.4024   28.8081 C   0  0  0  0  0  0  0  0  0  0  0  0
    9.2768   22.8052   26.8558 O   0  0  0  0  0  0  0  0  0  0  0  0
    6.7497   25.2873   24.3743 N   0  0  0  0  0  0  0  0  0  0  0  0
    6.1230   26.0447   26.3459 N   0  0  0  0  0  0  0  0  0  0  0  0
   11.1340   20.9518   28.5273 O   0  0  0  0  0  0  0  0  0  0  0  0
    5.1647   25.8508   21.7095 N   0  0  0  0  0  0  0  0  0  0  0  0
    9.3627   23.8725   28.6931 O   0  0  0  0  0  0  0  0  0  0  0  0
    5.6524   26.4089   24.7290 C   0  0  0  0  0  0  0  0  0  0  0  0
    5.2562   24.4145   30.1184 O   0  0  0  0  0  0  0  0  0  0  0  0
   12.7382   21.7982   27.3838 O   0  0  0  0  0  1  0  0  0  0  0  0
    4.1384   27.1816   23.1959 N   0  0  0  0  0  0  0  0  0  0  0  0
    4.3602   26.3869   29.0944 O   0  0  0  0  0  0  0  0  0  0  0  0
   12.3605   22.3036   29.7507 O   0  0  0  0  0  0  0  0  0  0  0  0
    5.7081   26.2090   27.9946 C   0  0  0  0  0  0  0  0  0  0  0  0
   11.1096   23.7186   27.8119 O   0  0  0  0  0  0  0  0  0  0  0  0
    4.0569   27.4841   24.2150 C   0  0  0  0  0  0  0  0  0  0  0  0
   10.1696   23.4676   27.8460 P   0  0  0  0  0  0  0  0  0  0  0  0
  3  1  1  0
  7  1  1  0
  8  1  1  0
 10  4  2  0
 11  4  1  0
 12  6  1  0
 13  2  1  0
 14  3  1  0
 15  2  1  0
 15  4  1  0
 15  5  1  0
 15 10  1  0
 16  8  1  0
 17  6  1  0
 18  2  1  0
 20  6  1  0
 21  8  1  0
 21 11  1  0
 21 19  1  0
 22  6  1  0
 23  5  2  0
 23 18  1  0
 24  9  1  0
 24 14  1  0
 24 22  1  0
M  RAD  3   2   2   6   2  17   2
M  END
>  <ID>  (1) 
conformer_0

$$$$
