
     RDKit          3D

 24 25  0  0  0  0  0  0  0  0999 V2000
    6.7529   24.9776   29.3946 C   0  0  0  0  0  0  0  0  0  0  0  0
    5.2956   26.4050   24.5656 C   0  0  0  0  0  0  0  0  0  0  0  0
    8.0471   24.6614   29.4778 C   0  0  0  0  0  0  0  0  0  0  0  0
    6.1557   25.7469   25.6272 C   0  0  0  0  0  0  0  0  0  0  0  0
    4.3228   27.4720   25.5486 N   0  0  0  0  0  2  0  0  0  0  0  0
   11.6361   21.7139   28.5589 P   0  0  0  0  0  4  0  0  0  0  0  0
    6.4202   25.4246   24.2984 N   0  0  0  0  0  0  0  0  0  0  0  0
    5.8287   26.1580   26.3879 N   0  0  0  0  0  0  0  0  0  0  0  0
   12.3011   22.1277   29.6552 O   0  0  0  0  0  0  0  0  0  0  0  0
   10.9581   24.4822   27.0626 O   0  0  0  0  0  0  0  0  0  0  0  0
    7.6048   26.1928   28.4852 O   0  0  0  0  0  0  0  0  0  0  0  0
    5.6163   25.3704   28.6928 C   0  0  0  0  0  0  0  0  0  0  0  0
    5.0004   26.3289   23.1584 C   0  0  0  0  0  0  0  0  0  0  0  0
    5.4072   26.0958   21.9065 N   0  0  0  0  0  0  0  0  0  0  0  0
   12.5211   21.5219   27.4052 O   0  0  0  0  0  1  0  0  0  0  0  0
    9.2143   22.7239   27.2434 O   0  0  0  0  0  0  0  0  0  0  0  0
   10.1227   24.3220   27.5912 P   0  0  0  0  0  0  0  0  0  0  0  0
    3.7097   27.3131   23.2517 N   0  0  0  0  0  0  0  0  0  0  0  0
    4.4153   26.0134   29.5454 O   0  0  0  0  0  0  0  0  0  0  0  0
    9.5276   24.5236   28.5377 O   0  0  0  0  0  0  0  0  0  0  0  0
   10.4997   21.1828   28.7547 O   0  0  0  0  0  0  0  0  0  0  0  0
    3.6594   27.5484   24.6198 C   0  0  0  0  0  0  0  0  0  0  0  0
    5.6031   26.3926   27.9845 C   0  0  0  0  0  0  0  0  0  0  0  0
    5.2392   24.0884   29.8823 O   0  0  0  0  0  0  0  0  0  0  0  0
  3  1  1  0
  4  2  1  0
  5  2  1  0
  7  2  1  0
  7  4  2  0
  8  4  1  0
  9  6  1  0
 10  6  1  0
 11  1  1  0
 12  1  1  0
 13  2  1  0
 14 13  1  0
 15  6  1  0
 17 10  1  0
 17 16  1  0
 18 13  1  0
 19 12  1  0
 20  3  1  0
 20 17  1  0
 21  6  1  0
 22  5  1  0
 22 18  2  0
 23  8  1  0
 23 12  1  0
 24 12  1  0
M  RAD  3   5   2   6   2  15   2
M  END
>  <ID>  (1) 
conformer_0

$$$$
