
     RDKit          3D

 23 24  0  0  0  0  0  0  0  0999 V2000
    5.8365   25.1543   28.7631 C   0  0  0  0  0  0  0  0  0  0  0  0
    5.3322   26.4792   24.7333 C   0  0  0  0  0  0  0  0  0  0  0  0
    7.0250   24.6945   29.3787 C   0  0  0  0  0  0  0  0  0  0  0  0
    6.4825   25.6932   25.5338 C   0  0  0  0  0  0  0  0  0  0  0  0
    4.6401   27.4064   25.7420 N   0  0  0  0  0  2  0  0  0  0  0  0
   11.8565   21.8078   28.6043 P   0  0  0  0  0  4  0  0  0  0  0  0
    6.1267   25.9522   26.3462 N   0  0  0  0  0  0  0  0  0  0  0  0
    4.9775   26.3575   23.2973 C   0  0  0  0  0  0  0  0  0  0  0  0
   10.0414   23.8233   28.3654 O   0  0  0  0  0  0  0  0  0  0  0  0
    3.7806   27.3713   23.4479 N   0  0  0  0  0  0  0  0  0  0  0  0
    7.7423   25.7619   28.1253 O   0  0  0  0  0  0  0  0  0  0  0  0
   10.8412   20.9385   28.5523 O   0  0  0  0  0  0  0  0  0  0  0  0
    4.8038   26.0270   21.8860 N   0  0  0  0  0  0  0  0  0  0  0  0
    6.4084   25.4789   24.2481 N   0  0  0  0  0  0  0  0  0  0  0  0
    8.2981   24.5726   29.1966 C   0  0  0  0  0  0  0  0  0  0  0  0
   12.3005   22.2230   27.5257 O   0  0  0  0  0  1  0  0  0  0  0  0
    5.1013   26.2553   29.9868 O   0  0  0  0  0  0  0  0  0  0  0  0
   12.5703   22.0216   29.6778 O   0  0  0  0  0  0  0  0  0  0  0  0
   10.4695   24.0543   27.5470 P   0  0  0  0  0  0  0  0  0  0  0  0
   10.8104   24.8059   26.8869 O   0  0  0  0  0  0  0  0  0  0  0  0
    3.7677   27.6937   24.7681 C   0  0  0  0  0  0  0  0  0  0  0  0
    5.8537   25.8887   27.9411 C   0  0  0  0  0  0  0  0  0  0  0  0
    5.2010   24.3323   29.7294 O   0  0  0  0  0  0  0  0  0  0  0  0
  3  1  1  0
  4  2  1  0
  5  2  1  0
  7  4  1  0
  8  2  1  0
 10  8  1  0
 12  6  1  0
 13  8  1  0
 14  2  1  0
 14  4  2  0
 15  3  1  0
 15 11  1  0
 16  6  1  0
 17  1  1  0
 18  6  1  0
 19  6  1  0
 19  9  1  0
 19 15  1  0
 20  9  1  0
 21  5  1  0
 21 10  2  0
 22  1  1  0
 22  7  1  0
 23  1  1  0
M  RAD  3   5   2   6   2  16   2
M  END
>  <ID>  (1) 
conformer_0

$$$$
