
     RDKit          3D

 17 18  0  0  0  0  0  0  0  0999 V2000
   19.3147   22.3402   19.6677 O   0  0  0  0  0  0  0  0  0  0  0  0
   20.2958   22.5641   20.3086 C   0  0  0  0  0  0  0  0  0  0  0  0
   21.6101   22.1530   20.1199 N   0  0  0  0  0  0  0  0  0  0  0  0
   20.2340   23.3912   21.7213 C   0  0  0  0  0  0  0  0  0  0  0  0
   22.4790   21.8710   21.1636 C   0  0  0  0  0  0  0  0  0  0  0  0
   21.9424   21.7607   18.7546 C   0  0  0  0  0  0  0  0  0  0  0  0
   21.1209   23.3248   22.6947 C   0  0  0  0  0  0  0  0  0  0  0  0
   23.1280   22.4467   18.2791 C   0  0  0  0  0  0  0  0  0  0  0  0
   23.0631   23.0628   17.0422 C   0  0  0  0  0  0  0  0  0  0  0  0
   24.1579   22.5857   19.1174 C   0  0  0  0  0  0  0  0  0  0  0  0
   19.2089   24.2594   21.7386 O   0  0  0  0  0  0  0  0  0  0  0  0
   25.2882   23.3103   18.6662 C   0  0  0  0  0  0  0  0  0  0  0  0
   22.2552   22.5769   22.2932 C   0  0  0  0  0  0  0  0  0  0  0  0
   25.3076   23.9450   17.4596 C   0  0  0  0  0  0  0  0  0  0  0  0
   26.4725   24.6428   17.0819 F   0  0  0  0  0  0  0  0  0  0  0  0
   23.4949   21.0314   21.0167 O   0  0  0  0  0  0  0  0  0  0  0  0
   24.2218   23.8534   16.6787 C   0  0  0  0  0  0  0  0  0  0  0  0
  1  2  2  0
  2  3  1  0
  2  4  1  0
  3  5  1  0
  3  6  1  0
  4  7  1  0
  6  8  1  0
  8  9  1  0
  8 10  2  0
  4 11  2  0
 10 12  1  0
  5 13  1  0
  7 13  2  0
 12 14  2  0
 14 15  1  0
  5 16  2  0
  9 17  2  0
 14 17  1  0
M  END
>  <ID>  (1) 
conformer_0

$$$$
