
     RDKit          3D

  9  9  0  0  0  0  0  0  0  0999 V2000
   24.6469   24.7904   17.5131 C   0  0  0  0  0  0  0  0  0  0  0  0
   24.5220   23.6236   17.3692 C   0  0  0  0  0  0  0  0  0  0  0  0
   23.3343   22.9804   17.3759 C   0  0  0  0  0  0  0  0  0  0  0  0
   22.2667   23.6340   17.9245 C   0  0  0  0  0  0  0  0  0  0  0  0
   20.9752   22.9807   18.1702 C   0  0  0  0  0  0  0  0  0  0  0  0
   25.9793   25.5447   17.3536 C   0  0  0  0  0  0  0  0  0  0  0  0
   23.6074   25.5851   18.1766 C   0  0  0  0  0  0  0  0  0  0  0  0
   22.5436   25.0416   18.4794 C   0  0  0  0  0  0  0  0  0  0  0  0
   20.9902   21.6898   18.3153 O   0  0  0  0  0  0  0  0  0  0  0  0
  1  2  2  0
  2  3  1  0
  3  4  2  0
  4  5  1  0
  1  6  1  0
  1  7  1  0
  4  8  1  0
  7  8  2  0
  5  9  1  0
M  END
>  <ID>  (1) 
conformer_0

$$$$
