
     RDKit          3D

 13 14  0  0  0  0  0  0  0  0999 V2000
   19.3147   22.3402   19.6677 O   0  0  0  0  0  0  0  0  0  0  0  0
   20.4938   22.0177   19.7178 C   0  0  0  0  0  0  0  0  0  0  0  0
   20.9546   20.8675   19.6747 N   0  0  0  0  0  0  0  0  0  0  0  0
   21.4631   23.1186   19.8210 C   0  0  0  0  0  0  0  0  0  0  0  0
   22.8741   22.7160   19.7851 C   0  0  0  0  0  0  0  0  0  0  0  0
   22.3024   20.4558   19.6251 C   0  0  0  0  0  0  0  0  0  0  0  0
   21.0922   24.4476   20.0445 C   0  0  0  0  0  0  0  0  0  0  0  0
   23.2468   21.5246   19.7685 N   0  0  0  0  0  0  0  0  0  0  0  0
   22.1562   25.3351   20.3788 C   0  0  0  0  0  0  0  0  0  0  0  0
   23.8421   23.8287   20.0993 C   0  0  0  0  0  0  0  0  0  0  0  0
   24.5745   21.1916   19.2662 C   0  0  0  0  0  0  0  0  0  0  0  0
   22.6580   19.2572   19.5716 O   0  0  0  0  0  0  0  0  0  0  0  0
   23.4651   25.0659   20.3616 C   0  0  0  0  0  0  0  0  0  0  0  0
  1  2  2  0
  2  3  1  0
  2  4  1  0
  4  5  2  0
  3  6  1  0
  4  7  1  0
  5  8  1  0
  6  8  1  0
  7  9  2  0
  5 10  1  0
  8 11  1  0
  6 12  2  0
  9 13  1  0
 10 13  2  0
M  END
>  <ID>  (1) 
conformer_0

$$$$
