
     RDKit          3D

 16 17  0  0  0  0  0  0  0  0999 V2000
   24.6469   24.7904   17.5131 C   0  0  0  0  0  0  0  0  0  0  0  0
   24.5220   23.6236   17.3692 C   0  0  0  0  0  0  0  0  0  0  0  0
   25.5545   22.7047   17.1448 C   0  0  0  0  0  0  0  0  0  0  0  0
   23.1942   23.1750   16.9933 C   0  0  0  0  0  0  0  0  0  0  0  0
   25.3290   21.3204   17.1697 C   0  0  0  0  0  0  0  0  0  0  0  0
   23.6625   25.8488   17.7410 C   0  0  0  0  0  0  0  0  0  0  0  0
   25.6754   20.7564   18.4541 C   0  0  0  0  0  0  0  0  0  0  0  0
   22.1084   24.0382   17.2481 C   0  0  0  0  0  0  0  0  0  0  0  0
   24.6665   20.3464   19.2878 N   0  0  0  0  0  0  0  0  0  0  0  0
   23.5599   20.7940   19.1528 C   0  0  0  0  0  0  0  0  0  0  0  0
   25.1664   19.9216   20.6307 C   0  0  0  0  0  0  0  0  0  0  0  0
   20.7384   23.5724   17.0254 F   0  0  0  0  0  0  0  0  0  0  0  0
   22.3122   25.3792   17.5609 C   0  0  0  0  0  0  0  0  0  0  0  0
   22.6353   20.3016   20.1948 C   0  0  0  0  0  0  0  0  0  0  0  0
   23.2072   20.2265   21.4283 C   0  0  0  0  0  0  0  0  0  0  0  0
   24.1691   19.2784   21.3564 C   0  0  0  0  0  0  0  0  0  0  0  0
  1  2  2  0
  2  3  1  0
  2  4  1  0
  3  5  1  0
  1  6  1  0
  5  7  1  0
  4  8  2  0
  7  9  1  0
  9 10  1  0
  9 11  1  0
  8 12  1  0
  6 13  2  0
  8 13  1  0
 10 14  1  0
 14 15  1  0
 11 16  1  0
 15 16  1  0
M  END
>  <ID>  (1) 
conformer_0

$$$$
