
     RDKit          3D

 16 17  0  0  0  0  0  0  0  0999 V2000
   19.3147   22.3402   19.6677 O   0  0  0  0  0  0  0  0  0  0  0  0
   20.2958   22.5641   20.3086 C   0  0  0  0  0  0  0  0  0  0  0  0
   21.6101   22.1530   20.1199 N   0  0  0  0  0  0  0  0  0  0  0  0
   22.6317   22.3646   20.9554 C   0  0  0  0  0  0  0  0  0  0  0  0
   20.1400   23.3303   21.6953 C   0  0  0  0  0  0  0  0  0  0  0  0
   21.8091   21.1619   19.0541 C   0  0  0  0  0  0  0  0  0  0  0  0
   22.5981   21.7082   18.0246 C   0  0  0  0  0  0  0  0  0  0  0  0
   23.9511   21.9722   20.3692 C   0  0  0  0  0  0  0  0  0  0  0  0
   22.2700   21.6927   22.0741 C   0  0  0  0  0  0  0  0  0  0  0  0
   23.9634   22.0395   18.8075 C   0  0  0  0  0  0  0  0  0  0  0  0
   25.0033   21.1871   18.2217 C   0  0  0  0  0  0  0  0  0  0  0  0
   24.2443   23.5401   18.4297 C   0  0  0  0  0  0  0  0  0  0  0  0
   23.9508   23.8460   17.1386 O   0  0  0  0  0  0  0  0  0  0  0  0
   21.2310   22.7063   22.7725 C   0  0  0  0  0  0  0  0  0  0  0  0
   24.0046   24.4708   19.2575 O   0  0  0  0  0  0  0  0  0  0  0  0
   20.2590   24.5859   21.6504 O   0  0  0  0  0  0  0  0  0  0  0  0
  1  2  2  0
  2  3  1  0
  3  4  1  0
  2  5  1  0
  3  6  1  0
  6  7  1  0
  4  8  1  0
  4  9  1  0
  7 10  1  0
  8 10  1  0
 10 11  1  0
 10 12  1  0
 12 13  1  0
  5 14  1  0
  9 14  1  0
 12 15  2  0
  5 16  1  0
M  END
>  <ID>  (1) 
conformer_0

$$$$
