
     RDKit          3D

 16 17  0  0  0  0  0  0  0  0999 V2000
   25.1484   23.5024   17.0701 C   0  0  0  0  0  0  0  0  0  0  0  0
   24.7512   24.6060   17.3374 C   0  0  0  0  0  0  0  0  0  0  0  0
   23.5096   24.8282   17.6725 C   0  0  0  0  0  0  0  0  0  0  0  0
   24.3610   22.3684   17.1289 C   0  0  0  0  0  0  0  0  0  0  0  0
   23.0415   26.1852   18.0330 O   0  0  0  0  0  0  0  0  0  0  0  0
   22.6252   23.8319   17.8210 C   0  0  0  0  0  0  0  0  0  0  0  0
   24.1007   27.1474   18.0752 C   0  0  0  0  0  0  0  0  0  0  0  0
   21.2409   23.9906   18.2685 O   0  0  0  0  0  0  0  0  0  0  0  0
   20.5475   22.9161   18.6298 C   0  0  0  0  0  0  0  0  0  0  0  0
   21.1372   21.7982   18.5812 C   0  0  0  0  0  0  0  0  0  0  0  0
   19.1313   23.2251   18.8675 C   0  0  0  0  0  0  0  0  0  0  0  0
   20.3392   20.6817   18.9570 C   0  0  0  0  0  0  0  0  0  0  0  0
   22.4172   21.7062   18.0659 C   0  0  0  0  0  0  0  0  0  0  0  0
   22.8451   20.3154   18.1078 O   0  0  0  0  0  0  0  0  0  0  0  0
   19.0924   23.3738   20.1387 O   0  0  0  0  0  0  0  0  0  0  0  0
   23.1056   22.5974   17.7191 C   0  0  0  0  0  0  0  0  0  0  0  0
  1  2  2  0
  2  3  1  0
  1  4  1  0
  3  5  1  0
  3  6  2  0
  5  7  1  0
  6  8  1  0
  8  9  1  0
  9 10  2  0
  9 11  1  0
 10 12  1  0
 10 13  1  0
 13 14  2  0
 11 15  1  0
  4 16  2  0
  6 16  1  0
 13 16  1  0
M  END
>  <ID>  (1) 
conformer_0

$$$$
