
     RDKit          3D

 10 10  0  0  0  0  0  0  0  0999 V2000
   24.6469   24.7904   17.5131 C   0  0  0  0  0  0  0  0  0  0  0  0
   24.5220   23.6236   17.3692 C   0  0  0  0  0  0  0  0  0  0  0  0
   25.5545   22.7047   17.1448 C   0  0  0  0  0  0  0  0  0  0  0  0
   23.1942   23.1750   16.9933 C   0  0  0  0  0  0  0  0  0  0  0  0
   22.8897   21.8157   17.0070 O   0  0  0  0  0  0  0  0  0  0  0  0
   22.1433   24.0175   17.1157 C   0  0  0  0  0  0  0  0  0  0  0  0
   23.6936   25.8250   17.5147 C   0  0  0  0  0  0  0  0  0  0  0  0
   22.3924   25.3727   17.3276 C   0  0  0  0  0  0  0  0  0  0  0  0
   21.9385   21.4344   17.9718 C   0  0  0  0  0  0  0  0  0  0  0  0
   26.7945   23.0563   17.3723 O   0  0  0  0  0  0  0  0  0  0  0  0
  1  2  2  0
  2  3  1  0
  2  4  1  0
  4  5  1  0
  4  6  2  0
  1  7  1  0
  6  8  1  0
  7  8  2  0
  5  9  1  0
  3 10  2  0
M  END
>  <ID>  (1) 
conformer_0

$$$$
