
     RDKit          3D

 16 16  0  0  0  0  0  0  0  0999 V2000
   19.6798   24.1268   21.6759 O   0  0  0  0  0  0  0  0  0  0  0  0
   20.2479   23.5668   20.8214 C   0  0  0  0  0  0  0  0  0  0  0  0
   21.5741   23.7147   20.6591 C   0  0  0  0  0  0  0  0  0  0  0  0
   22.2638   24.8459   21.3578 C   0  0  0  0  0  0  0  0  0  0  0  0
   22.1003   23.6206   19.2855 C   0  0  0  0  0  0  0  0  0  0  0  0
   22.3545   22.3672   21.3009 C   0  0  0  0  0  0  0  0  0  0  0  0
   22.9330   24.5955   18.7286 O   0  0  0  0  0  0  0  0  0  0  0  0
   22.2484   21.1577   20.5499 C   0  0  0  0  0  0  0  0  0  0  0  0
   21.9348   22.5075   18.4077 C   0  0  0  0  0  0  0  0  0  0  0  0
   22.5116   21.2791   19.0831 C   0  0  0  0  0  0  0  0  0  0  0  0
   22.5708   22.6896   17.0348 C   0  0  0  0  0  0  0  0  0  0  0  0
   20.5423   22.3526   18.0235 C   0  0  0  0  0  0  0  0  0  0  0  0
   22.6991   20.0845   21.0685 C   0  0  0  0  0  0  0  0  0  0  0  0
   20.6754   20.7408   20.5823 O   0  0  0  0  0  0  0  0  0  0  0  0
   23.2063   19.1042   20.3180 O   0  0  0  0  0  0  0  0  0  0  0  0
   19.5285   23.0047   20.0331 O   0  0  0  0  0  0  0  0  0  0  0  0
  1  2  1  0
  2  3  1  0
  3  4  1  0
  3  5  1  0
  3  6  1  0
  5  7  2  0
  6  8  1  0
  5  9  1  0
  8 10  1  0
  9 10  1  0
  9 11  1  0
  9 12  1  0
  8 13  1  0
  8 14  1  0
 13 15  1  0
  2 16  2  0
M  END
>  <ID>  (1) 
conformer_0

$$$$
