
     RDKit          3D

 16 17  0  0  0  0  0  0  0  0999 V2000
   24.6469   24.7904   17.5131 C   0  0  0  0  0  0  0  0  0  0  0  0
   24.5220   23.6236   17.3692 C   0  0  0  0  0  0  0  0  0  0  0  0
   25.5545   22.7047   17.1448 C   0  0  0  0  0  0  0  0  0  0  0  0
   26.0662   25.1557   17.7788 C   0  0  0  0  0  0  0  0  0  0  0  0
   23.1309   23.2256   16.9777 C   0  0  0  0  0  0  0  0  0  0  0  0
   25.1696   21.3182   16.8702 N   0  0  0  0  0  0  0  0  0  0  0  0
   22.8186   21.8727   16.9746 N   0  0  0  0  0  0  0  0  0  0  0  0
   21.5297   21.4640   17.2699 C   0  0  0  0  0  0  0  0  0  0  0  0
   20.8254   22.4935   18.1787 C   0  0  0  0  0  0  0  0  0  0  0  0
   21.5242   22.6629   19.5138 C   0  0  0  0  0  0  0  0  0  0  0  0
   26.7525   23.1695   17.4114 N   0  0  0  0  0  0  0  0  0  0  0  0
   24.0097   21.2642   17.3594 C   0  0  0  0  0  0  0  0  0  0  0  0
   20.7638   23.1676   20.5303 C   0  0  0  0  0  0  0  0  0  0  0  0
   27.0444   24.2048   17.6222 C   0  0  0  0  0  0  0  0  0  0  0  0
   19.5000   23.2746   20.4725 O   0  0  0  0  0  0  0  0  0  0  0  0
   21.3274   23.5455   21.7089 N   0  0  0  0  0  0  0  0  0  0  0  0
  1  2  2  0
  2  3  1  0
  1  4  1  0
  2  5  1  0
  3  6  1  0
  5  7  1  0
  7  8  1  0
  8  9  1  0
  9 10  1  0
  3 11  2  0
  6 12  1  0
  7 12  1  0
 10 13  1  0
  4 14  2  0
 11 14  1  0
 13 15  2  0
 13 16  1  0
M  END
>  <ID>  (1) 
conformer_0

$$$$
