
     RDKit          3D

 12 13  0  0  0  0  0  0  0  0999 V2000
   24.6469   24.7904   17.5131 C   0  0  0  0  0  0  0  0  0  0  0  0
   24.5220   23.6236   17.3692 C   0  0  0  0  0  0  0  0  0  0  0  0
   25.5545   22.7047   17.1448 C   0  0  0  0  0  0  0  0  0  0  0  0
   23.1942   23.1750   16.9933 C   0  0  0  0  0  0  0  0  0  0  0  0
   22.8897   21.8157   17.0070 O   0  0  0  0  0  0  0  0  0  0  0  0
   22.1433   24.0175   17.1157 C   0  0  0  0  0  0  0  0  0  0  0  0
   26.0899   25.3164   17.6772 C   0  0  0  0  0  0  0  0  0  0  0  0
   26.8311   23.1287   17.3014 C   0  0  0  0  0  0  0  0  0  0  0  0
   27.1381   24.4240   17.5235 C   0  0  0  0  0  0  0  0  0  0  0  0
   20.8879   23.3477   17.0617 O   0  0  0  0  0  0  0  0  0  0  0  0
   22.2279   25.3655   17.4784 C   0  0  0  0  0  0  0  0  0  0  0  0
   23.6342   25.7989   17.5832 C   0  0  0  0  0  0  0  0  0  0  0  0
  1  2  2  0
  2  3  1  0
  2  4  1  0
  4  5  1  0
  4  6  2  0
  1  7  1  0
  3  8  2  0
  7  9  2  0
  8  9  1  0
  6 10  1  0
  6 11  1  0
  1 12  1  0
 11 12  2  0
M  END
>  <ID>  (1) 
conformer_0

$$$$
