
     RDKit          3D

  8  8  0  0  0  0  0  0  0  0999 V2000
   25.9878   23.6527   17.3088 C   0  0  0  0  0  0  0  0  0  0  0  0
   25.3446   24.6819   17.5525 C   0  0  0  0  0  0  0  0  0  0  0  0
   24.0090   24.7831   17.5711 C   0  0  0  0  0  0  0  0  0  0  0  0
   23.3905   26.0835   17.8397 C   0  0  0  0  0  0  0  0  0  0  0  0
   23.1781   23.7212   17.4801 C   0  0  0  0  0  0  0  0  0  0  0  0
   23.7998   22.4633   17.2637 C   0  0  0  0  0  0  0  0  0  0  0  0
   27.3625   23.4501   17.1328 C   0  0  0  0  0  0  0  0  0  0  0  0
   25.2286   22.3665   17.3078 C   0  0  0  0  0  0  0  0  0  0  0  0
  1  2  1  0
  2  3  2  0
  3  4  1  0
  3  5  1  0
  5  6  2  0
  1  7  1  0
  1  8  2  0
  6  8  1  0
M  END
>  <ID>  (1) 
conformer_0

$$$$
