
     RDKit          3D

 13 14  0  0  0  0  0  0  0  0999 V2000
   19.6798   24.1268   21.6759 O   0  0  0  0  0  0  0  0  0  0  0  0
   20.2479   23.5668   20.8214 C   0  0  0  0  0  0  0  0  0  0  0  0
   21.5741   23.7147   20.6591 C   0  0  0  0  0  0  0  0  0  0  0  0
   22.3815   22.9996   19.7395 C   0  0  0  0  0  0  0  0  0  0  0  0
   19.6946   22.6932   19.9498 C   0  0  0  0  0  0  0  0  0  0  0  0
   23.8269   23.2370   19.6313 C   0  0  0  0  0  0  0  0  0  0  0  0
   24.2910   24.3408   19.2815 N   0  0  0  0  0  0  0  0  0  0  0  0
   25.3468   24.3791   18.5434 N   0  0  0  0  0  0  0  0  0  0  0  0
   18.3051   22.4256   20.1814 O   0  0  0  0  0  0  0  0  0  0  0  0
   21.7785   22.0524   19.0395 C   0  0  0  0  0  0  0  0  0  0  0  0
   26.0298   23.2723   18.7001 C   0  0  0  0  0  0  0  0  0  0  0  0
   24.7650   22.2141   19.4935 S   0  0  0  0  0  0  0  0  0  0  0  0
   20.4161   21.8263   19.1155 C   0  0  0  0  0  0  0  0  0  0  0  0
  1  2  1  0
  2  3  1  0
  3  4  2  0
  2  5  2  0
  4  6  1  0
  6  7  2  0
  7  8  1  0
  5  9  1  0
  4 10  1  0
  8 11  2  0
  6 12  1  0
 11 12  1  0
  5 13  1  0
 10 13  2  0
M  END
>  <ID>  (1) 
conformer_0

$$$$
