
     RDKit          3D

 13 14  0  0  0  0  0  0  0  0999 V2000
   18.8790   24.2612   21.1834 O   0  0  0  0  0  0  0  0  0  0  0  0
   20.0619   24.2025   21.4288 C   0  0  0  0  0  0  0  0  0  0  0  0
   20.8573   23.2969   20.6167 C   0  0  0  0  0  0  0  0  0  0  0  0
   20.4297   22.3163   19.8491 C   0  0  0  0  0  0  0  0  0  0  0  0
   21.4029   21.3282   19.2406 C   0  0  0  0  0  0  0  0  0  0  0  0
   22.7365   21.4191   19.5036 C   0  0  0  0  0  0  0  0  0  0  0  0
   22.3725   23.4226   20.6623 C   0  0  0  0  0  0  0  0  0  0  0  0
   23.2829   22.5526   20.1984 C   0  0  0  0  0  0  0  0  0  0  0  0
   24.7531   22.7541   20.3412 C   0  0  0  0  0  0  0  0  0  0  0  0
   23.7038   20.5612   18.8072 C   0  0  0  0  0  0  0  0  0  0  0  0
   25.6002   21.9432   19.6767 C   0  0  0  0  0  0  0  0  0  0  0  0
   25.1647   20.8458   18.9383 C   0  0  0  0  0  0  0  0  0  0  0  0
   20.6576   25.0317   22.1098 O   0  0  0  0  0  0  0  0  0  0  0  0
  1  2  2  0
  2  3  1  0
  3  4  2  0
  4  5  1  0
  5  6  2  0
  3  7  1  0
  6  8  1  0
  7  8  2  0
  8  9  1  0
  6 10  1  0
  9 11  2  0
 10 12  2  0
 11 12  1  0
  2 13  1  0
M  END
>  <ID>  (1) 
conformer_0

$$$$
