
     RDKit          3D

 16 17  0  0  0  0  0  0  0  0999 V2000
   18.7102   24.3089   21.1795 O   0  0  0  0  0  0  0  0  0  0  0  0
   19.8923   23.9204   21.1817 C   0  0  0  0  0  0  0  0  0  0  0  0
   20.4030   23.0581   20.3080 C   0  0  0  0  0  0  0  0  0  0  0  0
   19.7378   22.1740   19.5424 C   0  0  0  0  0  0  0  0  0  0  0  0
   21.9145   22.9914   20.3924 C   0  0  0  0  0  0  0  0  0  0  0  0
   22.5802   21.9378   19.8724 C   0  0  0  0  0  0  0  0  0  0  0  0
   24.0403   21.9488   19.8236 C   0  0  0  0  0  0  0  0  0  0  0  0
   22.0622   21.3522   18.8763 C   0  0  0  0  0  0  0  0  0  0  0  0
   20.5079   21.0753   18.9502 C   0  0  0  0  0  0  0  0  0  0  0  0
   24.6704   20.5969   19.8217 C   0  0  0  0  0  0  0  0  0  0  0  0
   22.8618   20.9820   21.0510 C   0  0  0  0  0  0  0  0  0  0  0  0
   24.7804   23.0227   19.3649 O   0  0  0  0  0  0  0  0  0  0  0  0
   22.4716   24.2675   20.6307 C   0  0  0  0  0  0  0  0  0  0  0  0
   20.6411   24.5037   21.9978 O   0  0  0  0  0  0  0  0  0  0  0  0
   21.8032   20.5287   21.6713 O   0  0  0  0  0  0  0  0  0  0  0  0
   23.6316   19.9473   20.5419 C   0  0  0  0  0  0  0  0  0  0  0  0
  1  2  1  0
  2  3  1  0
  3  4  1  0
  3  5  2  0
  5  6  1  0
  6  7  1  0
  6  8  1  0
  4  9  1  0
  8  9  1  0
  7 10  1  0
  6 11  1  0
  7 12  2  0
  5 13  1  0
  2 14  2  0
 11 15  1  0
 10 16  1  0
 11 16  1  0
M  END
>  <ID>  (1) 
conformer_0

$$$$
