
     RDKit          3D

 17 19  0  0  0  0  0  0  0  0999 V2000
   19.3391   23.8669   22.2871 O   0  0  0  0  0  0  0  0  0  0  0  0
   19.7203   23.8728   20.9836 C   0  0  0  0  0  0  0  0  0  0  0  0
   20.9394   23.3455   20.7124 C   0  0  0  0  0  0  0  0  0  0  0  0
   22.0933   23.8331   21.0841 C   0  0  0  0  0  0  0  0  0  0  0  0
   21.0354   22.9825   19.2871 C   0  0  0  0  0  0  0  0  0  0  0  0
   23.2367   23.0483   21.0016 C   0  0  0  0  0  0  0  0  0  0  0  0
   20.0545   22.0288   18.8688 O   0  0  0  0  0  0  0  0  0  0  0  0
   22.4370   22.2896   18.8897 C   0  0  0  0  0  0  0  0  0  0  0  0
   22.9739   21.7295   21.6462 C   0  0  0  0  0  0  0  0  0  0  0  0
   22.6300   22.1997   17.3917 C   0  0  0  0  0  0  0  0  0  0  0  0
   23.6026   20.5845   21.0298 C   0  0  0  0  0  0  0  0  0  0  0  0
   23.4029   22.8446   19.6432 C   0  0  0  0  0  0  0  0  0  0  0  0
   19.0035   24.5336   20.2698 O   0  0  0  0  0  0  0  0  0  0  0  0
   22.3118   20.7799   19.2593 C   0  0  0  0  0  0  0  0  0  0  0  0
   23.9841   22.7734   17.1748 C   0  0  0  0  0  0  0  0  0  0  0  0
   23.1940   20.1793   19.9212 C   0  0  0  0  0  0  0  0  0  0  0  0
   24.4581   23.2693   18.7924 C   0  0  0  0  0  0  0  0  0  0  0  0
  1  2  1  0
  2  3  1  0
  3  4  1  0
  3  5  1  0
  4  6  1  0
  5  7  1  0
  5  8  1  0
  6  9  1  0
  8 10  1  0
  9 11  1  0
  6 12  1  0
  8 12  1  0
  2 13  2  0
  8 14  1  0
 10 15  1  0
 11 16  1  0
 14 16  1  0
 12 17  2  0
 15 17  1  0
M  END
>  <ID>  (1) 
conformer_0

$$$$
