
     RDKit          3D

 13 14  0  0  0  0  0  0  0  0999 V2000
   24.6469   24.7904   17.5131 C   0  0  0  0  0  0  0  0  0  0  0  0
   24.5220   23.6236   17.3692 C   0  0  0  0  0  0  0  0  0  0  0  0
   25.5545   22.7047   17.1448 C   0  0  0  0  0  0  0  0  0  0  0  0
   23.1942   23.1750   16.9933 C   0  0  0  0  0  0  0  0  0  0  0  0
   22.8897   21.8157   17.0070 O   0  0  0  0  0  0  0  0  0  0  0  0
   22.1625   21.4695   18.2242 C   0  0  0  0  0  0  0  0  0  0  0  0
   25.4547   21.3850   17.2682 N   0  0  0  0  0  0  0  0  0  0  0  0
   23.7268   25.7937   17.8951 C   0  0  0  0  0  0  0  0  0  0  0  0
   22.3936   25.2486   17.8641 C   0  0  0  0  0  0  0  0  0  0  0  0
   21.0708   22.1031   18.3891 C   0  0  0  0  0  0  0  0  0  0  0  0
   22.1434   24.0582   17.4050 C   0  0  0  0  0  0  0  0  0  0  0  0
   20.9551   23.4338   18.1962 C   0  0  0  0  0  0  0  0  0  0  0  0
   26.9442   23.1182   17.1311 N   0  0  0  0  0  0  0  0  0  0  0  0
  1  2  2  0
  2  3  1  0
  2  4  1  0
  4  5  1  0
  5  6  1  0
  3  7  2  0
  1  8  1  0
  8  9  2  0
  6 10  2  0
  4 11  2  0
  9 11  1  0
 10 12  1  0
 11 12  1  0
  3 13  1  0
M  END
>  <ID>  (1) 
conformer_0

$$$$
