
     RDKit          3D

  7  7  0  0  0  0  0  0  0  0999 V2000
   25.9878   23.6527   17.3088 C   0  0  0  0  0  0  0  0  0  0  0  0
   25.3446   24.6819   17.5525 C   0  0  0  0  0  0  0  0  0  0  0  0
   25.2816   22.3997   17.1054 C   0  0  0  0  0  0  0  0  0  0  0  0
   24.0807   24.7926   17.7140 C   0  0  0  0  0  0  0  0  0  0  0  0
   23.4209   26.0428   18.0563 C   0  0  0  0  0  0  0  0  0  0  0  0
   23.1986   23.7414   17.6911 C   0  0  0  0  0  0  0  0  0  0  0  0
   23.8995   22.3023   17.3432 C   0  0  0  0  0  0  0  0  0  0  0  0
  1  2  1  0
  1  3  2  0
  2  4  2  0
  4  5  1  0
  4  6  1  0
  3  7  1  0
  6  7  2  0
M  END
>  <ID>  (1) 
conformer_0

$$$$
