
     RDKit          3D

 15 16  0  0  0  0  0  0  0  0999 V2000
   19.3147   22.3402   19.6677 O   0  0  0  0  0  0  0  0  0  0  0  0
   20.2958   22.5641   20.3086 C   0  0  0  0  0  0  0  0  0  0  0  0
   21.6101   22.1530   20.1199 N   0  0  0  0  0  0  0  0  0  0  0  0
   22.4951   22.3840   20.9420 C   0  0  0  0  0  0  0  0  0  0  0  0
   20.1706   23.7363   21.2841 C   0  0  0  0  0  0  0  0  0  0  0  0
   21.8691   21.4953   18.8140 C   0  0  0  0  0  0  0  0  0  0  0  0
   22.3583   22.3381   17.8276 C   0  0  0  0  0  0  0  0  0  0  0  0
   21.6983   23.0780   17.0102 C   0  0  0  0  0  0  0  0  0  0  0  0
   22.4141   23.2276   22.0552 C   0  0  0  0  0  0  0  0  0  0  0  0
   23.8232   22.1618   17.5186 C   0  0  0  0  0  0  0  0  0  0  0  0
   18.9590   24.2164   21.5046 O   0  0  0  0  0  0  0  0  0  0  0  0
   24.6537   21.2822   18.2562 C   0  0  0  0  0  0  0  0  0  0  0  0
   24.2372   23.0587   16.6080 C   0  0  0  0  0  0  0  0  0  0  0  0
   21.0883   23.9259   22.2502 C   0  0  0  0  0  0  0  0  0  0  0  0
   22.6972   23.9405   16.1110 S   0  0  0  0  0  0  0  0  0  0  0  0
  1  2  2  0
  2  3  1  0
  3  4  1  0
  2  5  1  0
  3  6  1  0
  6  7  1  0
  7  8  2  0
  4  9  2  0
  7 10  1  0
  5 11  1  0
 10 12  1  0
 10 13  2  0
  5 14  2  0
  9 14  1  0
  8 15  1  0
 13 15  1  0
M  END
>  <ID>  (1) 
conformer_0

$$$$
