
     RDKit          3D

 14 14  0  0  0  0  0  0  0  0999 V2000
   19.6798   24.1268   21.6759 O   0  0  0  0  0  0  0  0  0  0  0  0
   19.5531   23.4680   20.6966 C   0  0  0  0  0  0  0  0  0  0  0  0
   20.7937   22.9624   20.1037 C   0  0  0  0  0  0  0  0  0  0  0  0
   21.9220   23.7060   20.3828 C   0  0  0  0  0  0  0  0  0  0  0  0
   20.9781   21.5230   20.5741 C   0  0  0  0  0  0  0  0  0  0  0  0
   20.4913   22.7910   18.5751 C   0  0  0  0  0  0  0  0  0  0  0  0
   23.1334   23.4124   19.6003 C   0  0  0  0  0  0  0  0  0  0  0  0
   22.2487   21.2184   21.1203 C   0  0  0  0  0  0  0  0  0  0  0  0
   18.3144   23.2582   20.2429 O   0  0  0  0  0  0  0  0  0  0  0  0
   24.0229   22.4222   20.2203 C   0  0  0  0  0  0  0  0  0  0  0  0
   23.4029   21.1914   20.5063 C   0  0  0  0  0  0  0  0  0  0  0  0
   24.4442   20.2873   21.1540 C   0  0  0  0  0  0  0  0  0  0  0  0
   22.9934   20.4261   19.3508 C   0  0  0  0  0  0  0  0  0  0  0  0
   23.1435   23.8179   18.3836 O   0  0  0  0  0  0  0  0  0  0  0  0
  1  2  1  0
  2  3  1  0
  3  4  1  0
  3  5  1  0
  3  6  1  0
  4  7  1  0
  5  8  1  0
  2  9  2  0
  7 10  1  0
  8 11  1  0
 10 11  1  0
 11 12  1  0
 11 13  1  0
  7 14  2  0
M  END
>  <ID>  (1) 
conformer_0

$$$$
