
     RDKit          3D

 17 19  0  0  0  0  0  0  0  0999 V2000
   24.6469   24.7904   17.5131 C   0  0  0  0  0  0  0  0  0  0  0  0
   24.5220   23.6236   17.3692 C   0  0  0  0  0  0  0  0  0  0  0  0
   25.5545   22.7047   17.1448 C   0  0  0  0  0  0  0  0  0  0  0  0
   23.1942   23.1750   16.9933 C   0  0  0  0  0  0  0  0  0  0  0  0
   22.8897   21.8157   17.0070 O   0  0  0  0  0  0  0  0  0  0  0  0
   25.4108   21.3525   17.1032 N   0  0  0  0  0  0  0  0  0  0  0  0
   23.1928   21.2945   18.2680 C   0  0  0  0  0  0  0  0  0  0  0  0
   24.5541   20.7048   18.0372 C   0  0  0  0  0  0  0  0  0  0  0  0
   22.4732   21.0449   19.2180 C   0  0  0  0  0  0  0  0  0  0  0  0
   22.8593   20.1536   20.2278 C   0  0  0  0  0  0  0  0  0  0  0  0
   24.1147   19.6672   20.2164 C   0  0  0  0  0  0  0  0  0  0  0  0
   26.7533   23.5025   17.0639 C   0  0  0  0  0  0  0  0  0  0  0  0
   21.8822   20.0619   21.5732 C   0  0  0  0  0  0  0  0  0  0  0  0
   24.9724   19.9117   19.1126 C   0  0  0  0  0  0  0  0  0  0  0  0
   22.1250   24.0322   17.2642 O   0  0  0  0  0  0  0  0  0  0  0  0
   26.0000   25.4667   17.5804 C   0  0  0  0  0  0  0  0  0  0  0  0
   27.0692   24.7127   17.2926 N   0  0  0  0  0  0  0  0  0  0  0  0
  1  2  2  0
  2  3  1  0
  2  4  1  0
  4  5  1  0
  3  6  2  0
  5  7  1  0
  6  8  1  0
  7  8  1  0
  7  9  2  0
  9 10  1  0
 10 11  2  0
  3 12  1  0
 10 13  1  0
  8 14  2  0
 11 14  1  0
  4 15  2  0
  1 16  1  0
 12 17  2  0
 16 17  1  0
M  END
>  <ID>  (1) 
conformer_0

$$$$
