
     RDKit          3D

  7  7  0  0  0  0  0  0  0  0999 V2000
   25.1484   23.5024   17.0701 C   0  0  0  0  0  0  0  0  0  0  0  0
   24.7512   24.6060   17.3374 C   0  0  0  0  0  0  0  0  0  0  0  0
   24.3738   22.3722   17.1338 C   0  0  0  0  0  0  0  0  0  0  0  0
   25.6198   25.7718   17.2683 O   0  0  0  0  0  0  0  0  0  0  0  0
   23.0748   22.4599   17.4104 C   0  0  0  0  0  0  0  0  0  0  0  0
   22.6019   23.7090   17.8087 C   0  0  0  0  0  0  0  0  0  0  0  0
   23.4485   24.8075   17.7744 C   0  0  0  0  0  0  0  0  0  0  0  0
  1  2  1  0
  1  3  2  0
  2  4  1  0
  3  5  1  0
  5  6  2  0
  2  7  2  0
  6  7  1  0
M  END
>  <ID>  (1) 
conformer_0

$$$$
