
     RDKit          3D

 10 10  0  0  0  0  0  0  0  0999 V2000
   18.8312   23.9963   21.3309 O   0  0  0  0  0  0  0  0  0  0  0  0
   20.0751   23.8012   21.1448 C   0  0  0  0  0  0  0  0  0  0  0  0
   20.5032   22.8311   20.2120 C   0  0  0  0  0  0  0  0  0  0  0  0
   21.7984   22.6805   20.0876 C   0  0  0  0  0  0  0  0  0  0  0  0
   22.8363   23.2863   20.7897 C   0  0  0  0  0  0  0  0  0  0  0  0
   22.2525   21.6887   18.8259 C   0  0  0  0  0  0  0  0  0  0  0  0
   21.0979   24.4245   22.0155 N   0  0  0  0  0  0  0  0  0  0  0  0
   22.4220   24.1849   21.8167 C   0  0  0  0  0  0  0  0  0  0  0  0
   23.0866   20.8674   19.0868 O   0  0  0  0  0  0  0  0  0  0  0  0
   21.5023   21.7383   17.8017 O   0  0  0  0  0  0  0  0  0  0  0  0
  1  2  2  0
  2  3  1  0
  3  4  2  0
  4  5  1  0
  4  6  1  0
  2  7  1  0
  5  8  2  0
  7  8  1  0
  6  9  2  0
  6 10  1  0
M  END
>  <ID>  (1) 
conformer_0

$$$$
