
     RDKit          3D

 10 10  0  0  0  0  0  0  0  0999 V2000
   18.8051   24.2725   21.3617 O   0  0  0  0  0  0  0  0  0  0  0  0
   20.0123   23.8794   21.1718 C   0  0  0  0  0  0  0  0  0  0  0  0
   20.3303   22.9339   20.2431 C   0  0  0  0  0  0  0  0  0  0  0  0
   21.1087   24.3003   22.0397 C   0  0  0  0  0  0  0  0  0  0  0  0
   21.7035   22.3889   20.0947 C   0  0  0  0  0  0  0  0  0  0  0  0
   22.7200   22.8888   20.9387 C   0  0  0  0  0  0  0  0  0  0  0  0
   21.9423   21.2086   19.0483 C   0  0  0  0  0  0  0  0  0  0  0  0
   21.4849   21.5180   18.0264 O   0  0  0  0  0  0  0  0  0  0  0  0
   22.5597   20.2244   19.3221 O   0  0  0  0  0  0  0  0  0  0  0  0
   22.4681   23.7728   21.9058 C   0  0  0  0  0  0  0  0  0  0  0  0
  1  2  1  0
  2  3  2  0
  2  4  1  0
  3  5  1  0
  5  6  2  0
  5  7  1  0
  7  8  1  0
  7  9  2  0
  4 10  2  0
  6 10  1  0
M  END
>  <ID>  (1) 
conformer_0

$$$$
