
     RDKit          3D

 14 15  0  0  0  0  0  0  0  0999 V2000
   25.1484   23.5024   17.0701 C   0  0  0  0  0  0  0  0  0  0  0  0
   24.7512   24.6060   17.3374 C   0  0  0  0  0  0  0  0  0  0  0  0
   24.3575   22.4168   17.2040 C   0  0  0  0  0  0  0  0  0  0  0  0
   23.3590   22.3593   17.8033 C   0  0  0  0  0  0  0  0  0  0  0  0
   22.7950   23.5972   18.2042 C   0  0  0  0  0  0  0  0  0  0  0  0
   21.5352   23.6064   18.9664 C   0  0  0  0  0  0  0  0  0  0  0  0
   21.0679   22.5096   19.4618 C   0  0  0  0  0  0  0  0  0  0  0  0
   21.8477   24.5187   20.0678 O   0  0  0  0  0  0  0  0  0  0  0  0
   23.5550   24.7726   18.0458 C   0  0  0  0  0  0  0  0  0  0  0  0
   20.5331   22.5943   20.6686 C   0  0  0  0  0  0  0  0  0  0  0  0
   20.1883   21.7878   18.5923 O   0  0  0  0  0  0  0  0  0  0  0  0
   21.3894   23.8668   21.2165 C   0  0  0  0  0  0  0  0  0  0  0  0
   19.1197   23.0217   20.5631 O   0  0  0  0  0  0  0  0  0  0  0  0
   20.5107   24.7759   21.9470 O   0  0  0  0  0  0  0  0  0  0  0  0
  1  2  2  0
  1  3  1  0
  3  4  2  0
  4  5  1  0
  5  6  1  0
  6  7  1  0
  6  8  1  0
  2  9  1  0
  5  9  2  0
  7 10  1  0
  7 11  1  0
  8 12  1  0
 10 12  1  0
 10 13  1  0
 12 14  1  0
M  END
>  <ID>  (1) 
conformer_0

$$$$
