
     RDKit          3D

 11 11  0  0  0  0  0  0  0  0999 V2000
   24.6469   24.7904   17.5131 C   0  0  0  0  0  0  0  0  0  0  0  0
   24.5220   23.6236   17.3692 C   0  0  0  0  0  0  0  0  0  0  0  0
   25.5545   22.7047   17.1448 C   0  0  0  0  0  0  0  0  0  0  0  0
   23.1942   23.1750   16.9933 C   0  0  0  0  0  0  0  0  0  0  0  0
   22.8897   21.8157   17.0070 O   0  0  0  0  0  0  0  0  0  0  0  0
   22.2366   23.9997   16.8566 C   0  0  0  0  0  0  0  0  0  0  0  0
   25.4940   21.4095   17.3929 O   0  0  0  0  0  0  0  0  0  0  0  0
   20.8741   23.5046   16.6155 O   0  0  0  0  0  0  0  0  0  0  0  0
   26.8182   23.1870   17.0031 N   0  0  0  0  0  0  0  0  0  0  0  0
   23.5035   25.7380   17.4659 C   0  0  0  0  0  0  0  0  0  0  0  0
   22.3114   25.2756   17.2249 C   0  0  0  0  0  0  0  0  0  0  0  0
  1  2  2  0
  2  3  1  0
  2  4  1  0
  4  5  1  0
  4  6  2  0
  3  7  2  0
  6  8  1  0
  3  9  1  0
  1 10  1  0
  6 11  1  0
 10 11  2  0
M  END
>  <ID>  (1) 
conformer_0

$$$$
