
     RDKit          3D

 14 14  0  0  0  0  0  0  0  0999 V2000
   18.8312   23.9963   21.3309 O   0  0  0  0  0  0  0  0  0  0  0  0
   20.0751   23.8012   21.1448 C   0  0  0  0  0  0  0  0  0  0  0  0
   21.0395   24.3698   21.8033 O   0  0  0  0  0  0  0  0  0  0  0  0
   20.4300   22.7618   20.1401 C   0  0  0  0  0  0  0  0  0  0  0  0
   21.7818   22.3832   20.1232 N   0  0  0  0  0  0  0  0  0  0  0  0
   22.5456   22.6784   19.1398 C   0  0  0  0  0  0  0  0  0  0  0  0
   21.9953   20.8816   20.4104 C   0  0  0  0  0  0  0  0  0  0  0  0
   23.7287   21.9930   18.9803 C   0  0  0  0  0  0  0  0  0  0  0  0
   21.8797   22.8138   17.7831 C   0  0  0  0  0  0  0  0  0  0  0  0
   23.4952   20.8426   19.9611 C   0  0  0  0  0  0  0  0  0  0  0  0
   22.4421   23.7714   16.8299 C   0  0  0  0  0  0  0  0  0  0  0  0
   21.1785   19.9800   19.8007 C   0  0  0  0  0  0  0  0  0  0  0  0
   24.8976   22.6141   19.4391 O   0  0  0  0  0  0  0  0  0  0  0  0
   21.2584   18.7120   20.2040 O   0  0  0  0  0  0  0  0  0  0  0  0
  1  2  1  0
  2  3  2  0
  2  4  1  0
  4  5  1  0
  5  6  1  0
  5  7  1  0
  6  8  1  0
  6  9  1  0
  7 10  1  0
  8 10  1  0
  9 11  1  0
  7 12  1  0
  8 13  1  0
 12 14  2  0
M  END
>  <ID>  (1) 
conformer_0

$$$$
