
     RDKit          3D

  6  6  0  0  0  0  0  0  0  0999 V2000
   26.3013   24.4924   17.3396 C   0  0  0  0  0  0  0  0  0  0  0  0
   25.3674   25.2867   17.6193 N   0  0  0  0  0  0  0  0  0  0  0  0
   26.1332   23.1713   17.0902 C   0  0  0  0  0  0  0  0  0  0  0  0
   24.7466   22.9914   17.1686 C   0  0  0  0  0  0  0  0  0  0  0  0
   24.3398   24.3257   17.4858 N   0  0  0  0  0  0  0  0  0  0  0  0
   22.9473   24.6455   17.6435 C   0  0  0  0  0  0  0  0  0  0  0  0
  1  2  2  0
  1  3  1  0
  3  4  2  0
  2  5  1  0
  4  5  1  0
  5  6  1  0
M  END
>  <ID>  (1) 
conformer_0

$$$$
