
     RDKit          3D

 16 18  0  0  0  0  0  0  0  0999 V2000
   19.3147   22.3402   19.6677 O   0  0  0  0  0  0  0  0  0  0  0  0
   20.4938   22.0177   19.7178 C   0  0  0  0  0  0  0  0  0  0  0  0
   20.9546   20.8675   19.6747 N   0  0  0  0  0  0  0  0  0  0  0  0
   21.4631   23.1186   19.8210 C   0  0  0  0  0  0  0  0  0  0  0  0
   22.8741   22.7160   19.7851 C   0  0  0  0  0  0  0  0  0  0  0  0
   22.3024   20.4558   19.6251 C   0  0  0  0  0  0  0  0  0  0  0  0
   21.0922   24.4476   20.0445 C   0  0  0  0  0  0  0  0  0  0  0  0
   23.2468   21.5246   19.7685 N   0  0  0  0  0  0  0  0  0  0  0  0
   22.1562   25.3351   20.3788 C   0  0  0  0  0  0  0  0  0  0  0  0
   23.8421   23.8287   20.0993 C   0  0  0  0  0  0  0  0  0  0  0  0
   25.2667   23.4788   20.0661 C   0  0  0  0  0  0  0  0  0  0  0  0
   25.4288   22.2460   19.3214 C   0  0  0  0  0  0  0  0  0  0  0  0
   21.7278   26.7382   20.5977 O   0  0  0  0  0  0  0  0  0  0  0  0
   22.5812   19.2529   20.1676 O   0  0  0  0  0  0  0  0  0  0  0  0
   23.4398   25.1038   20.3132 C   0  0  0  0  0  0  0  0  0  0  0  0
   24.6778   21.0864   19.5975 C   0  0  0  0  0  0  0  0  0  0  0  0
  1  2  2  0
  2  3  1  0
  2  4  1  0
  4  5  2  0
  3  6  1  0
  4  7  1  0
  5  8  1  0
  6  8  1  0
  7  9  2  0
  5 10  1  0
 10 11  1  0
 11 12  1  0
  9 13  1  0
  6 14  2  0
  9 15  1  0
 10 15  2  0
  8 16  1  0
 12 16  1  0
M  END
>  <ID>  (1) 
conformer_0

$$$$
