
     RDKit          3D

 12 13  0  0  0  0  0  0  0  0999 V2000
   24.6469   24.7904   17.5131 C   0  0  0  0  0  0  0  0  0  0  0  0
   24.5220   23.6236   17.3692 C   0  0  0  0  0  0  0  0  0  0  0  0
   25.5545   22.7047   17.1448 C   0  0  0  0  0  0  0  0  0  0  0  0
   23.1942   23.1750   16.9933 C   0  0  0  0  0  0  0  0  0  0  0  0
   22.8897   21.8157   17.0070 O   0  0  0  0  0  0  0  0  0  0  0  0
   22.1625   21.4695   18.2242 C   0  0  0  0  0  0  0  0  0  0  0  0
   20.9213   21.9381   18.3419 C   0  0  0  0  0  0  0  0  0  0  0  0
   26.7697   23.3146   17.4773 C   0  0  0  0  0  0  0  0  0  0  0  0
   27.0782   24.5724   17.6353 C   0  0  0  0  0  0  0  0  0  0  0  0
   22.2204   23.8455   17.9367 C   0  0  0  0  0  0  0  0  0  0  0  0
   26.0050   25.3939   17.7123 N   0  0  0  0  0  0  0  0  0  0  0  0
   21.1417   23.3601   18.6400 C   0  0  0  0  0  0  0  0  0  0  0  0
  1  2  2  0
  2  3  1  0
  2  4  1  0
  4  5  1  0
  5  6  1  0
  6  7  2  0
  3  8  2  0
  8  9  1  0
  4 10  1  0
  1 11  1  0
  9 11  2  0
  7 12  1  0
 10 12  2  0
M  END
>  <ID>  (1) 
conformer_0

$$$$
