
     RDKit          3D

 14 15  0  0  0  0  0  0  0  0999 V2000
   18.7102   24.3089   21.1795 O   0  0  0  0  0  0  0  0  0  0  0  0
   19.6135   23.6243   20.9997 C   0  0  0  0  0  0  0  0  0  0  0  0
   19.9969   22.8694   19.9789 C   0  0  0  0  0  0  0  0  0  0  0  0
   21.0406   22.1120   19.7885 C   0  0  0  0  0  0  0  0  0  0  0  0
   21.8690   22.0475   21.0504 C   0  0  0  0  0  0  0  0  0  0  0  0
   21.6531   22.7755   22.1368 C   0  0  0  0  0  0  0  0  0  0  0  0
   21.4538   21.5558   18.6169 C   0  0  0  0  0  0  0  0  0  0  0  0
   23.0823   21.3798   20.9749 C   0  0  0  0  0  0  0  0  0  0  0  0
   23.9349   21.3345   21.9943 O   0  0  0  0  0  0  0  0  0  0  0  0
   23.5384   20.7011   19.8556 C   0  0  0  0  0  0  0  0  0  0  0  0
   20.8797   21.6901   17.4997 O   0  0  0  0  0  0  0  0  0  0  0  0
   24.8006   20.0187   19.8484 C   0  0  0  0  0  0  0  0  0  0  0  0
   22.8273   20.8321   18.5415 C   0  0  0  0  0  0  0  0  0  0  0  0
   20.6756   23.7581   21.9975 C   0  0  0  0  0  0  0  0  0  0  0  0
  1  2  2  0
  2  3  1  0
  3  4  2  0
  4  5  1  0
  5  6  1  0
  4  7  1  0
  5  8  1  0
  8  9  1  0
  8 10  2  0
  7 11  1  0
 10 12  1  0
  7 13  2  0
 10 13  1  0
  2 14  1  0
  6 14  1  0
M  END
>  <ID>  (1) 
conformer_0

$$$$
