
     RDKit          3D

 16 16  0  0  0  0  0  0  0  0999 V2000
   19.6798   24.1268   21.6759 O   0  0  0  0  0  0  0  0  0  0  0  0
   20.2479   23.5668   20.8214 C   0  0  0  0  0  0  0  0  0  0  0  0
   21.5741   23.7147   20.6591 C   0  0  0  0  0  0  0  0  0  0  0  0
   22.2638   24.8459   21.3578 C   0  0  0  0  0  0  0  0  0  0  0  0
   22.1003   23.6206   19.2855 C   0  0  0  0  0  0  0  0  0  0  0  0
   22.3545   22.3672   21.3009 C   0  0  0  0  0  0  0  0  0  0  0  0
   22.9330   24.5955   18.7286 O   0  0  0  0  0  0  0  0  0  0  0  0
   22.2484   21.1577   20.5499 C   0  0  0  0  0  0  0  0  0  0  0  0
   21.9348   22.5075   18.4077 C   0  0  0  0  0  0  0  0  0  0  0  0
   22.5116   21.2791   19.0831 C   0  0  0  0  0  0  0  0  0  0  0  0
   22.5708   22.6896   17.0348 C   0  0  0  0  0  0  0  0  0  0  0  0
   19.5344   22.7754   20.1403 O   0  0  0  0  0  0  0  0  0  0  0  0
   20.9018   20.5377   20.7036 N   0  0  0  0  0  0  0  0  0  0  0  0
   23.3187   20.1805   21.0118 C   0  0  0  0  0  0  0  0  0  0  0  0
   23.3278   18.9267   20.5258 O   0  0  0  0  0  0  0  0  0  0  0  0
   24.1242   20.4284   21.9385 O   0  0  0  0  0  0  0  0  0  0  0  0
  1  2  1  0
  2  3  1  0
  3  4  1  0
  3  5  1  0
  3  6  1  0
  5  7  2  0
  6  8  1  0
  5  9  1  0
  8 10  1  0
  9 10  1  0
  9 11  1  0
  2 12  2  0
  8 13  1  0
  8 14  1  0
 14 15  2  0
 14 16  1  0
M  END
>  <ID>  (1) 
conformer_0

$$$$
