
     RDKit          3D

  7  7  0  0  0  0  0  0  0  0999 V2000
   26.3013   24.4924   17.3396 C   0  0  0  0  0  0  0  0  0  0  0  0
   25.3674   25.2867   17.6193 N   0  0  0  0  0  0  0  0  0  0  0  0
   24.1678   24.9950   17.7629 C   0  0  0  0  0  0  0  0  0  0  0  0
   25.9574   23.1563   17.1157 C   0  0  0  0  0  0  0  0  0  0  0  0
   23.1566   25.9531   18.1499 C   0  0  0  0  0  0  0  0  0  0  0  0
   23.7612   23.7300   17.6299 N   0  0  0  0  0  0  0  0  0  0  0  0
   24.6854   22.8210   17.3429 C   0  0  0  0  0  0  0  0  0  0  0  0
  1  2  2  0
  2  3  1  0
  1  4  1  0
  3  5  1  0
  3  6  2  0
  4  7  2  0
  6  7  1  0
M  END
>  <ID>  (1) 
conformer_0

$$$$
