
     RDKit          3D

  7  7  0  0  0  0  0  0  0  0999 V2000
   24.8971   23.1009   17.0499 C   0  0  0  0  0  0  0  0  0  0  0  0
   23.7280   22.6868   17.1844 C   0  0  0  0  0  0  0  0  0  0  0  0
   22.7188   23.7331   17.0551 C   0  0  0  0  0  0  0  0  0  0  0  0
   21.4431   23.4907   17.1311 O   0  0  0  0  0  0  0  0  0  0  0  0
   25.3366   24.4524   17.3510 C   0  0  0  0  0  0  0  0  0  0  0  0
   22.9694   24.9558   17.4129 C   0  0  0  0  0  0  0  0  0  0  0  0
   24.2988   25.4012   17.5287 C   0  0  0  0  0  0  0  0  0  0  0  0
  1  2  1  0
  2  3  1  0
  3  4  1  0
  1  5  2  0
  3  6  1  0
  5  7  1  0
  6  7  2  0
M  END
>  <ID>  (1) 
conformer_0

$$$$
