
     RDKit          3D

 13 14  0  0  0  0  0  0  0  0999 V2000
   24.6469   24.7904   17.5131 C   0  0  0  0  0  0  0  0  0  0  0  0
   24.5220   23.6236   17.3692 C   0  0  0  0  0  0  0  0  0  0  0  0
   25.5545   22.7047   17.1448 C   0  0  0  0  0  0  0  0  0  0  0  0
   25.9970   25.4112   17.6951 C   0  0  0  0  0  0  0  0  0  0  0  0
   26.2482   26.7409   17.8976 O   0  0  0  0  0  0  0  0  0  0  0  0
   27.0285   24.5193   17.5092 C   0  0  0  0  0  0  0  0  0  0  0  0
   23.3489   22.8954   17.2787 N   0  0  0  0  0  0  0  0  0  0  0  0
   22.0326   23.5487   17.1263 C   0  0  0  0  0  0  0  0  0  0  0  0
   25.2431   27.6390   18.1631 C   0  0  0  0  0  0  0  0  0  0  0  0
   23.2571   21.6095   17.6023 N   0  0  0  0  0  0  0  0  0  0  0  0
   24.4992   21.1620   17.5079 C   0  0  0  0  0  0  0  0  0  0  0  0
   26.7868   23.0919   17.2413 C   0  0  0  0  0  0  0  0  0  0  0  0
   25.4955   21.3805   17.2350 N   0  0  0  0  0  0  0  0  0  0  0  0
  1  2  2  0
  2  3  1  0
  1  4  1  0
  4  5  1  0
  4  6  2  0
  2  7  1  0
  7  8  1  0
  5  9  1  0
  7 10  1  0
 10 11  2  0
  3 12  2  0
  6 12  1  0
  3 13  1  0
 11 13  1  0
M  END
>  <ID>  (1) 
conformer_0

$$$$
