
     RDKit          3D

 11 11  0  0  0  0  0  0  0  0999 V2000
   19.6798   24.1268   21.6759 O   0  0  0  0  0  0  0  0  0  0  0  0
   20.2479   23.5668   20.8214 C   0  0  0  0  0  0  0  0  0  0  0  0
   21.5741   23.7147   20.6591 C   0  0  0  0  0  0  0  0  0  0  0  0
   22.3815   22.9996   19.7395 C   0  0  0  0  0  0  0  0  0  0  0  0
   19.6946   22.6932   19.9498 C   0  0  0  0  0  0  0  0  0  0  0  0
   21.7169   22.1816   18.8857 C   0  0  0  0  0  0  0  0  0  0  0  0
   23.8777   23.3467   19.6186 C   0  0  0  0  0  0  0  0  0  0  0  0
   20.3901   22.0193   18.9571 C   0  0  0  0  0  0  0  0  0  0  0  0
   24.6223   22.4578   19.9921 O   0  0  0  0  0  0  0  0  0  0  0  0
   22.3960   21.5006   17.7685 F   0  0  0  0  0  0  0  0  0  0  0  0
   24.2405   24.4470   19.1432 O   0  0  0  0  0  0  0  0  0  0  0  0
  1  2  1  0
  2  3  1  0
  3  4  2  0
  2  5  2  0
  4  6  1  0
  4  7  1  0
  5  8  1  0
  6  8  2  0
  7  9  1  0
  6 10  1  0
  7 11  2  0
M  END
>  <ID>  (1) 
conformer_0

$$$$
