
     RDKit          3D

 17 18  0  0  0  0  0  0  0  0999 V2000
   25.1484   23.5024   17.0701 C   0  0  0  0  0  0  0  0  0  0  0  0
   24.1170   22.7685   17.1064 C   0  0  0  0  0  0  0  0  0  0  0  0
   23.0181   23.4293   17.6342 C   0  0  0  0  0  0  0  0  0  0  0  0
   21.7248   22.6506   17.7697 C   0  0  0  0  0  0  0  0  0  0  0  0
   21.6457   21.7908   18.9383 C   0  0  0  0  0  0  0  0  0  0  0  0
   21.6977   22.4046   20.1578 C   0  0  0  0  0  0  0  0  0  0  0  0
   23.0778   24.6055   18.2439 C   0  0  0  0  0  0  0  0  0  0  0  0
   25.4052   24.6902   17.6187 C   0  0  0  0  0  0  0  0  0  0  0  0
   22.6771   20.7938   18.7558 O   0  0  0  0  0  0  0  0  0  0  0  0
   20.5643   23.0384   20.6486 C   0  0  0  0  0  0  0  0  0  0  0  0
   24.2742   25.3097   18.1903 C   0  0  0  0  0  0  0  0  0  0  0  0
   20.5669   23.9374   21.6881 C   0  0  0  0  0  0  0  0  0  0  0  0
   22.7179   22.2067   21.0471 C   0  0  0  0  0  0  0  0  0  0  0  0
   19.5459   24.6967   22.0674 O   0  0  0  0  0  0  0  0  0  0  0  0
   19.5201   23.2118   19.7970 O   0  0  0  0  0  0  0  0  0  0  0  0
   21.6176   23.7973   22.6557 N   0  0  0  0  0  0  0  0  0  0  0  0
   22.6930   22.9857   22.3463 C   0  0  0  0  0  0  0  0  0  0  0  0
  1  2  1  0
  2  3  2  0
  3  4  1  0
  4  5  1  0
  5  6  1  0
  3  7  1  0
  1  8  2  0
  5  9  1  0
  6 10  1  0
  7 11  2  0
  8 11  1  0
 10 12  1  0
  6 13  2  0
 12 14  2  0
 10 15  2  0
 12 16  1  0
 13 17  1  0
 16 17  2  0
M  END
>  <ID>  (1) 
conformer_0

$$$$
