
     RDKit          3D

 13 12  0  0  0  0  0  0  0  0999 V2000
   19.6798   24.1268   21.6759 O   0  0  0  0  0  0  0  0  0  0  0  0
   19.5531   23.4680   20.6966 C   0  0  0  0  0  0  0  0  0  0  0  0
   20.7937   22.9624   20.1037 C   0  0  0  0  0  0  0  0  0  0  0  0
   21.9220   23.7060   20.3828 C   0  0  0  0  0  0  0  0  0  0  0  0
   21.9206   24.9996   20.3727 O   0  0  0  0  0  0  0  0  0  0  0  0
   20.9129   21.5342   20.4389 C   0  0  0  0  0  0  0  0  0  0  0  0
   21.7777   20.7930   19.6522 C   0  0  0  0  0  0  0  0  0  0  0  0
   21.9700   19.3893   20.1343 C   0  0  0  0  0  0  0  0  0  0  0  0
   21.5207   19.0349   21.1603 O   0  0  0  0  0  0  0  0  0  0  0  0
   23.3295   18.9275   20.0366 O   0  0  0  0  0  0  0  0  0  0  0  0
   18.4621   23.2015   20.2158 O   0  0  0  0  0  0  0  0  0  0  0  0
   21.4558   20.9156   18.3288 O   0  0  0  0  0  0  0  0  0  0  0  0
   23.0533   23.0822   20.5994 O   0  0  0  0  0  0  0  0  0  0  0  0
  1  2  1  0
  2  3  1  0
  3  4  1  0
  4  5  1  0
  3  6  1  0
  6  7  1  0
  7  8  1  0
  8  9  1  0
  8 10  1  0
  2 11  2  0
  7 12  1  0
  4 13  2  0
M  END
>  <ID>  (1) 
conformer_0

$$$$
