
     RDKit          3D

  6  6  0  0  0  0  0  0  0  0999 V2000
   25.1484   23.5024   17.0701 C   0  0  0  0  0  0  0  0  0  0  0  0
   24.7512   24.6060   17.3374 C   0  0  0  0  0  0  0  0  0  0  0  0
   24.3575   22.4168   17.2040 C   0  0  0  0  0  0  0  0  0  0  0  0
   23.3590   22.3593   17.8033 C   0  0  0  0  0  0  0  0  0  0  0  0
   22.7950   23.5972   18.2042 C   0  0  0  0  0  0  0  0  0  0  0  0
   23.5712   24.8023   18.0268 C   0  0  0  0  0  0  0  0  0  0  0  0
  1  2  2  0
  1  3  1  0
  3  4  2  0
  4  5  1  0
  2  6  1  0
  5  6  2  0
M  END
>  <ID>  (1) 
conformer_0

$$$$
