
     RDKit          3D

 13 13  0  0  0  0  0  0  0  0999 V2000
   18.8051   24.2725   21.3617 O   0  0  0  0  0  0  0  0  0  0  0  0
   20.1198   24.2165   21.4430 C   0  0  0  0  0  0  0  0  0  0  0  0
   20.6835   23.1559   20.5925 C   0  0  0  0  0  0  0  0  0  0  0  0
   22.0084   22.8512   20.6215 C   0  0  0  0  0  0  0  0  0  0  0  0
   20.0755   22.3511   19.6224 C   0  0  0  0  0  0  0  0  0  0  0  0
   20.5894   21.3699   18.9068 C   0  0  0  0  0  0  0  0  0  0  0  0
   22.8455   23.6192   21.7048 O   0  0  0  0  0  0  0  0  0  0  0  0
   21.9757   21.1106   19.0800 C   0  0  0  0  0  0  0  0  0  0  0  0
   22.7513   21.7934   20.0359 C   0  0  0  0  0  0  0  0  0  0  0  0
   24.1255   21.4970   20.2376 C   0  0  0  0  0  0  0  0  0  0  0  0
   20.8495   25.0333   22.0210 O   0  0  0  0  0  0  0  0  0  0  0  0
   25.0476   21.9746   19.5442 O   0  0  0  0  0  0  0  0  0  0  0  0
   24.4203   20.4448   20.9795 O   0  0  0  0  0  0  0  0  0  0  0  0
  1  2  2  0
  2  3  1  0
  3  4  2  0
  3  5  1  0
  5  6  2  0
  4  7  1  0
  6  8  1  0
  4  9  1  0
  8  9  2  0
  9 10  1  0
  2 11  1  0
 10 12  2  0
 10 13  1  0
M  END
>  <ID>  (1) 
conformer_0

$$$$
