
     RDKit          3D

 17 19  0  0  0  0  0  0  0  0999 V2000
   23.6924   26.5941   19.0600 C   0  0  0  0  0  0  0  0  0  0  0  0
   23.9531   26.7671   17.9447 C   0  0  0  0  0  0  0  0  0  0  0  0
   23.3041   25.4266   19.6736 C   0  0  0  0  0  0  0  0  0  0  0  0
   22.9166   25.2337   21.0022 C   0  0  0  0  0  0  0  0  0  0  0  0
   23.4751   24.2389   18.9069 C   0  0  0  0  0  0  0  0  0  0  0  0
   21.9779   24.3307   21.1601 C   0  0  0  0  0  0  0  0  0  0  0  0
   22.0710   23.1535   20.4997 C   0  0  0  0  0  0  0  0  0  0  0  0
   22.7350   23.1285   19.3142 C   0  0  0  0  0  0  0  0  0  0  0  0
   21.2253   24.3425   22.4750 C   0  0  0  0  0  0  0  0  0  0  0  0
   21.2764   21.9528   20.9679 C   0  0  0  0  0  0  0  0  0  0  0  0
   19.9461   24.2002   22.3245 O   0  0  0  0  0  0  0  0  0  0  0  0
   20.5245   21.4724   19.7967 C   0  0  0  0  0  0  0  0  0  0  0  0
   23.7952   24.4176   17.5381 C   0  0  0  0  0  0  0  0  0  0  0  0
   21.2736   20.8101   18.8186 C   0  0  0  0  0  0  0  0  0  0  0  0
   24.2138   25.7019   17.1341 C   0  0  0  0  0  0  0  0  0  0  0  0
   22.6363   21.9506   18.5065 C   0  0  0  0  0  0  0  0  0  0  0  0
   21.8133   24.3519   23.5749 O   0  0  0  0  0  0  0  0  0  0  0  0
  1  2  1  0
  1  3  2  0
  3  4  1  0
  3  5  1  0
  4  6  1  0
  6  7  2  0
  5  8  1  0
  7  8  1  0
  6  9  1  0
  7 10  1  0
  9 11  2  0
 10 12  1  0
  5 13  2  0
 12 14  1  0
  2 15  2  0
 13 15  1  0
  8 16  2  0
 14 16  1  0
  9 17  1  0
M  END
>  <ID>  (1) 
conformer_0

$$$$
