
     RDKit          3D

  8  8  0  0  0  0  0  0  0  0999 V2000
   25.1484   23.5024   17.0701 C   0  0  0  0  0  0  0  0  0  0  0  0
   24.7512   24.6060   17.3374 C   0  0  0  0  0  0  0  0  0  0  0  0
   23.4439   24.8198   17.5524 C   0  0  0  0  0  0  0  0  0  0  0  0
   26.6141   23.1307   16.8899 C   0  0  0  0  0  0  0  0  0  0  0  0
   24.3575   22.3917   17.2123 C   0  0  0  0  0  0  0  0  0  0  0  0
   24.8795   21.0577   17.0469 O   0  0  0  0  0  0  0  0  0  0  0  0
   23.0340   22.5004   17.4177 C   0  0  0  0  0  0  0  0  0  0  0  0
   22.5600   23.8268   17.6847 C   0  0  0  0  0  0  0  0  0  0  0  0
  1  2  1  0
  2  3  2  0
  1  4  1  0
  1  5  2  0
  5  6  1  0
  5  7  1  0
  3  8  1  0
  7  8  2  0
M  END
>  <ID>  (1) 
conformer_0

$$$$
