
     RDKit          3D

 15 17  0  0  0  0  0  0  0  0999 V2000
   23.6924   26.5941   19.0600 C   0  0  0  0  0  0  0  0  0  0  0  0
   23.9531   26.7671   17.9447 C   0  0  0  0  0  0  0  0  0  0  0  0
   23.3041   25.4266   19.6736 C   0  0  0  0  0  0  0  0  0  0  0  0
   22.9166   25.2337   21.0022 C   0  0  0  0  0  0  0  0  0  0  0  0
   23.4751   24.2389   18.9069 C   0  0  0  0  0  0  0  0  0  0  0  0
   23.1577   22.9475   19.4689 C   0  0  0  0  0  0  0  0  0  0  0  0
   24.2503   25.7890   17.2588 N   0  0  0  0  0  0  0  0  0  0  0  0
   22.5789   24.0343   21.5221 C   0  0  0  0  0  0  0  0  0  0  0  0
   23.2691   21.7378   18.6547 C   0  0  0  0  0  0  0  0  0  0  0  0
   23.2333   20.5196   19.2603 C   0  0  0  0  0  0  0  0  0  0  0  0
   22.6933   22.7592   20.8283 C   0  0  0  0  0  0  0  0  0  0  0  0
   23.9746   24.4991   17.6099 C   0  0  0  0  0  0  0  0  0  0  0  0
   22.5226   21.5303   21.3664 C   0  0  0  0  0  0  0  0  0  0  0  0
   22.7287   20.4169   20.6296 C   0  0  0  0  0  0  0  0  0  0  0  0
   22.6064   19.1459   21.2464 O   0  0  0  0  0  0  0  0  0  0  0  0
  1  2  1  0
  1  3  2  0
  3  4  1  0
  3  5  1  0
  5  6  1  0
  2  7  2  0
  4  8  2  0
  6  9  2  0
  9 10  1  0
  6 11  1  0
  8 11  1  0
  5 12  2  0
  7 12  1  0
 11 13  2  0
 10 14  2  0
 13 14  1  0
 14 15  1  0
M  END
>  <ID>  (1) 
conformer_0

$$$$
