
     RDKit          3D

 13 14  0  0  0  0  0  0  0  0999 V2000
   19.6798   24.1268   21.6759 O   0  0  0  0  0  0  0  0  0  0  0  0
   20.2479   23.5668   20.8214 C   0  0  0  0  0  0  0  0  0  0  0  0
   21.5741   23.7147   20.6591 C   0  0  0  0  0  0  0  0  0  0  0  0
   22.3815   22.9996   19.7395 C   0  0  0  0  0  0  0  0  0  0  0  0
   19.6946   22.6932   19.9498 C   0  0  0  0  0  0  0  0  0  0  0  0
   21.7169   22.1816   18.8857 C   0  0  0  0  0  0  0  0  0  0  0  0
   23.8777   23.3467   19.6186 C   0  0  0  0  0  0  0  0  0  0  0  0
   20.3901   22.0193   18.9571 C   0  0  0  0  0  0  0  0  0  0  0  0
   24.6223   22.4578   19.9921 N   0  0  0  0  0  0  0  0  0  0  0  0
   24.3535   24.5508   19.1054 N   0  0  0  0  0  0  0  0  0  0  0  0
   25.7193   24.3691   19.2779 C   0  0  0  0  0  0  0  0  0  0  0  0
   23.6839   25.6579   18.5954 C   0  0  0  0  0  0  0  0  0  0  0  0
   25.9200   23.0786   19.8900 N   0  0  0  0  0  0  0  0  0  0  0  0
  1  2  1  0
  2  3  1  0
  3  4  2  0
  2  5  2  0
  4  6  1  0
  4  7  1  0
  5  8  1  0
  6  8  2  0
  7  9  2  0
  7 10  1  0
 10 11  1  0
 10 12  1  0
  9 13  1  0
 11 13  2  0
M  END
>  <ID>  (1) 
conformer_0

$$$$
