
     RDKit          3D

 14 14  0  0  0  0  0  0  0  0999 V2000
   19.6798   24.1268   21.6759 O   0  0  0  0  0  0  0  0  0  0  0  0
   19.5531   23.4680   20.6966 C   0  0  0  0  0  0  0  0  0  0  0  0
   20.7937   22.9624   20.1037 C   0  0  0  0  0  0  0  0  0  0  0  0
   21.9220   23.7060   20.3828 C   0  0  0  0  0  0  0  0  0  0  0  0
   21.9206   24.9996   20.3727 O   0  0  0  0  0  0  0  0  0  0  0  0
   20.9129   21.5342   20.4389 C   0  0  0  0  0  0  0  0  0  0  0  0
   23.1012   23.0295   20.2214 C   0  0  0  0  0  0  0  0  0  0  0  0
   19.7250   20.8011   20.2960 O   0  0  0  0  0  0  0  0  0  0  0  0
   18.4322   23.3520   20.0500 O   0  0  0  0  0  0  0  0  0  0  0  0
   22.0815   20.9613   20.0256 C   0  0  0  0  0  0  0  0  0  0  0  0
   23.2990   21.8084   20.1165 C   0  0  0  0  0  0  0  0  0  0  0  0
   24.5960   21.1716   19.9759 C   0  0  0  0  0  0  0  0  0  0  0  0
   25.1985   21.3059   19.0127 O   0  0  0  0  0  0  0  0  0  0  0  0
   25.0016   20.2206   20.8560 O   0  0  0  0  0  0  0  0  0  0  0  0
  1  2  1  0
  2  3  1  0
  3  4  1  0
  4  5  1  0
  3  6  1  0
  4  7  2  0
  6  8  1  0
  2  9  2  0
  6 10  1  0
  7 11  1  0
 10 11  2  0
 11 12  1  0
 12 13  2  0
 12 14  1  0
M  END
>  <ID>  (1) 
conformer_0

$$$$
