
     RDKit          3D

 10 11  0  0  0  0  0  0  0  0999 V2000
   24.6469   24.7904   17.5131 C   0  0  0  0  0  0  0  0  0  0  0  0
   24.5220   23.6236   17.3692 C   0  0  0  0  0  0  0  0  0  0  0  0
   25.5545   22.7047   17.1448 C   0  0  0  0  0  0  0  0  0  0  0  0
   25.2910   21.3295   17.0732 C   0  0  0  0  0  0  0  0  0  0  0  0
   26.0108   25.3802   17.6162 C   0  0  0  0  0  0  0  0  0  0  0  0
   23.2177   23.0918   17.0858 C   0  0  0  0  0  0  0  0  0  0  0  0
   27.0986   24.4452   17.5171 C   0  0  0  0  0  0  0  0  0  0  0  0
   22.9289   21.7490   17.6093 N   0  0  0  0  0  0  0  0  0  0  0  0
   23.9551   21.0360   17.6747 C   0  0  0  0  0  0  0  0  0  0  0  0
   26.7484   23.0329   17.2612 C   0  0  0  0  0  0  0  0  0  0  0  0
  1  2  2  0
  2  3  1  0
  3  4  1  0
  1  5  1  0
  2  6  1  0
  5  7  2  0
  6  8  1  0
  4  9  1  0
  8  9  2  0
  3 10  2  0
  7 10  1  0
M  END
>  <ID>  (1) 
conformer_0

$$$$
