
     RDKit          3D

 11 12  0  0  0  0  0  0  0  0999 V2000
   26.3013   24.4924   17.3396 C   0  0  0  0  0  0  0  0  0  0  0  0
   25.3674   25.2867   17.6193 N   0  0  0  0  0  0  0  0  0  0  0  0
   24.2424   24.6548   17.7146 C   0  0  0  0  0  0  0  0  0  0  0  0
   23.9700   23.4044   17.5364 C   0  0  0  0  0  0  0  0  0  0  0  0
   25.0633   22.5544   17.3078 C   0  0  0  0  0  0  0  0  0  0  0  0
   25.0103   21.1616   17.1234 N   0  0  0  0  0  0  0  0  0  0  0  0
   26.2761   23.0588   17.1867 N   0  0  0  0  0  0  0  0  0  0  0  0
   22.6910   22.7487   17.7056 N   0  0  0  0  0  0  0  0  0  0  0  0
   22.8579   25.2992   18.1441 C   0  0  0  0  0  0  0  0  0  0  0  0
   21.7853   23.3753   18.3255 C   0  0  0  0  0  0  0  0  0  0  0  0
   21.8835   24.7433   18.4839 N   0  0  0  0  0  0  0  0  0  0  0  0
  1  2  2  0
  2  3  1  0
  3  4  2  0
  4  5  1  0
  5  6  1  0
  1  7  1  0
  5  7  2  0
  4  8  1  0
  3  9  1  0
  8 10  2  0
  9 11  2  0
 10 11  1  0
M  END
>  <ID>  (1) 
conformer_0

$$$$
