
     RDKit          3D

 14 16  0  0  0  0  0  0  0  0999 V2000
   24.6469   24.7904   17.5131 C   0  0  0  0  0  0  0  0  0  0  0  0
   24.5220   23.6236   17.3692 C   0  0  0  0  0  0  0  0  0  0  0  0
   23.6883   25.4924   17.9983 C   0  0  0  0  0  0  0  0  0  0  0  0
   23.3912   22.8904   17.5447 C   0  0  0  0  0  0  0  0  0  0  0  0
   22.5415   24.8608   18.4555 C   0  0  0  0  0  0  0  0  0  0  0  0
   21.4656   25.4749   19.2064 N   0  0  0  0  0  0  0  0  0  0  0  0
   22.4565   23.2798   18.1536 C   0  0  0  0  0  0  0  0  0  0  0  0
   21.2634   22.6400   18.5298 C   0  0  0  0  0  0  0  0  0  0  0  0
   21.0663   21.3821   18.2685 O   0  0  0  0  0  0  0  0  0  0  0  0
   20.6563   24.5947   19.9009 C   0  0  0  0  0  0  0  0  0  0  0  0
   20.3708   23.3022   19.5024 N   0  0  0  0  0  0  0  0  0  0  0  0
   19.4969   22.5501   20.2412 C   0  0  0  0  0  0  0  0  0  0  0  0
   18.9260   23.5439   21.1268 N   0  0  0  0  0  0  0  0  0  0  0  0
   19.6090   24.7413   20.8061 N   0  0  0  0  0  0  0  0  0  0  0  0
  1  2  2  0
  1  3  1  0
  2  4  1  0
  3  5  2  0
  5  6  1  0
  4  7  2  0
  5  7  1  0
  7  8  1  0
  8  9  2  0
  6 10  1  0
  8 11  1  0
 10 11  1  0
 11 12  1  0
 12 13  1  0
 10 14  2  0
 13 14  1  0
M  END
>  <ID>  (1) 
conformer_0

$$$$
