
     RDKit          3D

 12 12  0  0  0  0  0  0  0  0999 V2000
   19.3062   22.5171   19.9500 O   0  0  0  0  0  0  0  0  0  0  0  0
   20.4517   22.2195   19.9331 C   0  0  0  0  0  0  0  0  0  0  0  0
   20.9530   21.2557   19.0577 C   0  0  0  0  0  0  0  0  0  0  0  0
   21.4034   22.3731   20.9166 N   0  0  0  0  0  0  0  0  0  0  0  0
   22.1762   20.6917   19.2022 C   0  0  0  0  0  0  0  0  0  0  0  0
   23.0466   20.9122   20.0984 N   0  0  0  0  0  0  0  0  0  0  0  0
   20.9915   23.3830   22.0609 C   0  0  0  0  0  0  0  0  0  0  0  0
   21.9838   23.6780   22.8637 C   0  0  0  0  0  0  0  0  0  0  0  0
   20.4182   24.5885   21.5739 C   0  0  0  0  0  0  0  0  0  0  0  0
   22.5781   21.7661   21.0594 C   0  0  0  0  0  0  0  0  0  0  0  0
   21.3284   25.4312   21.2521 O   0  0  0  0  0  0  0  0  0  0  0  0
   19.2405   24.7693   21.2743 O   0  0  0  0  0  0  0  0  0  0  0  0
  1  2  2  0
  2  3  1  0
  2  4  1  0
  3  5  2  0
  5  6  1  0
  4  7  1  0
  7  8  1  0
  7  9  1  0
  4 10  1  0
  6 10  2  0
  9 11  2  0
  9 12  1  0
M  END
>  <ID>  (1) 
conformer_0

$$$$
