
     RDKit          3D

 17 19  0  0  0  0  0  0  0  0999 V2000
   24.6469   24.7904   17.5131 C   0  0  0  0  0  0  0  0  0  0  0  0
   24.5220   23.6236   17.3692 C   0  0  0  0  0  0  0  0  0  0  0  0
   25.5545   22.7047   17.1448 C   0  0  0  0  0  0  0  0  0  0  0  0
   23.1942   23.1750   16.9933 C   0  0  0  0  0  0  0  0  0  0  0  0
   22.8897   21.8157   17.0070 O   0  0  0  0  0  0  0  0  0  0  0  0
   25.4108   21.3525   17.1032 N   0  0  0  0  0  0  0  0  0  0  0  0
   23.1928   21.2945   18.2680 C   0  0  0  0  0  0  0  0  0  0  0  0
   24.5541   20.7048   18.0372 C   0  0  0  0  0  0  0  0  0  0  0  0
   22.4732   21.0449   19.2180 C   0  0  0  0  0  0  0  0  0  0  0  0
   22.8593   20.1536   20.2278 C   0  0  0  0  0  0  0  0  0  0  0  0
   22.3359   23.9348   16.8888 O   0  0  0  0  0  0  0  0  0  0  0  0
   26.3284   24.9532   17.5745 C   0  0  0  0  0  0  0  0  0  0  0  0
   25.0183   19.9114   19.0883 C   0  0  0  0  0  0  0  0  0  0  0  0
   26.2961   19.3308   19.0755 F   0  0  0  0  0  0  0  0  0  0  0  0
   24.1712   19.6342   20.2462 C   0  0  0  0  0  0  0  0  0  0  0  0
   26.8242   23.6748   17.2649 N   0  0  0  0  0  0  0  0  0  0  0  0
   21.9599   19.8095   21.5908 Cl  0  0  0  0  0  0  0  0  0  0  0  0
  1  2  2  0
  2  3  1  0
  2  4  1  0
  4  5  1  0
  3  6  2  0
  5  7  1  0
  6  8  1  0
  7  8  1  0
  7  9  2  0
  9 10  1  0
  4 11  2  0
  1 12  1  0
  8 13  2  0
 13 14  1  0
 10 15  2  0
 13 15  1  0
  3 16  1  0
 12 16  2  0
 10 17  1  0
M  END
>  <ID>  (1) 
conformer_0

$$$$
