
     RDKit          3D

  8  8  0  0  0  0  0  0  0  0999 V2000
   25.9878   23.6527   17.3088 C   0  0  0  0  0  0  0  0  0  0  0  0
   25.3446   24.6819   17.5525 C   0  0  0  0  0  0  0  0  0  0  0  0
   25.2816   22.3997   17.1054 C   0  0  0  0  0  0  0  0  0  0  0  0
   25.9554   21.1695   16.9178 N   0  0  0  0  0  0  0  0  0  0  0  0
   24.0301   24.7946   17.5553 C   0  0  0  0  0  0  0  0  0  0  0  0
   23.3746   26.0921   17.7491 C   0  0  0  0  0  0  0  0  0  0  0  0
   23.2443   23.6718   17.4279 C   0  0  0  0  0  0  0  0  0  0  0  0
   23.9118   22.3531   17.2094 C   0  0  0  0  0  0  0  0  0  0  0  0
  1  2  1  0
  1  3  2  0
  3  4  1  0
  2  5  2  0
  5  6  1  0
  5  7  1  0
  3  8  1  0
  7  8  2  0
M  END
>  <ID>  (1) 
conformer_0

$$$$
