
     RDKit          3D

 12 13  0  0  0  0  0  0  0  0999 V2000
   19.3147   22.3402   19.6677 O   0  0  0  0  0  0  0  0  0  0  0  0
   20.2958   22.5641   20.3086 C   0  0  0  0  0  0  0  0  0  0  0  0
   21.6101   22.1530   20.1199 N   0  0  0  0  0  0  0  0  0  0  0  0
   20.2340   23.3912   21.7213 C   0  0  0  0  0  0  0  0  0  0  0  0
   22.4790   21.8710   21.1636 C   0  0  0  0  0  0  0  0  0  0  0  0
   21.8420   21.4869   18.8444 C   0  0  0  0  0  0  0  0  0  0  0  0
   22.7379   20.5743   18.8723 C   0  0  0  0  0  0  0  0  0  0  0  0
   21.2905   23.7357   22.3386 C   0  0  0  0  0  0  0  0  0  0  0  0
   23.5506   21.1419   20.8127 C   0  0  0  0  0  0  0  0  0  0  0  0
   23.7970   20.4914   19.6729 C   0  0  0  0  0  0  0  0  0  0  0  0
   19.0708   24.0541   21.8322 O   0  0  0  0  0  0  0  0  0  0  0  0
   22.3789   22.6434   22.3625 C   0  0  0  0  0  0  0  0  0  0  0  0
  1  2  2  0
  2  3  1  0
  2  4  1  0
  3  5  1  0
  3  6  1  0
  6  7  1  0
  4  8  1  0
  5  9  2  0
  7 10  2  0
  9 10  1  0
  4 11  2  0
  5 12  1  0
  8 12  1  0
M  END
>  <ID>  (1) 
conformer_0

$$$$
