
     RDKit          3D

  8  8  0  0  0  0  0  0  0  0999 V2000
   24.8971   23.1009   17.0499 C   0  0  0  0  0  0  0  0  0  0  0  0
   24.7294   24.3390   17.2523 C   0  0  0  0  0  0  0  0  0  0  0  0
   23.4531   24.6364   17.5788 C   0  0  0  0  0  0  0  0  0  0  0  0
   23.1647   26.1043   17.8140 O   0  0  0  0  0  0  0  0  0  0  0  0
   22.4496   23.8874   17.5086 C   0  0  0  0  0  0  0  0  0  0  0  0
   23.6286   26.5114   19.0723 C   0  0  0  0  0  0  0  0  0  0  0  0
   22.7483   22.5204   17.4031 C   0  0  0  0  0  0  0  0  0  0  0  0
   24.0361   22.1172   17.1852 C   0  0  0  0  0  0  0  0  0  0  0  0
  1  2  2  0
  2  3  1  0
  3  4  1  0
  3  5  2  0
  4  6  1  0
  5  7  1  0
  1  8  1  0
  7  8  2  0
M  END
>  <ID>  (1) 
conformer_0

$$$$
