
     RDKit          3D

 14 15  0  0  0  0  0  0  0  0999 V2000
   24.8971   23.1009   17.0499 C   0  0  0  0  0  0  0  0  0  0  0  0
   24.7294   24.3390   17.2523 C   0  0  0  0  0  0  0  0  0  0  0  0
   23.4733   24.7366   17.5828 C   0  0  0  0  0  0  0  0  0  0  0  0
   22.5908   24.0556   17.8538 C   0  0  0  0  0  0  0  0  0  0  0  0
   21.2359   24.3461   18.3923 O   0  0  0  0  0  0  0  0  0  0  0  0
   24.0782   22.1721   17.3645 C   0  0  0  0  0  0  0  0  0  0  0  0
   22.6811   22.5142   17.8901 C   0  0  0  0  0  0  0  0  0  0  0  0
   20.5732   23.3405   19.1516 C   0  0  0  0  0  0  0  0  0  0  0  0
   21.1526   22.2184   19.3427 C   0  0  0  0  0  0  0  0  0  0  0  0
   22.0300   21.6789   18.6102 C   0  0  0  0  0  0  0  0  0  0  0  0
   19.5243   23.9814   20.0007 C   0  0  0  0  0  0  0  0  0  0  0  0
   21.9374   20.4696   18.3405 O   0  0  0  0  0  0  0  0  0  0  0  0
   18.4074   24.0966   19.5758 O   0  0  0  0  0  0  0  0  0  0  0  0
   19.6711   24.0724   21.2958 O   0  0  0  0  0  0  0  0  0  0  0  0
  1  2  2  0
  2  3  1  0
  3  4  2  0
  4  5  1  0
  1  6  1  0
  4  7  1  0
  6  7  2  0
  5  8  1  0
  8  9  2  0
  7 10  1  0
  9 10  1  0
  8 11  1  0
 10 12  2  0
 11 13  2  0
 11 14  1  0
M  END
>  <ID>  (1) 
conformer_0

$$$$
