
     RDKit          3D

 16 17  0  0  0  0  0  0  0  0999 V2000
   18.8051   24.2725   21.3617 O   0  0  0  0  0  0  0  0  0  0  0  0
   20.1198   24.2165   21.4430 C   0  0  0  0  0  0  0  0  0  0  0  0
   20.6835   23.1559   20.5925 C   0  0  0  0  0  0  0  0  0  0  0  0
   22.0084   22.8512   20.6215 C   0  0  0  0  0  0  0  0  0  0  0  0
   22.8998   23.5558   21.5527 C   0  0  0  0  0  0  0  0  0  0  0  0
   20.9255   24.8559   22.3496 N   0  0  0  0  0  0  0  0  0  0  0  0
   22.6206   21.6929   19.8105 C   0  0  0  0  0  0  0  0  0  0  0  0
   24.2963   23.1900   21.6759 C   0  0  0  0  0  0  0  0  0  0  0  0
   22.2778   24.5259   22.4334 C   0  0  0  0  0  0  0  0  0  0  0  0
   19.7544   22.6120   19.4994 C   0  0  0  0  0  0  0  0  0  0  0  0
   23.7818   21.2634   20.2078 C   0  0  0  0  0  0  0  0  0  0  0  0
   24.3645   20.1595   19.3267 C   0  0  0  0  0  0  0  0  0  0  0  0
   25.3462   20.5229   18.4713 C   0  0  0  0  0  0  0  0  0  0  0  0
   24.7462   21.9621   21.0433 C   0  0  0  0  0  0  0  0  0  0  0  0
   23.1865   19.5972   18.6077 C   0  0  0  0  0  0  0  0  0  0  0  0
   24.8910   18.9333   19.9478 C   0  0  0  0  0  0  0  0  0  0  0  0
  1  2  2  0
  2  3  1  0
  3  4  2  0
  4  5  1  0
  2  6  1  0
  4  7  1  0
  5  8  1  0
  5  9  1  0
  6  9  1  0
  3 10  1  0
  7 11  2  0
 11 12  1  0
 12 13  1  0
  8 14  2  0
 11 14  1  0
 12 15  1  0
 12 16  1  0
M  END
>  <ID>  (1) 
conformer_0

$$$$
