
     RDKit          3D

 15 16  0  0  0  0  0  0  0  0999 V2000
   19.3147   22.3402   19.6677 O   0  0  0  0  0  0  0  0  0  0  0  0
   20.2958   22.5641   20.3086 C   0  0  0  0  0  0  0  0  0  0  0  0
   21.6101   22.1530   20.1199 N   0  0  0  0  0  0  0  0  0  0  0  0
   20.2340   23.3912   21.7213 C   0  0  0  0  0  0  0  0  0  0  0  0
   22.4790   21.8710   21.1636 C   0  0  0  0  0  0  0  0  0  0  0  0
   21.8420   21.4869   18.8444 C   0  0  0  0  0  0  0  0  0  0  0  0
   22.7379   20.5743   18.8723 C   0  0  0  0  0  0  0  0  0  0  0  0
   21.2905   23.7357   22.3386 C   0  0  0  0  0  0  0  0  0  0  0  0
   21.0973   24.3444   23.5112 O   0  0  0  0  0  0  0  0  0  0  0  0
   22.5154   23.3590   21.8821 N   0  0  0  0  0  0  0  0  0  0  0  0
   18.9947   23.9468   21.8640 O   0  0  0  0  0  0  0  0  0  0  0  0
   20.6254   21.0979   18.1636 O   0  0  0  0  0  0  0  0  0  0  0  0
   23.9812   21.8779   20.6674 C   0  0  0  0  0  0  0  0  0  0  0  0
   24.0675   21.0691   19.4846 N   0  0  0  0  0  0  0  0  0  0  0  0
   25.2587   20.8367   18.8844 C   0  0  0  0  0  0  0  0  0  0  0  0
  1  2  2  0
  2  3  1  0
  2  4  1  0
  3  5  1  0
  3  6  1  0
  6  7  1  0
  4  8  1  0
  8  9  2  0
  5 10  1  0
  8 10  1  0
  4 11  1  0
  6 12  1  0
  5 13  1  0
  7 14  1  0
 13 14  1  0
 14 15  1  0
M  END
>  <ID>  (1) 
conformer_0

$$$$
