
     RDKit          3D

 17 19  0  0  0  0  0  0  0  0999 V2000
   24.6469   24.7904   17.5131 C   0  0  0  0  0  0  0  0  0  0  0  0
   24.5220   23.6236   17.3692 C   0  0  0  0  0  0  0  0  0  0  0  0
   25.5545   22.7047   17.1448 C   0  0  0  0  0  0  0  0  0  0  0  0
   23.2521   23.0376   17.5180 C   0  0  0  0  0  0  0  0  0  0  0  0
   22.9902   21.6504   17.6730 O   0  0  0  0  0  0  0  0  0  0  0  0
   22.9317   21.2470   18.9732 C   0  0  0  0  0  0  0  0  0  0  0  0
   23.7151   25.7540   17.7666 C   0  0  0  0  0  0  0  0  0  0  0  0
   21.7672   20.6793   19.3873 C   0  0  0  0  0  0  0  0  0  0  0  0
   24.0098   21.3972   19.8246 C   0  0  0  0  0  0  0  0  0  0  0  0
   21.7059   20.2122   20.7229 C   0  0  0  0  0  0  0  0  0  0  0  0
   20.5158   19.5883   21.1431 O   0  0  0  0  0  0  0  0  0  0  0  0
   25.3206   21.9001   19.2961 O   0  0  0  0  0  0  0  0  0  0  0  0
   22.3139   23.9273   17.8166 C   0  0  0  0  0  0  0  0  0  0  0  0
   26.2473   22.1314   18.2908 C   0  0  0  0  0  0  0  0  0  0  0  0
   24.0074   20.9746   21.0904 C   0  0  0  0  0  0  0  0  0  0  0  0
   22.7581   20.4907   21.6057 C   0  0  0  0  0  0  0  0  0  0  0  0
   22.4149   25.2402   17.8727 C   0  0  0  0  0  0  0  0  0  0  0  0
  1  2  2  0
  2  3  1  0
  2  4  1  0
  4  5  1  0
  5  6  1  0
  1  7  1  0
  6  8  2  0
  6  9  1  0
  8 10  1  0
 10 11  1  0
  9 12  1  0
  4 13  2  0
  3 14  1  0
 12 14  1  0
  9 15  2  0
 10 16  2  0
 15 16  1  0
  7 17  2  0
 13 17  1  0
M  END
>  <ID>  (1) 
conformer_0

$$$$
