
     RDKit          3D

 17 19  0  0  0  0  0  0  0  0999 V2000
   23.6924   26.5941   19.0600 C   0  0  0  0  0  0  0  0  0  0  0  0
   23.3864   25.8509   19.9753 C   0  0  0  0  0  0  0  0  0  0  0  0
   23.0757   24.5717   19.7861 C   0  0  0  0  0  0  0  0  0  0  0  0
   23.1878   24.0034   18.5940 C   0  0  0  0  0  0  0  0  0  0  0  0
   22.6590   23.7349   20.9262 N   0  0  0  0  0  0  0  0  0  0  0  0
   22.5789   22.4719   20.5429 C   0  0  0  0  0  0  0  0  0  0  0  0
   23.5476   24.7700   17.5383 C   0  0  0  0  0  0  0  0  0  0  0  0
   22.7145   22.6059   18.3908 C   0  0  0  0  0  0  0  0  0  0  0  0
   22.4418   21.9070   19.4447 N   0  0  0  0  0  0  0  0  0  0  0  0
   23.6301   24.2582   16.2141 F   0  0  0  0  0  0  0  0  0  0  0  0
   22.7148   24.1267   22.2185 C   0  0  0  0  0  0  0  0  0  0  0  0
   22.1706   21.6319   21.8951 C   0  0  0  0  0  0  0  0  0  0  0  0
   23.8435   26.1459   17.7407 C   0  0  0  0  0  0  0  0  0  0  0  0
   23.0971   20.4032   22.1218 C   0  0  0  0  0  0  0  0  0  0  0  0
   22.7541   22.1090   17.2311 O   0  0  0  0  0  0  0  0  0  0  0  0
   21.4454   23.8449   22.9603 C   0  0  0  0  0  0  0  0  0  0  0  0
   21.8018   22.3493   23.2705 C   0  0  0  0  0  0  0  0  0  0  0  0
  1  2  2  0
  2  3  1  0
  3  4  2  0
  3  5  1  0
  5  6  1  0
  4  7  1  0
  4  8  1  0
  6  9  2  0
  8  9  1  0
  7 10  1  0
  5 11  1  0
  6 12  1  0
  1 13  1  0
  7 13  2  0
 12 14  1  0
  8 15  2  0
 11 16  1  0
 12 17  1  0
 16 17  1  0
M  END
>  <ID>  (1) 
conformer_0

$$$$
