
     RDKit          3D

 17 18  0  0  0  0  0  0  0  0999 V2000
   24.6469   24.7904   17.5131 C   0  0  0  0  0  0  0  0  0  0  0  0
   24.5220   23.6236   17.3692 C   0  0  0  0  0  0  0  0  0  0  0  0
   25.5545   22.7047   17.1448 C   0  0  0  0  0  0  0  0  0  0  0  0
   23.2521   23.0376   17.5180 C   0  0  0  0  0  0  0  0  0  0  0  0
   22.9902   21.6504   17.6730 O   0  0  0  0  0  0  0  0  0  0  0  0
   22.9317   21.2470   18.9732 C   0  0  0  0  0  0  0  0  0  0  0  0
   23.9356   21.2031   19.6555 O   0  0  0  0  0  0  0  0  0  0  0  0
   26.0189   25.2666   17.4561 C   0  0  0  0  0  0  0  0  0  0  0  0
   26.8416   23.2150   17.2139 C   0  0  0  0  0  0  0  0  0  0  0  0
   27.1243   24.4992   17.2925 C   0  0  0  0  0  0  0  0  0  0  0  0
   21.6160   21.1364   19.6324 C   0  0  0  0  0  0  0  0  0  0  0  0
   21.3458   22.0053   20.6766 C   0  0  0  0  0  0  0  0  0  0  0  0
   22.1755   22.2427   21.7575 C   0  0  0  0  0  0  0  0  0  0  0  0
   21.9636   23.2894   22.6465 C   0  0  0  0  0  0  0  0  0  0  0  0
   20.4829   22.9559   20.6128 C   0  0  0  0  0  0  0  0  0  0  0  0
   21.0374   24.1912   22.6071 C   0  0  0  0  0  0  0  0  0  0  0  0
   20.1850   24.0710   21.4929 C   0  0  0  0  0  0  0  0  0  0  0  0
  1  2  2  0
  2  3  1  0
  2  4  1  0
  4  5  1  0
  5  6  1  0
  6  7  2  0
  1  8  1  0
  3  9  2  0
  8 10  2  0
  9 10  1  0
  6 11  1  0
 11 12  1  0
 12 13  1  0
 13 14  2  0
 12 15  2  0
 14 16  1  0
 15 17  1  0
 16 17  2  0
M  END
>  <ID>  (1) 
conformer_0

$$$$
