
     RDKit          3D

 16 17  0  0  0  0  0  0  0  0999 V2000
   19.3147   22.3402   19.6677 O   0  0  0  0  0  0  0  0  0  0  0  0
   20.2958   22.5641   20.3086 C   0  0  0  0  0  0  0  0  0  0  0  0
   21.6101   22.1530   20.1199 N   0  0  0  0  0  0  0  0  0  0  0  0
   20.2340   23.3912   21.7213 C   0  0  0  0  0  0  0  0  0  0  0  0
   22.4790   21.8710   21.1636 C   0  0  0  0  0  0  0  0  0  0  0  0
   21.9424   21.7607   18.7546 C   0  0  0  0  0  0  0  0  0  0  0  0
   21.1209   23.3248   22.6947 C   0  0  0  0  0  0  0  0  0  0  0  0
   23.1280   22.4467   18.2791 C   0  0  0  0  0  0  0  0  0  0  0  0
   22.5074   23.0241   22.1535 C   0  0  0  0  0  0  0  0  0  0  0  0
   19.1211   24.1324   21.6666 O   0  0  0  0  0  0  0  0  0  0  0  0
   22.9854   23.7442   17.9109 C   0  0  0  0  0  0  0  0  0  0  0  0
   23.8864   21.6839   20.5118 C   0  0  0  0  0  0  0  0  0  0  0  0
   24.0411   22.5234   19.5316 C   0  0  0  0  0  0  0  0  0  0  0  0
   24.5034   20.6334   20.8577 O   0  0  0  0  0  0  0  0  0  0  0  0
   23.7693   24.6003   18.3886 O   0  0  0  0  0  0  0  0  0  0  0  0
   22.5851   23.9792   16.5787 O   0  0  0  0  0  0  0  0  0  0  0  0
  1  2  2  0
  2  3  1  0
  2  4  1  0
  3  5  1  0
  3  6  1  0
  4  7  1  0
  6  8  1  0
  5  9  1  0
  7  9  1  0
  4 10  2  0
  8 11  1  0
  5 12  1  0
  8 13  1  0
 12 13  1  0
 12 14  2  0
 11 15  1  0
 11 16  2  0
M  END
>  <ID>  (1) 
conformer_0

$$$$
