
     RDKit          3D

 11 12  0  0  0  0  0  0  0  0999 V2000
   24.6469   24.7904   17.5131 C   0  0  0  0  0  0  0  0  0  0  0  0
   24.5220   23.6236   17.3692 C   0  0  0  0  0  0  0  0  0  0  0  0
   25.5545   22.7047   17.1448 C   0  0  0  0  0  0  0  0  0  0  0  0
   23.2521   23.0376   17.5180 C   0  0  0  0  0  0  0  0  0  0  0  0
   25.3755   21.3307   17.1406 C   0  0  0  0  0  0  0  0  0  0  0  0
   23.0962   21.6343   17.7168 N   0  0  0  0  0  0  0  0  0  0  0  0
   23.5942   25.7479   17.6709 C   0  0  0  0  0  0  0  0  0  0  0  0
   22.2463   23.7538   18.0816 C   0  0  0  0  0  0  0  0  0  0  0  0
   23.8073   27.1370   17.8575 N   0  0  0  0  0  0  0  0  0  0  0  0
   22.3897   25.2011   18.1174 C   0  0  0  0  0  0  0  0  0  0  0  0
   24.0609   20.9106   17.5710 C   0  0  0  0  0  0  0  0  0  0  0  0
  1  2  2  0
  2  3  1  0
  2  4  1  0
  3  5  2  0
  4  6  1  0
  1  7  1  0
  4  8  2  0
  7  9  1  0
  7 10  2  0
  8 10  1  0
  5 11  1  0
  6 11  2  0
M  END
>  <ID>  (1) 
conformer_0

$$$$
