
     RDKit          3D

 12 13  0  0  0  0  0  0  0  0999 V2000
   18.8051   24.2725   21.3617 O   0  0  0  0  0  0  0  0  0  0  0  0
   20.0123   23.8794   21.1718 C   0  0  0  0  0  0  0  0  0  0  0  0
   21.1291   24.4185   21.7667 C   0  0  0  0  0  0  0  0  0  0  0  0
   20.1717   22.8822   20.1625 C   0  0  0  0  0  0  0  0  0  0  0  0
   21.4784   22.3251   19.9118 C   0  0  0  0  0  0  0  0  0  0  0  0
   22.3973   23.9082   21.6157 C   0  0  0  0  0  0  0  0  0  0  0  0
   22.6481   22.7934   20.6564 C   0  0  0  0  0  0  0  0  0  0  0  0
   24.0300   22.2046   20.4758 C   0  0  0  0  0  0  0  0  0  0  0  0
   21.7054   21.1110   18.9414 C   0  0  0  0  0  0  0  0  0  0  0  0
   24.0921   21.1962   19.5277 C   0  0  0  0  0  0  0  0  0  0  0  0
   22.9388   21.1179   18.6526 N   0  0  0  0  0  0  0  0  0  0  0  0
   25.1850   20.6028   19.2990 O   0  0  0  0  0  0  0  0  0  0  0  0
  1  2  1  0
  2  3  2  0
  2  4  1  0
  4  5  2  0
  3  6  1  0
  5  7  1  0
  6  7  2  0
  7  8  1  0
  5  9  1  0
  8 10  1  0
  9 11  1  0
 10 11  1  0
 10 12  2  0
M  END
>  <ID>  (1) 
conformer_0

$$$$
