
     RDKit          3D

  5  5  0  0  0  0  0  0  0  0999 V2000
   23.6924   26.5941   19.0600 C   0  0  0  0  0  0  0  0  0  0  0  0
   23.9531   26.7671   17.9447 C   0  0  0  0  0  0  0  0  0  0  0  0
   23.7419   25.5270   17.2759 C   0  0  0  0  0  0  0  0  0  0  0  0
   23.2862   25.3677   19.5719 C   0  0  0  0  0  0  0  0  0  0  0  0
   23.2066   24.5071   18.5788 C   0  0  0  0  0  0  0  0  0  0  0  0
  1  2  2  0
  2  3  1  0
  1  4  1  0
  3  5  2  0
  4  5  2  0
M  END
>  <ID>  (1) 
conformer_0

$$$$
