
     RDKit          3D

 10 11  0  0  0  0  0  0  0  0999 V2000
   24.6469   24.7904   17.5131 C   0  0  0  0  0  0  0  0  0  0  0  0
   24.5220   23.6236   17.3692 C   0  0  0  0  0  0  0  0  0  0  0  0
   23.3438   23.0202   17.3451 C   0  0  0  0  0  0  0  0  0  0  0  0
   23.1775   21.5776   17.3545 O   0  0  0  0  0  0  0  0  0  0  0  0
   23.6413   25.7381   17.7194 C   0  0  0  0  0  0  0  0  0  0  0  0
   22.2507   21.2406   18.2841 C   0  0  0  0  0  0  0  0  0  0  0  0
   21.0493   21.8173   18.3754 C   0  0  0  0  0  0  0  0  0  0  0  0
   21.1042   23.0136   18.6125 O   0  0  0  0  0  0  0  0  0  0  0  0
   22.2810   23.7188   18.0378 C   0  0  0  0  0  0  0  0  0  0  0  0
   22.4331   25.1352   18.2129 C   0  0  0  0  0  0  0  0  0  0  0  0
  1  2  2  0
  2  3  1  0
  3  4  1  0
  1  5  1  0
  4  6  1  0
  6  7  2  0
  7  8  1  0
  3  9  2  0
  8  9  1  0
  5 10  2  0
  9 10  1  0
M  END
>  <ID>  (1) 
conformer_0

$$$$
