
     RDKit          3D

  7  7  0  0  0  0  0  0  0  0999 V2000
   25.9878   23.6527   17.3088 C   0  0  0  0  0  0  0  0  0  0  0  0
   25.3446   24.6819   17.5525 C   0  0  0  0  0  0  0  0  0  0  0  0
   25.2816   22.3997   17.1054 C   0  0  0  0  0  0  0  0  0  0  0  0
   25.9554   21.1695   16.9178 N   0  0  0  0  0  0  0  0  0  0  0  0
   24.0301   24.7946   17.5553 C   0  0  0  0  0  0  0  0  0  0  0  0
   23.2596   23.6317   17.4008 C   0  0  0  0  0  0  0  0  0  0  0  0
   23.9552   22.3676   17.1774 C   0  0  0  0  0  0  0  0  0  0  0  0
  1  2  1  0
  1  3  2  0
  3  4  1  0
  2  5  2  0
  5  6  1  0
  3  7  1  0
  6  7  2  0
M  END
>  <ID>  (1) 
conformer_0

$$$$
