
     RDKit          3D

 15 15  0  0  0  0  0  0  0  0999 V2000
   19.6798   24.1268   21.6759 O   0  0  0  0  0  0  0  0  0  0  0  0
   20.2479   23.5668   20.8214 C   0  0  0  0  0  0  0  0  0  0  0  0
   21.5741   23.7147   20.6591 C   0  0  0  0  0  0  0  0  0  0  0  0
   22.2638   24.8459   21.3578 C   0  0  0  0  0  0  0  0  0  0  0  0
   22.1003   23.6206   19.2855 C   0  0  0  0  0  0  0  0  0  0  0  0
   22.3545   22.3672   21.3009 C   0  0  0  0  0  0  0  0  0  0  0  0
   22.9330   24.5955   18.7286 O   0  0  0  0  0  0  0  0  0  0  0  0
   22.2484   21.1577   20.5499 C   0  0  0  0  0  0  0  0  0  0  0  0
   21.8778   22.6249   18.2902 C   0  0  0  0  0  0  0  0  0  0  0  0
   22.5078   21.3417   19.0032 C   0  0  0  0  0  0  0  0  0  0  0  0
   23.1494   20.0861   21.0472 C   0  0  0  0  0  0  0  0  0  0  0  0
   20.4407   22.3864   18.1562 C   0  0  0  0  0  0  0  0  0  0  0  0
   20.8640   20.5814   20.6182 O   0  0  0  0  0  0  0  0  0  0  0  0
   22.3556   22.7237   16.9679 C   0  0  0  0  0  0  0  0  0  0  0  0
   19.5179   22.9671   19.9145 O   0  0  0  0  0  0  0  0  0  0  0  0
  1  2  1  0
  2  3  1  0
  3  4  1  0
  3  5  1  0
  3  6  1  0
  5  7  2  0
  6  8  1  0
  5  9  1  0
  8 10  1  0
  9 10  1  0
  8 11  1  0
  9 12  1  0
  8 13  1  0
  9 14  1  0
  2 15  2  0
M  END
>  <ID>  (1) 
conformer_0

$$$$
