
     RDKit          3D

 15 15  0  0  0  0  0  0  0  0999 V2000
   19.3147   22.3402   19.6677 O   0  0  0  0  0  0  0  0  0  0  0  0
   20.2958   22.5641   20.3086 C   0  0  0  0  0  0  0  0  0  0  0  0
   21.6101   22.1530   20.1199 N   0  0  0  0  0  0  0  0  0  0  0  0
   20.2340   23.3912   21.7213 C   0  0  0  0  0  0  0  0  0  0  0  0
   22.4790   21.8710   21.1636 C   0  0  0  0  0  0  0  0  0  0  0  0
   21.8420   21.4869   18.8444 C   0  0  0  0  0  0  0  0  0  0  0  0
   22.7379   20.5743   18.8723 C   0  0  0  0  0  0  0  0  0  0  0  0
   22.2397   22.5451   17.8709 C   0  0  0  0  0  0  0  0  0  0  0  0
   19.2964   24.4370   21.5795 O   0  0  0  0  0  0  0  0  0  0  0  0
   20.8521   23.3094   22.7160 N   0  0  0  0  0  0  0  0  0  0  0  0
   21.5014   23.2106   17.0602 O   0  0  0  0  0  0  0  0  0  0  0  0
   23.4236   20.5716   20.2076 C   0  0  0  0  0  0  0  0  0  0  0  0
   24.7975   21.0164   20.0991 C   0  0  0  0  0  0  0  0  0  0  0  0
   23.2005   19.3387   21.0380 C   0  0  0  0  0  0  0  0  0  0  0  0
   23.5325   22.9425   18.0578 O   0  0  0  0  0  0  0  0  0  0  0  0
  1  2  2  0
  2  3  1  0
  2  4  1  0
  3  5  1  0
  3  6  1  0
  6  7  1  0
  6  8  1  0
  4  9  2  0
  4 10  1  0
  8 11  2  0
  5 12  1  0
  7 12  1  0
 12 13  1  0
 12 14  1  0
  8 15  1  0
M  END
>  <ID>  (1) 
conformer_0

$$$$
