
     RDKit          3D

 16 18  0  0  0  0  0  0  0  0999 V2000
   18.7102   24.3089   21.1795 O   0  0  0  0  0  0  0  0  0  0  0  0
   19.8923   23.9204   21.1817 C   0  0  0  0  0  0  0  0  0  0  0  0
   20.4030   23.0581   20.3080 C   0  0  0  0  0  0  0  0  0  0  0  0
   19.7378   22.1740   19.5424 C   0  0  0  0  0  0  0  0  0  0  0  0
   21.9145   22.9914   20.3924 C   0  0  0  0  0  0  0  0  0  0  0  0
   22.5802   21.9378   19.8724 C   0  0  0  0  0  0  0  0  0  0  0  0
   24.0403   21.9488   19.8236 C   0  0  0  0  0  0  0  0  0  0  0  0
   22.0622   21.3522   18.8763 C   0  0  0  0  0  0  0  0  0  0  0  0
   20.5079   21.0753   18.9502 C   0  0  0  0  0  0  0  0  0  0  0  0
   24.6704   20.5969   19.8217 C   0  0  0  0  0  0  0  0  0  0  0  0
   22.8618   20.9820   21.0510 C   0  0  0  0  0  0  0  0  0  0  0  0
   23.8304   19.9888   20.7773 C   0  0  0  0  0  0  0  0  0  0  0  0
   22.6150   23.8684   21.2435 C   0  0  0  0  0  0  0  0  0  0  0  0
   20.6319   24.8620   21.8834 N   0  0  0  0  0  0  0  0  0  0  0  0
   21.9455   24.8171   22.0172 C   0  0  0  0  0  0  0  0  0  0  0  0
   24.6346   22.8615   18.8826 O   0  0  0  0  0  0  0  0  0  0  0  0
  1  2  1  0
  2  3  1  0
  3  4  1  0
  3  5  2  0
  5  6  1  0
  6  7  1  0
  6  8  1  0
  4  9  1  0
  8  9  1  0
  7 10  1  0
  6 11  1  0
 10 12  1  0
 11 12  1  0
  5 13  1  0
  2 14  2  0
 13 15  2  0
 14 15  1  0
  7 16  1  0
M  END
>  <ID>  (1) 
conformer_0

$$$$
