
     RDKit          3D

 14 14  0  0  0  0  0  0  0  0999 V2000
   19.3147   22.3402   19.6677 O   0  0  0  0  0  0  0  0  0  0  0  0
   20.2958   22.5641   20.3086 C   0  0  0  0  0  0  0  0  0  0  0  0
   21.6101   22.1530   20.1199 N   0  0  0  0  0  0  0  0  0  0  0  0
   22.4951   22.3840   20.9420 C   0  0  0  0  0  0  0  0  0  0  0  0
   20.1706   23.7363   21.2841 C   0  0  0  0  0  0  0  0  0  0  0  0
   22.5045   23.3897   21.9882 C   0  0  0  0  0  0  0  0  0  0  0  0
   23.6085   23.6187   22.8105 C   0  0  0  0  0  0  0  0  0  0  0  0
   21.1662   23.9925   22.2012 C   0  0  0  0  0  0  0  0  0  0  0  0
   21.7156   21.3568   18.9206 C   0  0  0  0  0  0  0  0  0  0  0  0
   22.7239   22.0205   17.9521 C   0  0  0  0  0  0  0  0  0  0  0  0
   18.8527   24.2487   21.5690 O   0  0  0  0  0  0  0  0  0  0  0  0
   24.0023   21.7223   18.0489 C   0  0  0  0  0  0  0  0  0  0  0  0
   24.5022   20.7147   18.9987 C   0  0  0  0  0  0  0  0  0  0  0  0
   24.8369   21.9468   16.9708 C   0  0  0  0  0  0  0  0  0  0  0  0
  1  2  2  0
  2  3  1  0
  3  4  1  0
  2  5  1  0
  4  6  2  0
  6  7  1  0
  5  8  2  0
  6  8  1  0
  3  9  1  0
  9 10  1  0
  5 11  1  0
 10 12  1  0
 12 13  1  0
 12 14  1  0
M  END
>  <ID>  (1) 
conformer_0

$$$$
