
     RDKit          3D

 16 17  0  0  0  0  0  0  0  0999 V2000
   19.3391   23.8669   22.2871 O   0  0  0  0  0  0  0  0  0  0  0  0
   19.7203   23.8728   20.9836 C   0  0  0  0  0  0  0  0  0  0  0  0
   20.9394   23.3455   20.7124 C   0  0  0  0  0  0  0  0  0  0  0  0
   22.0933   23.8331   21.0841 C   0  0  0  0  0  0  0  0  0  0  0  0
   21.0354   22.9825   19.2871 C   0  0  0  0  0  0  0  0  0  0  0  0
   23.2367   23.0483   21.0016 C   0  0  0  0  0  0  0  0  0  0  0  0
   20.0545   22.0288   18.8688 O   0  0  0  0  0  0  0  0  0  0  0  0
   22.4370   22.2896   18.8897 C   0  0  0  0  0  0  0  0  0  0  0  0
   22.9739   21.7295   21.6462 C   0  0  0  0  0  0  0  0  0  0  0  0
   18.8510   24.3035   20.2390 O   0  0  0  0  0  0  0  0  0  0  0  0
   23.5337   22.9248   19.5766 C   0  0  0  0  0  0  0  0  0  0  0  0
   22.9412   20.5981   20.7834 C   0  0  0  0  0  0  0  0  0  0  0  0
   22.4464   20.8150   19.3768 C   0  0  0  0  0  0  0  0  0  0  0  0
   22.4434   22.3054   17.4259 O   0  0  0  0  0  0  0  0  0  0  0  0
   24.8258   22.2638   19.2941 O   0  0  0  0  0  0  0  0  0  0  0  0
   24.1795   19.9929   20.6674 O   0  0  0  0  0  0  0  0  0  0  0  0
  1  2  1  0
  2  3  1  0
  3  4  1  0
  3  5  1  0
  4  6  1  0
  5  7  1  0
  5  8  1  0
  6  9  1  0
  2 10  2  0
  6 11  1  0
  8 11  1  0
  9 12  1  0
  8 13  1  0
 12 13  1  0
  8 14  1  0
 11 15  1  0
 12 16  1  0
M  END
>  <ID>  (1) 
conformer_0

$$$$
