
     RDKit          3D

 15 16  0  0  0  0  0  0  0  0999 V2000
   24.6469   24.7904   17.5131 C   0  0  0  0  0  0  0  0  0  0  0  0
   24.5220   23.6236   17.3692 C   0  0  0  0  0  0  0  0  0  0  0  0
   25.5545   22.7047   17.1448 C   0  0  0  0  0  0  0  0  0  0  0  0
   23.2521   23.0376   17.5180 C   0  0  0  0  0  0  0  0  0  0  0  0
   22.9902   21.6504   17.6730 O   0  0  0  0  0  0  0  0  0  0  0  0
   22.9317   21.2470   18.9732 C   0  0  0  0  0  0  0  0  0  0  0  0
   23.7151   25.7540   17.7666 C   0  0  0  0  0  0  0  0  0  0  0  0
   21.7672   20.6793   19.3873 C   0  0  0  0  0  0  0  0  0  0  0  0
   24.0098   21.3972   19.8246 C   0  0  0  0  0  0  0  0  0  0  0  0
   21.7059   20.2122   20.7229 C   0  0  0  0  0  0  0  0  0  0  0  0
   22.1701   23.9433   17.8462 C   0  0  0  0  0  0  0  0  0  0  0  0
   20.8087   23.4503   18.1051 F   0  0  0  0  0  0  0  0  0  0  0  0
   24.0334   20.8935   21.1062 C   0  0  0  0  0  0  0  0  0  0  0  0
   22.6982   20.3885   21.5106 C   0  0  0  0  0  0  0  0  0  0  0  0
   22.4246   25.2966   17.9203 C   0  0  0  0  0  0  0  0  0  0  0  0
  1  2  2  0
  2  3  1  0
  2  4  1  0
  4  5  1  0
  5  6  1  0
  1  7  1  0
  6  8  2  0
  6  9  1  0
  8 10  1  0
  4 11  2  0
 11 12  1  0
  9 13  2  0
 10 14  2  0
 13 14  1  0
  7 15  2  0
 11 15  1  0
M  END
>  <ID>  (1) 
conformer_0

$$$$
