
     RDKit          3D

 12 13  0  0  0  0  0  0  0  0999 V2000
   18.8051   24.2725   21.3617 O   0  0  0  0  0  0  0  0  0  0  0  0
   20.0123   23.8794   21.1718 C   0  0  0  0  0  0  0  0  0  0  0  0
   20.3303   22.9339   20.2431 C   0  0  0  0  0  0  0  0  0  0  0  0
   21.1087   24.3003   22.0397 C   0  0  0  0  0  0  0  0  0  0  0  0
   21.7035   22.3889   20.0947 C   0  0  0  0  0  0  0  0  0  0  0  0
   21.9911   21.2846   19.1035 C   0  0  0  0  0  0  0  0  0  0  0  0
   22.5630   22.6994   20.8638 C   0  0  0  0  0  0  0  0  0  0  0  0
   23.9914   22.1150   20.7646 C   0  0  0  0  0  0  0  0  0  0  0  0
   20.8757   25.2214   22.9967 O   0  0  0  0  0  0  0  0  0  0  0  0
   24.1788   21.1098   19.9104 N   0  0  0  0  0  0  0  0  0  0  0  0
   22.4767   23.7234   21.9380 C   0  0  0  0  0  0  0  0  0  0  0  0
   23.1830   20.7663   19.0965 C   0  0  0  0  0  0  0  0  0  0  0  0
  1  2  1  0
  2  3  2  0
  2  4  1  0
  3  5  1  0
  5  6  1  0
  5  7  2  0
  7  8  1  0
  4  9  1  0
  8 10  2  0
  4 11  2  0
  7 11  1  0
  6 12  2  0
 10 12  1  0
M  END
>  <ID>  (1) 
conformer_0

$$$$
