
     RDKit          3D

 15 17  0  0  0  0  0  0  0  0999 V2000
   19.3147   22.3402   19.6677 O   0  0  0  0  0  0  0  0  0  0  0  0
   20.2958   22.5641   20.3086 C   0  0  0  0  0  0  0  0  0  0  0  0
   21.6101   22.1530   20.1199 N   0  0  0  0  0  0  0  0  0  0  0  0
   20.2340   23.3912   21.7213 C   0  0  0  0  0  0  0  0  0  0  0  0
   22.4790   21.8710   21.1636 C   0  0  0  0  0  0  0  0  0  0  0  0
   21.8420   21.4869   18.8444 C   0  0  0  0  0  0  0  0  0  0  0  0
   22.7379   20.5743   18.8723 C   0  0  0  0  0  0  0  0  0  0  0  0
   21.2905   23.7357   22.3386 C   0  0  0  0  0  0  0  0  0  0  0  0
   21.0973   24.3444   23.5112 O   0  0  0  0  0  0  0  0  0  0  0  0
   22.8582   19.6102   19.7491 C   0  0  0  0  0  0  0  0  0  0  0  0
   22.5097   22.9740   22.1169 N   0  0  0  0  0  0  0  0  0  0  0  0
   23.9153   21.9283   20.6765 C   0  0  0  0  0  0  0  0  0  0  0  0
   24.0876   21.2045   19.1788 C   0  0  0  0  0  0  0  0  0  0  0  0
   23.9823   19.1221   20.2883 C   0  0  0  0  0  0  0  0  0  0  0  0
   24.9381   20.0457   19.9699 C   0  0  0  0  0  0  0  0  0  0  0  0
  1  2  2  0
  2  3  1  0
  2  4  1  0
  3  5  1  0
  3  6  1  0
  6  7  1  0
  4  8  1  0
  8  9  2  0
  7 10  1  0
  5 11  1  0
  8 11  1  0
  5 12  1  0
  7 13  1  0
 12 13  1  0
 10 14  1  0
 13 15  1  0
 14 15  1  0
M  END
>  <ID>  (1) 
conformer_0

$$$$
