
     RDKit          3D

  5  4  0  0  0  0  0  0  0  0999 V2000
   17.3152   55.3063   25.1953 C   0  0  0  0  0  0  0  0  0  0  0  0
   16.8152   56.7063   25.1953 C   0  0  0  0  0  0  0  0  0  0  0  0
   17.0152   57.4063   26.3953 C   0  0  0  0  0  0  0  0  0  0  0  0
   16.3152   57.3063   23.9953 C   0  0  0  0  0  0  0  0  0  0  0  0
   18.4152   57.7063   26.7953 C   0  0  0  0  0  0  0  0  0  0  0  0
  2  1  1  0
  3  2  1  0
  4  2  1  0
  5  3  1  0
M  END
>  <ID>  (1) 
conformer_0

$$$$
