
     RDKit          3D

 15 14  0  0  0  0  0  0  0  0999 V2000
   22.6995   48.9300   19.1244 C   0  0  0  0  0  0  0  0  0  0  0  0
   21.8995   49.6300   20.1244 C   0  0  0  0  0  0  0  0  0  0  0  0
   21.9995   48.8300   17.8244 C   0  0  0  0  0  0  0  0  0  0  0  0
   20.4995   49.7300   19.8244 C   0  0  0  0  0  0  0  0  0  0  0  0
   19.7995   51.0300   19.8244 C   0  0  0  0  0  0  0  0  0  0  0  0
   19.9995   52.0300   20.8244 C   0  0  0  0  0  0  0  0  0  0  0  0
   18.8995   53.0300   20.9244 C   0  0  0  0  0  0  0  0  0  0  0  0
   18.8995   54.0300   22.0244 C   0  0  0  0  0  0  0  0  0  0  0  0
   17.6995   54.4300   22.7244 C   0  0  0  0  0  0  0  0  0  0  0  0
   17.4995   55.8300   23.0244 C   0  0  0  0  0  0  0  0  0  0  0  0
   16.7995   56.0300   24.2244 C   0  0  0  0  0  0  0  0  0  0  0  0
   17.3995   56.7300   25.3244 C   0  0  0  0  0  0  0  0  0  0  0  0
   16.6995   57.5300   26.3244 C   0  0  0  0  0  0  0  0  0  0  0  0
   17.4995   57.7300   27.5244 C   0  0  0  0  0  0  0  0  0  0  0  0
   20.6995   48.2300   17.7244 C   0  0  0  0  0  0  0  0  0  0  0  0
  2  1  1  0
  3  1  1  0
  4  2  1  0
  5  4  1  0
  6  5  1  0
  7  6  1  0
  8  7  1  0
  9  8  1  0
 10  9  1  0
 11 10  1  0
 12 11  1  0
 13 12  1  0
 14 13  1  0
 15  3  1  0
M  END
>  <ID>  (1) 
conformer_0

$$$$
