
     RDKit          3D

 14 13  0  0  0  0  0  0  0  0999 V2000
   17.4782   57.4213   25.7913 C   0  0  0  0  0  0  0  0  0  0  0  0
   17.2782   56.0213   25.4913 C   0  0  0  0  0  0  0  0  0  0  0  0
   16.8782   55.8213   24.0913 C   0  0  0  0  0  0  0  0  0  0  0  0
   17.4782   54.7213   23.3913 C   0  0  0  0  0  0  0  0  0  0  0  0
   18.2782   54.6213   22.2913 C   0  0  0  0  0  0  0  0  0  0  0  0
   19.1782   53.6213   22.0913 C   0  0  0  0  0  0  0  0  0  0  0  0
   19.2782   52.9213   20.7913 C   0  0  0  0  0  0  0  0  0  0  0  0
   20.2782   51.8213   20.8913 C   0  0  0  0  0  0  0  0  0  0  0  0
   20.2782   50.8213   19.8913 C   0  0  0  0  0  0  0  0  0  0  0  0
   21.2782   49.8213   19.9913 C   0  0  0  0  0  0  0  0  0  0  0  0
   22.3782   49.3213   19.4913 C   0  0  0  0  0  0  0  0  0  0  0  0
   22.7782   48.6213   18.3913 C   0  0  0  0  0  0  0  0  0  0  0  0
   23.6782   47.7213   17.9913 C   0  0  0  0  0  0  0  0  0  0  0  0
   24.6782   46.9213   18.4913 C   0  0  0  0  0  0  0  0  0  0  0  0
  2  1  1  0
  3  2  1  0
  4  3  1  0
  5  4  1  0
  6  5  1  0
  7  6  1  0
  8  7  1  0
  9  8  2  3
 10  9  1  0
 11 10  1  0
 12 11  1  0
 13 12  2  3
 14 13  1  0
M  END
>  <ID>  (1) 
conformer_0

$$$$
