
     RDKit          3D

  6  6  0  0  0  0  0  0  0  0999 V2000
   17.5265   56.4394   24.4898 C   0  0  0  0  0  0  0  0  0  0  0  0
   17.1265   55.2394   25.1898 C   0  0  0  0  0  0  0  0  0  0  0  0
   16.3265   56.9394   23.7898 C   0  0  0  0  0  0  0  0  0  0  0  0
   15.8265   54.6394   24.9898 C   0  0  0  0  0  0  0  0  0  0  0  0
   15.8265   58.2394   24.2898 C   0  0  0  0  0  0  0  0  0  0  0  0
   16.4265   54.5394   23.7898 C   0  0  0  0  0  0  0  0  0  0  0  0
  2  1  1  0
  3  1  1  0
  4  2  1  0
  5  3  1  0
  6  2  1  0
  6  4  1  0
M  END
>  <ID>  (1) 
conformer_0

$$$$
