
     RDKit          3D

 14 13  0  0  0  0  0  0  0  0999 V2000
   17.3408   57.2806   25.8126 C   0  0  0  0  0  0  0  0  0  0  0  0
   17.2408   55.9806   25.2126 C   0  0  0  0  0  0  0  0  0  0  0  0
   17.2408   55.9806   23.7126 C   0  0  0  0  0  0  0  0  0  0  0  0
   17.7408   54.7806   23.1126 C   0  0  0  0  0  0  0  0  0  0  0  0
   18.9408   54.7806   22.2126 C   0  0  0  0  0  0  0  0  0  0  0  0
   19.4408   53.5806   21.7126 C   0  0  0  0  0  0  0  0  0  0  0  0
   19.9408   52.5806   21.2126 C   0  0  0  0  0  0  0  0  0  0  0  0
   19.7408   51.2806   20.6126 C   0  0  0  0  0  0  0  0  0  0  0  0
   20.6408   50.1806   20.7126 C   0  0  0  0  0  0  0  0  0  0  0  0
   22.0408   49.9806   20.3126 C   0  0  0  0  0  0  0  0  0  0  0  0
   22.3408   48.9806   19.3126 C   0  0  0  0  0  0  0  0  0  0  0  0
   22.9408   47.7806   19.2126 C   0  0  0  0  0  0  0  0  0  0  0  0
   23.7408   47.3806   18.1126 C   0  0  0  0  0  0  0  0  0  0  0  0
   23.9408   46.3806   17.3126 O   0  0  0  0  0  0  0  0  0  0  0  0
  2  1  1  0
  3  2  1  0
  4  3  1  0
  5  4  1  0
  6  5  2  0
  7  6  2  0
  8  7  1  0
  9  8  1  0
 10  9  1  0
 11 10  1  0
 12 11  1  0
 13 12  1  0
 14 13  1  0
M  END
>  <ID>  (1) 
conformer_0

$$$$
