
     RDKit          3D

  8  7  0  0  0  0  0  0  0  0999 V2000
   17.4782   57.4213   25.7913 C   0  0  0  0  0  0  0  0  0  0  0  0
   17.2782   56.0213   25.4913 C   0  0  0  0  0  0  0  0  0  0  0  0
   16.6782   55.8213   24.1913 C   0  0  0  0  0  0  0  0  0  0  0  0
   17.3782   54.9213   23.2913 C   0  0  0  0  0  0  0  0  0  0  0  0
   17.0782   54.9213   21.8913 C   0  0  0  0  0  0  0  0  0  0  0  0
   17.6782   53.8213   21.0913 C   0  0  0  0  0  0  0  0  0  0  0  0
   17.2782   53.5213   19.6913 C   0  0  0  0  0  0  0  0  0  0  0  0
   17.4782   58.0213   26.8913 O   0  0  0  0  0  0  0  0  0  0  0  0
  2  1  1  0
  3  2  1  0
  4  3  1  0
  5  4  2  3
  6  5  1  0
  7  6  1  0
  8  1  2  0
M  END
>  <ID>  (1) 
conformer_0

$$$$
