
     RDKit          3D

 16 15  0  0  0  0  0  0  0  0999 V2000
   22.5791   48.7922   19.1637 C   0  0  0  0  0  0  0  0  0  0  0  0
   21.9791   49.7922   19.9637 C   0  0  0  0  0  0  0  0  0  0  0  0
   22.1791   48.7922   17.7637 C   0  0  0  0  0  0  0  0  0  0  0  0
   20.6791   50.3922   19.8637 C   0  0  0  0  0  0  0  0  0  0  0  0
   20.3791   51.4922   20.6637 C   0  0  0  0  0  0  0  0  0  0  0  0
   19.6791   52.5922   20.0637 C   0  0  0  0  0  0  0  0  0  0  0  0
   19.4791   53.6922   21.0637 C   0  0  0  0  0  0  0  0  0  0  0  0
   18.1791   54.1922   21.4637 C   0  0  0  0  0  0  0  0  0  0  0  0
   17.9791   54.3922   22.8637 C   0  0  0  0  0  0  0  0  0  0  0  0
   16.6791   54.8922   23.3637 C   0  0  0  0  0  0  0  0  0  0  0  0
   16.8791   55.6922   24.5637 C   0  0  0  0  0  0  0  0  0  0  0  0
   16.2791   56.9922   24.5637 C   0  0  0  0  0  0  0  0  0  0  0  0
   16.8791   57.7922   25.6637 C   0  0  0  0  0  0  0  0  0  0  0  0
   18.0791   57.1922   26.2637 C   0  0  0  0  0  0  0  0  0  0  0  0
   20.7791   49.1922   17.4637 C   0  0  0  0  0  0  0  0  0  0  0  0
   22.8791   47.3922   19.5637 C   0  0  0  0  0  0  0  0  0  0  0  0
  2  1  1  0
  3  1  1  0
  4  2  2  3
  5  4  1  0
  6  5  1  0
  7  6  1  0
  8  7  1  0
  9  8  2  3
 10  9  1  0
 11 10  1  0
 12 11  1  0
 13 12  1  0
 14 13  1  0
 15  3  1  0
 16  1  1  0
M  END
>  <ID>  (1) 
conformer_0

$$$$
