
     RDKit          3D

 15 14  0  0  0  0  0  0  0  0999 V2000
   17.6373   56.3850   25.0759 C   0  0  0  0  0  0  0  0  0  0  0  0
   17.4373   57.5850   25.7759 C   0  0  0  0  0  0  0  0  0  0  0  0
   17.7373   56.3850   23.6759 C   0  0  0  0  0  0  0  0  0  0  0  0
   17.8373   55.0850   22.9759 C   0  0  0  0  0  0  0  0  0  0  0  0
   18.7373   54.8850   21.9759 C   0  0  0  0  0  0  0  0  0  0  0  0
   19.7373   53.9850   21.6759 C   0  0  0  0  0  0  0  0  0  0  0  0
   19.8373   52.5850   21.3759 C   0  0  0  0  0  0  0  0  0  0  0  0
   18.1373   57.7850   27.0759 C   0  0  0  0  0  0  0  0  0  0  0  0
   19.5373   51.9850   20.0759 C   0  0  0  0  0  0  0  0  0  0  0  0
   20.2373   50.7850   19.6759 C   0  0  0  0  0  0  0  0  0  0  0  0
   21.5373   50.3850   20.2759 C   0  0  0  0  0  0  0  0  0  0  0  0
   22.3373   49.3850   19.8759 C   0  0  0  0  0  0  0  0  0  0  0  0
   22.5373   48.6850   18.5759 C   0  0  0  0  0  0  0  0  0  0  0  0
   23.8373   48.1850   18.2759 C   0  0  0  0  0  0  0  0  0  0  0  0
   23.8373   46.7850   17.9759 C   0  0  0  0  0  0  0  0  0  0  0  0
  2  1  1  0
  3  1  2  3
  4  3  1  0
  5  4  1  0
  6  5  1  0
  7  6  1  0
  8  2  1  0
  9  7  1  0
 10  9  1  0
 11 10  2  3
 12 11  1  0
 13 12  1  0
 14 13  1  0
 15 14  1  0
M  END
>  <ID>  (1) 
conformer_0

$$$$
