
     RDKit          3D

  6  5  0  0  0  0  0  0  0  0999 V2000
   17.1663   56.7476   25.3081 C   0  0  0  0  0  0  0  0  0  0  0  0
   17.2663   55.4476   24.8081 C   0  0  0  0  0  0  0  0  0  0  0  0
   17.0663   57.0476   26.7081 C   0  0  0  0  0  0  0  0  0  0  0  0
   16.3663   54.8476   23.9081 C   0  0  0  0  0  0  0  0  0  0  0  0
   16.1663   55.3476   22.5081 C   0  0  0  0  0  0  0  0  0  0  0  0
   17.9663   57.9476   27.3081 C   0  0  0  0  0  0  0  0  0  0  0  0
  2  1  1  0
  3  1  1  0
  4  2  1  0
  5  4  1  0
  6  3  1  0
M  END
>  <ID>  (1) 
conformer_0

$$$$
