
     RDKit          3D

 14 16  0  0  0  0  0  0  0  0999 V2000
   17.4438   55.6054   24.4429 C   0  0  0  0  0  0  0  0  0  0  0  0
   17.2438   56.2054   25.7429 C   0  0  0  0  0  0  0  0  0  0  0  0
   16.4438   54.9054   23.7429 C   0  0  0  0  0  0  0  0  0  0  0  0
   17.1438   57.5054   26.2429 C   0  0  0  0  0  0  0  0  0  0  0  0
   18.3438   56.3054   23.5429 C   0  0  0  0  0  0  0  0  0  0  0  0
   18.5438   57.1054   25.9429 C   0  0  0  0  0  0  0  0  0  0  0  0
   18.5438   55.6054   22.2430 C   0  0  0  0  0  0  0  0  0  0  0  0
   18.1438   54.2054   21.9430 C   0  0  0  0  0  0  0  0  0  0  0  0
   18.1438   53.5054   20.7430 C   0  0  0  0  0  0  0  0  0  0  0  0
   19.2438   52.6054   20.3430 C   0  0  0  0  0  0  0  0  0  0  0  0
   19.3438   52.3054   18.9430 C   0  0  0  0  0  0  0  0  0  0  0  0
   18.9438   53.6054   18.3430 C   0  0  0  0  0  0  0  0  0  0  0  0
   17.4438   54.2054   24.3429 C   0  0  0  0  0  0  0  0  0  0  0  0
   17.9438   54.1054   19.3430 C   0  0  0  0  0  0  0  0  0  0  0  0
  2  1  1  0
  3  1  1  0
  4  2  1  0
  5  1  1  0
  6  2  1  0
  6  4  1  0
  7  5  1  0
  8  7  2  3
  9  8  1  0
 10  9  1  0
 11 10  1  0
 12 11  1  0
 13  1  1  0
 13  3  1  0
 14  9  1  0
 14 12  1  0
M  END
>  <ID>  (1) 
conformer_0

$$$$
