
     RDKit          3D

 10  9  0  0  0  0  0  0  0  0999 V2000
   17.4782   57.4213   25.7913 C   0  0  0  0  0  0  0  0  0  0  0  0
   17.2782   56.0213   25.4913 C   0  0  0  0  0  0  0  0  0  0  0  0
   16.8782   55.8213   24.0913 C   0  0  0  0  0  0  0  0  0  0  0  0
   17.4782   54.7213   23.3913 C   0  0  0  0  0  0  0  0  0  0  0  0
   18.2782   54.6213   22.2913 C   0  0  0  0  0  0  0  0  0  0  0  0
   19.1782   53.6213   22.0913 C   0  0  0  0  0  0  0  0  0  0  0  0
   19.2782   52.9213   20.7913 C   0  0  0  0  0  0  0  0  0  0  0  0
   20.0782   51.7213   20.6913 C   0  0  0  0  0  0  0  0  0  0  0  0
   19.5782   50.5213   20.0913 C   0  0  0  0  0  0  0  0  0  0  0  0
   19.6782   49.2213   20.5913 C   0  0  0  0  0  0  0  0  0  0  0  0
  2  1  1  0
  3  2  1  0
  4  3  1  0
  5  4  1  0
  6  5  1  0
  7  6  2  3
  8  7  1  0
  9  8  1  0
 10  9  1  0
M  END
>  <ID>  (1) 
conformer_0

$$$$
