
     RDKit          3D

  8  9  0  0  0  0  0  0  0  0999 V2000
   17.6437   55.6309   24.3124 C   0  0  0  0  0  0  0  0  0  0  0  0
   16.5437   56.0309   23.4124 C   0  0  0  0  0  0  0  0  0  0  0  0
   17.6437   56.3309   25.6124 C   0  0  0  0  0  0  0  0  0  0  0  0
   16.6437   57.4309   25.5124 C   0  0  0  0  0  0  0  0  0  0  0  0
   16.5437   54.7309   23.9124 C   0  0  0  0  0  0  0  0  0  0  0  0
   18.8437   57.1309   26.0124 C   0  0  0  0  0  0  0  0  0  0  0  0
   16.8437   58.0309   26.8124 N   0  0  0  0  0  0  0  0  0  0  0  0
   18.1437   58.2309   26.7124 N   0  0  0  0  0  0  0  0  0  0  0  0
  2  1  1  0
  3  1  1  0
  4  3  1  0
  5  1  1  0
  5  2  1  0
  6  3  1  0
  7  4  1  0
  8  6  1  0
  8  7  1  0
M  END
>  <ID>  (1) 
conformer_0

$$$$
