
     RDKit          3D

 16 16  0  0  0  0  0  0  0  0999 V2000
   22.4441   48.8053   19.3036 C   0  0  0  0  0  0  0  0  0  0  0  0
   22.1441   49.9053   20.2036 C   0  0  0  0  0  0  0  0  0  0  0  0
   20.8441   50.4053   20.5036 C   0  0  0  0  0  0  0  0  0  0  0  0
   20.1441   51.6053   20.2036 C   0  0  0  0  0  0  0  0  0  0  0  0
   19.8441   52.6053   21.2036 C   0  0  0  0  0  0  0  0  0  0  0  0
   18.5441   53.3053   21.2036 C   0  0  0  0  0  0  0  0  0  0  0  0
   18.3441   54.1053   22.4036 C   0  0  0  0  0  0  0  0  0  0  0  0
   17.1441   54.6053   22.9036 C   0  0  0  0  0  0  0  0  0  0  0  0
   17.3441   55.7053   23.8036 C   0  0  0  0  0  0  0  0  0  0  0  0
   16.5441   56.0053   25.0036 C   0  0  0  0  0  0  0  0  0  0  0  0
   17.1441   57.0053   25.9036 C   0  0  0  0  0  0  0  0  0  0  0  0
   23.6441   48.5053   18.7036 C   0  0  0  0  0  0  0  0  0  0  0  0
   23.8441   47.2053   18.0036 C   0  0  0  0  0  0  0  0  0  0  0  0
   16.5441   57.4053   27.1036 C   0  0  0  0  0  0  0  0  0  0  0  0
   17.1441   57.9053   28.3036 C   0  0  0  0  0  0  0  0  0  0  0  0
   24.8441   47.8053   18.6036 C   0  0  0  0  0  0  0  0  0  0  0  0
  2  1  2  3
  3  2  1  0
  4  3  1  0
  5  4  1  0
  6  5  1  0
  7  6  1  0
  8  7  1  0
  9  8  1  0
 10  9  1  0
 11 10  1  0
 12  1  1  0
 13 12  1  0
 14 11  1  0
 15 14  1  0
 16 12  1  0
 16 13  1  0
M  END
>  <ID>  (1) 
conformer_0

$$$$
