
     RDKit          3D

  8  9  0  0  0  0  0  0  0  0999 V2000
   17.3339   56.0266   24.8335 C   0  0  0  0  0  0  0  0  0  0  0  0
   16.4339   55.0266   24.2335 C   0  0  0  0  0  0  0  0  0  0  0  0
   16.6339   57.2266   25.3335 C   0  0  0  0  0  0  0  0  0  0  0  0
   16.8339   57.6266   26.7335 C   0  0  0  0  0  0  0  0  0  0  0  0
   15.5339   57.8266   24.5335 C   0  0  0  0  0  0  0  0  0  0  0  0
   16.9339   56.0266   23.3335 C   0  0  0  0  0  0  0  0  0  0  0  0
   18.1339   58.3266   26.6335 O   0  0  0  0  0  0  0  0  0  0  0  0
   16.8339   58.3266   24.3335 C   0  0  0  0  0  0  0  0  0  0  0  0
  2  1  1  0
  3  1  1  0
  4  3  1  0
  5  3  1  0
  6  1  1  0
  6  2  1  0
  7  4  1  0
  8  3  1  0
  8  5  1  0
M  END
>  <ID>  (1) 
conformer_0

$$$$
