
     RDKit          3D

 15 14  0  0  0  0  0  0  0  0999 V2000
   22.4441   48.8053   19.3036 C   0  0  0  0  0  0  0  0  0  0  0  0
   22.1441   49.9053   20.2036 C   0  0  0  0  0  0  0  0  0  0  0  0
   20.8441   50.4053   20.5036 C   0  0  0  0  0  0  0  0  0  0  0  0
   20.1441   51.6053   20.2036 C   0  0  0  0  0  0  0  0  0  0  0  0
   19.8441   52.6053   21.2036 C   0  0  0  0  0  0  0  0  0  0  0  0
   18.5441   53.3053   21.2036 C   0  0  0  0  0  0  0  0  0  0  0  0
   18.3441   54.1053   22.4036 C   0  0  0  0  0  0  0  0  0  0  0  0
   17.1441   54.6053   22.9036 C   0  0  0  0  0  0  0  0  0  0  0  0
   17.3441   55.7053   23.8036 C   0  0  0  0  0  0  0  0  0  0  0  0
   16.8441   55.9053   25.1036 C   0  0  0  0  0  0  0  0  0  0  0  0
   17.3441   57.0053   25.8036 C   0  0  0  0  0  0  0  0  0  0  0  0
   17.2441   57.5053   27.1036 C   0  0  0  0  0  0  0  0  0  0  0  0
   23.5441   48.4053   18.7036 C   0  0  0  0  0  0  0  0  0  0  0  0
   23.9441   47.4053   18.0036 C   0  0  0  0  0  0  0  0  0  0  0  0
   18.3441   58.2053   27.8036 C   0  0  0  0  0  0  0  0  0  0  0  0
  2  1  2  3
  3  2  1  0
  4  3  1  0
  5  4  1  0
  6  5  1  0
  7  6  1  0
  8  7  1  0
  9  8  1  0
 10  9  1  0
 11 10  2  3
 12 11  1  0
 13  1  1  0
 14 13  2  0
 15 12  1  0
M  END
>  <ID>  (1) 
conformer_0

$$$$
