
     RDKit          3D

 16 15  0  0  0  0  0  0  0  0999 V2000
   17.6373   56.3850   25.0759 C   0  0  0  0  0  0  0  0  0  0  0  0
   17.4373   57.4850   25.8759 C   0  0  0  0  0  0  0  0  0  0  0  0
   16.7373   56.0850   23.9759 C   0  0  0  0  0  0  0  0  0  0  0  0
   17.1373   54.8850   23.1759 C   0  0  0  0  0  0  0  0  0  0  0  0
   18.4373   54.9850   22.5759 C   0  0  0  0  0  0  0  0  0  0  0  0
   19.0373   53.9850   21.8759 C   0  0  0  0  0  0  0  0  0  0  0  0
   19.9373   53.0850   21.7759 C   0  0  0  0  0  0  0  0  0  0  0  0
   20.1373   51.9850   20.8759 C   0  0  0  0  0  0  0  0  0  0  0  0
   18.5373   58.0850   26.6759 C   0  0  0  0  0  0  0  0  0  0  0  0
   19.3373   51.0850   20.1759 C   0  0  0  0  0  0  0  0  0  0  0  0
   19.7373   49.6850   20.3759 C   0  0  0  0  0  0  0  0  0  0  0  0
   21.1373   49.5850   20.8759 C   0  0  0  0  0  0  0  0  0  0  0  0
   22.2373   49.6850   19.9759 C   0  0  0  0  0  0  0  0  0  0  0  0
   22.3373   48.6850   18.8759 C   0  0  0  0  0  0  0  0  0  0  0  0
   23.6373   48.0850   18.5759 C   0  0  0  0  0  0  0  0  0  0  0  0
   23.7373   46.6850   18.0759 C   0  0  0  0  0  0  0  0  0  0  0  0
  2  1  1  0
  3  1  1  0
  4  3  1  0
  5  4  1  0
  6  5  1  0
  7  6  2  3
  8  7  1  0
  9  2  1  0
 10  8  1  0
 11 10  1  0
 12 11  1  0
 13 12  1  0
 14 13  1  0
 15 14  1  0
 16 15  1  0
M  END
>  <ID>  (1) 
conformer_0

$$$$
