
     RDKit          3D

 16 16  0  0  0  0  0  0  0  0999 V2000
   22.4998   48.8936   18.9548 C   0  0  0  0  0  0  0  0  0  0  0  0
   22.0998   49.5936   20.1548 C   0  0  0  0  0  0  0  0  0  0  0  0
   21.1998   50.5936   20.0548 C   0  0  0  0  0  0  0  0  0  0  0  0
   19.9998   51.0936   20.6548 C   0  0  0  0  0  0  0  0  0  0  0  0
   23.6998   48.1936   18.7548 C   0  0  0  0  0  0  0  0  0  0  0  0
   19.8998   52.4936   21.1548 C   0  0  0  0  0  0  0  0  0  0  0  0
   24.0998   47.3936   17.7548 C   0  0  0  0  0  0  0  0  0  0  0  0
   18.5998   53.0936   21.2548 C   0  0  0  0  0  0  0  0  0  0  0  0
   18.2998   53.8936   22.4548 C   0  0  0  0  0  0  0  0  0  0  0  0
   17.1998   54.5936   22.7548 C   0  0  0  0  0  0  0  0  0  0  0  0
   16.4998   54.9936   23.9548 C   0  0  0  0  0  0  0  0  0  0  0  0
   16.7998   56.0936   24.7548 C   0  0  0  0  0  0  0  0  0  0  0  0
   17.1998   56.1936   26.0548 C   0  0  0  0  0  0  0  0  0  0  0  0
   17.2998   57.3936   26.7548 C   0  0  0  0  0  0  0  0  0  0  0  0
   18.1998   57.8936   27.7548 C   0  0  0  0  0  0  0  0  0  0  0  0
   23.9998   46.7936   18.9548 C   0  0  0  0  0  0  0  0  0  0  0  0
  2  1  1  0
  3  2  1  0
  4  3  1  0
  5  1  1  0
  6  4  1  0
  7  5  1  0
  8  6  1  0
  9  8  2  3
 10  9  1  0
 11 10  1  0
 12 11  1  0
 13 12  2  3
 14 13  1  0
 15 14  1  0
 16  5  1  0
 16  7  1  0
M  END
>  <ID>  (1) 
conformer_0

$$$$
