
     RDKit          3D

 14 13  0  0  0  0  0  0  0  0999 V2000
   17.4782   57.4213   25.7913 C   0  0  0  0  0  0  0  0  0  0  0  0
   17.2782   56.0213   25.4913 C   0  0  0  0  0  0  0  0  0  0  0  0
   16.8782   55.8213   24.0913 C   0  0  0  0  0  0  0  0  0  0  0  0
   17.4782   54.7213   23.3913 C   0  0  0  0  0  0  0  0  0  0  0  0
   18.2782   54.6213   22.2913 C   0  0  0  0  0  0  0  0  0  0  0  0
   19.1782   53.6213   22.0913 C   0  0  0  0  0  0  0  0  0  0  0  0
   19.8782   52.7213   21.3913 C   0  0  0  0  0  0  0  0  0  0  0  0
   19.3782   52.0213   20.1913 C   0  0  0  0  0  0  0  0  0  0  0  0
   19.7782   50.6213   19.8913 C   0  0  0  0  0  0  0  0  0  0  0  0
   20.8782   50.2213   20.7913 C   0  0  0  0  0  0  0  0  0  0  0  0
   22.0782   49.8213   20.1913 C   0  0  0  0  0  0  0  0  0  0  0  0
   22.4782   48.9213   19.1913 C   0  0  0  0  0  0  0  0  0  0  0  0
   23.4782   48.2213   18.7913 C   0  0  0  0  0  0  0  0  0  0  0  0
   23.8782   47.2213   17.9913 C   0  0  0  0  0  0  0  0  0  0  0  0
  2  1  1  0
  3  2  1  0
  4  3  1  0
  5  4  1  0
  6  5  2  0
  7  6  2  0
  8  7  1  0
  9  8  1  0
 10  9  1  0
 11 10  1  0
 12 11  1  0
 13 12  2  3
 14 13  1  0
M  END
>  <ID>  (1) 
conformer_0

$$$$
