
     RDKit          3D

 16 15  0  0  0  0  0  0  0  0999 V2000
   17.2016   55.7473   25.3544 C   0  0  0  0  0  0  0  0  0  0  0  0
   17.1016   57.1473   25.8544 C   0  0  0  0  0  0  0  0  0  0  0  0
   16.7016   55.7473   23.9544 C   0  0  0  0  0  0  0  0  0  0  0  0
   17.2016   54.5473   23.2544 C   0  0  0  0  0  0  0  0  0  0  0  0
   17.6016   54.6473   21.8544 C   0  0  0  0  0  0  0  0  0  0  0  0
   18.9016   54.0473   21.4544 C   0  0  0  0  0  0  0  0  0  0  0  0
   16.1016   57.8473   25.0544 C   0  0  0  0  0  0  0  0  0  0  0  0
   19.1016   53.6473   20.0544 C   0  0  0  0  0  0  0  0  0  0  0  0
   20.0016   52.5473   19.7544 C   0  0  0  0  0  0  0  0  0  0  0  0
   20.2016   51.7473   20.9544 C   0  0  0  0  0  0  0  0  0  0  0  0
   21.0016   50.5473   20.8544 C   0  0  0  0  0  0  0  0  0  0  0  0
   21.2016   49.8473   19.6544 C   0  0  0  0  0  0  0  0  0  0  0  0
   22.4016   49.1473   19.3544 C   0  0  0  0  0  0  0  0  0  0  0  0
   22.6016   48.4473   18.0544 C   0  0  0  0  0  0  0  0  0  0  0  0
   23.9016   48.0473   17.8544 C   0  0  0  0  0  0  0  0  0  0  0  0
   24.8016   47.7473   18.8544 C   0  0  0  0  0  0  0  0  0  0  0  0
  2  1  1  0
  3  1  1  0
  4  3  1  0
  5  4  1  0
  6  5  1  0
  7  2  1  0
  8  6  1  0
  9  8  1  0
 10  9  1  0
 11 10  1  0
 12 11  1  0
 13 12  2  3
 14 13  1  0
 15 14  1  0
 16 15  1  0
M  END
>  <ID>  (1) 
conformer_0

$$$$
