
     RDKit          3D

  8  8  0  0  0  0  0  0  0  0999 V2000
   17.3224   57.6024   26.3000 C   0  0  0  0  0  0  0  0  0  0  0  0
   17.3224   56.6024   25.2000 C   0  0  0  0  0  0  0  0  0  0  0  0
   16.7224   55.4024   25.5000 C   0  0  0  0  0  0  0  0  0  0  0  0
   16.2224   54.9024   24.2000 C   0  0  0  0  0  0  0  0  0  0  0  0
   17.3224   54.8024   23.2000 C   0  0  0  0  0  0  0  0  0  0  0  0
   18.0224   56.0024   22.9000 C   0  0  0  0  0  0  0  0  0  0  0  0
   18.3224   56.7024   24.2000 C   0  0  0  0  0  0  0  0  0  0  0  0
   19.2224   56.1024   22.1000 C   0  0  0  0  0  0  0  0  0  0  0  0
  2  1  1  0
  3  2  1  0
  4  3  1  0
  5  4  1  0
  6  5  1  0
  7  2  1  0
  7  6  1  0
  8  6  1  0
M  END
>  <ID>  (1) 
conformer_0

$$$$
