
     RDKit          3D

 15 14  0  0  0  0  0  0  0  0999 V2000
   17.4517   56.3628   24.7171 C   0  0  0  0  0  0  0  0  0  0  0  0
   16.8517   55.1628   25.3171 C   0  0  0  0  0  0  0  0  0  0  0  0
   18.0517   56.1628   23.4171 C   0  0  0  0  0  0  0  0  0  0  0  0
   18.0517   54.7628   23.0171 C   0  0  0  0  0  0  0  0  0  0  0  0
   18.6517   54.3628   21.7171 C   0  0  0  0  0  0  0  0  0  0  0  0
   19.6517   53.2628   21.7171 C   0  0  0  0  0  0  0  0  0  0  0  0
   19.6517   52.2628   20.8171 C   0  0  0  0  0  0  0  0  0  0  0  0
   20.4517   51.0628   20.6171 C   0  0  0  0  0  0  0  0  0  0  0  0
   19.9517   49.7628   20.4171 C   0  0  0  0  0  0  0  0  0  0  0  0
   21.0517   48.7628   20.3171 C   0  0  0  0  0  0  0  0  0  0  0  0
   22.3517   49.3628   19.9171 C   0  0  0  0  0  0  0  0  0  0  0  0
   23.0517   48.6628   18.8171 C   0  0  0  0  0  0  0  0  0  0  0  0
   24.1517   48.1628   18.5171 C   0  0  0  0  0  0  0  0  0  0  0  0
   24.6517   46.8628   18.3171 C   0  0  0  0  0  0  0  0  0  0  0  0
   15.8517   55.3628   26.4171 C   0  0  0  0  0  0  0  0  0  0  0  0
  2  1  2  3
  3  1  1  0
  4  3  1  0
  5  4  1  0
  6  5  1  0
  7  6  2  3
  8  7  1  0
  9  8  1  0
 10  9  1  0
 11 10  1  0
 12 11  1  0
 13 12  1  0
 14 13  1  0
 15  2  1  0
M  END
>  <ID>  (1) 
conformer_0

$$$$
