
     RDKit          3D

 16 15  0  0  0  0  0  0  0  0999 V2000
   17.2104   55.8577   25.2525 C   0  0  0  0  0  0  0  0  0  0  0  0
   17.2104   57.2577   25.6525 C   0  0  0  0  0  0  0  0  0  0  0  0
   17.7104   57.6577   26.9525 C   0  0  0  0  0  0  0  0  0  0  0  0
   17.1104   55.3577   23.9525 C   0  0  0  0  0  0  0  0  0  0  0  0
   17.9104   54.6577   22.9525 C   0  0  0  0  0  0  0  0  0  0  0  0
   18.8104   55.0577   21.9525 C   0  0  0  0  0  0  0  0  0  0  0  0
   19.4104   53.9577   21.1525 C   0  0  0  0  0  0  0  0  0  0  0  0
   18.4104   53.0577   20.6525 C   0  0  0  0  0  0  0  0  0  0  0  0
   18.9104   52.0577   19.6525 C   0  0  0  0  0  0  0  0  0  0  0  0
   20.1104   51.3577   19.9525 C   0  0  0  0  0  0  0  0  0  0  0  0
   20.3104   49.9577   19.5525 C   0  0  0  0  0  0  0  0  0  0  0  0
   21.3104   49.3577   18.6525 C   0  0  0  0  0  0  0  0  0  0  0  0
   22.5104   48.7577   19.1525 C   0  0  0  0  0  0  0  0  0  0  0  0
   23.4104   48.1577   18.4525 C   0  0  0  0  0  0  0  0  0  0  0  0
   23.9104   47.0577   18.0525 C   0  0  0  0  0  0  0  0  0  0  0  0
   18.9104   58.4577   27.3525 C   0  0  0  0  0  0  0  0  0  0  0  0
  2  1  2  3
  3  2  1  0
  4  1  1  0
  5  4  1  0
  6  5  2  3
  7  6  1  0
  8  7  1  0
  9  8  1  0
 10  9  1  0
 11 10  1  0
 12 11  1  0
 13 12  2  3
 14 13  1  0
 15 14  2  0
 16  3  1  0
M  END
>  <ID>  (1) 
conformer_0

$$$$
