
     RDKit          3D

  9 10  0  0  0  0  0  0  0  0999 V2000
   17.4438   55.6054   24.4429 C   0  0  0  0  0  0  0  0  0  0  0  0
   17.2438   56.2054   25.7429 C   0  0  0  0  0  0  0  0  0  0  0  0
   16.4438   54.9054   23.7429 C   0  0  0  0  0  0  0  0  0  0  0  0
   17.1438   57.5054   26.2429 C   0  0  0  0  0  0  0  0  0  0  0  0
   18.3438   56.3054   23.5429 C   0  0  0  0  0  0  0  0  0  0  0  0
   18.5438   57.1054   26.0429 C   0  0  0  0  0  0  0  0  0  0  0  0
   16.8438   54.8054   22.3429 C   0  0  0  0  0  0  0  0  0  0  0  0
   18.1438   54.3054   22.0429 C   0  0  0  0  0  0  0  0  0  0  0  0
   18.9438   55.7054   22.3429 C   0  0  0  0  0  0  0  0  0  0  0  0
  2  1  1  0
  3  1  1  0
  4  2  1  0
  5  1  1  0
  6  2  1  0
  6  4  1  0
  7  3  1  0
  8  7  1  0
  9  5  1  0
  9  8  1  0
M  END
>  <ID>  (1) 
conformer_0

$$$$
