
     RDKit          3D

 14 13  0  0  0  0  0  0  0  0999 V2000
   17.4782   57.4213   25.7913 C   0  0  0  0  0  0  0  0  0  0  0  0
   17.2782   56.0213   25.4913 C   0  0  0  0  0  0  0  0  0  0  0  0
   16.8782   55.8213   24.0913 C   0  0  0  0  0  0  0  0  0  0  0  0
   17.4782   54.7213   23.3913 C   0  0  0  0  0  0  0  0  0  0  0  0
   18.2782   54.6213   22.2913 C   0  0  0  0  0  0  0  0  0  0  0  0
   19.1782   53.6213   22.0913 C   0  0  0  0  0  0  0  0  0  0  0  0
   19.8782   52.7213   21.3913 C   0  0  0  0  0  0  0  0  0  0  0  0
   19.7782   51.7213   20.3913 C   0  0  0  0  0  0  0  0  0  0  0  0
   20.4782   50.4213   20.4913 C   0  0  0  0  0  0  0  0  0  0  0  0
   21.8782   50.1213   20.2913 C   0  0  0  0  0  0  0  0  0  0  0  0
   22.1782   49.2213   19.1913 C   0  0  0  0  0  0  0  0  0  0  0  0
   23.3782   48.5213   18.8913 C   0  0  0  0  0  0  0  0  0  0  0  0
   23.6782   47.7213   17.8913 C   0  0  0  0  0  0  0  0  0  0  0  0
   24.6782   46.7213   18.2913 C   0  0  0  0  0  0  0  0  0  0  0  0
  2  1  1  0
  3  2  1  0
  4  3  1  0
  5  4  1  0
  6  5  2  0
  7  6  2  0
  8  7  1  0
  9  8  1  0
 10  9  1  0
 11 10  1  0
 12 11  2  3
 13 12  1  0
 14 13  1  0
M  END
>  <ID>  (1) 
conformer_0

$$$$
