
     RDKit          3D

  8  9  0  0  0  0  0  0  0  0999 V2000
   17.4450   55.5488   25.7203 C   0  0  0  0  0  0  0  0  0  0  0  0
   16.9450   55.6488   24.3203 C   0  0  0  0  0  0  0  0  0  0  0  0
   17.7449   55.0488   23.2203 C   0  0  0  0  0  0  0  0  0  0  0  0
   18.1449   55.8488   22.1203 C   0  0  0  0  0  0  0  0  0  0  0  0
   16.5450   56.9488   23.9203 C   0  0  0  0  0  0  0  0  0  0  0  0
   16.9450   54.8488   22.0203 C   0  0  0  0  0  0  0  0  0  0  0  0
   17.3449   56.9488   26.2203 C   0  0  0  0  0  0  0  0  0  0  0  0
   16.6450   57.9488   25.0203 C   0  0  0  0  0  0  0  0  0  0  0  0
  2  1  1  0
  3  2  1  0
  4  3  1  0
  5  2  1  0
  6  3  1  0
  6  4  1  0
  7  1  2  0
  8  5  2  0
  8  7  1  0
M  END
>  <ID>  (1) 
conformer_0

$$$$
