
     RDKit          3D

 15 14  0  0  0  0  0  0  0  0999 V2000
   22.4998   48.8936   18.9548 C   0  0  0  0  0  0  0  0  0  0  0  0
   22.0998   49.5936   20.1548 C   0  0  0  0  0  0  0  0  0  0  0  0
   23.7998   48.3936   18.6548 C   0  0  0  0  0  0  0  0  0  0  0  0
   20.7998   50.0936   20.3548 C   0  0  0  0  0  0  0  0  0  0  0  0
   23.8998   46.9936   18.1548 C   0  0  0  0  0  0  0  0  0  0  0  0
   20.3998   51.4936   20.6548 C   0  0  0  0  0  0  0  0  0  0  0  0
   19.3998   52.2936   20.0548 C   0  0  0  0  0  0  0  0  0  0  0  0
   18.3998   53.0936   20.7548 C   0  0  0  0  0  0  0  0  0  0  0  0
   18.5998   54.0936   21.7548 C   0  0  0  0  0  0  0  0  0  0  0  0
   17.7998   54.4936   22.8548 C   0  0  0  0  0  0  0  0  0  0  0  0
   16.5998   54.9936   23.1548 C   0  0  0  0  0  0  0  0  0  0  0  0
   16.3998   56.2936   23.7548 C   0  0  0  0  0  0  0  0  0  0  0  0
   17.5998   56.5936   24.5548 C   0  0  0  0  0  0  0  0  0  0  0  0
   17.1998   57.3936   25.7548 C   0  0  0  0  0  0  0  0  0  0  0  0
   18.1998   57.8936   26.6548 C   0  0  0  0  0  0  0  0  0  0  0  0
  2  1  2  3
  3  1  1  0
  4  2  1  0
  5  3  1  0
  6  4  1  0
  7  6  1  0
  8  7  1  0
  9  8  1  0
 10  9  1  0
 11 10  1  0
 12 11  1  0
 13 12  1  0
 14 13  1  0
 15 14  1  0
M  END
>  <ID>  (1) 
conformer_0

$$$$
