
     RDKit          3D

 16 16  0  0  0  0  0  0  0  0999 V2000
   22.4441   48.8053   19.3036 C   0  0  0  0  0  0  0  0  0  0  0  0
   22.1441   49.9053   20.2036 C   0  0  0  0  0  0  0  0  0  0  0  0
   20.8441   50.4053   20.5036 C   0  0  0  0  0  0  0  0  0  0  0  0
   20.1441   51.6053   20.2036 C   0  0  0  0  0  0  0  0  0  0  0  0
   19.8441   52.6053   21.2036 C   0  0  0  0  0  0  0  0  0  0  0  0
   18.5441   53.3053   21.2036 C   0  0  0  0  0  0  0  0  0  0  0  0
   18.4441   54.2053   22.3036 C   0  0  0  0  0  0  0  0  0  0  0  0
   17.4441   54.6053   23.1036 C   0  0  0  0  0  0  0  0  0  0  0  0
   17.2441   55.6053   24.0036 C   0  0  0  0  0  0  0  0  0  0  0  0
   16.8441   55.3053   25.4036 C   0  0  0  0  0  0  0  0  0  0  0  0
   16.8441   56.5053   26.2036 C   0  0  0  0  0  0  0  0  0  0  0  0
   23.5441   48.3053   18.7036 C   0  0  0  0  0  0  0  0  0  0  0  0
   23.6441   46.9053   18.3036 C   0  0  0  0  0  0  0  0  0  0  0  0
   17.8441   57.5053   26.2036 C   0  0  0  0  0  0  0  0  0  0  0  0
   24.7441   47.8053   18.6036 C   0  0  0  0  0  0  0  0  0  0  0  0
   25.9441   47.4053   18.9036 C   0  0  0  0  0  0  0  0  0  0  0  0
  2  1  2  3
  3  2  1  0
  4  3  1  0
  5  4  1  0
  6  5  1  0
  7  6  1  0
  8  7  2  3
  9  8  1  0
 10  9  1  0
 11 10  1  0
 12  1  1  0
 13 12  1  0
 14 11  1  0
 15 12  1  0
 15 13  1  0
 16 15  2  0
M  END
>  <ID>  (1) 
conformer_0

$$$$
