
     RDKit          3D

  8  8  0  0  0  0  0  0  0  0999 V2000
   17.4438   55.6054   24.4429 C   0  0  0  0  0  0  0  0  0  0  0  0
   16.4438   55.1054   23.4429 C   0  0  0  0  0  0  0  0  0  0  0  0
   16.9438   55.6054   25.8429 C   0  0  0  0  0  0  0  0  0  0  0  0
   16.8438   56.9054   26.5429 C   0  0  0  0  0  0  0  0  0  0  0  0
   15.6438   54.9054   25.9429 C   0  0  0  0  0  0  0  0  0  0  0  0
   18.1438   56.8054   24.0429 C   0  0  0  0  0  0  0  0  0  0  0  0
   18.0438   57.7054   26.4429 C   0  0  0  0  0  0  0  0  0  0  0  0
   18.8438   57.3054   25.2430 C   0  0  0  0  0  0  0  0  0  0  0  0
  2  1  1  0
  3  1  1  0
  4  3  1  0
  5  3  1  0
  6  1  1  0
  7  4  1  0
  8  6  1  0
  8  7  1  0
M  END
>  <ID>  (1) 
conformer_0

$$$$
