
     RDKit          3D

  5  5  0  0  0  0  0  0  0  0999 V2000
   17.4517   56.3628   24.7171 C   0  0  0  0  0  0  0  0  0  0  0  0
   16.8517   55.1628   25.3171 C   0  0  0  0  0  0  0  0  0  0  0  0
   17.6517   57.4628   25.7171 C   0  0  0  0  0  0  0  0  0  0  0  0
   16.8517   57.1628   26.8171 C   0  0  0  0  0  0  0  0  0  0  0  0
   16.1517   55.6628   26.5171 C   0  0  0  0  0  0  0  0  0  0  0  0
  2  1  1  0
  3  1  1  0
  4  3  1  0
  5  2  1  0
  5  4  1  0
M  END
>  <ID>  (1) 
conformer_0

$$$$
