
     RDKit          3D

  8  8  0  0  0  0  0  0  0  0999 V2000
   17.3339   56.0266   24.8335 C   0  0  0  0  0  0  0  0  0  0  0  0
   16.5339   55.6266   23.6335 C   0  0  0  0  0  0  0  0  0  0  0  0
   16.6339   57.0266   25.6335 C   0  0  0  0  0  0  0  0  0  0  0  0
   15.8339   57.7266   24.6335 C   0  0  0  0  0  0  0  0  0  0  0  0
   17.8339   56.5266   23.5335 C   0  0  0  0  0  0  0  0  0  0  0  0
   17.5339   57.7266   26.5335 C   0  0  0  0  0  0  0  0  0  0  0  0
   17.1339   58.0266   27.7335 O   0  0  0  0  0  0  0  0  0  0  0  0
   18.9339   57.3266   26.3335 C   0  0  0  0  0  0  0  0  0  0  0  0
  2  1  1  0
  3  1  1  0
  4  3  1  0
  5  1  1  0
  5  2  1  0
  6  3  1  0
  7  6  1  0
  8  6  1  0
M  END
>  <ID>  (1) 
conformer_0

$$$$
