
     RDKit          3D

 14 13  0  0  0  0  0  0  0  0999 V2000
   17.6373   56.3850   25.0759 C   0  0  0  0  0  0  0  0  0  0  0  0
   17.4373   57.5850   25.7759 C   0  0  0  0  0  0  0  0  0  0  0  0
   17.7373   56.3850   23.6759 C   0  0  0  0  0  0  0  0  0  0  0  0
   17.8373   55.0850   22.9759 C   0  0  0  0  0  0  0  0  0  0  0  0
   18.7373   54.8850   21.9759 C   0  0  0  0  0  0  0  0  0  0  0  0
   19.7373   53.9850   21.6759 C   0  0  0  0  0  0  0  0  0  0  0  0
   19.8373   52.5850   21.3759 C   0  0  0  0  0  0  0  0  0  0  0  0
   18.1373   57.7850   27.0759 C   0  0  0  0  0  0  0  0  0  0  0  0
   20.3373   52.0850   20.0759 C   0  0  0  0  0  0  0  0  0  0  0  0
   21.0373   50.7850   20.1759 C   0  0  0  0  0  0  0  0  0  0  0  0
   21.1373   49.6850   19.1759 C   0  0  0  0  0  0  0  0  0  0  0  0
   22.3373   48.8850   19.0759 C   0  0  0  0  0  0  0  0  0  0  0  0
   22.9373   48.2850   17.9759 C   0  0  0  0  0  0  0  0  0  0  0  0
   23.9373   47.2850   18.0759 C   0  0  0  0  0  0  0  0  0  0  0  0
  2  1  1  0
  3  1  2  3
  4  3  1  0
  5  4  1  0
  6  5  1  0
  7  6  1  0
  8  2  1  0
  9  7  1  0
 10  9  1  0
 11 10  1  0
 12 11  1  0
 13 12  2  3
 14 13  1  0
M  END
>  <ID>  (1) 
conformer_0

$$$$
