
     RDKit          3D

  4  3  0  0  0  0  0  0  0  0999 V2000
   17.6102   55.4613   24.8475 C   0  0  0  0  0  0  0  0  0  0  0  0
   17.0102   56.7613   24.9475 C   0  0  0  0  0  0  0  0  0  0  0  0
   17.1102   57.4613   26.2475 C   0  0  0  0  0  0  0  0  0  0  0  0
   16.1102   57.1613   23.8475 C   0  0  0  0  0  0  0  0  0  0  0  0
  2  1  1  0
  3  2  1  0
  4  2  1  0
M  END
>  <ID>  (1) 
conformer_0

$$$$
