
     RDKit          3D

 16 15  0  0  0  0  0  0  0  0999 V2000
   17.1663   56.7476   25.3081 C   0  0  0  0  0  0  0  0  0  0  0  0
   17.3663   57.5476   26.5081 C   0  0  0  0  0  0  0  0  0  0  0  0
   17.3663   55.4476   25.0081 C   0  0  0  0  0  0  0  0  0  0  0  0
   17.2663   54.9476   23.7081 C   0  0  0  0  0  0  0  0  0  0  0  0
   18.0663   54.4476   22.7081 C   0  0  0  0  0  0  0  0  0  0  0  0
   17.5663   54.2476   21.3081 C   0  0  0  0  0  0  0  0  0  0  0  0
   18.3663   53.2476   20.6081 C   0  0  0  0  0  0  0  0  0  0  0  0
   19.6663   53.0476   21.3081 C   0  0  0  0  0  0  0  0  0  0  0  0
   20.2663   51.8476   20.9081 C   0  0  0  0  0  0  0  0  0  0  0  0
   20.0663   51.1476   19.6081 C   0  0  0  0  0  0  0  0  0  0  0  0
   20.9663   50.0476   19.5081 C   0  0  0  0  0  0  0  0  0  0  0  0
   22.1663   49.8476   20.2081 C   0  0  0  0  0  0  0  0  0  0  0  0
   18.6663   57.9476   27.0081 C   0  0  0  0  0  0  0  0  0  0  0  0
   22.8663   48.7476   19.5081 C   0  0  0  0  0  0  0  0  0  0  0  0
   22.4663   48.6476   18.1081 C   0  0  0  0  0  0  0  0  0  0  0  0
   21.1663   48.2476   17.7081 C   0  0  0  0  0  0  0  0  0  0  0  0
  2  1  1  0
  3  1  2  3
  4  3  1  0
  5  4  2  3
  6  5  1  0
  7  6  1  0
  8  7  1  0
  9  8  1  0
 10  9  1  0
 11 10  1  0
 12 11  1  0
 13  2  1  0
 14 12  1  0
 15 14  1  0
 16 15  1  0
M  END
>  <ID>  (1) 
conformer_0

$$$$
