
     RDKit          3D

 16 15  0  0  0  0  0  0  0  0999 V2000
   17.1663   56.7476   25.3081 C   0  0  0  0  0  0  0  0  0  0  0  0
   17.2663   55.4476   24.8081 C   0  0  0  0  0  0  0  0  0  0  0  0
   16.4663   54.7476   23.8081 C   0  0  0  0  0  0  0  0  0  0  0  0
   17.3663   57.2476   26.6081 C   0  0  0  0  0  0  0  0  0  0  0  0
   17.1663   54.5476   22.5081 C   0  0  0  0  0  0  0  0  0  0  0  0
   18.5663   54.7476   22.5081 C   0  0  0  0  0  0  0  0  0  0  0  0
   19.3663   54.0476   21.5081 C   0  0  0  0  0  0  0  0  0  0  0  0
   19.9663   52.7476   21.5081 C   0  0  0  0  0  0  0  0  0  0  0  0
   20.0663   51.8476   20.4081 C   0  0  0  0  0  0  0  0  0  0  0  0
   20.5663   50.4476   20.5081 C   0  0  0  0  0  0  0  0  0  0  0  0
   21.9663   50.1476   20.3081 C   0  0  0  0  0  0  0  0  0  0  0  0
   22.5663   49.1476   19.6081 C   0  0  0  0  0  0  0  0  0  0  0  0
   22.5663   48.6476   18.3081 C   0  0  0  0  0  0  0  0  0  0  0  0
   23.6663   47.7476   17.9081 C   0  0  0  0  0  0  0  0  0  0  0  0
   24.1663   46.7476   18.8081 C   0  0  0  0  0  0  0  0  0  0  0  0
   16.4663   57.5476   27.7081 C   0  0  0  0  0  0  0  0  0  0  0  0
  2  1  1  0
  3  2  1  0
  4  1  1  0
  5  3  1  0
  6  5  1  0
  7  6  1  0
  8  7  1  0
  9  8  2  3
 10  9  1  0
 11 10  1  0
 12 11  1  0
 13 12  2  3
 14 13  1  0
 15 14  1  0
 16  4  1  0
M  END
>  <ID>  (1) 
conformer_0

$$$$
