
     RDKit          3D

  8  9  0  0  0  0  0  0  0  0999 V2000
   17.4450   55.5488   25.7203 C   0  0  0  0  0  0  0  0  0  0  0  0
   16.9450   55.6488   24.3203 C   0  0  0  0  0  0  0  0  0  0  0  0
   17.6450   54.8488   23.3203 C   0  0  0  0  0  0  0  0  0  0  0  0
   17.5450   55.3488   21.9203 C   0  0  0  0  0  0  0  0  0  0  0  0
   16.5450   56.9488   23.7203 C   0  0  0  0  0  0  0  0  0  0  0  0
   18.6450   55.7488   22.8203 C   0  0  0  0  0  0  0  0  0  0  0  0
   17.0450   56.8488   26.3203 C   0  0  0  0  0  0  0  0  0  0  0  0
   16.4450   57.6488   25.2203 C   0  0  0  0  0  0  0  0  0  0  0  0
  2  1  1  0
  3  2  1  0
  4  3  1  0
  5  2  1  0
  6  3  1  0
  6  4  1  0
  7  1  1  0
  8  5  1  0
  8  7  1  0
M  END
>  <ID>  (1) 
conformer_0

$$$$
