
     RDKit          3D

 16 15  0  0  0  0  0  0  0  0999 V2000
   22.4441   48.8053   19.3036 C   0  0  0  0  0  0  0  0  0  0  0  0
   22.1441   49.9053   20.2036 C   0  0  0  0  0  0  0  0  0  0  0  0
   20.8441   50.4053   20.5036 C   0  0  0  0  0  0  0  0  0  0  0  0
   20.1441   51.6053   20.2036 C   0  0  0  0  0  0  0  0  0  0  0  0
   19.8441   52.6053   21.2036 C   0  0  0  0  0  0  0  0  0  0  0  0
   18.5441   53.3053   21.2036 C   0  0  0  0  0  0  0  0  0  0  0  0
   18.4441   54.2053   22.3036 C   0  0  0  0  0  0  0  0  0  0  0  0
   17.1441   54.5053   22.9036 C   0  0  0  0  0  0  0  0  0  0  0  0
   17.1441   55.1053   24.2036 C   0  0  0  0  0  0  0  0  0  0  0  0
   16.7441   56.2053   24.8036 C   0  0  0  0  0  0  0  0  0  0  0  0
   17.5441   57.1053   25.5036 C   0  0  0  0  0  0  0  0  0  0  0  0
   17.4441   57.6053   26.8036 C   0  0  0  0  0  0  0  0  0  0  0  0
   23.6441   48.2053   18.8036 C   0  0  0  0  0  0  0  0  0  0  0  0
   23.6441   46.9053   18.1036 C   0  0  0  0  0  0  0  0  0  0  0  0
   18.3441   58.1053   27.7036 C   0  0  0  0  0  0  0  0  0  0  0  0
   25.0441   48.5053   19.0036 C   0  0  0  0  0  0  0  0  0  0  0  0
  2  1  2  3
  3  2  1  0
  4  3  1  0
  5  4  1  0
  6  5  1  0
  7  6  1  0
  8  7  2  3
  9  8  1  0
 10  9  1  0
 11 10  1  0
 12 11  1  0
 13  1  1  0
 14 13  1  0
 15 12  2  0
 16 13  1  0
M  END
>  <ID>  (1) 
conformer_0

$$$$
