
     RDKit          3D

  9  8  0  0  0  0  0  0  0  0999 V2000
   17.2016   55.7473   25.3544 C   0  0  0  0  0  0  0  0  0  0  0  0
   17.1016   57.1473   25.8544 C   0  0  0  0  0  0  0  0  0  0  0  0
   16.7016   55.7473   23.9544 C   0  0  0  0  0  0  0  0  0  0  0  0
   17.2016   54.5473   23.2544 C   0  0  0  0  0  0  0  0  0  0  0  0
   17.6016   54.6473   21.8544 C   0  0  0  0  0  0  0  0  0  0  0  0
   18.9016   54.0473   21.4544 C   0  0  0  0  0  0  0  0  0  0  0  0
   16.1016   57.8473   25.0544 C   0  0  0  0  0  0  0  0  0  0  0  0
   18.8016   53.3473   20.1544 C   0  0  0  0  0  0  0  0  0  0  0  0
   17.4016   53.1473   19.8544 C   0  0  0  0  0  0  0  0  0  0  0  0
  2  1  1  0
  3  1  1  0
  4  3  1  0
  5  4  1  0
  6  5  1  0
  7  2  1  0
  8  6  1  0
  9  8  1  0
M  END
>  <ID>  (1) 
conformer_0

$$$$
