
     RDKit          3D

  6  6  0  0  0  0  0  0  0  0999 V2000
   17.4450   55.5488   25.7203 C   0  0  0  0  0  0  0  0  0  0  0  0
   16.9450   55.6488   24.3203 C   0  0  0  0  0  0  0  0  0  0  0  0
   17.7449   55.0488   23.2203 C   0  0  0  0  0  0  0  0  0  0  0  0
   17.9450   55.6488   21.9203 C   0  0  0  0  0  0  0  0  0  0  0  0
   16.3449   56.9488   23.9203 C   0  0  0  0  0  0  0  0  0  0  0  0
   16.5450   55.1488   21.9203 C   0  0  0  0  0  0  0  0  0  0  0  0
  2  1  1  0
  3  2  1  0
  4  3  1  0
  5  2  1  0
  6  3  1  0
  6  4  1  0
M  END
>  <ID>  (1) 
conformer_0

$$$$
