
     RDKit          3D

 16 15  0  0  0  0  0  0  0  0999 V2000
   17.2016   55.7473   25.3544 C   0  0  0  0  0  0  0  0  0  0  0  0
   17.2016   55.1473   24.0544 C   0  0  0  0  0  0  0  0  0  0  0  0
   17.4016   57.1473   25.7544 C   0  0  0  0  0  0  0  0  0  0  0  0
   18.2016   55.6473   23.0544 C   0  0  0  0  0  0  0  0  0  0  0  0
   18.7016   54.6473   22.0544 C   0  0  0  0  0  0  0  0  0  0  0  0
   17.8016   53.9473   21.1544 C   0  0  0  0  0  0  0  0  0  0  0  0
   18.0016   52.8473   20.2544 C   0  0  0  0  0  0  0  0  0  0  0  0
   17.9016   57.5473   26.9544 C   0  0  0  0  0  0  0  0  0  0  0  0
   19.4016   52.3473   20.3544 C   0  0  0  0  0  0  0  0  0  0  0  0
   19.9016   51.1473   19.6544 C   0  0  0  0  0  0  0  0  0  0  0  0
   21.1016   50.6473   20.3544 C   0  0  0  0  0  0  0  0  0  0  0  0
   21.9016   49.5473   19.8544 C   0  0  0  0  0  0  0  0  0  0  0  0
   21.7016   49.0473   18.4544 C   0  0  0  0  0  0  0  0  0  0  0  0
   22.8016   48.0473   18.2544 C   0  0  0  0  0  0  0  0  0  0  0  0
   24.1016   48.1473   18.6544 C   0  0  0  0  0  0  0  0  0  0  0  0
   25.1016   47.0473   18.4544 C   0  0  0  0  0  0  0  0  0  0  0  0
  2  1  1  0
  3  1  1  0
  4  2  1  0
  5  4  1  0
  6  5  2  3
  7  6  1  0
  8  3  2  0
  9  7  1  0
 10  9  1  0
 11 10  1  0
 12 11  2  3
 13 12  1  0
 14 13  1  0
 15 14  2  3
 16 15  1  0
M  END
>  <ID>  (1) 
conformer_0

$$$$
