
     RDKit          3D

 16 15  0  0  0  0  0  0  0  0999 V2000
   22.4998   48.8936   18.9548 C   0  0  0  0  0  0  0  0  0  0  0  0
   22.0998   49.5936   20.1548 C   0  0  0  0  0  0  0  0  0  0  0  0
   21.1998   50.5936   20.0548 C   0  0  0  0  0  0  0  0  0  0  0  0
   19.7998   50.6936   20.4548 C   0  0  0  0  0  0  0  0  0  0  0  0
   23.2998   47.6936   18.9548 C   0  0  0  0  0  0  0  0  0  0  0  0
   24.5998   47.6936   18.4548 C   0  0  0  0  0  0  0  0  0  0  0  0
   19.3998   52.0936   20.5548 C   0  0  0  0  0  0  0  0  0  0  0  0
   19.7998   52.8936   21.7548 C   0  0  0  0  0  0  0  0  0  0  0  0
   18.9998   54.0936   21.9548 C   0  0  0  0  0  0  0  0  0  0  0  0
   18.0998   54.4936   22.9548 C   0  0  0  0  0  0  0  0  0  0  0  0
   17.6998   55.7936   23.3548 C   0  0  0  0  0  0  0  0  0  0  0  0
   16.6998   55.9936   24.3548 C   0  0  0  0  0  0  0  0  0  0  0  0
   16.8998   56.9936   25.3548 C   0  0  0  0  0  0  0  0  0  0  0  0
   16.8998   57.2936   26.6548 C   0  0  0  0  0  0  0  0  0  0  0  0
   17.7998   57.8936   27.5548 C   0  0  0  0  0  0  0  0  0  0  0  0
   25.1998   46.3936   18.6548 C   0  0  0  0  0  0  0  0  0  0  0  0
  2  1  2  3
  3  2  1  0
  4  3  1  0
  5  1  1  0
  6  5  1  0
  7  4  1  0
  8  7  1  0
  9  8  1  0
 10  9  1  0
 11 10  2  3
 12 11  1  0
 13 12  1  0
 14 13  1  0
 15 14  1  0
 16  6  1  0
M  END
>  <ID>  (1) 
conformer_0

$$$$
