
     RDKit          3D

 16 15  0  0  0  0  0  0  0  0999 V2000
   17.4517   56.3628   24.7171 C   0  0  0  0  0  0  0  0  0  0  0  0
   16.8517   55.1628   25.3171 C   0  0  0  0  0  0  0  0  0  0  0  0
   18.0517   56.1628   23.4171 C   0  0  0  0  0  0  0  0  0  0  0  0
   18.0517   54.7628   23.0171 C   0  0  0  0  0  0  0  0  0  0  0  0
   18.6517   54.3628   21.7171 C   0  0  0  0  0  0  0  0  0  0  0  0
   19.6517   53.2628   21.7171 C   0  0  0  0  0  0  0  0  0  0  0  0
   19.6517   52.2628   20.8171 C   0  0  0  0  0  0  0  0  0  0  0  0
   20.4517   51.0628   20.6171 C   0  0  0  0  0  0  0  0  0  0  0  0
   19.9517   49.7628   20.4171 C   0  0  0  0  0  0  0  0  0  0  0  0
   21.0517   48.7628   20.3171 C   0  0  0  0  0  0  0  0  0  0  0  0
   22.2517   49.3628   19.8171 C   0  0  0  0  0  0  0  0  0  0  0  0
   22.9517   48.7628   18.7171 C   0  0  0  0  0  0  0  0  0  0  0  0
   24.2517   48.1628   18.7171 C   0  0  0  0  0  0  0  0  0  0  0  0
   24.1517   46.8628   18.1171 C   0  0  0  0  0  0  0  0  0  0  0  0
   15.7517   55.3628   26.1171 C   0  0  0  0  0  0  0  0  0  0  0  0
   25.6517   48.4628   18.8171 C   0  0  0  0  0  0  0  0  0  0  0  0
  2  1  1  0
  3  1  1  0
  4  3  1  0
  5  4  1  0
  6  5  1  0
  7  6  2  3
  8  7  1  0
  9  8  1  0
 10  9  1  0
 11 10  1  0
 12 11  1  0
 13 12  1  0
 14 13  1  0
 15  2  2  0
 16 13  1  0
M  END
>  <ID>  (1) 
conformer_0

$$$$
