
     RDKit          3D

 16 15  0  0  0  0  0  0  0  0999 V2000
   22.4998   48.8936   18.9548 C   0  0  0  0  0  0  0  0  0  0  0  0
   22.0998   49.5936   20.1548 C   0  0  0  0  0  0  0  0  0  0  0  0
   23.7998   48.3936   18.6548 C   0  0  0  0  0  0  0  0  0  0  0  0
   20.7998   50.0936   20.3548 C   0  0  0  0  0  0  0  0  0  0  0  0
   23.8998   46.9936   18.1548 C   0  0  0  0  0  0  0  0  0  0  0  0
   20.4998   51.3936   20.8548 C   0  0  0  0  0  0  0  0  0  0  0  0
   19.3998   52.1936   20.2548 C   0  0  0  0  0  0  0  0  0  0  0  0
   19.1998   53.2936   21.2548 C   0  0  0  0  0  0  0  0  0  0  0  0
   17.8998   53.9936   21.0548 C   0  0  0  0  0  0  0  0  0  0  0  0
   17.3998   54.5936   22.2548 C   0  0  0  0  0  0  0  0  0  0  0  0
   16.0998   55.2936   22.4548 C   0  0  0  0  0  0  0  0  0  0  0  0
   16.2998   56.3936   23.3548 C   0  0  0  0  0  0  0  0  0  0  0  0
   17.5998   56.3936   23.9548 C   0  0  0  0  0  0  0  0  0  0  0  0
   17.9998   56.6936   25.3548 C   0  0  0  0  0  0  0  0  0  0  0  0
   17.1998   57.4936   26.2548 C   0  0  0  0  0  0  0  0  0  0  0  0
   18.0998   57.8936   27.3548 C   0  0  0  0  0  0  0  0  0  0  0  0
  2  1  2  3
  3  1  1  0
  4  2  1  0
  5  3  1  0
  6  4  1  0
  7  6  1  0
  8  7  1  0
  9  8  1  0
 10  9  1  0
 11 10  1  0
 12 11  1  0
 13 12  1  0
 14 13  1  0
 15 14  1  0
 16 15  1  0
M  END
>  <ID>  (1) 
conformer_0

$$$$
