
     RDKit          3D

  7  8  0  0  0  0  0  0  0  0999 V2000
   17.5368   55.8313   24.7975 C   0  0  0  0  0  0  0  0  0  0  0  0
   16.8368   56.9313   24.0975 C   0  0  0  0  0  0  0  0  0  0  0  0
   15.7368   57.6313   24.7975 C   0  0  0  0  0  0  0  0  0  0  0  0
   16.5368   54.9313   25.3975 C   0  0  0  0  0  0  0  0  0  0  0  0
   18.0368   57.1313   25.2975 C   0  0  0  0  0  0  0  0  0  0  0  0
   15.8368   55.6313   26.3975 C   0  0  0  0  0  0  0  0  0  0  0  0
   15.6368   57.1313   26.1975 C   0  0  0  0  0  0  0  0  0  0  0  0
  2  1  1  0
  3  2  1  0
  4  1  1  0
  5  1  1  0
  5  2  1  0
  6  4  1  0
  7  3  1  0
  7  6  1  0
M  END
>  <ID>  (1) 
conformer_0

$$$$
