
     RDKit          3D

 15 14  0  0  0  0  0  0  0  0999 V2000
   17.1663   56.7476   25.3081 C   0  0  0  0  0  0  0  0  0  0  0  0
   17.3663   57.5476   26.5081 C   0  0  0  0  0  0  0  0  0  0  0  0
   17.1663   55.3476   25.4081 C   0  0  0  0  0  0  0  0  0  0  0  0
   17.1663   54.8476   24.0081 C   0  0  0  0  0  0  0  0  0  0  0  0
   17.6663   55.8476   23.1081 C   0  0  0  0  0  0  0  0  0  0  0  0
   18.6663   55.3476   22.2081 C   0  0  0  0  0  0  0  0  0  0  0  0
   18.8663   53.9476   22.2081 C   0  0  0  0  0  0  0  0  0  0  0  0
   19.8663   53.0476   21.8081 C   0  0  0  0  0  0  0  0  0  0  0  0
   19.6663   52.0476   20.7081 C   0  0  0  0  0  0  0  0  0  0  0  0
   20.6663   50.9476   20.6081 C   0  0  0  0  0  0  0  0  0  0  0  0
   20.5663   50.1476   19.4081 C   0  0  0  0  0  0  0  0  0  0  0  0
   21.6663   49.3476   18.9081 C   0  0  0  0  0  0  0  0  0  0  0  0
   21.5663   48.6476   17.7081 C   0  0  0  0  0  0  0  0  0  0  0  0
   18.5663   57.9476   27.2081 C   0  0  0  0  0  0  0  0  0  0  0  0
   20.3663   49.0476   16.9081 C   0  0  0  0  0  0  0  0  0  0  0  0
  2  1  1  0
  3  1  1  0
  4  3  1  0
  5  4  1  0
  6  5  1  0
  7  6  2  3
  8  7  1  0
  9  8  2  3
 10  9  1  0
 11 10  1  0
 12 11  2  3
 13 12  1  0
 14  2  1  0
 15 13  1  0
M  END
>  <ID>  (1) 
conformer_0

$$$$
