
     RDKit          3D

 15 14  0  0  0  0  0  0  0  0999 V2000
   22.6995   48.9300   19.1244 C   0  0  0  0  0  0  0  0  0  0  0  0
   21.8995   49.6300   20.1244 C   0  0  0  0  0  0  0  0  0  0  0  0
   21.9995   48.8300   17.8244 C   0  0  0  0  0  0  0  0  0  0  0  0
   20.4995   49.7300   19.8244 C   0  0  0  0  0  0  0  0  0  0  0  0
   19.7995   51.0300   19.8244 C   0  0  0  0  0  0  0  0  0  0  0  0
   19.9995   52.0300   20.8244 C   0  0  0  0  0  0  0  0  0  0  0  0
   18.9995   53.1300   21.0244 C   0  0  0  0  0  0  0  0  0  0  0  0
   19.5995   54.2300   21.8244 C   0  0  0  0  0  0  0  0  0  0  0  0
   18.7995   55.2300   22.4244 C   0  0  0  0  0  0  0  0  0  0  0  0
   17.4995   54.7300   22.9244 C   0  0  0  0  0  0  0  0  0  0  0  0
   17.1995   55.1300   24.3244 C   0  0  0  0  0  0  0  0  0  0  0  0
   17.5995   56.4300   24.6244 C   0  0  0  0  0  0  0  0  0  0  0  0
   17.2995   57.1300   25.8244 C   0  0  0  0  0  0  0  0  0  0  0  0
   18.1995   57.8300   26.7244 C   0  0  0  0  0  0  0  0  0  0  0  0
   20.8995   48.0300   17.9244 C   0  0  0  0  0  0  0  0  0  0  0  0
  2  1  1  0
  3  1  1  0
  4  2  1  0
  5  4  1  0
  6  5  2  3
  7  6  1  0
  8  7  1  0
  9  8  1  0
 10  9  1  0
 11 10  1  0
 12 11  1  0
 13 12  1  0
 14 13  1  0
 15  3  1  0
M  END
>  <ID>  (1) 
conformer_0

$$$$
