
     RDKit          3D

 16 15  0  0  0  0  0  0  0  0999 V2000
   17.6373   56.3850   25.0759 C   0  0  0  0  0  0  0  0  0  0  0  0
   16.6373   56.4850   26.0759 C   0  0  0  0  0  0  0  0  0  0  0  0
   17.5373   55.9850   23.6759 C   0  0  0  0  0  0  0  0  0  0  0  0
   18.0373   54.8850   22.9759 C   0  0  0  0  0  0  0  0  0  0  0  0
   19.0373   55.0850   21.8759 C   0  0  0  0  0  0  0  0  0  0  0  0
   19.1373   53.9850   20.9759 C   0  0  0  0  0  0  0  0  0  0  0  0
   19.8373   52.7850   21.3759 C   0  0  0  0  0  0  0  0  0  0  0  0
   19.8373   51.5850   20.5759 C   0  0  0  0  0  0  0  0  0  0  0  0
   16.7373   57.4850   27.0759 C   0  0  0  0  0  0  0  0  0  0  0  0
   20.9373   50.5850   20.6759 C   0  0  0  0  0  0  0  0  0  0  0  0
   20.8373   49.1850   20.4759 C   0  0  0  0  0  0  0  0  0  0  0  0
   21.9373   48.3850   19.9759 C   0  0  0  0  0  0  0  0  0  0  0  0
   22.7373   48.7850   18.7759 C   0  0  0  0  0  0  0  0  0  0  0  0
   24.0373   48.1850   18.5759 C   0  0  0  0  0  0  0  0  0  0  0  0
   24.0373   46.7850   19.0759 C   0  0  0  0  0  0  0  0  0  0  0  0
   18.0373   57.9850   27.5759 C   0  0  0  0  0  0  0  0  0  0  0  0
  2  1  1  0
  3  1  1  0
  4  3  1  0
  5  4  1  0
  6  5  1  0
  7  6  2  3
  8  7  1  0
  9  2  1  0
 10  8  1  0
 11 10  1  0
 12 11  1  0
 13 12  2  3
 14 13  1  0
 15 14  1  0
 16  9  1  0
M  END
>  <ID>  (1) 
conformer_0

$$$$
