
     RDKit          3D

 13 13  0  0  0  0  0  0  0  0999 V2000
   17.1663   56.7476   25.3081 C   0  0  0  0  0  0  0  0  0  0  0  0
   17.3663   57.5476   26.5081 C   0  0  0  0  0  0  0  0  0  0  0  0
   17.1663   55.3476   25.4081 C   0  0  0  0  0  0  0  0  0  0  0  0
   16.7663   54.7476   24.1081 C   0  0  0  0  0  0  0  0  0  0  0  0
   17.7663   54.6476   23.1081 C   0  0  0  0  0  0  0  0  0  0  0  0
   17.5663   54.3476   21.7081 C   0  0  0  0  0  0  0  0  0  0  0  0
   18.6663   53.6476   21.1081 C   0  0  0  0  0  0  0  0  0  0  0  0
   18.3663   52.4476   20.3081 C   0  0  0  0  0  0  0  0  0  0  0  0
   19.4663   51.4476   20.2081 C   0  0  0  0  0  0  0  0  0  0  0  0
   18.7663   57.9476   26.8081 C   0  0  0  0  0  0  0  0  0  0  0  0
   19.7663   51.0476   18.8081 C   0  0  0  0  0  0  0  0  0  0  0  0
   19.0663   51.9476   17.9081 C   0  0  0  0  0  0  0  0  0  0  0  0
   18.4663   53.0476   18.7081 C   0  0  0  0  0  0  0  0  0  0  0  0
  2  1  1  0
  3  1  1  0
  4  3  1  0
  5  4  2  3
  6  5  1  0
  7  6  1  0
  8  7  1  0
  9  8  1  0
 10  2  1  0
 11  9  1  0
 12 11  1  0
 13  8  1  0
 13 12  1  0
M  END
>  <ID>  (1) 
conformer_0

$$$$
