
     RDKit          3D

 16 15  0  0  0  0  0  0  0  0999 V2000
   17.1663   56.7476   25.3081 C   0  0  0  0  0  0  0  0  0  0  0  0
   17.2663   55.4476   24.8081 C   0  0  0  0  0  0  0  0  0  0  0  0
   16.4663   54.7476   23.8081 C   0  0  0  0  0  0  0  0  0  0  0  0
   17.2663   57.0476   26.7081 C   0  0  0  0  0  0  0  0  0  0  0  0
   17.0663   54.5476   22.5081 C   0  0  0  0  0  0  0  0  0  0  0  0
   18.4663   54.6476   22.5081 C   0  0  0  0  0  0  0  0  0  0  0  0
   19.2663   53.5476   22.0081 C   0  0  0  0  0  0  0  0  0  0  0  0
   18.6663   52.9476   20.8081 C   0  0  0  0  0  0  0  0  0  0  0  0
   19.1663   51.7476   20.2081 C   0  0  0  0  0  0  0  0  0  0  0  0
   20.4663   51.2476   20.7081 C   0  0  0  0  0  0  0  0  0  0  0  0
   17.9663   57.8476   27.5081 C   0  0  0  0  0  0  0  0  0  0  0  0
   20.7663   49.8476   20.5081 C   0  0  0  0  0  0  0  0  0  0  0  0
   22.0663   49.2476   20.1081 C   0  0  0  0  0  0  0  0  0  0  0  0
   22.2663   48.7476   18.7081 C   0  0  0  0  0  0  0  0  0  0  0  0
   23.5663   48.2476   18.3081 C   0  0  0  0  0  0  0  0  0  0  0  0
   23.6663   46.8476   18.0081 C   0  0  0  0  0  0  0  0  0  0  0  0
  2  1  1  0
  3  2  1  0
  4  1  1  0
  5  3  1  0
  6  5  1  0
  7  6  1  0
  8  7  1  0
  9  8  2  3
 10  9  1  0
 11  4  2  0
 12 10  1  0
 13 12  1  0
 14 13  2  3
 15 14  1  0
 16 15  1  0
M  END
>  <ID>  (1) 
conformer_0

$$$$
