
     RDKit          3D

 11 14  0  0  0  0  0  0  0  0999 V2000
   17.4782   57.4213   25.7913 C   0  0  0  0  0  0  0  0  0  0  0  0
   17.3782   56.3213   24.7913 C   0  0  0  0  0  0  0  0  0  0  0  0
   16.5782   56.5213   23.5913 C   0  0  0  0  0  0  0  0  0  0  0  0
   16.2782   55.2213   22.9913 C   0  0  0  0  0  0  0  0  0  0  0  0
   16.8782   55.1213   25.3913 C   0  0  0  0  0  0  0  0  0  0  0  0
   17.3782   54.4213   23.0913 C   0  0  0  0  0  0  0  0  0  0  0  0
   16.3782   54.5213   24.1913 N   0  0  0  0  0  0  0  0  0  0  0  0
   17.9782   56.6213   23.6913 C   0  0  0  0  0  0  0  0  0  0  0  0
   16.7782   57.4213   26.8913 C   0  0  0  0  0  0  0  0  0  0  0  0
   16.8782   58.4213   25.7913 O   0  0  0  0  0  0  0  0  0  0  0  0
   15.9782   55.1213   26.2913 O   0  0  0  0  0  0  0  0  0  0  0  0
  2  1  1  0
  3  2  1  0
  4  3  1  0
  5  2  1  0
  6  4  1  0
  7  4  1  0
  7  5  1  0
  7  6  1  0
  8  2  1  0
  8  3  1  0
  9  1  1  0
 10  1  1  0
 10  9  1  0
 11  5  1  0
M  END
>  <ID>  (1) 
conformer_0

$$$$
