
     RDKit          3D

 14 13  0  0  0  0  0  0  0  0999 V2000
   17.2104   55.8577   25.2525 C   0  0  0  0  0  0  0  0  0  0  0  0
   17.2104   57.2577   25.6525 C   0  0  0  0  0  0  0  0  0  0  0  0
   17.7104   57.6577   26.9525 C   0  0  0  0  0  0  0  0  0  0  0  0
   16.5104   55.7577   23.9525 C   0  0  0  0  0  0  0  0  0  0  0  0
   16.9104   54.5577   23.1525 C   0  0  0  0  0  0  0  0  0  0  0  0
   18.0104   54.6577   22.2525 C   0  0  0  0  0  0  0  0  0  0  0  0
   18.4104   53.5577   21.3525 C   0  0  0  0  0  0  0  0  0  0  0  0
   19.8104   53.1577   21.6525 C   0  0  0  0  0  0  0  0  0  0  0  0
   20.2104   51.8577   21.0525 C   0  0  0  0  0  0  0  0  0  0  0  0
   19.2104   51.3577   20.0525 C   0  0  0  0  0  0  0  0  0  0  0  0
   18.9104   58.2577   27.3525 C   0  0  0  0  0  0  0  0  0  0  0  0
   19.6104   50.9577   18.7525 C   0  0  0  0  0  0  0  0  0  0  0  0
   20.3104   49.7577   18.3525 C   0  0  0  0  0  0  0  0  0  0  0  0
   20.9104   49.1577   17.3525 C   0  0  0  0  0  0  0  0  0  0  0  0
  2  1  1  0
  3  2  1  0
  4  1  1  0
  5  4  1  0
  6  5  2  3
  7  6  1  0
  8  7  1  0
  9  8  1  0
 10  9  1  0
 11  3  1  0
 12 10  1  0
 13 12  1  0
 14 13  2  0
M  END
>  <ID>  (1) 
conformer_0

$$$$
