
     RDKit          3D

  6  5  0  0  0  0  0  0  0  0999 V2000
   17.6102   55.4613   24.8475 C   0  0  0  0  0  0  0  0  0  0  0  0
   17.0102   56.7613   24.9475 C   0  0  0  0  0  0  0  0  0  0  0  0
   17.4102   57.5613   26.0475 C   0  0  0  0  0  0  0  0  0  0  0  0
   16.1102   57.2613   23.9475 C   0  0  0  0  0  0  0  0  0  0  0  0
   18.1102   58.4613   26.1475 O   0  0  0  0  0  0  0  0  0  0  0  0
   16.3102   57.8613   26.9475 N   0  0  0  0  0  0  0  0  0  0  0  0
  2  1  1  0
  3  2  1  0
  4  2  1  0
  5  3  2  0
  6  3  1  0
M  END
>  <ID>  (1) 
conformer_0

$$$$
