
     RDKit          3D

 14 13  0  0  0  0  0  0  0  0999 V2000
   22.4441   48.8053   19.3036 C   0  0  0  0  0  0  0  0  0  0  0  0
   22.1441   49.9053   20.2036 C   0  0  0  0  0  0  0  0  0  0  0  0
   20.8441   50.4053   20.5036 C   0  0  0  0  0  0  0  0  0  0  0  0
   20.1441   51.6053   20.2036 C   0  0  0  0  0  0  0  0  0  0  0  0
   19.8441   52.6053   21.2036 C   0  0  0  0  0  0  0  0  0  0  0  0
   18.5441   53.3053   21.2036 C   0  0  0  0  0  0  0  0  0  0  0  0
   18.3441   54.1053   22.4036 C   0  0  0  0  0  0  0  0  0  0  0  0
   17.1441   54.8053   22.7036 C   0  0  0  0  0  0  0  0  0  0  0  0
   16.6441   55.0053   24.0036 C   0  0  0  0  0  0  0  0  0  0  0  0
   16.5441   56.3053   24.6036 C   0  0  0  0  0  0  0  0  0  0  0  0
   23.5441   48.4053   18.6036 C   0  0  0  0  0  0  0  0  0  0  0  0
   23.6441   47.0053   18.1036 C   0  0  0  0  0  0  0  0  0  0  0  0
   16.7441   56.7053   26.0036 C   0  0  0  0  0  0  0  0  0  0  0  0
   18.0441   57.2053   26.2036 C   0  0  0  0  0  0  0  0  0  0  0  0
  2  1  1  0
  3  2  1  0
  4  3  1  0
  5  4  1  0
  6  5  1  0
  7  6  1  0
  8  7  1  0
  9  8  1  0
 10  9  1  0
 11  1  2  3
 12 11  1  0
 13 10  1  0
 14 13  1  0
M  END
>  <ID>  (1) 
conformer_0

$$$$
