
     RDKit          3D

  7  6  0  0  0  0  0  0  0  0999 V2000
  134.3330   53.9378   33.5431 C   0  0  0  0  0  0  0  0  0  0  0  0
  133.5185   53.4932   33.4084 C   0  0  0  0  0  0  0  0  0  0  0  0
  136.7691   54.2250   32.8036 C   0  0  0  0  0  0  0  0  0  0  0  0
  135.5881   53.9094   30.7443 O   0  0  0  0  0  0  0  0  0  0  0  0
  130.2170   51.5853   32.5318 C   0  0  0  0  0  0  0  0  0  0  0  0
  132.2543   52.7387   33.2659 C   0  0  0  0  0  0  0  0  0  0  0  0
  135.5687   53.5992   32.0628 C   0  0  0  0  0  0  0  0  0  0  0  0
  2  1  1  0
  6  2  3  0
  6  5  1  0
  7  1  1  0
  7  3  1  0
  7  4  1  0
M  END
>  <ID>  (1) 
conformer_0

$$$$
