
     RDKit          3D

 11 10  0  0  0  0  0  0  0  0999 V2000
  134.4276   53.2758   33.5412 C   0  0  0  0  0  0  0  0  0  0  0  0
  135.8669   54.2291   33.4153 C   0  0  0  0  0  0  0  0  0  0  0  0
  133.3169   53.7785   33.4343 C   0  0  0  0  0  0  0  0  0  0  0  0
  129.3320   51.2512   32.3821 C   0  0  0  0  0  0  0  0  0  0  0  0
  137.1777   52.7527   32.1113 O   0  0  0  0  0  0  0  0  0  0  0  0
  130.2588   51.8795   32.5714 N   0  0  0  0  0  0  0  0  0  0  0  0
  135.7594   54.2931   31.2202 O   0  0  0  0  0  0  0  0  0  0  0  0
  136.1204   55.2197   33.5611 N   0  0  0  0  0  0  0  0  0  0  0  0
  132.2911   52.7405   33.1385 C   0  0  0  0  0  0  0  0  0  0  0  0
  131.2984   52.1308   32.7334 C   0  0  0  0  0  0  0  0  0  0  0  0
  136.3684   53.6723   32.0381 C   0  0  0  0  0  0  0  0  0  0  0  0
  2  1  1  0
  3  1  1  0
  6  4  1  0
  8  2  1  0
  9  3  1  0
 10  6  1  0
 10  9  3  0
 11  2  1  0
 11  5  1  0
 11  7  2  0
M  END
>  <ID>  (1) 
conformer_0

$$$$
