
     RDKit          3D

  7  6  0  0  0  0  0  0  0  0999 V2000
  134.5757   53.5690   33.7372 C   0  0  0  0  0  0  0  0  0  0  0  0
  135.9310   54.0954   32.5919 C   0  0  0  0  0  0  0  0  0  0  0  0
  133.5460   53.5062   33.3766 C   0  0  0  0  0  0  0  0  0  0  0  0
  135.6732   54.0005   30.9900 O   0  0  0  0  0  0  0  0  0  0  0  0
  130.6944   51.8400   32.6370 C   0  0  0  0  0  0  0  0  0  0  0  0
  130.4733   52.1759   32.5985 N   0  0  0  0  0  0  0  0  0  0  0  0
  132.4392   52.5838   33.2296 C   0  0  0  0  0  0  0  0  0  0  0  0
  2  1  1  0
  3  1  1  0
  4  2  1  0
  6  5  1  0
  7  3  1  0
  7  5  1  0
M  END
>  <ID>  (1) 
conformer_0

$$$$
