
     RDKit          3D

  8  7  0  0  0  0  0  0  0  0999 V2000
  133.4076   53.3828   33.4488 C   0  0  0  0  0  0  0  0  0  0  0  0
  132.2133   52.7326   33.1892 C   0  0  0  0  0  0  0  0  0  0  0  0
  136.2543   53.7690   32.7312 C   0  0  0  0  0  0  0  0  0  0  0  0
  130.1378   51.8854   32.3613 C   0  0  0  0  0  0  0  0  0  0  0  0
  136.5882   53.9692   32.6619 N   0  0  0  0  0  0  0  0  0  0  0  0
  135.6338   54.0933   31.1913 O   0  0  0  0  0  0  0  0  0  0  0  0
  130.2964   52.2165   32.3453 O   0  0  0  0  0  0  0  0  0  0  0  0
  134.7597   53.1417   33.7592 C   0  0  0  0  0  0  0  0  0  0  0  0
  2  1  1  0
  5  3  1  0
  6  3  2  0
  7  2  1  0
  7  4  1  0
  8  1  1  0
  8  3  1  0
M  END
>  <ID>  (1) 
conformer_0

$$$$
