
     RDKit          3D

  7  6  0  0  0  0  0  0  0  0999 V2000
  134.0913   53.3564   33.6883 C   0  0  0  0  0  0  0  0  0  0  0  0
  135.9321   53.8603   32.8197 C   0  0  0  0  0  0  0  0  0  0  0  0
  133.0475   53.8573   33.0845 C   0  0  0  0  0  0  0  0  0  0  0  0
  130.0226   51.6106   32.5082 C   0  0  0  0  0  0  0  0  0  0  0  0
  136.7842   52.7465   31.8914 O   0  0  0  0  0  0  0  0  0  0  0  0
  135.3140   54.4459   31.4663 O   0  0  0  0  0  0  0  0  0  0  0  0
  132.1409   52.4890   33.1732 C   0  0  0  0  0  0  0  0  0  0  0  0
  2  1  1  0
  3  1  1  0
  5  2  1  0
  6  2  1  0
  7  3  1  0
  7  4  1  0
M  END
>  <ID>  (1) 
conformer_0

$$$$
