
     RDKit          3D

 10  9  0  0  0  0  0  0  0  0999 V2000
  133.2602   53.9700   33.2743 C   0  0  0  0  0  0  0  0  0  0  0  0
  135.3972   53.7131   33.1392 C   0  0  0  0  0  0  0  0  0  0  0  0
  130.1539   52.5744   32.0177 N   0  0  0  0  0  0  0  0  0  0  0  0
  131.4796   52.6477   32.5252 C   0  0  0  0  0  0  0  0  0  0  0  0
  132.3291   53.1050   33.0595 C   0  0  0  0  0  0  0  0  0  0  0  0
  137.0422   52.8684   31.7956 O   0  0  0  0  0  0  0  0  0  0  0  0
  136.0816   53.9814   32.9413 N   0  0  0  0  0  0  0  0  0  0  0  0
  137.0811   54.3287   32.8884 C   0  0  0  0  0  0  0  0  0  0  0  0
  129.3870   51.6820   32.2149 C   0  0  0  0  0  0  0  0  0  0  0  0
  134.6813   52.8000   33.4944 C   0  0  0  0  0  0  0  0  0  0  0  0
  4  3  1  0
  5  1  1  0
  5  4  3  0
  7  2  1  0
  8  6  1  0
  8  7  1  0
  9  3  1  0
 10  1  1  0
 10  2  1  0
M  END
>  <ID>  (1) 
conformer_0

$$$$
