
     RDKit          3D

 10  9  0  0  0  0  0  0  0  0999 V2000
  131.9775   52.5810   33.0501 C   0  0  0  0  0  0  0  0  0  0  0  0
  133.1310   53.1048   33.3195 C   0  0  0  0  0  0  0  0  0  0  0  0
  136.7710   53.5113   32.0796 C   0  0  0  0  0  0  0  0  0  0  0  0
  129.9213   51.8346   32.2541 C   0  0  0  0  0  0  0  0  0  0  0  0
  135.3732   54.2870   31.1598 O   0  0  0  0  0  0  0  0  0  0  0  0
  136.7975   52.1048   31.8635 O   0  0  0  0  0  0  0  0  0  0  0  0
  129.8165   52.5743   32.2168 N   0  0  0  0  0  0  0  0  0  0  0  0
  134.4964   53.1633   33.5903 C   0  0  0  0  0  0  0  0  0  0  0  0
  135.2081   54.3406   33.0226 C   0  0  0  0  0  0  0  0  0  0  0  0
  136.5879   53.0227   32.0640 N   0  0  0  0  0  0  0  0  0  0  0  0
  2  1  3  0
  4  1  1  0
  5  3  1  0
  7  4  1  0
  8  2  1  0
  9  5  1  0
  9  8  1  0
 10  3  1  0
 10  6  1  0
M  END
>  <ID>  (1) 
conformer_0

$$$$
