
     RDKit          3D

 11 10  0  0  0  0  0  0  0  0999 V2000
  133.0573   53.7212   33.0468 C   0  0  0  0  0  0  0  0  0  0  0  0
  134.3526   53.7937   33.5003 C   0  0  0  0  0  0  0  0  0  0  0  0
  135.3943   53.8949   31.7303 C   0  0  0  0  0  0  0  0  0  0  0  0
  129.4160   51.2766   32.3858 C   0  0  0  0  0  0  0  0  0  0  0  0
  137.3407   53.3638   31.7515 O   0  0  0  0  0  0  0  0  0  0  0  0
  135.4463   54.2599   31.0309 O   0  0  0  0  0  0  0  0  0  0  0  0
  130.4484   52.0806   32.7528 N   0  0  0  0  0  0  0  0  0  0  0  0
  135.3909   53.0129   33.7425 C   0  0  0  0  0  0  0  0  0  0  0  0
  131.4578   52.1571   32.8169 C   0  0  0  0  0  0  0  0  0  0  0  0
  132.3950   52.6158   33.2554 C   0  0  0  0  0  0  0  0  0  0  0  0
  136.6445   53.9004   32.7827 C   0  0  2  0  0  0  0  0  0  0  0  0
  2  1  1  0
  6  3  2  0
  7  4  1  0
  8  2  1  0
  9  7  1  0
 10  1  2  3
 10  9  1  0
 11  3  1  0
 11  5  1  6
 11  8  1  0
M  END
>  <ID>  (1) 
conformer_0

$$$$
