
     RDKit          3D

  7  6  0  0  0  0  0  0  0  0999 V2000
  133.4429   53.4710   33.2784 C   0  0  0  0  0  0  0  0  0  0  0  0
  134.4227   53.8537   33.4464 C   0  0  0  0  0  0  0  0  0  0  0  0
  136.1350   53.9835   32.5186 C   0  0  0  0  0  0  0  0  0  0  0  0
  129.8442   51.3967   32.5947 C   0  0  0  0  0  0  0  0  0  0  0  0
  135.8107   54.2851   30.9184 O   0  0  0  0  0  0  0  0  0  0  0  0
  136.7201   52.4388   31.5004 O   0  0  0  0  0  0  0  0  0  0  0  0
  132.0945   52.5834   33.0554 C   0  0  0  0  0  0  0  0  0  0  0  0
  2  1  1  0
  3  2  1  0
  5  3  1  0
  6  3  1  0
  7  1  3  0
  7  4  1  0
M  END
>  <ID>  (1) 
conformer_0

$$$$
