
     RDKit          3D

 11 10  0  0  0  0  0  0  0  0999 V2000
  134.3492   54.4977   33.3373 C   0  0  0  0  0  0  0  0  0  0  0  0
  135.2352   54.0291   33.1311 C   0  0  0  0  0  0  0  0  0  0  0  0
  132.1856   52.3545   33.1379 C   0  0  0  0  0  0  0  0  0  0  0  0
  136.9566   52.6539   31.9670 O   0  0  0  0  0  0  0  0  0  0  0  0
  135.5674   54.0620   31.0949 O   0  0  0  0  0  0  0  0  0  0  0  0
  131.5735   52.2081   32.6925 C   0  0  0  0  0  0  0  0  0  0  0  0
  130.0720   52.1978   32.3936 N   0  0  0  0  0  0  0  0  0  0  0  0
  134.4955   52.7535   33.5337 C   0  0  0  0  0  0  0  0  0  0  0  0
  132.7630   53.6686   33.0410 C   0  0  0  0  0  0  0  0  0  0  0  0
  129.4843   51.3958   32.5139 C   0  0  0  0  0  0  0  0  0  0  0  0
  136.1381   53.2848   31.9073 C   0  0  0  0  0  0  0  0  0  0  0  0
  2  1  1  0
  6  3  1  0
  7  6  1  0
  8  2  1  0
  9  1  1  0
  9  3  1  0
 10  7  1  0
 11  2  1  0
 11  4  1  0
 11  5  2  0
M  END
>  <ID>  (1) 
conformer_0

$$$$
