
     RDKit          3D

  8  7  0  0  0  0  0  0  0  0999 V2000
  133.1589   53.4156   33.3368 C   0  0  0  0  0  0  0  0  0  0  0  0
  134.4147   53.5265   33.7070 C   0  0  0  0  0  0  0  0  0  0  0  0
  136.1563   53.6550   32.8127 C   0  0  0  0  0  0  0  0  0  0  0  0
  130.4185   52.0877   32.3419 C   0  0  0  0  0  0  0  0  0  0  0  0
  137.0365   52.5665   32.1070 O   0  0  0  0  0  0  0  0  0  0  0  0
  135.9031   54.3687   31.9861 O   0  0  0  0  0  0  0  0  0  0  0  0
  130.2973   51.7837   32.5305 N   0  0  0  0  0  0  0  0  0  0  0  0
  131.8872   53.0961   32.7923 C   0  0  0  0  0  0  0  0  0  0  0  0
  2  1  1  0
  3  2  1  0
  5  3  1  0
  6  3  1  0
  7  4  1  0
  8  1  3  0
  8  4  1  0
M  END
>  <ID>  (1) 
conformer_0

$$$$
