
     RDKit          3D

 12 13  0  0  0  0  0  0  0  0999 V2000
  133.2072   54.2446   33.1833 C   0  0  0  0  0  0  0  0  0  0  0  0
  136.6417   53.4291   31.8366 C   0  0  0  0  0  0  0  0  0  0  0  0
  132.1366   52.7706   33.0915 C   0  0  0  0  0  0  0  0  0  0  0  0
  131.2679   52.4589   32.5593 C   0  0  0  0  0  0  0  0  0  0  0  0
  130.2188   52.3511   32.4840 N   0  0  0  0  0  0  0  0  0  0  0  0
  136.7464   54.8570   33.8315 N   0  0  0  0  0  0  0  0  0  0  0  0
  136.1163   53.6553   31.0951 O   0  0  0  0  0  0  0  0  0  0  0  0
  134.9935   53.7268   33.5292 C   0  0  0  0  0  0  0  0  0  0  0  0
  136.8545   52.6388   32.2114 O   0  0  0  0  0  0  0  0  0  0  0  0
  129.4249   51.2806   32.3657 C   0  0  0  0  0  0  0  0  0  0  0  0
  136.0662   54.2945   33.1808 C   0  0  0  0  0  0  0  0  0  0  0  0
  133.7360   52.8264   33.5878 C   0  0  0  0  0  0  0  0  0  0  0  0
  3  1  1  0
  4  3  1  0
  5  4  1  0
  7  2  1  0
  8  1  1  0
  9  2  1  0
 10  5  1  0
 11  2  1  0
 11  6  1  0
 11  8  1  0
 12  1  1  0
 12  3  1  0
 12  8  1  0
M  END
>  <ID>  (1) 
conformer_0

$$$$
