
     RDKit          3D

 10 10  0  0  0  0  0  0  0  0999 V2000
  133.3315   54.0739   32.9747 C   0  0  0  0  0  0  0  0  0  0  0  0
  135.5924   53.8912   33.7773 C   0  0  0  0  0  0  0  0  0  0  0  0
  131.5658   52.4049   32.7708 C   0  0  0  0  0  0  0  0  0  0  0  0
  136.0239   54.3949   30.9846 O   0  0  0  0  0  0  0  0  0  0  0  0
  132.4712   52.9100   33.0077 C   0  0  0  0  0  0  0  0  0  0  0  0
  130.5595   52.6608   32.5066 N   0  0  0  0  0  0  0  0  0  0  0  0
  135.9867   53.7773   33.0837 N   0  0  0  0  0  0  0  0  0  0  0  0
  136.5728   53.6584   32.1599 C   0  0  0  0  0  0  0  0  0  0  0  0
  129.5895   51.5403   32.4034 C   0  0  0  0  0  0  0  0  0  0  0  0
  134.0984   53.2799   33.9170 C   0  0  0  0  0  0  0  0  0  0  0  0
  5  1  1  0
  5  3  1  0
  6  3  1  0
  7  2  1  0
  8  4  1  0
  8  7  1  0
  9  6  1  0
 10  1  1  0
 10  2  1  0
 10  5  1  0
M  END
>  <ID>  (1) 
conformer_0

$$$$
