
     RDKit          3D

  9  8  0  0  0  0  0  0  0  0999 V2000
  134.6875   53.2908   33.6495 C   0  0  0  0  0  0  0  0  0  0  0  0
  133.3606   53.8245   33.1421 C   0  0  0  0  0  0  0  0  0  0  0  0
  136.0290   54.1013   32.9606 C   0  0  0  0  0  0  0  0  0  0  0  0
  131.4903   52.4349   32.6245 C   0  0  0  0  0  0  0  0  0  0  0  0
  136.6741   53.0131   31.9718 O   0  0  0  0  0  0  0  0  0  0  0  0
  130.2512   52.3899   32.1986 N   0  0  0  0  0  0  0  0  0  0  0  0
  136.5204   54.9284   33.9000 N   0  0  0  0  0  0  0  0  0  0  0  0
  132.5011   52.7259   33.1518 C   0  0  0  0  0  0  0  0  0  0  0  0
  129.6641   51.2217   32.4773 C   0  0  0  0  0  0  0  0  0  0  0  0
  2  1  1  0
  3  1  1  0
  5  3  1  0
  6  4  1  0
  7  3  1  0
  8  2  1  0
  8  4  1  0
  9  6  1  0
M  END
>  <ID>  (1) 
conformer_0

$$$$
