
     RDKit          3D

  9  8  0  0  0  0  0  0  0  0999 V2000
  132.5020   52.7245   33.2136 C   0  0  0  0  0  0  0  0  0  0  0  0
  133.5632   53.6542   33.1347 C   0  0  0  0  0  0  0  0  0  0  0  0
  136.0794   53.8959   32.3589 C   0  0  0  0  0  0  0  0  0  0  0  0
  129.3215   51.2556   32.4732 C   0  0  0  0  0  0  0  0  0  0  0  0
  135.6533   54.1786   30.9763 O   0  0  0  0  0  0  0  0  0  0  0  0
  136.8480   52.9634   31.7178 N   0  0  0  0  0  0  0  0  0  0  0  0
  136.4423   54.9074   33.8942 N   0  0  0  0  0  0  0  0  0  0  0  0
  134.6651   53.2456   33.3968 C   0  0  0  0  0  0  0  0  0  0  0  0
  131.2934   52.3321   32.6493 C   0  0  0  0  0  0  0  0  0  0  0  0
  2  1  1  0
  5  3  1  0
  6  3  1  0
  7  3  1  0
  8  2  1  0
  8  3  1  0
  9  1  1  0
  9  4  1  0
M  END
>  <ID>  (1) 
conformer_0

$$$$
