
     RDKit          3D

 10 10  0  0  0  0  0  0  0  0999 V2000
  132.3719   53.5077   32.9924 C   0  0  0  0  0  0  0  0  0  0  0  0
  131.6697   52.3574   32.8933 C   0  0  0  0  0  0  0  0  0  0  0  0
  135.4458   53.5305   32.8519 C   0  0  0  0  0  0  0  0  0  0  0  0
  130.0667   51.7177   32.4502 C   0  0  0  0  0  0  0  0  0  0  0  0
  136.8715   52.5172   32.1205 O   0  0  0  0  0  0  0  0  0  0  0  0
  135.4393   54.6414   31.6590 O   0  0  0  0  0  0  0  0  0  0  0  0
  133.6744   52.8470   33.4836 C   0  0  0  0  0  0  0  0  0  0  0  0
  129.6647   52.1355   32.2759 N   0  0  0  0  0  0  0  0  0  0  0  0
  134.7214   53.8822   33.6954 C   0  0  0  0  0  0  0  0  0  0  0  0
  136.9024   53.9884   32.3636 C   0  0  0  0  0  0  0  0  0  0  0  0
  2  1  1  0
  4  2  1  0
  6  3  1  0
  7  1  1  0
  8  4  1  0
  9  3  1  0
  9  7  1  0
 10  3  1  0
 10  5  1  0
 10  6  1  0
M  END
>  <ID>  (1) 
conformer_0

$$$$
