
     RDKit          3D

 12 14  0  0  0  0  0  0  0  0999 V2000
  134.5335   53.1538   33.6997 C   0  0  0  0  0  0  0  0  0  0  0  0
  134.1146   54.4927   33.5667 C   0  0  0  0  0  0  0  0  0  0  0  0
  135.6161   54.3453   32.9353 C   0  0  0  0  0  0  0  0  0  0  0  0
  131.4878   52.6894   32.5586 C   0  0  0  0  0  0  0  0  0  0  0  0
  130.5815   52.2009   32.7319 N   0  0  0  0  0  0  0  0  0  0  0  0
  136.4953   52.4920   31.7852 O   0  0  0  0  0  0  0  0  0  0  0  0
  136.3033   54.7509   32.4704 N   0  0  0  0  0  0  0  0  0  0  0  0
  132.8329   52.4641   33.4956 C   0  0  0  0  0  0  0  0  0  0  0  0
  135.1698   54.2025   31.1763 O   0  0  0  0  0  0  0  0  0  0  0  0
  129.7083   51.3845   32.3944 C   0  0  0  0  0  0  0  0  0  0  0  0
  136.5735   53.2575   31.7798 C   0  0  0  0  0  0  0  0  0  0  0  0
  132.5511   53.7406   32.9919 C   0  0  0  0  0  0  0  0  0  0  0  0
  2  1  1  0
  3  1  1  0
  3  2  1  0
  5  4  1  0
  7  3  1  0
  8  1  1  0
  8  4  1  0
 10  5  1  0
 11  6  1  0
 11  7  1  0
 11  9  1  0
 12  2  1  0
 12  4  1  0
 12  8  1  0
M  END
>  <ID>  (1) 
conformer_0

$$$$
