
     RDKit          3D

  9  8  0  0  0  0  0  0  0  0999 V2000
  131.9710   52.5040   33.1413 C   0  0  0  0  0  0  0  0  0  0  0  0
  133.0421   53.6781   33.3785 C   0  0  0  0  0  0  0  0  0  0  0  0
  136.0652   53.7556   32.4745 C   0  0  0  0  0  0  0  0  0  0  0  0
  130.4582   51.9958   32.5331 C   0  0  0  0  0  0  0  0  0  0  0  0
  135.6720   54.4458   31.4634 O   0  0  0  0  0  0  0  0  0  0  0  0
  130.2522   52.2604   32.2382 N   0  0  0  0  0  0  0  0  0  0  0  0
  137.0609   53.1240   31.9480 O   0  0  0  0  0  0  0  0  0  0  0  0
  134.1641   52.8463   33.6636 C   0  0  0  0  0  0  0  0  0  0  0  0
  135.3146   53.5737   33.6701 C   0  0  0  0  0  0  0  0  0  0  0  0
  2  1  1  0
  4  1  1  0
  5  3  2  0
  6  4  1  0
  7  3  1  0
  8  2  1  0
  9  3  1  0
  9  8  1  0
M  END
>  <ID>  (1) 
conformer_0

$$$$
