
     RDKit          3D

  6  5  0  0  0  0  0  0  0  0999 V2000
  134.4209   54.0427   33.5450 C   0  0  0  0  0  0  0  0  0  0  0  0
  136.0640   54.0346   32.3498 C   0  0  0  0  0  0  0  0  0  0  0  0
  133.3187   53.2849   33.4917 C   0  0  0  0  0  0  0  0  0  0  0  0
  130.3846   51.6550   32.5411 C   0  0  0  0  0  0  0  0  0  0  0  0
  136.9865   53.0424   31.7086 O   0  0  0  0  0  0  0  0  0  0  0  0
  132.2210   52.6132   33.2484 C   0  0  0  0  0  0  0  0  0  0  0  0
  2  1  1  0
  3  1  1  0
  5  2  1  0
  6  3  3  0
  6  4  1  0
M  END
>  <ID>  (1) 
conformer_0

$$$$
