
     RDKit          3D

  9  8  0  0  0  0  0  0  0  0999 V2000
  134.4991   53.9481   33.6334 C   0  0  0  0  0  0  0  0  0  0  0  0
  136.1046   53.8511   32.7338 C   0  0  0  0  0  0  0  0  0  0  0  0
  131.1544   52.2658   32.6057 C   0  0  0  0  0  0  0  0  0  0  0  0
  133.6154   53.3093   33.2395 C   0  0  0  0  0  0  0  0  0  0  0  0
  137.4508   52.6337   32.1013 O   0  0  0  0  0  0  0  0  0  0  0  0
  136.2689   53.4588   32.6516 N   0  0  0  0  0  0  0  0  0  0  0  0
  135.9710   54.4470   31.2076 O   0  0  0  0  0  0  0  0  0  0  0  0
  132.2980   52.8952   33.0620 C   0  0  0  0  0  0  0  0  0  0  0  0
  129.3430   51.3136   32.3825 C   0  0  0  0  0  0  0  0  0  0  0  0
  2  1  1  0
  4  1  1  0
  6  2  2  3
  6  5  1  0
  7  2  1  0
  8  3  1  0
  8  4  3  0
  9  3  1  0
M  END
>  <ID>  (1) 
conformer_0

$$$$
