
     RDKit          3D

  8  7  0  0  0  0  0  0  0  0999 V2000
  134.9822   53.5850   33.4557 C   0  0  0  0  0  0  0  0  0  0  0  0
  133.6433   53.7767   33.4075 C   0  0  0  0  0  0  0  0  0  0  0  0
  136.1972   53.8692   32.5236 C   0  0  0  0  0  0  0  0  0  0  0  0
  130.3465   51.8423   32.3934 C   0  0  0  0  0  0  0  0  0  0  0  0
  136.9325   55.0798   33.4593 N   0  0  0  0  0  0  0  0  0  0  0  0
  136.4431   52.5863   31.3864 O   0  0  0  0  0  0  0  0  0  0  0  0
  132.4043   52.9554   33.0490 C   0  0  0  0  0  0  0  0  0  0  0  0
  129.6467   52.1891   32.3689 N   0  0  0  0  0  0  0  0  0  0  0  0
  2  1  1  0
  3  1  1  0
  5  3  1  0
  6  3  1  0
  7  2  2  0
  7  4  2  0
  8  4  1  0
M  END
>  <ID>  (1) 
conformer_0

$$$$
