
     RDKit          3D

 10  9  0  0  0  0  0  0  0  0999 V2000
  134.2557   54.4574   33.7031 C   0  0  0  0  0  0  0  0  0  0  0  0
  136.0135   54.1536   33.2404 C   0  0  0  0  0  0  0  0  0  0  0  0
  134.0003   53.3855   33.2617 C   0  0  0  0  0  0  0  0  0  0  0  0
  129.5035   51.1913   32.4814 C   0  0  0  0  0  0  0  0  0  0  0  0
  136.8638   52.5408   31.7591 O   0  0  0  0  0  0  0  0  0  0  0  0
  130.2607   52.4676   32.4358 N   0  0  0  0  0  0  0  0  0  0  0  0
  135.4437   54.2891   31.0357 O   0  0  0  0  0  0  0  0  0  0  0  0
  132.6114   53.0022   33.1449 C   0  0  0  0  0  0  0  0  0  0  0  0
  131.4715   52.3600   32.6949 C   0  0  0  0  0  0  0  0  0  0  0  0
  136.2277   53.4196   31.9350 C   0  0  0  0  0  0  0  0  0  0  0  0
  2  1  1  0
  3  1  1  0
  6  4  1  0
  8  3  2  0
  9  6  1  0
  9  8  2  0
 10  2  1  0
 10  5  1  0
 10  7  2  0
M  END
>  <ID>  (1) 
conformer_0

$$$$
