
     RDKit          3D

  8  7  0  0  0  0  0  0  0  0999 V2000
  133.4454   53.4452   33.2697 C   0  0  0  0  0  0  0  0  0  0  0  0
  132.1510   52.8420   33.0248 C   0  0  0  0  0  0  0  0  0  0  0  0
  136.2094   53.7565   32.4931 C   0  0  0  0  0  0  0  0  0  0  0  0
  130.2069   51.8388   32.5052 C   0  0  0  0  0  0  0  0  0  0  0  0
  137.1602   53.1890   31.8741 O   0  0  0  0  0  0  0  0  0  0  0  0
  135.2940   54.1736   31.4669 O   0  0  0  0  0  0  0  0  0  0  0  0
  135.1849   53.2073   33.6239 C   0  0  0  0  0  0  0  0  0  0  0  0
  129.9877   52.5049   32.1478 N   0  0  0  0  0  0  0  0  0  0  0  0
  2  1  1  0
  4  2  1  0
  5  3  1  0
  6  3  1  0
  7  1  1  0
  7  3  1  0
  8  4  1  0
M  END
>  <ID>  (1) 
conformer_0

$$$$
