
     RDKit          3D

  9  8  0  0  0  0  0  0  0  0999 V2000
  134.7461   53.3494   33.7875 C   0  0  0  0  0  0  0  0  0  0  0  0
  135.4241   54.2000   33.1427 C   0  0  0  0  0  0  0  0  0  0  0  0
  133.5324   53.8272   33.5999 C   0  0  0  0  0  0  0  0  0  0  0  0
  129.6082   51.3088   32.4221 C   0  0  0  0  0  0  0  0  0  0  0  0
  135.1427   54.0446   31.0779 O   0  0  0  0  0  0  0  0  0  0  0  0
  137.2333   52.8243   31.6513 O   0  0  0  0  0  0  0  0  0  0  0  0
  131.6486   52.2547   32.8045 C   0  0  0  0  0  0  0  0  0  0  0  0
  136.5041   53.4366   32.0039 C   0  0  0  0  0  0  0  0  0  0  0  0
  132.8423   52.5590   33.3046 C   0  0  0  0  0  0  0  0  0  0  0  0
  2  1  1  0
  3  1  1  0
  7  4  1  0
  8  2  1  0
  8  5  2  0
  8  6  1  0
  9  3  1  0
  9  7  1  0
M  END
>  <ID>  (1) 
conformer_0

$$$$
