
     RDKit          3D

 12 14  0  0  0  0  0  0  0  0999 V2000
  132.0167   52.7929   33.0938 C   0  0  0  0  0  0  0  0  0  0  0  0
  136.3012   54.3347   32.9734 C   0  0  0  0  0  0  0  0  0  0  0  0
  133.1112   54.1349   32.8427 C   0  0  0  0  0  0  0  0  0  0  0  0
  130.4559   52.3726   32.3663 N   0  0  0  0  0  0  0  0  0  0  0  0
  131.4842   52.5353   32.7203 C   0  0  0  0  0  0  0  0  0  0  0  0
  136.7653   52.6442   32.0365 O   0  0  0  0  0  0  0  0  0  0  0  0
  135.7012   53.8363   30.6438 O   0  0  0  0  0  0  0  0  0  0  0  0
  134.8206   53.7310   33.6495 C   0  0  0  0  0  0  0  0  0  0  0  0
  136.4986   55.3118   33.2750 N   0  0  0  0  0  0  0  0  0  0  0  0
  129.7577   51.2816   32.5306 C   0  0  0  0  0  0  0  0  0  0  0  0
  135.4076   53.7601   31.7807 C   0  0  0  0  0  0  0  0  0  0  0  0
  133.4534   52.8973   33.6598 C   0  0  0  0  0  0  0  0  0  0  0  0
  3  1  1  0
  5  1  1  0
  5  4  1  0
  8  2  1  0
  8  3  1  0
  9  2  1  0
 10  4  1  0
 11  2  1  0
 11  6  1  0
 11  7  1  0
 11  8  1  0
 12  1  1  0
 12  3  1  0
 12  8  1  0
M  END
>  <ID>  (1) 
conformer_0

$$$$
