
     RDKit          3D

  7  6  0  0  0  0  0  0  0  0999 V2000
  134.2725   53.8935   33.4078 C   0  0  0  0  0  0  0  0  0  0  0  0
  133.0599   53.5324   33.2754 C   0  0  0  0  0  0  0  0  0  0  0  0
  136.1413   53.9932   32.5446 C   0  0  0  0  0  0  0  0  0  0  0  0
  136.8253   53.1205   31.9228 O   0  0  0  0  0  0  0  0  0  0  0  0
  130.3254   51.6157   32.5278 C   0  0  0  0  0  0  0  0  0  0  0  0
  132.0036   52.6910   33.0344 C   0  0  0  0  0  0  0  0  0  0  0  0
  130.1583   51.8126   32.4480 N   0  0  0  0  0  0  0  0  0  0  0  0
  2  1  1  0
  3  1  1  0
  4  3  1  0
  6  2  3  0
  6  5  1  0
  7  5  1  0
M  END
>  <ID>  (1) 
conformer_0

$$$$
