
     RDKit          3D

  8  7  0  0  0  0  0  0  0  0999 V2000
  132.2334   52.9194   33.0802 C   0  0  0  0  0  0  0  0  0  0  0  0
  133.3207   53.5942   33.3181 C   0  0  0  0  0  0  0  0  0  0  0  0
  136.0057   53.5990   32.5831 C   0  0  0  0  0  0  0  0  0  0  0  0
  129.1665   51.3406   32.3160 C   0  0  0  0  0  0  0  0  0  0  0  0
  135.4347   53.9747   30.9577 O   0  0  0  0  0  0  0  0  0  0  0  0
  136.6735   52.4934   31.8540 O   0  0  0  0  0  0  0  0  0  0  0  0
  134.6424   53.6838   33.8050 C   0  0  0  0  0  0  0  0  0  0  0  0
  131.0525   52.1664   32.6383 C   0  0  0  0  0  0  0  0  0  0  0  0
  2  1  1  0
  5  3  1  0
  6  3  1  0
  7  2  1  0
  7  3  1  0
  8  1  3  0
  8  4  1  0
M  END
>  <ID>  (1) 
conformer_0

$$$$
