
     RDKit          3D

  9  8  0  0  0  0  0  0  0  0999 V2000
  131.7349   52.4580   32.9331 C   0  0  0  0  0  0  0  0  0  0  0  0
  132.8280   53.8285   33.3108 C   0  0  0  0  0  0  0  0  0  0  0  0
  136.2299   53.4581   32.6320 C   0  0  0  0  0  0  0  0  0  0  0  0
  130.4460   52.3222   32.3007 C   0  0  0  0  0  0  0  0  0  0  0  0
  137.0766   52.6317   32.0289 O   0  0  0  0  0  0  0  0  0  0  0  0
  135.6919   54.2162   31.8523 O   0  0  0  0  0  0  0  0  0  0  0  0
  130.1285   52.7363   31.9567 N   0  0  0  0  0  0  0  0  0  0  0  0
  133.7765   52.7463   33.3912 C   0  0  0  0  0  0  0  0  0  0  0  0
  134.9265   53.4793   33.6680 C   0  0  0  0  0  0  0  0  0  0  0  0
  2  1  1  0
  4  1  2  3
  5  3  1  0
  6  3  2  0
  7  4  1  0
  8  2  1  0
  9  3  1  0
  9  8  1  0
M  END
>  <ID>  (1) 
conformer_0

$$$$
