
     RDKit          3D

 10  9  0  0  0  0  0  0  0  0999 V2000
  133.8014   52.8805   33.2822 C   0  0  0  0  0  0  0  0  0  0  0  0
  134.7238   54.1821   33.7631 C   0  0  0  0  0  0  0  0  0  0  0  0
  135.8736   54.3629   33.4463 C   0  0  0  0  0  0  0  0  0  0  0  0
  136.7596   52.7416   31.6867 O   0  0  0  0  0  0  0  0  0  0  0  0
  135.5858   54.1020   30.9958 O   0  0  0  0  0  0  0  0  0  0  0  0
  130.3454   51.8939   32.5003 C   0  0  0  0  0  0  0  0  0  0  0  0
  132.6968   53.5067   33.2088 C   0  0  0  0  0  0  0  0  0  0  0  0
  130.2598   52.1067   32.6173 N   0  0  0  0  0  0  0  0  0  0  0  0
  131.5188   52.1147   32.9300 C   0  0  0  0  0  0  0  0  0  0  0  0
  136.1896   53.6130   31.8148 C   0  0  0  0  0  0  0  0  0  0  0  0
  2  1  1  0
  3  2  1  0
  7  1  1  0
  8  6  1  0
  9  6  1  0
  9  7  1  0
 10  3  1  0
 10  4  1  0
 10  5  2  0
M  END
>  <ID>  (1) 
conformer_0

$$$$
