
     RDKit          3D

  9  8  0  0  0  0  0  0  0  0999 V2000
  133.7389   53.5963   33.5401 C   0  0  0  0  0  0  0  0  0  0  0  0
  135.0259   53.3485   33.7781 C   0  0  0  0  0  0  0  0  0  0  0  0
  136.0665   53.7589   32.5153 C   0  0  0  0  0  0  0  0  0  0  0  0
  136.4371   52.8190   31.8210 O   0  0  0  0  0  0  0  0  0  0  0  0
  135.5602   54.0382   31.1073 O   0  0  0  0  0  0  0  0  0  0  0  0
  130.7723   52.2987   32.4683 C   0  0  0  0  0  0  0  0  0  0  0  0
  130.5128   52.8737   32.2621 N   0  0  0  0  0  0  0  0  0  0  0  0
  132.5894   53.1529   33.1202 C   0  0  0  0  0  0  0  0  0  0  0  0
  130.2237   51.3667   32.5848 C   0  0  0  0  0  0  0  0  0  0  0  0
  2  1  1  0
  3  2  1  0
  4  3  1  0
  5  3  1  0
  7  6  1  0
  8  1  2  0
  8  6  2  0
  9  6  1  0
M  END
>  <ID>  (1) 
conformer_0

$$$$
