
     RDKit          3D

  8  7  0  0  0  0  0  0  0  0999 V2000
  134.2614   53.3320   33.5372 C   0  0  0  0  0  0  0  0  0  0  0  0
  133.5364   53.9318   32.9764 C   0  0  0  0  0  0  0  0  0  0  0  0
  136.0162   53.8161   32.4982 C   0  0  0  0  0  0  0  0  0  0  0  0
  136.8743   52.4885   32.0826 O   0  0  0  0  0  0  0  0  0  0  0  0
  130.3181   51.6291   32.5817 C   0  0  0  0  0  0  0  0  0  0  0  0
  132.2675   52.6142   33.1486 C   0  0  0  0  0  0  0  0  0  0  0  0
  136.2039   54.0007   31.2516 O   0  0  0  0  0  0  0  0  0  0  0  0
  130.0041   51.8688   32.6108 N   0  0  0  0  0  0  0  0  0  0  0  0
  2  1  1  0
  3  1  1  0
  4  3  1  0
  6  2  1  0
  6  5  1  0
  7  3  1  0
  8  5  1  0
M  END
>  <ID>  (1) 
conformer_0

$$$$
