
     RDKit          3D

 10 11  0  0  0  0  0  0  0  0999 V2000
  134.5394   52.9895   33.6786 C   0  0  0  0  0  0  0  0  0  0  0  0
  134.4752   54.3748   33.7729 C   0  0  0  0  0  0  0  0  0  0  0  0
  136.3981   53.5149   31.7278 C   0  0  0  0  0  0  0  0  0  0  0  0
  129.1072   51.3318   32.4331 C   0  0  0  0  0  0  0  0  0  0  0  0
  136.7905   52.4480   31.8063 O   0  0  0  0  0  0  0  0  0  0  0  0
  135.8697   54.3442   31.6075 O   0  0  0  0  0  0  0  0  0  0  0  0
  132.9611   53.3896   33.3945 C   0  0  0  0  0  0  0  0  0  0  0  0
  131.9807   52.2840   33.0590 C   0  0  0  0  0  0  0  0  0  0  0  0
  135.8943   54.2964   33.3127 C   0  0  0  0  0  0  0  0  0  0  0  0
  130.9504   52.2029   32.4326 C   0  0  0  0  0  0  0  0  0  0  0  0
  2  1  1  0
  5  3  1  0
  6  3  1  0
  7  1  1  0
  7  2  1  0
  8  7  1  0
  9  1  1  0
  9  2  1  0
  9  6  1  0
 10  4  1  0
 10  8  1  0
M  END
>  <ID>  (1) 
conformer_0

$$$$
