
     RDKit          3D

  6  5  0  0  0  0  0  0  0  0999 V2000
  132.5183   52.5313   33.0504 C   0  0  0  0  0  0  0  0  0  0  0  0
  133.3433   53.6944   33.1599 C   0  0  0  0  0  0  0  0  0  0  0  0
  136.2564   53.8161   32.3941 C   0  0  0  0  0  3  0  0  0  0  0  0
  130.4289   51.6370   32.5988 C   0  0  0  0  0  0  0  0  0  0  0  0
  136.1745   53.7788   32.4167 N   0  0  0  0  0  0  0  0  0  0  0  0
  134.4563   53.4803   33.6223 C   0  0  0  0  0  0  0  0  0  0  0  0
  2  1  1  0
  4  1  1  0
  5  3  2  3
  6  2  1  0
  6  5  1  0
M  RAD  1   3   2
M  END
>  <ID>  (1) 
conformer_0

$$$$
