
     RDKit          3D

 10  9  0  0  0  0  0  0  0  0999 V2000
  132.5914   53.2103   32.9744 C   0  0  0  0  0  0  0  0  0  0  0  0
  136.8967   54.1416   32.5745 C   0  0  0  0  0  0  0  0  0  0  0  0
  133.4418   53.0491   33.5582 C   0  0  0  0  0  0  0  0  0  0  0  0
  131.6157   52.4524   32.6421 C   0  0  0  0  0  0  0  0  0  0  0  0
  136.7227   52.9564   31.8249 O   0  0  0  0  0  0  0  0  0  0  0  0
  135.1383   54.1282   31.3447 O   0  0  0  0  0  0  0  0  0  0  0  0
  130.3283   52.4082   32.6350 N   0  0  0  0  0  0  0  0  0  0  0  0
  129.5825   51.3155   32.3884 C   0  0  0  0  0  0  0  0  0  0  0  0
  134.7705   53.8506   33.7326 C   0  0  0  0  0  0  0  0  0  0  0  0
  135.1612   54.1604   32.8586 C   0  0  1  0  0  0  0  0  0  0  0  0
  3  1  2  3
  4  1  1  0
  5  2  1  0
  7  4  1  0
  8  7  1  0
  9  3  1  0
 10  2  1  0
 10  6  1  6
 10  9  1  0
M  END
>  <ID>  (1) 
conformer_0

$$$$
