
     RDKit          3D

 12 12  0  0  0  0  0  0  0  0999 V2000
  134.0944   54.0528   33.4482 C   0  0  0  0  0  0  0  0  0  0  0  0
  136.4044   53.3321   31.9517 C   0  0  0  0  0  0  0  0  0  0  0  0
  132.6314   53.5367   33.2137 C   0  0  0  0  0  0  0  0  0  0  0  0
  129.2880   51.1864   32.3751 C   0  0  0  0  0  0  0  0  0  0  0  0
  136.9764   52.4723   31.7876 O   0  0  0  0  0  0  0  0  0  0  0  0
  136.0412   54.1281   30.9044 O   0  0  0  0  0  0  0  0  0  0  0  0
  130.1895   52.1480   32.4609 N   0  0  0  0  0  0  0  0  0  0  0  0
  136.3929   55.0725   33.2931 N   0  0  0  0  0  0  0  0  0  0  0  0
  132.1903   52.3002   33.2095 C   0  0  0  0  0  0  0  0  0  0  0  0
  131.2967   52.1768   32.7002 C   0  0  0  0  0  0  0  0  0  0  0  0
  135.7506   54.2729   33.2826 C   0  0  0  0  0  0  0  0  0  0  0  0
  134.7236   52.8016   33.2807 C   0  0  0  0  0  0  0  0  0  0  0  0
  3  1  1  0
  5  2  1  0
  6  2  2  0
  7  4  1  0
  9  3  1  0
 10  7  1  0
 10  9  1  0
 11  1  1  0
 11  2  1  0
 11  8  1  0
 12  1  1  0
 12 11  1  0
M  END
>  <ID>  (1) 
conformer_0

$$$$
