
     RDKit          3D

  9  9  0  0  0  0  0  0  0  0999 V2000
  134.7945   53.8016   33.7014 C   0  0  0  0  0  0  0  0  0  0  0  0
  133.1092   54.2565   33.2667 C   0  0  0  0  0  0  0  0  0  0  0  0
  136.0569   53.6539   32.7077 C   0  0  0  0  0  0  0  0  0  0  0  0
  130.1791   52.3689   32.4460 N   0  0  0  0  0  0  0  0  0  0  0  0
  136.9270   52.4804   31.8347 O   0  0  0  0  0  0  0  0  0  0  0  0
  130.3080   51.7565   32.4752 C   0  0  0  0  0  0  0  0  0  0  0  0
  135.4840   54.3679   31.7114 O   0  0  0  0  0  0  0  0  0  0  0  0
  133.3283   52.7533   33.4091 C   0  0  0  0  0  0  0  0  0  0  0  0
  131.7686   52.7027   32.9292 C   0  0  0  0  0  0  0  0  0  0  0  0
  2  1  1  0
  3  1  1  0
  5  3  1  0
  6  4  1  0
  7  3  1  0
  8  1  1  0
  8  2  1  0
  9  4  1  0
  9  8  1  0
M  END
>  <ID>  (1) 
conformer_0

$$$$
