
     RDKit          3D

 11 10  0  0  0  0  0  0  0  0999 V2000
  131.9387   52.5982   32.9427 C   0  0  0  0  0  0  0  0  0  0  0  0
  132.7209   53.5411   33.1244 C   0  0  0  0  0  0  0  0  0  0  0  0
  136.3822   53.8098   32.4671 C   0  0  0  0  0  0  0  0  0  0  0  0
  129.9962   51.9874   32.4119 N   0  0  0  0  0  0  0  0  0  0  0  0
  130.9911   52.1473   32.5243 C   0  0  0  0  0  0  0  0  0  0  0  0
  137.0119   52.5927   31.6225 O   0  0  0  0  0  0  0  0  0  0  0  0
  135.5606   54.2766   31.1538 O   0  0  0  0  0  0  0  0  0  0  0  0
  133.9271   54.1129   33.6763 C   0  0  0  0  0  0  0  0  0  0  0  0
  136.8966   54.9204   33.5828 N   0  0  0  0  0  0  0  0  0  0  0  0
  135.0704   53.3174   33.4430 C   0  0  0  0  0  0  0  0  0  0  0  0
  129.2441   51.0160   32.4704 C   0  0  0  0  0  0  0  0  0  0  0  0
  2  1  2  3
  5  1  1  0
  5  4  1  0
  6  3  1  0
  7  3  1  0
  8  2  1  0
  9  3  1  0
 10  3  1  0
 10  8  1  0
 11  4  1  0
M  END
>  <ID>  (1) 
conformer_0

$$$$
