
     RDKit          3D

  9  8  0  0  0  0  0  0  0  0999 V2000
  132.1881   53.0119   33.0412 C   0  0  0  0  0  0  0  0  0  0  0  0
  136.2039   53.6723   32.6667 C   0  0  0  0  0  0  0  0  0  0  0  0
  133.2068   53.8774   33.2357 C   0  0  0  0  0  0  0  0  0  0  0  0
  131.2717   52.2377   32.6887 C   0  0  0  0  0  0  0  0  0  0  0  0
  135.7955   54.0141   31.1345 O   0  0  0  0  0  0  0  0  0  0  0  0
  130.2169   52.2391   32.3527 N   0  0  0  0  0  0  0  0  0  0  0  0
  137.4319   53.1704   32.1511 O   0  0  0  0  0  0  0  0  0  0  0  0
  134.6189   53.4188   33.6530 C   0  0  0  0  0  0  0  0  0  0  0  0
  129.4208   51.0143   32.4557 C   0  0  0  0  0  0  0  0  0  0  0  0
  3  1  2  0
  4  1  2  0
  5  2  2  0
  6  4  1  0
  7  2  1  0
  8  2  1  0
  8  3  1  0
  9  6  1  0
M  END
>  <ID>  (1) 
conformer_0

$$$$
