
     RDKit          3D

 10  9  0  0  0  0  0  0  0  0999 V2000
  133.1618   53.4225   32.9770 C   0  0  0  0  0  0  0  0  0  0  0  0
  135.3052   53.3690   32.7943 C   0  0  0  0  0  0  0  0  0  0  0  0
  131.3144   52.1574   32.7878 C   0  0  0  0  0  0  0  0  0  0  0  0
  136.3798   53.8214   32.3967 C   0  0  0  0  0  0  0  0  0  0  0  0
  130.1128   52.3093   32.6103 N   0  0  0  0  0  0  0  0  0  0  0  0
  132.2170   52.7407   33.0502 C   0  0  0  0  0  0  0  0  0  0  0  0
  136.8879   54.7910   32.3926 N   0  0  0  0  0  0  0  0  0  0  0  0
  137.0291   52.6392   31.5668 O   0  0  0  0  0  0  0  0  0  0  0  0
  129.4099   51.3968   32.3739 C   0  0  0  0  0  0  0  0  0  0  0  0
  134.4725   54.0076   33.7355 C   0  0  0  0  0  0  0  0  0  0  0  0
  4  2  1  0
  5  3  1  0
  6  1  2  0
  6  3  2  0
  7  4  1  0
  8  4  1  0
  9  5  1  0
 10  1  1  0
 10  2  1  0
M  END
>  <ID>  (1) 
conformer_0

$$$$
