
     RDKit          3D

  8  7  0  0  0  0  0  0  0  0999 V2000
  133.5066   53.3625   33.5453 C   0  0  0  0  0  0  0  0  0  0  0  0
  134.5898   53.9113   33.9810 C   0  0  0  0  0  0  0  0  0  0  0  0
  135.6000   53.8763   32.2355 C   0  0  0  0  0  0  0  0  0  0  0  0
  135.3225   54.4811   30.9507 O   0  0  0  0  0  0  0  0  0  0  0  0
  131.7064   52.1497   32.7907 C   0  0  0  0  0  0  0  0  0  0  0  0
  130.4669   51.8955   32.5369 N   0  0  0  0  0  0  0  0  0  0  0  0
  132.6454   52.6752   33.2356 C   0  0  0  0  0  0  0  0  0  0  0  0
  129.7385   51.1356   32.4850 C   0  0  0  0  0  0  0  0  0  0  0  0
  2  1  1  0
  3  2  1  0
  4  3  1  0
  6  5  1  0
  7  1  3  0
  7  5  1  0
  8  6  1  0
M  END
>  <ID>  (1) 
conformer_0

$$$$
