
     RDKit          3D

 11 10  0  0  0  0  0  0  0  0999 V2000
  132.3878   53.1208   33.1901 C   0  0  0  0  0  0  0  0  0  0  0  0
  135.9113   53.2853   31.9280 C   0  0  0  0  0  0  0  0  0  0  0  0
  133.6046   52.9631   33.3569 C   0  0  0  0  0  0  0  0  0  0  0  0
  131.5826   52.7974   32.5688 C   0  0  0  0  0  0  0  0  0  0  0  0
  135.7055   53.9176   31.0615 O   0  0  0  0  0  0  0  0  0  0  0  0
  130.4375   51.8202   32.5261 N   0  0  0  0  0  0  0  0  0  0  0  0
  136.3979   55.2364   33.0428 O   0  0  0  0  0  0  0  0  0  0  0  0
  136.7274   52.6061   31.7813 O   0  0  0  0  0  0  0  0  0  0  0  0
  134.6598   53.6138   33.5690 C   0  0  0  0  0  0  0  0  0  0  0  0
  129.8376   51.6473   32.4025 C   0  0  0  0  0  0  0  0  0  0  0  0
  136.0121   54.3045   33.2397 C   0  0  0  0  0  0  0  0  0  0  0  0
  3  1  1  0
  4  1  1  0
  5  2  1  0
  6  4  1  0
  8  2  1  0
  9  3  1  0
 10  6  1  0
 11  2  1  0
 11  7  1  0
 11  9  1  0
M  END
>  <ID>  (1) 
conformer_0

$$$$
