
     RDKit          3D

 10 10  0  0  0  0  0  0  0  0999 V2000
  133.3625   52.9423   33.6594 C   0  0  0  0  0  0  0  0  0  0  0  0
  136.4062   53.6034   32.1728 C   0  0  0  0  0  0  0  0  0  0  0  0
  134.4717   53.5573   33.7000 C   0  0  0  0  0  0  0  0  0  0  0  0
  136.5135   52.4784   31.8693 O   0  0  0  0  0  0  0  0  0  0  0  0
  131.5782   52.5993   32.7520 C   0  0  0  0  0  0  0  0  0  0  0  0
  135.3956   54.4193   31.1539 O   0  0  0  0  0  0  0  0  0  0  0  0
  130.6841   51.8304   32.6143 N   0  0  0  0  0  0  0  0  0  0  0  0
  132.4995   53.4318   32.9889 C   0  0  0  0  0  0  0  0  0  0  0  0
  129.7894   51.2833   32.5081 C   0  0  0  0  0  0  0  0  0  0  0  0
  134.9393   54.4781   32.9208 C   0  0  0  0  0  0  0  0  0  0  0  0
  3  1  1  0
  4  2  1  0
  6  2  1  0
  7  5  1  0
  8  1  1  0
  8  5  1  0
  9  7  1  0
 10  2  1  0
 10  3  1  0
 10  6  1  0
M  END
>  <ID>  (1) 
conformer_0

$$$$
