
     RDKit          3D

  9  8  0  0  0  0  0  0  0  0999 V2000
  134.5354   53.4781   33.8067 C   0  0  0  0  0  0  0  0  0  0  0  0
  135.9700   53.8165   32.6480 C   0  0  0  0  0  0  0  0  0  0  0  0
  133.6250   53.7668   33.2292 C   0  0  0  0  0  0  0  0  0  0  0  0
  131.3814   52.5191   32.7005 C   0  0  0  0  0  0  0  0  0  0  0  0
  135.2469   54.4463   30.9752 O   0  0  0  0  0  0  0  0  0  0  0  0
  136.7937   52.7284   31.9292 O   0  0  0  0  0  0  0  0  0  0  0  0
  132.5108   52.8849   33.1643 C   0  0  0  0  0  0  0  0  0  0  0  0
  130.3210   52.4885   32.5255 N   0  0  0  0  0  0  0  0  0  0  0  0
  129.5624   51.5706   32.3255 C   0  0  0  0  0  0  0  0  0  0  0  0
  2  1  1  0
  3  1  1  0
  5  2  1  0
  6  2  1  0
  7  3  2  3
  7  4  1  0
  8  4  1  0
  9  8  1  0
M  END
>  <ID>  (1) 
conformer_0

$$$$
