
     RDKit          3D

 11 10  0  0  0  0  0  0  0  0999 V2000
  134.2617   52.6133   33.6404 C   0  0  0  0  0  0  0  0  0  0  0  0
  135.2261   53.7593   31.9970 C   0  0  0  0  0  0  0  0  0  0  0  0
  132.2409   52.1907   33.1381 C   0  0  0  0  0  0  0  0  0  0  0  0
  131.5046   52.3925   32.6755 C   0  0  0  0  0  0  0  0  0  0  0  0
  136.7558   53.0407   31.7703 O   0  0  0  0  0  0  0  0  0  0  0  0
  135.1523   54.4483   31.2751 O   0  0  0  0  0  0  0  0  0  0  0  0
  130.2508   52.5099   32.2840 N   0  0  0  0  0  0  0  0  0  0  0  0
  134.7572   54.1194   34.2467 C   0  0  0  0  0  0  0  0  0  0  0  0
  136.0642   53.9762   33.3058 C   0  0  0  0  0  0  0  0  0  0  0  0
  129.6277   51.3549   32.3653 C   0  0  0  0  0  0  0  0  0  0  0  0
  133.1141   53.5137   33.1951 C   0  0  0  0  0  0  0  0  0  0  0  0
  4  3  1  0
  5  2  1  0
  6  2  1  0
  7  4  1  0
  8  1  1  0
  9  2  1  0
  9  8  1  0
 10  7  1  0
 11  1  1  0
 11  3  1  0
M  END
>  <ID>  (1) 
conformer_0

$$$$
