
     RDKit          3D

 10 10  0  0  0  0  0  0  0  0999 V2000
  134.5910   53.5574   33.3981 C   0  0  0  0  0  0  0  0  0  0  0  0
  135.7361   54.0304   32.8277 C   0  0  0  0  0  0  0  0  0  0  0  0
  133.3535   53.5990   33.2070 C   0  0  0  0  0  0  0  0  0  0  0  0
  130.0939   52.5346   32.5497 N   0  0  0  0  0  0  0  0  0  0  0  0
  136.4751   52.2639   31.7251 O   0  0  0  0  0  0  0  0  0  0  0  0
  130.4963   51.9364   32.5610 C   0  0  0  0  0  0  0  0  0  0  0  0
  136.7373   54.6769   33.5805 N   0  0  0  0  0  0  0  0  0  0  0  0
  129.6101   50.8381   32.6569 C   0  0  0  0  0  0  0  0  0  0  0  0
  132.2579   52.7552   33.1481 C   0  0  0  0  0  0  0  0  0  0  0  0
  136.9060   53.6129   32.0184 C   0  0  0  0  0  0  0  0  0  0  0  0
  2  1  1  0
  3  1  1  0
  6  4  1  0
  7  2  1  0
  8  6  1  0
  9  3  2  0
  9  6  2  0
 10  2  1  0
 10  5  1  0
 10  7  1  0
M  END
>  <ID>  (1) 
conformer_0

$$$$
