
     RDKit          3D

 11 10  0  0  0  0  0  0  0  0999 V2000
  133.3317   53.4332   33.1942 C   0  0  0  0  0  0  0  0  0  0  0  0
  132.3396   52.6917   33.1679 C   0  0  0  0  0  0  0  0  0  0  0  0
  136.0925   53.5115   31.9766 C   0  0  0  0  0  0  0  0  0  0  0  0
  129.4289   51.5935   32.2627 C   0  0  0  0  0  0  0  0  0  0  0  0
  136.7625   52.6001   32.1069 O   0  0  0  0  0  0  0  0  0  0  0  0
  135.5571   53.9717   31.2327 O   0  0  0  0  0  0  0  0  0  0  0  0
  136.3547   54.6493   33.4976 O   0  0  0  0  0  0  0  0  0  0  0  0
  130.3741   52.5525   32.1304 N   0  0  0  0  0  0  0  0  0  0  0  0
  134.3657   53.4815   33.8752 C   0  0  0  0  0  0  0  0  0  0  0  0
  135.4653   54.2769   33.8565 C   0  0  0  0  0  0  0  0  0  0  0  0
  131.5339   52.3111   32.4716 C   0  0  0  0  0  0  0  0  0  0  0  0
  2  1  1  0
  5  3  1  0
  6  3  2  0
  7  3  1  0
  8  4  1  0
  9  1  2  3
 10  7  1  0
 10  9  1  0
 11  2  1  0
 11  8  1  0
M  END
>  <ID>  (1) 
conformer_0

$$$$
