
     RDKit          3D

 10 11  0  0  0  0  0  0  0  0999 V2000
  134.9256   53.8348   33.5556 C   0  0  0  0  0  0  0  0  0  0  0  0
  135.2442   53.5431   32.2481 C   0  0  0  0  0  0  0  0  0  0  0  0
  130.5043   52.4384   32.6579 N   0  0  0  0  0  0  0  0  0  0  0  0
  131.8937   52.5516   32.8875 C   0  0  0  0  0  0  0  0  0  0  0  0
  137.1300   52.8145   32.0059 O   0  0  0  0  0  0  0  0  0  0  0  0
  135.5236   54.0107   31.2752 O   0  0  0  0  0  0  0  0  0  0  0  0
  133.8270   52.8337   33.3623 C   0  0  0  0  0  0  0  0  0  0  0  0
  129.8469   51.4523   32.5042 C   0  0  0  0  0  0  0  0  0  0  0  0
  136.6884   53.9019   33.0149 C   0  0  0  0  0  0  0  0  0  0  0  0
  132.5580   53.6678   33.0206 C   0  0  0  0  0  0  0  0  0  0  0  0
  2  1  1  0
  4  3  1  0
  6  2  1  0
  7  1  1  0
  7  2  1  0
  8  3  1  0
  9  1  1  0
  9  2  1  0
  9  5  1  0
 10  4  1  0
 10  7  1  0
M  END
>  <ID>  (1) 
conformer_0

$$$$
