
     RDKit          3D

  9  8  0  0  0  0  0  0  0  0999 V2000
  132.4701   53.0371   33.3171 C   0  0  0  0  0  0  0  0  0  0  0  0
  136.3725   53.8720   32.2527 C   0  0  0  0  0  0  0  0  0  0  0  0
  133.6766   53.2669   33.6842 C   0  0  0  0  0  0  0  0  0  0  0  0
  130.3487   52.6582   32.5695 N   0  0  0  0  0  0  0  0  0  0  0  0
  130.8168   52.2165   32.6443 C   0  0  0  0  0  0  0  0  0  0  0  0
  135.5975   54.1336   30.8047 O   0  0  0  0  0  0  0  0  0  0  0  0
  136.8094   52.5611   31.7591 O   0  0  0  0  0  0  0  0  0  0  0  0
  134.9096   53.3544   33.5056 C   0  0  0  0  0  0  0  0  0  0  0  0
  129.6403   50.9810   32.4815 C   0  0  0  0  0  0  0  0  0  0  0  0
  3  1  2  0
  5  1  2  0
  5  4  1  0
  6  2  1  0
  7  2  1  0
  8  2  1  0
  8  3  1  0
  9  5  1  0
M  END
>  <ID>  (1) 
conformer_0

$$$$
