
     RDKit          3D

 11 10  0  0  0  0  0  0  0  0999 V2000
  133.3819   53.5867   32.7617 C   0  0  0  0  0  0  0  0  0  0  0  0
  135.2977   53.7600   32.9596 C   0  0  0  0  0  0  0  0  0  0  0  0
  132.3753   52.8479   33.1479 C   0  0  0  0  0  0  0  0  0  0  0  0
  131.5762   52.2858   32.9415 C   0  0  0  0  0  0  0  0  0  0  0  0
  136.6643   52.5739   32.9790 O   0  0  0  0  0  0  0  0  0  0  0  0
  130.4303   52.4440   32.1811 N   0  0  0  0  0  0  0  0  0  0  0  0
  136.0253   54.6776   31.2219 O   0  0  0  0  0  0  0  0  0  0  0  0
  134.3589   53.4268   33.8303 C   0  0  0  0  0  0  0  0  0  0  0  0
  136.1997   53.6653   32.4919 N   0  0  0  0  0  0  0  0  0  0  0  0
  136.6397   53.7842   31.9035 C   0  0  0  0  0  0  0  0  0  0  0  0
  129.7118   51.7605   32.2894 C   0  0  0  0  0  0  0  0  0  0  0  0
  3  1  1  0
  4  3  1  0
  6  4  1  0
  8  1  1  0
  8  2  1  0
  9  2  1  0
  9  5  1  0
 10  7  1  0
 10  9  1  0
 11  6  1  0
M  END
>  <ID>  (1) 
conformer_0

$$$$
