
     RDKit          3D

 11 10  0  0  0  0  0  0  0  0999 V2000
  131.8679   52.9152   32.9140 C   0  0  0  0  0  0  0  0  0  0  0  0
  133.1395   52.5273   33.4630 C   0  0  0  0  0  0  0  0  0  0  0  0
  135.6160   54.3349   33.3520 C   0  0  0  0  0  0  0  0  0  0  0  0
  136.9118   52.8355   32.1317 O   0  0  0  0  0  0  0  0  0  0  0  0
  131.4650   52.2267   32.7692 C   0  0  0  0  0  0  0  0  0  0  0  0
  135.6370   54.1390   31.2313 O   0  0  0  0  0  0  0  0  0  0  0  0
  134.9591   53.7860   34.2358 C   0  0  0  0  0  0  0  0  0  0  0  0
  130.3044   52.1614   32.2031 N   0  0  0  0  0  0  0  0  0  0  0  0
  129.4839   51.5785   32.2473 C   0  0  0  0  0  0  0  0  0  0  0  0
  136.1665   53.5792   31.8522 C   0  0  0  0  0  0  0  0  0  0  0  0
  133.6292   53.9400   33.4193 C   0  0  0  0  0  0  0  0  0  0  0  0
  2  1  1  0
  5  1  1  0
  7  3  1  0
  8  5  1  0
  9  8  1  0
 10  3  1  0
 10  4  1  0
 10  6  2  0
 11  2  1  0
 11  7  1  0
M  END
>  <ID>  (1) 
conformer_0

$$$$
