
     RDKit          3D

  8  7  0  0  0  0  0  0  0  0999 V2000
  134.7329   53.5040   33.6124 C   0  0  0  0  0  0  0  0  0  0  0  0
  133.4921   53.5105   33.5349 C   0  0  0  0  0  0  0  0  0  0  0  0
  136.1841   53.7642   32.5921 C   0  0  0  0  0  0  0  0  0  0  0  0
  130.0810   51.8313   32.3546 C   0  0  0  0  0  0  0  0  0  0  0  0
  136.6744   52.8194   31.7442 O   0  0  0  0  0  0  0  0  0  0  0  0
  132.1524   52.8039   33.1243 C   0  0  0  0  0  0  0  0  0  0  0  0
  135.2864   54.0548   31.1835 O   0  0  0  0  0  0  0  0  0  0  0  0
  129.9499   51.5649   32.4604 N   0  0  0  0  0  0  0  0  0  0  0  0
  2  1  1  0
  3  1  1  0
  5  3  1  0
  6  2  2  0
  6  4  2  0
  7  3  1  0
  8  4  1  0
M  END
>  <ID>  (1) 
conformer_0

$$$$
