
     RDKit          3D

 10 10  0  0  0  0  0  0  0  0999 V2000
  134.0918   54.1875   33.4333 C   0  0  0  0  0  0  0  0  0  0  0  0
  136.6539   53.8017   32.3684 C   0  0  0  0  0  0  0  0  0  0  0  0
  133.7494   52.8346   33.4712 C   0  0  0  0  0  0  0  0  0  0  0  0
  136.8761   52.6030   31.8959 O   0  0  0  0  0  0  0  0  0  0  0  0
  135.6918   54.5093   31.3783 O   0  0  0  0  0  0  0  0  0  0  0  0
  130.4658   51.8697   32.4272 C   0  0  0  0  0  0  0  0  0  0  0  0
  132.3147   53.2942   33.1576 C   0  0  0  0  0  0  0  0  0  0  0  0
  129.8112   52.2348   32.0701 N   0  0  0  0  0  0  0  0  0  0  0  0
  131.0944   51.9412   32.9297 C   0  0  0  0  0  0  0  0  0  0  0  0
  135.4612   53.9547   33.0914 C   0  0  0  0  0  0  0  0  0  0  0  0
  3  1  1  0
  4  2  1  0
  5  2  1  0
  7  3  1  0
  8  6  1  0
  9  6  1  0
  9  7  1  0
 10  1  1  0
 10  2  1  0
 10  5  1  0
M  END
>  <ID>  (1) 
conformer_0

$$$$
