
     RDKit          3D

  8  7  0  0  0  0  0  0  0  0999 V2000
  134.5049   53.5634   33.5833 C   0  0  0  0  0  0  0  0  0  0  0  0
  133.1163   53.3115   33.3392 C   0  0  0  0  0  0  0  0  0  0  0  0
  135.9799   53.7998   32.4006 C   0  0  0  0  0  0  0  0  0  0  0  0
  130.0630   51.5852   32.4298 C   0  0  0  0  0  0  0  0  0  0  0  0
  137.0515   53.0139   31.9363 O   0  0  0  0  0  0  0  0  0  0  0  0
  135.5385   53.9566   30.9913 O   0  0  0  0  0  0  0  0  0  0  0  0
  131.9230   52.5708   33.0784 C   0  0  0  0  0  0  0  0  0  0  0  0
  129.7914   51.9193   32.8423 N   0  0  0  0  0  0  0  0  0  0  0  0
  2  1  1  0
  3  1  1  0
  5  3  1  0
  6  3  1  0
  7  2  3  0
  7  4  1  0
  8  4  1  0
M  END
>  <ID>  (1) 
conformer_0

$$$$
