
     RDKit          3D

 11 11  0  0  0  0  0  0  0  0999 V2000
  135.0607   53.4214   33.3301 C   0  0  0  0  0  0  0  0  0  0  0  0
  135.6963   53.9731   32.4515 C   0  0  0  0  0  0  0  0  0  0  0  0
  133.0642   52.8173   33.4943 C   0  0  0  0  0  0  0  0  0  0  0  0
  129.7646   51.7145   32.2984 C   0  0  0  0  0  0  0  0  0  0  0  0
  130.0308   52.9717   32.3040 N   0  0  0  0  0  0  0  0  0  0  0  0
  137.2330   52.3745   32.0977 O   0  0  0  0  0  0  0  0  0  0  0  0
  131.7428   52.4441   32.9952 C   0  0  0  0  0  0  0  0  0  0  0  0
  136.9217   54.8164   32.8649 N   0  0  0  0  0  0  0  0  0  0  0  0
  131.2646   53.2355   32.3651 C   0  0  0  0  0  0  0  0  0  0  0  0
  136.9680   53.2941   32.6538 C   0  0  0  0  0  0  0  0  0  0  0  0
  133.6530   54.0955   33.1098 C   0  0  0  0  0  0  0  0  0  0  0  0
  2  1  1  0
  5  4  1  0
  7  3  1  0
  8  2  1  0
  9  5  1  0
  9  7  1  0
 10  2  1  0
 10  6  1  0
 10  8  1  0
 11  1  1  0
 11  3  1  0
M  END
>  <ID>  (1) 
conformer_0

$$$$
