
     RDKit          3D

  8  9  0  0  0  0  0  0  0  0999 V2000
  134.4933   53.6134   33.8911 C   0  0  0  0  0  0  0  0  0  0  0  0
  134.7240   53.9851   32.6400 C   0  0  0  0  0  0  0  0  0  0  0  0
  133.2547   53.5105   33.2607 C   0  0  0  0  0  0  0  0  0  0  0  0
  136.8853   52.6812   31.8912 O   0  0  0  0  0  0  0  0  0  0  0  0
  130.5344   51.8406   32.5796 C   0  0  0  0  0  0  0  0  0  0  0  0
  135.4474   54.6582   31.4514 O   0  0  0  0  0  0  0  0  0  0  0  0
  132.3182   52.5925   33.2223 C   0  0  0  0  0  0  0  0  0  0  0  0
  136.3904   53.6488   32.4657 C   0  0  0  0  0  0  0  0  0  0  0  0
  2  1  1  0
  3  1  1  0
  3  2  1  0
  6  2  1  0
  7  3  1  0
  7  5  1  0
  8  2  1  0
  8  4  1  0
  8  6  1  0
M  END
>  <ID>  (1) 
conformer_0

$$$$
