
     RDKit          3D

  8  7  0  0  0  0  0  0  0  0999 V2000
  134.5441   53.5323   33.4397 C   0  0  0  0  0  0  0  0  0  0  0  0
  133.4009   53.4249   33.4445 C   0  0  0  0  0  0  0  0  0  0  0  0
  136.1151   53.8601   32.4661 C   0  0  0  0  0  0  0  0  0  0  0  0
  137.0385   52.8102   31.9403 O   0  0  0  0  0  0  0  0  0  0  0  0
  129.9592   52.1121   32.2081 N   0  0  0  0  0  0  0  0  0  0  0  0
  135.8199   54.0892   30.9924 O   0  0  0  0  0  0  0  0  0  0  0  0
  130.5033   51.7346   32.5606 C   0  0  0  0  0  0  0  0  0  0  0  0
  132.2033   52.5356   33.2123 C   0  0  0  0  0  0  0  0  0  0  0  0
  2  1  1  0
  3  1  1  0
  4  3  1  0
  6  3  1  0
  7  5  1  0
  8  2  2  0
  8  7  2  0
M  END
>  <ID>  (1) 
conformer_0

$$$$
