
     RDKit          3D

 11 11  0  0  0  0  0  0  0  0999 V2000
  134.5137   53.1078   33.7124 C   0  0  0  0  0  0  0  0  0  0  0  0
  134.0926   54.2454   33.7459 C   0  0  0  0  0  0  0  0  0  0  0  0
  136.6749   53.5706   31.9066 C   0  0  0  0  0  0  0  0  0  0  0  0
  130.1820   52.2822   32.1290 N   0  0  0  0  0  0  0  0  0  0  0  0
  131.3840   52.5106   32.6091 C   0  0  0  0  0  0  0  0  0  0  0  0
  136.7940   52.4873   31.8268 O   0  0  0  0  0  0  0  0  0  0  0  0
  135.4960   54.1453   31.2507 O   0  0  0  0  0  0  0  0  0  0  0  0
  132.1422   52.3951   33.1930 C   0  0  0  0  0  0  0  0  0  0  0  0
  129.6053   51.2307   32.5075 C   0  0  0  0  0  0  0  0  0  0  0  0
  132.4681   53.7022   33.0896 C   0  0  0  0  0  0  0  0  0  0  0  0
  135.5708   53.8149   33.1505 C   0  0  0  0  0  0  0  0  0  0  0  0
  2  1  1  0
  5  4  1  0
  6  3  1  0
  7  3  1  0
  8  5  1  0
  9  4  1  0
 10  2  1  0
 10  8  1  0
 11  1  1  0
 11  2  1  0
 11  3  1  0
M  END
>  <ID>  (1) 
conformer_0

$$$$
