
     RDKit          3D

  9  8  0  0  0  0  0  0  0  0999 V2000
  132.0626   52.9058   32.9725 C   0  0  0  0  0  0  0  0  0  0  0  0
  135.5093   53.5786   31.9363 C   0  0  0  0  0  0  0  0  0  0  0  0
  133.1542   53.5339   33.0765 C   0  0  0  0  0  0  0  0  0  0  0  0
  130.5333   51.9668   32.3909 C   0  0  0  0  0  0  0  0  0  0  0  0
  135.7494   54.1044   30.9506 O   0  0  0  0  0  0  0  0  0  0  0  0
  130.1241   52.0949   32.7535 N   0  0  0  0  0  0  0  0  0  0  0  0
  135.9978   53.5730   32.4704 N   0  0  0  0  0  0  0  0  0  0  0  0
  134.4209   53.1644   33.6433 C   0  0  0  0  0  0  0  0  0  0  0  0
  136.1136   53.7687   33.4278 C   0  0  0  0  0  0  0  0  0  0  0  0
  3  1  1  0
  4  1  1  0
  5  2  2  0
  6  4  1  0
  7  2  1  0
  8  3  1  0
  9  7  1  0
  9  8  1  0
M  END
>  <ID>  (1) 
conformer_0

$$$$
