
     RDKit          3D

  8  8  0  0  0  0  0  0  0  0999 V2000
  132.6828   52.8458   33.2431 C   0  0  0  0  0  0  0  0  0  0  0  0
  135.9659   53.7237   32.5978 C   0  0  0  0  0  0  0  0  0  0  0  0
  130.6429   52.1357   32.3556 C   0  0  0  0  0  0  0  0  0  0  0  0
  137.0707   53.6237   33.1262 O   0  0  0  0  0  0  0  0  0  0  0  0
  134.1437   53.5838   33.5357 C   0  0  0  0  0  0  0  0  0  0  0  0
  130.2253   52.3423   32.5045 N   0  0  0  0  0  0  0  0  0  0  0  0
  134.9451   54.2297   31.4063 O   0  0  0  0  0  0  0  0  0  0  0  0
  133.1095   53.6161   32.1907 C   0  0  0  0  0  0  0  0  0  0  0  0
  3  1  1  0
  4  2  1  0
  5  1  1  0
  5  2  1  0
  6  3  1  0
  7  2  2  0
  8  1  1  0
  8  5  1  0
M  END
>  <ID>  (1) 
conformer_0

$$$$
