
     RDKit          3D

  8  7  0  0  0  0  0  0  0  0999 V2000
  133.2748   53.3740   33.3456 C   0  0  0  0  0  0  0  0  0  0  0  0
  136.1044   54.0711   32.4760 C   0  0  0  0  0  0  0  0  0  0  0  0
  132.2476   52.6067   33.1673 C   0  0  0  0  0  0  0  0  0  0  0  0
  130.0246   51.4850   32.4519 C   0  0  0  0  0  0  0  0  0  0  0  0
  129.9032   52.2766   32.4223 N   0  0  0  0  0  0  0  0  0  0  0  0
  134.5369   53.8111   33.6794 C   0  0  0  0  0  0  0  0  0  0  0  0
  137.0681   52.9590   31.7434 O   0  0  0  0  0  0  0  0  0  0  0  0
  135.3748   54.0145   30.9983 O   0  0  0  0  0  0  0  0  0  0  0  0
  3  1  2  0
  5  3  1  0
  5  4  1  0
  6  1  2  0
  6  2  1  0
  7  2  1  0
  8  2  1  0
M  END
>  <ID>  (1) 
conformer_0

$$$$
