
     RDKit          3D

  7  6  0  0  0  0  0  0  0  0999 V2000
  133.5785   53.2808   33.5420 C   0  0  0  0  0  0  0  0  0  0  0  0
  132.3105   52.6504   33.1482 C   0  0  0  0  0  0  0  0  0  0  0  0
  136.2426   54.0118   32.4896 C   0  0  0  0  0  0  0  0  0  0  0  0
  130.1049   51.6810   32.4680 C   0  0  0  0  0  0  0  0  0  0  0  0
  136.8400   53.0453   31.8465 O   0  0  0  0  0  0  0  0  0  0  0  0
  135.9090   54.8504   31.5044 O   0  0  0  0  0  0  0  0  0  0  0  0
  134.6667   53.7468   33.9991 C   0  0  0  0  0  0  0  0  0  0  0  0
  2  1  3  0
  4  2  1  0
  5  3  1  0
  6  3  1  0
  7  1  1  0
  7  3  1  0
M  END
>  <ID>  (1) 
conformer_0

$$$$
