
     RDKit          3D

 10  9  0  0  0  0  0  0  0  0999 V2000
  134.2385   54.0298   33.7871 C   0  0  0  0  0  0  0  0  0  0  0  0
  135.8649   53.4242   32.0438 C   0  0  0  0  0  0  0  0  0  0  0  0
  133.4508   53.1048   33.4127 C   0  0  0  0  0  0  0  0  0  0  0  0
  130.3634   51.9212   32.4055 C   0  0  0  0  0  0  0  0  0  0  0  0
  134.9870   54.0506   31.2584 O   0  0  0  0  0  0  0  0  0  0  0  0
  136.5343   52.6073   31.6711 O   0  0  0  0  0  0  0  0  0  0  0  0
  129.6410   52.0113   32.2137 N   0  0  0  0  0  0  0  0  0  0  0  0
  136.7077   54.7043   33.6682 N   0  0  0  0  0  0  0  0  0  0  0  0
  132.0426   52.6513   33.0772 C   0  0  0  0  0  0  0  0  0  0  0  0
  136.0328   53.7941   33.4149 C   0  0  0  0  0  0  0  0  0  0  0  0
  3  1  1  0
  5  2  2  0
  6  2  1  0
  7  4  1  0
  9  3  2  0
  9  4  2  0
 10  1  1  0
 10  2  1  0
 10  8  1  0
M  END
>  <ID>  (1) 
conformer_0

$$$$
