
     RDKit          3D

  6  5  0  0  0  0  0  0  0  0999 V2000
  133.5027   53.4439   33.2582 C   0  0  0  0  0  0  0  0  0  0  0  0
  136.3190   54.0233   32.8214 C   0  0  0  0  0  0  0  0  0  0  0  0
  132.2351   52.5258   33.1085 C   0  0  0  0  0  0  0  0  0  0  0  0
  130.0843   51.7861   32.4099 C   0  0  0  0  0  0  0  0  0  0  0  0
  137.4828   53.1815   31.8689 O   0  0  0  0  0  0  0  0  0  0  0  0
  134.8439   53.0641   33.4814 C   0  0  0  0  0  0  0  0  0  0  0  0
  3  1  1  0
  4  3  1  0
  5  2  1  0
  6  1  1  0
  6  2  1  0
M  END
>  <ID>  (1) 
conformer_0

$$$$
