
     RDKit          3D

  8  7  0  0  0  0  0  0  0  0999 V2000
  134.7144   53.6724   33.2916 C   0  0  0  0  0  0  0  0  0  0  0  0
  133.3850   53.4518   33.2930 C   0  0  0  0  0  0  0  0  0  0  0  0
  136.2241   53.7681   32.4316 C   0  0  0  0  0  0  0  0  0  0  0  0
  136.7838   52.5311   32.1342 O   0  0  0  0  0  0  0  0  0  0  0  0
  130.3252   51.8810   32.4986 C   0  0  0  0  0  0  0  0  0  0  0  0
  132.2388   52.4944   33.2695 C   0  0  0  0  0  0  0  0  0  0  0  0
  130.1163   52.0375   32.2950 N   0  0  0  0  0  0  0  0  0  0  0  0
  135.9627   54.2219   31.2917 O   0  0  0  0  0  0  0  0  0  0  0  0
  2  1  1  0
  3  1  1  0
  4  3  1  0
  6  2  1  0
  6  5  2  3
  7  5  1  0
  8  3  1  0
M  END
>  <ID>  (1) 
conformer_0

$$$$
