
     RDKit          3D

  8  7  0  0  0  0  0  0  0  0999 V2000
  133.6423   53.3641   33.4543 C   0  0  0  0  0  0  0  0  0  0  0  0
  134.9132   53.5983   33.5620 C   0  0  0  0  0  0  0  0  0  0  0  0
  136.1014   53.7517   32.5277 C   0  0  0  0  0  0  0  0  0  0  0  0
  136.8742   52.8393   31.8960 O   0  0  0  0  0  0  0  0  0  0  0  0
  131.4480   52.3475   32.7649 C   0  0  0  0  0  0  0  0  0  0  0  0
  135.3154   54.1816   31.0761 O   0  0  0  0  0  0  0  0  0  0  0  0
  132.3678   52.8066   33.1402 C   0  0  0  0  0  0  0  0  0  0  0  0
  129.5659   51.6002   32.2772 C   0  0  0  0  0  0  0  0  0  0  0  0
  2  1  1  0
  3  2  1  0
  4  3  1  0
  6  3  1  0
  7  1  1  0
  7  5  3  0
  8  5  1  0
M  END
>  <ID>  (1) 
conformer_0

$$$$
