
     RDKit          3D

  9  8  0  0  0  0  0  0  0  0999 V2000
  134.7794   53.2234   33.6559 C   0  0  0  0  0  0  0  0  0  0  0  0
  133.4765   53.8324   33.3775 C   0  0  0  0  0  0  0  0  0  0  0  0
  135.8442   53.7396   32.4142 C   0  0  0  0  0  0  0  0  0  0  0  0
  131.6823   52.3895   32.7060 C   0  0  0  0  0  0  0  0  0  0  0  0
  135.9661   54.6673   32.4204 O   0  0  0  0  0  0  0  0  0  0  0  0
  136.9176   52.5592   31.9051 O   0  0  0  0  0  0  0  0  0  0  0  0
  132.4583   53.1357   33.1583 C   0  0  0  0  0  0  0  0  0  0  0  0
  130.6146   52.4618   32.5044 N   0  0  0  0  0  0  0  0  0  0  0  0
  129.6989   51.6469   32.3416 C   0  0  0  0  0  0  0  0  0  0  0  0
  2  1  1  0
  3  1  1  0
  5  3  2  0
  6  3  1  0
  7  2  2  0
  7  4  2  0
  8  4  1  0
  9  8  1  0
M  END
>  <ID>  (1) 
conformer_0

$$$$
