
     RDKit          3D

  7  6  0  0  0  0  0  0  0  0999 V2000
  133.8359   52.9975   33.4363 C   0  0  0  0  0  0  0  0  0  0  0  0
  134.1586   54.2405   33.5519 C   0  0  0  0  0  0  0  0  0  0  0  0
  135.9025   54.1485   32.4579 C   0  0  0  0  0  0  0  0  0  0  0  0
  130.9052   51.9218   32.5737 C   0  0  0  0  0  0  0  0  0  0  0  0
  135.7666   54.1980   30.9618 O   0  0  0  0  0  0  0  0  0  0  0  0
  130.1211   51.5179   32.6993 N   0  0  0  0  0  0  0  0  0  0  0  0
  132.3035   52.8575   33.0565 C   0  0  0  0  0  0  0  0  0  0  0  0
  2  1  1  0
  3  2  1  0
  5  3  1  0
  6  4  1  0
  7  1  1  0
  7  4  1  0
M  END
>  <ID>  (1) 
conformer_0

$$$$
