
     RDKit          3D

  9  8  0  0  0  0  0  0  0  0999 V2000
  134.7229   53.6343   33.4996 C   0  0  0  0  0  0  0  0  0  0  0  0
  133.5617   53.6253   33.5025 C   0  0  0  0  0  0  0  0  0  0  0  0
  130.1139   52.5567   32.4895 N   0  0  0  0  0  0  0  0  0  0  0  0
  136.2423   53.7990   32.1210 C   0  0  0  0  0  0  0  0  0  0  0  0
  129.3732   51.2342   32.4904 C   0  0  0  0  0  0  0  0  0  0  0  0
  137.0480   52.8053   31.7604 O   0  0  0  0  0  0  0  0  0  0  0  0
  135.8716   54.0523   30.8276 O   0  0  0  0  0  0  0  0  0  0  0  0
  132.4439   52.6215   33.3068 C   0  0  0  0  0  0  0  0  0  0  0  0
  131.3326   52.1922   32.8545 C   0  0  0  0  0  0  0  0  0  0  0  0
  2  1  1  0
  4  1  1  0
  5  3  1  0
  6  4  1  0
  7  4  1  0
  8  2  2  0
  9  3  1  0
  9  8  2  0
M  END
>  <ID>  (1) 
conformer_0

$$$$
