
     RDKit          3D

  9  8  0  0  0  0  0  0  0  0999 V2000
  133.2640   53.4270   33.3634 C   0  0  0  0  0  0  0  0  0  0  0  0
  131.7992   52.7698   32.8277 C   0  0  0  0  0  0  0  0  0  0  0  0
  136.0964   53.6800   32.6687 C   0  0  0  0  0  0  0  0  0  0  0  0
  130.1574   51.8571   32.3993 C   0  0  0  0  0  0  0  0  0  0  0  0
  136.6979   52.4891   31.9396 O   0  0  0  0  0  0  0  0  0  0  0  0
  134.5979   53.4898   33.7512 C   0  0  0  0  0  0  0  0  0  0  0  0
  129.2980   51.8402   32.4637 N   0  0  0  0  0  0  0  0  0  0  0  0
  135.5172   53.9984   31.3843 O   0  0  0  0  0  0  0  0  0  0  0  0
  136.9784   54.7934   33.6174 N   0  0  0  0  0  0  0  0  0  0  0  0
  2  1  3  0
  4  2  1  0
  5  3  1  0
  6  1  1  0
  6  3  1  0
  7  4  1  0
  8  3  1  0
  9  3  1  0
M  END
>  <ID>  (1) 
conformer_0

$$$$
