
     RDKit          3D

  9  8  0  0  0  0  0  0  0  0999 V2000
  133.4029   53.4639   33.2759 C   0  0  0  0  0  0  0  0  0  0  0  0
  135.8253   53.8574   32.6775 C   0  0  0  0  0  0  0  0  0  0  0  0
  130.1755   52.8535   32.3519 N   0  0  0  0  0  0  0  0  0  0  0  0
  134.5337   53.6669   33.7987 C   0  0  0  0  0  0  0  0  0  0  0  0
  136.9492   53.1324   32.1351 O   0  0  0  0  0  0  0  0  0  0  0  0
  135.4159   54.9241   31.7218 O   0  0  0  0  0  0  0  0  0  0  0  0
  130.5188   51.9045   32.5824 C   0  0  0  0  0  0  0  0  0  0  0  0
  132.5418   52.4541   33.3235 C   0  0  0  0  0  0  0  0  0  0  0  0
  129.9475   50.9364   32.5596 C   0  0  0  0  0  0  0  0  0  0  0  0
  4  1  1  0
  4  2  1  0
  5  2  1  0
  6  2  2  0
  7  3  1  0
  8  1  2  3
  8  7  1  0
  9  7  2  3
M  END
>  <ID>  (1) 
conformer_0

$$$$
