
     RDKit          3D

  9  8  0  0  0  0  0  0  0  0999 V2000
  134.5971   53.5151   33.8504 C   0  0  0  0  0  0  0  0  0  0  0  0
  133.4295   53.7189   33.3271 C   0  0  0  0  0  0  0  0  0  0  0  0
  135.8539   53.7964   32.4852 C   0  0  0  0  0  0  0  0  0  0  0  0
  129.4578   51.2763   32.4517 C   0  0  0  0  0  0  0  0  0  0  0  0
  136.5548   52.7712   31.6610 O   0  0  0  0  0  0  0  0  0  0  0  0
  135.8870   54.7910   31.9540 O   0  0  0  0  0  0  0  0  0  0  0  0
  130.3910   51.9778   32.3760 N   0  0  0  0  0  0  0  0  0  0  0  0
  132.4191   52.9365   33.1602 C   0  0  0  0  0  0  0  0  0  0  0  0
  131.5157   52.1759   32.6742 C   0  0  0  0  0  0  0  0  0  0  0  0
  2  1  1  0
  3  1  1  0
  5  3  1  0
  6  3  2  0
  7  4  1  0
  8  2  2  0
  9  7  1  0
  9  8  2  0
M  END
>  <ID>  (1) 
conformer_0

$$$$
