
     RDKit          3D

 10  9  0  0  0  0  0  0  0  0999 V2000
  133.5914   53.1131   33.4744 C   0  0  0  0  0  0  0  0  0  0  0  0
  134.6916   53.6871   33.8156 C   0  0  0  0  0  0  0  0  0  0  0  0
  136.3577   53.3200   32.0254 C   0  0  0  0  0  0  0  0  0  0  0  0
  131.1335   52.6057   32.4351 C   0  0  0  0  0  0  0  0  0  0  0  0
  137.0241   52.6898   31.4744 O   0  0  0  0  0  0  0  0  0  0  0  0
  135.1532   54.0703   31.2850 O   0  0  0  0  0  0  0  0  0  0  0  0
  129.9910   52.3181   32.5105 N   0  0  0  0  0  0  0  0  0  0  0  0
  132.2486   52.9421   33.1010 C   0  0  0  0  0  0  0  0  0  0  0  0
  136.0498   54.1312   33.4623 C   0  0  0  0  0  0  0  0  0  0  0  0
  129.3618   51.2708   32.3446 C   0  0  0  0  0  0  0  0  0  0  0  0
  2  1  1  0
  5  3  1  0
  6  3  2  0
  7  4  1  0
  8  1  3  0
  8  4  1  0
  9  2  1  0
  9  3  1  0
 10  7  1  0
M  END
>  <ID>  (1) 
conformer_0

$$$$
