
     RDKit          3D

  8  7  0  0  0  0  0  0  0  0999 V2000
  133.7495   54.1596   33.2492 C   0  0  0  0  0  0  0  0  0  0  0  0
  135.9475   53.7720   32.5779 C   0  0  0  0  0  0  0  0  0  0  0  0
  134.7022   53.7001   33.6810 C   0  0  0  0  0  0  0  0  0  0  0  0
  136.7652   52.8903   32.3898 O   0  0  0  0  0  0  0  0  0  0  0  0
  129.9321   51.4490   32.3365 C   0  0  0  0  0  0  0  0  0  0  0  0
  136.3185   54.2952   31.6746 O   0  0  0  0  0  0  0  0  0  0  0  0
  131.1242   52.2119   32.6461 C   0  0  0  0  0  0  0  0  0  0  0  0
  132.5983   52.5774   33.0999 C   0  0  0  0  0  0  0  0  0  0  0  0
  3  1  1  0
  3  2  1  0
  4  2  1  0
  6  2  2  0
  7  5  1  0
  8  1  1  0
  8  7  1  0
M  END
>  <ID>  (1) 
conformer_0

$$$$
