
     RDKit          3D

 10  9  0  0  0  0  0  0  0  0999 V2000
  134.4781   53.5551   33.4310 C   0  0  0  0  0  0  0  0  0  0  0  0
  133.4972   54.2218   33.4997 C   0  0  0  0  0  0  0  0  0  0  0  0
  136.0992   53.5750   32.6505 C   0  0  0  0  0  0  0  0  0  0  0  0
  136.9172   52.3478   31.6947 O   0  0  0  0  0  0  0  0  0  0  0  0
  131.5102   52.4892   32.7004 C   0  0  0  0  0  0  0  0  0  0  0  0
  136.6107   54.2719   31.9103 O   0  0  0  0  0  0  0  0  0  0  0  0
  130.5313   52.6380   32.3475 N   0  0  0  0  0  0  0  0  0  0  0  0
  132.5484   52.9510   33.2276 C   0  0  0  0  0  0  0  0  0  0  0  0
  136.6161   54.7226   33.4818 N   0  0  0  0  0  0  0  0  0  0  0  0
  129.6332   51.3233   32.4271 C   0  0  0  0  0  0  0  0  0  0  0  0
  2  1  1  0
  3  1  1  0
  4  3  1  0
  6  3  1  0
  7  5  1  0
  8  2  1  0
  8  5  1  0
  9  3  1  0
 10  7  1  0
M  END
>  <ID>  (1) 
conformer_0

$$$$
