
     RDKit          3D

  7  6  0  0  0  0  0  0  0  0999 V2000
  132.0755   52.7808   32.9211 C   0  0  0  0  0  0  0  0  0  0  0  0
  136.0585   53.8185   32.6313 C   0  0  0  0  0  0  0  0  0  0  0  0
  132.9364   53.9576   32.8834 C   0  0  0  0  0  0  0  0  0  0  0  0
  137.1563   52.9575   32.0723 O   0  0  0  0  0  0  0  0  0  0  0  0
  130.2992   51.5084   32.5860 C   0  0  0  0  0  0  0  0  0  0  0  0
  135.5204   54.6967   31.5220 O   0  0  0  0  0  0  0  0  0  0  0  0
  134.2703   53.2181   33.6177 C   0  0  0  0  0  0  0  0  0  0  0  0
  3  1  1  0
  4  2  1  0
  5  1  1  0
  6  2  1  0
  7  2  1  0
  7  3  1  0
M  END
>  <ID>  (1) 
conformer_0

$$$$
