
     RDKit          3D

 10  9  0  0  0  0  0  0  0  0999 V2000
  131.9974   52.4198   33.0397 C   0  0  0  0  0  0  0  0  0  0  0  0
  132.6614   53.7179   33.1389 C   0  0  0  0  0  0  0  0  0  0  0  0
  136.3905   53.4411   31.6963 C   0  0  0  0  0  0  0  0  0  0  0  0
  130.0622   52.3495   32.3992 N   0  0  0  0  0  0  0  0  0  0  0  0
  137.0269   52.6656   31.5357 O   0  0  0  0  0  0  0  0  0  0  0  0
  135.3882   53.9185   31.1631 O   0  0  0  0  0  0  0  0  0  0  0  0
  130.3963   52.0401   32.4930 C   0  0  0  0  0  0  0  0  0  0  0  0
  133.9744   53.3122   33.2921 C   0  0  0  0  0  0  0  0  0  0  0  0
  134.9161   54.0836   33.7946 C   0  0  0  0  0  0  0  0  0  0  0  0
  136.1218   54.2724   33.0617 C   0  0  0  0  0  0  0  0  0  0  0  0
  2  1  1  0
  5  3  1  0
  6  3  2  0
  7  1  2  3
  7  4  1  0
  8  2  1  0
  9  8  1  0
 10  3  1  0
 10  9  2  3
M  END
>  <ID>  (1) 
conformer_0

$$$$
