
     RDKit          3D

 10 10  0  0  0  0  0  0  0  0999 V2000
  133.3139   53.6787   33.2909 C   0  0  0  0  0  0  0  0  0  0  0  0
  135.8458   53.6717   32.2125 C   0  0  0  0  0  0  0  0  0  0  0  0
  130.4796   51.9598   32.5935 N   0  0  0  0  0  0  0  0  0  0  0  0
  131.3709   52.4539   32.7315 C   0  0  0  0  0  0  0  0  0  0  0  0
  134.5310   53.4833   33.5254 C   0  0  1  0  0  0  0  0  0  0  0  0
  136.4598   52.8377   31.5776 O   0  0  0  0  0  0  0  0  0  0  0  0
  136.4024   54.7207   31.3909 O   0  0  0  0  0  0  0  0  0  0  0  0
  129.5116   51.1841   32.4464 C   0  0  0  0  0  0  0  0  0  0  0  0
  136.0523   54.7073   33.3571 C   0  0  0  0  0  0  0  0  0  0  0  0
  132.5586   52.5194   33.1847 C   0  0  0  0  0  0  0  0  0  0  0  0
  4  3  1  0
  5  1  1  6
  5  2  1  0
  6  2  1  0
  7  2  1  0
  8  3  1  0
  9  2  1  0
  9  5  1  0
 10  1  1  0
 10  4  2  3
M  END
>  <ID>  (1) 
conformer_0

$$$$
