
     RDKit          3D

  6  5  0  0  0  0  0  0  0  0999 V2000
  133.9313   53.7022   33.3030 C   0  0  0  0  0  0  0  0  0  0  0  0
  136.0998   54.1601   32.6493 C   0  0  0  0  0  0  0  0  0  0  0  0
  132.8957   53.1976   33.1187 C   0  0  0  0  0  0  0  0  0  0  0  0
  129.4683   51.2054   32.5286 C   0  0  0  0  0  0  0  0  0  0  0  0
  137.2063   52.9391   31.9981 O   0  0  0  0  0  0  0  0  0  0  0  0
  131.4905   52.1405   32.9590 C   0  0  0  0  0  0  0  0  0  0  0  0
  2  1  1  0
  3  1  1  0
  5  2  1  0
  6  3  3  0
  6  4  1  0
M  END
>  <ID>  (1) 
conformer_0

$$$$
