
     RDKit          3D

  8  7  0  0  0  0  0  0  0  0999 V2000
  134.0053   53.6860   33.4501 C   0  0  0  0  0  0  0  0  0  0  0  0
  136.1451   53.9140   32.8305 C   0  0  0  0  0  0  0  0  0  0  0  0
  131.4577   52.6819   32.5784 C   0  0  0  0  0  0  0  0  0  0  0  0
  136.9710   52.4309   31.7982 O   0  0  0  0  0  0  0  0  0  0  0  0
  133.0534   53.4137   33.2118 C   0  0  0  0  0  0  0  0  0  0  0  0
  136.1815   55.2220   33.2838 N   0  0  0  0  0  0  0  0  0  0  0  0
  129.6001   51.3454   32.4559 C   0  0  0  0  0  0  0  0  0  0  0  0
  135.3669   54.2799   31.4576 O   0  0  0  0  0  0  0  0  0  0  0  0
  2  1  1  0
  4  2  1  0
  5  1  1  0
  5  3  3  0
  6  2  1  0
  7  3  1  0
  8  2  1  0
M  END
>  <ID>  (1) 
conformer_0

$$$$
