
     RDKit          3D

  7  6  0  0  0  0  0  0  0  0999 V2000
  133.1195   53.2062   33.2038 C   0  0  0  0  0  0  0  0  0  0  0  0
  131.7456   52.9381   32.7478 C   0  0  0  0  0  0  0  0  0  0  0  0
  135.9034   53.8931   32.5808 C   0  0  0  0  0  0  0  0  0  0  0  0
  130.0697   51.7050   32.4503 C   0  0  0  0  0  0  0  0  0  0  0  0
  136.3370   53.7580   32.4225 N   0  0  0  0  0  0  0  0  0  0  0  0
  134.3980   53.8367   33.6667 C   0  0  0  0  0  0  0  0  0  0  0  0
  129.7898   51.5539   32.6920 N   0  0  0  0  0  0  0  0  0  0  0  0
  2  1  2  0
  4  2  1  0
  5  3  3  0
  6  1  2  0
  6  3  1  0
  7  4  1  0
M  END
>  <ID>  (1) 
conformer_0

$$$$
