
     RDKit          3D

 10 10  0  0  0  0  0  0  0  0999 V2000
  133.4658   52.8674   33.2949 C   0  0  0  0  0  0  0  0  0  0  0  0
  136.5642   53.3983   32.0949 C   0  0  1  0  0  0  0  0  0  0  0  0
  134.4378   53.7132   33.4568 C   0  0  0  0  0  0  0  0  0  0  0  0
  131.3548   52.5981   32.5387 C   0  0  0  0  0  0  0  0  0  0  0  0
  136.8617   52.3316   31.9657 O   0  0  0  0  0  0  0  0  0  0  0  0
  130.1773   51.7907   32.8810 N   0  0  0  0  0  0  0  0  0  0  0  0
  135.5090   54.1101   31.1875 O   0  0  0  0  0  0  0  0  0  0  0  0
  132.2632   53.3368   33.0331 C   0  0  0  0  0  0  0  0  0  0  0  0
  129.6246   51.3593   32.3063 C   0  0  0  0  0  0  0  0  0  0  0  0
  135.5188   54.5850   32.8768 C   0  0  2  0  0  0  0  0  0  0  0  0
  3  1  1  0
  2  5  1  1
  6  4  1  0
  7  2  1  0
  8  1  2  3
  8  4  1  0
  9  6  1  0
 10  2  1  0
 10  3  1  1
 10  7  1  0
M  END
>  <ID>  (1) 
conformer_0

$$$$
