
     RDKit          3D

  8  7  0  0  0  0  0  0  0  0999 V2000
  133.6567   53.9791   33.3597 C   0  0  0  0  0  0  0  0  0  0  0  0
  136.2339   53.6115   32.6792 C   0  0  0  0  0  0  0  0  0  0  0  0
  134.5951   53.2870   33.5804 C   0  0  0  0  0  0  0  0  0  0  0  0
  130.2366   52.0570   32.3472 C   0  0  0  0  0  0  0  0  0  0  0  0
  136.7665   52.2020   31.9636 O   0  0  0  0  0  0  0  0  0  0  0  0
  135.2811   54.0665   31.2206 O   0  0  0  0  0  0  0  0  0  0  0  0
  130.1685   52.3582   32.4614 N   0  0  0  0  0  0  0  0  0  0  0  0
  132.4660   52.7331   33.1683 C   0  0  0  0  0  0  0  0  0  0  0  0
  3  1  1  0
  3  2  1  0
  5  2  1  0
  6  2  1  0
  7  4  1  0
  8  1  1  0
  8  4  1  0
M  END
>  <ID>  (1) 
conformer_0

$$$$
