
     RDKit          3D

  8  7  0  0  0  0  0  0  0  0999 V2000
  132.1581   52.9254   33.0562 C   0  0  0  0  0  0  0  0  0  0  0  0
  135.9454   53.7447   32.6668 C   0  0  0  0  0  0  0  0  0  0  0  0
  133.4552   53.0771   33.6744 C   0  0  0  0  0  0  0  0  0  0  0  0
  130.2574   52.0754   32.6637 N   0  0  0  0  0  0  0  0  0  0  0  0
  136.9316   53.0234   31.8567 O   0  0  0  0  0  0  0  0  0  0  0  0
  130.6183   52.0487   32.4618 C   0  0  0  0  0  0  0  0  0  0  0  0
  135.6597   54.1704   31.1837 O   0  0  0  0  0  0  0  0  0  0  0  0
  134.3086   53.7230   33.4142 C   0  0  0  0  0  0  0  0  0  0  0  0
  3  1  2  0
  5  2  1  0
  6  1  2  0
  6  4  1  0
  7  2  1  0
  8  2  1  0
  8  3  1  0
M  END
>  <ID>  (1) 
conformer_0

$$$$
