
     RDKit          3D

 10  9  0  0  0  0  0  0  0  0999 V2000
  134.5769   53.6747   33.8431 C   0  0  0  0  0  0  0  0  0  0  0  0
  135.4868   54.0450   32.2645 C   0  0  0  0  0  0  0  0  0  0  0  0
  133.5092   53.6096   33.2300 C   0  0  0  0  0  0  0  0  0  0  0  0
  135.3624   54.3520   31.2616 O   0  0  0  0  0  0  0  0  0  0  0  0
  129.2960   51.4538   32.2979 C   0  0  0  0  0  0  0  0  0  0  0  0
  137.2321   52.8295   32.2967 O   0  0  0  0  0  0  0  0  0  0  0  0
  130.1447   52.4165   32.3207 N   0  0  0  0  0  0  0  0  0  0  0  0
  132.3195   52.7134   33.0854 C   0  0  0  0  0  0  0  0  0  0  0  0
  136.7825   53.8468   33.2083 C   0  0  0  0  0  0  0  0  0  0  0  0
  131.2865   52.1361   32.6383 C   0  0  0  0  0  0  0  0  0  0  0  0
  2  1  1  0
  3  1  1  0
  4  2  2  0
  7  5  1  0
  8  3  2  0
  9  2  1  0
  9  6  1  0
 10  7  1  0
 10  8  2  0
M  END
>  <ID>  (1) 
conformer_0

$$$$
