
     RDKit          3D

  8  7  0  0  0  0  0  0  0  0999 V2000
  132.6058   53.1927   33.1498 C   0  0  0  0  0  0  0  0  0  0  0  0
  131.4195   52.2715   32.8831 C   0  0  0  0  0  0  0  0  0  0  0  0
  136.3454   53.8833   32.4028 C   0  0  0  0  0  0  0  0  0  0  0  0
  137.3906   52.8885   32.0691 O   0  0  0  0  0  0  0  0  0  0  0  0
  129.9715   51.5432   32.4166 C   0  0  0  0  0  0  0  0  0  0  0  0
  133.9055   53.3458   33.4162 C   0  0  0  0  0  0  0  0  0  0  0  0
  136.3194   54.5444   31.2921 O   0  0  0  0  0  0  0  0  0  0  0  0
  135.2285   53.4881   33.3780 C   0  0  0  0  0  0  0  0  0  0  0  0
  2  1  1  0
  4  3  1  0
  5  2  1  0
  6  1  2  0
  7  3  2  0
  8  3  1  0
  8  6  2  0
M  END
>  <ID>  (1) 
conformer_0

$$$$
