
     RDKit          3D

 10  9  0  0  0  0  0  0  0  0999 V2000
  134.3385   53.4405   33.7106 C   0  0  0  0  0  0  0  0  0  0  0  0
  136.0103   53.7294   33.4249 C   0  0  0  0  0  0  0  0  0  0  0  0
  133.2356   53.8444   32.9809 C   0  0  0  0  0  0  0  0  0  0  0  0
  129.6712   51.1898   32.7234 C   0  0  0  0  0  0  0  0  0  0  0  0
  136.6789   52.7743   31.7540 O   0  0  0  0  0  0  0  0  0  0  0  0
  135.7696   54.4879   31.3139 O   0  0  0  0  0  0  0  0  0  0  0  0
  130.9119   52.0758   32.5810 C   0  0  0  0  0  0  0  0  0  0  0  0
  130.8700   52.5385   31.8089 O   0  0  0  0  0  0  0  0  0  0  0  0
  132.2954   52.5706   33.3035 C   0  0  0  0  0  0  0  0  0  0  0  0
  135.6862   53.8721   31.8675 C   0  0  0  0  0  0  0  0  0  0  0  0
  2  1  1  0
  3  1  1  0
  7  4  1  0
  8  7  2  0
  9  3  1  0
  9  7  1  0
 10  2  1  0
 10  5  1  0
 10  6  1  0
M  END
>  <ID>  (1) 
conformer_0

$$$$
