
     RDKit          3D

  8  7  0  0  0  0  0  0  0  0999 V2000
  133.5506   53.3064   33.4900 C   0  0  0  0  0  0  0  0  0  0  0  0
  136.3204   54.0121   32.4601 C   0  0  0  0  0  0  0  0  0  0  0  0
  132.2375   52.7752   33.1777 C   0  0  0  0  0  0  0  0  0  0  0  0
  130.1424   51.8292   32.3990 C   0  0  0  0  0  0  0  0  0  0  0  0
  135.7624   54.0800   31.1012 O   0  0  0  0  0  0  0  0  0  0  0  0
  137.1270   52.8494   31.9930 O   0  0  0  0  0  0  0  0  0  0  0  0
  134.9198   53.3042   33.6407 C   0  0  0  0  0  0  0  0  0  0  0  0
  129.9951   51.9917   32.2092 N   0  0  0  0  0  0  0  0  0  0  0  0
  3  1  3  0
  4  3  1  0
  5  2  1  0
  6  2  1  0
  7  1  1  0
  7  2  1  0
  8  4  1  0
M  END
>  <ID>  (1) 
conformer_0

$$$$
