
     RDKit          3D

  9  8  0  0  0  0  0  0  0  0999 V2000
  133.2333   53.6094   33.3123 C   0  0  0  0  0  0  0  0  0  0  0  0
  134.7506   53.5373   33.3634 C   0  0  0  0  0  0  0  0  0  0  0  0
  130.9384   52.3876   32.5717 C   0  0  0  0  0  0  0  0  0  0  0  0
  136.3329   53.6109   32.3722 C   0  0  0  0  0  0  0  0  0  0  0  0
  130.0015   52.4057   32.5443 N   0  0  0  0  0  0  0  0  0  0  0  0
  137.5383   52.6900   31.6832 O   0  0  0  0  0  0  0  0  0  0  0  0
  132.1797   52.6127   33.0967 C   0  0  0  0  0  0  0  0  0  0  0  0
  136.9286   54.5679   32.5158 O   0  0  0  0  0  0  0  0  0  0  0  0
  129.3194   51.2848   32.2520 C   0  0  0  0  0  0  0  0  0  0  0  0
  2  1  1  0
  4  2  1  0
  5  3  1  0
  6  4  1  0
  7  1  1  0
  7  3  1  0
  8  4  2  0
  9  5  1  0
M  END
>  <ID>  (1) 
conformer_0

$$$$
