
     RDKit          3D

 11 11  0  0  0  0  0  0  0  0999 V2000
  133.3152   53.7475   33.1481 C   0  0  0  0  0  0  0  0  0  0  0  0
  136.8089   53.8858   32.3148 C   0  0  0  0  0  0  0  0  0  0  0  0
  131.7021   52.3250   32.8133 C   0  0  0  0  0  0  0  0  0  0  0  0
  130.2702   52.0838   32.5885 N   0  0  0  0  0  0  0  0  0  0  0  0
  134.5156   53.6516   33.2889 C   0  0  0  0  0  0  0  0  0  0  0  0
  136.6702   52.9249   31.9510 O   0  0  0  0  0  0  0  0  0  0  0  0
  135.3672   54.0404   31.1660 O   0  0  0  0  0  0  0  0  0  0  0  0
  136.5122   54.5090   33.8794 N   0  0  0  0  0  0  0  0  0  0  0  0
  129.8765   51.3553   32.3193 C   0  0  0  0  0  0  0  0  0  0  0  0
  132.5525   52.4699   33.3431 C   0  0  0  0  0  0  0  0  0  0  0  0
  135.3992   54.0691   33.0871 C   0  0  0  0  0  0  0  0  0  0  0  0
  4  3  1  0
  5  1  1  0
  6  2  1  0
  7  2  1  0
  8  2  1  0
  9  4  1  0
 10  1  1  0
 10  3  1  0
 11  2  1  0
 11  5  1  0
 11  8  1  0
M  END
>  <ID>  (1) 
conformer_0

$$$$
