
     RDKit          3D

 10  9  0  0  0  0  0  0  0  0999 V2000
  132.3291   52.7198   33.2017 C   0  0  0  0  0  0  0  0  0  0  0  0
  136.7515   54.5708   32.3451 C   0  0  0  0  0  0  0  0  0  0  0  0
  133.2946   53.5416   33.3713 C   0  0  0  0  0  0  0  0  0  0  0  0
  131.1183   52.7483   32.5563 C   0  0  0  0  0  0  0  0  0  0  0  0
  130.1995   52.4900   32.3573 N   0  0  0  0  0  0  0  0  0  0  0  0
  137.0375   52.9025   31.5704 O   0  0  0  0  0  0  0  0  0  0  0  0
  135.2177   54.3595   31.1813 O   0  0  0  0  0  0  0  0  0  0  0  0
  134.5413   53.2571   33.7273 C   0  0  0  0  0  0  0  0  0  0  0  0
  129.4943   51.4625   32.3748 C   0  0  0  0  0  0  0  0  0  0  0  0
  135.8347   53.5543   32.8295 C   0  0  0  0  0  0  0  0  0  0  0  0
  3  1  2  3
  4  1  1  0
  5  4  1  0
  8  3  1  0
  9  5  1  0
 10  2  1  0
 10  6  1  0
 10  7  1  0
 10  8  1  0
M  END
>  <ID>  (1) 
conformer_0

$$$$
