
     RDKit          3D

 10  9  0  0  0  0  0  0  0  0999 V2000
  134.4410   53.4516   33.6524 C   0  0  0  0  0  0  0  0  0  0  0  0
  133.3497   53.3696   33.3487 C   0  0  0  0  0  0  0  0  0  0  0  0
  136.5535   53.8224   31.9904 C   0  0  0  0  0  0  0  0  0  0  0  0
  131.3397   52.1365   32.7311 C   0  0  0  0  0  0  0  0  0  0  0  0
  135.8935   54.2363   31.1354 O   0  0  0  0  0  0  0  0  0  0  0  0
  137.5531   53.2293   32.1332 O   0  0  0  0  0  0  0  0  0  0  0  0
  136.3199   54.1503   32.8687 N   0  0  0  0  0  0  0  0  0  0  0  0
  132.2559   52.7721   33.1771 C   0  0  0  0  0  0  0  0  0  0  0  0
  129.5062   51.3296   32.4464 C   0  0  0  0  0  0  0  0  0  0  0  0
  135.6541   54.3421   33.2759 C   0  0  0  0  0  0  0  0  0  0  0  0
  2  1  1  0
  5  3  2  0
  6  3  1  0
  7  3  1  0
  8  2  1  0
  8  4  3  0
  9  4  1  0
 10  1  1  0
 10  7  1  0
M  END
>  <ID>  (1) 
conformer_0

$$$$
