
     RDKit          3D

 10  9  0  0  0  0  0  0  0  0999 V2000
  133.9826   53.6284   33.5724 C   0  0  0  0  0  0  0  0  0  0  0  0
  135.1376   53.5542   34.2195 C   0  0  0  0  0  0  0  0  0  0  0  0
  135.9509   54.1363   33.2831 C   0  0  0  0  0  0  0  0  0  0  0  0
  136.9639   52.8112   31.5590 O   0  0  0  0  0  0  0  0  0  0  0  0
  135.3297   54.2698   31.3250 O   0  0  0  0  0  0  0  0  0  0  0  0
  130.1539   51.7144   32.3530 C   0  0  0  0  0  0  0  0  0  0  0  0
  130.0690   52.4013   32.2957 N   0  0  0  0  0  0  0  0  0  0  0  0
  133.0884   52.6825   33.4270 C   0  0  0  0  0  0  0  0  0  0  0  0
  131.8674   52.7329   33.0152 C   0  0  0  0  0  0  0  0  0  0  0  0
  136.4353   53.6537   31.6566 C   0  0  0  0  0  0  0  0  0  0  0  0
  2  1  1  0
  3  2  1  0
  7  6  1  0
  8  1  2  3
  9  7  1  0
  9  8  1  0
 10  3  1  0
 10  4  1  0
 10  5  2  0
M  END
>  <ID>  (1) 
conformer_0

$$$$
