
     RDKit          3D

 10  9  0  0  0  0  0  0  0  0999 V2000
  134.4000   53.2915   33.6315 C   0  0  0  0  0  0  0  0  0  0  0  0
  136.7487   53.5338   32.4219 C   0  0  0  0  0  0  0  0  0  0  0  0
  133.3429   53.5402   33.2629 C   0  0  0  0  0  0  0  0  0  0  0  0
  136.7444   52.2939   31.8942 O   0  0  0  0  0  0  0  0  0  0  0  0
  130.4978   51.8404   32.5707 C   0  0  0  0  0  0  0  0  0  0  0  0
  136.2497   53.7788   30.7048 O   0  0  0  0  0  0  0  0  0  0  0  0
  135.9653   53.9090   32.5780 N   0  0  0  0  0  0  0  0  0  0  0  0
  130.3026   52.2872   32.8420 N   0  0  0  0  0  0  0  0  0  0  0  0
  132.1149   52.6584   33.1117 C   0  0  0  0  0  0  0  0  0  0  0  0
  135.1050   54.1629   32.5824 C   0  0  0  0  0  0  0  0  0  0  0  0
  3  1  1  0
  4  2  1  0
  6  2  1  0
  7  2  1  0
  8  5  1  0
  9  3  1  0
  9  5  1  0
 10  1  1  0
 10  7  1  0
M  END
>  <ID>  (1) 
conformer_0

$$$$
