
     RDKit          3D

  9  8  0  0  0  0  0  0  0  0999 V2000
  132.5389   52.5708   33.2787 C   0  0  0  0  0  0  0  0  0  0  0  0
  135.8958   53.7036   32.7537 C   0  0  0  0  0  0  0  0  0  0  0  0
  133.1715   53.8998   33.1928 C   0  0  0  0  0  0  0  0  0  0  0  0
  131.6964   52.2709   32.9589 C   0  0  0  0  0  0  0  0  0  0  0  0
  136.5255   52.3012   32.3130 O   0  0  0  0  0  0  0  0  0  0  0  0
  130.3773   52.7899   32.5025 N   0  0  0  0  0  0  0  0  0  0  0  0
  136.0801   54.6211   32.1306 O   0  0  0  0  0  0  0  0  0  0  0  0
  134.2975   53.6865   33.3808 C   0  0  0  0  0  0  0  0  0  0  0  0
  129.7266   51.7027   32.3677 C   0  0  0  0  0  0  0  0  0  0  0  0
  3  1  1  0
  4  1  1  0
  5  2  1  0
  6  4  1  0
  7  2  2  0
  8  2  1  0
  8  3  1  0
  9  6  1  0
M  END
>  <ID>  (1) 
conformer_0

$$$$
