
     RDKit          3D

  7  6  0  0  0  0  0  0  0  0999 V2000
  132.9943   53.2349   33.3082 C   0  0  0  0  0  0  0  0  0  0  0  0
  135.5629   53.8778   32.9631 C   0  0  0  0  0  0  0  0  0  0  0  0
  131.4253   52.6818   32.7330 C   0  0  0  0  0  0  0  0  0  0  0  0
  135.2170   53.9778   31.3973 O   0  0  0  0  0  0  0  0  0  0  0  0
  134.0784   53.4848   33.6197 C   0  0  0  0  0  0  0  0  0  0  0  0
  129.4782   51.7771   32.1302 C   0  0  0  0  0  0  0  0  0  0  0  0
  136.9443   53.2380   32.3118 C   0  0  0  0  0  0  0  0  0  0  0  0
  3  1  3  0
  4  2  1  0
  5  1  1  0
  5  2  1  0
  6  3  1  0
  7  2  1  0
M  END
>  <ID>  (1) 
conformer_0

$$$$
