
     RDKit          3D

  8  7  0  0  0  0  0  0  0  0999 V2000
  134.6204   53.1363   33.7360 C   0  0  0  0  0  0  0  0  0  0  0  0
  135.8098   53.8314   32.5767 C   0  0  0  0  0  0  0  0  0  0  0  0
  133.3422   53.5210   33.4542 C   0  0  0  0  0  0  0  0  0  0  0  0
  136.9462   52.9259   31.5075 O   0  0  0  0  0  0  0  0  0  0  0  0
  130.2428   51.9461   32.4735 C   0  0  0  0  0  0  0  0  0  0  0  0
  135.6967   54.9900   31.4854 O   0  0  0  0  0  0  0  0  0  0  0  0
  130.2003   52.3150   32.1605 N   0  0  0  0  0  0  0  0  0  0  0  0
  132.3119   52.7964   33.1423 C   0  0  0  0  0  0  0  0  0  0  0  0
  2  1  1  0
  3  1  1  0
  4  2  1  0
  6  2  2  0
  7  5  1  0
  8  3  1  0
  8  5  1  0
M  END
>  <ID>  (1) 
conformer_0

$$$$
