
     RDKit          3D

  8  7  0  0  0  0  0  0  0  0999 V2000
  133.5534   53.1538   33.5797 C   0  0  0  0  0  0  0  0  0  0  0  0
  134.8491   53.1575   33.9469 C   0  0  0  0  0  0  0  0  0  0  0  0
  135.9526   53.7595   32.5646 C   0  0  0  0  0  0  0  0  0  0  0  0
  130.1798   52.0017   32.2981 C   0  0  0  0  0  0  0  0  0  0  0  0
  135.2808   54.3267   31.1182 O   0  0  0  0  0  0  0  0  0  0  0  0
  136.7562   52.5298   31.5629 O   0  0  0  0  0  0  0  0  0  0  0  0
  132.3367   52.8618   33.0847 C   0  0  0  0  0  0  0  0  0  0  0  0
  130.1146   52.4422   32.6273 N   0  0  0  0  0  0  0  0  0  0  0  0
  2  1  1  0
  3  2  1  0
  5  3  1  0
  6  3  1  0
  7  1  3  0
  8  4  1  0
  8  7  1  0
M  END
>  <ID>  (1) 
conformer_0

$$$$
