
     RDKit          3D

  9  8  0  0  0  0  0  0  0  0999 V2000
  132.6123   53.4900   32.9732 C   0  0  0  0  0  0  0  0  0  0  0  0
  131.8607   52.4181   33.0707 C   0  0  0  0  0  0  0  0  0  0  0  0
  136.2064   53.6230   32.3219 C   0  0  0  0  0  0  0  0  0  0  0  0
  136.7937   52.5248   31.8546 O   0  0  0  0  0  0  0  0  0  0  0  0
  130.0268   52.0241   32.2864 C   0  0  0  0  0  0  0  0  0  0  0  0
  136.2201   54.5483   31.9055 O   0  0  0  0  0  0  0  0  0  0  0  0
  129.9700   52.5033   32.2508 N   0  0  0  0  0  0  0  0  0  0  0  0
  133.8605   53.2767   34.0397 C   0  0  0  0  0  0  0  0  0  0  0  0
  134.8534   53.4212   33.3508 C   0  0  0  0  0  0  0  0  0  0  0  0
  2  1  1  0
  4  3  1  0
  5  2  1  0
  6  3  2  0
  7  5  1  0
  8  1  1  0
  9  3  1  0
  9  8  1  0
M  END
>  <ID>  (1) 
conformer_0

$$$$
