
     RDKit          3D

  8  7  0  0  0  0  0  0  0  0999 V2000
  133.4168   53.4004   33.3522 C   0  0  0  0  0  0  0  0  0  0  0  0
  135.9622   53.7997   32.7666 C   0  0  0  0  0  0  0  0  0  0  0  0
  132.1790   53.1338   32.9613 C   0  0  0  0  0  0  0  0  0  0  0  0
  130.5741   52.1698   32.5233 N   0  0  0  0  0  0  0  0  0  0  0  0
  136.8042   52.8574   31.9765 O   0  0  0  0  0  0  0  0  0  0  0  0
  130.9409   52.0327   32.5551 C   0  0  0  0  0  0  0  0  0  0  0  0
  135.3029   54.0871   31.2326 O   0  0  0  0  0  0  0  0  0  0  0  0
  134.8279   53.4608   33.5532 C   0  0  0  0  0  0  0  0  0  0  0  0
  3  1  2  0
  5  2  1  0
  6  3  1  0
  6  4  1  0
  7  2  1  0
  8  1  2  0
  8  2  1  0
M  END
>  <ID>  (1) 
conformer_0

$$$$
