
     RDKit          3D

 38 39  0  0  0  0  0  0  0  0999 V2000
    3.7424  -41.1302   -1.1015 C   0  0  0  0  0  0  0  0  0  0  0  0
    7.7061  -36.4782   -0.4587 C   0  0  0  0  0  0  0  0  0  0  0  0
    1.6094  -40.4351   -0.7065 C   0  0  0  0  0  0  0  0  0  0  0  0
    1.2262  -43.3442    4.0402 C   0  0  0  0  0  0  0  0  0  0  0  0
    6.7344  -41.9583    4.2965 C   0  0  0  0  0  0  0  0  0  0  0  0
    4.3981  -37.5995    7.6472 C   0  0  1  0  0  0  0  0  0  0  0  0
    4.1949  -37.2375    3.5040 C   0  0  1  0  0  0  0  0  0  0  0  0
    5.8376  -42.6372    1.8784 C   0  0  0  0  0  0  0  0  0  0  0  0
    7.4892  -36.8019    1.3009 C   0  0  2  0  0  0  0  0  0  0  0  0
    3.0118  -40.3378   -0.9047 C   0  0  0  0  0  0  0  0  0  0  0  0
    2.3291  -37.5668    2.2907 C   0  0  0  0  0  0  0  0  0  0  0  0
    8.4768  -38.5368    0.4710 C   0  0  0  0  0  0  0  0  0  0  0  0
    3.9097  -36.7762    8.7330 C   0  0  0  0  0  0  0  0  0  0  0  0
    8.3857  -41.9314    4.0804 C   0  0  0  0  0  0  0  0  0  0  0  0
    0.6868  -40.1302    0.6651 C   0  0  0  0  0  0  0  0  0  0  0  0
    4.8064  -38.1518    5.8707 C   0  0  0  0  0  0  0  0  0  0  0  0
    5.2694  -35.9598    9.4987 C   0  0  0  0  0  0  0  0  0  0  0  0
    1.8054  -38.0489    3.4447 C   0  0  0  0  0  0  0  0  0  0  0  0
    7.0308  -35.2507    2.5121 O   0  0  0  0  0  0  0  0  0  0  0  0
    9.6065  -39.9152   -0.1670 O   0  0  0  0  0  0  0  0  0  0  0  0
    5.5851  -36.6923    3.1176 C   0  0  0  0  0  0  0  0  0  0  0  0
    0.4848  -39.6382    2.5572 C   0  0  1  0  0  0  0  0  0  0  0  0
    4.7807  -43.0496    0.0985 C   0  0  0  0  0  0  0  0  0  0  0  0
    2.2888  -40.8272    4.0558 O   0  0  0  0  0  0  0  0  0  0  0  0
    6.3932  -35.0896    9.5186 O   0  0  0  0  0  0  0  0  0  0  0  0
    6.0687  -42.1777    1.2233 O   0  0  0  0  0  0  0  0  0  0  0  0
    7.1846  -37.2881   -1.1313 C   0  0  0  0  0  0  0  0  0  0  0  0
   -0.0631  -42.1793    3.5965 C   0  0  1  0  0  0  0  0  0  0  0  0
    1.3328  -40.9204    3.7169 C   0  0  0  0  0  0  0  0  0  0  0  0
    5.1889  -36.7446    5.4237 C   0  0  2  0  0  0  0  0  0  0  0  0
    5.3047  -36.0305    7.2466 C   0  0  0  0  0  0  0  0  0  0  0  0
    4.7486  -44.0772    0.7969 O   0  0  0  0  0  0  0  0  0  0  0  0
    8.3255  -40.5298    1.2629 C   0  0  0  0  0  0  0  0  0  0  0  0
   -0.5115  -40.8997    2.1892 C   0  0  0  0  0  0  0  0  0  0  0  0
    8.2184  -41.6021    2.7969 C   0  0  0  0  0  0  0  0  0  0  0  0
    8.0002  -38.4511    0.8454 N   0  0  0  0  0  0  0  0  0  0  0  0
    6.8795  -34.4441    8.6978 C   0  0  0  0  0  0  0  0  0  0  0  0
    6.2981  -37.1728    2.2137 O   0  0  0  0  0  0  0  0  0  0  0  0
  9  2  1  0
 10  1  1  0
 10  3  1  0
  7 11  1  6
  6 13  1  6
 14  5  1  0
 15  3  2  3
 16  6  1  0
 17 13  1  0
 18 11  1  0
  9 19  1  1
 20 12  1  0
 21  7  1  0
 22 15  1  0
 22 18  1  6
 23  1  1  0
 25 17  1  0
 26  8  1  0
 26 23  1  0
 27  2  1  0
 28  4  1  6
 29 22  1  0
 29 24  2  0
 29 28  1  0
 30  7  1  0
 30 16  1  1
 31  6  1  0
 31 30  1  0
 32 23  2  0
 33 20  1  0
 34 22  1  0
 34 28  1  0
 35 14  1  0
 35 33  1  0
 36  9  1  0
 36 12  2  3
 37 25  1  0
 38  9  1  0
 38 21  1  0
M  END
>  <ID>  (1) 
conformer_0

$$$$
