
     RDKit          3D

 48 49  0  0  0  0  0  0  0  0999 V2000
   -0.5679  -41.6781    3.9605 C   0  0  1  0  0  0  0  0  0  0  0  0
    3.3155  -41.6500   -0.9837 C   0  0  1  0  0  0  0  0  0  0  0  0
    1.3169  -40.8033   -0.0111 C   0  0  0  0  0  0  0  0  0  0  0  0
    6.9600  -41.8328    3.3399 C   0  0  0  0  0  0  0  0  0  0  0  0
    5.4758  -36.3059    5.8530 C   0  0  0  0  0  0  0  0  0  0  0  0
    6.8059  -37.8084   -1.5304 C   0  0  0  0  0  0  0  0  0  0  0  0
    2.2480  -37.8830    2.8065 C   0  0  0  0  0  0  0  0  0  0  0  0
    4.9556  -43.3997    0.2810 C   0  0  0  0  0  0  0  0  0  0  0  0
    4.1825  -37.1635    8.7784 C   0  0  0  0  0  0  0  0  0  0  0  0
    5.6581  -42.6436    2.3470 C   0  0  1  0  0  0  0  0  0  0  0  0
    8.2708  -40.7596    1.6596 C   0  0  2  0  0  0  0  0  0  0  0  0
    1.9045  -40.7002   -1.2433 C   0  0  0  0  0  0  0  0  0  0  0  0
    4.2567  -37.5999    7.4801 C   0  0  0  0  0  0  0  0  0  0  0  0
    4.7968  -35.9261   10.4829 C   0  0  0  0  0  0  0  0  0  0  0  0
    7.0299  -38.3585    0.3945 C   0  0  0  0  0  0  0  0  0  0  0  0
   -0.3367  -42.8808    4.4759 C   0  0  0  0  0  0  0  0  0  0  0  0
    5.0019  -36.7253    3.3892 C   0  0  0  0  0  0  0  0  0  0  0  0
    7.1837  -35.3700    2.7484 O   0  0  0  0  0  0  0  0  0  0  0  0
    8.7546  -41.8677    3.0550 C   0  0  1  0  0  0  0  0  0  0  0  0
    6.8117  -36.6125   -0.8717 C   0  0  0  0  0  0  0  0  0  0  0  0
    0.4867  -40.1355    3.6562 C   0  0  1  0  0  0  0  0  0  0  0  0
    9.5737  -39.7279   -0.2020 O   0  0  0  0  0  0  0  0  0  0  0  0
    3.8562  -40.5942   -1.8129 C   0  0  0  0  0  0  0  0  0  0  0  0
    5.0980  -43.9682    0.8679 O   0  0  0  0  0  0  0  0  0  0  0  0
    6.0492  -40.2623    0.7603 O   0  0  0  0  0  0  0  0  0  0  0  0
    6.3793  -34.8572    9.3720 O   0  0  0  0  0  0  0  0  0  0  0  0
    7.8298  -38.5757    0.8500 N   0  0  0  0  0  0  0  0  0  0  0  0
    5.3617  -36.0953    7.4207 C   0  0  1  0  0  0  0  0  0  0  0  0
    5.7810  -35.7366    8.9357 C   0  0  2  0  0  0  0  0  0  0  0  0
    6.7129  -36.2870    2.2705 C   0  0  0  0  0  0  0  0  0  0  0  0
    4.1438  -37.3119    3.6660 C   0  0  0  0  0  0  0  0  0  0  0  0
    1.3537  -39.7965    4.1362 O   0  0  0  0  0  0  0  0  0  0  0  0
    0.8470  -43.4190    3.6395 C   0  0  0  0  0  0  0  0  0  0  0  0
    4.6707  -42.5743    2.9697 O   0  0  0  0  0  0  0  0  0  0  0  0
    3.3175  -37.0117    1.7990 C   0  0  0  0  0  0  0  0  0  0  0  0
    1.9124  -38.1266    3.5207 C   0  0  0  0  0  0  0  0  0  0  0  0
    6.0883  -36.8005    2.3454 O   0  0  0  0  0  0  0  0  0  0  0  0
    8.8568  -39.2868    0.5503 C   0  0  0  0  0  0  0  0  0  0  0  0
   -0.2047  -41.3429    2.2399 C   0  0  0  0  0  0  0  0  0  0  0  0
    0.3441  -39.8044    1.9420 C   0  0  1  0  0  0  0  0  0  0  0  0
    6.6681  -41.3065    1.3986 C   0  0  2  0  0  0  0  0  0  0  0  0
    4.8190  -41.6204    0.2257 C   0  0  1  0  0  0  0  0  0  0  0  0
    7.9895  -35.9787   -0.0744 C   0  0  0  0  0  0  0  0  0  0  0  0
    8.5011  -42.1760    4.3054 C   0  0  0  0  0  0  0  0  0  0  0  0
   -0.0657  -40.0494    0.2524 C   0  0  0  0  0  0  0  0  0  0  0  0
    4.8972  -37.6699    5.5398 C   0  0  0  0  0  0  0  0  0  0  0  0
    6.8100  -34.0187    8.5034 C   0  0  0  0  0  0  0  0  0  0  0  0
    8.0721  -36.7653    0.9201 C   0  0  2  0  0  0  0  0  0  0  0  0
 10  4  1  0
 12  2  1  0
 12  3  1  0
 13  9  1  0
  1 16  1  1
 19  4  1  0
 19 11  1  0
 20  6  2  3
 21  1  1  0
  2 23  1  6
 24  8  2  0
 27 15  1  0
 28  5  1  6
 28 13  1  0
 29 14  1  1
 29 26  1  0
 29 28  1  0
 30 18  2  0
 31 17  1  0
 21 32  1  6
 33 16  1  0
 10 34  1  1
 35  7  1  0
 36  7  1  0
 36 32  1  0
 37 17  1  0
 37 30  1  0
 11 38  1  1
 38 22  2  0
 38 27  1  0
 39  1  1  0
 40 21  1  0
 40 39  1  0
 41 10  1  0
 41 11  1  0
 41 25  1  1
 42  2  1  0
 42  8  1  0
 42 25  1  6
 43 20  1  0
 19 44  1  1
 45  3  1  0
 40 45  1  1
 46  5  1  0
 46 31  1  0
 47 26  1  0
 48 27  1  0
 48 30  1  0
 48 43  1  6
M  END
>  <ID>  (1) 
conformer_0

$$$$
