
     RDKit          3D

 44 45  0  0  0  0  0  0  0  0999 V2000
    4.2708  -36.4715    8.5933 C   0  0  0  0  0  0  0  0  0  0  0  0
    6.7573  -41.5452    3.2325 C   0  0  0  0  0  0  0  0  0  0  0  0
    3.2814  -41.9505   -1.2609 C   0  0  2  0  0  0  0  0  0  0  0  0
    4.7379  -37.4612    7.9745 C   0  0  0  0  0  0  0  0  0  0  0  0
    5.2866  -42.7248    1.7050 C   0  0  0  0  0  0  0  0  0  0  0  0
   -0.0512  -40.6163    2.9268 C   0  0  0  0  0  0  0  0  0  0  0  0
    7.0840  -37.0245   -1.0324 C   0  0  0  0  0  0  0  0  0  0  0  0
    0.5566  -40.5065    0.1541 C   0  0  0  0  0  0  0  0  0  0  0  0
    5.0025  -37.2168    5.1197 C   0  0  0  0  0  0  0  0  0  0  0  0
    1.9095  -40.8415   -0.7498 C   0  0  0  0  0  0  0  0  0  0  0  0
    6.4885  -41.6550    1.5965 C   0  0  1  0  0  0  0  0  0  0  0  0
    4.4940  -42.8742   -0.0586 C   0  0  0  0  0  0  0  0  0  0  0  0
    8.1998  -39.8193    0.8422 C   0  0  0  0  0  0  0  0  0  0  0  0
    4.7289  -37.5574    6.2226 C   0  0  2  0  0  0  0  0  0  0  0  0
    5.4929  -35.7204    9.2783 C   0  0  0  0  0  0  0  0  0  0  0  0
    1.6327  -37.8849    3.7396 C   0  0  0  0  0  0  0  0  0  0  0  0
    8.5392  -41.8596    3.5289 C   0  0  0  0  0  0  0  0  0  0  0  0
   -0.0760  -42.2522    4.0372 C   0  0  1  0  0  0  0  0  0  0  0  0
    5.6540  -36.5633    2.2318 O   0  0  0  0  0  0  0  0  0  0  0  0
    9.6229  -39.9999   -0.3475 O   0  0  0  0  0  0  0  0  0  0  0  0
    0.8932  -43.2245    4.2849 C   0  0  0  0  0  0  0  0  0  0  0  0
    6.4290  -40.5818    0.3902 O   0  0  0  0  0  0  0  0  0  0  0  0
    6.3284  -34.5976    9.3653 O   0  0  0  0  0  0  0  0  0  0  0  0
    8.0136  -38.2208    0.1615 C   0  0  0  0  0  0  0  0  0  0  0  0
    5.8411  -43.6810    2.9606 O   0  0  0  0  0  0  0  0  0  0  0  0
    5.4660  -35.8690    6.8540 C   0  0  0  0  0  0  0  0  0  0  0  0
    2.2859  -41.2750    4.3745 O   0  0  0  0  0  0  0  0  0  0  0  0
    4.7995  -36.8180    2.9095 C   0  0  1  0  0  0  0  0  0  0  0  0
    5.5309  -43.2160   -0.2804 O   0  0  0  0  0  0  0  0  0  0  0  0
    7.9261  -38.4584    0.6744 N   0  0  0  0  0  0  0  0  0  0  0  0
    1.5724  -41.8250    4.0218 C   0  0  2  0  0  0  0  0  0  0  0  0
    7.7092  -36.3604   -0.3179 C   0  0  0  0  0  0  0  0  0  0  0  0
    7.3336  -41.9104    4.7351 C   0  0  0  0  0  0  0  0  0  0  0  0
    3.8504  -40.6531   -1.3446 C   0  0  0  0  0  0  0  0  0  0  0  0
    9.6019  -38.7288    1.7490 O   0  0  0  0  0  0  0  0  0  0  0  0
    3.3378  -36.9927    1.4490 C   0  0  0  0  0  0  0  0  0  0  0  0
    6.7925  -34.2052    8.5099 C   0  0  0  0  0  0  0  0  0  0  0  0
    3.6965  -42.5717    2.4933 O   0  0  0  0  0  0  0  0  0  0  0  0
   -0.0517  -40.1437    1.5233 C   0  0  2  0  0  0  0  0  0  0  0  0
    7.3733  -36.6178    1.4015 C   0  0  1  0  0  0  0  0  0  0  0  0
    2.0315  -38.2084    2.6809 C   0  0  0  0  0  0  0  0  0  0  0  0
    3.9782  -37.6302    3.5143 C   0  0  0  0  0  0  0  0  0  0  0  0
    7.1081  -35.4260    2.2312 O   0  0  0  0  0  0  0  0  0  0  0  0
    3.7881  -44.1775    0.5361 O   0  0  0  0  0  0  0  0  0  0  0  0
  4  1  1  0
 10  3  1  0
 10  8  1  0
 11  2  1  0
 11  5  1  0
 12  3  1  0
 12  5  1  0
 14  4  1  0
 14  9  1  0
 15  1  1  0
 17  2  1  0
 18  6  1  6
 20 13  1  0
 21 18  1  0
 11 22  1  1
 23 15  1  0
 24  7  1  0
 25  5  1  0
 14 26  1  6
 28 19  1  0
 29 12  1  0
 30 13  1  0
 30 24  1  0
 31 18  1  0
 31 21  1  0
 31 27  1  1
 32  7  1  0
 33  2  1  0
 33 17  1  0
  3 34  1  6
 35 13  1  0
 28 36  1  6
 37 23  1  0
 38  5  1  0
 39  6  1  1
 39  8  1  0
 40 19  1  0
 40 32  1  0
 41 16  2  3
 41 36  1  0
 41 39  1  0
 42  9  1  0
 42 28  1  0
 40 43  1  1
 44 12  1  0
M  END
>  <ID>  (1) 
conformer_0

$$$$
