
     RDKit          3D

 48 48  0  0  0  0  0  0  0  0999 V2000
    4.3849  -37.5875    8.0320 C   0  0  0  0  0  0  0  0  0  0  0  0
    0.2579  -39.8690    0.6495 C   0  0  0  0  0  0  0  0  0  0  0  0
    7.5215  -41.8003    2.7105 C   0  0  0  0  0  0  0  0  0  0  0  0
    4.6185  -38.4608    5.1576 C   0  0  0  0  0  0  0  0  0  0  0  0
    1.1290  -40.3544   -0.6269 C   0  0  0  0  0  0  0  0  0  0  0  0
    2.4778  -40.9056   -0.2907 C   0  0  0  0  0  0  0  0  0  0  0  0
    2.3020  -37.6850    2.5432 C   0  0  2  0  0  0  0  0  0  0  0  0
    6.9638  -36.5798   -0.7286 C   0  0  0  0  0  0  0  0  0  0  0  0
    4.5559  -43.1259    0.0526 C   0  0  0  0  0  0  0  0  0  0  0  0
    7.0899  -36.3233    1.8191 C   0  0  0  0  0  0  0  0  0  0  0  0
    0.0246  -40.8305    1.3805 C   0  0  0  0  0  0  0  0  0  0  0  0
    8.5929  -40.1353    1.2294 C   0  0  0  0  0  0  0  0  0  0  0  0
    9.1373  -41.2801    3.3733 C   0  0  0  0  0  0  0  0  0  0  0  0
    5.1260  -36.9882    5.4318 C   0  0  1  0  0  0  0  0  0  0  0  0
    4.4371  -41.7847    0.1454 C   0  0  0  0  0  0  0  0  0  0  0  0
    6.9256  -37.6067   -1.3928 C   0  0  0  0  0  0  0  0  0  0  0  0
    6.9571  -34.5797    8.8087 C   0  0  0  0  0  0  0  0  0  0  0  0
    3.6070  -40.6431   -1.2893 C   0  0  0  0  0  0  0  0  0  0  0  0
    0.4823  -39.9413    3.2362 C   0  0  0  0  0  0  0  0  0  0  0  0
    6.0839  -36.7334    2.5432 O   0  0  0  0  0  0  0  0  0  0  0  0
    9.2764  -40.1589   -0.3202 O   0  0  0  0  0  0  0  0  0  0  0  0
    5.4483  -43.4968    0.8476 O   0  0  0  0  0  0  0  0  0  0  0  0
    5.0251  -36.8931    3.4477 C   0  0  1  0  0  0  0  0  0  0  0  0
    1.2519  -39.1617    3.6216 O   0  0  0  0  0  0  0  0  0  0  0  0
    4.5280  -37.4029    6.8778 C   0  0  0  0  0  0  0  0  0  0  0  0
    6.3503  -40.8849    0.6104 O   0  0  0  0  0  0  0  0  0  0  0  0
   -0.5276  -42.7262    3.1001 C   0  0  0  0  0  0  0  0  0  0  0  0
    6.3578  -34.8374    9.7437 O   0  0  0  0  0  0  0  0  0  0  0  0
    6.7401  -41.3784    1.5557 C   0  0  0  0  0  0  0  0  0  0  0  0
    5.7854  -35.9238    7.7092 C   0  0  0  0  0  0  0  0  0  0  0  0
    8.2103  -38.5986    0.7978 N   0  0  0  0  0  0  0  0  0  0  0  0
    5.0525  -42.9179    3.0170 O   0  0  0  0  0  0  0  0  0  0  0  0
    9.8040  -38.6920    1.7474 O   0  0  0  0  0  0  0  0  0  0  0  0
    1.1838  -43.4210    4.5604 C   0  0  0  0  0  0  0  0  0  0  0  0
    1.7737  -37.9324    3.2401 C   0  0  0  0  0  0  0  0  0  0  0  0
    6.5214  -41.6661    4.3970 C   0  0  0  0  0  0  0  0  0  0  0  0
    5.5272  -42.6685    2.5168 C   0  0  0  0  0  0  0  0  0  0  0  0
    4.6976  -36.6668    9.2805 C   0  0  2  0  0  0  0  0  0  0  0  0
    8.1477  -36.2671    0.0186 C   0  0  0  0  0  0  0  0  0  0  0  0
    5.5255  -35.7823    9.7903 C   0  0  0  0  0  0  0  0  0  0  0  0
   -0.2998  -41.0149    3.0306 C   0  0  2  0  0  0  0  0  0  0  0  0
    7.8788  -38.5834    0.0709 C   0  0  0  0  0  0  0  0  0  0  0  0
    8.7605  -37.0561    1.1739 C   0  0  1  0  0  0  0  0  0  0  0  0
    7.0352  -35.3006    2.3867 O   0  0  0  0  0  0  0  0  0  0  0  0
    0.0034  -42.4157    4.5208 C   0  0  0  0  0  0  0  0  0  0  0  0
    4.1993  -37.4763    3.3661 C   0  0  0  0  0  0  0  0  0  0  0  0
    3.3022  -36.9311    1.5660 C   0  0  0  0  0  0  0  0  0  0  0  0
    8.4563  -42.2043    4.1790 C   0  0  0  0  0  0  0  0  0  0  0  0
  5  2  1  0
  6  5  1  0
 11  2  1  0
 13  3  1  0
 14  4  1  6
 15  9  1  0
 16  8  2  3
 18  6  1  0
 18 15  1  0
 20 10  1  0
 21 12  1  0
 22  9  1  0
 23 14  1  0
 23 20  1  0
 24 19  1  0
 25  1  1  0
 25 14  1  0
 28 17  1  0
 29  3  1  0
 29 26  2  0
 31 12  1  0
 33 12  1  0
 35  7  1  0
 35 24  1  0
 36  3  1  0
 37 22  1  0
 37 29  1  0
 37 32  2  0
 38  1  1  0
 38 30  1  6
 39  8  1  0
 40 28  1  0
 40 38  1  0
 41 11  1  6
 41 19  1  0
 41 27  1  0
 42 31  1  0
 43 10  1  0
 43 31  1  0
 43 39  1  6
 44 10  2  0
 45 27  1  0
 45 34  1  0
 46  7  1  0
 23 46  1  6
  7 47  1  1
 48  3  1  0
 48 13  1  0
M  END
>  <ID>  (1) 
conformer_0

$$$$
