
     RDKit          3D

 48 53  0  0  0  0  0  0  0  0999 V2000
    3.9633  -40.0863   -0.8318 C   0  0  0  0  0  0  0  0  0  0  0  0
    4.0244  -36.4672    8.1466 C   0  0  0  0  0  0  0  0  0  0  0  0
    6.3109  -36.4171   -0.3523 C   0  0  0  0  0  0  0  0  0  0  0  0
    4.9246  -37.4450    8.7836 C   0  0  0  0  0  0  0  0  0  0  0  0
    0.7390  -40.6545    0.1528 C   0  0  0  0  0  0  0  0  0  0  0  0
    6.5066  -41.6093    4.8970 C   0  0  0  0  0  0  0  0  0  0  0  0
    1.2123  -39.4161    2.3084 C   0  0  0  0  0  0  0  0  0  0  0  0
    2.5917  -37.2243    2.3043 C   0  0  0  0  0  0  0  0  0  0  0  0
    7.8220  -40.6592    1.6119 C   0  0  0  0  0  0  0  0  0  0  0  0
    2.7614  -41.7038   -0.7036 C   0  0  0  0  0  0  0  0  0  0  0  0
    5.2637  -42.7033    3.3576 C   0  0  0  0  0  0  0  0  0  0  0  0
    8.8768  -39.1894    0.3250 C   0  0  0  0  0  0  0  0  0  0  0  0
    4.4438  -42.7848   -0.4764 C   0  0  0  0  0  0  0  0  0  0  0  0
    4.0496  -37.9656    2.9476 C   0  0  0  0  0  0  0  0  0  0  0  0
    0.4628  -38.7065    3.8007 C   0  0  0  0  0  0  0  0  0  0  0  0
   -0.4399  -40.4272    1.8543 C   0  0  0  0  0  0  0  0  0  0  0  0
    8.6578  -41.7282    3.3381 C   0  0  0  0  0  0  0  0  0  0  0  0
    5.2949  -36.2366    9.5749 C   0  0  0  0  0  0  0  0  0  0  0  0
    6.3636  -35.2100    2.6496 O   0  0  0  0  0  0  0  0  0  0  0  0
    7.5092  -37.3874   -1.2483 C   0  0  0  0  0  0  0  0  0  0  0  0
    9.4795  -40.1724   -0.3895 O   0  0  0  0  0  0  0  0  0  0  0  0
    0.9077  -38.4053    4.2906 O   0  0  0  0  0  0  0  0  0  0  0  0
    4.9997  -43.8494   -0.0725 O   0  0  0  0  0  0  0  0  0  0  0  0
    6.3286  -35.2065    9.4353 O   0  0  0  0  0  0  0  0  0  0  0  0
    4.4910  -42.3740    3.5697 O   0  0  0  0  0  0  0  0  0  0  0  0
    5.0828  -36.5741    5.1603 C   0  0  0  0  0  0  0  0  0  0  0  0
   -0.4724  -40.8364    3.6384 C   0  0  0  0  0  0  0  0  0  0  0  0
    7.9330  -36.3925    1.4198 C   0  0  0  0  0  0  0  0  0  0  0  0
    1.7683  -40.4253   -1.3623 C   0  0  0  0  0  0  0  0  0  0  0  0
    5.7665  -36.4546    2.9304 C   0  0  0  0  0  0  0  0  0  0  0  0
    4.8333  -37.8225    4.6826 C   0  0  0  0  0  0  0  0  0  0  0  0
    8.1851  -38.1254    0.7640 N   0  0  0  0  0  0  0  0  0  0  0  0
    2.4664  -37.5839    3.7879 C   0  0  0  0  0  0  0  0  0  0  0  0
    7.9149  -36.1875   -0.2270 C   0  0  0  0  0  0  0  0  0  0  0  0
    7.0539  -41.5158    2.9309 C   0  0  0  0  0  0  0  0  0  0  0  0
    4.6450  -37.9525    6.8807 C   0  0  0  0  0  0  0  0  0  0  0  0
    4.6709  -43.4707    1.6015 C   0  0  0  0  0  0  0  0  0  0  0  0
    9.0726  -39.4482    1.5657 O   0  0  0  0  0  0  0  0  0  0  0  0
    5.5709  -42.4844    1.2994 O   0  0  0  0  0  0  0  0  0  0  0  0
    1.6272  -43.3072    3.9450 C   0  0  0  0  0  0  0  0  0  0  0  0
    7.6265  -38.0159    0.5370 C   0  0  0  0  0  0  0  0  0  0  0  0
    6.6688  -36.8070    2.1382 O   0  0  0  0  0  0  0  0  0  0  0  0
    6.9751  -35.1568    9.2690 C   0  0  0  0  0  0  0  0  0  0  0  0
    5.1034  -36.1308    6.7394 C   0  0  0  0  0  0  0  0  0  0  0  0
   -0.1030  -41.9101    2.8155 C   0  0  0  0  0  0  0  0  0  0  0  0
   -0.0319  -42.6178    4.2702 C   0  0  0  0  0  0  0  0  0  0  0  0
    3.9141  -41.0932   -1.9947 C   0  0  0  0  0  0  0  0  0  0  0  0
    8.0270  -42.3297    4.5385 C   0  0  0  0  0  0  0  0  0  0  0  0
  4  2  1  0
 13 10  1  0
 14  8  1  0
 15  7  1  0
 16  5  1  0
 16  7  1  0
 18  2  1  0
 18  4  1  0
 20  3  1  0
 21 12  2  0
 22 15  1  0
 23 13  1  0
 24 18  1  0
 25 11  1  0
 27 16  1  0
 29  5  1  0
 29 10  1  0
 30 14  1  0
 30 19  2  0
 31 14  1  0
 31 26  1  0
 32 12  1  0
 33  8  1  0
 33 14  1  0
 33 22  1  0
 34  3  1  0
 34 20  1  0
 34 28  1  0
 35  9  1  0
 35 17  1  0
 37 11  1  0
 37 23  1  0
 38  9  1  0
 38 12  1  0
 39 37  1  0
 41 20  1  0
 41 28  1  0
 41 32  1  0
 42 28  1  0
 42 30  1  0
 43 24  1  0
 44  2  1  0
 44 26  1  0
 44 36  1  0
 45 16  1  0
 45 27  1  0
 46 27  1  0
 46 40  1  0
 46 45  1  0
 47  1  1  0
 47 10  1  0
 48  6  1  0
 48 17  1  0
M  END
>  <ID>  (1) 
conformer_0

$$$$
