
     RDKit          3D

 48 49  0  0  0  0  0  0  0  0999 V2000
    1.0074  -40.1763    1.7663 C   0  0  0  0  0  0  0  0  0  0  0  0
    0.0208  -42.5844    3.6679 C   0  0  0  0  0  0  0  0  0  0  0  0
    4.5074  -37.5893    6.8197 C   0  0  0  0  0  0  0  0  0  0  0  0
    4.6496  -37.7985    4.4800 C   0  0  0  0  0  0  0  0  0  0  0  0
    1.4594  -40.6324   -0.3209 C   0  0  0  0  0  0  0  0  0  0  0  0
    7.0180  -37.5405   -1.4820 C   0  0  0  0  0  0  0  0  0  0  0  0
    3.6890  -37.3963    2.7798 C   0  0  0  0  0  0  0  0  0  0  0  0
    7.0127  -42.3644    4.1242 C   0  0  1  0  0  0  0  0  0  0  0  0
    7.3720  -38.4683    0.3874 C   0  0  0  0  0  0  0  0  0  0  0  0
   -0.5329  -40.5635    2.0366 C   0  0  2  0  0  0  0  0  0  0  0  0
    5.1301  -42.8474    0.9826 C   0  0  1  0  0  0  0  0  0  0  0  0
    8.5844  -36.7519    1.0083 C   0  0  1  0  0  0  0  0  0  0  0  0
   -0.3401  -41.2392    3.4543 C   0  0  2  0  0  0  0  0  0  0  0  0
    5.1619  -35.6171   10.4181 C   0  0  0  0  0  0  0  0  0  0  0  0
    6.1096  -42.9570    3.0496 C   0  0  0  0  0  0  0  0  0  0  0  0
    1.7535  -37.6971    3.7990 C   0  0  0  0  0  0  0  0  0  0  0  0
    4.0905  -36.7012    8.6526 C   0  0  0  0  0  0  0  0  0  0  0  0
    9.5349  -40.2157   -0.3863 O   0  0  0  0  0  0  0  0  0  0  0  0
    2.5520  -41.3177   -0.1471 C   0  0  0  0  0  0  0  0  0  0  0  0
    6.0608  -36.8239    2.2425 O   0  0  0  0  0  0  0  0  0  0  0  0
    6.9228  -36.4328   -0.7418 C   0  0  0  0  0  0  0  0  0  0  0  0
    7.3654  -40.8685    1.6632 C   0  0  0  0  0  0  0  0  0  0  0  0
    1.0496  -38.8220    4.1050 O   0  0  0  0  0  0  0  0  0  0  0  0
    5.4510  -43.8146    0.6303 O   0  0  0  0  0  0  0  0  0  0  0  0
    8.7928  -42.1603    3.7891 C   0  0  0  0  0  0  0  0  0  0  0  0
    3.6398  -41.4436   -1.3765 C   0  0  1  0  0  0  0  0  0  0  0  0
    6.5864  -35.2899    9.6617 O   0  0  0  0  0  0  0  0  0  0  0  0
    2.4754  -37.3978    2.5712 C   0  0  0  0  0  0  0  0  0  0  0  0
    5.0270  -37.0130    3.1696 C   0  0  2  0  0  0  0  0  0  0  0  0
    8.0774  -38.3350    0.7093 N   0  0  0  0  0  0  0  0  0  0  0  0
    5.2219  -42.9281    2.8550 O   0  0  0  0  0  0  0  0  0  0  0  0
    4.1718  -40.2118   -1.2387 C   0  0  0  0  0  0  0  0  0  0  0  0
    5.0944  -36.2115    7.6139 C   0  0  1  0  0  0  0  0  0  0  0  0
    0.4099  -39.4073    3.5854 C   0  0  0  0  0  0  0  0  0  0  0  0
    0.6355  -43.9130    3.4372 C   0  0  0  0  0  0  0  0  0  0  0  0
    8.6807  -39.7435    0.7138 C   0  0  0  0  0  0  0  0  0  0  0  0
    5.1459  -36.7985    5.5784 C   0  0  0  0  0  0  0  0  0  0  0  0
    7.0471  -35.2271    2.2958 O   0  0  0  0  0  0  0  0  0  0  0  0
    6.1751  -41.8498    0.9868 O   0  0  0  0  0  0  0  0  0  0  0  0
    9.7154  -39.0542    1.6001 O   0  0  0  0  0  0  0  0  0  0  0  0
    6.9212  -34.0780    9.6694 C   0  0  0  0  0  0  0  0  0  0  0  0
   -0.0449  -40.4452    0.4895 C   0  0  1  0  0  0  0  0  0  0  0  0
    4.4460  -42.8419   -0.4577 C   0  0  0  0  0  0  0  0  0  0  0  0
    8.0648  -36.0289    0.0601 C   0  0  0  0  0  0  0  0  0  0  0  0
    7.8819  -41.7884    2.6322 C   0  0  1  0  0  0  0  0  0  0  0  0
    7.1321  -36.2105    1.7150 C   0  0  0  0  0  0  0  0  0  0  0  0
    2.0218  -43.4793    4.2065 C   0  0  0  0  0  0  0  0  0  0  0  0
    5.9033  -35.5713    8.4611 C   0  0  1  0  0  0  0  0  0  0  0  0
 10  1  1  1
 13  2  1  6
 13 10  1  0
  8 15  1  6
 19  5  2  3
 21  6  2  3
 23 16  1  0
 11 24  1  6
 25  8  1  0
 26 19  1  0
 28  7  1  0
 28 16  1  0
 29  4  1  1
 29  7  1  0
 29 20  1  0
 30  9  1  0
 30 12  1  0
 31 15  2  0
 26 32  1  1
 33  3  1  0
 33 17  1  1
 34 13  1  0
 34 23  1  0
 35  2  1  0
 36 18  1  0
 36 30  1  0
 37  3  1  0
 37  4  1  0
 39 11  1  0
 39 22  1  0
 40 36  1  0
 41 27  1  0
 42  1  1  1
 42  5  1  0
 42 10  1  0
 43 11  1  0
 43 26  1  0
 12 44  1  6
 44 21  1  0
 45  8  1  0
 45 22  1  1
 45 25  1  0
 46 12  1  0
 46 20  1  0
 46 38  2  0
 47 35  1  0
 48 14  1  1
 48 27  1  0
 48 33  1  0
M  END
>  <ID>  (1) 
conformer_0

$$$$
