
     RDKit          3D

 47 47  0  0  0  0  0  0  0  0999 V2000
    6.8218  -42.1052    4.1860 C   0  0  0  0  0  0  0  0  0  0  0  0
    4.7721  -37.9872    5.7282 C   0  0  0  0  0  0  0  0  0  0  0  0
    4.1438  -37.2092    7.7731 C   0  0  0  0  0  0  0  0  0  0  0  0
    1.6595  -40.9092   -0.6201 C   0  0  0  0  0  0  0  0  0  0  0  0
   -0.0638  -40.2808    0.2372 C   0  0  0  0  0  0  0  0  0  0  0  0
    6.6899  -36.6397   -0.7537 C   0  0  0  0  0  0  0  0  0  0  0  0
    1.1214  -40.8725    0.8883 C   0  0  1  0  0  0  0  0  0  0  0  0
    4.4845  -37.5146    3.8415 C   0  0  0  0  0  0  0  0  0  0  0  0
    7.2886  -41.0864    1.4276 C   0  0  0  0  0  0  0  0  0  0  0  0
    7.6773  -38.6810    0.4537 C   0  0  0  0  0  0  0  0  0  0  0  0
   -0.4049  -42.2709    3.6560 C   0  0  0  0  0  0  0  0  0  0  0  0
    4.3771  -43.7675    0.2237 C   0  0  0  0  0  0  0  0  0  0  0  0
    5.1967  -36.3019    7.7142 C   0  0  0  0  0  0  0  0  0  0  0  0
    2.9403  -41.5632   -0.6544 C   0  0  0  0  0  0  0  0  0  0  0  0
    6.7165  -34.6965    8.6778 C   0  0  0  0  0  0  0  0  0  0  0  0
    7.2450  -35.3445    2.1504 O   0  0  0  0  0  0  0  0  0  0  0  0
    7.5358  -41.7339    2.4800 C   0  0  0  0  0  0  0  0  0  0  0  0
    9.4320  -40.1357   -0.2952 O   0  0  0  0  0  0  0  0  0  0  0  0
    6.7267  -37.7317   -1.5838 C   0  0  0  0  0  0  0  0  0  0  0  0
    1.7219  -37.7219    3.2504 C   0  0  0  0  0  0  0  0  0  0  0  0
    5.5473  -43.3428    1.9740 O   0  0  0  0  0  0  0  0  0  0  0  0
    6.3800  -35.1274    9.6919 O   0  0  0  0  0  0  0  0  0  0  0  0
    0.6818  -42.7109    3.9827 C   0  0  0  0  0  0  0  0  0  0  0  0
    4.7958  -36.9966    3.3091 C   0  0  2  0  0  0  0  0  0  0  0  0
    3.7686  -36.5445    9.4572 C   0  0  0  0  0  0  0  0  0  0  0  0
    9.6580  -38.6587    1.6854 O   0  0  0  0  0  0  0  0  0  0  0  0
    5.5919  -43.0911    3.1301 C   0  0  0  0  0  0  0  0  0  0  0  0
    4.2228  -42.2169    4.0744 O   0  0  0  0  0  0  0  0  0  0  0  0
    8.8002  -36.9901    0.9447 C   0  0  1  0  0  0  0  0  0  0  0  0
    1.1896  -40.6733    3.5362 C   0  0  0  0  0  0  0  0  0  0  0  0
    3.9561  -40.6578   -0.8672 C   0  0  0  0  0  0  0  0  0  0  0  0
    4.6184  -43.8668    0.0918 O   0  0  0  0  0  0  0  0  0  0  0  0
    5.1115  -35.6872    9.9414 C   0  0  0  0  0  0  0  0  0  0  0  0
    3.2886  -37.0976    1.7561 C   0  0  0  0  0  0  0  0  0  0  0  0
   -0.4673  -41.2026    1.9252 C   0  0  0  0  0  0  0  0  0  0  0  0
    9.0468  -40.0414    1.1733 C   0  0  1  0  0  0  0  0  0  0  0  0
    6.2159  -41.5361    0.7496 O   0  0  0  0  0  0  0  0  0  0  0  0
    4.6467  -42.0381   -0.0058 C   0  0  2  0  0  0  0  0  0  0  0  0
    8.0785  -38.8504    0.8149 N   0  0  0  0  0  0  0  0  0  0  0  0
    2.1989  -37.7192    2.9232 C   0  0  0  0  0  0  0  0  0  0  0  0
    0.0087  -40.3880    3.2758 C   0  0  2  0  0  0  0  0  0  0  0  0
    8.6226  -41.9126    3.1788 C   0  0  0  0  0  0  0  0  0  0  0  0
    8.0349  -36.4155   -0.2492 C   0  0  0  0  0  0  0  0  0  0  0  0
    7.3179  -36.2022    1.6370 C   0  0  0  0  0  0  0  0  0  0  0  0
    2.4063  -40.9889    4.2279 O   0  0  0  0  0  0  0  0  0  0  0  0
    5.9849  -36.5118    2.4640 O   0  0  0  0  0  0  0  0  0  0  0  0
    5.2229  -36.7756    5.9263 C   0  0  0  0  0  0  0  0  0  0  0  0
  7  4  1  0
  7  5  1  6
  8  2  1  0
 13  3  1  0
 14  4  1  0
 17  1  1  0
 17  9  1  0
 19  6  1  0
 22 15  1  0
 23 11  1  0
 24  8  1  6
 25  3  1  0
 27  1  1  0
 27 21  1  0
 28 27  1  0
 29 10  1  6
 31 14  1  0
 32 12  1  0
 33 22  1  0
 33 25  1  0
 34 24  1  0
 35  7  1  0
 36 18  1  6
 36 26  1  0
 37  9  1  0
 38 12  1  6
 38 31  1  0
 38 37  1  0
 39 10  1  0
 39 26  1  0
 39 36  1  0
 40 20  1  0
 40 34  1  0
 41 11  1  1
 41 20  1  0
 41 30  1  0
 41 35  1  0
 42 17  2  3
 43  6  1  0
 43 29  1  0
 44 16  2  0
 44 29  1  0
 45 30  1  0
 46 24  1  0
 46 44  1  0
 47  2  1  0
 47 13  1  0
M  END
>  <ID>  (1) 
conformer_0

$$$$
