
     RDKit          3D

 47 50  0  0  0  0  0  0  0  0999 V2000
    0.8750  -41.1090   -0.0632 C   0  0  0  0  0  0  0  0  0  0  0  0
    1.9979  -40.2106   -0.2897 C   0  0  0  0  0  0  0  0  0  0  0  0
    6.7858  -36.3477   -0.5625 C   0  0  0  0  0  0  0  0  0  0  0  0
    2.7101  -41.5972   -0.8952 C   0  0  2  0  0  0  0  0  0  0  0  0
    8.5314  -42.4322    4.0085 C   0  0  0  0  0  0  0  0  0  0  0  0
    4.1469  -36.8261    9.2060 C   0  0  0  0  0  0  0  0  0  0  0  0
    3.8679  -37.1529    2.9795 C   0  0  0  0  0  0  0  0  0  0  0  0
    3.9092  -42.3546   -0.0601 C   0  0  0  0  0  0  0  0  0  0  0  0
    2.7285  -37.7528    2.0416 C   0  0  0  0  0  0  0  0  0  0  0  0
    7.3266  -38.5489   -0.0010 C   0  0  2  0  0  0  0  0  0  0  0  0
   -0.1808  -42.8112    3.4627 C   0  0  0  0  0  0  0  0  0  0  0  0
    3.9672  -43.8835    0.0489 C   0  0  0  0  0  0  0  0  0  0  0  0
    4.6463  -38.2379    7.1691 C   0  0  0  0  0  0  0  0  0  0  0  0
    8.5531  -37.4044    1.0714 C   0  0  1  0  0  0  0  0  0  0  0  0
    3.9927  -40.1558   -1.1200 C   0  0  0  0  0  0  0  0  0  0  0  0
    0.9359  -43.3835    3.6207 C   0  0  0  0  0  0  0  0  0  0  0  0
    5.1989  -36.2301    8.8560 C   0  0  1  0  0  0  0  0  0  0  0  0
    4.6457  -37.6985    5.1236 C   0  0  0  0  0  0  0  0  0  0  0  0
    9.3919  -40.0826   -0.2011 O   0  0  0  0  0  0  0  0  0  0  0  0
    6.5137  -35.8282    2.6333 O   0  0  0  0  0  0  0  0  0  0  0  0
    7.2054  -37.5319   -1.3930 C   0  0  0  0  0  0  0  0  0  0  0  0
    3.0068  -37.4809    3.5246 C   0  0  2  0  0  0  0  0  0  0  0  0
    1.6865  -38.7256    4.1817 O   0  0  0  0  0  0  0  0  0  0  0  0
    7.0735  -41.1864    1.8859 C   0  0  2  0  0  0  0  0  0  0  0  0
    8.0818  -41.8662    3.0349 C   0  0  0  0  0  0  0  0  0  0  0  0
    4.3413  -43.5258    1.1058 O   0  0  0  0  0  0  0  0  0  0  0  0
    7.3822  -36.2996    1.7212 C   0  0  0  0  0  0  0  0  0  0  0  0
    4.7733  -42.6802    3.5341 O   0  0  0  0  0  0  0  0  0  0  0  0
   -0.1342  -40.6067    0.9236 C   0  0  1  0  0  0  0  0  0  0  0  0
    6.3626  -35.6110    9.4899 O   0  0  0  0  0  0  0  0  0  0  0  0
    7.8554  -38.3951    0.9054 N   0  0  0  0  0  0  0  0  0  0  0  0
    5.5212  -42.4316    3.5454 C   0  0  0  0  0  0  0  0  0  0  0  0
   -0.0330  -40.8429    3.2217 C   0  0  0  0  0  0  0  0  0  0  0  0
    4.2795  -37.1622    7.7908 C   0  0  2  0  0  0  0  0  0  0  0  0
    5.1593  -36.7388    5.5648 C   0  0  0  0  0  0  0  0  0  0  0  0
    5.5680  -35.7202    7.1838 C   0  0  0  0  0  0  0  0  0  0  0  0
    5.6014  -42.3038    0.7838 O   0  0  0  0  0  0  0  0  0  0  0  0
   -0.4233  -41.9603    2.0629 C   0  0  2  0  0  0  0  0  0  0  0  0
    5.8673  -42.3452    1.4871 C   0  0  0  0  0  0  0  0  0  0  0  0
    7.3845  -40.3161    0.1406 O   0  0  0  0  0  0  0  0  0  0  0  0
    8.1506  -36.1154    0.0203 C   0  0  2  0  0  0  0  0  0  0  0  0
    1.2295  -38.9693    3.4956 C   0  0  0  0  0  0  0  0  0  0  0  0
    6.6241  -41.9689    4.4566 C   0  0  0  0  0  0  0  0  0  0  0  0
    5.6133  -36.4932    3.2939 C   0  0  0  0  0  0  0  0  0  0  0  0
    6.7664  -35.0964    8.8907 C   0  0  0  0  0  0  0  0  0  0  0  0
    8.2139  -40.0052    1.1729 C   0  0  1  0  0  0  0  0  0  0  0  0
    1.0740  -39.6661    1.9362 C   0  0  0  0  0  0  0  0  0  0  0  0
  2  1  1  0
  4  2  1  0
  8  4  1  0
 12  8  1  0
  4 15  1  6
 16 11  2  3
 17  6  1  0
 21  3  1  0
 10 21  1  6
 22  7  1  0
 22  9  1  6
 22 18  1  0
 23 22  1  0
 25  5  1  0
 24 25  1  6
 26 12  1  0
 14 27  1  1
 27 20  1  0
 29  1  1  6
 17 30  1  1
 31 10  1  0
 31 14  1  0
 32 28  2  0
 34  6  1  0
 34 13  1  1
 34 17  1  0
 35 18  1  0
 36 17  1  0
 36 35  2  3
 38 11  1  0
 38 29  1  0
 38 33  1  1
 39 24  1  0
 39 37  2  0
 40 10  1  0
 41  3  1  6
 41 14  1  0
 41 27  1  0
 42 23  1  0
 43  5  1  0
 43 32  1  0
 44  7  2  3
 44 20  1  0
 45 30  1  0
 46 19  1  1
 46 24  1  0
 46 31  1  0
 46 40  1  0
 47 29  1  0
 47 42  1  0
M  END
>  <ID>  (1) 
conformer_0

$$$$
