
     RDKit          3D

 49 58  0  0  0  0  0  0  0  0999 V2000
    4.3555  -37.0695    8.8057 C   0  0  0  0  0  0  0  0  0  0  0  0
    3.8676  -40.2976   -1.4320 C   0  0  0  0  0  0  0  0  0  0  0  0
    7.4518  -37.4620   -1.4577 C   0  0  0  0  0  0  0  0  0  0  0  0
    1.6266  -41.1298   -0.2853 C   0  0  0  0  0  0  0  0  0  0  0  0
    6.2407  -42.0023    4.8095 C   0  0  0  0  0  0  0  0  0  0  0  0
    1.6668  -40.3952   -1.0895 C   0  0  0  0  0  0  0  0  0  0  0  0
    2.6751  -37.9234    2.5557 C   0  0  0  0  0  0  0  0  0  0  0  0
    5.1310  -36.7127    5.8800 C   0  0  0  0  0  0  0  0  0  0  0  0
    3.3763  -41.5892   -1.2318 C   0  0  0  0  0  0  0  0  0  0  0  0
    8.3921  -40.0051    1.2349 C   0  0  0  0  0  0  0  0  0  0  0  0
    8.6514  -37.0708    1.0609 C   0  0  0  0  0  0  0  0  0  0  0  0
    7.8118  -38.4163   -0.0431 C   0  0  0  0  0  0  0  0  0  0  0  0
    6.8821  -42.0114    2.9725 C   0  0  0  0  0  0  0  0  0  0  0  0
    5.5463  -35.7416   10.7236 C   0  0  0  0  0  0  0  0  0  0  0  0
   -0.0252  -40.5033    0.1851 C   0  0  0  0  0  0  0  0  0  0  0  0
    0.3290  -38.8649    3.5719 C   0  0  0  0  0  0  0  0  0  0  0  0
    4.6012  -37.6379    4.7088 C   0  0  0  0  0  0  0  0  0  0  0  0
    4.3825  -42.5384   -0.1874 C   0  0  0  0  0  0  0  0  0  0  0  0
   -0.7839  -41.4317    2.2305 C   0  0  0  0  0  0  0  0  0  0  0  0
    6.0582  -35.4555    3.5071 O   0  0  0  0  0  0  0  0  0  0  0  0
    6.7378  -36.3973   -0.7624 C   0  0  0  0  0  0  0  0  0  0  0  0
    5.2002  -36.6844    3.4971 C   0  0  0  0  0  0  0  0  0  0  0  0
    9.7774  -38.9469    1.7364 O   0  0  0  0  0  0  0  0  0  0  0  0
    8.6101  -39.8372   -0.3827 O   0  0  0  0  0  0  0  0  0  0  0  0
    5.3851  -43.3494    0.0491 O   0  0  0  0  0  0  0  0  0  0  0  0
    0.7331  -38.3792    3.8702 O   0  0  0  0  0  0  0  0  0  0  0  0
    6.2522  -34.9909    9.8085 O   0  0  0  0  0  0  0  0  0  0  0  0
    7.0862  -41.2635    1.4491 C   0  0  0  0  0  0  0  0  0  0  0  0
   -0.1603  -42.7605    3.5657 C   0  0  0  0  0  0  0  0  0  0  0  0
    5.0440  -43.0197    1.9805 O   0  0  0  0  0  0  0  0  0  0  0  0
    8.0233  -38.1217    0.8200 N   0  0  0  0  0  0  0  0  0  0  0  0
    8.8430  -41.7048    3.1875 C   0  0  0  0  0  0  0  0  0  0  0  0
    5.6053  -42.2912    1.0250 C   0  0  0  0  0  0  0  0  0  0  0  0
    4.0674  -37.6215    2.7805 C   0  0  0  0  0  0  0  0  0  0  0  0
    6.8763  -34.2123    9.0420 C   0  0  0  0  0  0  0  0  0  0  0  0
    6.3776  -40.5838    0.2248 O   0  0  0  0  0  0  0  0  0  0  0  0
    5.3891  -42.7918    3.5142 C   0  0  0  0  0  0  0  0  0  0  0  0
    4.4201  -37.7675    7.2878 C   0  0  0  0  0  0  0  0  0  0  0  0
    0.9891  -43.1286    3.6430 C   0  0  0  0  0  0  0  0  0  0  0  0
    0.2236  -40.1068    1.6688 C   0  0  0  0  0  0  0  0  0  0  0  0
    8.1762  -35.7870    0.1773 C   0  0  0  0  0  0  0  0  0  0  0  0
    8.0870  -42.3377    4.2789 C   0  0  0  0  0  0  0  0  0  0  0  0
    2.0797  -37.7526    3.7032 C   0  0  0  0  0  0  0  0  0  0  0  0
    5.1895  -36.1910    7.4561 C   0  0  0  0  0  0  0  0  0  0  0  0
    6.5902  -36.5144    2.1175 O   0  0  0  0  0  0  0  0  0  0  0  0
    4.2049  -42.4653    4.0484 O   0  0  0  0  0  0  0  0  0  0  0  0
    0.1004  -40.9514    3.3204 C   0  0  0  0  0  0  0  0  0  0  0  0
    5.4396  -35.8125    8.7308 C   0  0  0  0  0  0  0  0  0  0  0  0
    7.1768  -36.4194    1.7482 C   0  0  0  0  0  0  0  0  0  0  0  0
  6  4  1  0
  9  2  1  0
  9  4  1  0
 12  3  1  0
 13  5  1  0
 15  4  1  0
 17  8  1  0
 18  9  1  0
 21  3  1  0
 22 17  1  0
 22 20  1  0
 23 10  2  0
 24 10  1  0
 24 12  1  0
 25 18  1  0
 26 16  1  0
 27 14  1  0
 28 10  1  0
 28 13  1  0
 31 11  1  0
 31 12  2  0
 33 18  1  0
 33 25  1  0
 33 28  1  0
 33 30  1  0
 34  7  1  0
 34 22  1  0
 35 27  1  0
 36 28  1  0
 37  5  1  0
 37 13  1  0
 37 30  1  0
 38  1  1  0
 38  8  1  0
 39 29  1  0
 40 15  1  0
 40 19  1  0
 41 11  1  0
 41 21  1  0
 42  5  1  0
 42 13  1  0
 42 32  1  0
 43  7  1  0
 43 26  1  0
 44  1  1  0
 44  8  1  0
 44 38  1  0
 45 20  1  0
 46 37  1  0
 47 19  1  0
 47 29  1  0
 47 40  1  0
 48  1  1  0
 48 14  1  0
 48 44  1  0
 49 11  1  0
 49 41  1  0
 49 45  1  0
M  END
>  <ID>  (1) 
conformer_0

$$$$
