
     RDKit          3D

 47 50  0  0  0  0  0  0  0  0999 V2000
    4.3880  -37.3398    3.5950 C   0  0  0  0  0  0  0  0  0  0  0  0
    4.6128  -36.5766    8.2581 C   0  0  0  0  0  0  0  0  0  0  0  0
    0.3564  -40.3862    0.9439 C   0  0  0  0  0  0  0  0  0  0  0  0
   -0.2958  -41.3033    2.2146 C   0  0  0  0  0  0  0  0  0  0  0  0
    0.0303  -42.9471    3.9279 C   0  0  0  0  0  0  0  0  0  0  0  0
    6.5967  -37.9623   -1.2723 C   0  0  0  0  0  0  0  0  0  0  0  0
    6.7748  -42.0525    3.7219 C   0  0  0  0  0  0  0  0  0  0  0  0
    2.8044  -37.7844    2.8319 C   0  0  0  0  0  0  0  0  0  0  0  0
    4.5072  -41.9393    0.0694 C   0  0  0  0  0  0  0  0  0  0  0  0
    8.8898  -39.5318    1.0307 C   0  0  0  0  0  0  0  0  0  0  0  0
    1.9752  -40.6615   -0.2686 C   0  0  0  0  0  0  0  0  0  0  0  0
    5.1272  -36.5579    5.7388 C   0  0  0  0  0  0  0  0  0  0  0  0
    7.1866  -36.6798   -0.7024 C   0  0  0  0  0  0  0  0  0  0  0  0
    1.2417  -43.0381    4.4338 C   0  0  0  0  0  0  0  0  0  0  0  0
    4.8721  -43.1219    0.9553 C   0  0  0  0  0  0  0  0  0  0  0  0
    6.9977  -41.0987    1.5216 C   0  0  0  0  0  0  0  0  0  0  0  0
    2.6701  -37.3980    3.2741 C   0  0  0  0  0  0  0  0  0  0  0  0
    5.4920  -34.8689   10.2989 O   0  0  0  0  0  0  0  0  0  0  0  0
    5.5492  -35.5445    7.3476 C   0  0  0  0  0  0  0  0  0  0  0  0
    6.4799  -34.8636    8.9963 C   0  0  0  0  0  0  0  0  0  0  0  0
    6.4513  -35.6666    3.1079 O   0  0  0  0  0  0  0  0  0  0  0  0
    5.7921  -36.5151    3.0405 C   0  0  0  0  0  0  0  0  0  0  0  0
    8.6933  -42.0003    3.7979 C   0  0  0  0  0  0  0  0  0  0  0  0
    9.6777  -39.9823    0.0194 O   0  0  0  0  0  0  0  0  0  0  0  0
    5.3270  -43.4397    2.4684 O   0  0  0  0  0  0  0  0  0  0  0  0
    6.0156  -40.9483    0.8878 O   0  0  0  0  0  0  0  0  0  0  0  0
   -0.1511  -41.3686    3.7363 C   0  0  0  0  0  0  0  0  0  0  0  0
    9.6268  -38.3579    1.8880 O   0  0  0  0  0  0  0  0  0  0  0  0
    3.6035  -36.8567    9.1897 C   0  0  0  0  0  0  0  0  0  0  0  0
    8.0899  -36.8595    1.3464 C   0  0  0  0  0  0  0  0  0  0  0  0
    0.6887  -39.6538    2.5761 C   0  0  0  0  0  0  0  0  0  0  0  0
    3.0302  -37.0014    1.1738 C   0  0  0  0  0  0  0  0  0  0  0  0
    7.9508  -38.6379    0.8587 N   0  0  0  0  0  0  0  0  0  0  0  0
    4.5074  -43.6711    0.5418 O   0  0  0  0  0  0  0  0  0  0  0  0
    7.5820  -38.4062    0.1339 C   0  0  0  0  0  0  0  0  0  0  0  0
    8.0727  -35.9364    0.3214 C   0  0  0  0  0  0  0  0  0  0  0  0
    1.3169  -38.2655    4.1042 O   0  0  0  0  0  0  0  0  0  0  0  0
    6.3750  -37.2892    1.9862 O   0  0  0  0  0  0  0  0  0  0  0  0
    3.9566  -40.5753   -1.2040 C   0  0  0  0  0  0  0  0  0  0  0  0
    5.8926  -42.7679    2.7332 C   0  0  0  0  0  0  0  0  0  0  0  0
    4.6558  -35.6439    9.9554 C   0  0  0  0  0  0  0  0  0  0  0  0
    8.1175  -41.3438    2.6919 C   0  0  0  0  0  0  0  0  0  0  0  0
    4.6201  -37.9292    5.0411 C   0  0  0  0  0  0  0  0  0  0  0  0
    4.3371  -37.5593    7.0531 C   0  0  0  0  0  0  0  0  0  0  0  0
    0.7140  -41.0943   -0.5994 C   0  0  0  0  0  0  0  0  0  0  0  0
    2.7765  -41.7481   -1.3431 C   0  0  0  0  0  0  0  0  0  0  0  0
    0.9122  -38.7327    3.3329 C   0  0  0  0  0  0  0  0  0  0  0  0
  4  3  1  0
 13  6  1  0
 14  5  1  0
 15  9  1  0
 17  1  1  0
 17  8  1  0
 19  2  1  0
 19 12  1  0
 20 18  1  0
 22  1  1  0
 22 21  2  0
 24 10  1  0
 25 15  1  0
 26 16  1  0
 27  4  1  0
 27  5  1  0
 28 10  1  0
 29  2  1  0
 31  3  1  0
 31  4  1  0
 32  8  1  0
 33 10  1  0
 33 30  1  0
 34 15  2  0
 35  6  1  0
 35 13  1  0
 35 33  1  0
 36 13  1  0
 36 30  1  0
 37 17  1  0
 38 22  1  0
 38 30  1  0
 39  9  1  0
 40  7  1  0
 40 25  1  0
 41 18  1  0
 41 29  1  0
 42  7  1  0
 42 16  1  0
 42 23  1  0
 43  1  1  0
 43 12  1  0
 44  2  1  0
 44 12  1  0
 45  3  1  0
 45 11  1  0
 46 11  1  0
 46 39  1  0
 47 31  1  0
 47 37  1  0
M  END
>  <ID>  (1) 
conformer_0

$$$$
