
     RDKit          3D

 38 38  0  0  0  0  0  0  0  0999 V2000
    7.2331  -41.5438    2.6558 C   0  0  0  0  0  0  0  0  0  0  0  0
    7.4812  -36.3749   -0.4235 C   0  0  0  0  0  0  0  0  0  0  0  0
    2.3042  -37.8914    2.4230 C   0  0  0  0  0  0  0  0  0  0  0  0
    4.2458  -36.5314    8.6211 C   0  0  0  0  0  0  0  0  0  0  0  0
   -0.0836  -42.6037    4.0983 C   0  0  0  0  0  0  0  0  0  0  0  0
    3.8141  -40.8911   -1.3287 C   0  0  0  0  0  0  0  0  0  0  0  0
    2.8174  -41.4977   -1.0119 C   0  0  0  0  0  0  0  0  0  0  0  0
   -0.0939  -40.4048    2.0767 C   0  0  0  0  0  0  0  0  0  0  0  0
    4.3386  -37.2828    3.9311 C   0  0  2  0  0  0  0  0  0  0  0  0
    5.2534  -42.6210    2.5895 C   0  0  0  0  0  0  0  0  0  0  0  0
    6.6046  -41.2859    1.3270 C   0  0  0  0  0  0  0  0  0  0  0  0
    8.5309  -40.1238    1.0842 C   0  0  1  0  0  0  0  0  0  0  0  0
    5.2386  -35.6115    7.0200 C   0  0  0  0  0  0  0  0  0  0  0  0
    1.4453  -40.5667   -1.1939 C   0  0  0  0  0  0  0  0  0  0  0  0
    6.7756  -34.5310    8.7669 C   0  0  0  0  0  0  0  0  0  0  0  0
    4.5541  -42.7209    0.2773 C   0  0  0  0  0  0  0  0  0  0  0  0
    9.5401  -40.0978   -0.1386 O   0  0  0  0  0  0  0  0  0  0  0  0
    1.0321  -43.3582    4.6070 C   0  0  0  0  0  0  0  0  0  0  0  0
    6.4368  -35.8349    2.2159 O   0  0  0  0  0  0  0  0  0  0  0  0
    4.4666  -37.7742    7.9931 C   0  0  0  0  0  0  0  0  0  0  0  0
    8.7624  -41.8115    3.3959 C   0  0  0  0  0  0  0  0  0  0  0  0
    1.1726  -38.3949    3.3360 C   0  0  0  0  0  0  0  0  0  0  0  0
    6.9187  -37.1500   -1.1573 C   0  0  0  0  0  0  0  0  0  0  0  0
    6.3414  -35.0980    9.3777 O   0  0  0  0  0  0  0  0  0  0  0  0
    0.8450  -38.4990    3.7615 O   0  0  0  0  0  0  0  0  0  0  0  0
    5.5470  -43.4264    0.6701 O   0  0  0  0  0  0  0  0  0  0  0  0
    7.8738  -38.4144    0.4141 C   0  0  0  0  0  0  0  0  0  0  0  0
    4.5420  -42.4224    3.2492 O   0  0  0  0  0  0  0  0  0  0  0  0
    5.1952  -36.6752    3.0026 C   0  0  0  0  0  0  0  0  0  0  0  0
    3.4301  -37.2425    2.1142 C   0  0  0  0  0  0  0  0  0  0  0  0
   -0.4143  -41.2800    3.4320 C   0  0  0  0  0  0  0  0  0  0  0  0
    7.8143  -38.7782    0.8674 N   0  0  0  0  0  0  0  0  0  0  0  0
    7.2495  -36.5364    1.3666 C   0  0  1  0  0  0  0  0  0  0  0  0
    0.2821  -40.2507   -0.1642 C   0  0  0  0  0  0  0  0  0  0  0  0
    5.0940  -36.5967    5.6809 C   0  0  1  0  0  0  0  0  0  0  0  0
    4.5765  -38.0141    6.4896 C   0  0  0  0  0  0  0  0  0  0  0  0
    5.4187  -36.0339    9.2127 C   0  0  0  0  0  0  0  0  0  0  0  0
    7.4228  -42.2601    4.1685 C   0  0  0  0  0  0  0  0  0  0  0  0
  7  6  2  3
 10  1  1  0
 11  1  1  0
 12 11  1  0
 14  7  1  0
 16  7  1  0
 12 17  1  6
 18  5  1  0
 20  4  1  0
 21  1  1  0
 22  3  3  0
 23  2  2  3
 24 15  1  0
 25 22  1  0
 26 10  1  0
 26 16  1  0
 28 10  2  0
  9 29  1  6
 29 19  1  0
 30  3  1  0
 30  9  1  0
 31  5  1  0
 31  8  1  0
 32 12  1  0
 32 27  1  0
 33  2  1  0
 33 19  1  0
 33 27  1  6
 34  8  1  0
 34 14  1  0
 35  9  1  0
 35 13  1  1
 36 20  1  0
 36 35  1  0
 37  4  1  0
 37 24  1  0
 38  1  1  0
 38 21  1  0
M  END
>  <ID>  (1) 
conformer_0

$$$$
