
     RDKit          3D

 43 42  0  0  0  0  0  0  0  0999 V2000
    1.9765  -40.6839   -0.6943 C   0  0  0  0  0  0  0  0  0  0  0  0
    3.8430  -36.6438    8.8975 C   0  0  0  0  0  0  0  0  0  0  0  0
    4.0169  -40.7518   -0.9063 C   0  0  0  0  0  0  0  0  0  0  0  0
    6.9749  -41.9054    3.4773 C   0  0  1  0  0  0  0  0  0  0  0  0
    4.9571  -37.5147    4.5783 C   0  0  1  0  0  0  0  0  0  0  0  0
   -0.2666  -40.8646    2.8402 C   0  0  0  0  0  0  0  0  0  0  0  0
    6.8606  -36.4863   -0.5589 C   0  0  0  0  0  0  0  0  0  0  0  0
    0.8259  -39.6288    2.1519 C   0  0  1  0  0  0  0  0  0  0  0  0
    8.4341  -40.3209    1.2897 C   0  0  0  0  0  0  0  0  0  0  0  0
    0.8911  -40.5805   -0.2535 C   0  0  0  0  0  0  0  0  0  0  0  0
    4.7768  -42.8236    0.0374 C   0  0  0  0  0  0  0  0  0  0  0  0
    8.1259  -38.7659    0.3435 C   0  0  0  0  0  0  0  0  0  0  0  0
    3.7657  -37.5407    3.0393 C   0  0  1  0  0  0  0  0  0  0  0  0
    2.7466  -37.4131    3.5593 C   0  0  0  0  0  0  0  0  0  0  0  0
   -0.0141  -40.5227    0.9038 C   0  0  0  0  0  0  0  0  0  0  0  0
    6.7165  -34.9386    8.9356 C   0  0  0  0  0  0  0  0  0  0  0  0
    8.1041  -42.1471    4.2632 C   0  0  0  0  0  0  0  0  0  0  0  0
    6.7247  -41.6353    1.5327 C   0  0  0  0  0  0  0  0  0  0  0  0
    7.0750  -37.5842   -1.2194 C   0  0  0  0  0  0  0  0  0  0  0  0
    7.0888  -35.3033    2.4696 O   0  0  0  0  0  0  0  0  0  0  0  0
    9.5589  -40.2314   -0.2600 O   0  0  0  0  0  0  0  0  0  0  0  0
    5.9862  -42.1173    1.3815 O   0  0  0  0  0  0  0  0  0  0  0  0
    7.9544  -36.7214    1.3181 C   0  0  0  0  0  0  0  0  0  0  0  0
    0.0521  -42.1417    3.8740 C   0  0  2  0  0  0  0  0  0  0  0  0
    1.9479  -40.6183    4.3629 O   0  0  0  0  0  0  0  0  0  0  0  0
    5.7587  -36.7044    2.7479 C   0  0  1  0  0  0  0  0  0  0  0  0
    4.8805  -37.2832    5.8296 C   0  0  0  0  0  0  0  0  0  0  0  0
    1.5570  -41.4558    4.2610 C   0  0  0  0  0  0  0  0  0  0  0  0
    4.1515  -42.2208    3.4696 O   0  0  0  0  0  0  0  0  0  0  0  0
    5.3401  -43.5007   -0.4246 O   0  0  0  0  0  0  0  0  0  0  0  0
    0.6521  -43.1008    4.2652 C   0  0  0  0  0  0  0  0  0  0  0  0
    6.7793  -35.0912    9.3151 O   0  0  0  0  0  0  0  0  0  0  0  0
    5.3127  -36.1554    7.4886 C   0  0  0  0  0  0  0  0  0  0  0  0
    8.4100  -36.2419    0.1720 C   0  0  0  0  0  0  0  0  0  0  0  0
    9.7557  -38.9679    1.6566 O   0  0  0  0  0  0  0  0  0  0  0  0
    4.7915  -35.7535    9.6398 C   0  0  0  0  0  0  0  0  0  0  0  0
    4.2856  -37.4483    7.4596 C   0  0  1  0  0  0  0  0  0  0  0  0
    6.3204  -36.9750    2.1523 O   0  0  0  0  0  0  0  0  0  0  0  0
    5.4314  -42.7458    3.0692 C   0  0  0  0  0  0  0  0  0  0  0  0
    2.6432  -37.0851    1.9386 C   0  0  0  0  0  0  0  0  0  0  0  0
    2.8735  -41.8441   -1.0580 C   0  0  0  0  0  0  0  0  0  0  0  0
    0.9105  -38.8431    3.7098 C   0  0  0  0  0  0  0  0  0  0  0  0
    9.0207  -41.6698    3.3547 C   0  0  0  0  0  0  0  0  0  0  0  0
  8  6  1  1
 10  1  1  0
 11  3  1  0
 12  9  1  0
 13  5  1  0
 14 13  1  0
 15  8  1  0
 15 10  1  0
  4 17  1  6
 18  4  1  0
 18  9  1  0
 19  7  1  0
 19 12  1  0
 21  9  1  0
 22 18  2  0
 24  6  1  0
 26  5  1  0
 26 20  1  1
  5 27  1  1
 28 24  1  0
 28 25  2  0
 30 11  2  0
 24 31  1  6
 32 16  1  0
 34  7  1  0
 34 23  1  0
 35  9  1  0
 36  2  2  3
 36 16  1  0
 37  2  1  0
 37 27  1  0
 37 33  1  1
 38 23  1  0
 38 26  1  0
 39  4  1  0
 39 29  1  0
 13 40  1  6
 41  1  1  0
 41  3  1  0
 42  8  1  0
 42 14  1  0
 43 17  1  0
M  END
>  <ID>  (1) 
conformer_0

$$$$
