
     RDKit          3D

 42 41  0  0  0  0  0  0  0  0999 V2000
    3.9367  -40.8335   -0.5383 C   0  0  0  0  0  0  0  0  0  0  0  0
    2.8898  -41.3506   -1.1364 C   0  0  0  0  0  0  0  0  0  0  0  0
    6.7731  -41.9870    4.2230 C   0  0  0  0  0  0  0  0  0  0  0  0
    6.9645  -37.2749   -1.1518 C   0  0  0  0  0  0  0  0  0  0  0  0
    2.0952  -40.6409    0.1061 C   0  0  2  0  0  0  0  0  0  0  0  0
    4.8961  -36.8312    5.7562 C   0  0  0  0  0  0  0  0  0  0  0  0
    4.0310  -37.3157    3.2627 C   0  0  0  0  0  0  0  0  0  0  0  0
    8.6074  -40.1087    1.0552 C   0  0  2  0  0  0  0  0  0  0  0  0
    0.9242  -40.5639   -0.2269 C   0  0  0  0  0  0  0  0  0  0  0  0
    0.7511  -39.6371    1.7458 C   0  0  0  0  0  0  0  0  0  0  0  0
    5.0590  -42.6208    2.3375 C   0  0  0  0  0  0  0  0  0  0  0  0
    7.7608  -38.6682    0.2006 C   0  0  0  0  0  0  0  0  0  0  0  0
    4.4265  -37.6569    7.5495 C   0  0  0  0  0  0  0  0  0  0  0  0
    0.0892  -41.0426    1.5822 C   0  0  2  0  0  0  0  0  0  0  0  0
    1.6450  -37.5640    3.4175 C   0  0  0  0  0  0  0  0  0  0  0  0
    6.8408  -36.2981   -0.6071 C   0  0  0  0  0  0  0  0  0  0  0  0
    7.6224  -41.8245    2.9778 C   0  0  0  0  0  0  0  0  0  0  0  0
    6.8178  -34.7990    9.1872 C   0  0  0  0  0  0  0  0  0  0  0  0
    6.7841  -35.4005    2.6681 O   0  0  0  0  0  0  0  0  0  0  0  0
    9.5395  -40.1358   -0.1313 O   0  0  0  0  0  0  0  0  0  0  0  0
    4.5764  -42.6828    0.1509 C   0  0  0  0  0  0  0  0  0  0  0  0
    6.1176  -35.5652   10.0251 O   0  0  0  0  0  0  0  0  0  0  0  0
   -0.2055  -41.2971    3.1012 C   0  0  0  0  0  0  0  0  0  0  0  0
    5.1582  -35.9026    7.3950 C   0  0  0  0  0  0  0  0  0  0  0  0
    4.9514  -43.4773    0.6094 O   0  0  0  0  0  0  0  0  0  0  0  0
    8.6150  -36.0365    0.4383 C   0  0  0  0  0  0  0  0  0  0  0  0
    6.6446  -41.3683    1.6141 C   0  0  1  0  0  0  0  0  0  0  0  0
    4.2590  -42.5339    3.0484 O   0  0  0  0  0  0  0  0  0  0  0  0
    1.9212  -35.8213    3.6844 O   0  0  0  0  0  0  0  0  0  0  0  0
    0.1260  -42.5399    3.7082 C   0  0  0  0  0  0  0  0  0  0  0  0
    8.3985  -37.0396    1.1569 C   0  0  2  0  0  0  0  0  0  0  0  0
    8.0153  -38.5011    0.7658 N   0  0  0  0  0  0  0  0  0  0  0  0
    4.0590  -37.0165    8.9592 C   0  0  0  0  0  0  0  0  0  0  0  0
    1.7048  -38.2939    4.1426 O   0  0  0  0  0  0  0  0  0  0  0  0
    6.6313  -36.4791    1.8864 C   0  0  0  0  0  0  0  0  0  0  0  0
    2.4916  -37.5873    2.0462 C   0  0  2  0  0  0  0  0  0  0  0  0
    8.7308  -41.8348    3.9442 C   0  0  0  0  0  0  0  0  0  0  0  0
    5.2005  -36.0492    9.5649 C   0  0  0  0  0  0  0  0  0  0  0  0
    1.1957  -43.1633    4.2698 C   0  0  0  0  0  0  0  0  0  0  0  0
    4.7766  -37.7991    5.0803 C   0  0  0  0  0  0  0  0  0  0  0  0
    3.9593  -37.1152    3.6296 C   0  0  0  0  0  0  0  0  0  0  0  0
    6.2041  -36.9986    2.1204 O   0  0  0  0  0  0  0  0  0  0  0  0
  2  1  1  0
  5  2  1  6
  9  5  1  0
 14  9  1  0
 14 10  1  1
 16  4  1  0
 17  3  1  0
  8 20  1  6
 21  1  1  0
 22 18  1  0
 23 14  1  0
 24  6  1  0
 24 13  1  0
 25 11  1  0
 25 21  1  0
 26 16  1  0
 27  8  1  0
 27 11  1  0
 27 17  1  1
 28 11  2  0
 29 15  1  0
 30 23  1  0
 31 26  1  6
 32  8  1  0
 32 12  1  0
 32 31  1  0
 33 13  1  0
 34 15  1  0
 35 19  1  0
 35 31  1  0
 36  5  1  0
 36  7  1  1
 36 15  1  0
 37 17  1  0
 38 22  1  0
 38 33  1  0
 39 30  2  3
 40  6  1  0
 41  7  1  0
 41 40  1  0
 42 35  1  0
M  END
>  <ID>  (1) 
conformer_0

$$$$
