
     RDKit          3D

 37 36  0  0  0  0  0  0  0  0999 V2000
    0.5248  -40.4923    0.3642 C   0  0  0  0  0  0  0  0  0  0  0  0
   -0.3743  -41.0840    2.8763 C   0  0  0  0  0  0  0  0  0  0  0  0
    4.3289  -36.7999    8.8445 C   0  0  0  0  0  0  0  0  0  0  0  0
   -0.1577  -42.2783    3.8800 C   0  0  0  0  0  0  0  0  0  0  0  0
    4.5235  -37.4564    3.9033 C   0  0  1  0  0  0  0  0  0  0  0  0
    7.4527  -42.3343    3.6131 C   0  0  0  0  0  0  0  0  0  0  0  0
    7.1733  -37.4078   -1.3309 C   0  0  0  0  0  0  0  0  0  0  0  0
    2.9789  -37.5498    2.6536 C   0  0  0  0  0  0  0  0  0  0  0  0
    0.0908  -40.2481    1.8874 C   0  0  0  0  0  0  0  0  0  0  0  0
    8.2129  -38.4712    0.2043 C   0  0  0  0  0  0  0  0  0  0  0  0
    4.5088  -37.4829    7.6783 C   0  0  0  0  0  0  0  0  0  0  0  0
    8.2565  -40.2244    1.2308 C   0  0  0  0  0  0  0  0  0  0  0  0
    4.4112  -42.8390    0.1675 C   0  0  0  0  0  0  0  0  0  0  0  0
    2.7508  -37.3494    3.8432 C   0  0  0  0  0  0  0  0  0  0  0  0
    0.9657  -43.2690    3.9247 C   0  0  0  0  0  0  0  0  0  0  0  0
    5.8056  -43.0101    2.9653 C   0  0  1  0  0  0  0  0  0  0  0  0
    6.0348  -35.4355    9.3203 C   0  0  0  0  0  0  0  0  0  0  0  0
    6.6906  -36.4156   -0.5903 C   0  0  0  0  0  0  0  0  0  0  0  0
    5.1490  -36.5468    6.0289 C   0  0  0  0  0  0  0  0  0  0  0  0
    9.5220  -40.1338   -0.4553 O   0  0  0  0  0  0  0  0  0  0  0  0
    6.4459  -35.3814    2.6490 O   0  0  0  0  0  0  0  0  0  0  0  0
    6.5425  -35.2265    9.6691 O   0  0  0  0  0  0  0  0  0  0  0  0
    5.5353  -43.0839    1.0103 O   0  0  0  0  0  0  0  0  0  0  0  0
    1.6617  -40.5263   -0.7311 C   0  0  0  0  0  0  0  0  0  0  0  0
    6.8042  -41.6193    1.6041 C   0  0  0  0  0  0  0  0  0  0  0  0
    4.8973  -42.6251    3.3391 O   0  0  0  0  0  0  0  0  0  0  0  0
    5.6585  -35.3624    7.2332 C   0  0  0  0  0  0  0  0  0  0  0  0
    8.3092  -42.0141    3.3100 C   0  0  0  0  0  0  0  0  0  0  0  0
    7.8288  -36.6736    1.0790 C   0  0  1  0  0  0  0  0  0  0  0  0
    3.7262  -40.5570   -1.1696 C   0  0  0  0  0  0  0  0  0  0  0  0
    9.2832  -38.8150    1.6996 O   0  0  0  0  0  0  0  0  0  0  0  0
    6.0101  -36.4765    2.5995 C   0  0  0  0  0  0  0  0  0  0  0  0
    4.7612  -38.0533    5.7859 C   0  0  2  0  0  0  0  0  0  0  0  0
    8.2535  -35.9247    0.1614 C   0  0  0  0  0  0  0  0  0  0  0  0
    0.9609  -38.5476    3.1606 C   0  0  0  0  0  0  0  0  0  0  0  0
    2.8602  -41.5497   -0.6895 C   0  0  1  0  0  0  0  0  0  0  0  0
    6.5115  -37.1834    1.9523 O   0  0  0  0  0  0  0  0  0  0  0  0
  4  2  2  3
  9  1  1  0
  9  2  1  0
 11  3  1  0
  5 14  1  1
 14  8  1  0
 15  4  1  0
 16  6  1  0
 18  7  1  0
 20 12  2  0
 22 17  2  0
 23 13  1  0
 23 16  1  0
 24  1  1  0
 25 12  1  0
 25 16  1  0
 16 26  1  1
 27 17  1  0
 27 19  2  3
 28  6  2  3
 29 10  1  6
 31 10  1  0
 31 12  1  0
 32  5  1  0
 32 21  2  0
 33  5  1  0
 33 11  1  1
 33 19  1  0
 34 18  1  0
 34 29  1  0
 35 14  1  0
 36 13  1  0
 36 24  1  0
 36 30  1  6
 37 29  1  0
 37 32  1  0
M  END
>  <ID>  (1) 
conformer_0

$$$$
