
     RDKit          3D

 47 48  0  0  0  0  0  0  0  0999 V2000
    3.3727  -37.4437    2.7419 C   0  0  0  0  0  0  0  0  0  0  0  0
    0.2240  -40.2815    0.7463 C   0  0  0  0  0  0  0  0  0  0  0  0
    2.4708  -41.4636   -1.0285 C   0  0  0  0  0  0  0  0  0  0  0  0
    1.9160  -37.7231    2.2652 C   0  0  0  0  0  0  0  0  0  0  0  0
    0.0757  -41.2725    2.9519 C   0  0  0  0  0  0  0  0  0  0  0  0
    6.4995  -42.1044    3.1907 C   0  0  0  0  0  0  0  0  0  0  0  0
    6.6656  -37.4970   -1.1898 C   0  0  0  0  0  0  0  0  0  0  0  0
    0.1863  -39.7656    1.7769 C   0  0  0  0  0  0  0  0  0  0  0  0
    4.5755  -43.5515   -0.7614 C   0  0  0  0  0  0  0  0  0  0  0  0
    8.9597  -39.6922    0.9502 C   0  0  0  0  0  0  0  0  0  0  0  0
    7.3657  -38.3314   -0.0431 C   0  0  0  0  0  0  0  0  0  0  0  0
    1.5589  -40.8761    0.0283 C   0  0  0  0  0  0  0  0  0  0  0  0
    4.9741  -36.7833    9.5583 C   0  0  0  0  0  0  0  0  0  0  0  0
    6.6057  -36.4382   -0.4132 C   0  0  0  0  0  0  0  0  0  0  0  0
   -0.1320  -42.3322    3.9650 C   0  0  0  0  0  0  0  0  0  0  0  0
    4.9646  -42.1762    0.1977 C   0  0  0  0  0  0  0  0  0  0  0  0
    4.9183  -43.1425   -2.2505 O   0  0  0  0  0  0  0  0  0  0  0  0
    9.3456  -40.1216   -0.3448 O   0  0  0  0  0  0  0  0  0  0  0  0
    7.1812  -35.4256    2.7122 O   0  0  0  0  0  0  0  0  0  0  0  0
    1.9465  -37.6394    3.2052 C   0  0  0  0  0  0  0  0  0  0  0  0
    6.6512  -34.6915    8.9218 C   0  0  0  0  0  0  0  0  0  0  0  0
    8.2986  -36.8727    1.0722 C   0  0  0  0  0  0  0  0  0  0  0  0
    9.8209  -38.9618    1.9023 O   0  0  0  0  0  0  0  0  0  0  0  0
    4.5270  -37.8175    6.3889 C   0  0  0  0  0  0  0  0  0  0  0  0
    8.5604  -42.1574    3.7003 C   0  0  0  0  0  0  0  0  0  0  0  0
    0.0059  -37.6327    3.5828 O   0  0  0  0  0  0  0  0  0  0  0  0
    6.2221  -40.9491    0.4308 O   0  0  0  0  0  0  0  0  0  0  0  0
    3.7855  -42.2421    3.9139 O   0  0  0  0  0  0  0  0  0  0  0  0
    6.5820  -36.2877    1.7181 C   0  0  0  0  0  0  0  0  0  0  0  0
    4.6012  -37.8711    4.2849 C   0  0  0  0  0  0  0  0  0  0  0  0
    3.5727  -41.0301   -1.1063 C   0  0  0  0  0  0  0  0  0  0  0  0
    5.7115  -34.7462    9.7706 O   0  0  0  0  0  0  0  0  0  0  0  0
    8.0364  -38.4193    0.8659 N   0  0  0  0  0  0  0  0  0  0  0  0
    4.8935  -44.3405    0.0431 O   0  0  0  0  0  0  0  0  0  0  0  0
    5.4955  -42.7285    2.5381 C   0  0  0  0  0  0  0  0  0  0  0  0
    8.3833  -35.9729    0.1518 C   0  0  0  0  0  0  0  0  0  0  0  0
    0.6941  -43.3052    3.8429 C   0  0  0  0  0  0  0  0  0  0  0  0
    4.4698  -37.5457    8.1216 C   0  0  0  0  0  0  0  0  0  0  0  0
    5.1944  -36.6946    5.4902 C   0  0  0  0  0  0  0  0  0  0  0  0
    5.2543  -36.0602    7.4246 C   0  0  0  0  0  0  0  0  0  0  0  0
    7.4298  -40.9367    1.5023 C   0  0  0  0  0  0  0  0  0  0  0  0
    5.9109  -36.6606    2.2574 O   0  0  0  0  0  0  0  0  0  0  0  0
    5.0590  -36.9782    3.4134 C   0  0  0  0  0  0  0  0  0  0  0  0
    5.2906  -42.6989    1.3714 O   0  0  0  0  0  0  0  0  0  0  0  0
    7.8718  -41.4539    2.6129 C   0  0  0  0  0  0  0  0  0  0  0  0
    5.2891  -35.6405   10.1729 C   0  0  0  0  0  0  0  0  0  0  0  0
    0.3534  -39.2390    3.0255 C   0  0  0  0  0  0  0  0  0  0  0  0
  8  2  1  0
  8  5  1  0
 11  7  1  0
 12  2  2  0
 12  3  2  0
 14  7  1  0
 15  5  1  0
 16  9  1  0
 17  9  1  0
 18 10  1  0
 20  1  1  0
 20  4  1  0
 23 10  1  0
 27 16  1  0
 29 19  1  0
 29 22  1  0
 31  3  1  0
 31 16  1  0
 32 21  1  0
 33 10  1  0
 33 11  1  0
 33 22  1  0
 34  9  1  0
 35  6  1  0
 35 28  1  0
 36 14  1  0
 36 22  1  0
 37 15  1  0
 38 13  1  0
 38 24  1  0
 39 24  1  0
 39 30  1  0
 40 38  1  0
 41 10  1  0
 41 27  1  0
 42 29  1  0
 43  1  1  0
 43 30  1  0
 43 42  1  0
 44 16  1  0
 44 35  1  0
 45  6  1  0
 45 25  1  0
 45 41  1  0
 46 13  1  0
 46 32  1  0
 47  8  1  0
 47 26  1  0
M  END
>  <ID>  (1) 
conformer_0

$$$$
