
     RDKit          3D

 40 39  0  0  0  0  0  0  0  0999 V2000
   -0.3484  -41.3341    3.0025 C   0  0  0  0  0  0  0  0  0  0  0  0
    6.3075  -41.9889    4.7255 C   0  0  0  0  0  0  0  0  0  0  0  0
    3.8644  -37.7656    3.0062 C   0  0  0  0  0  0  0  0  0  0  0  0
    1.4141  -40.6328   -0.3201 C   0  0  0  0  0  0  0  0  0  0  0  0
    4.4895  -36.9177    8.3888 C   0  0  0  0  0  0  0  0  0  0  0  0
    0.2258  -40.4490    0.4249 C   0  0  0  0  0  0  0  0  0  0  0  0
    4.4551  -37.2004    7.3983 C   0  0  0  0  0  0  0  0  0  0  0  0
    6.9532  -37.2726   -1.2654 C   0  0  0  0  0  0  0  0  0  0  0  0
    8.6955  -39.6202    0.7336 C   0  0  0  0  0  0  0  0  0  0  0  0
   -0.0900  -40.5340    1.7650 C   0  0  0  0  0  0  0  0  0  0  0  0
    7.7135  -41.0687    1.3513 C   0  0  0  0  0  0  0  0  0  0  0  0
    7.4961  -38.1468   -0.0035 C   0  0  0  0  0  0  0  0  0  0  0  0
    4.8581  -37.3390    4.9874 C   0  0  0  0  0  0  0  0  0  0  0  0
    4.3254  -42.6085   -0.1321 C   0  0  0  0  0  0  0  0  0  0  0  0
   -0.1048  -42.5764    3.8235 C   0  0  0  0  0  0  0  0  0  0  0  0
    5.1114  -36.0014    9.9011 C   0  0  0  0  0  0  0  0  0  0  0  0
    8.2061  -42.0712    4.2697 C   0  0  0  0  0  0  0  0  0  0  0  0
    6.8485  -36.2092   -0.5441 C   0  0  0  0  0  0  0  0  0  0  0  0
    1.6633  -37.6928    3.7860 C   0  0  0  0  0  0  0  0  0  0  0  0
    9.2382  -39.9928   -0.3358 O   0  0  0  0  0  0  0  0  0  0  0  0
    6.5270  -36.0858    2.3210 O   0  0  0  0  0  0  0  0  0  0  0  0
    8.0944  -36.5858    1.3556 C   0  0  0  0  0  0  0  0  0  0  0  0
    1.1505  -43.1627    4.2120 C   0  0  0  0  0  0  0  0  0  0  0  0
    6.1788  -34.9426    9.3916 O   0  0  0  0  0  0  0  0  0  0  0  0
    5.4620  -36.7447    2.7737 C   0  0  0  0  0  0  0  0  0  0  0  0
    1.3668  -39.6547    4.3142 O   0  0  0  0  0  0  0  0  0  0  0  0
    9.5423  -38.7851    1.8312 O   0  0  0  0  0  0  0  0  0  0  0  0
    2.7514  -37.7738    2.4369 C   0  0  0  0  0  0  0  0  0  0  0  0
    5.3360  -42.8088    0.0489 O   0  0  0  0  0  0  0  0  0  0  0  0
    6.7800  -40.1507    0.1215 O   0  0  0  0  0  0  0  0  0  0  0  0
    0.7762  -40.1377    4.0629 C   0  0  0  0  0  0  0  0  0  0  0  0
    2.3940  -41.6381   -0.9189 C   0  0  0  0  0  0  0  0  0  0  0  0
    5.9349  -41.7104    0.9469 C   0  0  0  0  0  0  0  0  0  0  0  0
    5.1232  -42.7831    2.3508 O   0  0  0  0  0  0  0  0  0  0  0  0
    5.1338  -36.3080    6.3487 C   0  0  0  0  0  0  0  0  0  0  0  0
    6.3426  -34.8584    8.5294 C   0  0  0  0  0  0  0  0  0  0  0  0
    7.9363  -41.7706    3.0194 C   0  0  0  0  0  0  0  0  0  0  0  0
    8.5937  -36.0388    0.2092 C   0  0  0  0  0  0  0  0  0  0  0  0
    5.6179  -42.8608    2.8736 C   0  0  0  0  0  0  0  0  0  0  0  0
    3.4287  -40.8110   -1.1808 C   0  0  0  0  0  0  0  0  0  0  0  0
  6  4  1  0
  7  5  1  0
 10  1  1  0
 10  6  1  0
 11  9  1  0
 12  8  1  0
 12  9  1  0
 13  3  1  0
 15  1  1  0
 16  5  1  0
 17  2  1  0
 18  8  1  0
 20  9  1  0
 22 21  1  0
 23 15  1  0
 24 16  1  0
 25  3  1  0
 25 21  1  0
 26 19  1  0
 27  9  1  0
 28  3  1  0
 28 19  1  0
 29 14  1  0
 30 11  1  0
 31  1  1  0
 31 26  1  0
 32  4  1  0
 33 11  1  0
 33 29  1  0
 34 33  1  0
 35  7  1  0
 35 13  1  0
 36 24  1  0
 37 11  1  0
 37 17  1  0
 38 18  1  0
 38 22  1  0
 39 34  1  0
 40 32  1  0
M  END
>  <ID>  (1) 
conformer_0

$$$$
