
     RDKit          3D

 50 53  0  0  0  0  0  0  0  0999 V2000
    4.5754  -36.9043    8.9605 C   0  0  0  0  0  0  0  0  0  0  0  0
    1.6284  -40.4514   -1.0245 C   0  0  0  0  0  0  0  0  0  0  0  0
    3.1145  -41.3971   -1.0363 C   0  0  0  0  0  0  0  0  0  0  0  0
    4.0790  -40.6797   -1.2816 C   0  0  0  0  0  0  0  0  0  0  0  0
    7.1965  -37.6227   -1.1859 C   0  0  0  0  0  0  0  0  0  0  0  0
    2.2899  -38.0969    2.4401 C   0  0  0  0  0  0  0  0  0  0  0  0
    3.9500  -36.8795    8.0106 C   0  0  0  0  0  0  0  0  0  0  0  0
    6.7863  -42.0357    3.9949 C   0  0  0  0  0  0  0  0  0  0  0  0
    7.2268  -41.6990    1.7002 C   0  0  2  0  0  0  0  0  0  0  0  0
    5.2729  -42.8412    2.7218 C   0  0  0  0  0  0  0  0  0  0  0  0
   -0.1504  -40.6510    0.2342 C   0  0  0  0  0  0  0  0  0  0  0  0
    5.3918  -35.8751    8.5479 C   0  0  2  0  0  0  0  0  0  0  0  0
    1.0345  -40.4510    0.2419 C   0  0  0  0  0  0  0  0  0  0  0  0
    3.6015  -37.4434    2.6504 C   0  0  0  0  0  0  0  0  0  0  0  0
    1.9312  -37.5248    3.6447 C   0  0  2  0  0  0  0  0  0  0  0  0
    5.5889  -41.6683    0.6350 C   0  0  0  0  0  0  0  0  0  0  0  0
    7.1037  -36.4035   -0.7244 C   0  0  0  0  0  0  0  0  0  0  0  0
   -0.5152  -41.8532    2.0838 C   0  0  0  0  0  0  0  0  0  0  0  0
    4.4464  -42.6684   -0.0784 C   0  0  1  0  0  0  0  0  0  0  0  0
    6.3990  -35.5084    2.7630 O   0  0  0  0  0  0  0  0  0  0  0  0
    9.4788  -40.1170   -0.2184 O   0  0  0  0  0  0  0  0  0  0  0  0
    8.7381  -42.1286    3.8466 C   0  0  0  0  0  0  0  0  0  0  0  0
    4.8169  -43.6660    0.7585 O   0  0  0  0  0  0  0  0  0  0  0  0
   -0.3948  -41.7255    3.6850 C   0  0  0  0  0  0  0  0  0  0  0  0
    6.9465  -35.0547    9.0709 O   0  0  0  0  0  0  0  0  0  0  0  0
    4.5469  -37.8557    4.2627 C   0  0  1  0  0  0  0  0  0  0  0  0
    7.4295  -36.5075    1.4976 C   0  0  0  0  0  0  0  0  0  0  0  0
    7.7855  -43.1336    1.1036 O   0  0  0  0  0  0  0  0  0  0  0  0
    1.4040  -38.9787    4.3887 O   0  0  0  0  0  0  0  0  0  0  0  0
    5.4671  -36.7984    2.9668 C   0  0  0  0  0  0  0  0  0  0  0  0
    4.6271  -37.7601    6.5993 C   0  0  2  0  0  0  0  0  0  0  0  0
    1.2521  -36.0870    3.3887 O   0  0  0  0  0  0  0  0  0  0  0  0
    8.4841  -36.0705    0.3474 C   0  0  1  0  0  0  0  0  0  0  0  0
    4.7492  -42.5736    2.9555 O   0  0  0  0  0  0  0  0  0  0  0  0
    0.1550  -42.9079    4.0384 C   0  0  0  0  0  0  0  0  0  0  0  0
    9.7033  -38.9962    1.6969 O   0  0  0  0  0  0  0  0  0  0  0  0
    1.8587  -43.6330    3.7295 C   0  0  0  0  0  0  0  0  0  0  0  0
    6.9718  -34.3959    8.0157 C   0  0  0  0  0  0  0  0  0  0  0  0
    6.2287  -40.9974    0.5662 O   0  0  0  0  0  0  0  0  0  0  0  0
    7.6809  -38.9697    0.9010 N   0  0  0  0  0  0  0  0  0  0  0  0
    5.4143  -36.0744    6.9003 C   0  0  0  0  0  0  0  0  0  0  0  0
    5.1746  -36.8271    5.3132 C   0  0  2  0  0  0  0  0  0  0  0  0
    7.1747  -38.6939    0.3200 C   0  0  0  0  0  0  0  0  0  0  0  0
    7.9308  -41.7872    2.7823 C   0  0  2  0  0  0  0  0  0  0  0  0
    6.1730  -37.0370    1.9397 O   0  0  0  0  0  0  0  0  0  0  0  0
    0.3550  -40.2619    2.3183 C   0  0  2  0  0  0  0  0  0  0  0  0
    8.4967  -40.2161    0.9961 C   0  0  1  0  0  0  0  0  0  0  0  0
    8.7910  -37.9456    0.8519 C   0  0  1  0  0  0  0  0  0  0  0  0
    6.6309  -35.6611   10.2265 C   0  0  0  0  0  0  0  0  0  0  0  0
    0.8783  -39.0191    3.8156 C   0  0  0  0  0  0  0  0  0  0  0  0
  3  2  1  0
  4  3  2  3
  7  1  1  0
 10  8  1  0
 12  1  1  0
 13  2  1  0
 13 11  1  0
 14  6  1  0
 15  6  1  0
 17  5  1  0
 19  3  1  0
 19 16  1  0
 19 23  1  1
 24 18  1  0
 26 14  1  6
  9 28  1  6
 29 15  1  0
 30 20  2  0
 30 26  1  0
 31  7  1  6
 15 32  1  6
 33 17  1  0
 33 27  1  1
 34 10  1  0
 35 24  1  0
 37 35  1  0
 38 25  1  0
 39  9  1  0
 39 16  1  0
 41 12  1  0
 41 31  1  0
 42 26  1  0
 42 31  1  0
 42 41  1  1
 43  5  1  0
 43 40  1  0
 44  8  1  0
 44  9  1  0
 44 22  1  6
 45 27  1  0
 45 30  1  0
 46 11  1  6
 46 18  1  0
 47 21  1  6
 47 36  1  0
 47 40  1  0
 48 33  1  0
 48 36  1  1
 48 40  1  0
 12 49  1  1
 49 25  1  0
 50 29  1  0
 50 46  1  0
M  END
>  <ID>  (1) 
conformer_0

$$$$
