
     RDKit          3D

 46 46  0  0  0  0  0  0  0  0999 V2000
    4.6838  -37.8064    5.4211 C   0  0  0  0  0  0  0  0  0  0  0  0
   -0.2322  -40.8203    0.8432 C   0  0  0  0  0  0  0  0  0  0  0  0
    3.4206  -40.7919   -0.7276 C   0  0  0  0  0  0  0  0  0  0  0  0
    6.7096  -41.7054    4.0629 C   0  0  0  0  0  0  0  0  0  0  0  0
    0.8081  -40.6951   -0.5894 C   0  0  0  0  0  0  0  0  0  0  0  0
    2.6915  -37.7441    3.0234 C   0  0  0  0  0  0  0  0  0  0  0  0
    5.1695  -36.6529    5.7736 C   0  0  0  0  0  0  0  0  0  0  0  0
    6.6963  -37.7723   -1.1922 C   0  0  0  0  0  0  0  0  0  0  0  0
    1.5780  -41.5407   -0.2823 C   0  0  0  0  0  0  0  0  0  0  0  0
    5.5693  -42.3910    2.6602 C   0  0  0  0  0  0  0  0  0  0  0  0
    9.0709  -36.8247    1.4705 C   0  0  0  0  0  0  0  0  0  0  0  0
    4.4764  -43.3638   -0.4669 C   0  0  2  0  0  0  0  0  0  0  0  0
    4.3253  -37.4090    3.7017 C   0  0  1  0  0  0  0  0  0  0  0  0
    6.3774  -34.9290    8.1725 C   0  0  0  0  0  0  0  0  0  0  0  0
    7.1027  -41.4075    1.4929 C   0  0  0  0  0  0  0  0  0  0  0  0
    7.1908  -36.7095   -0.6332 C   0  0  0  0  0  0  0  0  0  0  0  0
   -0.0658  -40.9198    3.4036 C   0  0  2  0  0  0  0  0  0  0  0  0
    5.1548  -36.6173    3.0651 C   0  0  0  0  0  0  0  0  0  0  0  0
   -0.2983  -43.1381    4.0968 C   0  0  0  0  0  0  0  0  0  0  0  0
    7.7528  -41.8064    2.5801 C   0  0  0  0  0  0  0  0  0  0  0  0
    9.2998  -39.9524   -0.0666 O   0  0  0  0  0  0  0  0  0  0  0  0
    5.4751  -43.8062    0.1601 O   0  0  0  0  0  0  0  0  0  0  0  0
    6.4731  -35.6600    3.2330 O   0  0  0  0  0  0  0  0  0  0  0  0
    4.9358  -42.4646    2.5858 O   0  0  0  0  0  0  0  0  0  0  0  0
    4.5113  -37.3671    7.4821 C   0  0  0  0  0  0  0  0  0  0  0  0
    2.3889  -37.6613    2.9303 C   0  0  0  0  0  0  0  0  0  0  0  0
    6.4371  -34.9422    9.8376 O   0  0  0  0  0  0  0  0  0  0  0  0
   -0.3882  -42.1390    2.9394 C   0  0  0  0  0  0  0  0  0  0  0  0
    8.7296  -40.0037    0.9648 C   0  0  0  0  0  0  0  0  0  0  0  0
    4.1146  -36.2962    9.1269 C   0  0  0  0  0  0  0  0  0  0  0  0
    2.7620  -40.7689    3.8872 O   0  0  0  0  0  0  0  0  0  0  0  0
    5.1604  -35.6088   10.0858 C   0  0  0  0  0  0  0  0  0  0  0  0
    9.4696  -38.5128    1.5860 O   0  0  0  0  0  0  0  0  0  0  0  0
    7.7074  -38.3256    0.0884 C   0  0  0  0  0  0  0  0  0  0  0  0
    0.5875  -40.0178    2.0060 C   0  0  1  0  0  0  0  0  0  0  0  0
    6.8439  -36.5461    1.5632 C   0  0  0  0  0  0  0  0  0  0  0  0
    8.1237  -35.9306    0.5316 C   0  0  1  0  0  0  0  0  0  0  0  0
    5.2730  -36.1971    7.6711 C   0  0  0  0  0  0  0  0  0  0  0  0
    5.5838  -36.6645    1.7836 O   0  0  0  0  0  0  0  0  0  0  0  0
    8.6661  -42.0629    3.5412 C   0  0  0  0  0  0  0  0  0  0  0  0
    6.9769  -34.1928   10.0172 C   0  0  0  0  0  0  0  0  0  0  0  0
    2.9247  -42.0912   -1.1725 C   0  0  2  0  0  0  0  0  0  0  0  0
    5.1185  -42.2824    0.7367 C   0  0  0  0  0  0  0  0  0  0  0  0
    2.3033  -36.9699    1.6567 C   0  0  0  0  0  0  0  0  0  0  0  0
    1.4578  -40.0027    3.4931 C   0  0  1  0  0  0  0  0  0  0  0  0
    1.0398  -43.6422    3.8454 C   0  0  0  0  0  0  0  0  0  0  0  0
  5  2  1  0
  7  1  1  0
  9  5  1  0
 10  4  1  0
 13  1  1  1
 13  6  1  0
 16  8  1  0
 18 13  1  0
 20  4  1  0
 20 15  1  0
 12 22  1  6
 23 18  2  0
 24 10  1  0
 26  6  1  0
 17 28  1  6
 28 19  1  0
 29 15  1  0
 29 21  2  0
 32 27  1  0
 32 30  1  0
 33 11  1  0
 33 29  1  0
 34  8  1  0
 35  2  1  6
 35 17  1  0
 37 11  1  1
 37 16  1  0
 37 36  1  0
 38  7  1  0
 38 14  1  0
 38 25  1  0
 38 30  1  0
 39 18  1  0
 39 36  1  0
 40 20  2  3
 41 27  1  0
 42  3  1  1
 42  9  1  0
 42 12  1  0
 43 12  1  0
 43 24  1  0
 44 26  1  0
 45 17  1  0
 45 31  1  6
 45 35  1  0
 46 19  1  0
M  END
>  <ID>  (1) 
conformer_0

$$$$
