
     RDKit          3D

 50 54  0  0  0  0  0  0  0  0999 V2000
    6.3629  -36.8569   -0.4817 C   0  0  0  0  0  0  0  0  0  0  0  0
    2.0318  -40.7470   -1.3451 C   0  0  0  0  0  0  0  0  0  0  0  0
    4.5291  -38.2770    7.8907 C   0  0  0  0  0  0  0  0  0  0  0  0
    1.7505  -40.7775   -0.0060 C   0  0  0  0  0  0  0  0  0  0  0  0
    3.9426  -40.7018   -0.8560 C   0  0  0  0  0  0  0  0  0  0  0  0
    7.0284  -41.8832    4.3350 C   0  0  0  0  0  0  0  0  0  0  0  0
    4.2872  -37.6006    3.6299 C   0  0  1  0  0  0  0  0  0  0  0  0
    2.0603  -37.7779    2.9823 C   0  0  0  0  0  0  0  0  0  0  0  0
    5.0144  -42.8812    3.3261 C   0  0  0  0  0  0  0  0  0  0  0  0
    8.3434  -40.3479    1.3103 C   0  0  0  0  0  0  0  0  0  0  0  0
   -0.0209  -40.6258   -0.0550 C   0  0  0  0  0  0  0  0  0  0  0  0
    5.1171  -36.7182    5.3684 C   0  0  0  0  0  0  0  0  0  0  0  0
    6.3172  -41.5936    1.6017 C   0  0  0  0  0  0  0  0  0  0  0  0
    0.6686  -39.7731    1.8966 C   0  0  0  0  0  0  0  0  0  0  0  0
    4.3679  -43.2038   -0.4213 C   0  0  0  0  0  0  0  0  0  0  0  0
   -0.4287  -40.9850    1.6093 C   0  0  2  0  0  0  0  0  0  0  0  0
    6.9358  -33.9376    8.0164 C   0  0  0  0  0  0  0  0  0  0  0  0
    2.1683  -38.0325    3.5492 C   0  0  1  0  0  0  0  0  0  0  0  0
    7.1368  -41.4661    2.6184 C   0  0  0  0  0  0  0  0  0  0  0  0
    7.3240  -37.5162   -1.2145 C   0  0  0  0  0  0  0  0  0  0  0  0
    6.2565  -35.6939    2.9675 O   0  0  0  0  0  0  0  0  0  0  0  0
    9.4761  -40.0893    0.0016 O   0  0  0  0  0  0  0  0  0  0  0  0
    1.7472  -39.1321    4.4123 O   0  0  0  0  0  0  0  0  0  0  0  0
    4.5965  -43.8999   -0.3531 O   0  0  0  0  0  0  0  0  0  0  0  0
    4.5497  -42.7912    3.8103 O   0  0  0  0  0  0  0  0  0  0  0  0
    8.7819  -37.1086    1.4300 C   0  0  2  0  0  0  0  0  0  0  0  0
    4.3352  -36.8433    9.0717 C   0  0  2  0  0  0  0  0  0  0  0  0
    9.7242  -38.2439    2.0011 O   0  0  0  0  0  0  0  0  0  0  0  0
   -0.2056  -42.3853    3.1283 C   0  0  0  0  0  0  0  0  0  0  0  0
    5.2697  -36.7420    3.2564 C   0  0  0  0  0  0  0  0  0  0  0  0
    6.3909  -34.7909    9.1079 O   0  0  0  0  0  0  0  0  0  0  0  0
    4.5966  -38.0944    5.4818 C   0  0  0  0  0  0  0  0  0  0  0  0
    4.4979  -36.8686    7.2597 C   0  0  1  0  0  0  0  0  0  0  0  0
    1.6962  -43.9260    3.5796 C   0  0  0  0  0  0  0  0  0  0  0  0
    4.7781  -42.1189    0.6995 C   0  0  1  0  0  0  0  0  0  0  0  0
    8.1127  -38.7426    0.9835 N   0  0  0  0  0  0  0  0  0  0  0  0
    5.6849  -35.8385    8.8613 C   0  0  2  0  0  0  0  0  0  0  0  0
    6.2978  -40.8122    1.0066 O   0  0  0  0  0  0  0  0  0  0  0  0
    0.3689  -42.4195    4.3006 C   0  0  0  0  0  0  0  0  0  0  0  0
    6.2602  -37.3546    2.0450 O   0  0  0  0  0  0  0  0  0  0  0  0
    8.4209  -41.8382    3.6881 C   0  0  0  0  0  0  0  0  0  0  0  0
    7.8208  -36.1711    0.0781 C   0  0  2  0  0  0  0  0  0  0  0  0
    8.3958  -38.8123    0.3871 C   0  0  0  0  0  0  0  0  0  0  0  0
    6.9649  -36.9101    1.4276 C   0  0  2  0  0  0  0  0  0  0  0  0
    4.7404  -43.2275    1.8806 O   0  0  0  0  0  0  0  0  0  0  0  0
    0.7267  -39.8037    3.5583 C   0  0  0  0  0  0  0  0  0  0  0  0
    3.1659  -37.3280    1.7990 C   0  0  0  0  0  0  0  0  0  0  0  0
   -0.1629  -40.3221    3.7131 C   0  0  0  0  0  0  0  0  0  0  0  0
    3.6516  -41.7251   -1.6235 C   0  0  1  0  0  0  0  0  0  0  0  0
    5.6629  -35.8459    7.2327 C   0  0  0  0  0  0  0  0  0  0  0  0
  4  2  1  0
 11  4  1  0
 16 11  1  6
 16 14  1  0
 18  7  1  0
 18  8  1  6
 19  6  1  0
 19 13  1  0
 20  1  1  0
 22 10  1  0
 23 18  1  0
 24 15  2  0
 25  9  2  0
 27  3  1  1
 26 28  1  1
 29 16  1  0
 30  7  1  0
 30 21  2  0
 31 17  1  0
  7 32  1  1
 32 12  1  0
 33  3  1  0
 33 12  1  1
 33 27  1  0
 35 13  1  0
 35 15  1  0
 36 10  1  0
 36 26  1  0
 37 27  1  0
 37 31  1  1
 38 13  2  0
 39 29  1  0
 39 34  1  0
 40 30  1  0
 41  6  1  0
 41 19  1  0
 42  1  1  6
 42 26  1  0
 43 22  1  0
 43 36  1  0
 44 26  1  0
 44 40  1  6
 44 42  1  0
 45  9  1  0
 35 45  1  1
 46 14  1  0
 46 23  1  0
 47  8  1  0
 48 46  2  3
 49  2  1  0
 49  5  1  1
 49 15  1  0
 50 33  1  0
 50 37  1  0
M  END
>  <ID>  (1) 
conformer_0

$$$$
