
     RDKit          3D

 40 41  0  0  0  0  0  0  0  0999 V2000
    3.4258  -41.6873   -1.2478 C   0  0  0  0  0  0  0  0  0  0  0  0
    1.3394  -40.5638   -0.8665 C   0  0  0  0  0  0  0  0  0  0  0  0
    6.8299  -42.2911    4.0590 C   0  0  0  0  0  0  0  0  0  0  0  0
    4.3397  -37.5958    7.2902 C   0  0  0  0  0  0  0  0  0  0  0  0
    0.5817  -40.8475    0.3765 C   0  0  0  0  0  0  0  0  0  0  0  0
    4.9801  -37.1028    5.7727 C   0  0  0  0  0  0  0  0  0  0  0  0
    6.9020  -37.3735   -1.1663 C   0  0  0  0  0  0  0  0  0  0  0  0
    4.7703  -37.5968    4.6199 C   0  0  0  0  0  0  0  0  0  0  0  0
    8.5561  -37.1377    0.9760 C   0  0  1  0  0  0  0  0  0  0  0  0
    2.7809  -40.9824   -0.7769 C   0  0  0  0  0  0  0  0  0  0  0  0
    4.4261  -43.2433    0.4303 C   0  0  0  0  0  0  0  0  0  0  0  0
    7.5458  -38.5182    0.2128 C   0  0  0  0  0  0  0  0  0  0  0  0
    4.0576  -37.1362    8.5610 C   0  0  0  0  0  0  0  0  0  0  0  0
    0.0237  -40.4747    2.0331 C   0  0  0  0  0  0  0  0  0  0  0  0
    1.6811  -37.9031    3.4870 C   0  0  0  0  0  0  0  0  0  0  0  0
    6.6677  -35.0537    9.1379 C   0  0  0  0  0  0  0  0  0  0  0  0
    9.6552  -40.0632   -0.2094 O   0  0  0  0  0  0  0  0  0  0  0  0
    7.7490  -41.8500    2.5674 C   0  0  0  0  0  0  0  0  0  0  0  0
    6.6775  -35.5055    2.5562 O   0  0  0  0  0  0  0  0  0  0  0  0
    5.6790  -35.4783   10.0622 O   0  0  0  0  0  0  0  0  0  0  0  0
    5.3497  -43.0337    2.1682 C   0  0  0  0  0  0  0  0  0  0  0  0
    7.0094  -41.5183    1.7066 C   0  0  2  0  0  0  0  0  0  0  0  0
   -0.5352  -41.1358    3.0294 C   0  0  2  0  0  0  0  0  0  0  0  0
    5.3569  -43.9719    0.3101 O   0  0  0  0  0  0  0  0  0  0  0  0
    1.6643  -40.1279    4.2355 O   0  0  0  0  0  0  0  0  0  0  0  0
    5.5710  -36.0416    7.1909 C   0  0  0  0  0  0  0  0  0  0  0  0
    7.3956  -36.2450   -0.3411 C   0  0  0  0  0  0  0  0  0  0  0  0
    3.3434  -37.6700    3.1559 C   0  0  1  0  0  0  0  0  0  0  0  0
    7.2205  -36.3840    1.7298 C   0  0  0  0  0  0  0  0  0  0  0  0
    0.9785  -40.3643    3.7949 C   0  0  0  0  0  0  0  0  0  0  0  0
    8.1455  -38.6231    0.7985 N   0  0  0  0  0  0  0  0  0  0  0  0
   -0.1382  -42.5352    3.8317 C   0  0  0  0  0  0  0  0  0  0  0  0
    4.8685  -42.2822    1.7191 O   0  0  0  0  0  0  0  0  0  0  0  0
    2.7110  -37.0824    1.5802 C   0  0  0  0  0  0  0  0  0  0  0  0
    4.8974  -36.1691    9.9053 C   0  0  0  0  0  0  0  0  0  0  0  0
    6.1547  -37.4106    1.9857 O   0  0  0  0  0  0  0  0  0  0  0  0
    8.5831  -42.0634    3.8575 C   0  0  0  0  0  0  0  0  0  0  0  0
    4.9808  -36.9667    3.2512 C   0  0  2  0  0  0  0  0  0  0  0  0
    8.6181  -40.1088    1.0420 C   0  0  2  0  0  0  0  0  0  0  0  0
    1.0343  -43.3391    4.2639 C   0  0  0  0  0  0  0  0  0  0  0  0
  5  2  1  0
  6  4  1  0
  8  6  1  0
 10  1  2  3
 10  2  1  0
 12  7  1  0
 13  4  1  0
 14  5  2  3
 18  3  1  0
 20 16  1  0
 22 18  1  0
 22 21  1  6
 23 14  1  0
 24 11  1  0
 25 15  1  0
 26  6  1  0
 27  7  1  0
 27  9  1  0
 28 15  1  0
  9 29  1  1
 29 19  2  0
 23 30  1  1
 30 25  1  0
 31  9  1  0
 31 12  1  0
 32 23  1  0
 33 11  1  0
 33 21  1  0
 28 34  1  6
 35 13  1  0
 35 20  1  0
 36 29  1  0
 37  3  1  0
 37 18  1  0
 38  8  1  1
 38 28  1  0
 38 36  1  0
 39 17  1  6
 39 22  1  0
 39 31  1  0
 40 32  1  0
M  END
>  <ID>  (1) 
conformer_0

$$$$
