
     RDKit          3D

 48 52  0  0  0  0  0  0  0  0999 V2000
    0.5521  -40.4559    0.1136 C   0  0  0  0  0  0  0  0  0  0  0  0
   -0.2378  -40.7793    1.6315 C   0  0  2  0  0  0  0  0  0  0  0  0
    6.8380  -36.4603   -0.7824 C   0  0  0  0  0  0  0  0  0  0  0  0
    3.5491  -36.6013    9.0474 C   0  0  0  0  0  0  0  0  0  0  0  0
    4.3444  -37.8883    7.6453 C   0  0  0  0  0  0  0  0  0  0  0  0
    0.2188  -43.0696    4.3342 C   0  0  0  0  0  0  0  0  0  0  0  0
    2.2361  -37.7511    2.3020 C   0  0  0  0  0  0  0  0  0  0  0  0
    6.9587  -41.8744    3.5646 C   0  0  1  0  0  0  0  0  0  0  0  0
    4.3114  -42.5927   -0.7189 C   0  0  1  0  0  0  0  0  0  0  0  0
    8.9436  -39.0899    0.4272 C   0  0  0  0  0  0  0  0  0  0  0  0
    0.5431  -39.8249    1.9806 C   0  0  0  0  0  0  0  0  0  0  0  0
    8.1487  -40.5093    1.2441 C   0  0  0  0  0  0  0  0  0  0  0  0
    3.5332  -37.3159    2.4724 C   0  0  2  0  0  0  0  0  0  0  0  0
    4.8305  -42.8159    3.1713 C   0  0  0  0  0  0  0  0  0  0  0  0
   -0.0663  -41.6342    3.4858 C   0  0  0  0  0  0  0  0  0  0  0  0
    5.7352  -35.8996    9.4774 C   0  0  0  0  0  0  0  0  0  0  0  0
    4.7505  -37.8070    6.1296 C   0  0  0  0  0  0  0  0  0  0  0  0
    7.2724  -37.5657   -1.2475 C   0  0  0  0  0  0  0  0  0  0  0  0
    6.6099  -35.3185    2.5059 O   0  0  0  0  0  0  0  0  0  0  0  0
    0.6472  -38.8959    3.2826 C   0  0  0  0  0  0  0  0  0  0  0  0
    9.6771  -40.1068   -0.2402 O   0  0  0  0  0  0  0  0  0  0  0  0
    6.9057  -35.0509    9.1359 O   0  0  0  0  0  0  0  0  0  0  0  0
    5.5291  -35.9766    6.8555 C   0  0  0  0  0  0  0  0  0  0  0  0
    1.1762  -43.7216    4.0777 C   0  0  0  0  0  0  0  0  0  0  0  0
    6.3223  -41.7007    1.6988 C   0  0  0  0  0  0  0  0  0  0  0  0
    8.8686  -41.9252    3.7988 C   0  0  0  0  0  0  0  0  0  0  0  0
    4.4324  -43.4730    1.6685 O   0  0  0  0  0  0  0  0  0  0  0  0
    9.6140  -39.0033    1.8767 O   0  0  0  0  0  0  0  0  0  0  0  0
    5.8610  -41.3659    0.9348 O   0  0  0  0  0  0  0  0  0  0  0  0
    5.0710  -43.5466   -0.3673 O   0  0  0  0  0  0  0  0  0  0  0  0
    8.1234  -36.4222    1.4685 C   0  0  0  0  0  0  0  0  0  0  0  0
    3.5864  -40.7130   -1.2690 C   0  0  0  0  0  0  0  0  0  0  0  0
    4.4538  -37.9659    4.0029 C   0  0  1  0  0  0  0  0  0  0  0  0
    5.3787  -36.8541    4.9472 C   0  0  2  0  0  0  0  0  0  0  0  0
    8.0812  -38.3386    0.7804 N   0  0  0  0  0  0  0  0  0  0  0  0
    1.1368  -38.7284    4.0677 O   0  0  0  0  0  0  0  0  0  0  0  0
    8.3012  -35.8765    0.1754 C   0  0  0  0  0  0  0  0  0  0  0  0
    7.5981  -37.5891    0.4520 C   0  0  0  0  0  0  0  0  0  0  0  0
    2.7784  -42.1179   -1.0172 C   0  0  2  0  0  0  0  0  0  0  0  0
    6.8577  -34.6117    8.1551 C   0  0  0  0  0  0  0  0  0  0  0  0
    6.1081  -36.9519    1.9741 O   0  0  0  0  0  0  0  0  0  0  0  0
    4.5432  -42.6871    0.7171 C   0  0  2  0  0  0  0  0  0  0  0  0
    1.7771  -40.8006   -0.4900 C   0  0  0  0  0  0  0  0  0  0  0  0
    4.9422  -36.7894    8.7429 C   0  0  1  0  0  0  0  0  0  0  0  0
    8.0862  -41.3913    2.6008 C   0  0  1  0  0  0  0  0  0  0  0  0
    2.6501  -37.8218    3.5017 C   0  0  1  0  0  0  0  0  0  0  0  0
    5.8185  -36.5991    2.4804 C   0  0  0  0  0  0  0  0  0  0  0  0
    4.1659  -42.4223    3.3899 O   0  0  0  0  0  0  0  0  0  0  0  0
  2  1  1  6
 11  2  1  0
 12 10  1  0
 13  7  1  0
 15  2  1  0
 15  6  1  0
 17  5  1  0
 18  3  1  0
 20 11  1  0
 21 10  1  0
 22 16  1  0
 24  6  2  3
  8 25  1  6
 26  8  1  0
 27 14  1  0
 28 10  1  0
 29 25  1  0
  9 30  1  6
 33 13  1  0
 34 17  1  0
 34 23  1  1
 33 34  1  1
 35 10  1  0
 36 20  1  0
 37  3  1  0
 37 31  1  0
 38 18  1  0
 38 31  1  0
 38 35  1  0
 39  9  1  0
 39 32  1  6
 40 22  1  0
 42  9  1  0
 42 27  1  6
 42 29  1  0
 42 30  1  0
 43  1  1  0
 43 39  1  0
 44  4  1  6
 44  5  1  0
 44 16  1  0
 45  8  1  0
 45 12  1  1
 45 26  1  0
 46  7  1  0
 46 13  1  0
 46 33  1  0
 46 36  1  1
 13 47  1  1
 47 19  2  0
 47 41  1  0
 48 14  1  0
M  END
>  <ID>  (1) 
conformer_0

$$$$
