
     RDKit          3D

 38 38  0  0  0  0  0  0  0  0999 V2000
    4.4820  -37.0360    7.2410 C   0  0  0  0  0  0  0  0  0  0  0  0
    3.5574  -40.8892   -1.5053 C   0  0  0  0  0  0  0  0  0  0  0  0
    0.1807  -40.1816    2.3837 C   0  0  2  0  0  0  0  0  0  0  0  0
   -0.0943  -41.9525    3.5485 C   0  0  0  0  0  0  0  0  0  0  0  0
    8.1189  -36.1701   -0.0183 C   0  0  2  0  0  0  0  0  0  0  0  0
    4.5168  -36.9880    4.7285 C   0  0  1  0  0  0  0  0  0  0  0  0
    7.4993  -41.7957    3.7445 C   0  0  0  0  0  0  0  0  0  0  0  0
    4.5067  -42.8608    0.0430 C   0  0  1  0  0  0  0  0  0  0  0  0
    4.1114  -36.8324    8.4533 C   0  0  0  0  0  0  0  0  0  0  0  0
    2.5294  -41.1637   -0.8795 C   0  0  0  0  0  0  0  0  0  0  0  0
    8.2697  -38.7116    0.4953 C   0  0  0  0  0  0  0  0  0  0  0  0
    7.3831  -36.7101    1.3723 C   0  0  0  0  0  0  0  0  0  0  0  0
    5.1174  -43.2902    3.1861 C   0  0  0  0  0  0  0  0  0  0  0  0
    6.8800  -35.1199    9.3991 C   0  0  0  0  0  0  0  0  0  0  0  0
    1.8571  -37.5016    3.6776 C   0  0  0  0  0  0  0  0  0  0  0  0
    5.3407  -36.3316    3.3160 C   0  0  0  0  0  0  0  0  0  0  0  0
    9.3939  -40.2624   -0.3529 O   0  0  0  0  0  0  0  0  0  0  0  0
    6.3813  -36.6081   -0.6639 C   0  0  0  0  0  0  0  0  0  0  0  0
    5.1881  -36.1722    6.3196 C   0  0  0  0  0  0  0  0  0  0  0  0
    6.2474  -35.9275    2.4259 O   0  0  0  0  0  0  0  0  0  0  0  0
    0.4164  -40.5790    0.5587 C   0  0  0  0  0  0  0  0  0  0  0  0
    6.0362  -41.8726    1.3965 C   0  0  0  0  0  0  0  0  0  0  0  0
    4.6886  -43.9264    1.0318 O   0  0  0  0  0  0  0  0  0  0  0  0
    6.2451  -41.3224    0.4738 O   0  0  0  0  0  0  0  0  0  0  0  0
    0.4612  -43.1234    4.1687 C   0  0  0  0  0  0  0  0  0  0  0  0
    8.6236  -41.6039    3.2572 C   0  0  0  0  0  0  0  0  0  0  0  0
    1.3891  -39.2179    4.1206 O   0  0  0  0  0  0  0  0  0  0  0  0
    6.2428  -35.0721    9.5566 O   0  0  0  0  0  0  0  0  0  0  0  0
    8.0563  -39.0777    0.9935 N   0  0  0  0  0  0  0  0  0  0  0  0
    3.0278  -37.6037    3.1754 C   0  0  1  0  0  0  0  0  0  0  0  0
    4.4248  -42.8051    3.2830 O   0  0  0  0  0  0  0  0  0  0  0  0
    3.0584  -37.1663    1.7804 C   0  0  0  0  0  0  0  0  0  0  0  0
    8.0840  -40.6646    1.3225 C   0  0  1  0  0  0  0  0  0  0  0  0
    0.8405  -39.5494    3.5493 C   0  0  0  0  0  0  0  0  0  0  0  0
    4.9614  -35.6868    9.7587 C   0  0  0  0  0  0  0  0  0  0  0  0
    7.6895  -37.4265   -1.1319 C   0  0  1  0  0  0  0  0  0  0  0  0
    1.0904  -40.9896   -1.0223 C   0  0  0  0  0  0  0  0  0  0  0  0
    9.8089  -38.8002    1.7147 O   0  0  0  0  0  0  0  0  0  0  0  0
  3  4  1  1
  8  2  1  1
  9  1  1  0
 10  2  1  0
  5 12  1  1
  6 16  1  6
 18  5  1  0
 19  1  1  0
 19  6  1  0
 20 12  1  0
 20 16  1  0
 21  3  1  0
 22  8  1  0
 23  8  1  0
 23 13  1  0
 24 22  1  0
 25  4  1  0
 26  7  1  0
 27 15  1  0
 28 14  1  0
 29 11  1  0
 30  6  1  0
 30 15  1  0
 31 13  1  0
 30 32  1  6
 33 17  1  6
 33 26  1  0
 33 29  1  0
 34  3  1  0
 34 27  1  0
 35  9  2  3
 35 28  1  0
 36  5  1  0
 36 11  1  1
 36 18  1  0
 37 10  1  0
 37 21  1  0
 38 29  1  0
M  END
>  <ID>  (1) 
conformer_0

$$$$
