
     RDKit          3D

 44 46  0  0  0  0  0  0  0  0999 V2000
    1.2148  -40.5617    0.5136 C   0  0  0  0  0  0  0  0  0  0  0  0
    3.8186  -40.8253   -1.5237 C   0  0  0  0  0  0  0  0  0  0  0  0
    6.6109  -36.3883   -0.5007 C   0  0  0  0  0  0  0  0  0  0  0  0
   -0.1823  -40.0558    1.0218 C   0  0  0  0  0  0  0  0  0  0  0  0
    6.5382  -41.9037    3.4314 C   0  0  0  0  0  0  0  0  0  0  0  0
    3.5834  -37.0900    2.3404 C   0  0  2  0  0  0  0  0  0  0  0  0
    1.7943  -37.7667    2.2129 C   0  0  0  0  0  0  0  0  0  0  0  0
    4.3646  -37.5203    7.8069 C   0  0  2  0  0  0  0  0  0  0  0  0
    7.1623  -36.9572    1.2072 C   0  0  2  0  0  0  0  0  0  0  0  0
    3.4763  -41.5666   -1.1311 C   0  0  0  0  0  0  0  0  0  0  0  0
    5.6535  -42.6495    1.9190 C   0  0  0  0  0  0  0  0  0  0  0  0
    8.4142  -39.2692    0.6023 C   0  0  1  0  0  0  0  0  0  0  0  0
    0.2994  -40.5143    2.5604 C   0  0  0  0  0  0  0  0  0  0  0  0
    7.0583  -34.4409    9.6012 C   0  0  0  0  0  0  0  0  0  0  0  0
    4.1212  -36.4856    9.0141 C   0  0  1  0  0  0  0  0  0  0  0  0
    4.6164  -43.0118    0.0538 C   0  0  0  0  0  0  0  0  0  0  0  0
    9.5100  -40.0889   -0.2155 O   0  0  0  0  0  0  0  0  0  0  0  0
    7.6799  -41.9577    2.7742 C   0  0  1  0  0  0  0  0  0  0  0  0
    7.3123  -35.2565    2.3298 O   0  0  0  0  0  0  0  0  0  0  0  0
    5.2519  -36.6083    3.2006 C   0  0  1  0  0  0  0  0  0  0  0  0
   -0.5960  -41.6262    3.1854 C   0  0  0  0  0  0  0  0  0  0  0  0
    9.8921  -38.3217    2.0058 O   0  0  0  0  0  0  0  0  0  0  0  0
    4.7393  -44.0991   -0.2306 O   0  0  0  0  0  0  0  0  0  0  0  0
    5.0587  -36.3211    7.0203 C   0  0  1  0  0  0  0  0  0  0  0  0
    4.2565  -42.8865    3.5505 O   0  0  0  0  0  0  0  0  0  0  0  0
    7.0904  -37.4759   -1.1759 C   0  0  0  0  0  0  0  0  0  0  0  0
   -0.3958  -42.9809    4.0252 C   0  0  0  0  0  0  0  0  0  0  0  0
    1.9073  -37.6236    3.0782 C   0  0  0  0  0  0  0  0  0  0  0  0
    7.4220  -41.0085    1.4443 C   0  0  0  0  0  0  0  0  0  0  0  0
    1.1095  -40.7269    3.5815 C   0  0  0  0  0  0  0  0  0  0  0  0
    4.5039  -38.0665    6.0134 C   0  0  0  0  0  0  0  0  0  0  0  0
    6.3026  -35.0347    9.6812 O   0  0  0  0  0  0  0  0  0  0  0  0
    0.7191  -43.1837    4.4193 C   0  0  0  0  0  0  0  0  0  0  0  0
    8.9223  -37.4220    1.1105 C   0  0  2  0  0  0  0  0  0  0  0  0
    2.0569  -40.5822    4.2054 O   0  0  0  0  0  0  0  0  0  0  0  0
    5.1580  -35.5876   10.4973 C   0  0  0  0  0  0  0  0  0  0  0  0
    6.3308  -36.8296    2.1964 O   0  0  0  0  0  0  0  0  0  0  0  0
    5.3689  -42.9581    1.3735 O   0  0  0  0  0  0  0  0  0  0  0  0
    5.7096  -35.6432    8.2704 C   0  0  0  0  0  0  0  0  0  0  0  0
    8.7889  -41.5707    3.6521 C   0  0  0  0  0  0  0  0  0  0  0  0
    4.1892  -37.7569    3.7768 C   0  0  0  0  0  0  0  0  0  0  0  0
    5.0553  -36.6164    5.1637 C   0  0  2  0  0  0  0  0  0  0  0  0
    1.8974  -40.7603   -0.6631 C   0  0  0  0  0  0  0  0  0  0  0  0
    8.6119  -36.2726    0.0304 C   0  0  0  0  0  0  0  0  0  0  0  0
  4  1  1  0
  9  3  1  0
 10  2  2  3
 11  5  1  0
 13  4  1  0
 15  8  1  0
 16 10  1  0
 12 17  1  1
 18  5  1  0
  9 19  1  1
 20  6  1  0
 21 13  1  0
 23 16  2  0
 24  8  1  0
 25 11  2  0
 26  3  1  0
 27 21  1  0
  6 28  1  1
 28  7  1  0
 29 12  1  0
 29 18  1  0
 30 13  2  0
  8 31  1  6
 32 14  1  0
 33 27  2  3
 34  9  1  0
 34 12  1  0
 34 22  1  0
 35 30  2  0
 15 36  1  1
 36 32  1  0
 37  9  1  0
 20 37  1  6
 38 11  1  0
 38 16  1  0
 39 15  1  0
 24 39  1  1
 18 40  1  1
 41  6  1  0
 41 20  1  0
 42 20  1  0
 42 24  1  0
 42 31  1  1
 43  1  2  3
 43 10  1  0
 34 44  1  6
M  END
>  <ID>  (1) 
conformer_0

$$$$
