
     RDKit          3D

 46 50  0  0  0  0  0  0  0  0999 V2000
    4.2270  -36.5145    9.2109 C   0  0  0  0  0  0  0  0  0  0  0  0
    0.1545  -40.7371    0.2747 C   0  0  0  0  0  0  0  0  0  0  0  0
    0.2978  -40.2220    1.8508 C   0  0  0  0  0  0  0  0  0  0  0  0
    8.3977  -42.2343    3.8367 C   0  0  0  0  0  0  0  0  0  0  0  0
    4.5243  -37.5845    8.2419 C   0  0  0  0  0  0  0  0  0  0  0  0
    1.2629  -40.8546   -0.8113 C   0  0  0  0  0  0  0  0  0  0  0  0
    6.8860  -37.3652   -1.0958 C   0  0  0  0  0  0  0  0  0  0  0  0
    3.4325  -37.5303    2.5656 C   0  0  0  0  0  0  0  0  0  0  0  0
    4.5290  -41.9486    0.0472 C   0  0  0  0  0  0  0  0  0  0  0  0
    2.6854  -41.0138   -0.7961 C   0  0  0  0  0  0  0  0  0  0  0  0
    6.6209  -36.4982    1.8306 C   0  0  0  0  0  0  0  0  0  0  0  0
    4.8813  -36.3493    7.3379 C   0  0  0  0  0  0  0  0  0  0  0  0
   -0.2830  -40.5957    3.4066 C   0  0  0  0  0  0  0  0  0  0  0  0
    7.6733  -41.3568    1.5347 C   0  0  0  0  0  0  0  0  0  0  0  0
    1.3987  -37.2187    3.0485 C   0  0  0  0  0  0  0  0  0  0  0  0
    5.2781  -43.1830    1.0153 C   0  0  0  0  0  0  0  0  0  0  0  0
    8.9552  -40.1297   -0.1053 O   0  0  0  0  0  0  0  0  0  0  0  0
    6.8735  -36.1555   -0.5913 C   0  0  0  0  0  0  0  0  0  0  0  0
    6.5417  -35.5649    2.8804 O   0  0  0  0  0  0  0  0  0  0  0  0
    9.9479  -39.0014    1.8883 O   0  0  0  0  0  0  0  0  0  0  0  0
    5.1642  -35.8593    9.0362 C   0  0  0  0  0  0  0  0  0  0  0  0
    4.8555  -37.3921    3.5688 C   0  0  0  0  0  0  0  0  0  0  0  0
    9.1333  -41.4905    3.3865 C   0  0  0  0  0  0  0  0  0  0  0  0
    3.8441  -40.4809   -1.1067 C   0  0  0  0  0  0  0  0  0  0  0  0
    5.3329  -44.2083    0.7762 O   0  0  0  0  0  0  0  0  0  0  0  0
    6.0535  -34.9619    9.4275 O   0  0  0  0  0  0  0  0  0  0  0  0
    5.8352  -42.4777    2.3561 C   0  0  0  0  0  0  0  0  0  0  0  0
    4.6745  -38.1598    4.2753 C   0  0  0  0  0  0  0  0  0  0  0  0
    0.6158  -38.0991    3.5411 O   0  0  0  0  0  0  0  0  0  0  0  0
   -0.2890  -41.9037    2.9717 C   0  0  0  0  0  0  0  0  0  0  0  0
    2.1129  -37.6918    2.3495 C   0  0  0  0  0  0  0  0  0  0  0  0
    4.7303  -42.6502    2.9667 O   0  0  0  0  0  0  0  0  0  0  0  0
    7.8770  -38.0878    0.8851 N   0  0  0  0  0  0  0  0  0  0  0  0
    7.4564  -38.1416    0.0584 C   0  0  0  0  0  0  0  0  0  0  0  0
    0.0550  -42.9879    3.7765 C   0  0  0  0  0  0  0  0  0  0  0  0
    8.6978  -36.9348    1.2430 C   0  0  0  0  0  0  0  0  0  0  0  0
    8.3693  -35.8785    0.2308 C   0  0  0  0  0  0  0  0  0  0  0  0
    4.6598  -38.0938    6.3963 C   0  0  0  0  0  0  0  0  0  0  0  0
    5.8358  -41.7944    0.3617 O   0  0  0  0  0  0  0  0  0  0  0  0
    1.4453  -43.5968    4.0789 C   0  0  0  0  0  0  0  0  0  0  0  0
    5.9801  -37.0691    2.3069 O   0  0  0  0  0  0  0  0  0  0  0  0
    5.1812  -36.7990    5.5702 C   0  0  0  0  0  0  0  0  0  0  0  0
    0.5243  -39.1531    3.3199 C   0  0  0  0  0  0  0  0  0  0  0  0
    7.0689  -41.7641    2.8483 C   0  0  0  0  0  0  0  0  0  0  0  0
    8.8563  -39.4111    0.8754 C   0  0  0  0  0  0  0  0  0  0  0  0
    6.7536  -34.5438    9.3570 C   0  0  0  0  0  0  0  0  0  0  0  0
  3  2  1  0
  5  1  1  0
  6  2  1  0
 10  6  1  0
 12  5  1  0
 13  3  1  0
 16  9  1  0
 18  7  1  0
 19 11  1  0
 21  1  1  0
 21 12  1  0
 22  8  1  0
 23  4  1  0
 24  9  1  0
 24 10  1  0
 25 16  1  0
 26 21  1  0
 27 16  1  0
 28 22  1  0
 29 15  1  0
 30 13  1  0
 31  8  1  0
 31 15  1  0
 32 27  2  0
 34  7  1  0
 34 33  1  0
 35 30  1  0
 36 11  1  0
 36 33  1  0
 37 18  1  0
 37 36  1  0
 38  5  1  0
 39  9  1  0
 39 16  1  0
 40 35  1  0
 41 11  1  0
 41 22  1  0
 42 12  1  0
 42 28  1  0
 42 38  1  0
 43  3  1  0
 43 13  1  0
 43 29  1  0
 44  4  1  0
 44 14  1  0
 44 27  1  0
 45 17  2  0
 45 20  1  0
 45 33  1  0
 46 26  1  0
M  END
>  <ID>  (1) 
conformer_0

$$$$
