
     RDKit          3D

 50 50  0  0  0  0  0  0  0  0999 V2000
   -0.5340  -41.5143    3.6428 C   0  0  0  0  0  0  0  0  0  0  0  0
    7.1085  -41.5290    2.8393 C   0  0  0  0  0  0  0  0  0  0  0  0
    4.3507  -37.8310    7.3357 C   0  0  0  0  0  0  0  0  0  0  0  0
    4.5136  -37.8881    5.6780 C   0  0  0  0  0  0  0  0  0  0  0  0
    7.1077  -37.4423   -1.3478 C   0  0  0  0  0  0  0  0  0  0  0  0
    0.0759  -40.4288    2.4746 C   0  0  0  0  0  0  0  0  0  0  0  0
   -0.4718  -40.4356    0.8709 C   0  0  0  0  0  0  0  0  0  0  0  0
    2.3057  -38.0855    2.5540 C   0  0  0  0  0  0  0  0  0  0  0  0
    7.4696  -40.6036    1.5235 C   0  0  0  0  0  0  0  0  0  0  0  0
    5.0807  -43.1754    3.0152 C   0  0  0  0  0  0  0  0  0  0  0  0
   -0.0253  -42.8702    4.0247 C   0  0  0  0  0  0  0  0  0  0  0  0
    7.3490  -38.5013    0.3793 C   0  0  0  0  0  0  0  0  0  0  0  0
    4.3237  -43.2787   -0.3104 C   0  0  0  0  0  0  0  0  0  0  0  0
    2.1338  -37.5035    3.8030 C   0  0  0  0  0  0  0  0  0  0  0  0
    3.4509  -37.2300    2.0384 C   0  0  0  0  0  0  0  0  0  0  0  0
    7.1628  -35.3743    2.3997 O   0  0  0  0  0  0  0  0  0  0  0  0
    1.2354  -43.4155    3.9841 C   0  0  0  0  0  0  0  0  0  0  0  0
    4.9151  -35.9322    9.6551 C   0  0  0  0  0  0  0  0  0  0  0  0
    5.8117  -34.9956    9.9654 O   0  0  0  0  0  0  0  0  0  0  0  0
    9.4683  -40.0742   -0.2803 O   0  0  0  0  0  0  0  0  0  0  0  0
    6.9314  -36.3223   -0.5923 C   0  0  0  0  0  0  0  0  0  0  0  0
    7.6074  -42.4802    4.0695 C   0  0  0  0  0  0  0  0  0  0  0  0
    6.3564  -42.3220    1.9262 C   0  0  0  0  0  0  0  0  0  0  0  0
    4.5538  -43.8152    0.3688 O   0  0  0  0  0  0  0  0  0  0  0  0
    4.0862  -36.9217    8.3690 C   0  0  0  0  0  0  0  0  0  0  0  0
    0.5417  -40.4566   -0.1145 C   0  0  0  0  0  0  0  0  0  0  0  0
    0.9933  -38.5274    4.0428 O   0  0  0  0  0  0  0  0  0  0  0  0
    4.4657  -42.6273    2.8653 O   0  0  0  0  0  0  0  0  0  0  0  0
    9.8420  -38.8203    1.8218 O   0  0  0  0  0  0  0  0  0  0  0  0
    5.7476  -42.2436    0.6828 O   0  0  0  0  0  0  0  0  0  0  0  0
    8.8161  -37.2262    0.9809 C   0  0  0  0  0  0  0  0  0  0  0  0
    4.4192  -37.5807    3.7770 C   0  0  0  0  0  0  0  0  0  0  0  0
    8.1471  -38.4864    0.7952 N   0  0  0  0  0  0  0  0  0  0  0  0
    5.1944  -37.0374    3.0039 C   0  0  0  0  0  0  0  0  0  0  0  0
    2.4665  -41.2140    4.2318 O   0  0  0  0  0  0  0  0  0  0  0  0
    1.7475  -40.8178   -0.0528 C   0  0  0  0  0  0  0  0  0  0  0  0
    6.6015  -34.3872    9.0730 C   0  0  0  0  0  0  0  0  0  0  0  0
    6.3091  -37.1784    2.2078 O   0  0  0  0  0  0  0  0  0  0  0  0
    1.7916  -42.0980    4.1005 C   0  0  0  0  0  0  0  0  0  0  0  0
    0.7805  -38.8527    3.7371 C   0  0  0  0  0  0  0  0  0  0  0  0
    5.1147  -36.6137    5.4404 C   0  0  0  0  0  0  0  0  0  0  0  0
    5.2665  -36.1130    7.3685 C   0  0  0  0  0  0  0  0  0  0  0  0
    6.6336  -40.2085    0.1283 O   0  0  0  0  0  0  0  0  0  0  0  0
    3.7439  -40.4156   -1.0449 C   0  0  0  0  0  0  0  0  0  0  0  0
    8.5014  -36.2916   -0.0209 C   0  0  0  0  0  0  0  0  0  0  0  0
    8.9632  -39.6699    0.7139 C   0  0  0  0  0  0  0  0  0  0  0  0
    2.8935  -41.6473   -1.0125 C   0  0  0  0  0  0  0  0  0  0  0  0
    7.4138  -36.2233    1.7520 C   0  0  0  0  0  0  0  0  0  0  0  0
    8.8619  -41.9615    3.6677 C   0  0  0  0  0  0  0  0  0  0  0  0
    4.7044  -41.7797    0.2525 C   0  0  0  0  0  0  0  0  0  0  0  0
  4  3  1  0
  6  1  1  0
  7  6  1  0
  9  2  1  0
 11  1  1  0
 14  8  1  0
 15  8  1  0
 17 11  1  0
 19 18  1  0
 21  5  1  0
 22  2  1  0
 23  2  1  0
 23 10  1  0
 24 13  1  0
 25  3  1  0
 25 18  1  0
 26  7  1  0
 27 14  1  0
 28 10  1  0
 30 23  1  0
 32  4  1  0
 33 12  1  0
 33 31  1  0
 34 15  1  0
 34 32  1  0
 36 26  1  0
 37 19  1  0
 38 34  1  0
 39 17  1  0
 39 35  1  0
 40 27  1  0
 41  4  1  0
 42 25  1  0
 43  9  1  0
 43 12  1  0
 45 21  1  0
 45 31  1  0
 46  9  1  0
 46 20  1  0
 46 29  1  0
 46 33  1  0
 47 36  1  0
 47 44  1  0
 48 16  2  0
 48 31  1  0
 48 38  1  0
 49 22  1  0
 50 13  1  0
 50 30  1  0
 50 44  1  0
M  END
>  <ID>  (1) 
conformer_0

$$$$
