
     RDKit          3D

 37 36  0  0  0  0  0  0  0  0999 V2000
    6.4369  -42.0529    3.0761 C   0  0  1  0  0  0  0  0  0  0  0  0
    2.6858  -41.1625   -0.9498 C   0  0  0  0  0  0  0  0  0  0  0  0
    4.3714  -37.1298    8.3475 C   0  0  0  0  0  0  0  0  0  0  0  0
    1.1709  -40.7569   -0.4840 C   0  0  0  0  0  0  0  0  0  0  0  0
    0.2036  -40.6233    0.6226 C   0  0  0  0  0  0  0  0  0  0  0  0
    4.5410  -37.5922    6.5253 C   0  0  0  0  0  0  0  0  0  0  0  0
    7.6266  -36.4691   -0.3488 C   0  0  0  0  0  0  0  0  0  0  0  0
    4.1963  -40.6593   -1.0320 C   0  0  0  0  0  0  0  0  0  0  0  0
    2.5757  -37.7598    2.4478 C   0  0  0  0  0  0  0  0  0  0  0  0
    8.0894  -36.5924    1.2726 C   0  0  2  0  0  0  0  0  0  0  0  0
    8.0619  -40.4695    1.3779 C   0  0  0  0  0  0  0  0  0  0  0  0
    8.4173  -38.4372    0.5651 C   0  0  0  0  0  0  0  0  0  0  0  0
   -0.3531  -41.4210    2.8831 C   0  0  0  0  0  0  0  0  0  0  0  0
    4.9247  -37.1710    5.1565 C   0  0  0  0  0  0  0  0  0  0  0  0
    4.5706  -42.5335   -0.1148 C   0  0  0  0  0  0  0  0  0  0  0  0
    2.0808  -37.4028    3.5404 C   0  0  0  0  0  0  0  0  0  0  0  0
    7.9713  -42.1948    4.2952 C   0  0  0  0  0  0  0  0  0  0  0  0
    6.2842  -35.1191    9.2076 C   0  0  0  0  0  0  0  0  0  0  0  0
   -0.1223  -42.4805    3.9303 C   0  0  0  0  0  0  0  0  0  0  0  0
    6.4132  -35.8160    2.3898 O   0  0  0  0  0  0  0  0  0  0  0  0
    6.4582  -34.7633    9.6680 O   0  0  0  0  0  0  0  0  0  0  0  0
    9.0679  -40.0773   -0.2325 O   0  0  0  0  0  0  0  0  0  0  0  0
    4.3429  -43.3960    0.1715 O   0  0  0  0  0  0  0  0  0  0  0  0
    6.2875  -41.6411    1.3181 C   0  0  0  0  0  0  0  0  0  0  0  0
    9.7818  -38.6700    1.8650 O   0  0  0  0  0  0  0  0  0  0  0  0
    6.9264  -37.3477   -1.0378 C   0  0  0  0  0  0  0  0  0  0  0  0
    3.5490  -42.0928    4.2880 O   0  0  0  0  0  0  0  0  0  0  0  0
    0.6424  -43.4129    4.3271 C   0  0  0  0  0  0  0  0  0  0  0  0
    5.9821  -36.4910    2.5349 C   0  0  0  0  0  0  0  0  0  0  0  0
    4.2284  -37.4776    3.4235 C   0  0  2  0  0  0  0  0  0  0  0  0
    7.9956  -38.5446    0.9336 N   0  0  0  0  0  0  0  0  0  0  0  0
    4.9190  -36.1429    7.6557 C   0  0  2  0  0  0  0  0  0  0  0  0
    0.3547  -40.2379    2.2559 C   0  0  1  0  0  0  0  0  0  0  0  0
    5.3275  -42.5447    3.2643 C   0  0  0  0  0  0  0  0  0  0  0  0
    8.5847  -41.7118    3.3245 C   0  0  0  0  0  0  0  0  0  0  0  0
    6.4884  -40.7957    0.6165 O   0  0  0  0  0  0  0  0  0  0  0  0
    1.0006  -39.4008    3.6936 C   0  0  0  0  0  0  0  0  0  0  0  0
  4  2  1  0
  5  4  1  0
  8  2  1  0
 10  7  1  0
 12 10  1  0
 14  6  1  0
 15  8  1  0
 16  9  1  0
  1 17  1  6
 19 13  1  0
 10 20  1  1
 21 18  1  0
 22 12  1  0
 23 15  2  0
 24  1  1  0
 25 12  1  0
 26  7  2  3
 28 19  2  3
 29 20  1  0
 30  9  1  1
 30 14  1  0
 30 29  1  0
 31 11  1  0
 31 12  1  0
 32  3  1  1
 32  6  1  0
 32 18  1  0
 33  5  1  6
 33 13  1  0
 34  1  1  0
 34 27  1  0
 35 17  1  0
 36 11  1  0
 36 24  1  0
 37 16  1  0
 37 33  1  0
M  END
>  <ID>  (1) 
conformer_0

$$$$
