
     RDKit          3D

 49 54  0  0  0  0  0  0  0  0999 V2000
    1.2814  -43.0105    4.7698 C   0  0  0  0  0  0  0  0  0  0  0  0
    4.4717  -37.8375    2.8988 C   0  0  0  0  0  0  0  0  0  0  0  0
    0.0828  -43.3316    3.6660 C   0  0  0  0  0  0  0  0  0  0  0  0
    3.5201  -37.0684    7.8250 C   0  0  0  0  0  0  0  0  0  0  0  0
    6.9376  -36.5184   -0.7051 C   0  0  0  0  0  0  0  0  0  0  0  0
   -0.5220  -41.3391    2.5004 C   0  0  0  0  0  0  0  0  0  0  0  0
    6.6453  -42.0597    4.1500 C   0  0  0  0  0  0  0  0  0  0  0  0
    2.2461  -38.2846    2.1826 C   0  0  0  0  0  0  0  0  0  0  0  0
   -0.4952  -40.6562    0.4763 C   0  0  0  0  0  0  0  0  0  0  0  0
    8.6113  -40.1955    0.9537 C   0  0  0  0  0  0  0  0  0  0  0  0
    7.0066  -41.3107    1.5010 C   0  0  0  0  0  0  0  0  0  0  0  0
    7.8798  -38.8079    0.3711 C   0  0  0  0  0  0  0  0  0  0  0  0
    5.1162  -42.5612    0.8186 C   0  0  2  0  0  0  0  0  0  0  0  0
    1.0181  -40.0152   -0.2442 C   0  0  0  0  0  0  0  0  0  0  0  0
    2.9227  -36.9534    2.9124 C   0  0  1  0  0  0  0  0  0  0  0  0
    7.0742  -34.5791    9.1888 C   0  0  0  0  0  0  0  0  0  0  0  0
    6.8715  -37.6169   -1.2423 C   0  0  0  0  0  0  0  0  0  0  0  0
    9.4945  -40.0649   -0.4525 O   0  0  0  0  0  0  0  0  0  0  0  0
    1.7877  -37.3720    3.4819 C   0  0  2  0  0  0  0  0  0  0  0  0
    1.7490  -41.2572   -0.1238 C   0  0  0  0  0  0  0  0  0  0  0  0
    6.6847  -35.5033    2.7945 O   0  0  0  0  0  0  0  0  0  0  0  0
    7.3213  -36.5672    1.7433 C   0  0  2  0  0  0  0  0  0  0  0  0
    0.7831  -38.1728    3.9248 O   0  0  0  0  0  0  0  0  0  0  0  0
    4.2860  -38.2036    4.9415 C   0  0  0  0  0  0  0  0  0  0  0  0
    5.4630  -36.7950    3.2932 C   0  0  1  0  0  0  0  0  0  0  0  0
    6.8415  -35.3144    9.8253 O   0  0  0  0  0  0  0  0  0  0  0  0
    8.6751  -42.0159    3.7265 C   0  0  0  0  0  0  0  0  0  0  0  0
    5.5537  -43.3153    0.4530 O   0  0  0  0  0  0  0  0  0  0  0  0
    3.9030  -41.4199   -1.2235 C   0  0  0  0  0  0  0  0  0  0  0  0
    5.0025  -36.7817    6.2700 C   0  0  1  0  0  0  0  0  0  0  0  0
    9.9425  -39.0180    1.9347 O   0  0  0  0  0  0  0  0  0  0  0  0
    4.7971  -42.6686    2.4165 O   0  0  0  0  0  0  0  0  0  0  0  0
   -0.0333  -41.9448    4.4810 C   0  0  0  0  0  0  0  0  0  0  0  0
    8.2807  -36.2143    0.0663 C   0  0  1  0  0  0  0  0  0  0  0  0
    7.9400  -38.8381    0.9911 N   0  0  0  0  0  0  0  0  0  0  0  0
    5.4663  -37.2185    4.7847 C   0  0  1  0  0  0  0  0  0  0  0  0
    0.3551  -40.3239    1.5929 C   0  0  0  0  0  0  0  0  0  0  0  0
    0.6405  -39.2628    3.7573 C   0  0  0  0  0  0  0  0  0  0  0  0
    7.7259  -41.7115    2.5718 C   0  0  0  0  0  0  0  0  0  0  0  0
    5.5268  -35.7796    9.6024 C   0  0  2  0  0  0  0  0  0  0  0  0
    5.6565  -42.8066    2.8279 C   0  0  0  0  0  0  0  0  0  0  0  0
    6.6062  -37.1326    2.1156 O   0  0  0  0  0  0  0  0  0  0  0  0
    2.9560  -40.2616   -0.7410 C   0  0  0  0  0  0  0  0  0  0  0  0
    0.0589  -40.3712    3.6343 C   0  0  1  0  0  0  0  0  0  0  0  0
    4.2207  -42.7903   -0.7046 C   0  0  0  0  0  0  0  0  0  0  0  0
    4.7099  -38.0180    7.2452 C   0  0  0  0  0  0  0  0  0  0  0  0
    4.2345  -36.4063    9.0129 C   0  0  1  0  0  0  0  0  0  0  0  0
    5.7038  -36.0047    7.8908 C   0  0  2  0  0  0  0  0  0  0  0  0
    8.8118  -37.3208    1.1834 C   0  0  2  0  0  0  0  0  0  0  0  0
  3  1  1  0
 14  9  1  0
 15  2  1  1
 15  8  1  0
 17  5  2  3
 18 10  1  0
 19  8  1  0
 19 15  1  0
 20 14  1  0
 22 21  1  1
 19 23  1  1
 25  2  1  1
 25 21  1  0
 26 16  1  0
 13 28  1  6
 31 10  1  0
 32 13  1  0
 33  1  1  0
 33  3  1  0
 34  5  1  6
 34 22  1  0
 35 10  1  0
 35 12  1  0
 36 24  1  6
 36 25  1  0
 36 30  1  0
 37  6  1  0
 37  9  1  0
 38 23  1  0
 39  7  1  0
 39 11  2  3
 39 27  1  0
 40 26  1  1
 41  7  1  0
 41 32  1  0
 42 22  1  0
 42 25  1  0
 43 20  1  0
 43 29  1  0
 44  6  1  6
 44 33  1  0
 44 38  1  0
 45 13  1  0
 45 29  1  0
 46  4  1  0
 30 46  1  1
 47  4  1  1
 47 40  1  0
 48 30  1  1
 48 40  1  0
 48 47  1  0
 49 22  1  0
 49 34  1  0
 49 35  1  6
M  END
>  <ID>  (1) 
conformer_0

$$$$
