
     RDKit          3D

 46 49  0  0  0  0  0  0  0  0999 V2000
    4.2179  -37.4294    7.4188 C   0  0  0  0  0  0  0  0  0  0  0  0
    7.5381  -41.9322    4.4996 C   0  0  0  0  0  0  0  0  0  0  0  0
    3.6358  -40.8325   -0.7538 C   0  0  0  0  0  0  0  0  0  0  0  0
    6.6226  -36.6924   -0.4858 C   0  0  0  0  0  0  0  0  0  0  0  0
    0.5060  -40.6720    0.3123 C   0  0  0  0  0  0  0  0  0  0  0  0
   -0.2354  -40.7752    3.7242 C   0  0  0  0  0  0  0  0  0  0  0  0
    2.2301  -37.8047    2.5442 C   0  0  0  0  0  0  0  0  0  0  0  0
    4.3006  -42.8717   -0.1952 C   0  0  0  0  0  0  0  0  0  0  0  0
    0.3891  -40.0708    2.4099 C   0  0  0  0  0  0  0  0  0  0  0  0
    4.0860  -37.5345    3.5740 C   0  0  0  0  0  0  0  0  0  0  0  0
    8.2980  -38.5332    0.0477 C   0  0  0  0  0  0  0  0  0  0  0  0
    1.6029  -41.0184   -0.5841 C   0  0  0  0  0  0  0  0  0  0  0  0
    5.5578  -35.3636    7.1494 C   0  0  0  0  0  0  0  0  0  0  0  0
    7.0322  -40.7508    1.4839 C   0  0  0  0  0  0  0  0  0  0  0  0
    6.6989  -34.0742    8.6104 C   0  0  0  0  0  0  0  0  0  0  0  0
    3.2673  -37.5122    3.5584 C   0  0  0  0  0  0  0  0  0  0  0  0
    5.4741  -42.6333    3.0367 C   0  0  0  0  0  0  0  0  0  0  0  0
   -0.7802  -40.8055    1.5104 C   0  0  0  0  0  0  0  0  0  0  0  0
    9.6800  -40.0942   -0.5960 O   0  0  0  0  0  0  0  0  0  0  0  0
    7.3910  -41.5002    2.7044 C   0  0  0  0  0  0  0  0  0  0  0  0
    0.9722  -38.9408    3.5769 C   0  0  0  0  0  0  0  0  0  0  0  0
    7.2929  -37.5646   -1.3311 C   0  0  0  0  0  0  0  0  0  0  0  0
    6.3550  -35.5980    3.2333 O   0  0  0  0  0  0  0  0  0  0  0  0
    6.1354  -34.9551    9.6277 O   0  0  0  0  0  0  0  0  0  0  0  0
    5.1563  -42.6829    2.2594 O   0  0  0  0  0  0  0  0  0  0  0  0
    4.6610  -43.7547   -0.2482 O   0  0  0  0  0  0  0  0  0  0  0  0
   -0.8619  -42.1357    2.8093 C   0  0  0  0  0  0  0  0  0  0  0  0
    4.2226  -36.4563    8.3100 C   0  0  0  0  0  0  0  0  0  0  0  0
    8.8218  -40.0230    0.9447 C   0  0  0  0  0  0  0  0  0  0  0  0
    3.3361  -37.1597    1.4188 C   0  0  0  0  0  0  0  0  0  0  0  0
    6.0240  -41.4529    0.3727 O   0  0  0  0  0  0  0  0  0  0  0  0
    0.0851  -42.6724    3.9352 C   0  0  0  0  0  0  0  0  0  0  0  0
    8.0293  -39.1447    0.8458 N   0  0  0  0  0  0  0  0  0  0  0  0
    4.4715  -37.8258    5.7812 C   0  0  0  0  0  0  0  0  0  0  0  0
    1.4037  -42.9886    4.3270 C   0  0  0  0  0  0  0  0  0  0  0  0
    9.6880  -38.9567    1.5018 O   0  0  0  0  0  0  0  0  0  0  0  0
    6.7081  -37.0771    2.0603 O   0  0  0  0  0  0  0  0  0  0  0  0
    5.2257  -35.5105    9.3760 C   0  0  0  0  0  0  0  0  0  0  0  0
    8.6699  -41.9114    3.4808 C   0  0  0  0  0  0  0  0  0  0  0  0
    7.8089  -37.1669    1.1827 C   0  0  0  0  0  0  0  0  0  0  0  0
    5.6639  -36.5189    3.3731 C   0  0  0  0  0  0  0  0  0  0  0  0
    4.9577  -42.1344    0.9947 C   0  0  0  0  0  0  0  0  0  0  0  0
    2.9614  -41.8394   -1.4034 C   0  0  0  0  0  0  0  0  0  0  0  0
    8.1972  -36.1858    0.0061 C   0  0  0  0  0  0  0  0  0  0  0  0
    4.3568  -41.9897    4.0219 O   0  0  0  0  0  0  0  0  0  0  0  0
    5.1437  -36.3957    5.8493 C   0  0  0  0  0  0  0  0  0  0  0  0
  9  6  1  0
 12  5  3  0
 16  7  1  0
 16 10  1  0
 18  5  1  0
 18  9  1  0
 20  2  1  0
 20 14  1  0
 21  7  1  0
 21  9  1  0
 22  4  1  0
 22 11  1  0
 24 15  1  0
 25 17  1  0
 26  8  2  0
 27  6  1  0
 27 18  1  0
 28  1  1  0
 29 19  1  0
 30  7  1  0
 31 14  1  0
 32  6  1  0
 32 27  1  0
 33 11  1  0
 33 29  1  0
 34  1  1  0
 34 10  1  0
 35 32  1  0
 36 29  1  0
 38 24  1  0
 38 28  1  0
 39  2  1  0
 39 20  1  0
 40 11  1  0
 40 37  1  0
 41 10  1  0
 41 23  2  0
 41 37  1  0
 42  8  1  0
 42 25  1  0
 42 31  1  0
 43  3  1  0
 43  8  1  0
 43 12  1  0
 44  4  1  0
 44 40  1  0
 45 17  1  0
 46 13  1  0
 46 34  1  0
M  END
>  <ID>  (1) 
conformer_0

$$$$
