
     RDKit          3D

 45 46  0  0  0  0  0  0  0  0999 V2000
    1.5344  -40.6790   -1.1818 C   0  0  0  0  0  0  0  0  0  0  0  0
    8.1337  -41.7599    3.1708 C   0  0  0  0  0  0  0  0  0  0  0  0
    3.2875  -41.8326   -1.2056 C   0  0  0  0  0  0  0  0  0  0  0  0
    1.6265  -40.2736    0.1305 C   0  0  0  0  0  0  0  0  0  0  0  0
    4.5358  -37.8092    4.4020 C   0  0  0  0  0  0  0  0  0  0  0  0
    3.5031  -37.2322    3.0617 C   0  0  2  0  0  0  0  0  0  0  0  0
    7.0996  -37.4717   -1.2192 C   0  0  1  0  0  0  0  0  0  0  0  0
    2.2796  -37.8109    2.4334 C   0  0  2  0  0  0  0  0  0  0  0  0
    5.5792  -42.1652    0.9032 C   0  0  1  0  0  0  0  0  0  0  0  0
    8.8979  -39.7063    0.9692 C   0  0  0  0  0  0  0  0  0  0  0  0
    3.5311  -40.5805   -1.2206 C   0  0  0  0  0  0  0  0  0  0  0  0
    7.6359  -41.1402    1.6163 C   0  0  0  0  0  0  0  0  0  0  0  0
   -0.4839  -41.4854    2.5690 C   0  0  1  0  0  0  0  0  0  0  0  0
    4.5008  -42.9849   -0.1970 C   0  0  0  0  0  0  0  0  0  0  0  0
    5.1706  -35.9544    9.6165 C   0  0  0  0  0  0  0  0  0  0  0  0
    4.8692  -36.8132    5.5149 C   0  0  0  0  0  0  0  0  0  0  0  0
    8.8746  -42.0306    3.9731 C   0  0  0  0  0  0  0  0  0  0  0  0
    9.3018  -40.0790   -0.3445 O   0  0  0  0  0  0  0  0  0  0  0  0
    2.0640  -37.8364    3.4977 C   0  0  0  0  0  0  0  0  0  0  0  0
    5.5007  -36.5486    2.0733 O   0  0  0  0  0  0  0  0  0  0  0  0
    6.3179  -36.4104   -0.5529 C   0  0  0  0  0  0  0  0  0  0  0  0
    7.5167  -36.5906    1.3480 C   0  0  2  0  0  0  0  0  0  0  0  0
    5.2713  -43.3983    0.6301 O   0  0  0  0  0  0  0  0  0  0  0  0
   -0.1213  -42.2803    3.6001 C   0  0  0  0  0  0  0  0  0  0  0  0
    6.7608  -35.1596    9.1667 O   0  0  0  0  0  0  0  0  0  0  0  0
    5.3650  -42.5224    2.5913 O   0  0  0  0  0  0  0  0  0  0  0  0
    1.7995  -39.8966    4.2930 O   0  0  0  0  0  0  0  0  0  0  0  0
    4.8110  -36.7738    7.7707 C   0  0  0  0  0  0  0  0  0  0  0  0
    5.4361  -36.4996    2.6019 C   0  0  0  0  0  0  0  0  0  0  0  0
    9.6550  -38.9774    1.7129 O   0  0  0  0  0  0  0  0  0  0  0  0
    6.9649  -34.7960    8.8937 C   0  0  0  0  0  0  0  0  0  0  0  0
    0.8988  -42.9816    4.0626 C   0  0  0  0  0  0  0  0  0  0  0  0
    6.3543  -40.9975    0.5937 O   0  0  0  0  0  0  0  0  0  0  0  0
    7.9368  -38.4370    0.8749 N   0  0  0  0  0  0  0  0  0  0  0  0
    5.8863  -42.2979    2.9305 C   0  0  0  0  0  0  0  0  0  0  0  0
    4.1722  -37.0212    8.9950 C   0  0  0  0  0  0  0  0  0  0  0  0
    1.1183  -40.1446    3.4743 C   0  0  0  0  0  0  0  0  0  0  0  0
    6.8384  -41.9005    4.6234 C   0  0  0  0  0  0  0  0  0  0  0  0
    7.8782  -36.1763   -0.1518 C   0  0  1  0  0  0  0  0  0  0  0  0
    7.7218  -38.2103    0.3217 C   0  0  0  0  0  0  0  0  0  0  0  0
    0.6780  -39.9222    2.4519 C   0  0  0  0  0  0  0  0  0  0  0  0
    0.0214  -40.5338    0.9295 C   0  0  2  0  0  0  0  0  0  0  0  0
    4.7193  -38.1088    6.7458 C   0  0  0  0  0  0  0  0  0  0  0  0
    4.1461  -41.7319    4.2175 O   0  0  0  0  0  0  0  0  0  0  0  0
    6.8295  -35.5488    2.4765 O   0  0  0  0  0  0  0  0  0  0  0  0
  4  1  1  0
  6  5  1  1
  8  6  1  0
 11  1  1  0
 11  3  1  0
 12  2  1  0
 14  3  1  0
 16  5  1  0
 17  2  2  3
 18 10  1  0
  8 19  1  1
  7 21  1  1
  9 23  1  6
 23 14  1  0
 24 13  1  0
 25 15  1  0
 26  9  1  0
 29  6  1  0
 29 20  2  0
 30 10  1  0
 31 25  1  0
 32 24  2  3
 33  9  1  0
 33 12  1  0
 34 10  1  0
 35 26  1  0
 36 15  1  0
 36 28  1  0
 37 27  2  0
 38  2  1  0
 39  7  1  0
 39 21  1  6
 39 22  1  0
 40  7  1  0
 40 22  1  0
 40 34  1  0
 13 41  1  1
 41 37  1  0
 42  4  1  6
 42  8  1  0
 42 13  1  0
 43 16  1  0
 43 28  1  0
 44 35  1  0
 22 45  1  6
 45 29  1  0
M  END
>  <ID>  (1) 
conformer_0

$$$$
