
     RDKit          3D

 44 46  0  0  0  0  0  0  0  0999 V2000
    2.3235  -41.2552   -0.6199 C   0  0  0  0  0  0  0  0  0  0  0  0
    1.0978  -40.5041   -0.2296 C   0  0  0  0  0  0  0  0  0  0  0  0
    7.2427  -36.3626   -0.4924 C   0  0  0  0  0  0  0  0  0  0  0  0
    5.2057  -36.8794    5.7724 C   0  0  0  0  0  0  0  0  0  0  0  0
    3.7138  -36.2204    8.7168 C   0  0  0  0  0  0  0  0  0  0  0  0
    6.7654  -42.0185    3.6324 C   0  0  0  0  0  0  0  0  0  0  0  0
    3.6495  -41.1775   -1.0869 C   0  0  0  0  0  0  0  0  0  0  0  0
    2.4462  -37.9694    2.4365 C   0  0  0  0  0  0  0  0  0  0  0  0
    4.6160  -43.8477    0.8058 C   0  0  0  0  0  0  0  0  0  0  0  0
    8.3105  -39.9474    1.0872 C   0  0  0  0  0  0  0  0  0  0  0  0
   -0.1269  -40.5263    0.6882 C   0  0  0  0  0  0  0  0  0  0  0  0
    9.1145  -37.7756    0.7809 C   0  0  0  0  0  0  0  0  0  0  0  0
    4.8448  -37.6146    4.6403 C   0  0  0  0  0  0  0  0  0  0  0  0
    5.8668  -42.8296    2.3222 C   0  0  0  0  0  0  0  0  0  0  0  0
    6.6795  -34.5886    8.7584 C   0  0  0  0  0  0  0  0  0  0  0  0
    0.4415  -39.3107    3.3744 C   0  0  0  0  0  0  0  0  0  0  0  0
    0.4468  -40.0212    1.9809 C   0  0  0  0  0  0  0  0  0  0  0  0
    6.2776  -35.7600    2.6736 O   0  0  0  0  0  0  0  0  0  0  0  0
    8.2219  -41.4945    2.9474 C   0  0  0  0  0  0  0  0  0  0  0  0
    9.3298  -40.0668   -0.4225 O   0  0  0  0  0  0  0  0  0  0  0  0
    6.7427  -37.2963   -1.1988 C   0  0  0  0  0  0  0  0  0  0  0  0
    6.6836  -34.6474    9.3939 O   0  0  0  0  0  0  0  0  0  0  0  0
    9.5569  -39.1432    1.8661 O   0  0  0  0  0  0  0  0  0  0  0  0
    5.4780  -36.4784    3.3900 C   0  0  0  0  0  0  0  0  0  0  0  0
    3.8974  -37.5245    3.0129 C   0  0  0  0  0  0  0  0  0  0  0  0
    5.0043  -44.1902    0.9427 O   0  0  0  0  0  0  0  0  0  0  0  0
   -0.6185  -41.2073    2.8747 C   0  0  0  0  0  0  0  0  0  0  0  0
    6.9387  -40.2610    0.4853 O   0  0  0  0  0  0  0  0  0  0  0  0
    6.6020  -41.3068    1.4500 C   0  0  0  0  0  0  0  0  0  0  0  0
    8.2009  -38.2107    0.6329 N   0  0  0  0  0  0  0  0  0  0  0  0
    0.8181  -38.9765    4.1504 O   0  0  0  0  0  0  0  0  0  0  0  0
    5.1764  -36.1034    7.8876 C   0  0  0  0  0  0  0  0  0  0  0  0
   -0.2787  -42.2566    3.7304 C   0  0  0  0  0  0  0  0  0  0  0  0
    4.9120  -35.6206    9.8507 C   0  0  0  0  0  0  0  0  0  0  0  0
    7.4527  -38.6391   -0.2253 C   0  0  0  0  0  0  0  0  0  0  0  0
    9.1406  -36.1396    1.9065 O   0  0  0  0  0  0  0  0  0  0  0  0
    4.6251  -42.2692    2.1613 O   0  0  0  0  0  0  0  0  0  0  0  0
    4.4498  -42.2611    0.2144 C   0  0  0  0  0  0  0  0  0  0  0  0
    4.3663  -37.2569    7.2855 C   0  0  0  0  0  0  0  0  0  0  0  0
    2.1775  -37.8956    3.5038 C   0  0  0  0  0  0  0  0  0  0  0  0
    8.7606  -42.1561    3.8954 C   0  0  0  0  0  0  0  0  0  0  0  0
    8.0595  -36.4908    1.3848 C   0  0  0  0  0  0  0  0  0  0  0  0
    1.2101  -43.2395    3.8162 C   0  0  0  0  0  0  0  0  0  0  0  0
    6.2367  -42.4153    0.7506 O   0  0  0  0  0  0  0  0  0  0  0  0
  2  1  1  0
  7  1  1  0
 11  2  1  0
 13  4  1  0
 14  6  1  0
 17 11  1  0
 17 16  1  0
 19  6  1  0
 20 10  1  0
 21  3  1  0
 22 15  1  0
 23 10  1  0
 23 12  1  0
 24 13  1  0
 24 18  1  0
 25  8  1  0
 25 13  1  0
 25 24  1  0
 26  9  2  0
 27 17  1  0
 28 10  1  0
 29 28  1  0
 30 10  1  0
 30 12  1  0
 31 16  1  0
 32  5  1  0
 33 27  1  0
 34  5  1  0
 34 22  1  0
 35 21  1  0
 35 30  1  0
 37 14  1  0
 38  7  1  0
 38  9  1  0
 38 37  1  0
 39  4  1  0
 39  5  1  0
 39 32  1  0
 40  8  1  0
 40 31  1  0
 41 19  1  0
 42 12  1  0
 42 36  1  0
 43 33  1  0
 44 14  1  0
 44 29  1  0
M  END
>  <ID>  (1) 
conformer_0

$$$$
