
     RDKit          3D

 45 47  0  0  0  0  0  0  0  0999 V2000
    4.8299  -36.6079    8.0982 C   0  0  0  0  0  0  0  0  0  0  0  0
   -0.4548  -42.3279    3.8851 C   0  0  0  0  0  0  0  0  0  0  0  0
    0.4067  -43.1033    3.7310 C   0  0  0  0  0  0  0  0  0  0  0  0
   -0.4257  -40.8004    3.3939 C   0  0  1  0  0  0  0  0  0  0  0  0
    6.6979  -37.2823   -0.9974 C   0  0  0  0  0  0  0  0  0  0  0  0
    7.5297  -42.4728    4.5371 C   0  0  0  0  0  0  0  0  0  0  0  0
    2.4708  -37.3685    1.9471 C   0  0  0  0  0  0  0  0  0  0  0  0
    5.2083  -36.3923    5.9745 C   0  0  0  0  0  0  0  0  0  0  0  0
    0.1918  -40.7271    0.3212 C   0  0  2  0  0  0  0  0  0  0  0  0
    7.0234  -36.3446    1.7400 C   0  0  0  0  0  0  0  0  0  0  0  0
    5.5331  -42.7858    3.5363 C   0  0  0  0  0  0  0  0  0  0  0  0
    8.7125  -39.8885    0.8599 C   0  0  0  0  0  0  0  0  0  0  0  0
    4.3145  -42.6257   -0.3813 C   0  0  0  0  0  0  0  0  0  0  0  0
    4.8429  -35.9139    9.0487 C   0  0  0  0  0  0  0  0  0  0  0  0
    1.1440  -41.0279   -0.5715 C   0  0  0  0  0  0  0  0  0  0  0  0
    2.1474  -37.7012    3.1591 C   0  0  1  0  0  0  0  0  0  0  0  0
    6.8853  -36.2572   -0.5589 C   0  0  0  0  0  0  0  0  0  0  0  0
    9.3364  -40.1409   -0.3215 O   0  0  0  0  0  0  0  0  0  0  0  0
    6.4283  -35.2870    2.6020 O   0  0  0  0  0  0  0  0  0  0  0  0
    4.6473  -37.4885    6.9960 C   0  0  0  0  0  0  0  0  0  0  0  0
    7.2398  -41.2273    1.9079 C   0  0  0  0  0  0  0  0  0  0  0  0
    8.9878  -42.1673    3.7695 C   0  0  0  0  0  0  0  0  0  0  0  0
    2.4607  -41.4384   -0.9275 C   0  0  0  0  0  0  0  0  0  0  0  0
    5.1258  -36.6685    3.5801 C   0  0  2  0  0  0  0  0  0  0  0  0
    4.5099  -43.6568    1.2758 O   0  0  0  0  0  0  0  0  0  0  0  0
    6.5327  -34.9070    9.0751 O   0  0  0  0  0  0  0  0  0  0  0  0
    7.9457  -38.3502    0.8142 N   0  0  0  0  0  0  0  0  0  0  0  0
    4.2759  -42.2764    3.6297 O   0  0  0  0  0  0  0  0  0  0  0  0
    3.7941  -40.9347   -1.1881 C   0  0  0  0  0  0  0  0  0  0  0  0
    4.8759  -37.8253    4.9136 C   0  0  0  0  0  0  0  0  0  0  0  0
    8.3778  -36.0087    0.2598 C   0  0  0  0  0  0  0  0  0  0  0  0
    7.0385  -38.5549    0.3408 C   0  0  0  0  0  0  0  0  0  0  0  0
    0.6876  -39.9295    1.9029 C   0  0  0  0  0  0  0  0  0  0  0  0
    9.6620  -38.8697    1.8896 O   0  0  0  0  0  0  0  0  0  0  0  0
    2.0170  -39.7365    3.9948 O   0  0  0  0  0  0  0  0  0  0  0  0
    6.6307  -34.2786    8.0810 C   0  0  0  0  0  0  0  0  0  0  0  0
    0.9159  -39.5571    3.1266 C   0  0  2  0  0  0  0  0  0  0  0  0
    3.7651  -37.5410    3.1410 C   0  0  0  0  0  0  0  0  0  0  0  0
    5.6803  -42.0173    1.0569 O   0  0  0  0  0  0  0  0  0  0  0  0
   -0.3501  -41.6066    1.8715 C   0  0  0  0  0  0  0  0  0  0  0  0
    5.2029  -42.8126    1.6920 C   0  0  0  0  0  0  0  0  0  0  0  0
    8.5932  -37.2290    1.0212 C   0  0  1  0  0  0  0  0  0  0  0  0
    7.5850  -41.9147    3.0544 C   0  0  0  0  0  0  0  0  0  0  0  0
    6.0403  -36.8476    2.3270 O   0  0  0  0  0  0  0  0  0  0  0  0
    6.5519  -35.1205   10.0543 C   0  0  0  0  0  0  0  0  0  0  0  0
  3  2  2  3
  4  2  1  0
 14  1  1  0
  9 15  1  6
 16  7  1  6
 17  5  1  0
 18 12  1  0
 19 10  2  0
 20  1  1  0
 20  8  1  0
 22  6  1  0
 23 15  1  0
 25 13  1  0
 27 12  1  0
 28 11  1  0
 29 13  1  0
 29 23  1  0
 30  8  1  0
 24 30  1  1
 31 17  1  0
 32  5  1  0
 32 27  1  0
 33  9  1  0
 34 12  1  0
 36 26  1  0
 37  4  1  0
 37 16  1  0
 37 33  1  0
 37 35  1  1
 38 16  1  0
 38 24  1  0
 39 21  1  0
  4 40  1  6
 40  9  1  0
 41 11  1  0
 41 25  1  0
 41 39  1  0
 42 10  1  1
 42 27  1  0
 42 31  1  0
 43  6  1  0
 43 21  1  0
 43 22  1  0
 44 10  1  0
 44 24  1  0
 45 14  1  0
 45 26  1  0
M  END
>  <ID>  (1) 
conformer_0

$$$$
