
     RDKit          3D

 36 37  0  0  0  0  0  0  0  0999 V2000
    6.8535  -42.0658    4.7311 C   0  0  0  0  0  0  0  0  0  0  0  0
    1.9819  -41.3549   -0.8456 C   0  0  0  0  0  0  0  0  0  0  0  0
    4.1107  -37.2082    8.4849 C   0  0  0  0  0  0  0  0  0  0  0  0
    6.4989  -37.8300   -1.2614 C   0  0  0  0  0  0  0  0  0  0  0  0
    0.7869  -40.6470   -0.0313 C   0  0  0  0  0  0  0  0  0  0  0  0
    3.2583  -41.1927   -1.1450 C   0  0  0  0  0  0  0  0  0  0  0  0
    4.3887  -37.4435    6.6255 C   0  0  0  0  0  0  0  0  0  0  0  0
   -0.1388  -40.7397    0.9197 C   0  0  0  0  0  0  0  0  0  0  0  0
    2.2353  -37.4970    2.2050 C   0  0  0  0  0  0  0  0  0  0  0  0
    5.7505  -41.8511    1.5299 C   0  0  0  0  0  0  0  0  0  0  0  0
    8.7245  -38.8858    0.4278 C   0  0  0  0  0  0  0  0  0  0  0  0
    7.6393  -36.6828    1.4364 C   0  0  0  0  0  0  0  0  0  0  0  0
    0.3617  -40.0772    2.2710 C   0  0  0  0  0  0  0  0  0  0  0  0
    7.1607  -36.8450   -0.6973 C   0  0  0  0  0  0  0  0  0  0  0  0
    7.3888  -41.4677    2.9834 C   0  0  0  0  0  0  0  0  0  0  0  0
    3.9236  -37.6219    3.3863 C   0  0  0  0  0  0  0  0  0  0  0  0
    5.5632  -35.7086    9.4067 C   0  0  0  0  0  0  0  0  0  0  0  0
    4.1370  -42.4474    0.4100 C   0  0  0  0  0  0  0  0  0  0  0  0
    1.7187  -37.6874    3.3416 C   0  0  0  0  0  0  0  0  0  0  0  0
   -0.5560  -41.5765    2.9344 C   0  0  0  0  0  0  0  0  0  0  0  0
    6.4769  -35.9197    2.6652 O   0  0  0  0  0  0  0  0  0  0  0  0
    5.0933  -36.1787    7.5329 C   0  0  0  0  0  0  0  0  0  0  0  0
    4.2006  -42.3252    3.5924 O   0  0  0  0  0  0  0  0  0  0  0  0
    6.1904  -34.5340    9.5759 O   0  0  0  0  0  0  0  0  0  0  0  0
    8.1362  -40.4600    1.3276 C   0  0  0  0  0  0  0  0  0  0  0  0
    9.6144  -38.3805    1.8855 O   0  0  0  0  0  0  0  0  0  0  0  0
    4.6272  -43.1745    0.5964 O   0  0  0  0  0  0  0  0  0  0  0  0
    5.2075  -36.7767    3.1510 C   0  0  0  0  0  0  0  0  0  0  0  0
   -0.2161  -42.5950    3.5953 C   0  0  0  0  0  0  0  0  0  0  0  0
    8.4251  -41.8745    3.9980 C   0  0  0  0  0  0  0  0  0  0  0  0
    4.9009  -42.5105    3.4937 C   0  0  0  0  0  0  0  0  0  0  0  0
    7.9215  -36.0648    0.1872 C   0  0  0  0  0  0  0  0  0  0  0  0
    4.8537  -37.3995    5.1877 C   0  0  0  0  0  0  0  0  0  0  0  0
    1.0093  -43.5533    4.1185 C   0  0  0  0  0  0  0  0  0  0  0  0
    9.2375  -40.2722   -0.3733 O   0  0  0  0  0  0  0  0  0  0  0  0
    6.8407  -34.0840    8.7104 C   0  0  0  0  0  0  0  0  0  0  0  0
  5  2  1  0
  6  2  1  0
  7  3  1  0
  8  5  1  0
 12 11  1  0
 13  8  1  0
 14  4  1  0
 15  1  1  0
 15 10  1  0
 16  9  1  0
 18  6  1  0
 18 10  1  0
 19  9  1  0
 20 13  1  0
 21 12  1  0
 22  3  1  0
 22  7  1  0
 22 17  1  0
 24 17  1  0
 25 11  1  0
 25 15  1  0
 26 11  1  0
 27 18  1  0
 28 16  1  0
 28 21  1  0
 29 20  1  0
 30  1  1  0
 30 15  1  0
 31 10  1  0
 31 23  1  0
 32 12  1  0
 32 14  1  0
 33  7  1  0
 33 16  1  0
 34 29  1  0
 35 11  1  0
 36 24  1  0
M  END
>  <ID>  (1) 
conformer_0

$$$$
