
     RDKit          3D

 49 53  0  0  0  0  0  0  0  0999 V2000
    4.1130  -40.3014   -1.0270 C   0  0  0  0  0  0  0  0  0  0  0  0
    4.2450  -37.4833    8.1166 C   0  0  0  0  0  0  0  0  0  0  0  0
    5.1477  -36.4520    7.6104 C   0  0  0  0  0  0  0  0  0  0  0  0
    2.6879  -41.8922   -0.7275 C   0  0  0  0  0  0  0  0  0  0  0  0
    2.8429  -40.7796   -1.5251 C   0  0  0  0  0  0  0  0  0  0  0  0
    7.2503  -42.4225    4.3701 C   0  0  0  0  0  0  0  0  0  0  0  0
    7.4084  -37.5864   -1.0581 C   0  0  0  0  0  0  0  0  0  0  0  0
    2.2574  -37.5179    2.6439 C   0  0  0  0  0  0  0  0  0  0  0  0
    7.4062  -41.0632    1.5403 C   0  0  0  0  0  0  0  0  0  0  0  0
    4.7066  -43.2554    3.5859 C   0  0  0  0  0  0  0  0  0  0  0  0
    0.8024  -40.6444   -0.9519 C   0  0  0  0  0  0  0  0  0  0  0  0
    5.9495  -42.2745    2.0914 C   0  0  0  0  0  0  0  0  0  0  0  0
    3.7772  -37.4943    2.7372 C   0  0  0  0  0  0  0  0  0  0  0  0
    1.3576  -40.3822    0.3342 C   0  0  0  0  0  0  0  0  0  0  0  0
    4.3786  -42.9904    0.3943 C   0  0  0  0  0  0  0  0  0  0  0  0
    6.8735  -34.9473    9.0265 C   0  0  0  0  0  0  0  0  0  0  0  0
    9.4607  -40.0244   -0.3382 O   0  0  0  0  0  0  0  0  0  0  0  0
    1.1855  -37.4331    3.2156 C   0  0  0  0  0  0  0  0  0  0  0  0
    8.8791  -40.0198    0.8531 C   0  0  0  0  0  0  0  0  0  0  0  0
    6.8780  -35.2726    2.6340 O   0  0  0  0  0  0  0  0  0  0  0  0
    8.6766  -37.3975    0.9616 C   0  0  0  0  0  0  0  0  0  0  0  0
    5.2498  -43.6658   -0.1166 O   0  0  0  0  0  0  0  0  0  0  0  0
   -0.2962  -40.6043    0.5812 C   0  0  0  0  0  0  0  0  0  0  0  0
    4.7565  -43.0689    2.4292 O   0  0  0  0  0  0  0  0  0  0  0  0
    7.4905  -41.7884    2.7288 C   0  0  0  0  0  0  0  0  0  0  0  0
    1.9527  -39.1031    4.2457 O   0  0  0  0  0  0  0  0  0  0  0  0
    6.0220  -35.1785    9.4603 O   0  0  0  0  0  0  0  0  0  0  0  0
    6.8771  -36.3656   -0.3779 C   0  0  0  0  0  0  0  0  0  0  0  0
    3.7629  -36.4126    9.2954 C   0  0  0  0  0  0  0  0  0  0  0  0
    0.1501  -40.4489    2.4795 C   0  0  0  0  0  0  0  0  0  0  0  0
    9.5598  -38.3635    2.0618 O   0  0  0  0  0  0  0  0  0  0  0  0
    7.7990  -38.9335    0.9884 N   0  0  0  0  0  0  0  0  0  0  0  0
    4.6097  -37.9480    6.3811 C   0  0  0  0  0  0  0  0  0  0  0  0
    7.4284  -38.6723    0.4487 C   0  0  0  0  0  0  0  0  0  0  0  0
    4.7074  -37.5628    4.3213 C   0  0  0  0  0  0  0  0  0  0  0  0
    5.0454  -35.8478    9.7959 C   0  0  0  0  0  0  0  0  0  0  0  0
   -0.3692  -41.9501    2.5731 C   0  0  0  0  0  0  0  0  0  0  0  0
    5.9289  -41.1228    0.7832 O   0  0  0  0  0  0  0  0  0  0  0  0
    6.9408  -36.3664    1.8351 C   0  0  0  0  0  0  0  0  0  0  0  0
    8.5575  -36.3410    0.1633 C   0  0  0  0  0  0  0  0  0  0  0  0
    4.8971  -41.5238   -0.1306 C   0  0  0  0  0  0  0  0  0  0  0  0
    3.7916  -42.0345    3.8614 O   0  0  0  0  0  0  0  0  0  0  0  0
    1.0353  -43.2879    3.7726 C   0  0  0  0  0  0  0  0  0  0  0  0
    5.2576  -36.7044    3.5136 C   0  0  0  0  0  0  0  0  0  0  0  0
    6.4118  -36.9025    2.3737 O   0  0  0  0  0  0  0  0  0  0  0  0
    8.7199  -41.9165    3.6853 C   0  0  0  0  0  0  0  0  0  0  0  0
    5.4128  -36.5974    5.7170 C   0  0  0  0  0  0  0  0  0  0  0  0
   -0.0290  -41.8712    4.0179 C   0  0  0  0  0  0  0  0  0  0  0  0
    2.7748  -38.5590    4.0330 C   0  0  0  0  0  0  0  0  0  0  0  0
  3  2  1  0
  5  1  1  0
  5  4  1  0
 11  5  1  0
 13  8  1  0
 14 11  1  0
 18  8  1  0
 19  9  1  0
 19 17  1  0
 22 15  1  0
 23 11  1  0
 23 14  1  0
 24 10  1  0
 24 12  1  0
 25  6  1  0
 25  9  1  0
 25 12  1  0
 27 16  1  0
 28  7  1  0
 29  2  1  0
 30 23  1  0
 31 21  2  0
 32 19  1  0
 32 21  1  0
 33  2  1  0
 34  7  1  0
 34 32  1  0
 35 13  1  0
 36 27  1  0
 36 29  1  0
 37 30  1  0
 38  9  1  0
 39 20  2  0
 39 28  1  0
 40 21  1  0
 40 28  1  0
 41  1  1  0
 41 15  1  0
 41 38  1  0
 42 10  1  0
 44 35  1  0
 45 39  1  0
 45 44  1  0
 46  6  1  0
 46 25  1  0
 47  3  1  0
 47 33  1  0
 47 35  1  0
 48 37  1  0
 48 43  1  0
 49  8  1  0
 49 13  1  0
 49 26  1  0
M  END
>  <ID>  (1) 
conformer_0

$$$$
