
     RDKit          3D

 49 50  0  0  0  0  0  0  0  0999 V2000
   -0.0057  -41.6883    3.8570 C   0  0  0  0  0  0  0  0  0  0  0  0
    3.5337  -36.7751    9.0904 C   0  0  0  0  0  0  0  0  0  0  0  0
    7.7403  -36.9135   -0.9807 C   0  0  0  0  0  0  0  0  0  0  0  0
    4.7095  -37.6504    5.8042 C   0  0  0  0  0  0  0  0  0  0  0  0
   -0.1486  -43.1795    3.3871 C   0  0  0  0  0  0  0  0  0  0  0  0
    0.0496  -40.2850    0.2933 C   0  0  0  0  0  0  0  0  0  0  0  0
    6.2223  -41.8350    4.3361 C   0  0  0  0  0  0  0  0  0  0  0  0
    4.2541  -37.7324    7.8632 C   0  0  0  0  0  0  0  0  0  0  0  0
    8.9068  -39.7891    0.9126 C   0  0  0  0  0  0  0  0  0  0  0  0
    0.0668  -41.2205    2.1186 C   0  0  0  0  0  0  0  0  0  0  0  0
    4.3405  -42.4689   -0.3127 C   0  0  0  0  0  0  0  0  0  0  0  0
    6.7942  -35.9245   -0.4287 C   0  0  0  0  0  0  0  0  0  0  0  0
    7.5703  -41.1456    1.5390 C   0  0  0  0  0  0  0  0  0  0  0  0
    4.6978  -36.5003    9.3586 C   0  0  0  0  0  0  0  0  0  0  0  0
    1.1595  -43.4213    3.6741 C   0  0  0  0  0  0  0  0  0  0  0  0
    5.4332  -36.3794    5.9766 C   0  0  0  0  0  0  0  0  0  0  0  0
    5.0141  -36.9741    3.1035 C   0  0  0  0  0  0  0  0  0  0  0  0
    9.3763  -39.9973   -0.3457 O   0  0  0  0  0  0  0  0  0  0  0  0
    7.0011  -35.4901    2.6625 O   0  0  0  0  0  0  0  0  0  0  0  0
    5.5681  -42.8767    2.8788 C   0  0  0  0  0  0  0  0  0  0  0  0
    1.9544  -37.6172    4.1474 C   0  0  0  0  0  0  0  0  0  0  0  0
    6.7584  -35.0152    9.0364 O   0  0  0  0  0  0  0  0  0  0  0  0
    1.4850  -39.1223    4.5811 O   0  0  0  0  0  0  0  0  0  0  0  0
    4.0543  -44.2621    0.7797 O   0  0  0  0  0  0  0  0  0  0  0  0
    1.3033  -40.7679    0.0324 C   0  0  0  0  0  0  0  0  0  0  0  0
    7.0056  -41.5732    2.5465 C   0  0  0  0  0  0  0  0  0  0  0  0
    9.2720  -38.4451    1.7311 O   0  0  0  0  0  0  0  0  0  0  0  0
    1.9740  -37.3562    3.3518 C   0  0  0  0  0  0  0  0  0  0  0  0
    6.9741  -33.4385    8.3892 C   0  0  0  0  0  0  0  0  0  0  0  0
    6.8245  -36.3357    1.8358 C   0  0  0  0  0  0  0  0  0  0  0  0
    8.6689  -36.0926    0.4696 C   0  0  0  0  0  0  0  0  0  0  0  0
    1.8062  -40.7811   -1.1465 C   0  0  0  0  0  0  0  0  0  0  0  0
    4.9881  -36.2383    7.6657 C   0  0  0  0  0  0  0  0  0  0  0  0
    4.9454  -43.4861    2.8202 O   0  0  0  0  0  0  0  0  0  0  0  0
    6.1734  -37.0430    1.8469 O   0  0  0  0  0  0  0  0  0  0  0  0
    4.8663  -37.2781    4.0184 C   0  0  0  0  0  0  0  0  0  0  0  0
    5.5938  -42.5246    0.8661 O   0  0  0  0  0  0  0  0  0  0  0  0
    3.4516  -37.9619    2.9219 C   0  0  0  0  0  0  0  0  0  0  0  0
    7.5964  -38.3414    0.0558 C   0  0  0  0  0  0  0  0  0  0  0  0
    3.2182  -41.6603   -1.0280 C   0  0  0  0  0  0  0  0  0  0  0  0
    3.3511  -36.6250    1.0160 C   0  0  0  0  0  0  0  0  0  0  0  0
    8.2447  -41.9220    3.4941 C   0  0  0  0  0  0  0  0  0  0  0  0
    8.7733  -37.0140    1.1570 C   0  0  0  0  0  0  0  0  0  0  0  0
    4.3778  -43.7302    0.7481 C   0  0  0  0  0  0  0  0  0  0  0  0
    0.5439  -39.8677    2.4787 C   0  0  0  0  0  0  0  0  0  0  0  0
    0.8480  -39.6278    3.7189 C   0  0  0  0  0  0  0  0  0  0  0  0
    6.3367  -37.6473   -1.4357 C   0  0  0  0  0  0  0  0  0  0  0  0
    4.1128  -40.4247   -0.9796 C   0  0  0  0  0  0  0  0  0  0  0  0
    6.1413  -35.0755    9.1765 C   0  0  0  0  0  0  0  0  0  0  0  0
  5  1  1  0
  8  2  1  0
 10  1  1  0
 10  6  1  0
 12  3  1  0
 13  9  1  0
 14  2  1  0
 15  5  1  0
 16  4  1  0
 18  9  2  0
 20  7  1  0
 23 21  1  0
 25  6  1  0
 26 13  1  0
 26 20  1  0
 27  9  1  0
 28 21  1  0
 29 22  1  0
 30 19  2  0
 31  3  1  0
 32 25  1  0
 33  8  1  0
 33 14  1  0
 33 16  1  0
 34 20  2  0
 35 17  1  0
 35 30  1  0
 36  4  1  0
 36 17  1  0
 37 11  1  0
 38 17  1  0
 38 28  1  0
 39  3  1  0
 40 11  1  0
 40 32  1  0
 41 28  1  0
 42 26  1  0
 43 27  1  0
 43 30  1  0
 43 31  1  0
 44 11  1  0
 44 24  2  0
 44 37  1  0
 45 10  1  0
 46 23  1  0
 46 45  1  0
 47  3  1  0
 48 40  1  0
 49 14  1  0
 49 22  1  0
M  END
>  <ID>  (1) 
conformer_0

$$$$
