
     RDKit          3D

 45 47  0  0  0  0  0  0  0  0999 V2000
   -0.4010  -42.4326    3.0213 C   0  0  0  0  0  0  0  0  0  0  0  0
    5.3986  -36.0887    6.4448 C   0  0  0  0  0  0  0  0  0  0  0  0
    0.2813  -43.3618    4.0420 C   0  0  0  0  0  0  0  0  0  0  0  0
    4.6021  -37.4305    6.6286 C   0  0  1  0  0  0  0  0  0  0  0  0
    1.3147  -40.3739   -0.9177 C   0  0  0  0  0  0  0  0  0  0  0  0
    6.5875  -37.2869   -1.0643 C   0  0  0  0  0  0  0  0  0  0  0  0
    7.6958  -41.9867    3.8662 C   0  0  0  0  0  0  0  0  0  0  0  0
    4.7247  -38.3716    4.5809 C   0  0  0  0  0  0  0  0  0  0  0  0
    6.1746  -41.6153    1.5523 C   0  0  1  0  0  0  0  0  0  0  0  0
    4.6730  -43.1407    0.9789 C   0  0  0  0  0  0  0  0  0  0  0  0
    2.3682  -41.4218   -0.7078 C   0  0  0  0  0  0  0  0  0  0  0  0
    8.3696  -39.4005    0.8959 C   0  0  0  0  0  0  0  0  0  0  0  0
    4.8150  -36.2516    8.1420 C   0  0  1  0  0  0  0  0  0  0  0  0
    1.4893  -43.4200    4.3607 C   0  0  0  0  0  0  0  0  0  0  0  0
    5.5694  -42.7888    3.4231 C   0  0  2  0  0  0  0  0  0  0  0  0
    6.8426  -36.3222   -0.4310 C   0  0  0  0  0  0  0  0  0  0  0  0
    6.2813  -35.3116    9.3029 C   0  0  0  0  0  0  0  0  0  0  0  0
    5.5721  -36.2147    2.4225 O   0  0  0  0  0  0  0  0  0  0  0  0
    6.5696  -35.3431    9.7712 O   0  0  0  0  0  0  0  0  0  0  0  0
    3.7403  -40.6583   -0.9279 C   0  0  0  0  0  0  0  0  0  0  0  0
    4.6136  -36.7637    3.3599 C   0  0  1  0  0  0  0  0  0  0  0  0
    9.2456  -39.8695   -0.3773 O   0  0  0  0  0  0  0  0  0  0  0  0
    3.8675  -36.7325    8.9543 C   0  0  0  0  0  0  0  0  0  0  0  0
    4.7963  -42.4544    3.1221 O   0  0  0  0  0  0  0  0  0  0  0  0
    8.8471  -41.9298    3.6220 C   0  0  0  0  0  0  0  0  0  0  0  0
    9.7727  -39.0015    1.9643 O   0  0  0  0  0  0  0  0  0  0  0  0
    6.9988  -36.2522    1.7049 C   0  0  2  0  0  0  0  0  0  0  0  0
    7.5758  -40.8999    1.7583 C   0  0  0  0  0  0  0  0  0  0  0  0
    0.4510  -40.7345    0.0410 C   0  0  0  0  0  0  0  0  0  0  0  0
    8.0638  -38.3356    0.8694 N   0  0  0  0  0  0  0  0  0  0  0  0
    4.5723  -43.9219    1.4555 O   0  0  0  0  0  0  0  0  0  0  0  0
    8.4713  -36.0348    0.2898 C   0  0  0  0  0  0  0  0  0  0  0  0
    0.0847  -41.1192    3.3785 C   0  0  0  0  0  0  0  0  0  0  0  0
    6.9801  -38.1809    0.1002 C   0  0  2  0  0  0  0  0  0  0  0  0
    8.8484  -36.9472    1.3714 C   0  0  1  0  0  0  0  0  0  0  0  0
    2.4724  -37.1451    1.6222 C   0  0  0  0  0  0  0  0  0  0  0  0
    1.5775  -38.3513    4.1562 O   0  0  0  0  0  0  0  0  0  0  0  0
    4.2302  -42.5552   -0.3659 C   0  0  0  0  0  0  0  0  0  0  0  0
   -0.0631  -40.7753    1.6301 C   0  0  1  0  0  0  0  0  0  0  0  0
    3.2877  -37.5976    2.8115 C   0  0  2  0  0  0  0  0  0  0  0  0
    5.0622  -37.1444    4.7178 C   0  0  1  0  0  0  0  0  0  0  0  0
    7.1504  -35.4758    2.3778 O   0  0  0  0  0  0  0  0  0  0  0  0
    6.8798  -39.8733    0.1959 O   0  0  0  0  0  0  0  0  0  0  0  0
    1.7549  -38.1210    3.3906 C   0  0  0  0  0  0  0  0  0  0  0  0
    0.9115  -39.4180    2.2099 C   0  0  0  0  0  0  0  0  0  0  0  0
  3  1  1  0
  4  2  1  1
 10  9  1  0
 11  5  1  0
 13  2  1  0
 13  4  1  0
 14  3  2  3
 15  7  1  0
 15  9  1  0
 16  6  1  0
 17 13  1  0
 19 17  2  0
 20 11  1  0
 21 18  1  6
 22 12  1  0
 13 23  1  6
 15 24  1  1
 25  7  2  3
 26 12  1  0
 27 18  1  0
  9 28  1  6
 29  5  1  0
 30 12  1  0
 31 10  2  0
 32 16  1  0
 33  1  1  0
 34  6  1  6
 34 30  1  0
 35 27  1  0
 35 30  1  0
 35 32  1  6
 38 10  1  0
 38 20  1  0
 39 29  1  6
 39 33  1  0
 40 21  1  0
 40 36  1  6
 41  4  1  0
 41  8  1  6
 41 21  1  0
 27 42  1  1
 43 12  1  0
 43 34  1  0
 44 37  2  0
 44 40  1  0
 45 39  1  0
 45 44  1  0
M  END
>  <ID>  (1) 
conformer_0

$$$$
