
     RDKit          3D

 47 51  0  0  0  0  0  0  0  0999 V2000
    6.3888  -41.5260    4.7557 C   0  0  0  0  0  0  0  0  0  0  0  0
    2.0717  -40.6645   -0.1475 C   0  0  0  0  0  0  0  0  0  0  0  0
   -0.2487  -41.4995    3.8046 C   0  0  0  0  0  0  0  0  0  0  0  0
    4.4688  -37.2629    6.7322 C   0  0  1  0  0  0  0  0  0  0  0  0
    6.6165  -37.5895   -1.3893 C   0  0  0  0  0  0  0  0  0  0  0  0
    2.4538  -37.6967    2.7973 C   0  0  0  0  0  0  0  0  0  0  0  0
    0.3251  -40.1526    2.1642 C   0  0  2  0  0  0  0  0  0  0  0  0
    4.1616  -43.1823   -0.1071 C   0  0  0  0  0  0  0  0  0  0  0  0
    4.4309  -37.6933    4.1539 C   0  0  0  0  0  0  0  0  0  0  0  0
   -0.6952  -41.2664    2.2596 C   0  0  0  0  0  0  0  0  0  0  0  0
    8.3440  -39.8724    1.1130 C   0  0  2  0  0  0  0  0  0  0  0  0
    7.0834  -41.2658    1.5898 C   0  0  1  0  0  0  0  0  0  0  0  0
    6.6738  -41.6089    3.0720 C   0  0  0  0  0  0  0  0  0  0  0  0
    5.2287  -36.3709    8.9759 C   0  0  0  0  0  0  0  0  0  0  0  0
    2.0200  -37.7445    3.6030 C   0  0  0  0  0  0  0  0  0  0  0  0
    4.7208  -36.9031    3.4181 C   0  0  0  0  0  0  0  0  0  0  0  0
    0.1040  -42.8724    4.0625 C   0  0  0  0  0  0  0  0  0  0  0  0
    6.7487  -36.5245   -0.5250 C   0  0  0  0  0  0  0  0  0  0  0  0
    7.8359  -38.2168   -0.2037 C   0  0  2  0  0  0  0  0  0  0  0  0
    4.3867  -36.8329    8.2868 C   0  0  1  0  0  0  0  0  0  0  0  0
    6.6529  -35.4924    9.6382 O   0  0  0  0  0  0  0  0  0  0  0  0
    6.1070  -35.9142    2.3156 O   0  0  0  0  0  0  0  0  0  0  0  0
    1.0683  -39.1206    4.0635 O   0  0  0  0  0  0  0  0  0  0  0  0
    8.5789  -39.8305   -0.4767 O   0  0  0  0  0  0  0  0  0  0  0  0
    4.3846  -43.7709   -0.1533 O   0  0  0  0  0  0  0  0  0  0  0  0
    9.7492  -38.6962    1.8154 O   0  0  0  0  0  0  0  0  0  0  0  0
    4.8816  -42.7071    2.4494 O   0  0  0  0  0  0  0  0  0  0  0  0
    6.6008  -36.3156    1.9942 C   0  0  0  0  0  0  0  0  0  0  0  0
    3.8452  -40.4591   -1.3214 C   0  0  0  0  0  0  0  0  0  0  0  0
    3.0365  -37.3066    1.8481 C   0  0  0  0  0  0  0  0  0  0  0  0
    8.4954  -41.6650    3.0210 C   0  0  0  0  0  0  0  0  0  0  0  0
    6.9519  -34.4963    8.3600 C   0  0  0  0  0  0  0  0  0  0  0  0
    1.3768  -43.2825    3.8041 C   0  0  0  0  0  0  0  0  0  0  0  0
    5.4192  -35.8446    7.0538 C   0  0  1  0  0  0  0  0  0  0  0  0
    5.9629  -41.0726    0.6198 O   0  0  0  0  0  0  0  0  0  0  0  0
    0.5195  -39.4086    3.5819 C   0  0  0  0  0  0  0  0  0  0  0  0
    7.9910  -38.4466    0.7141 N   0  0  0  0  0  0  0  0  0  0  0  0
    8.0976  -36.1016    0.0636 C   0  0  0  0  0  0  0  0  0  0  0  0
    3.1284  -42.0092   -1.2302 C   0  0  2  0  0  0  0  0  0  0  0  0
    4.9768  -42.0590    0.3231 C   0  0  0  0  0  0  0  0  0  0  0  0
    8.0243  -42.1062    4.4286 C   0  0  0  0  0  0  0  0  0  0  0  0
    8.4195  -36.8455    1.1738 C   0  0  1  0  0  0  0  0  0  0  0  0
    5.2475  -36.8842    5.4469 C   0  0  1  0  0  0  0  0  0  0  0  0
    5.5784  -42.5148    2.2202 C   0  0  0  0  0  0  0  0  0  0  0  0
    6.6399  -35.6094   10.2941 C   0  0  0  0  0  0  0  0  0  0  0  0
    1.3814  -41.2197   -1.0790 C   0  0  1  0  0  0  0  0  0  0  0  0
   -0.0559  -40.6326    0.2842 C   0  0  0  0  0  0  0  0  0  0  0  0
 10  3  1  0
  7 10  1  1
 12 11  1  0
 13  1  1  0
 13 12  1  0
 15  6  1  0
 16  9  1  0
 17  3  1  0
 18  5  1  0
 19  5  1  1
  4 20  1  1
 20 14  1  1
 22 16  1  0
 23 15  1  0
 24 11  1  0
 24 19  1  0
 25  8  2  0
 11 26  1  1
 28 22  1  0
 30  6  3  0
 31 13  1  0
 32 21  1  0
 33 17  2  3
 34  4  1  0
 34 20  1  1
 12 35  1  6
 36  7  1  0
 36 23  1  0
 37 11  1  0
 37 19  1  0
 38 18  1  0
 39  8  1  0
 39 29  1  1
 40  8  1  0
 40 35  1  0
 41  1  1  0
 41 31  1  0
 42 28  1  1
 42 37  1  0
 42 38  1  0
 43  4  1  0
 43  9  1  6
 43 34  1  0
 44 13  1  0
 44 27  2  0
 45 14  1  0
 45 21  1  0
 46  2  1  1
 46 39  1  0
 47  7  1  0
 47 46  1  0
M  END
>  <ID>  (1) 
conformer_0

$$$$
