
     RDKit          3D

 38 38  0  0  0  0  0  0  0  0999 V2000
    4.8971  -36.9950    5.2884 C   0  0  0  0  0  0  0  0  0  0  0  0
    8.0586  -41.8092    2.6727 C   0  0  0  0  0  0  0  0  0  0  0  0
    3.7400  -37.2902    2.4157 C   0  0  0  0  0  0  0  0  0  0  0  0
    0.4737  -40.7468    0.8639 C   0  0  0  0  0  0  0  0  0  0  0  0
    1.0545  -40.6475   -0.4413 C   0  0  0  0  0  0  0  0  0  0  0  0
    6.2685  -36.9271   -0.5946 C   0  0  0  0  0  0  0  0  0  0  0  0
    2.4064  -41.2196   -0.7620 C   0  0  0  0  0  0  0  0  0  0  0  0
    2.3582  -37.8211    3.0267 C   0  0  0  0  0  0  0  0  0  0  0  0
    4.3730  -42.7497    0.1915 C   0  0  1  0  0  0  0  0  0  0  0  0
   -0.0253  -42.0348    3.7527 C   0  0  0  0  0  0  0  0  0  0  0  0
    7.5921  -38.6838    0.1059 C   0  0  0  0  0  0  0  0  0  0  0  0
    8.1811  -36.8888    1.2588 C   0  0  1  0  0  0  0  0  0  0  0  0
    7.2644  -36.7333   -0.9565 C   0  0  0  0  0  0  0  0  0  0  0  0
    3.6301  -41.2506   -1.2138 C   0  0  0  0  0  0  0  0  0  0  0  0
    4.8473  -35.6911   10.1677 C   0  0  0  0  0  0  0  0  0  0  0  0
    5.1883  -42.7138    2.9364 C   0  0  0  0  0  0  0  0  0  0  0  0
    4.8620  -36.0603    7.4072 C   0  0  0  0  0  0  0  0  0  0  0  0
    9.6469  -38.9464    1.8532 O   0  0  0  0  0  0  0  0  0  0  0  0
    8.6786  -42.1561    3.6305 C   0  0  0  0  0  0  0  0  0  0  0  0
    6.2536  -35.8513    2.2538 O   0  0  0  0  0  0  0  0  0  0  0  0
    1.7165  -38.5134    3.9044 C   0  0  0  0  0  0  0  0  0  0  0  0
    4.4252  -42.5398    2.7979 O   0  0  0  0  0  0  0  0  0  0  0  0
    0.5708  -43.1812    4.0753 C   0  0  0  0  0  0  0  0  0  0  0  0
    5.1054  -43.7151    0.3002 O   0  0  0  0  0  0  0  0  0  0  0  0
    6.5019  -41.6893    1.5430 C   0  0  0  0  0  0  0  0  0  0  0  0
    4.5393  -37.5648    4.1766 C   0  0  0  0  0  0  0  0  0  0  0  0
    6.4537  -34.6274    8.8569 C   0  0  0  0  0  0  0  0  0  0  0  0
    6.1736  -41.0909    0.7420 O   0  0  0  0  0  0  0  0  0  0  0  0
    0.0625  -40.5038    2.9666 C   0  0  1  0  0  0  0  0  0  0  0  0
    7.8828  -38.5561    0.7975 N   0  0  0  0  0  0  0  0  0  0  0  0
    8.2717  -35.9166    0.3760 C   0  0  0  0  0  0  0  0  0  0  0  0
    1.9233  -39.8718    4.3543 O   0  0  0  0  0  0  0  0  0  0  0  0
    6.2271  -36.4263    2.1010 C   0  0  0  0  0  0  0  0  0  0  0  0
    3.9814  -36.6300    8.5562 C   0  0  1  0  0  0  0  0  0  0  0  0
    8.5230  -40.0639    1.1054 C   0  0  2  0  0  0  0  0  0  0  0  0
    6.9126  -41.9174    4.1805 C   0  0  0  0  0  0  0  0  0  0  0  0
    6.1815  -34.5706    9.3387 O   0  0  0  0  0  0  0  0  0  0  0  0
    4.5776  -37.3625    6.8712 C   0  0  1  0  0  0  0  0  0  0  0  0
  5  4  1  0
  7  5  1  0
  8  3  1  0
 13  6  1  0
 14  7  1  0
 14  9  1  0
 19  2  1  0
 21  8  1  0
 22 16  1  0
 23 10  2  3
  9 24  1  6
 25  2  2  3
 25 16  1  0
 26  1  1  0
 26  3  1  0
 28  9  1  0
 28 25  1  0
 29  4  1  6
 29 10  1  0
 30 11  1  0
 30 12  1  0
 12 31  1  6
 31 13  1  0
 32 21  1  0
 32 29  1  0
 33 12  1  0
 33 20  1  0
 34 15  1  1
 34 17  1  0
 35  2  1  0
 35 18  1  1
 35 30  1  0
 36 19  1  0
 37 15  1  0
 37 27  1  0
 38  1  1  6
 38 17  1  0
 38 34  1  0
M  END
>  <ID>  (1) 
conformer_0

$$$$
