
     RDKit          3D

 49 56  0  0  0  0  0  0  0  0999 V2000
    3.8781  -40.6073   -1.2707 C   0  0  0  0  0  0  0  0  0  0  0  0
    1.9927  -40.8768    0.1755 C   0  0  0  0  0  0  0  0  0  0  0  0
    4.3296  -37.5670    6.7586 C   0  0  0  0  0  0  0  0  0  0  0  0
    4.5974  -37.0947    8.7658 C   0  0  0  0  0  0  0  0  0  0  0  0
    6.4810  -36.7540   -0.6559 C   0  0  0  0  0  0  0  0  0  0  0  0
    6.4352  -42.3294    3.4341 C   0  0  0  0  0  0  0  0  0  0  0  0
    1.5333  -40.9335   -1.1746 C   0  0  0  0  0  0  0  0  0  0  0  0
    2.3567  -37.2632    2.4105 C   0  0  0  0  0  0  0  0  0  0  0  0
    8.6226  -40.3883    1.2740 C   0  0  0  0  0  0  0  0  0  0  0  0
    5.4125  -42.8271    3.0336 C   0  0  0  0  0  0  0  0  0  0  0  0
    3.3851  -41.6973   -1.4345 C   0  0  0  0  0  0  0  0  0  0  0  0
    4.7253  -37.4426    4.2479 C   0  0  0  0  0  0  0  0  0  0  0  0
    6.4708  -41.6516    1.5863 C   0  0  0  0  0  0  0  0  0  0  0  0
    2.3574  -37.2159    3.6630 C   0  0  0  0  0  0  0  0  0  0  0  0
    7.7491  -41.7281    2.3241 C   0  0  0  0  0  0  0  0  0  0  0  0
   -0.2489  -42.5638    3.0653 C   0  0  0  0  0  0  0  0  0  0  0  0
    5.1949  -43.3342    0.7239 C   0  0  0  0  0  0  0  0  0  0  0  0
    5.2770  -36.1374    9.2717 C   0  0  0  0  0  0  0  0  0  0  0  0
    7.0315  -35.7572    2.8568 O   0  0  0  0  0  0  0  0  0  0  0  0
    9.4057  -40.4302   -0.0710 O   0  0  0  0  0  0  0  0  0  0  0  0
    6.4481  -35.0099    9.0490 O   0  0  0  0  0  0  0  0  0  0  0  0
    4.8478  -43.5525    0.2952 O   0  0  0  0  0  0  0  0  0  0  0  0
    3.6599  -37.6407    2.5961 C   0  0  0  0  0  0  0  0  0  0  0  0
    8.1475  -36.0053    0.0634 C   0  0  0  0  0  0  0  0  0  0  0  0
    6.1380  -41.3324    0.6812 O   0  0  0  0  0  0  0  0  0  0  0  0
    0.8608  -42.8805    3.9221 C   0  0  0  0  0  0  0  0  0  0  0  0
    7.8275  -36.6819    1.4039 C   0  0  0  0  0  0  0  0  0  0  0  0
    4.4942  -42.2705    2.8467 O   0  0  0  0  0  0  0  0  0  0  0  0
    1.3572  -35.9874    3.4568 O   0  0  0  0  0  0  0  0  0  0  0  0
    1.5345  -38.6011    4.3218 O   0  0  0  0  0  0  0  0  0  0  0  0
    9.4651  -38.6640    1.7459 O   0  0  0  0  0  0  0  0  0  0  0  0
    5.1124  -36.6828    5.5006 C   0  0  0  0  0  0  0  0  0  0  0  0
    6.9716  -34.5489    8.5501 C   0  0  0  0  0  0  0  0  0  0  0  0
    5.6637  -36.7900    2.7542 C   0  0  0  0  0  0  0  0  0  0  0  0
    1.0445  -39.3891    2.1570 C   0  0  0  0  0  0  0  0  0  0  0  0
    0.2146  -40.4102    0.3329 C   0  0  0  0  0  0  0  0  0  0  0  0
    7.8740  -38.6340    0.9241 N   0  0  0  0  0  0  0  0  0  0  0  0
    9.1688  -41.3771    3.3589 C   0  0  0  0  0  0  0  0  0  0  0  0
    5.1484  -35.9872    7.0578 C   0  0  0  0  0  0  0  0  0  0  0  0
    8.8451  -38.7695    0.4314 C   0  0  0  0  0  0  0  0  0  0  0  0
    6.0631  -37.0257    2.0767 O   0  0  0  0  0  0  0  0  0  0  0  0
    1.1115  -38.8150    3.3344 C   0  0  0  0  0  0  0  0  0  0  0  0
    7.6258  -37.5882   -1.1303 C   0  0  0  0  0  0  0  0  0  0  0  0
    6.9883  -38.1082    0.4217 C   0  0  0  0  0  0  0  0  0  0  0  0
    3.2664  -37.2875    8.3108 C   0  0  0  0  0  0  0  0  0  0  0  0
    0.0404  -40.7742    1.7108 C   0  0  0  0  0  0  0  0  0  0  0  0
   -0.2219  -40.9313    3.4024 C   0  0  0  0  0  0  0  0  0  0  0  0
    8.3065  -42.5715    3.8829 C   0  0  0  0  0  0  0  0  0  0  0  0
    4.4622  -42.1536   -0.3992 C   0  0  0  0  0  0  0  0  0  0  0  0
  7  2  1  0
 10  6  1  0
 11  1  1  0
 11  7  1  0
 13  6  1  0
 14  8  1  0
 15  6  1  0
 15 13  1  0
 17 10  1  0
 18  4  1  0
 20  9  1  0
 21 18  1  0
 22 17  1  0
 23  8  1  0
 23 12  1  0
 23 14  1  0
 24  5  1  0
 25 13  2  0
 26 16  1  0
 27 24  1  0
 28 10  1  0
 29 14  1  0
 30 14  1  0
 32  3  1  0
 32 12  1  0
 33 21  1  0
 34 12  1  0
 34 19  2  0
 36  2  1  0
 38  9  1  0
 38 15  1  0
 39  3  1  0
 39 32  1  0
 40  9  1  0
 40 20  1  0
 40 31  1  0
 40 37  1  0
 41 34  1  0
 42 30  1  0
 42 35  1  0
 43  5  1  0
 44  5  1  0
 44 27  1  0
 44 37  1  0
 44 43  1  0
 45  3  1  0
 45  4  1  0
 46 35  1  0
 46 36  1  0
 47 16  1  0
 47 46  1  0
 48  6  1  0
 48 15  1  0
 48 38  1  0
 49 11  1  0
 49 22  1  0
M  END
>  <ID>  (1) 
conformer_0

$$$$
