
     RDKit          3D

 35 35  0  0  0  0  0  0  0  0999 V2000
    1.0186  -43.2220    3.9151 C   0  0  0  0  0  0  0  0  0  0  0  0
    1.6335  -40.7722   -0.5168 C   0  0  0  0  0  0  0  0  0  0  0  0
    4.1808  -36.8436    8.6305 C   0  0  0  0  0  0  0  0  0  0  0  0
   -0.0217  -40.4412    1.9738 C   0  0  0  0  0  0  0  0  0  0  0  0
    2.4790  -37.7833    2.6728 C   0  0  0  0  0  0  0  0  0  0  0  0
    6.6910  -37.4581   -1.0855 C   0  0  0  0  0  0  0  0  0  0  0  0
    7.8527  -42.1128    3.6369 C   0  0  0  0  0  0  0  0  0  0  0  0
    5.4742  -42.7437    2.4705 C   0  0  1  0  0  0  0  0  0  0  0  0
    4.4944  -37.6847    5.0716 C   0  0  0  0  0  0  0  0  0  0  0  0
    7.8966  -37.9904    0.3930 C   0  0  0  0  0  0  0  0  0  0  0  0
    7.3661  -36.5487    1.7979 C   0  0  0  0  0  0  0  0  0  0  0  0
   -0.1052  -42.6133    4.0589 C   0  0  0  0  0  0  0  0  0  0  0  0
   -0.2108  -41.3371    3.3603 C   0  0  1  0  0  0  0  0  0  0  0  0
    7.3053  -36.3641   -0.6018 C   0  0  0  0  0  0  0  0  0  0  0  0
    1.5631  -37.8371    3.8455 C   0  0  0  0  0  0  0  0  0  0  0  0
    3.3965  -41.3800   -0.8957 C   0  0  2  0  0  0  0  0  0  0  0  0
    3.9833  -37.8220    3.0396 C   0  0  0  0  0  0  0  0  0  0  0  0
    9.3548  -40.0290   -0.0096 O   0  0  0  0  0  0  0  0  0  0  0  0
    4.6487  -42.7047    0.4314 C   0  0  2  0  0  0  0  0  0  0  0  0
    8.6020  -41.9554    3.4452 C   0  0  0  0  0  0  0  0  0  0  0  0
    6.0294  -34.9580    9.0009 C   0  0  0  0  0  0  0  0  0  0  0  0
    6.6692  -36.2306    2.6143 O   0  0  0  0  0  0  0  0  0  0  0  0
    4.8735  -36.3022    7.1449 C   0  0  1  0  0  0  0  0  0  0  0  0
    4.4891  -44.0365    0.9896 O   0  0  0  0  0  0  0  0  0  0  0  0
    7.2956  -41.4928    1.6380 C   0  0  1  0  0  0  0  0  0  0  0  0
   -0.1719  -40.2788    0.3983 C   0  0  0  0  0  0  0  0  0  0  0  0
    5.8670  -34.6513    9.3602 O   0  0  0  0  0  0  0  0  0  0  0  0
    1.3293  -35.9713    3.2779 O   0  0  0  0  0  0  0  0  0  0  0  0
    8.5603  -35.8945    0.5231 C   0  0  0  0  0  0  0  0  0  0  0  0
    6.0483  -42.0385    1.0838 O   0  0  0  0  0  0  0  0  0  0  0  0
    4.2397  -37.8240    6.9401 C   0  0  1  0  0  0  0  0  0  0  0  0
    4.7950  -42.7254    3.0244 O   0  0  0  0  0  0  0  0  0  0  0  0
    4.2015  -40.3087   -1.0975 C   0  0  0  0  0  0  0  0  0  0  0  0
    8.6628  -39.9767    0.7843 C   0  0  0  0  0  0  0  0  0  0  0  0
    1.4680  -39.1485    4.4161 O   0  0  0  0  0  0  0  0  0  0  0  0
 10  6  1  0
 12  1  2  3
 13  4  1  6
 13 12  1  0
 14  6  1  0
 15  5  1  0
 15 13  1  0
 16  2  1  0
 17  5  1  0
 17  9  1  0
 19  8  1  0
 19 16  1  0
 20  7  1  0
 22 11  2  0
 23  3  1  0
 23 21  1  1
 19 24  1  1
 25  7  1  1
 26  2  1  0
 26  4  1  0
 27 21  2  0
 28 15  1  0
 29 11  1  0
 29 14  1  0
 30  8  1  0
 30 25  1  0
 31  3  1  0
 31  9  1  6
 31 23  1  0
  8 32  1  1
 16 33  1  1
 34 10  1  0
 34 18  2  0
 34 25  1  0
 35 15  1  0
M  END
>  <ID>  (1) 
conformer_0

$$$$
