
     RDKit          3D

 48 50  0  0  0  0  0  0  0  0999 V2000
    1.4331  -41.2847   -0.4792 C   0  0  0  0  0  0  0  0  0  0  0  0
    4.4866  -37.8187    7.0935 C   0  0  0  0  0  0  0  0  0  0  0  0
    4.5755  -37.7180    4.8285 C   0  0  0  0  0  0  0  0  0  0  0  0
   -0.7773  -41.6619    3.2240 C   0  0  0  0  0  0  0  0  0  0  0  0
    7.5121  -41.9048    2.8874 C   0  0  0  0  0  0  0  0  0  0  0  0
    7.1242  -37.3587   -1.3958 C   0  0  0  0  0  0  0  0  0  0  0  0
    0.1670  -40.1188    1.9470 C   0  0  0  0  0  0  0  0  0  0  0  0
    2.3662  -37.6091    2.5976 C   0  0  0  0  0  0  0  0  0  0  0  0
    4.3073  -42.1724   -0.2296 C   0  0  0  0  0  0  0  0  0  0  0  0
    6.9508  -41.2432    1.4591 C   0  0  0  0  0  0  0  0  0  0  0  0
    8.4366  -40.0679    1.0963 C   0  0  0  0  0  0  0  0  0  0  0  0
    0.0497  -43.3820    3.8805 C   0  0  0  0  0  0  0  0  0  0  0  0
    5.0355  -36.3684   10.2709 C   0  0  0  0  0  0  0  0  0  0  0  0
    2.0449  -37.9602    3.8035 C   0  0  0  0  0  0  0  0  0  0  0  0
    3.0801  -41.2781   -1.0837 C   0  0  0  0  0  0  0  0  0  0  0  0
    4.2875  -37.2113    8.9784 C   0  0  0  0  0  0  0  0  0  0  0  0
    7.1000  -42.5014    4.3826 C   0  0  0  0  0  0  0  0  0  0  0  0
    7.4551  -38.4524    0.0743 C   0  0  0  0  0  0  0  0  0  0  0  0
    6.5166  -35.5763    2.8364 O   0  0  0  0  0  0  0  0  0  0  0  0
    1.4355  -39.5303    4.0857 O   0  0  0  0  0  0  0  0  0  0  0  0
    6.7756  -36.3616   -0.5059 C   0  0  0  0  0  0  0  0  0  0  0  0
    6.6807  -36.5654    1.8890 C   0  0  0  0  0  0  0  0  0  0  0  0
    9.6965  -38.1264    2.2327 O   0  0  0  0  0  0  0  0  0  0  0  0
    6.0539  -41.8179    0.4726 O   0  0  0  0  0  0  0  0  0  0  0  0
    4.5568  -43.1148    3.0781 O   0  0  0  0  0  0  0  0  0  0  0  0
    4.7464  -37.0774    3.5759 C   0  0  0  0  0  0  0  0  0  0  0  0
    8.1998  -38.5296    0.8851 N   0  0  0  0  0  0  0  0  0  0  0  0
    9.1594  -40.1103   -0.5269 O   0  0  0  0  0  0  0  0  0  0  0  0
    1.5816  -43.6982    4.0498 C   0  0  0  0  0  0  0  0  0  0  0  0
    0.5698  -39.8592    3.6789 C   0  0  0  0  0  0  0  0  0  0  0  0
    6.8861  -34.0164    8.3438 C   0  0  0  0  0  0  0  0  0  0  0  0
    5.1651  -36.4991    7.7178 C   0  0  0  0  0  0  0  0  0  0  0  0
    4.0699  -40.2667   -1.2369 C   0  0  0  0  0  0  0  0  0  0  0  0
    6.7785  -34.8862    8.5999 O   0  0  0  0  0  0  0  0  0  0  0  0
    3.8088  -37.1984    2.5995 C   0  0  0  0  0  0  0  0  0  0  0  0
    5.1638  -43.9147    1.2276 O   0  0  0  0  0  0  0  0  0  0  0  0
    5.0870  -43.1958    2.9391 C   0  0  0  0  0  0  0  0  0  0  0  0
    8.5846  -41.9660    3.7515 C   0  0  0  0  0  0  0  0  0  0  0  0
    8.5525  -36.3046    0.0241 C   0  0  0  0  0  0  0  0  0  0  0  0
    2.1438  -40.3098    0.4427 C   0  0  0  0  0  0  0  0  0  0  0  0
    5.1112  -36.8625    5.9397 C   0  0  0  0  0  0  0  0  0  0  0  0
    6.2176  -37.3171    2.2090 O   0  0  0  0  0  0  0  0  0  0  0  0
    0.0038  -41.9477    4.6683 C   0  0  0  0  0  0  0  0  0  0  0  0
    5.4277  -42.4312    0.8582 C   0  0  0  0  0  0  0  0  0  0  0  0
    8.5384  -37.3628    1.1390 C   0  0  0  0  0  0  0  0  0  0  0  0
    6.8937  -39.8099   -0.2800 O   0  0  0  0  0  0  0  0  0  0  0  0
   -0.0612  -40.4672    0.3369 C   0  0  0  0  0  0  0  0  0  0  0  0
    6.0904  -35.7471    8.5849 C   0  0  0  0  0  0  0  0  0  0  0  0
  7  4  1  0
 10  5  1  0
 11 10  1  0
 14  8  1  0
 15  1  1  0
 15  9  1  0
 16 13  1  0
 17  5  1  0
 18  6  1  0
 20 14  1  0
 21  6  1  0
 22 19  2  0
 22 21  1  0
 24 10  1  0
 26  3  1  0
 27 11  1  0
 27 18  1  0
 28 11  1  0
 29 12  1  0
 30  7  1  0
 30 20  1  0
 32  2  1  0
 32 16  1  0
 33 15  1  0
 34 31  1  0
 35  8  1  0
 35 26  1  0
 37 25  1  0
 37 36  1  0
 38  5  1  0
 38 17  1  0
 39 21  1  0
 40  1  1  0
 41  2  1  0
 41  3  1  0
 41 32  1  0
 42 22  1  0
 43  4  1  0
 43 12  1  0
 44  9  1  0
 44 24  1  0
 44 36  1  0
 45 23  1  0
 45 27  1  0
 45 39  1  0
 46 18  2  0
 47  1  1  0
 47  7  1  0
 48 32  1  0
 48 34  1  0
M  END
>  <ID>  (1) 
conformer_0

$$$$
