
     RDKit          3D

 41 41  0  0  0  0  0  0  0  0999 V2000
    0.2349  -40.5120    1.0887 C   0  0  0  0  0  0  0  0  0  0  0  0
    7.4518  -41.8710    3.5277 C   0  0  0  0  0  0  0  0  0  0  0  0
    4.6580  -37.3850    7.5325 C   0  0  0  0  0  0  0  0  0  0  0  0
    0.1860  -40.3977    2.4392 C   0  0  2  0  0  0  0  0  0  0  0  0
    2.3816  -41.2192   -0.7025 C   0  0  0  0  0  0  0  0  0  0  0  0
    3.8352  -37.6309    3.3515 C   0  0  1  0  0  0  0  0  0  0  0  0
    2.6070  -37.4463    2.2687 C   0  0  0  0  0  0  0  0  0  0  0  0
    6.5445  -37.3206   -0.9614 C   0  0  0  0  0  0  0  0  0  0  0  0
    5.2411  -42.6870    2.5063 C   0  0  0  0  0  0  0  0  0  0  0  0
    8.7086  -39.3541    0.9003 C   0  0  0  0  0  0  0  0  0  0  0  0
    1.0590  -40.6752   -0.2594 C   0  0  0  0  0  0  0  0  0  0  0  0
    7.5695  -41.0041    1.3495 C   0  0  1  0  0  0  0  0  0  0  0  0
    4.2633  -36.3902    8.6765 C   0  0  0  0  0  0  0  0  0  0  0  0
    5.5227  -35.8414    9.8862 C   0  0  2  0  0  0  0  0  0  0  0  0
    1.5143  -38.6274    3.7153 C   0  0  2  0  0  0  0  0  0  0  0  0
   -0.1223  -41.8910    3.5639 C   0  0  0  0  0  0  0  0  0  0  0  0
    6.9055  -36.0415   -0.6011 C   0  0  0  0  0  0  0  0  0  0  0  0
    4.2218  -44.0507    0.0228 O   0  0  0  0  0  0  0  0  0  0  0  0
    4.1297  -43.4725   -0.1330 C   0  0  0  0  0  0  0  0  0  0  0  0
    6.6881  -35.5906    2.6781 O   0  0  0  0  0  0  0  0  0  0  0  0
    8.2371  -41.9991    3.1077 C   0  0  0  0  0  0  0  0  0  0  0  0
    4.7265  -38.3813    5.6290 C   0  0  0  0  0  0  0  0  0  0  0  0
    9.4621  -40.1211   -0.0029 O   0  0  0  0  0  0  0  0  0  0  0  0
    4.8847  -42.9684    2.5263 O   0  0  0  0  0  0  0  0  0  0  0  0
    1.9204  -39.6382    4.3770 O   0  0  0  0  0  0  0  0  0  0  0  0
    6.7931  -35.0043    8.7308 O   0  0  0  0  0  0  0  0  0  0  0  0
    7.8720  -36.6570    1.4193 C   0  0  0  0  0  0  0  0  0  0  0  0
    0.3021  -42.8441    4.1104 C   0  0  0  0  0  0  0  0  0  0  0  0
    5.2281  -36.7303    2.8758 C   0  0  0  0  0  0  0  0  0  0  0  0
    5.0366  -36.9859    5.1487 C   0  0  2  0  0  0  0  0  0  0  0  0
    5.2408  -36.1067    6.8239 C   0  0  0  0  0  0  0  0  0  0  0  0
    5.1633  -36.5873   11.0687 O   0  0  0  0  0  0  0  0  0  0  0  0
    6.4498  -34.9393    8.1776 C   0  0  0  0  0  0  0  0  0  0  0  0
    3.4403  -40.9775   -1.0364 C   0  0  0  0  0  0  0  0  0  0  0  0
    7.7410  -38.4711    0.8333 N   0  0  0  0  0  0  0  0  0  0  0  0
    6.9904  -38.0342    0.3943 C   0  0  0  0  0  0  0  0  0  0  0  0
    9.5834  -38.6133    1.7887 O   0  0  0  0  0  0  0  0  0  0  0  0
    6.4632  -40.6114    0.7093 O   0  0  0  0  0  0  0  0  0  0  0  0
    8.2579  -35.8848    0.1829 C   0  0  0  0  0  0  0  0  0  0  0  0
    4.9910  -42.0813    0.7164 C   0  0  2  0  0  0  0  0  0  0  0  0
    5.8392  -37.0699    1.9731 O   0  0  0  0  0  0  0  0  0  0  0  0
  4  1  1  6
  6  7  1  1
 11  1  1  0
 11  5  1  0
 12 10  1  0
 13  3  1  0
 14 13  1  0
 15  4  1  0
 15  7  1  0
 16  4  1  0
 17  8  1  0
 19 18  2  0
 21  2  1  0
 12 21  1  1
 23 10  1  0
 24  9  1  0
 15 25  1  1
 26 14  1  0
 28 16  2  3
 29  6  1  0
 29 20  2  0
 30  6  1  0
 30 22  1  1
 31  3  1  0
 31 30  1  0
 14 32  1  6
 33 26  1  0
 34  5  1  0
 34 19  1  0
 35 10  1  0
 36  8  1  0
 36 27  1  0
 36 35  1  0
 37 10  1  0
 38 12  1  0
 39 17  1  0
 39 27  1  0
 40  9  1  1
 40 19  1  0
 40 38  1  0
 41 29  1  0
M  END
>  <ID>  (1) 
conformer_0

$$$$
