
     RDKit          3D

 34 33  0  0  0  0  0  0  0  0999 V2000
    1.4482  -40.2452   -0.0405 C   0  0  0  0  0  0  0  0  0  0  0  0
    2.2798  -41.1516   -0.6002 C   0  0  0  0  0  0  0  0  0  0  0  0
    0.0746  -40.3778    0.8802 C   0  0  1  0  0  0  0  0  0  0  0  0
    6.8316  -37.3684   -1.2216 C   0  0  0  0  0  0  0  0  0  0  0  0
    4.3314  -37.0546    7.9570 C   0  0  0  0  0  0  0  0  0  0  0  0
    5.0004  -36.6155    7.1466 C   0  0  0  0  0  0  0  0  0  0  0  0
    7.5610  -41.8472    3.9272 C   0  0  0  0  0  0  0  0  0  0  0  0
    4.6059  -37.4419    4.3889 C   0  0  0  0  0  0  0  0  0  0  0  0
    5.4037  -42.1881    1.0942 C   0  0  0  0  0  0  0  0  0  0  0  0
   -0.4360  -40.7584    2.9042 C   0  0  0  0  0  0  0  0  0  0  0  0
    8.0527  -40.5673    1.3477 C   0  0  0  0  0  0  0  0  0  0  0  0
    3.8471  -42.9321    0.2615 C   0  0  0  0  0  0  0  0  0  0  0  0
    8.2156  -38.7318    0.1583 C   0  0  0  0  0  0  0  0  0  0  0  0
   -0.0942  -41.9674    3.5018 C   0  0  0  0  0  0  0  0  0  0  0  0
    1.8443  -38.1577    3.5654 C   0  0  0  0  0  0  0  0  0  0  0  0
    5.8335  -35.2575    9.2131 C   0  0  0  0  0  0  0  0  0  0  0  0
    4.6961  -37.4844    5.8146 C   0  0  0  0  0  0  0  0  0  0  0  0
    6.8473  -35.8648    2.4979 O   0  0  0  0  0  0  0  0  0  0  0  0
    8.4615  -41.7643    3.5338 C   0  0  0  0  0  0  0  0  0  0  0  0
    9.0077  -40.2645   -0.4125 O   0  0  0  0  0  0  0  0  0  0  0  0
    6.7158  -36.3707   -0.3900 C   0  0  0  0  0  0  0  0  0  0  0  0
    7.9793  -36.9550    1.2731 C   0  0  1  0  0  0  0  0  0  0  0  0
    5.7003  -34.9706    9.7557 O   0  0  0  0  0  0  0  0  0  0  0  0
    5.7297  -36.5786    2.8403 C   0  0  0  0  0  0  0  0  0  0  0  0
    0.8939  -42.9163    3.8828 C   0  0  0  0  0  0  0  0  0  0  0  0
    4.7156  -43.2456    0.8716 O   0  0  0  0  0  0  0  0  0  0  0  0
    4.8356  -42.1358    3.0201 O   0  0  0  0  0  0  0  0  0  0  0  0
    1.0343  -39.1117    2.3797 C   0  0  0  0  0  0  0  0  0  0  0  0
    3.2979  -37.5391    2.7034 C   0  0  0  0  0  0  0  0  0  0  0  0
    7.9183  -38.6254    0.8362 N   0  0  0  0  0  0  0  0  0  0  0  0
    6.0887  -42.1898    2.8227 C   0  0  0  0  0  0  0  0  0  0  0  0
    3.5749  -40.8513   -0.8610 C   0  0  0  0  0  0  0  0  0  0  0  0
    9.7522  -39.2833    1.6429 O   0  0  0  0  0  0  0  0  0  0  0  0
    8.5051  -36.3337    0.1782 C   0  0  0  0  0  0  0  0  0  0  0  0
  2  1  1  0
  3  1  1  1
  6  5  2  3
 10  3  1  0
 14 10  1  0
 16  6  1  0
 17  6  1  0
 17  8  1  0
 19  7  2  3
 20 13  1  0
 21  4  1  0
 22 18  1  0
 23 16  2  0
 24  8  2  3
 24 18  1  0
 25 14  1  0
 26  9  1  0
 26 12  1  0
 28  3  1  0
 28 15  1  0
 29  8  1  0
 29 15  1  0
 30 11  1  0
 30 13  1  0
 30 22  1  0
 31  7  1  0
 31  9  1  0
 31 27  2  0
 32  2  1  0
 32 12  1  0
 33 11  1  0
 34 21  1  0
 22 34  1  6
M  END
>  <ID>  (1) 
conformer_0

$$$$
