
     RDKit          3D

 50 50  0  0  0  0  0  0  0  0999 V2000
    4.0127  -41.2609   -1.0874 C   0  0  2  0  0  0  0  0  0  0  0  0
    2.4413  -41.4283   -0.1974 C   0  0  0  0  0  0  0  0  0  0  0  0
    4.6256  -37.6522    4.0135 C   0  0  1  0  0  0  0  0  0  0  0  0
    4.1374  -37.2829    7.7100 C   0  0  1  0  0  0  0  0  0  0  0  0
    1.6787  -40.4550   -0.9518 C   0  0  0  0  0  0  0  0  0  0  0  0
    6.3013  -36.5225   -0.5042 C   0  0  0  0  0  0  0  0  0  0  0  0
    2.0921  -37.9267    2.4441 C   0  0  0  0  0  0  0  0  0  0  0  0
    7.4990  -41.9371    2.8748 C   0  0  0  0  0  0  0  0  0  0  0  0
    7.8630  -38.5143   -0.0531 C   0  0  2  0  0  0  0  0  0  0  0  0
   -0.3147  -41.6413    4.2335 C   0  0  0  0  0  0  0  0  0  0  0  0
    5.2470  -42.8249    1.2681 C   0  0  0  0  0  0  0  0  0  0  0  0
    8.7898  -39.9019    1.1582 C   0  0  0  0  0  0  0  0  0  0  0  0
   -0.1340  -43.3005    3.9101 C   0  0  0  0  0  0  0  0  0  0  0  0
    3.4580  -37.3664    2.6814 C   0  0  0  0  0  0  0  0  0  0  0  0
    4.4608  -42.8708   -0.3595 C   0  0  0  0  0  0  0  0  0  0  0  0
    6.9238  -33.9640    9.0963 C   0  0  0  0  0  0  0  0  0  0  0  0
    1.6703  -37.8085    3.2337 C   0  0  2  0  0  0  0  0  0  0  0  0
    6.0237  -36.3260    2.4562 O   0  0  0  0  0  0  0  0  0  0  0  0
    3.9869  -39.8674   -1.1712 C   0  0  0  0  0  0  0  0  0  0  0  0
    7.0659  -37.1914   -1.3180 C   0  0  0  0  0  0  0  0  0  0  0  0
    9.4581  -40.2565   -0.0018 O   0  0  0  0  0  0  0  0  0  0  0  0
    5.6669  -43.1021    0.2246 O   0  0  0  0  0  0  0  0  0  0  0  0
    7.2772  -41.3941    1.6426 C   0  0  0  0  0  0  0  0  0  0  0  0
    6.0484  -34.9018    9.4807 O   0  0  0  0  0  0  0  0  0  0  0  0
    3.9496  -36.4815    8.7922 C   0  0  0  0  0  0  0  0  0  0  0  0
    8.1873  -37.9090    0.6981 N   0  0  0  0  0  0  0  0  0  0  0  0
    7.1573  -36.2543    1.3891 C   0  0  1  0  0  0  0  0  0  0  0  0
    1.3840  -43.6820    3.9998 C   0  0  0  0  0  0  0  0  0  0  0  0
    8.3723  -42.2048    3.6353 C   0  0  0  0  0  0  0  0  0  0  0  0
    4.4950  -42.3324    3.3817 O   0  0  0  0  0  0  0  0  0  0  0  0
    9.7165  -38.9654    1.9315 O   0  0  0  0  0  0  0  0  0  0  0  0
    4.5494  -37.8336    6.1136 C   0  0  0  0  0  0  0  0  0  0  0  0
    1.3686  -39.1943    4.1337 O   0  0  0  0  0  0  0  0  0  0  0  0
    0.4388  -36.7455    3.2049 O   0  0  0  0  0  0  0  0  0  0  0  0
    5.2445  -35.9714    7.1119 C   0  0  0  0  0  0  0  0  0  0  0  0
    0.1574  -40.9138    0.3147 C   0  0  0  0  0  0  0  0  0  0  0  0
    5.4499  -36.6137    3.1266 C   0  0  0  0  0  0  0  0  0  0  0  0
    4.9796  -35.5517   10.1023 C   0  0  0  0  0  0  0  0  0  0  0  0
    7.0402  -40.4591    0.4766 O   0  0  0  0  0  0  0  0  0  0  0  0
    8.2152  -35.9416   -0.1206 C   0  0  0  0  0  0  0  0  0  0  0  0
    0.6102  -39.6564    3.7524 C   0  0  0  0  0  0  0  0  0  0  0  0
    5.2398  -36.8160    5.1678 C   0  0  0  0  0  0  0  0  0  0  0  0
   -0.5373  -41.8425    2.5426 C   0  0  0  0  0  0  0  0  0  0  0  0
    0.9678  -39.9246    1.0732 C   0  0  0  0  0  0  0  0  0  0  0  0
    0.0405  -40.0621    2.6925 C   0  0  2  0  0  0  0  0  0  0  0  0
    5.5674  -42.6395    3.2352 C   0  0  0  0  0  0  0  0  0  0  0  0
    5.8333  -35.3987    7.9580 C   0  0  0  0  0  0  0  0  0  0  0  0
    7.3916  -35.4693    2.4258 O   0  0  0  0  0  0  0  0  0  0  0  0
    5.5175  -43.7441    2.0447 O   0  0  0  0  0  0  0  0  0  0  0  0
    8.7277  -37.0918    0.9098 C   0  0  2  0  0  0  0  0  0  0  0  0
  2  1  1  0
  5  2  1  0
 12  9  1  0
 13 10  1  0
  3 14  1  6
 14  7  1  0
 15  1  1  0
 17  7  1  0
  1 19  1  1
 20  6  1  0
  9 20  1  6
 21 12  1  0
 22 11  1  0
 22 15  1  0
 23  8  1  0
 24 16  1  0
  4 25  1  6
 26  9  1  0
 27 18  1  0
 28 13  1  0
 29  8  2  3
 31 12  1  0
 32  4  1  0
 33 17  1  0
 17 34  1  6
 35  4  1  0
 36  5  1  0
 37  3  1  0
 37 18  1  0
 38 24  1  0
 38 25  1  0
 39 12  1  0
 39 23  1  0
 40 27  1  0
 41 33  1  0
 42  3  1  0
 42 32  1  0
 43 10  1  0
 44 36  1  0
 45 41  1  1
 45 43  1  0
 45 44  1  0
 46 30  1  0
 47 35  1  0
 27 48  1  1
 49 11  1  0
 49 46  1  0
 50 26  1  6
 50 27  1  0
 50 40  1  0
M  END
>  <ID>  (1) 
conformer_0

$$$$
