
     RDKit          3D

 47 49  0  0  0  0  0  0  0  0999 V2000
    7.0871  -42.0864    4.6321 C   0  0  0  0  0  0  0  0  0  0  0  0
    2.5940  -41.2925   -0.7393 C   0  0  0  0  0  0  0  0  0  0  0  0
    3.7963  -40.6231   -1.0412 C   0  0  0  0  0  0  0  0  0  0  0  0
    4.5899  -37.5787    8.8034 C   0  0  0  0  0  0  0  0  0  0  0  0
    1.3669  -40.9418   -0.2856 C   0  0  0  0  0  0  0  0  0  0  0  0
    4.4881  -37.7740    6.6953 C   0  0  0  0  0  0  0  0  0  0  0  0
    6.8202  -36.4734   -0.4522 C   0  0  0  0  0  0  0  0  0  0  0  0
    2.3142  -37.7251    2.3548 C   0  0  0  0  0  0  0  0  0  0  0  0
    4.4369  -43.4276    0.2785 C   0  0  0  0  0  0  0  0  0  0  0  0
    8.2726  -40.9706    1.7748 C   0  0  0  0  0  0  0  0  0  0  0  0
    0.2828  -40.5624    0.1981 C   0  0  0  0  0  0  0  0  0  0  0  0
    6.9349  -38.6941   -0.0732 C   0  0  0  0  0  0  0  0  0  0  0  0
    3.6630  -37.4492    2.7555 C   0  0  0  0  0  0  0  0  0  0  0  0
    1.8512  -37.4551    3.4435 C   0  0  0  0  0  0  0  0  0  0  0  0
    0.1157  -40.3323    1.7693 C   0  0  0  0  0  0  0  0  0  0  0  0
    5.0601  -42.8749    3.7465 C   0  0  0  0  0  0  0  0  0  0  0  0
    6.6295  -35.9014    2.5243 O   0  0  0  0  0  0  0  0  0  0  0  0
    7.0815  -37.4032   -1.2044 C   0  0  0  0  0  0  0  0  0  0  0  0
    6.9918  -34.1642    9.0228 C   0  0  0  0  0  0  0  0  0  0  0  0
    4.6494  -37.5673    4.2574 C   0  0  0  0  0  0  0  0  0  0  0  0
    9.6510  -39.7775    0.2191 O   0  0  0  0  0  0  0  0  0  0  0  0
    8.6321  -41.7778    3.5628 C   0  0  0  0  0  0  0  0  0  0  0  0
    0.8590  -38.7991    3.9101 O   0  0  0  0  0  0  0  0  0  0  0  0
    6.7842  -39.8388   -0.0176 O   0  0  0  0  0  0  0  0  0  0  0  0
    4.7097  -43.4179    2.0971 O   0  0  0  0  0  0  0  0  0  0  0  0
    7.1293  -36.2602    1.7971 C   0  0  0  0  0  0  0  0  0  0  0  0
    6.4791  -34.8205    9.3400 O   0  0  0  0  0  0  0  0  0  0  0  0
    4.6523  -43.6695   -0.2961 O   0  0  0  0  0  0  0  0  0  0  0  0
   -0.4224  -41.1562    3.2623 C   0  0  0  0  0  0  0  0  0  0  0  0
    5.1379  -36.7284    3.4188 C   0  0  0  0  0  0  0  0  0  0  0  0
    5.0378  -36.5492    5.4650 C   0  0  0  0  0  0  0  0  0  0  0  0
   -0.1915  -42.4095    3.6504 C   0  0  0  0  0  0  0  0  0  0  0  0
    0.3136  -39.1569    3.5062 C   0  0  0  0  0  0  0  0  0  0  0  0
    4.4233  -41.6945   -0.1177 C   0  0  0  0  0  0  0  0  0  0  0  0
    6.0095  -41.4813    1.2798 C   0  0  0  0  0  0  0  0  0  0  0  0
    1.4105  -36.0198    3.2201 O   0  0  0  0  0  0  0  0  0  0  0  0
    4.2166  -36.6681    8.1669 C   0  0  0  0  0  0  0  0  0  0  0  0
    5.2610  -35.7026    6.9203 C   0  0  0  0  0  0  0  0  0  0  0  0
    8.5312  -36.3401    0.1147 C   0  0  0  0  0  0  0  0  0  0  0  0
    5.5434  -35.9261    9.4070 C   0  0  0  0  0  0  0  0  0  0  0  0
    7.1986  -41.6937    2.9585 C   0  0  0  0  0  0  0  0  0  0  0  0
    7.9084  -38.7209    0.9610 N   0  0  0  0  0  0  0  0  0  0  0  0
    1.2057  -43.3103    3.8735 C   0  0  0  0  0  0  0  0  0  0  0  0
    4.8346  -42.7667    4.0158 O   0  0  0  0  0  0  0  0  0  0  0  0
    6.1060  -41.6181    0.7908 O   0  0  0  0  0  0  0  0  0  0  0  0
    8.4484  -37.3638    0.9353 C   0  0  0  0  0  0  0  0  0  0  0  0
    8.8419  -39.6703    0.9769 C   0  0  0  0  0  0  0  0  0  0  0  0
  3  2  1  0
  5  2  2  0
 11  5  2  0
 13  8  1  0
 14  8  1  0
 15 11  1  0
 18  7  1  0
 18 12  1  0
 22  1  1  0
 23 14  1  0
 24 12  2  0
 25  9  1  0
 25 16  1  0
 26 17  1  0
 27 19  1  0
 28  9  2  0
 29 15  1  0
 30 13  1  0
 30 17  1  0
 30 20  1  0
 31  6  1  0
 31 20  1  0
 32 29  1  0
 33 23  1  0
 34  3  1  0
 34  9  1  0
 36 14  1  0
 37  4  1  0
 37  6  1  0
 38 31  1  0
 38 37  1  0
 39  7  1  0
 40 27  1  0
 40 37  1  0
 41  1  1  0
 41 10  1  0
 41 22  1  0
 41 35  1  0
 42 12  1  0
 43 32  1  0
 44 16  2  0
 45 34  1  0
 45 35  1  0
 46 26  1  0
 46 39  1  0
 46 42  1  0
 47 10  1  0
 47 21  2  0
 47 42  1  0
M  END
>  <ID>  (1) 
conformer_0

$$$$
