
     RDKit          3D

 50 58  0  0  0  0  0  0  0  0999 V2000
    6.8224  -42.0626    4.0215 C   0  0  0  0  0  0  0  0  0  0  0  0
    4.4260  -37.6069    4.2778 C   0  0  0  0  0  0  0  0  0  0  0  0
    0.1272  -40.3068    0.1211 C   0  0  0  0  0  0  0  0  0  0  0  0
    3.4486  -37.4332    2.7307 C   0  0  0  0  0  0  0  0  0  0  0  0
    1.5855  -41.0444    0.4859 C   0  0  0  0  0  0  0  0  0  0  0  0
    2.8738  -41.8950   -1.0102 C   0  0  0  0  0  0  0  0  0  0  0  0
    2.2613  -37.4722    2.3516 C   0  0  0  0  0  0  0  0  0  0  0  0
    7.1099  -37.6499   -1.3291 C   0  0  0  0  0  0  0  0  0  0  0  0
    8.6148  -37.2995    1.1295 C   0  0  0  0  0  0  0  0  0  0  0  0
    6.2320  -42.3299    1.6207 C   0  0  0  0  0  0  0  0  0  0  0  0
    1.6639  -40.7126   -1.1326 C   0  0  0  0  0  0  0  0  0  0  0  0
    4.4658  -43.2896    0.3730 C   0  0  0  0  0  0  0  0  0  0  0  0
    5.2831  -36.2616    6.9989 C   0  0  0  0  0  0  0  0  0  0  0  0
    9.0515  -39.3584    0.5530 C   0  0  0  0  0  0  0  0  0  0  0  0
    1.7076  -37.8236    3.7166 C   0  0  0  0  0  0  0  0  0  0  0  0
    6.7669  -35.1836    8.7103 C   0  0  0  0  0  0  0  0  0  0  0  0
    9.6212  -40.2318   -0.2969 O   0  0  0  0  0  0  0  0  0  0  0  0
    5.2799  -36.5810    3.4170 C   0  0  0  0  0  0  0  0  0  0  0  0
    4.7571  -38.0730    6.7792 C   0  0  0  0  0  0  0  0  0  0  0  0
   -0.5985  -40.9080    1.7545 C   0  0  0  0  0  0  0  0  0  0  0  0
    5.6678  -35.9645    2.6154 O   0  0  0  0  0  0  0  0  0  0  0  0
    0.8888  -38.8123    4.1776 O   0  0  0  0  0  0  0  0  0  0  0  0
    6.2121  -35.2594    9.4380 O   0  0  0  0  0  0  0  0  0  0  0  0
    8.6027  -42.0806    3.7392 C   0  0  0  0  0  0  0  0  0  0  0  0
    4.8256  -43.9934    0.2298 O   0  0  0  0  0  0  0  0  0  0  0  0
    6.5959  -36.4035   -0.5337 C   0  0  0  0  0  0  0  0  0  0  0  0
    9.5834  -38.2965    2.0721 O   0  0  0  0  0  0  0  0  0  0  0  0
    8.1532  -40.6779    1.4461 C   0  0  0  0  0  0  0  0  0  0  0  0
    4.7357  -37.2144    8.3699 C   0  0  0  0  0  0  0  0  0  0  0  0
    5.6504  -42.1157    0.7292 O   0  0  0  0  0  0  0  0  0  0  0  0
    3.8639  -40.5538   -1.2072 C   0  0  0  0  0  0  0  0  0  0  0  0
    6.9681  -38.4727    0.0870 C   0  0  0  0  0  0  0  0  0  0  0  0
    5.4573  -43.0476    3.0608 C   0  0  0  0  0  0  0  0  0  0  0  0
    0.6539  -39.8207    3.9277 C   0  0  0  0  0  0  0  0  0  0  0  0
    4.6283  -42.6510    3.0472 O   0  0  0  0  0  0  0  0  0  0  0  0
    3.3892  -36.5959    8.8332 C   0  0  0  0  0  0  0  0  0  0  0  0
    5.0710  -36.2582    9.6038 C   0  0  0  0  0  0  0  0  0  0  0  0
    7.8963  -38.3273    0.8871 N   0  0  0  0  0  0  0  0  0  0  0  0
   -0.1512  -42.3134    3.0165 C   0  0  0  0  0  0  0  0  0  0  0  0
    7.6275  -41.5855    2.5541 C   0  0  0  0  0  0  0  0  0  0  0  0
    2.0962  -40.2208    4.9634 O   0  0  0  0  0  0  0  0  0  0  0  0
    5.2413  -36.8808    5.4101 C   0  0  0  0  0  0  0  0  0  0  0  0
    8.2166  -36.3690   -0.2733 C   0  0  0  0  0  0  0  0  0  0  0  0
    7.0613  -36.4370    1.7099 C   0  0  0  0  0  0  0  0  0  0  0  0
    6.9496  -40.1684    0.3117 O   0  0  0  0  0  0  0  0  0  0  0  0
    4.2408  -41.7858   -0.1477 C   0  0  0  0  0  0  0  0  0  0  0  0
   -0.8262  -41.4156    3.9151 C   0  0  0  0  0  0  0  0  0  0  0  0
    0.6499  -42.6940    4.3532 C   0  0  0  0  0  0  0  0  0  0  0  0
    0.3905  -40.0150    2.4486 C   0  0  0  0  0  0  0  0  0  0  0  0
    7.1784  -36.2286    2.1971 O   0  0  0  0  0  0  0  0  0  0  0  0
  4  2  1  0
  5  3  1  0
  7  4  1  0
 11  5  1  0
 11  6  1  0
 15  7  1  0
 17 14  1  0
 18  2  1  0
 19 13  1  0
 20  3  1  0
 21 18  1  0
 22 15  1  0
 23 16  1  0
 24  1  1  0
 25 12  2  0
 26  8  1  0
 27  9  1  0
 28 14  1  0
 29 13  1  0
 29 19  1  0
 30 10  1  0
 31  6  1  0
 32  8  1  0
 33  1  1  0
 33 10  1  0
 34 22  1  0
 35 33  1  0
 36 29  1  0
 37 23  1  0
 37 29  1  0
 37 36  1  0
 38  9  1  0
 38 14  1  0
 38 32  1  0
 39 20  1  0
 40  1  1  0
 40 10  1  0
 40 24  1  0
 40 28  1  0
 41 34  1  0
 42  2  1  0
 42 13  1  0
 42 19  1  0
 43  9  1  0
 43 26  1  0
 44  9  1  0
 45 28  1  0
 45 32  1  0
 46  6  1  0
 46 12  1  0
 46 30  1  0
 46 31  1  0
 47 39  1  0
 48 39  1  0
 49 20  1  0
 49 34  1  0
 50 21  1  0
 50 44  1  0
M  END
>  <ID>  (1) 
conformer_0

$$$$
