
     RDKit          3D

 41 41  0  0  0  0  0  0  0  0999 V2000
   -0.2252  -40.8185    2.1557 C   0  0  0  0  0  0  0  0  0  0  0  0
    6.4183  -36.5606   -0.3930 C   0  0  0  0  0  0  0  0  0  0  0  0
    0.4169  -40.5387    0.5756 C   0  0  0  0  0  0  0  0  0  0  0  0
    2.3281  -37.5025    2.5114 C   0  0  0  0  0  0  0  0  0  0  0  0
    4.4470  -37.8137    5.7020 C   0  0  0  0  0  0  0  0  0  0  0  0
   -0.2839  -41.0869    3.7083 C   0  0  0  0  0  0  0  0  0  0  0  0
    7.4789  -41.7679    3.2783 C   0  0  0  0  0  0  0  0  0  0  0  0
    0.8927  -39.4126    2.4186 C   0  0  0  0  0  0  0  0  0  0  0  0
    5.1375  -43.0687    2.9625 C   0  0  0  0  0  0  0  0  0  0  0  0
    0.0302  -42.7366    3.8974 C   0  0  0  0  0  0  0  0  0  0  0  0
    7.1122  -41.7306    1.8612 C   0  0  0  0  0  0  0  0  0  0  0  0
    5.3487  -36.2878    6.6097 C   0  0  0  0  0  0  0  0  0  0  0  0
    8.3949  -40.1348    1.2024 C   0  0  0  0  0  0  0  0  0  0  0  0
    4.3518  -42.4916   -0.2072 C   0  0  0  0  0  0  0  0  0  0  0  0
    1.5688  -40.8233   -0.0378 C   0  0  0  0  0  0  0  0  0  0  0  0
    1.4189  -38.1542    3.7289 C   0  0  0  0  0  0  0  0  0  0  0  0
    6.6677  -35.8691    2.4940 O   0  0  0  0  0  0  0  0  0  0  0  0
    7.1829  -37.4883   -1.0900 C   0  0  0  0  0  0  0  0  0  0  0  0
    2.6849  -41.2488   -0.5121 C   0  0  0  0  0  0  0  0  0  0  0  0
    4.4451  -37.0249    7.7570 C   0  0  0  0  0  0  0  0  0  0  0  0
    9.5028  -38.6100    1.6829 O   0  0  0  0  0  0  0  0  0  0  0  0
    6.8146  -34.1970    8.3814 C   0  0  0  0  0  0  0  0  0  0  0  0
    5.9384  -34.8384    9.1154 O   0  0  0  0  0  0  0  0  0  0  0  0
    8.4475  -38.1806    0.6052 C   0  0  0  0  0  0  0  0  0  0  0  0
    6.4763  -40.8165    0.5161 O   0  0  0  0  0  0  0  0  0  0  0  0
    4.7052  -43.5459    2.5376 O   0  0  0  0  0  0  0  0  0  0  0  0
    4.2219  -43.8550    0.1518 O   0  0  0  0  0  0  0  0  0  0  0  0
    8.4067  -42.0359    3.6852 C   0  0  0  0  0  0  0  0  0  0  0  0
    7.8108  -36.3640    1.2944 C   0  0  0  0  0  0  0  0  0  0  0  0
    1.0182  -43.6997    3.9299 C   0  0  0  0  0  0  0  0  0  0  0  0
    3.9252  -40.6063   -1.1773 C   0  0  0  0  0  0  0  0  0  0  0  0
    3.6611  -36.5967    9.2449 C   0  0  0  0  0  0  0  0  0  0  0  0
    4.9644  -35.6557    9.3789 C   0  0  0  0  0  0  0  0  0  0  0  0
    5.8276  -36.5160    2.6617 C   0  0  0  0  0  0  0  0  0  0  0  0
    3.6667  -37.6038    3.1357 C   0  0  0  0  0  0  0  0  0  0  0  0
    8.0244  -36.1880   -0.1133 C   0  0  0  0  0  0  0  0  0  0  0  0
    9.0728  -39.9626    0.0345 O   0  0  0  0  0  0  0  0  0  0  0  0
    3.6960  -42.1115    3.7854 O   0  0  0  0  0  0  0  0  0  0  0  0
    5.0124  -37.1493    4.6734 C   0  0  0  0  0  0  0  0  0  0  0  0
    5.3271  -42.1742    1.0166 C   0  0  0  0  0  0  0  0  0  0  0  0
    6.0971  -42.7755    0.6558 O   0  0  0  0  0  0  0  0  0  0  0  0
  3  1  1  0
  6  1  1  0
  8  1  1  0
  9  7  1  0
 10  6  1  0
 11  7  1  0
 12  5  1  0
 15  3  2  0
 16  4  1  0
 16  8  1  0
 18  2  1  0
 19 14  1  0
 19 15  2  0
 20 12  1  0
 23 22  1  0
 24 13  1  0
 24 21  1  0
 25 11  1  0
 26  9  2  0
 27 14  1  0
 28  7  1  0
 29 17  1  0
 29 24  1  0
 30 10  1  0
 31 19  1  0
 32 20  1  0
 33 23  1  0
 33 32  1  0
 34 17  1  0
 35  4  1  0
 36  2  1  0
 36 18  1  0
 36 29  1  0
 37 13  1  0
 38  9  1  0
 39  5  1  0
 39 34  1  0
 39 35  1  0
 40 14  1  0
 40 25  1  0
 41 40  1  0
M  END
>  <ID>  (1) 
conformer_0

$$$$
