
     RDKit          3D

 48 51  0  0  0  0  0  0  0  0999 V2000
    4.5393  -37.6935    7.1733 C   0  0  0  0  0  0  0  0  0  0  0  0
    0.4314  -40.4657   -0.1137 C   0  0  1  0  0  0  0  0  0  0  0  0
   -0.1489  -41.0199    1.2132 C   0  0  0  0  0  0  0  0  0  0  0  0
    7.1279  -41.6586    2.8003 C   0  0  0  0  0  0  0  0  0  0  0  0
    2.1408  -40.2262   -0.9635 C   0  0  1  0  0  0  0  0  0  0  0  0
    0.6820  -40.3779    2.3874 C   0  0  1  0  0  0  0  0  0  0  0  0
    3.6947  -37.0271    8.9408 C   0  0  0  0  0  0  0  0  0  0  0  0
    6.6265  -37.7116   -1.3986 C   0  0  0  0  0  0  0  0  0  0  0  0
    8.1600  -40.2341    1.1044 C   0  0  1  0  0  0  0  0  0  0  0  0
    7.2821  -36.2674    1.4772 C   0  0  2  0  0  0  0  0  0  0  0  0
    6.7336  -41.3631    1.3875 C   0  0  1  0  0  0  0  0  0  0  0  0
    3.4907  -41.3367   -1.2315 C   0  0  0  0  0  0  0  0  0  0  0  0
    2.8507  -37.3460    1.9277 C   0  0  0  0  0  0  0  0  0  0  0  0
    4.3632  -43.2751   -0.5727 C   0  0  1  0  0  0  0  0  0  0  0  0
    5.8694  -35.7832    9.3874 C   0  0  0  0  0  0  0  0  0  0  0  0
    7.1580  -36.0438   -0.2223 C   0  0  0  0  0  0  0  0  0  0  0  0
   -0.5468  -41.4094    3.1331 C   0  0  1  0  0  0  0  0  0  0  0  0
    9.3030  -40.1668   -0.3424 O   0  0  0  0  0  0  0  0  0  0  0  0
    5.1008  -42.0784    0.3806 C   0  0  0  0  0  0  0  0  0  0  0  0
    7.8629  -42.2572    4.2219 C   0  0  0  0  0  0  0  0  0  0  0  0
    2.2022  -38.3861    2.9092 C   0  0  0  0  0  0  0  0  0  0  0  0
    4.2057  -37.5885    3.5635 C   0  0  1  0  0  0  0  0  0  0  0  0
    1.7794  -37.9682    3.6150 C   0  0  0  0  0  0  0  0  0  0  0  0
    6.9575  -35.5780    2.5747 O   0  0  0  0  0  0  0  0  0  0  0  0
    6.5660  -34.8792    9.6558 O   0  0  0  0  0  0  0  0  0  0  0  0
    5.1470  -36.6877    2.9583 C   0  0  0  0  0  0  0  0  0  0  0  0
    4.1268  -43.8926    0.4477 O   0  0  0  0  0  0  0  0  0  0  0  0
    9.4614  -38.8162    1.8369 O   0  0  0  0  0  0  0  0  0  0  0  0
    5.0442  -42.9099    3.1761 O   0  0  0  0  0  0  0  0  0  0  0  0
    4.9400  -36.6733    8.4094 C   0  0  0  0  0  0  0  0  0  0  0  0
   -0.3554  -42.8080    3.8411 C   0  0  0  0  0  0  0  0  0  0  0  0
    5.5232  -42.5257    0.9290 O   0  0  0  0  0  0  0  0  0  0  0  0
    2.6029  -41.5292    3.9904 O   0  0  0  0  0  0  0  0  0  0  0  0
    1.3175  -41.1839    3.6104 C   0  0  1  0  0  0  0  0  0  0  0  0
    5.5823  -42.8961    3.0928 C   0  0  0  0  0  0  0  0  0  0  0  0
    8.1872  -38.3262    0.7040 N   0  0  0  0  0  0  0  0  0  0  0  0
    0.8164  -43.1177    4.1232 C   0  0  0  0  0  0  0  0  0  0  0  0
    8.9654  -36.8749    1.2194 C   0  0  0  0  0  0  0  0  0  0  0  0
    4.9521  -37.5675    5.1930 C   0  0  0  0  0  0  0  0  0  0  0  0
    5.3133  -36.3604    5.5050 C   0  0  0  0  0  0  0  0  0  0  0  0
    7.8189  -37.1138   -0.8732 C   0  0  1  0  0  0  0  0  0  0  0  0
    8.9499  -41.8486    3.2907 C   0  0  0  0  0  0  0  0  0  0  0  0
    8.2561  -38.6532    0.2677 C   0  0  2  0  0  0  0  0  0  0  0  0
    1.5713  -41.5075   -0.8172 C   0  0  0  0  0  0  0  0  0  0  0  0
    6.6265  -40.6146    0.2294 O   0  0  0  0  0  0  0  0  0  0  0  0
    5.6418  -36.5966    2.1879 O   0  0  0  0  0  0  0  0  0  0  0  0
    5.4014  -35.7796    7.1358 C   0  0  0  0  0  0  0  0  0  0  0  0
    7.0720  -34.4739    8.7240 C   0  0  0  0  0  0  0  0  0  0  0  0
  2  3  1  1
  5  2  1  0
  6  3  1  6
 11  4  1  0
 11  9  1  0
  5 12  1  1
 14 12  1  0
 16 10  1  0
 17  6  1  0
  9 18  1  6
 19 14  1  0
 20  4  1  0
 21 13  1  0
 22 13  1  1
 23 21  1  0
 10 24  1  1
 25 15  1  0
 26 22  1  0
 14 27  1  1
 30  1  1  0
 30  7  1  0
 30 15  1  0
 17 31  1  6
 32 11  1  0
 32 19  1  0
 34  6  1  0
 34 17  1  0
 34 33  1  6
 35  4  1  0
 35 29  2  0
 36 28  1  0
 37 31  2  3
 38 10  1  0
 38 36  1  0
 39 22  1  0
 40 39  1  0
 41  8  1  6
 41 16  1  0
 42  4  1  0
 42 20  1  0
 43  9  1  0
 43 36  1  1
 43 41  1  0
 44  2  1  0
 44  5  1  0
 11 45  1  1
 46 24  1  0
 46 26  1  0
 47 30  1  0
 47 40  2  3
 48 25  1  0
M  END
>  <ID>  (1) 
conformer_0

$$$$
