
     RDKit          3D

 47 47  0  0  0  0  0  0  0  0999 V2000
    4.4289  -36.9240    8.3612 C   0  0  0  0  0  0  0  0  0  0  0  0
    6.8134  -37.4441   -1.4093 C   0  0  0  0  0  0  0  0  0  0  0  0
   -0.1820  -40.1643    2.1738 C   0  0  0  0  0  0  0  0  0  0  0  0
    0.6728  -43.0735    4.3125 C   0  0  0  0  0  0  0  0  0  0  0  0
    0.0921  -42.8006    3.3870 C   0  0  0  0  0  0  0  0  0  0  0  0
    6.6369  -41.9338    4.2806 C   0  0  0  0  0  0  0  0  0  0  0  0
    2.0468  -38.1193    2.7623 C   0  0  0  0  0  0  0  0  0  0  0  0
    4.0925  -37.5004    3.7768 C   0  0  0  0  0  0  0  0  0  0  0  0
    4.1953  -43.3445   -0.5950 C   0  0  0  0  0  0  0  0  0  0  0  0
   -0.6338  -41.4584    3.2071 C   0  0  0  0  0  0  0  0  0  0  0  0
    7.9112  -37.9624   -0.1435 C   0  0  0  0  0  0  0  0  0  0  0  0
    8.5290  -39.7429    0.8398 C   0  0  0  0  0  0  0  0  0  0  0  0
    8.4353  -42.1719    4.2495 C   0  0  0  0  0  0  0  0  0  0  0  0
    3.8554  -37.4482    7.4364 C   0  0  0  0  0  0  0  0  0  0  0  0
    5.4478  -35.7807    9.3198 C   0  0  0  0  0  0  0  0  0  0  0  0
    4.6531  -42.3920    0.4484 C   0  0  0  0  0  0  0  0  0  0  0  0
    0.4550  -40.2858    0.7347 C   0  0  0  0  0  0  0  0  0  0  0  0
    9.6075  -40.1101   -0.4529 O   0  0  0  0  0  0  0  0  0  0  0  0
    0.4799  -39.1393    3.2127 C   0  0  0  0  0  0  0  0  0  0  0  0
    6.9359  -36.2525   -0.7036 C   0  0  0  0  0  0  0  0  0  0  0  0
    6.1282  -36.5876    2.2045 O   0  0  0  0  0  0  0  0  0  0  0  0
    7.8522  -36.5344    1.3392 C   0  0  0  0  0  0  0  0  0  0  0  0
    6.0923  -35.0069    9.9123 O   0  0  0  0  0  0  0  0  0  0  0  0
    9.8120  -38.8125    1.8023 O   0  0  0  0  0  0  0  0  0  0  0  0
    4.7380  -43.9006   -0.2526 O   0  0  0  0  0  0  0  0  0  0  0  0
    5.4650  -35.8807    7.2017 C   0  0  0  0  0  0  0  0  0  0  0  0
    1.3564  -40.3661   -0.2852 C   0  0  0  0  0  0  0  0  0  0  0  0
    3.6793  -41.9363    3.9764 O   0  0  0  0  0  0  0  0  0  0  0  0
    5.7743  -36.4749    2.7377 C   0  0  0  0  0  0  0  0  0  0  0  0
    5.1469  -42.5457    1.8452 O   0  0  0  0  0  0  0  0  0  0  0  0
    4.4374  -37.9181    6.0421 C   0  0  0  0  0  0  0  0  0  0  0  0
    6.9749  -41.3913    2.6214 C   0  0  0  0  0  0  0  0  0  0  0  0
    2.5127  -41.1972   -0.7912 C   0  0  0  0  0  0  0  0  0  0  0  0
    1.3945  -41.4336    3.7430 C   0  0  0  0  0  0  0  0  0  0  0  0
    1.7644  -40.3241    4.0753 O   0  0  0  0  0  0  0  0  0  0  0  0
    7.1402  -39.9699   -0.0781 O   0  0  0  0  0  0  0  0  0  0  0  0
    3.5442  -37.3908    1.8854 C   0  0  0  0  0  0  0  0  0  0  0  0
    8.0535  -38.3838    0.6223 N   0  0  0  0  0  0  0  0  0  0  0  0
    8.3639  -36.0434    0.1014 C   0  0  0  0  0  0  0  0  0  0  0  0
    6.9076  -34.2759    8.9881 C   0  0  0  0  0  0  0  0  0  0  0  0
    5.2653  -42.3810    2.4450 C   0  0  0  0  0  0  0  0  0  0  0  0
    6.8837  -40.9242    1.4231 C   0  0  0  0  0  0  0  0  0  0  0  0
    3.8746  -40.7575   -0.9903 C   0  0  0  0  0  0  0  0  0  0  0  0
    3.0283  -37.9189    3.6126 C   0  0  0  0  0  0  0  0  0  0  0  0
    7.2758  -35.2422    2.5499 O   0  0  0  0  0  0  0  0  0  0  0  0
    8.6804  -41.5008    2.9353 C   0  0  0  0  0  0  0  0  0  0  0  0
    5.1204  -36.8322    5.2651 C   0  0  0  0  0  0  0  0  0  0  0  0
  5  4  1  0
 10  3  1  0
 10  5  1  0
 11  2  1  0
 13  6  1  0
 14  1  1  0
 15  1  1  0
 16  9  1  0
 17  3  2  0
 18 12  1  0
 19  3  1  0
 19  7  1  0
 20  2  1  0
 23 15  1  0
 24 12  1  0
 25  9  1  0
 26  1  1  0
 27 17  2  0
 29  8  1  0
 29 21  1  0
 30 16  1  0
 31 14  1  0
 32  6  1  0
 33 27  1  0
 34  4  1  0
 34 28  1  0
 35 34  1  0
 36 12  1  0
 38 11  1  0
 38 12  1  0
 39 20  1  0
 39 22  1  0
 40 23  1  0
 41 30  1  0
 41 32  1  0
 42 32  1  0
 42 36  1  0
 43 33  1  0
 44  7  1  0
 44  8  1  0
 44 37  1  0
 45 21  1  0
 45 22  1  0
 46 13  1  0
 46 32  1  0
 47  8  1  0
 47 31  1  0
M  END
>  <ID>  (1) 
conformer_0

$$$$
