
     RDKit          3D

 45 46  0  0  0  0  0  0  0  0999 V2000
    2.4335  -42.1437   -0.6572 C   0  0  2  0  0  0  0  0  0  0  0  0
    4.1049  -36.7969    8.5141 C   0  0  0  0  0  0  0  0  0  0  0  0
    3.9844  -41.0751   -0.7929 C   0  0  0  0  0  0  0  0  0  0  0  0
    2.4125  -40.7003   -0.8656 C   0  0  2  0  0  0  0  0  0  0  0  0
    6.8795  -41.9645    3.9273 C   0  0  1  0  0  0  0  0  0  0  0  0
    6.5733  -36.6470   -0.3229 C   0  0  0  0  0  0  0  0  0  0  0  0
    3.5004  -37.2336    2.6652 C   0  0  0  0  0  0  0  0  0  0  0  0
    5.6120  -35.6603    7.3477 C   0  0  0  0  0  0  0  0  0  0  0  0
    0.9225  -40.5464   -0.7769 C   0  0  0  0  0  0  0  0  0  0  0  0
    5.5314  -42.7337    3.0261 C   0  0  0  0  0  0  0  0  0  0  0  0
    7.0283  -36.2917    1.7848 C   0  0  0  0  0  0  0  0  0  0  0  0
    4.6362  -37.5214    7.8973 C   0  0  0  0  0  0  0  0  0  0  0  0
    3.7049  -43.3208    0.1063 C   0  0  2  0  0  0  0  0  0  0  0  0
   -0.5222  -41.7481    2.6312 C   0  0  0  0  0  0  0  0  0  0  0  0
    5.5273  -35.9481    9.2299 C   0  0  1  0  0  0  0  0  0  0  0  0
    8.6344  -39.9056    1.1608 C   0  0  0  0  0  0  0  0  0  0  0  0
    8.3260  -42.1434    4.3587 C   0  0  0  0  0  0  0  0  0  0  0  0
    1.5817  -38.2340    3.3933 C   0  0  2  0  0  0  0  0  0  0  0  0
    6.3758  -35.7864    2.5147 O   0  0  0  0  0  0  0  0  0  0  0  0
    0.0673  -42.3257    4.0187 C   0  0  0  0  0  0  0  0  0  0  0  0
    8.9619  -40.0881   -0.2098 O   0  0  0  0  0  0  0  0  0  0  0  0
    5.3152  -36.4247    5.9383 C   0  0  0  0  0  0  0  0  0  0  0  0
    5.1001  -36.5397    3.6444 C   0  0  0  0  0  0  0  0  0  0  0  0
    6.7424  -34.9837    9.3329 O   0  0  0  0  0  0  0  0  0  0  0  0
    4.3591  -42.5811    3.0237 O   0  0  0  0  0  0  0  0  0  0  0  0
    9.7803  -38.7447    2.0646 O   0  0  0  0  0  0  0  0  0  0  0  0
    7.0272  -37.3328   -1.3160 C   0  0  0  0  0  0  0  0  0  0  0  0
    0.9067  -43.2012    3.9594 C   0  0  0  0  0  0  0  0  0  0  0  0
    7.1338  -41.5351    1.8640 C   0  0  0  0  0  0  0  0  0  0  0  0
    4.6105  -37.6391    4.0655 C   0  0  1  0  0  0  0  0  0  0  0  0
    8.0669  -38.3912    0.7647 N   0  0  0  0  0  0  0  0  0  0  0  0
    4.1935  -43.9587    1.0800 O   0  0  0  0  0  0  0  0  0  0  0  0
    0.1841  -40.6746    0.5259 C   0  0  0  0  0  0  0  0  0  0  0  0
    2.2252  -37.7329    2.4019 C   0  0  0  0  0  0  0  0  0  0  0  0
    1.6882  -38.8517    4.1793 O   0  0  0  0  0  0  0  0  0  0  0  0
    7.3208  -38.4409    0.0094 C   0  0  0  0  0  0  0  0  0  0  0  0
    6.8135  -34.4451    8.3784 C   0  0  0  0  0  0  0  0  0  0  0  0
    4.9430  -42.3913    0.8270 C   0  0  0  0  0  0  0  0  0  0  0  0
    8.7076  -37.3544    1.1327 C   0  0  0  0  0  0  0  0  0  0  0  0
    5.8954  -41.7860    1.3753 O   0  0  0  0  0  0  0  0  0  0  0  0
    8.9485  -41.6554    3.2849 C   0  0  0  0  0  0  0  0  0  0  0  0
    8.4609  -36.1771    0.2705 C   0  0  0  0  0  0  0  0  0  0  0  0
    4.7410  -37.7831    6.1623 C   0  0  2  0  0  0  0  0  0  0  0  0
    0.5749  -39.6865    1.4907 C   0  0  1  0  0  0  0  0  0  0  0  0
    0.0118  -40.3936    2.9193 C   0  0  0  0  0  0  0  0  0  0  0  0
  1  3  1  6
  4  1  1  0
  4  3  1  0
  4  9  1  1
 10  5  1  0
 12  2  1  0
 13  1  1  0
 15  2  1  0
 15  8  1  0
  5 17  1  6
 19 11  1  0
 20 14  1  0
 21 16  1  0
 22  8  1  0
 23 19  1  0
 15 24  1  1
 25 10  2  0
 26 16  1  0
 27  6  1  0
 28 20  2  3
 29  5  1  0
 30  7  1  1
 30 23  1  0
 31 16  1  0
 13 32  1  1
 33  9  1  0
 34  7  1  0
 34 18  1  0
 18 35  1  1
 36 27  1  0
 36 31  1  0
 37 24  1  0
 38 13  1  0
 39 31  1  0
 40 29  1  0
 40 38  1  0
 41 17  1  0
 42 11  1  0
 42 39  1  0
 43 12  1  1
 43 22  1  0
 43 30  1  0
 44 18  1  0
 44 33  1  1
 45 14  1  0
 45 44  1  0
M  END
>  <ID>  (1) 
conformer_0

$$$$
