
     RDKit          3D

 47 50  0  0  0  0  0  0  0  0999 V2000
    0.1303  -40.5231    1.1480 C   0  0  0  0  0  0  0  0  0  0  0  0
    1.7738  -38.1053    2.3690 C   0  0  0  0  0  0  0  0  0  0  0  0
    4.5888  -37.9987    6.5453 C   0  0  0  0  0  0  0  0  0  0  0  0
    1.6907  -41.1171   -0.5894 C   0  0  0  0  0  0  0  0  0  0  0  0
    7.6603  -42.1706    4.8523 C   0  0  0  0  0  0  0  0  0  0  0  0
    5.0637  -37.1014    5.3495 C   0  0  0  0  0  0  0  0  0  0  0  0
    7.2557  -37.4788   -1.4270 C   0  0  0  0  0  0  0  0  0  0  0  0
    5.4157  -42.3333    0.9923 C   0  0  0  0  0  0  0  0  0  0  0  0
    3.3172  -37.5628    2.3779 C   0  0  0  0  0  0  0  0  0  0  0  0
    7.6865  -38.3199   -0.0106 C   0  0  0  0  0  0  0  0  0  0  0  0
    0.5463  -40.3940   -0.1014 C   0  0  0  0  0  0  0  0  0  0  0  0
    4.4659  -42.4637   -0.2767 C   0  0  0  0  0  0  0  0  0  0  0  0
    4.5943  -38.0609    4.0035 C   0  0  0  0  0  0  0  0  0  0  0  0
    6.8465  -36.4413    1.8466 C   0  0  0  0  0  0  0  0  0  0  0  0
    4.9300  -36.1770    9.3732 C   0  0  0  0  0  0  0  0  0  0  0  0
    0.5195  -39.9277    2.5862 C   0  0  0  0  0  0  0  0  0  0  0  0
    6.3308  -36.9647   -0.8164 C   0  0  0  0  0  0  0  0  0  0  0  0
    5.5923  -35.7471    6.9932 C   0  0  0  0  0  0  0  0  0  0  0  0
    8.9177  -41.9203    3.6440 C   0  0  0  0  0  0  0  0  0  0  0  0
    4.7951  -36.8531    3.5043 C   0  0  0  0  0  0  0  0  0  0  0  0
    6.1793  -35.9238    2.5425 O   0  0  0  0  0  0  0  0  0  0  0  0
    6.8311  -41.0084    0.6121 O   0  0  0  0  0  0  0  0  0  0  0  0
    9.7393  -38.6075    1.9392 O   0  0  0  0  0  0  0  0  0  0  0  0
    5.1568  -43.6198    0.3189 O   0  0  0  0  0  0  0  0  0  0  0  0
   -0.1995  -42.3000    3.9724 C   0  0  0  0  0  0  0  0  0  0  0  0
    6.3334  -42.7841    2.2851 C   0  0  0  0  0  0  0  0  0  0  0  0
    9.2870  -40.1978   -0.0235 O   0  0  0  0  0  0  0  0  0  0  0  0
    5.9953  -34.7900    9.4811 O   0  0  0  0  0  0  0  0  0  0  0  0
    2.6298  -41.6115    4.6583 O   0  0  0  0  0  0  0  0  0  0  0  0
    7.4557  -44.0805    1.6687 O   0  0  0  0  0  0  0  0  0  0  0  0
    8.1447  -38.2390    0.6822 N   0  0  0  0  0  0  0  0  0  0  0  0
    1.4900  -41.5200    4.3722 C   0  0  0  0  0  0  0  0  0  0  0  0
    0.7311  -43.1132    4.3172 C   0  0  0  0  0  0  0  0  0  0  0  0
    4.7903  -37.2532    7.9354 C   0  0  0  0  0  0  0  0  0  0  0  0
    1.4287  -38.3131    3.1340 C   0  0  0  0  0  0  0  0  0  0  0  0
    6.5623  -34.4172    8.1269 C   0  0  0  0  0  0  0  0  0  0  0  0
    4.6549  -42.4404    2.9320 O   0  0  0  0  0  0  0  0  0  0  0  0
   -0.4688  -41.3681    2.9779 C   0  0  0  0  0  0  0  0  0  0  0  0
    8.8072  -39.4740    0.8600 C   0  0  0  0  0  0  0  0  0  0  0  0
    7.5514  -41.2007    1.5606 C   0  0  0  0  0  0  0  0  0  0  0  0
    7.7141  -35.9189   -0.1927 C   0  0  0  0  0  0  0  0  0  0  0  0
    7.4165  -41.9775    3.2399 C   0  0  0  0  0  0  0  0  0  0  0  0
    3.7928  -36.8018    8.7016 C   0  0  0  0  0  0  0  0  0  0  0  0
    3.8340  -41.6775   -1.5122 C   0  0  0  0  0  0  0  0  0  0  0  0
    8.6014  -36.9644    1.1461 C   0  0  0  0  0  0  0  0  0  0  0  0
    6.6705  -35.1918   10.1348 C   0  0  0  0  0  0  0  0  0  0  0  0
    3.1259  -40.5576   -0.8010 C   0  0  0  0  0  0  0  0  0  0  0  0
  6  3  1  0
  9  2  1  0
 10  7  1  0
 11  1  1  0
 11  4  1  0
 12  8  1  0
 13  6  1  0
 16  1  1  0
 17  7  1  0
 19  5  1  0
 20  9  1  0
 20 13  1  0
 21 14  1  0
 21 20  1  0
 24  8  1  0
 24 12  1  0
 26  8  1  0
 30 26  1  0
 31 10  1  0
 32 29  1  0
 33 25  1  0
 33 32  1  0
 34  3  1  0
 34 15  1  0
 34 18  1  0
 35  2  1  0
 35 16  1  0
 36 18  1  0
 36 28  1  0
 37 26  1  0
 38 16  1  0
 38 25  1  0
 39 23  1  0
 39 27  1  0
 39 31  1  0
 40 22  2  0
 41 17  1  0
 42  5  1  0
 42 19  1  0
 42 26  1  0
 42 40  1  0
 43 15  1  0
 43 34  1  0
 44 12  1  0
 45 14  1  0
 45 31  1  0
 45 41  1  0
 46 28  1  0
 47  4  1  0
 47 44  1  0
M  END
>  <ID>  (1) 
conformer_0

$$$$
