
     RDKit          3D

 42 43  0  0  0  0  0  0  0  0999 V2000
   -0.4896  -41.2352    2.9504 C   0  0  2  0  0  0  0  0  0  0  0  0
    6.8022  -36.4879   -0.7119 C   0  0  0  0  0  0  0  0  0  0  0  0
    3.9824  -40.7306   -0.8463 C   0  0  0  0  0  0  0  0  0  0  0  0
   -0.1290  -42.5540    4.1864 C   0  0  0  0  0  0  0  0  0  0  0  0
    2.2967  -37.9599    2.7696 C   0  0  0  0  0  0  0  0  0  0  0  0
    4.6835  -37.6410    5.6885 C   0  0  0  0  0  0  0  0  0  0  0  0
    5.2099  -36.3859    7.7707 C   0  0  2  0  0  0  0  0  0  0  0  0
    6.8622  -41.6775    3.5723 C   0  0  0  0  0  0  0  0  0  0  0  0
    3.4826  -41.8136   -1.1818 C   0  0  1  0  0  0  0  0  0  0  0  0
    8.3255  -38.8558    0.4400 C   0  0  0  0  0  0  0  0  0  0  0  0
    7.9074  -40.6507    1.3632 C   0  0  0  0  0  0  0  0  0  0  0  0
    4.5784  -43.1264   -0.0226 C   0  0  0  0  0  0  0  0  0  0  0  0
    0.3449  -43.3644    3.3116 C   0  0  0  0  0  0  0  0  0  0  0  0
    3.5836  -37.6110    2.4571 C   0  0  0  0  0  0  0  0  0  0  0  0
    8.3810  -41.9686    2.9477 C   0  0  1  0  0  0  0  0  0  0  0  0
    7.2747  -37.3826   -1.2435 C   0  0  0  0  0  0  0  0  0  0  0  0
    6.0607  -42.4241    1.6599 C   0  0  0  0  0  0  0  0  0  0  0  0
    6.5413  -34.7398    8.5322 C   0  0  0  0  0  0  0  0  0  0  0  0
    1.8220  -37.9276    3.5358 C   0  0  0  0  0  0  0  0  0  0  0  0
    9.2111  -40.1406   -0.4131 O   0  0  0  0  0  0  0  0  0  0  0  0
    0.0386  -40.4129    0.7396 C   0  0  0  0  0  0  0  0  0  0  0  0
    6.9568  -35.6025    2.6577 O   0  0  0  0  0  0  0  0  0  0  0  0
    0.5450  -39.9163    2.1914 C   0  0  2  0  0  0  0  0  0  0  0  0
    5.9218  -42.5011    1.3812 O   0  0  0  0  0  0  0  0  0  0  0  0
    6.0803  -34.8389    9.7445 O   0  0  0  0  0  0  0  0  0  0  0  0
    1.5664  -40.1385    4.2548 O   0  0  0  0  0  0  0  0  0  0  0  0
    7.9266  -36.9706    1.0841 C   0  0  2  0  0  0  0  0  0  0  0  0
    0.9302  -40.5584   -0.5528 C   0  0  0  0  0  0  0  0  0  0  0  0
    4.4468  -37.2872    3.8873 C   0  0  2  0  0  0  0  0  0  0  0  0
    6.1227  -36.7809    2.3376 C   0  0  0  0  0  0  0  0  0  0  0  0
    8.5119  -36.2105    0.0480 C   0  0  0  0  0  0  0  0  0  0  0  0
    0.7501  -40.2580    3.6411 C   0  0  0  0  0  0  0  0  0  0  0  0
    5.3495  -36.3135    5.7967 C   0  0  0  0  0  0  0  0  0  0  0  0
    8.5133  -42.0333    4.1951 C   0  0  0  0  0  0  0  0  0  0  0  0
    1.9993  -43.3926    3.7353 C   0  0  0  0  0  0  0  0  0  0  0  0
    9.4317  -39.0479    1.5350 O   0  0  0  0  0  0  0  0  0  0  0  0
    5.1503  -43.7281    0.0806 O   0  0  0  0  0  0  0  0  0  0  0  0
    5.1842  -35.6991   10.1323 C   0  0  0  0  0  0  0  0  0  0  0  0
    6.2291  -37.2359    2.1782 O   0  0  0  0  0  0  0  0  0  0  0  0
    4.1236  -37.4328    7.7084 C   0  0  0  0  0  0  0  0  0  0  0  0
    4.0711  -36.6786    9.2268 C   0  0  2  0  0  0  0  0  0  0  0  0
    2.0341  -40.8988   -1.1398 C   0  0  0  0  0  0  0  0  0  0  0  0
  1  4  1  6
  9  3  1  1
 11 10  1  0
 12  9  1  0
 13  4  1  0
 14  5  1  0
 15  8  1  0
 15 11  1  0
 16  2  1  0
 17  8  1  0
 19  5  2  3
 20 10  1  0
 23  1  1  0
 23 21  1  6
 24 12  1  0
 24 17  1  0
 25 18  1  0
 27 10  1  0
 28 21  1  0
 29  6  1  1
 29 14  1  0
 30 22  1  0
 30 27  1  0
 30 29  1  0
 31  2  1  0
 27 31  1  6
 32  1  1  0
 32 23  1  0
 32 26  2  0
 33  6  1  0
  7 33  1  6
 15 34  1  1
 35 13  1  0
 36 10  1  0
 37 12  2  0
 38 25  1  0
 39 30  1  0
 40  7  1  0
 41  7  1  0
 41 38  1  1
 41 40  1  0
 42  9  1  0
 42 28  1  0
M  END
>  <ID>  (1) 
conformer_0

$$$$
