
     RDKit          3D

 37 36  0  0  0  0  0  0  0  0999 V2000
   -0.1358  -40.4472    1.2111 C   0  0  1  0  0  0  0  0  0  0  0  0
    6.7994  -37.0159   -0.9756 C   0  0  0  0  0  0  0  0  0  0  0  0
    0.9657  -40.4441   -0.0146 C   0  0  0  0  0  0  0  0  0  0  0  0
    4.1118  -36.5279    8.5237 C   0  0  0  0  0  0  0  0  0  0  0  0
    4.3351  -37.3317    7.5463 C   0  0  0  0  0  0  0  0  0  0  0  0
    0.9269  -43.9456    3.7429 C   0  0  0  0  0  0  0  0  0  0  0  0
    7.6843  -42.2701    3.6229 C   0  0  0  0  0  0  0  0  0  0  0  0
    4.7660  -37.8634    5.5884 C   0  0  0  0  0  0  0  0  0  0  0  0
    5.4007  -42.9942    2.5697 C   0  0  0  0  0  0  0  0  0  0  0  0
    7.8151  -36.9222    1.3099 C   0  0  2  0  0  0  0  0  0  0  0  0
   -0.2906  -41.3335    3.1175 C   0  0  0  0  0  0  0  0  0  0  0  0
    4.5808  -37.5617    4.0931 C   0  0  2  0  0  0  0  0  0  0  0  0
    8.1785  -40.2122    1.1041 C   0  0  2  0  0  0  0  0  0  0  0  0
    0.2100  -43.0401    3.9346 C   0  0  0  0  0  0  0  0  0  0  0  0
    4.3864  -42.7818    0.0505 C   0  0  0  0  0  0  0  0  0  0  0  0
    5.4496  -35.6889    9.1720 C   0  0  0  0  0  0  0  0  0  0  0  0
    1.7397  -38.1884    3.4728 C   0  0  1  0  0  0  0  0  0  0  0  0
    6.3566  -35.9520    2.5558 O   0  0  0  0  0  0  0  0  0  0  0  0
    9.1990  -40.0718   -0.4253 O   0  0  0  0  0  0  0  0  0  0  0  0
    7.5629  -36.2257   -0.1597 C   0  0  0  0  0  0  0  0  0  0  0  0
    5.2463  -36.6135    3.1071 C   0  0  0  0  0  0  0  0  0  0  0  0
    9.5444  -38.0797    2.0727 O   0  0  0  0  0  0  0  0  0  0  0  0
    2.0348  -41.1854   -0.7319 C   0  0  0  0  0  0  0  0  0  0  0  0
    6.3647  -34.9925    9.3028 O   0  0  0  0  0  0  0  0  0  0  0  0
    4.5494  -43.3550    0.4890 O   0  0  0  0  0  0  0  0  0  0  0  0
    0.9299  -39.5566    1.9563 C   0  0  0  0  0  0  0  0  0  0  0  0
    3.1215  -37.5679    2.7357 C   0  0  0  0  0  0  0  0  0  0  0  0
    4.2220  -42.9665    3.1772 O   0  0  0  0  0  0  0  0  0  0  0  0
    8.5354  -41.9121    3.2253 C   0  0  0  0  0  0  0  0  0  0  0  0
    6.5563  -41.8521    1.6447 C   0  0  2  0  0  0  0  0  0  0  0  0
    8.0416  -38.7270    0.7994 N   0  0  0  0  0  0  0  0  0  0  0  0
    4.9968  -36.3908    6.4456 C   0  0  0  0  0  0  0  0  0  0  0  0
    7.0523  -34.2793    8.4827 C   0  0  0  0  0  0  0  0  0  0  0  0
    5.8735  -41.4767    0.4423 O   0  0  0  0  0  0  0  0  0  0  0  0
    8.0720  -38.5788    0.1845 C   0  0  0  0  0  0  0  0  0  0  0  0
    1.8523  -36.0905    3.6340 O   0  0  0  0  0  0  0  0  0  0  0  0
    3.4108  -40.9594   -0.9119 C   0  0  0  0  0  0  0  0  0  0  0  0
  1  3  1  6
  5  4  1  0
 11  1  1  0
 12  8  1  1
 14  6  2  3
 14 11  1  0
 16  4  1  0
 13 19  1  6
 20  2  1  0
 20 10  1  0
 21 12  1  0
 21 18  1  0
 10 22  1  6
 23  3  1  0
 24 16  1  0
 25 15  2  0
 26  1  1  0
 26 17  1  0
 27 12  1  0
 27 17  1  0
 28  9  1  0
 29  7  1  0
 30  7  1  6
 30  9  1  0
 30 13  1  0
 31 10  1  0
 31 13  1  0
 32  5  1  0
 32  8  1  0
 33 24  1  0
 34 15  1  0
 34 30  1  0
 35 31  1  0
 17 36  1  6
 37 15  1  0
 37 23  1  0
M  END
>  <ID>  (1) 
conformer_0

$$$$
