
     RDKit          3D

 50 58  0  0  0  0  0  0  0  0999 V2000
    1.5797  -40.6233    0.5910 C   0  0  0  0  0  0  0  0  0  0  0  0
    6.6986  -42.3018    4.5174 C   0  0  0  0  0  0  0  0  0  0  0  0
    3.4589  -40.6375   -1.1444 C   0  0  0  0  0  0  0  0  0  0  0  0
    4.7459  -36.6020    8.7940 C   0  0  0  0  0  0  0  0  0  0  0  0
    4.6380  -38.1584    7.1129 C   0  0  0  0  0  0  0  0  0  0  0  0
   -0.3261  -41.4977    3.9330 C   0  0  0  0  0  0  0  0  0  0  0  0
    6.4378  -37.5541   -1.2489 C   0  0  0  0  0  0  0  0  0  0  0  0
    0.4795  -39.8360    2.1750 C   0  0  0  0  0  0  0  0  0  0  0  0
    4.0869  -42.5758   -0.2852 C   0  0  0  0  0  0  0  0  0  0  0  0
    7.2831  -41.1149    1.5854 C   0  0  0  0  0  0  0  0  0  0  0  0
    8.7880  -39.9357    0.9558 C   0  0  0  0  0  0  0  0  0  0  0  0
   -0.0080  -40.7402    0.0943 C   0  0  0  0  0  0  0  0  0  0  0  0
    7.0552  -36.6042   -0.6795 C   0  0  0  0  0  0  0  0  0  0  0  0
    2.7757  -37.0143    2.6190 C   0  0  0  0  0  0  0  0  0  0  0  0
    2.0415  -37.9124    3.2703 C   0  0  0  0  0  0  0  0  0  0  0  0
    7.5306  -41.5796    2.8687 C   0  0  0  0  0  0  0  0  0  0  0  0
    5.6614  -35.6569    8.3941 C   0  0  0  0  0  0  0  0  0  0  0  0
   -0.1258  -43.0741    3.8685 C   0  0  0  0  0  0  0  0  0  0  0  0
    6.6400  -35.4576    2.7655 O   0  0  0  0  0  0  0  0  0  0  0  0
    2.5114  -38.4821    2.1534 C   0  0  0  0  0  0  0  0  0  0  0  0
    7.0787  -36.3523    1.7409 C   0  0  0  0  0  0  0  0  0  0  0  0
    5.7137  -42.9402    3.0375 C   0  0  0  0  0  0  0  0  0  0  0  0
    9.2092  -40.1064   -0.3520 O   0  0  0  0  0  0  0  0  0  0  0  0
    6.4574  -34.9284    9.2839 O   0  0  0  0  0  0  0  0  0  0  0  0
    1.5020  -39.5080    4.3200 O   0  0  0  0  0  0  0  0  0  0  0  0
    5.0218  -42.8772    2.9405 O   0  0  0  0  0  0  0  0  0  0  0  0
    5.4993  -36.6555    3.4684 C   0  0  0  0  0  0  0  0  0  0  0  0
    5.3902  -42.7224    0.8915 O   0  0  0  0  0  0  0  0  0  0  0  0
    1.2289  -43.4206    4.2529 C   0  0  0  0  0  0  0  0  0  0  0  0
    4.7000  -38.2008    5.3839 C   0  0  0  0  0  0  0  0  0  0  0  0
    0.5842  -36.8187    2.5774 O   0  0  0  0  0  0  0  0  0  0  0  0
    7.8579  -38.4722    0.8534 N   0  0  0  0  0  0  0  0  0  0  0  0
    8.3470  -35.9812    0.3035 C   0  0  0  0  0  0  0  0  0  0  0  0
   -0.4966  -41.0627    2.4292 C   0  0  0  0  0  0  0  0  0  0  0  0
    9.2081  -41.3402    3.3139 C   0  0  0  0  0  0  0  0  0  0  0  0
    7.1193  -38.6348    0.1997 C   0  0  0  0  0  0  0  0  0  0  0  0
    9.6291  -38.6777    1.8548 O   0  0  0  0  0  0  0  0  0  0  0  0
    6.4044  -40.7445    0.1864 O   0  0  0  0  0  0  0  0  0  0  0  0
    0.7492  -39.3622    3.6572 C   0  0  0  0  0  0  0  0  0  0  0  0
    4.2255  -36.7222    7.5464 C   0  0  0  0  0  0  0  0  0  0  0  0
    4.2818  -37.7053    3.9318 C   0  0  0  0  0  0  0  0  0  0  0  0
    5.0397  -42.1318    0.8726 C   0  0  0  0  0  0  0  0  0  0  0  0
    5.9242  -36.9092    2.3423 O   0  0  0  0  0  0  0  0  0  0  0  0
    6.8250  -35.4029    9.8455 C   0  0  0  0  0  0  0  0  0  0  0  0
    8.3644  -42.2218    4.4664 C   0  0  0  0  0  0  0  0  0  0  0  0
    2.7321  -42.0740   -0.8038 C   0  0  0  0  0  0  0  0  0  0  0  0
    8.5264  -37.2495    0.9943 C   0  0  0  0  0  0  0  0  0  0  0  0
    5.1850  -36.5856    5.1350 C   0  0  0  0  0  0  0  0  0  0  0  0
    5.4949  -36.0190    6.6380 C   0  0  0  0  0  0  0  0  0  0  0  0
    1.2304  -40.7679   -1.0808 C   0  0  0  0  0  0  0  0  0  0  0  0
  8  1  1  0
 11 10  1  0
 12  1  1  0
 13  7  1  0
 15 14  1  0
 16 10  1  0
 17  4  1  0
 18  6  1  0
 20 14  1  0
 20 15  1  0
 21 19  1  0
 22  2  1  0
 23 11  1  0
 24 17  1  0
 26 22  2  0
 27 19  1  0
 29 18  1  0
 30  5  1  0
 31 15  1  0
 32 11  1  0
 33 13  1  0
 34  6  1  0
 34  8  1  0
 35 16  1  0
 36  7  1  0
 36 32  1  0
 37 11  1  0
 38 10  1  0
 39  8  1  0
 39 15  1  0
 39 25  1  0
 40  4  1  0
 40  5  1  0
 41 14  1  0
 41 27  1  0
 41 30  1  0
 42  9  1  0
 42 28  1  0
 43 21  1  0
 43 27  1  0
 44 24  1  0
 45  2  1  0
 45 16  1  0
 45 35  1  0
 46  3  1  0
 46  9  1  0
 47 21  1  0
 47 32  1  0
 47 33  1  0
 48 27  1  0
 48 30  1  0
 48 41  1  0
 49 17  1  0
 49 40  1  0
 49 48  1  0
 50  1  1  0
 50 12  1  0
 50 46  1  0
M  END
>  <ID>  (1) 
conformer_0

$$$$
