
     RDKit          3D

 50 52  0  0  0  0  0  0  0  0999 V2000
   -0.5075  -41.0008    3.3577 C   0  0  0  0  0  0  0  0  0  0  0  0
    3.5841  -40.9233   -0.7456 C   0  0  0  0  0  0  0  0  0  0  0  0
    4.6478  -37.3696    4.0710 C   0  0  1  0  0  0  0  0  0  0  0  0
    3.4726  -37.3814    2.9174 C   0  0  0  0  0  0  0  0  0  0  0  0
    1.4873  -40.9819    0.2876 C   0  0  0  0  0  0  0  0  0  0  0  0
    7.1256  -37.4230   -1.3365 C   0  0  0  0  0  0  0  0  0  0  0  0
    2.4007  -37.7639    2.2687 C   0  0  0  0  0  0  0  0  0  0  0  0
    6.8038  -41.8129    3.7478 C   0  0  0  0  0  0  0  0  0  0  0  0
    4.2168  -43.3628   -0.3890 C   0  0  2  0  0  0  0  0  0  0  0  0
    5.9635  -42.4700    2.5950 C   0  0  0  0  0  0  0  0  0  0  0  0
   -0.3601  -42.3861    3.1382 C   0  0  0  0  0  0  0  0  0  0  0  0
    7.5200  -40.8225    1.4429 C   0  0  0  0  0  0  0  0  0  0  0  0
    4.0517  -36.9579    8.7428 C   0  0  0  0  0  0  0  0  0  0  0  0
    1.4039  -37.2928    3.6457 C   0  0  0  0  0  0  0  0  0  0  0  0
    6.4954  -34.9025    8.3675 C   0  0  0  0  0  0  0  0  0  0  0  0
    4.4158  -43.8484    1.7124 C   0  0  0  0  0  0  0  0  0  0  0  0
    0.2518  -42.6867    4.5155 C   0  0  0  0  0  0  0  0  0  0  0  0
    6.4913  -35.3602    2.8215 O   0  0  0  0  0  0  0  0  0  0  0  0
    6.7815  -36.3227   -0.5136 C   0  0  0  0  0  0  0  0  0  0  0  0
    9.4331  -40.1683   -0.1640 O   0  0  0  0  0  0  0  0  0  0  0  0
    5.7264  -35.7682    7.4882 C   0  0  0  0  0  0  0  0  0  0  0  0
    8.9357  -39.4893    0.7756 C   0  0  0  0  0  0  0  0  0  0  0  0
    4.5647  -44.3266    1.2206 O   0  0  0  0  0  0  0  0  0  0  0  0
    9.7171  -38.6402    1.9796 O   0  0  0  0  0  0  0  0  0  0  0  0
    8.7847  -41.8899    4.1264 C   0  0  0  0  0  0  0  0  0  0  0  0
    1.3965  -38.7915    4.0692 O   0  0  0  0  0  0  0  0  0  0  0  0
    8.7601  -37.2294    1.2023 C   0  0  1  0  0  0  0  0  0  0  0  0
    6.3757  -35.1873    9.7725 O   0  0  0  0  0  0  0  0  0  0  0  0
    5.7778  -42.0659    0.7248 O   0  0  0  0  0  0  0  0  0  0  0  0
    0.2324  -40.2090    2.0896 C   0  0  1  0  0  0  0  0  0  0  0  0
   -0.2835  -40.3883    0.4410 C   0  0  0  0  0  0  0  0  0  0  0  0
    4.4040  -37.3053    7.7150 C   0  0  0  0  0  0  0  0  0  0  0  0
    5.4468  -36.3623    3.1486 C   0  0  1  0  0  0  0  0  0  0  0  0
    7.2893  -38.5420    0.1044 C   0  0  1  0  0  0  0  0  0  0  0  0
    6.9216  -40.0678    0.3344 O   0  0  0  0  0  0  0  0  0  0  0  0
    4.9635  -43.0853    2.8654 O   0  0  0  0  0  0  0  0  0  0  0  0
    5.2494  -36.3606    5.7079 C   0  0  0  0  0  0  0  0  0  0  0  0
    8.0901  -38.4579    0.7967 N   0  0  0  0  0  0  0  0  0  0  0  0
    4.9517  -36.1305    9.7283 C   0  0  0  0  0  0  0  0  0  0  0  0
    0.9206  -39.1294    3.5841 C   0  0  0  0  0  0  0  0  0  0  0  0
    1.3924  -43.7477    3.8309 C   0  0  0  0  0  0  0  0  0  0  0  0
    8.1315  -36.1047    0.1718 C   0  0  2  0  0  0  0  0  0  0  0  0
    6.0786  -36.8080    1.9324 O   0  0  0  0  0  0  0  0  0  0  0  0
    5.1608  -41.8665    0.5829 C   0  0  0  0  0  0  0  0  0  0  0  0
    2.9806  -42.1158   -1.0988 C   0  0  0  0  0  0  0  0  0  0  0  0
    4.6297  -37.8192    5.8251 C   0  0  2  0  0  0  0  0  0  0  0  0
    8.1323  -41.7675    2.7765 C   0  0  1  0  0  0  0  0  0  0  0  0
    7.2347  -36.3060    1.5320 C   0  0  2  0  0  0  0  0  0  0  0  0
    7.2761  -35.4690   10.3305 C   0  0  0  0  0  0  0  0  0  0  0  0
    1.3654  -40.7622   -0.9619 C   0  0  0  0  0  0  0  0  0  0  0  0
  3  4  1  1
  7  4  1  0
 10  8  1  0
 11  1  1  0
 14  7  1  0
 17 11  1  0
 19  6  1  0
 21 15  2  3
 22 20  2  0
 23  9  1  0
 23 16  1  0
 24 22  1  0
 26 14  1  0
 28 15  1  0
 30  1  1  1
 31  5  1  0
 31 30  1  0
 32 13  1  0
 33  3  1  0
 33 18  1  1
 34  6  1  0
 35 12  1  0
 34 35  1  6
 36 10  1  0
 36 16  1  0
 37 21  1  0
 38 22  1  0
 27 38  1  6
 38 34  1  0
 39 13  1  0
 40 26  1  0
 40 30  1  0
 41 17  1  0
 42 19  1  6
 42 27  1  0
 43 33  1  0
  9 44  1  1
 44 29  1  0
 45  2  1  0
 45  9  1  0
 46  3  1  0
 46 32  1  1
 46 37  1  0
 47  8  1  0
 47 12  1  0
 47 25  1  1
 48 18  1  1
 48 27  1  0
 48 42  1  0
 48 43  1  0
 49 28  1  0
 50  5  1  0
M  END
>  <ID>  (1) 
conformer_0

$$$$
