
     RDKit          3D

 46 47  0  0  0  0  0  0  0  0999 V2000
    4.3088  -36.5281    8.7123 C   0  0  0  0  0  0  0  0  0  0  0  0
    0.9652  -40.5688   -0.5762 C   0  0  0  0  0  0  0  0  0  0  0  0
    7.1826  -41.7907    3.4657 C   0  0  0  0  0  0  0  0  0  0  0  0
    3.9092  -41.6788   -1.2619 C   0  0  0  0  0  0  0  0  0  0  0  0
    1.8671  -41.3124   -0.5500 C   0  0  0  0  0  0  0  0  0  0  0  0
    7.1564  -37.4254   -1.3035 C   0  0  0  0  0  0  0  0  0  0  0  0
    2.7166  -37.7212    2.9021 C   0  0  0  0  0  0  0  0  0  0  0  0
    5.2010  -43.0376    2.8378 C   0  0  0  0  0  0  0  0  0  0  0  0
    4.9083  -38.0378    6.0075 C   0  0  0  0  0  0  0  0  0  0  0  0
    3.3806  -40.6155   -1.0314 C   0  0  0  0  0  0  0  0  0  0  0  0
    7.8788  -36.6448    1.6768 C   0  0  0  0  0  0  0  0  0  0  0  0
    5.8462  -35.6994    7.5363 C   0  0  0  0  0  0  0  0  0  0  0  0
    8.7189  -39.3165    0.9240 C   0  0  0  0  0  0  0  0  0  0  0  0
    0.8521  -39.7474    2.2500 C   0  0  0  0  0  0  0  0  0  0  0  0
    5.4937  -36.3804    3.5860 C   0  0  0  0  0  0  0  0  0  0  0  0
   -0.2781  -41.3678    3.4635 C   0  0  0  0  0  0  0  0  0  0  0  0
    4.3852  -42.9723    0.2449 C   0  0  0  0  0  0  0  0  0  0  0  0
    6.8763  -34.6161    8.4880 C   0  0  0  0  0  0  0  0  0  0  0  0
    6.6423  -35.5534    3.0132 O   0  0  0  0  0  0  0  0  0  0  0  0
    2.8169  -37.5997    3.4650 C   0  0  0  0  0  0  0  0  0  0  0  0
    6.5379  -36.5689   -0.4884 C   0  0  0  0  0  0  0  0  0  0  0  0
    4.5797  -37.3121    7.6051 C   0  0  0  0  0  0  0  0  0  0  0  0
    6.3290  -40.9950    0.5844 O   0  0  0  0  0  0  0  0  0  0  0  0
    4.3824  -42.7793    3.3282 O   0  0  0  0  0  0  0  0  0  0  0  0
    9.7383  -38.8325    1.8557 O   0  0  0  0  0  0  0  0  0  0  0  0
    4.3897  -43.9863    1.0217 O   0  0  0  0  0  0  0  0  0  0  0  0
    6.1960  -34.5083    9.4546 O   0  0  0  0  0  0  0  0  0  0  0  0
    5.1557  -36.6757   10.8302 O   0  0  0  0  0  0  0  0  0  0  0  0
    8.4007  -41.8132    3.4712 C   0  0  0  0  0  0  0  0  0  0  0  0
   -0.2815  -42.8251    3.6968 C   0  0  0  0  0  0  0  0  0  0  0  0
    8.6611  -40.0303   -0.2809 O   0  0  0  0  0  0  0  0  0  0  0  0
    6.2585  -37.4782    2.0189 O   0  0  0  0  0  0  0  0  0  0  0  0
    5.6819  -42.2663    1.3038 C   0  0  0  0  0  0  0  0  0  0  0  0
    4.4818  -37.3052    4.0919 C   0  0  0  0  0  0  0  0  0  0  0  0
    7.9429  -38.3989    0.9412 N   0  0  0  0  0  0  0  0  0  0  0  0
    3.6015  -36.9810    1.9278 C   0  0  0  0  0  0  0  0  0  0  0  0
    2.5971  -41.2892    4.3938 O   0  0  0  0  0  0  0  0  0  0  0  0
    1.4056  -39.9107    3.4704 C   0  0  0  0  0  0  0  0  0  0  0  0
    0.9912  -43.1583    4.1150 C   0  0  0  0  0  0  0  0  0  0  0  0
    5.4588  -36.2691    6.0946 C   0  0  0  0  0  0  0  0  0  0  0  0
    5.1784  -35.7780    9.6486 C   0  0  0  0  0  0  0  0  0  0  0  0
    8.4192  -36.1751    0.2461 C   0  0  0  0  0  0  0  0  0  0  0  0
    7.2553  -37.9827    0.5005 C   0  0  0  0  0  0  0  0  0  0  0  0
    7.6769  -41.1464    1.6973 C   0  0  0  0  0  0  0  0  0  0  0  0
   -0.0854  -40.3534    0.6894 C   0  0  0  0  0  0  0  0  0  0  0  0
   -0.3480  -40.9833    2.0781 C   0  0  0  0  0  0  0  0  0  0  0  0
  5  2  1  0
 10  4  1  0
 10  5  1  0
 17  4  1  0
 18 12  1  0
 19 15  2  0
 20  7  1  0
 21  6  1  0
 22  1  1  0
 22  9  1  0
 24  8  2  0
 25 13  2  0
 26 17  2  0
 27 18  1  0
 29  3  1  0
 30 16  1  0
 31 13  1  0
 32 11  1  0
 33  8  1  0
 33 17  1  0
 33 23  1  0
 34  9  1  0
 34 15  2  0
 34 20  1  0
 35 13  1  0
 36  7  1  0
 36 21  1  0
 38  7  1  0
 38 14  1  0
 38 37  1  0
 39 30  1  0
 40  9  1  0
 40 12  1  0
 41  1  1  0
 41 27  1  0
 41 28  1  0
 42 11  1  0
 43 11  1  0
 43 21  1  0
 43 35  1  0
 44  3  1  0
 44 23  1  0
 45  2  1  0
 45 14  1  0
 46 14  1  0
 46 16  1  0
 46 45  1  0
M  END
>  <ID>  (1) 
conformer_0

$$$$
