
     RDKit          3D

 50 58  0  0  0  0  0  0  0  0999 V2000
    3.7118  -36.4848    8.6702 C   0  0  0  0  0  0  0  0  0  0  0  0
   -0.7180  -40.9160    0.6861 C   0  0  0  0  0  0  0  0  0  0  0  0
    5.2642  -36.1679    7.7784 C   0  0  0  0  0  0  0  0  0  0  0  0
    1.6595  -41.1473    0.3211 C   0  0  0  0  0  0  0  0  0  0  0  0
    3.1868  -42.3135   -0.9022 C   0  0  0  0  0  0  0  0  0  0  0  0
    6.6687  -37.5292   -1.3157 C   0  0  0  0  0  0  0  0  0  0  0  0
    7.3487  -42.3365    4.2551 C   0  0  0  0  0  0  0  0  0  0  0  0
    3.5559  -37.6488    3.0312 C   0  0  0  0  0  0  0  0  0  0  0  0
    8.6976  -37.1661    1.0831 C   0  0  0  0  0  0  0  0  0  0  0  0
   -0.3971  -41.0705    2.1928 C   0  0  0  0  0  0  0  0  0  0  0  0
    5.5984  -43.1248    1.0794 C   0  0  0  0  0  0  0  0  0  0  0  0
    7.5832  -41.1196    1.4874 C   0  0  0  0  0  0  0  0  0  0  0  0
    4.2664  -42.8612   -0.3102 C   0  0  0  0  0  0  0  0  0  0  0  0
    4.5511  -37.7299    5.8819 C   0  0  0  0  0  0  0  0  0  0  0  0
    6.9919  -34.7031    9.4895 C   0  0  0  0  0  0  0  0  0  0  0  0
    0.0926  -42.4044    4.3258 C   0  0  0  0  0  0  0  0  0  0  0  0
    2.2190  -37.7465    3.4360 C   0  0  0  0  0  0  0  0  0  0  0  0
    1.3112  -43.3541    3.5486 C   0  0  0  0  0  0  0  0  0  0  0  0
    9.4155  -40.0403   -0.3684 O   0  0  0  0  0  0  0  0  0  0  0  0
    5.2426  -36.5913    3.5098 C   0  0  0  0  0  0  0  0  0  0  0  0
    7.1306  -36.3810   -0.6778 C   0  0  0  0  0  0  0  0  0  0  0  0
    5.7145  -35.7032    2.9209 O   0  0  0  0  0  0  0  0  0  0  0  0
    1.3814  -38.9709    4.2958 O   0  0  0  0  0  0  0  0  0  0  0  0
    7.6749  -41.5446    2.5028 C   0  0  0  0  0  0  0  0  0  0  0  0
    5.2933  -43.6795   -0.3288 O   0  0  0  0  0  0  0  0  0  0  0  0
    2.5099  -37.6793    1.8991 C   0  0  0  0  0  0  0  0  0  0  0  0
    4.8113  -37.4751    4.2775 C   0  0  0  0  0  0  0  0  0  0  0  0
    6.3065  -35.0034    9.7562 O   0  0  0  0  0  0  0  0  0  0  0  0
    8.6409  -39.6555    0.9859 C   0  0  0  0  0  0  0  0  0  0  0  0
    5.6494  -42.8146    1.3612 O   0  0  0  0  0  0  0  0  0  0  0  0
    4.0508  -40.5454   -1.1813 C   0  0  0  0  0  0  0  0  0  0  0  0
    7.9236  -38.3176    0.7652 N   0  0  0  0  0  0  0  0  0  0  0  0
    0.7641  -39.3106    3.9381 C   0  0  0  0  0  0  0  0  0  0  0  0
   -0.7245  -42.6387    3.0030 C   0  0  0  0  0  0  0  0  0  0  0  0
    4.2344  -37.5548    7.6321 C   0  0  0  0  0  0  0  0  0  0  0  0
    7.2370  -38.3300   -0.1667 C   0  0  0  0  0  0  0  0  0  0  0  0
    4.8101  -41.9339    3.3730 O   0  0  0  0  0  0  0  0  0  0  0  0
    9.7979  -38.9247    1.6756 O   0  0  0  0  0  0  0  0  0  0  0  0
    5.3700  -35.5806    9.0524 C   0  0  0  0  0  0  0  0  0  0  0  0
    8.5129  -35.9737    0.3172 C   0  0  0  0  0  0  0  0  0  0  0  0
    7.3382  -36.3168    1.8436 C   0  0  0  0  0  0  0  0  0  0  0  0
    0.1927  -40.7720   -0.4671 C   0  0  0  0  0  0  0  0  0  0  0  0
    8.7361  -42.1122    3.7529 C   0  0  0  0  0  0  0  0  0  0  0  0
    5.1882  -36.4998    6.0361 C   0  0  0  0  0  0  0  0  0  0  0  0
    6.4153  -40.5040    0.5654 O   0  0  0  0  0  0  0  0  0  0  0  0
    6.4535  -42.6262    2.7141 C   0  0  0  0  0  0  0  0  0  0  0  0
    2.2274  -41.0829   -1.0923 C   0  0  0  0  0  0  0  0  0  0  0  0
    7.0114  -36.3727    2.2130 O   0  0  0  0  0  0  0  0  0  0  0  0
    0.9450  -39.8086    2.1613 C   0  0  0  0  0  0  0  0  0  0  0  0
   -0.5312  -40.7838    3.8955 C   0  0  0  0  0  0  0  0  0  0  0  0
  3  1  1  0
 10  2  1  0
 13  5  1  0
 17  8  1  0
 18 16  1  0
 21  6  1  0
 22 20  1  0
 23 17  1  0
 24  7  1  0
 24 12  1  0
 25 11  1  0
 25 13  1  0
 26  8  1  0
 26 17  1  0
 27  8  1  0
 27 14  1  0
 27 20  1  0
 28 15  1  0
 29 12  1  0
 29 19  1  0
 30 11  1  0
 32  9  1  0
 32 29  1  0
 33 23  1  0
 34 10  1  0
 34 16  1  0
 35  1  1  0
 35  3  1  0
 35 14  1  0
 36  6  1  0
 36 32  1  0
 38 29  1  0
 39  3  1  0
 39 28  1  0
 40  9  1  0
 40 21  1  0
 41  9  1  0
 42  2  1  0
 42  4  1  0
 43  7  1  0
 43 24  1  0
 44  3  1  0
 44 14  1  0
 45 12  1  0
 46  7  1  0
 46 24  1  0
 46 30  1  0
 46 37  1  0
 47  4  1  0
 47  5  1  0
 47 31  1  0
 48 22  1  0
 48 41  1  0
 49 10  1  0
 49 33  1  0
 50 10  1  0
 50 16  1  0
 50 33  1  0
M  END
>  <ID>  (1) 
conformer_0

$$$$
