
     RDKit          3D

 46 51  0  0  0  0  0  0  0  0999 V2000
    5.0326  -36.5756    5.4580 C   0  0  0  0  0  0  0  0  0  0  0  0
    6.8085  -42.1711    4.4451 C   0  0  1  0  0  0  0  0  0  0  0  0
    4.7193  -37.7126    4.6746 C   0  0  1  0  0  0  0  0  0  0  0  0
    7.2663  -37.6374   -1.4310 C   0  0  0  0  0  0  0  0  0  0  0  0
    0.0010  -41.5088    2.3853 C   0  0  1  0  0  0  0  0  0  0  0  0
   -0.4886  -42.4588    3.8187 C   0  0  0  0  0  0  0  0  0  0  0  0
    0.6090  -43.7846    3.0573 C   0  0  0  0  0  0  0  0  0  0  0  0
    1.0455  -43.1942    3.9872 C   0  0  0  0  0  0  0  0  0  0  0  0
    3.4148  -37.6323    3.2170 C   0  0  1  0  0  0  0  0  0  0  0  0
    7.2189  -36.3875    1.5705 C   0  0  2  0  0  0  0  0  0  0  0  0
    8.2224  -37.5682    0.7896 C   0  0  1  0  0  0  0  0  0  0  0  0
    8.5284  -39.5757    0.9673 C   0  0  0  0  0  0  0  0  0  0  0  0
   -0.0635  -40.3888    0.9037 C   0  0  0  0  0  0  0  0  0  0  0  0
   -0.1781  -40.5656    3.2226 C   0  0  0  0  0  0  0  0  0  0  0  0
    4.5981  -42.9321   -0.1915 C   0  0  0  0  0  0  0  0  0  0  0  0
    8.5963  -42.0833    4.3424 C   0  0  0  0  0  0  0  0  0  0  0  0
    6.9105  -36.6410   -0.7477 C   0  0  0  0  0  0  0  0  0  0  0  0
    5.0543  -36.0743    7.4307 C   0  0  1  0  0  0  0  0  0  0  0  0
    7.0618  -34.8015    9.2218 C   0  0  0  0  0  0  0  0  0  0  0  0
    4.9044  -36.6080    3.0662 C   0  0  2  0  0  0  0  0  0  0  0  0
    5.9867  -35.4707    9.7446 O   0  0  0  0  0  0  0  0  0  0  0  0
    6.1786  -35.6136    2.6604 O   0  0  0  0  0  0  0  0  0  0  0  0
    4.6323  -43.6182    1.1279 O   0  0  0  0  0  0  0  0  0  0  0  0
    9.5874  -39.8291    0.1375 O   0  0  0  0  0  0  0  0  0  0  0  0
    1.4379  -41.0350   -1.0118 C   0  0  0  0  0  0  0  0  0  0  0  0
    1.9151  -38.1740    3.5309 C   0  0  2  0  0  0  0  0  0  0  0  0
    7.2837  -40.8832    1.4027 C   0  0  1  0  0  0  0  0  0  0  0  0
    4.2953  -42.6643    3.5149 O   0  0  0  0  0  0  0  0  0  0  0  0
    3.9101  -36.9641    8.6287 C   0  0  2  0  0  0  0  0  0  0  0  0
    1.5284  -38.5574    4.1648 O   0  0  0  0  0  0  0  0  0  0  0  0
    3.3468  -41.9033   -1.1980 C   0  0  0  0  0  0  0  0  0  0  0  0
    6.8108  -41.6887    2.7321 C   0  0  2  0  0  0  0  0  0  0  0  0
    6.1616  -37.4205    1.6554 O   0  0  0  0  0  0  0  0  0  0  0  0
    5.4492  -42.8695    3.2580 C   0  0  1  0  0  0  0  0  0  0  0  0
    9.5958  -38.3888    1.8992 O   0  0  0  0  0  0  0  0  0  0  0  0
    5.3338  -36.1365    9.3341 C   0  0  1  0  0  0  0  0  0  0  0  0
    1.1508  -39.6054    2.2904 C   0  0  0  0  0  0  0  0  0  0  0  0
    3.0947  -37.0918    2.0360 C   0  0  0  0  0  0  0  0  0  0  0  0
    7.8358  -38.8930    0.9856 N   0  0  0  0  0  0  0  0  0  0  0  0
    8.1634  -35.9282    0.2017 C   0  0  1  0  0  0  0  0  0  0  0  0
    5.9132  -40.8813    0.8349 O   0  0  0  0  0  0  0  0  0  0  0  0
    5.8040  -42.3079    1.2703 C   0  0  0  0  0  0  0  0  0  0  0  0
    4.4166  -37.3618    6.9990 C   0  0  1  0  0  0  0  0  0  0  0  0
    1.0935  -40.6889   -0.0130 C   0  0  0  0  0  0  0  0  0  0  0  0
    3.4927  -40.7460   -1.0964 C   0  0  0  0  0  0  0  0  0  0  0  0
    8.6368  -41.5873    2.9664 C   0  0  0  0  0  0  0  0  0  0  0  0
  3  1  1  1
  5  6  1  6
  8  6  1  0
  8  7  1  0
  9  3  1  0
 11 10  1  0
 13  5  1  0
 14  5  1  0
  2 16  1  6
 17  4  1  0
 20  3  1  0
 20  9  1  0
 21 19  1  0
 22 10  1  0
 20 22  1  6
 23 15  1  0
 24 12  1  0
 26  9  1  0
 27 12  1  0
 29 18  1  0
 26 30  1  1
 31 15  1  0
 32  2  1  0
 32 27  1  0
 10 33  1  6
 34  2  1  0
 34 28  1  1
 34 32  1  0
 35 12  1  0
 18 36  1  1
 36 21  1  1
 29 36  1  1
 37 14  1  0
 37 26  1  0
  9 38  1  6
 11 39  1  6
 39 12  1  0
 40 10  1  0
 40 11  1  0
 40 17  1  6
 27 41  1  1
 42 23  1  0
 42 41  1  0
 43  1  1  6
 43 18  1  0
 43 29  1  0
 44 13  1  0
 44 25  2  3
 45 31  1  0
 46 16  1  0
 32 46  1  6
M  END
>  <ID>  (1) 
conformer_0

$$$$
