
     RDKit          3D

 49 51  0  0  0  0  0  0  0  0999 V2000
    3.7088  -36.1549    8.9018 C   0  0  0  0  0  0  0  0  0  0  0  0
    3.9319  -40.9766   -1.1304 C   0  0  0  0  0  0  0  0  0  0  0  0
    2.0770  -40.7759   -0.1767 C   0  0  0  0  0  0  0  0  0  0  0  0
    0.7935  -41.0748   -0.3329 C   0  0  0  0  0  0  0  0  0  0  0  0
    2.4646  -37.8596    2.5796 C   0  0  0  0  0  0  0  0  0  0  0  0
    7.2022  -37.5058   -1.3568 C   0  0  0  0  0  0  0  0  0  0  0  0
    6.8885  -41.6866    3.8807 C   0  0  0  0  0  0  0  0  0  0  0  0
    4.2027  -37.2919    8.0210 C   0  0  0  0  0  0  0  0  0  0  0  0
    5.3487  -43.0708    2.5902 C   0  0  0  0  0  0  0  0  0  0  0  0
   -0.2052  -40.5649    0.7044 C   0  0  0  0  0  0  0  0  0  0  0  0
    7.7020  -38.1503   -0.0176 C   0  0  0  0  0  0  0  0  0  0  0  0
    6.7941  -36.1784    1.6914 C   0  0  0  0  0  0  0  0  0  0  0  0
   -0.3481  -41.6027    4.1945 C   0  0  0  0  0  0  0  0  0  0  0  0
    4.7940  -37.8993    6.2188 C   0  0  0  0  0  0  0  0  0  0  0  0
    4.5451  -43.9826   -0.1563 C   0  0  0  0  0  0  0  0  0  0  0  0
    5.0270  -36.5454    3.3503 C   0  0  0  0  0  0  0  0  0  0  0  0
    6.7635  -34.6770    8.8343 C   0  0  0  0  0  0  0  0  0  0  0  0
    2.2236  -37.6643    3.3850 C   0  0  0  0  0  0  0  0  0  0  0  0
    9.4750  -40.0924   -0.4408 O   0  0  0  0  0  0  0  0  0  0  0  0
    6.4861  -35.2378    2.5545 O   0  0  0  0  0  0  0  0  0  0  0  0
    0.0098  -43.0772    4.0162 C   0  0  0  0  0  0  0  0  0  0  0  0
    6.7048  -36.3366   -0.6767 C   0  0  0  0  0  0  0  0  0  0  0  0
    8.7378  -41.9939    3.7047 C   0  0  0  0  0  0  0  0  0  0  0  0
    5.2173  -44.2414    0.8710 O   0  0  0  0  0  0  0  0  0  0  0  0
    1.4654  -43.6351    4.0698 C   0  0  0  0  0  0  0  0  0  0  0  0
    7.6864  -40.7858    1.3673 C   0  0  0  0  0  0  0  0  0  0  0  0
    4.4238  -42.4196    2.9876 O   0  0  0  0  0  0  0  0  0  0  0  0
    5.4004  -36.4522    5.8960 C   0  0  0  0  0  0  0  0  0  0  0  0
    5.5338  -42.4827    0.4219 O   0  0  0  0  0  0  0  0  0  0  0  0
    8.1586  -38.2527    0.6784 N   0  0  0  0  0  0  0  0  0  0  0  0
    5.9443  -34.8331    9.3278 O   0  0  0  0  0  0  0  0  0  0  0  0
    1.4375  -39.0683    3.8525 O   0  0  0  0  0  0  0  0  0  0  0  0
    4.5696  -37.4784    4.3120 C   0  0  0  0  0  0  0  0  0  0  0  0
    9.4273  -38.9488    1.8694 O   0  0  0  0  0  0  0  0  0  0  0  0
    9.0443  -39.5188    0.6903 C   0  0  0  0  0  0  0  0  0  0  0  0
   -0.2959  -41.1319    2.8626 C   0  0  0  0  0  0  0  0  0  0  0  0
    4.9765  -35.9137    7.4818 C   0  0  0  0  0  0  0  0  0  0  0  0
    5.0225  -35.4805    9.5055 C   0  0  0  0  0  0  0  0  0  0  0  0
    6.4010  -42.2103    1.8632 C   0  0  0  0  0  0  0  0  0  0  0  0
    8.7300  -36.6942    1.1399 C   0  0  0  0  0  0  0  0  0  0  0  0
    2.9509  -41.9832   -1.2263 C   0  0  0  0  0  0  0  0  0  0  0  0
    0.7884  -39.4196    3.2182 C   0  0  0  0  0  0  0  0  0  0  0  0
    6.6421  -40.3181    0.7355 O   0  0  0  0  0  0  0  0  0  0  0  0
    0.6995  -39.9496    1.8452 C   0  0  0  0  0  0  0  0  0  0  0  0
    8.1666  -35.9537    0.0932 C   0  0  0  0  0  0  0  0  0  0  0  0
    7.9313  -41.7436    2.4969 C   0  0  0  0  0  0  0  0  0  0  0  0
    6.2161  -36.8288    1.9605 O   0  0  0  0  0  0  0  0  0  0  0  0
    3.4821  -37.0656    2.2553 C   0  0  0  0  0  0  0  0  0  0  0  0
    4.7332  -42.0827    0.3107 C   0  0  0  0  0  0  0  0  0  0  0  0
  4  3  1  0
  8  1  1  0
 10  4  1  0
 11  6  1  0
 18  5  1  0
 20 12  1  0
 21 13  1  0
 22  6  1  0
 23  7  1  0
 24 15  1  0
 25 21  1  0
 27  9  1  0
 28 14  1  0
 30 11  1  0
 31 17  1  0
 32 18  1  0
 33 14  1  0
 33 16  1  0
 35 19  1  0
 35 26  1  0
 35 30  1  0
 35 34  1  0
 36 13  1  0
 37  1  1  0
 37  8  1  0
 37 28  1  0
 38  1  1  0
 38 31  1  0
 39  9  1  0
 39 29  1  0
 40 12  1  0
 40 30  1  0
 41  2  1  0
 41  3  1  0
 42 32  1  0
 43 26  1  0
 44 10  1  0
 44 36  1  0
 44 42  1  0
 45 22  1  0
 45 40  1  0
 46  7  1  0
 46 23  1  0
 46 26  1  0
 46 39  1  0
 47 12  1  0
 48  5  1  0
 48 16  1  0
 49  2  1  0
 49 15  1  0
 49 29  1  0
M  END
>  <ID>  (1) 
conformer_0

$$$$
