
     RDKit          3D

 48 50  0  0  0  0  0  0  0  0999 V2000
    7.4237  -42.0211    3.2660 C   0  0  0  0  0  0  0  0  0  0  0  0
    2.9094  -37.3555    2.4516 C   0  0  0  0  0  0  0  0  0  0  0  0
    1.3708  -40.6853   -0.7675 C   0  0  0  0  0  0  0  0  0  0  0  0
    2.8509  -41.3410   -0.5849 C   0  0  0  0  0  0  0  0  0  0  0  0
   -0.5883  -42.1581    3.4295 C   0  0  0  0  0  0  0  0  0  0  0  0
    6.4625  -36.7606   -0.7902 C   0  0  0  0  0  0  0  0  0  0  0  0
    3.7121  -36.7287    9.1892 C   0  0  0  0  0  0  0  0  0  0  0  0
    4.9429  -36.9324    8.7301 C   0  0  0  0  0  0  0  0  0  0  0  0
    5.0418  -42.2366    0.6846 C   0  0  0  0  0  0  0  0  0  0  0  0
    7.6083  -38.5587    0.2500 C   0  0  0  0  0  0  0  0  0  0  0  0
    4.2936  -42.8361   -0.4556 C   0  0  0  0  0  0  0  0  0  0  0  0
    0.4122  -43.1951    3.3987 C   0  0  0  0  0  0  0  0  0  0  0  0
    1.7177  -37.4883    3.6673 C   0  0  0  0  0  0  0  0  0  0  0  0
    8.8296  -39.9151    1.0824 C   0  0  0  0  0  0  0  0  0  0  0  0
    5.3616  -36.7738    5.4734 C   0  0  0  0  0  0  0  0  0  0  0  0
    3.8886  -40.6375   -1.3155 C   0  0  0  0  0  0  0  0  0  0  0  0
    6.9445  -34.7660    8.6485 C   0  0  0  0  0  0  0  0  0  0  0  0
    7.3258  -35.4183    2.4239 O   0  0  0  0  0  0  0  0  0  0  0  0
    9.1782  -40.3289   -0.4667 O   0  0  0  0  0  0  0  0  0  0  0  0
    7.3413  -37.6563   -1.3906 C   0  0  0  0  0  0  0  0  0  0  0  0
    5.6551  -43.4989    1.3903 O   0  0  0  0  0  0  0  0  0  0  0  0
    3.6316  -37.1341    1.5398 C   0  0  0  0  0  0  0  0  0  0  0  0
    8.7119  -42.0490    3.4319 C   0  0  0  0  0  0  0  0  0  0  0  0
    6.7862  -35.0403    9.1045 O   0  0  0  0  0  0  0  0  0  0  0  0
    1.1578  -43.3007    4.5970 C   0  0  0  0  0  0  0  0  0  0  0  0
    7.8727  -38.8704    0.9468 N   0  0  0  0  0  0  0  0  0  0  0  0
    7.1275  -41.0358    1.6718 C   0  0  0  0  0  0  0  0  0  0  0  0
    4.5339  -37.3285    4.2610 C   0  0  0  0  0  0  0  0  0  0  0  0
    4.6617  -42.2607    2.9796 O   0  0  0  0  0  0  0  0  0  0  0  0
   -0.4716  -40.5100    1.5139 C   0  0  0  0  0  0  0  0  0  0  0  0
    5.1344  -35.8568    9.7111 C   0  0  0  0  0  0  0  0  0  0  0  0
    6.4449  -36.5528    1.8084 C   0  0  0  0  0  0  0  0  0  0  0  0
    2.3804  -40.7255    3.8727 O   0  0  0  0  0  0  0  0  0  0  0  0
    4.1778  -37.5791    3.7986 C   0  0  0  0  0  0  0  0  0  0  0  0
    0.9719  -36.4380    3.3147 O   0  0  0  0  0  0  0  0  0  0  0  0
    6.3447  -41.1089    0.5470 O   0  0  0  0  0  0  0  0  0  0  0  0
    4.4365  -37.7050    6.9504 C   0  0  0  0  0  0  0  0  0  0  0  0
    6.1889  -36.8934    2.2807 O   0  0  0  0  0  0  0  0  0  0  0  0
    8.2469  -36.8812    1.0398 C   0  0  0  0  0  0  0  0  0  0  0  0
    5.7444  -42.2465    2.6200 C   0  0  0  0  0  0  0  0  0  0  0  0
    9.9072  -39.4186    1.2357 O   0  0  0  0  0  0  0  0  0  0  0  0
    0.0481  -40.8585    2.9404 C   0  0  0  0  0  0  0  0  0  0  0  0
    1.4886  -38.8003    2.3343 C   0  0  0  0  0  0  0  0  0  0  0  0
    8.1045  -36.2354   -0.2313 C   0  0  0  0  0  0  0  0  0  0  0  0
    1.3784  -39.7047    3.1954 C   0  0  0  0  0  0  0  0  0  0  0  0
    4.2660  -43.7914   -0.1210 O   0  0  0  0  0  0  0  0  0  0  0  0
    5.2147  -36.3845    7.0368 C   0  0  0  0  0  0  0  0  0  0  0  0
    0.7659  -40.5697    0.8481 C   0  0  0  0  0  0  0  0  0  0  0  0
  4  3  1  0
  8  7  1  0
 11  4  1  0
 11  9  1  0
 12  5  1  0
 13  2  1  0
 16  4  1  0
 19 14  1  0
 20  6  1  0
 20 10  1  0
 21  9  1  0
 22  2  1  0
 22  6  1  0
 23  1  1  0
 24 17  1  0
 25 12  1  0
 26 10  1  0
 26 14  1  0
 27  1  1  0
 28 15  2  0
 31  7  1  0
 31  8  1  0
 31 24  1  0
 32 18  1  0
 34  2  1  0
 34 28  2  0
 35 13  1  0
 36  9  1  0
 36 27  1  0
 38 32  1  0
 39 10  1  0
 39 32  1  0
 40  1  1  0
 40 21  1  0
 40 29  2  0
 41 14  1  0
 42  5  1  0
 42 30  1  0
 43 13  1  0
 44  6  1  0
 44 39  1  0
 45 33  1  0
 45 42  1  0
 45 43  1  0
 46 11  1  0
 47  8  1  0
 47 15  1  0
 47 37  1  0
 48  3  1  0
 48 30  1  0
M  END
>  <ID>  (1) 
conformer_0

$$$$
