
     RDKit          3D

 50 55  0  0  0  0  0  0  0  0999 V2000
    2.4971  -41.3346   -1.2761 C   0  0  0  0  0  0  0  0  0  0  0  0
    6.7638  -41.7369    3.0360 C   0  0  0  0  0  0  0  0  0  0  0  0
    4.4962  -37.8913    6.9296 C   0  0  0  0  0  0  0  0  0  0  0  0
    3.8746  -40.7519   -1.0032 C   0  0  0  0  0  0  0  0  0  0  0  0
    3.4513  -36.6783    8.5492 C   0  0  0  0  0  0  0  0  0  0  0  0
    2.3574  -37.3908    2.4274 C   0  0  0  0  0  0  0  0  0  0  0  0
    0.7575  -40.5086   -0.5819 C   0  0  0  0  0  0  0  0  0  0  0  0
    6.2740  -37.9315   -1.1784 C   0  0  0  0  0  0  0  0  0  0  0  0
    4.7374  -42.8082    0.9866 C   0  0  0  0  0  0  0  0  0  0  0  0
    7.1954  -38.5498    0.3731 C   0  0  0  0  0  0  0  0  0  0  0  0
    0.8588  -38.3012    3.4221 C   0  0  0  0  0  0  0  0  0  0  0  0
    0.8584  -39.9362    1.6278 C   0  0  0  0  0  0  0  0  0  0  0  0
    6.4686  -41.5784    1.5606 C   0  0  0  0  0  0  0  0  0  0  0  0
    4.4153  -37.6206    4.2728 C   0  0  0  0  0  0  0  0  0  0  0  0
    6.9034  -36.1456   -0.4395 C   0  0  0  0  0  0  0  0  0  0  0  0
    4.2205  -42.0956   -0.1908 C   0  0  0  0  0  0  0  0  0  0  0  0
   -0.2059  -40.6524    0.6826 C   0  0  0  0  0  0  0  0  0  0  0  0
    6.7566  -35.4721    2.8716 O   0  0  0  0  0  0  0  0  0  0  0  0
    7.2289  -34.4545    8.8898 C   0  0  0  0  0  0  0  0  0  0  0  0
    8.8052  -41.9061    3.8620 C   0  0  0  0  0  0  0  0  0  0  0  0
    1.6682  -40.3945    4.7505 O   0  0  0  0  0  0  0  0  0  0  0  0
    9.1259  -40.1337   -0.0638 O   0  0  0  0  0  0  0  0  0  0  0  0
    6.6063  -35.1876    9.1267 O   0  0  0  0  0  0  0  0  0  0  0  0
    9.8522  -38.5951    1.9541 O   0  0  0  0  0  0  0  0  0  0  0  0
    4.4448  -43.5653    0.0644 O   0  0  0  0  0  0  0  0  0  0  0  0
    8.8719  -37.6883    0.9934 C   0  0  0  0  0  0  0  0  0  0  0  0
   -0.0602  -40.6839    3.0102 C   0  0  0  0  0  0  0  0  0  0  0  0
    3.8957  -37.4555    2.6539 C   0  0  0  0  0  0  0  0  0  0  0  0
    8.0467  -38.6127    1.0172 N   0  0  0  0  0  0  0  0  0  0  0  0
    5.6003  -36.6429    3.2017 C   0  0  0  0  0  0  0  0  0  0  0  0
    0.8067  -40.3141    4.1624 C   0  0  0  0  0  0  0  0  0  0  0  0
    6.2222  -41.3122    0.5219 O   0  0  0  0  0  0  0  0  0  0  0  0
    5.0791  -43.1029    2.5047 O   0  0  0  0  0  0  0  0  0  0  0  0
    8.8638  -35.9518    0.5120 C   0  0  0  0  0  0  0  0  0  0  0  0
    1.1167  -43.2885    4.1328 C   0  0  0  0  0  0  0  0  0  0  0  0
    5.1172  -37.0844    5.2829 C   0  0  0  0  0  0  0  0  0  0  0  0
    4.7698  -36.5450    8.5188 C   0  0  0  0  0  0  0  0  0  0  0  0
    5.8189  -43.1176    2.9674 C   0  0  0  0  0  0  0  0  0  0  0  0
    6.4287  -37.1390    2.1345 O   0  0  0  0  0  0  0  0  0  0  0  0
    5.6062  -35.7616    9.2177 C   0  0  0  0  0  0  0  0  0  0  0  0
    2.1166  -40.9575    0.2026 C   0  0  0  0  0  0  0  0  0  0  0  0
    8.6187  -40.1745    1.3562 C   0  0  0  0  0  0  0  0  0  0  0  0
    8.2513  -41.3649    2.6526 C   0  0  0  0  0  0  0  0  0  0  0  0
    1.3754  -38.5335    4.3904 O   0  0  0  0  0  0  0  0  0  0  0  0
   -0.2262  -42.2340    2.8056 C   0  0  0  0  0  0  0  0  0  0  0  0
   -0.1506  -42.2627    4.3389 C   0  0  0  0  0  0  0  0  0  0  0  0
    5.0795  -36.3922    6.8663 C   0  0  0  0  0  0  0  0  0  0  0  0
    7.4970  -36.4082    1.4805 C   0  0  0  0  0  0  0  0  0  0  0  0
    7.8050  -37.3904   -1.1056 C   0  0  0  0  0  0  0  0  0  0  0  0
    2.5072  -37.6258    3.7011 C   0  0  0  0  0  0  0  0  0  0  0  0
  4  1  1  0
 10  8  1  0
 13  2  1  0
 16  4  1  0
 16  9  1  0
 17  7  1  0
 17 12  1  0
 23 19  1  0
 25  9  1  0
 25 16  1  0
 26 24  1  0
 27 12  1  0
 28  6  1  0
 28 14  1  0
 29 10  1  0
 29 26  1  0
 30 14  1  0
 30 18  1  0
 30 28  1  0
 31 21  2  0
 31 27  1  0
 32 13  1  0
 33  9  1  0
 34 26  1  0
 36  3  1  0
 36 14  1  0
 37  5  1  0
 38  2  1  0
 38 33  1  0
 39 30  1  0
 40 23  1  0
 40 37  1  0
 41  1  1  0
 41  7  1  0
 42 22  2  0
 42 29  1  0
 43  2  1  0
 43 20  1  0
 43 42  1  0
 44 11  1  0
 45 27  1  0
 46 35  1  0
 46 45  1  0
 47  3  1  0
 47 36  1  0
 47 37  1  0
 48 18  1  0
 48 26  1  0
 48 34  1  0
 48 39  1  0
 49  8  1  0
 49 15  1  0
 50  6  1  0
 50 28  1  0
 50 44  1  0
M  END
>  <ID>  (1) 
conformer_0

$$$$
