
     RDKit          3D

 46 50  0  0  0  0  0  0  0  0999 V2000
    0.6378  -40.2712    0.8540 C   0  0  0  0  0  0  0  0  0  0  0  0
    1.1391  -40.6587   -0.3549 C   0  0  0  0  0  0  0  0  0  0  0  0
    4.4728  -37.7811    4.7164 C   0  0  0  0  0  0  0  0  0  0  0  0
    2.5195  -41.0292   -0.8910 C   0  0  0  0  0  0  0  0  0  0  0  0
    6.3221  -37.3753   -1.0591 C   0  0  0  0  0  0  0  0  0  0  0  0
    6.7237  -41.7823    3.1320 C   0  0  2  0  0  0  0  0  0  0  0  0
    2.2752  -37.5091    2.3226 C   0  0  0  0  0  0  0  0  0  0  0  0
    3.6019  -37.2757    2.7624 C   0  0  0  0  0  0  0  0  0  0  0  0
    3.9507  -43.5384   -0.0370 C   0  0  1  0  0  0  0  0  0  0  0  0
   -0.3690  -41.5986    3.2637 C   0  0  0  0  0  0  0  0  0  0  0  0
    7.6929  -40.8297    1.7024 C   0  0  0  0  0  0  0  0  0  0  0  0
    7.2062  -38.5838    0.2307 C   0  0  0  0  0  0  0  0  0  0  0  0
    7.9931  -42.2583    3.5418 C   0  0  0  0  0  0  0  0  0  0  0  0
    0.1502  -40.4728    2.1740 C   0  0  0  0  0  0  0  0  0  0  0  0
    7.6825  -37.2431   -1.0705 C   0  0  2  0  0  0  0  0  0  0  0  0
    4.2580  -43.0503    2.7047 C   0  0  0  0  0  0  0  0  0  0  0  0
    4.4160  -36.5913    8.6768 C   0  0  2  0  0  0  0  0  0  0  0  0
    6.4671  -36.4639    2.1071 C   0  0  1  0  0  0  0  0  0  0  0  0
    1.8139  -37.6714    3.4209 C   0  0  0  0  0  0  0  0  0  0  0  0
    6.9794  -34.2013    9.1205 C   0  0  0  0  0  0  0  0  0  0  0  0
    9.3370  -40.1640   -0.2506 O   0  0  0  0  0  0  0  0  0  0  0  0
    1.3389  -39.1382    3.9405 O   0  0  0  0  0  0  0  0  0  0  0  0
    5.9661  -36.5720    2.6461 O   0  0  0  0  0  0  0  0  0  0  0  0
    4.8456  -36.8007    3.6801 C   0  0  2  0  0  0  0  0  0  0  0  0
    0.1628  -42.8248    3.8252 C   0  0  0  0  0  0  0  0  0  0  0  0
    6.0141  -41.7388    0.8347 O   0  0  0  0  0  0  0  0  0  0  0  0
    5.9142  -34.7284    9.6945 O   0  0  0  0  0  0  0  0  0  0  0  0
    4.1919  -42.7129    3.5738 O   0  0  0  0  0  0  0  0  0  0  0  0
    7.8546  -38.5297    0.9075 N   0  0  0  0  0  0  0  0  0  0  0  0
    4.3924  -37.3499    7.1708 C   0  0  1  0  0  0  0  0  0  0  0  0
    3.6531  -43.8114    1.5395 O   0  0  0  0  0  0  0  0  0  0  0  0
    1.0724  -43.6998    3.8563 C   0  0  0  0  0  0  0  0  0  0  0  0
    4.6670  -42.0449    0.0168 C   0  0  1  0  0  0  0  0  0  0  0  0
    5.0838  -36.8434    5.5472 C   0  0  2  0  0  0  0  0  0  0  0  0
    9.0343  -41.7780    3.7443 C   0  0  0  0  0  0  0  0  0  0  0  0
    5.2513  -35.9245    7.0650 C   0  0  1  0  0  0  0  0  0  0  0  0
    0.7563  -39.6855    3.2896 C   0  0  0  0  0  0  0  0  0  0  0  0
    5.2756  -35.5994    9.4849 C   0  0  0  0  0  0  0  0  0  0  0  0
    9.7078  -39.3112    1.7117 O   0  0  0  0  0  0  0  0  0  0  0  0
    7.2156  -36.1905   -0.2133 C   0  0  2  0  0  0  0  0  0  0  0  0
    3.6186  -41.1651   -1.1575 C   0  0  0  0  0  0  0  0  0  0  0  0
    5.8627  -42.0015    2.0451 C   0  0  0  0  0  0  0  0  0  0  0  0
    7.3519  -35.3934    2.3698 O   0  0  0  0  0  0  0  0  0  0  0  0
    5.1416  -43.5514    0.0329 O   0  0  0  0  0  0  0  0  0  0  0  0
    8.2303  -36.8948    1.1406 C   0  0  1  0  0  0  0  0  0  0  0  0
    8.9511  -39.4450    0.5916 C   0  0  0  0  0  0  0  0  0  0  0  0
  2  1  2  0
  4  2  2  0
  8  7  1  0
  6 11  1  6
 13  6  1  0
 14  1  2  0
 14 10  1  0
 15  5  1  6
 15 12  1  0
 19  7  1  0
 22 19  1  0
 23 18  1  0
 24  3  1  0
 24  8  1  1
 24 23  1  0
 25 10  1  0
 27 20  1  0
 28 16  2  0
 29 12  1  0
 30 17  1  6
 31  9  1  0
 31 16  1  0
 32 25  2  3
 33  9  1  0
 33 26  1  6
 34  3  1  6
 34 24  1  0
 34 30  1  0
 35 13  2  3
 36 17  1  6
 36 30  1  0
 36 34  1  0
 37 14  1  0
 37 22  1  0
 17 38  1  1
 38 27  1  0
 40  5  1  1
 40 15  1  0
 41  4  2  0
 41 33  1  0
 42  6  1  0
 42 26  1  0
 18 43  1  1
  9 44  1  1
 45 18  1  0
 45 29  1  6
 45 40  1  0
 46 21  2  0
 46 29  1  0
 46 39  1  0
M  END
>  <ID>  (1) 
conformer_0

$$$$
