
     RDKit          3D

 41 44  0  0  0  0  0  0  0  0999 V2000
    7.1424  -42.2506    4.2622 C   0  0  0  0  0  0  0  0  0  0  0  0
    5.2921  -36.9113    5.5284 C   0  0  0  0  0  0  0  0  0  0  0  0
    4.6564  -37.6476    7.5159 C   0  0  0  0  0  0  0  0  0  0  0  0
    3.8211  -40.3100   -1.4301 C   0  0  0  0  0  0  0  0  0  0  0  0
   -0.6413  -40.6756    1.6467 C   0  0  0  0  0  0  0  0  0  0  0  0
    2.3250  -37.7606    2.1461 C   0  0  0  0  0  0  0  0  0  0  0  0
    6.7697  -36.3742   -0.7580 C   0  0  0  0  0  0  0  0  0  0  0  0
   -0.4676  -40.9027    2.9274 C   0  0  0  0  0  0  0  0  0  0  0  0
    8.4926  -39.2766    0.5677 C   0  0  0  0  0  0  0  0  0  0  0  0
    2.1044  -40.8133   -0.8046 C   0  0  0  0  0  0  0  0  0  0  0  0
    5.5750  -42.5612    2.8018 C   0  0  0  0  0  0  0  0  0  0  0  0
    8.3668  -37.5034    0.7482 C   0  0  0  0  0  0  0  0  0  0  0  0
    6.4292  -35.4081    9.3952 C   0  0  0  0  0  0  0  0  0  0  0  0
    4.6079  -37.6398    4.1451 C   0  0  0  0  0  0  0  0  0  0  0  0
   -0.1490  -42.5097    3.5528 C   0  0  0  0  0  0  0  0  0  0  0  0
    0.4810  -39.6697    3.3649 C   0  0  0  0  0  0  0  0  0  0  0  0
    4.5233  -42.8770   -0.2681 C   0  0  0  0  0  0  0  0  0  0  0  0
    6.5099  -35.8999    2.2926 O   0  0  0  0  0  0  0  0  0  0  0  0
    9.3611  -40.1393   -0.2600 O   0  0  0  0  0  0  0  0  0  0  0  0
    8.7674  -42.0307    3.7911 C   0  0  0  0  0  0  0  0  0  0  0  0
    7.0529  -37.5248   -1.3400 C   0  0  0  0  0  0  0  0  0  0  0  0
    1.2689  -39.0668    3.9127 O   0  0  0  0  0  0  0  0  0  0  0  0
    5.5845  -43.0517    0.8420 O   0  0  0  0  0  0  0  0  0  0  0  0
    7.5884  -36.2158    1.6249 C   0  0  0  0  0  0  0  0  0  0  0  0
    6.5918  -40.5759    0.2564 O   0  0  0  0  0  0  0  0  0  0  0  0
    5.4376  -36.5348    3.4072 C   0  0  0  0  0  0  0  0  0  0  0  0
    3.4384  -37.5042    2.4245 C   0  0  0  0  0  0  0  0  0  0  0  0
    5.7308  -34.9094    9.7409 O   0  0  0  0  0  0  0  0  0  0  0  0
    0.6249  -40.7618    0.2317 C   0  0  0  0  0  0  0  0  0  0  0  0
    4.0455  -37.0811    9.0225 C   0  0  0  0  0  0  0  0  0  0  0  0
    1.0088  -43.6224    3.7654 C   0  0  0  0  0  0  0  0  0  0  0  0
    1.9623  -37.9083    3.5217 C   0  0  0  0  0  0  0  0  0  0  0  0
    8.0401  -38.4688    0.8069 N   0  0  0  0  0  0  0  0  0  0  0  0
    4.7872  -42.4317    2.8070 O   0  0  0  0  0  0  0  0  0  0  0  0
    4.8043  -36.1750   10.1498 C   0  0  0  0  0  0  0  0  0  0  0  0
    5.4431  -36.3289    7.2464 C   0  0  0  0  0  0  0  0  0  0  0  0
    7.7415  -40.7177    1.4862 C   0  0  0  0  0  0  0  0  0  0  0  0
    5.4864  -41.5563    0.7566 C   0  0  0  0  0  0  0  0  0  0  0  0
    8.3250  -36.2130   -0.1256 C   0  0  0  0  0  0  0  0  0  0  0  0
    7.8872  -41.5685    2.7139 C   0  0  0  0  0  0  0  0  0  0  0  0
    3.3394  -41.7774   -1.0243 C   0  0  0  0  0  0  0  0  0  0  0  0
  8  5  1  0
 10  4  1  0
 11  1  1  0
 14  2  1  0
 15  8  1  0
 16  8  1  0
 19  9  2  0
 20  1  1  0
 21  7  1  0
 22 16  1  0
 23 17  1  0
 24 12  1  0
 24 18  1  0
 26 14  1  0
 26 18  1  0
 27  6  1  0
 28 13  1  0
 29  5  2  0
 29 10  2  0
 30  3  1  0
 31 15  1  0
 32  6  1  0
 32 22  1  0
 33  9  1  0
 33 12  1  0
 34 11  2  0
 35 28  1  0
 35 30  1  0
 36  2  1  0
 36  3  1  0
 37  9  1  0
 37 25  1  0
 38 17  1  0
 38 23  1  0
 38 25  1  0
 39  7  1  0
 39 12  1  0
 39 24  1  0
 40  1  1  0
 40 20  1  0
 40 37  1  0
 41  4  1  0
 41 10  1  0
 41 17  1  0
M  END
>  <ID>  (1) 
conformer_0

$$$$
