
     RDKit          3D

 46 49  0  0  0  0  0  0  0  0999 V2000
    7.9234  -41.6162    2.5648 C   0  0  0  0  0  0  0  0  0  0  0  0
    3.7642  -40.4170   -1.1752 C   0  0  0  0  0  0  0  0  0  0  0  0
    3.8286  -37.3566    3.4616 C   0  0  1  0  0  0  0  0  0  0  0  0
    4.0161  -37.0330    8.7174 C   0  0  0  0  0  0  0  0  0  0  0  0
    0.6079  -40.0129    1.9536 C   0  0  2  0  0  0  0  0  0  0  0  0
   -0.2134  -40.6139    0.9180 C   0  0  0  0  0  0  0  0  0  0  0  0
    6.7927  -37.2104   -1.1121 C   0  0  0  0  0  0  0  0  0  0  0  0
    2.6137  -37.7164    2.4741 C   0  0  0  0  0  0  0  0  0  0  0  0
    4.8861  -42.1261    0.7566 C   0  0  0  0  0  0  0  0  0  0  0  0
    8.8163  -36.8910    1.2824 C   0  0  0  0  0  0  0  0  0  0  0  0
    1.0852  -40.1848   -0.4158 C   0  0  0  0  0  0  0  0  0  0  0  0
    7.3193  -38.3058    0.0000 C   0  0  0  0  0  0  0  0  0  0  0  0
    2.2241  -41.0465   -0.6593 C   0  0  0  0  0  0  0  0  0  0  0  0
    5.1972  -36.6461    5.5764 C   0  0  0  0  0  0  0  0  0  0  0  0
    6.3553  -34.7394    8.8854 C   0  0  0  0  0  0  0  0  0  0  0  0
    1.9190  -37.9143    3.5987 C   0  0  0  0  0  0  0  0  0  0  0  0
    4.4314  -43.3200   -0.2625 C   0  0  2  0  0  0  0  0  0  0  0  0
    6.6510  -35.5293    2.6808 O   0  0  0  0  0  0  0  0  0  0  0  0
    8.8183  -42.0539    3.6626 C   0  0  0  0  0  0  0  0  0  0  0  0
    8.7327  -40.0525   -0.3732 O   0  0  0  0  0  0  0  0  0  0  0  0
    4.5833  -42.5006    2.8918 O   0  0  0  0  0  0  0  0  0  0  0  0
    1.0786  -38.9811    4.1009 O   0  0  0  0  0  0  0  0  0  0  0  0
    7.2123  -41.1903    1.4940 C   0  0  0  0  0  0  0  0  0  0  0  0
    7.2889  -36.1128   -0.4454 C   0  0  0  0  0  0  0  0  0  0  0  0
    5.4655  -36.0993    7.4606 C   0  0  0  0  0  0  0  0  0  0  0  0
    5.2341  -43.6710    0.4995 O   0  0  0  0  0  0  0  0  0  0  0  0
   -0.5701  -40.9345    3.0511 C   0  0  2  0  0  0  0  0  0  0  0  0
    5.5094  -34.6689    9.4307 O   0  0  0  0  0  0  0  0  0  0  0  0
    7.2715  -36.4596    1.3041 C   0  0  1  0  0  0  0  0  0  0  0  0
    6.1589  -40.9552    0.8855 O   0  0  0  0  0  0  0  0  0  0  0  0
    4.5663  -35.8898    9.8310 C   0  0  0  0  0  0  0  0  0  0  0  0
    9.3246  -38.9235    1.6525 O   0  0  0  0  0  0  0  0  0  0  0  0
    0.1016  -42.9522    4.2370 C   0  0  0  0  0  0  0  0  0  0  0  0
    7.9598  -38.1370    0.8078 N   0  0  0  0  0  0  0  0  0  0  0  0
    6.9993  -42.1383    3.6589 C   0  0  2  0  0  0  0  0  0  0  0  0
    4.6256  -37.6695    7.1899 C   0  0  0  0  0  0  0  0  0  0  0  0
    5.3136  -42.3826    2.9153 C   0  0  2  0  0  0  0  0  0  0  0  0
    4.7107  -37.5467    4.7647 C   0  0  0  0  0  0  0  0  0  0  0  0
    5.7038  -36.8259    1.8445 O   0  0  0  0  0  0  0  0  0  0  0  0
    0.7177  -39.7870    3.7262 C   0  0  1  0  0  0  0  0  0  0  0  0
    5.1774  -40.6381    5.2169 C   0  0  0  0  0  0  0  0  0  0  0  0
    5.3458  -36.5902    2.7957 C   0  0  2  0  0  0  0  0  0  0  0  0
    8.6234  -39.6004    0.8590 C   0  0  0  0  0  0  0  0  0  0  0  0
    4.0197  -41.7611   -1.4973 C   0  0  0  0  0  0  0  0  0  0  0  0
   -0.3374  -42.3352    2.8267 C   0  0  0  0  0  0  0  0  0  0  0  0
    1.2958  -43.7461    4.1263 C   0  0  0  0  0  0  0  0  0  0  0  0
  5  6  1  6
  3  8  1  6
 11  6  1  0
 12  7  1  0
 13  2  1  0
 13 11  1  0
 16  8  1  0
 17  9  1  0
 19  1  1  0
 22 16  1  0
 23  1  2  3
 24  7  1  0
 25 14  1  0
 17 26  1  6
 27  5  1  0
 28 15  1  0
 29 10  1  1
 29 18  1  0
 29 24  1  0
 30  9  1  0
 30 23  1  0
 31  4  1  0
 31 28  1  0
 34 10  1  0
 34 12  1  0
 35  1  1  0
 35 19  1  6
 36  4  1  0
 36 25  1  0
 37 21  1  0
 37 35  1  0
 38  3  1  0
 38 14  1  0
 39 29  1  0
 40  5  1  0
 40 22  1  6
 40 27  1  0
 37 41  1  1
 42  3  1  0
 42 18  1  6
 42 39  1  0
 43 20  1  0
 43 32  1  0
 43 34  1  0
 44  2  1  0
 44 17  1  0
 27 45  1  1
 45 33  1  0
 46 33  1  0
M  END
>  <ID>  (1) 
conformer_0

$$$$
