
     RDKit          3D

 42 43  0  0  0  0  0  0  0  0999 V2000
    6.7357  -41.8942    3.7232 C   0  0  0  0  0  0  0  0  0  0  0  0
    4.7970  -36.4613    7.5616 C   0  0  0  0  0  0  0  0  0  0  0  0
    4.2633  -37.5619    6.7253 C   0  0  0  0  0  0  0  0  0  0  0  0
    0.5441  -39.5716    2.6070 C   0  0  0  0  0  0  0  0  0  0  0  0
    1.2881  -40.6026   -0.4515 C   0  0  0  0  0  0  0  0  0  0  0  0
    7.9155  -36.2872   -0.3375 C   0  0  0  0  0  0  0  0  0  0  0  0
    3.5355  -40.8864   -0.9778 C   0  0  0  0  0  0  0  0  0  0  0  0
    2.3971  -37.7125    3.2198 C   0  0  0  0  0  0  0  0  0  0  0  0
    8.2899  -36.7979    1.3624 C   0  0  0  0  0  0  0  0  0  0  0  0
    2.4296  -41.6204   -1.1673 C   0  0  0  0  0  0  0  0  0  0  0  0
    8.3815  -40.0051    1.1327 C   0  0  0  0  0  0  0  0  0  0  0  0
    4.9264  -42.7401    1.0242 C   0  0  0  0  0  0  0  0  0  0  0  0
    4.8850  -37.1923    5.3367 C   0  0  0  0  0  0  0  0  0  0  0  0
    3.9959  -42.9569   -0.5292 C   0  0  0  0  0  0  0  0  0  0  0  0
   -0.5559  -41.5366    3.7889 C   0  0  0  0  0  0  0  0  0  0  0  0
    6.0791  -35.5103    9.3605 C   0  0  0  0  0  0  0  0  0  0  0  0
    2.1318  -37.5119    3.6170 C   0  0  0  0  0  0  0  0  0  0  0  0
    6.4914  -35.3298    2.8903 O   0  0  0  0  0  0  0  0  0  0  0  0
    7.1134  -41.6022    1.7194 C   0  0  0  0  0  0  0  0  0  0  0  0
    6.3560  -35.0680    9.8583 O   0  0  0  0  0  0  0  0  0  0  0  0
    9.7421  -38.7603    1.7898 O   0  0  0  0  0  0  0  0  0  0  0  0
    8.5368  -41.6395    3.1424 C   0  0  0  0  0  0  0  0  0  0  0  0
    0.1441  -42.9720    3.7573 C   0  0  0  0  0  0  0  0  0  0  0  0
    4.3319  -42.5966    3.7287 O   0  0  0  0  0  0  0  0  0  0  0  0
    6.0625  -36.5037    2.2202 C   0  0  0  0  0  0  0  0  0  0  0  0
    6.1481  -36.8208   -0.5623 C   0  0  0  0  0  0  0  0  0  0  0  0
    4.1625  -36.7958    8.7168 C   0  0  0  0  0  0  0  0  0  0  0  0
    4.3938  -43.5813    1.9341 O   0  0  0  0  0  0  0  0  0  0  0  0
    4.4779  -37.6232    4.2387 C   0  0  0  0  0  0  0  0  0  0  0  0
    1.5605  -43.3955    3.9855 C   0  0  0  0  0  0  0  0  0  0  0  0
    6.9644  -40.3635    0.4327 O   0  0  0  0  0  0  0  0  0  0  0  0
    7.9439  -38.4148    0.9592 N   0  0  0  0  0  0  0  0  0  0  0  0
    7.8045  -38.2775    0.3317 C   0  0  0  0  0  0  0  0  0  0  0  0
   -0.6331  -40.9304    2.5398 C   0  0  0  0  0  0  0  0  0  0  0  0
    0.3526  -40.3680    0.6725 C   0  0  0  0  0  0  0  0  0  0  0  0
    3.6084  -37.2728    2.2206 C   0  0  0  0  0  0  0  0  0  0  0  0
    0.7077  -39.3468    3.5343 C   0  0  0  0  0  0  0  0  0  0  0  0
    7.4199  -37.6576   -1.3184 C   0  0  0  0  0  0  0  0  0  0  0  0
    5.0069  -42.8712    3.1554 C   0  0  0  0  0  0  0  0  0  0  0  0
    5.5081  -42.5306    0.2021 O   0  0  0  0  0  0  0  0  0  0  0  0
    6.2193  -36.8210    2.0504 O   0  0  0  0  0  0  0  0  0  0  0  0
    8.3542  -42.3211    4.3239 C   0  0  0  0  0  0  0  0  0  0  0  0
  3  2  1  0
  9  6  1  0
 10  5  1  0
 10  7  1  0
 13  3  1  0
 14 10  1  0
 14 12  1  0
 17  8  1  0
 20 16  2  0
 21 11  1  0
 22 19  1  0
 23 15  1  0
 25  9  1  0
 25 18  1  0
 26  6  1  0
 27  2  1  0
 27 16  1  0
 28 12  1  0
 29 13  1  0
 30 23  1  0
 31 11  1  0
 31 19  1  0
 32  9  1  0
 32 11  1  0
 33 32  1  0
 34  4  1  0
 34 15  1  0
 35  4  1  0
 35  5  1  0
 36  8  1  0
 36 29  1  0
 37  4  1  0
 37 17  1  0
 38  6  1  0
 38 26  1  0
 38 33  1  0
 39  1  1  0
 39 24  2  0
 39 28  1  0
 40 12  1  0
 41 25  1  0
 42  1  1  0
 42 22  1  0
M  END
>  <ID>  (1) 
conformer_0

$$$$
