
     RDKit          3D

 34 33  0  0  0  0  0  0  0  0999 V2000
    4.2823  -36.8184    8.9204 C   0  0  0  0  0  0  0  0  0  0  0  0
    0.1835  -42.3735    3.5874 C   0  0  0  0  0  0  0  0  0  0  0  0
    1.2421  -40.5831   -0.5953 C   0  0  0  0  0  0  0  0  0  0  0  0
    0.2084  -40.0531    0.1774 C   0  0  0  0  0  0  0  0  0  0  0  0
    2.7315  -37.6073    2.2438 C   0  0  0  0  0  0  0  0  0  0  0  0
    7.1377  -41.7467    3.5720 C   0  0  0  0  0  0  0  0  0  0  0  0
    3.9623  -37.4488    3.3556 C   0  0  0  0  0  0  0  0  0  0  0  0
    6.4785  -36.7414   -0.4289 C   0  0  0  0  0  0  0  0  0  0  0  0
    4.2367  -42.4733    0.2959 C   0  0  0  0  0  0  0  0  0  0  0  0
    6.0450  -40.9960    0.9067 C   0  0  0  0  0  0  0  0  0  0  0  0
    0.4080  -39.9702    1.6884 C   0  0  0  0  0  0  0  0  0  0  0  0
    4.4228  -37.6761    7.8538 C   0  0  0  0  0  0  0  0  0  0  0  0
   -0.0224  -41.2634    2.5673 C   0  0  0  0  0  0  0  0  0  0  0  0
    6.2404  -35.5826    9.2202 C   0  0  0  0  0  0  0  0  0  0  0  0
    5.3642  -36.4789    3.5757 C   0  0  0  0  0  0  0  0  0  0  0  0
    1.7220  -38.2905    3.2436 C   0  0  0  0  0  0  0  0  0  0  0  0
    8.1415  -38.7819    0.1888 C   0  0  0  0  0  0  0  0  0  0  0  0
    6.4143  -35.8564    2.8591 O   0  0  0  0  0  0  0  0  0  0  0  0
    5.6466  -35.6791    7.5677 C   0  0  0  0  0  0  0  0  0  0  0  0
    9.6603  -39.2002    1.7177 O   0  0  0  0  0  0  0  0  0  0  0  0
    6.7851  -35.5930    9.9513 O   0  0  0  0  0  0  0  0  0  0  0  0
    8.3807  -41.7986    3.3242 C   0  0  0  0  0  0  0  0  0  0  0  0
    4.7238  -42.8030    2.8035 O   0  0  0  0  0  0  0  0  0  0  0  0
    2.2663  -41.5891   -1.1178 C   0  0  0  0  0  0  0  0  0  0  0  0
    5.0473  -42.8616    2.6338 C   0  0  0  0  0  0  0  0  0  0  0  0
    7.6660  -36.4972   -0.2378 C   0  0  0  0  0  0  0  0  0  0  0  0
    4.2509  -43.6252    0.5403 O   0  0  0  0  0  0  0  0  0  0  0  0
    6.6962  -40.2087    0.1103 O   0  0  0  0  0  0  0  0  0  0  0  0
    7.5055  -36.9342    1.2534 C   0  0  0  0  0  0  0  0  0  0  0  0
    8.4925  -40.3476    1.3247 C   0  0  0  0  0  0  0  0  0  0  0  0
    5.0715  -36.6724    6.4234 C   0  0  0  0  0  0  0  0  0  0  0  0
    4.8576  -37.7009    5.3171 C   0  0  0  0  0  0  0  0  0  0  0  0
    3.5778  -41.0082   -0.8449 C   0  0  0  0  0  0  0  0  0  0  0  0
    1.0042  -43.2853    3.6454 C   0  0  0  0  0  0  0  0  0  0  0  0
  4  3  1  0
  7  5  1  0
 10  9  1  0
 11  4  1  0
 12  1  1  0
 13  2  2  0
 13 11  2  0
 15  7  1  0
 16  5  1  0
 18 15  1  0
 19 14  2  0
 21 14  2  0
 22  6  1  0
 24  3  1  0
 25 23  1  0
 26  8  1  0
 27  9  1  0
 27 25  1  0
 28 10  1  0
 28 17  1  0
 29 17  1  0
 29 18  1  0
 29 26  1  0
 30 17  1  0
 30 20  1  0
 30 22  1  0
 31 12  1  0
 31 19  1  0
 32  7  1  0
 32 31  1  0
 33  9  1  0
 33 24  1  0
 34  2  1  0
M  END
>  <ID>  (1) 
conformer_0

$$$$
