
     RDKit          3D

 36 35  0  0  0  0  0  0  0  0999 V2000
    0.6114  -43.3974    3.4743 C   0  0  0  0  0  0  0  0  0  0  0  0
    4.6333  -37.7584    6.5021 C   0  0  0  0  0  0  0  0  0  0  0  0
    0.6097  -39.9486    1.4695 C   0  0  2  0  0  0  0  0  0  0  0  0
    1.2127  -40.4174   -0.4524 C   0  0  0  0  0  0  0  0  0  0  0  0
    8.0088  -41.7385    2.9869 C   0  0  0  0  0  0  0  0  0  0  0  0
    6.8971  -37.3687   -1.2069 C   0  0  0  0  0  0  0  0  0  0  0  0
    3.1608  -37.5188    2.2911 C   0  0  0  0  0  0  0  0  0  0  0  0
    3.9452  -37.7736    3.4322 C   0  0  0  0  0  0  0  0  0  0  0  0
    5.6322  -42.4683    1.8858 C   0  0  0  0  0  0  0  0  0  0  0  0
    8.3343  -39.3457    0.8231 C   0  0  0  0  0  0  0  0  0  0  0  0
    7.2856  -41.2512    1.4582 C   0  0  1  0  0  0  0  0  0  0  0  0
    5.3607  -36.0352    9.7872 C   0  0  0  0  0  0  0  0  0  0  0  0
    2.4342  -41.0352   -0.7579 C   0  0  0  0  0  0  0  0  0  0  0  0
    8.7210  -42.0204    3.9328 C   0  0  0  0  0  0  0  0  0  0  0  0
    1.5475  -38.6894    3.4673 C   0  0  2  0  0  0  0  0  0  0  0  0
    4.5601  -42.5387    0.0213 C   0  0  0  0  0  0  0  0  0  0  0  0
    0.1615  -42.5378    4.4149 C   0  0  0  0  0  0  0  0  0  0  0  0
    4.2340  -36.9075    8.4341 C   0  0  0  0  0  0  0  0  0  0  0  0
    6.3009  -35.8779    2.7450 O   0  0  0  0  0  0  0  0  0  0  0  0
    9.9937  -38.9348    2.0277 O   0  0  0  0  0  0  0  0  0  0  0  0
    7.7022  -36.2600   -0.1666 C   0  0  0  0  0  0  0  0  0  0  0  0
    7.8266  -37.1254    0.9653 C   0  0  2  0  0  0  0  0  0  0  0  0
    5.2867  -43.3655    0.2729 O   0  0  0  0  0  0  0  0  0  0  0  0
    9.2444  -40.1265   -0.2192 O   0  0  0  0  0  0  0  0  0  0  0  0
    1.6750  -39.8483    4.4961 O   0  0  0  0  0  0  0  0  0  0  0  0
    6.8989  -34.8597    9.2099 O   0  0  0  0  0  0  0  0  0  0  0  0
    3.5594  -41.0940   -1.1334 C   0  0  0  0  0  0  0  0  0  0  0  0
    6.6826  -34.7142    8.6524 C   0  0  0  0  0  0  0  0  0  0  0  0
    5.2286  -36.4278    7.2461 C   0  0  0  0  0  0  0  0  0  0  0  0
    7.9526  -38.5463    0.9892 N   0  0  0  0  0  0  0  0  0  0  0  0
    4.9543  -37.6421    5.1145 C   0  0  0  0  0  0  0  0  0  0  0  0
   -0.3839  -40.2127    0.3311 C   0  0  0  0  0  0  0  0  0  0  0  0
   -0.3417  -41.5013    3.3311 C   0  0  0  0  0  0  0  0  0  0  0  0
    6.0348  -36.6287    2.2471 C   0  0  0  0  0  0  0  0  0  0  0  0
    6.6001  -41.8294    3.8495 C   0  0  0  0  0  0  0  0  0  0  0  0
    4.8871  -42.8863    2.3434 O   0  0  0  0  0  0  0  0  0  0  0  0
  8  7  1  0
 11  5  1  0
 11  9  1  0
 11 10  1  1
 13  4  3  0
 14  5  2  3
 15  3  1  0
 15  7  1  0
 17  1  1  0
 18 12  1  0
 20 10  1  0
 21  6  1  0
 22 21  1  6
 23  9  1  0
 23 16  1  0
 24 10  1  0
 15 25  1  1
 26 12  1  0
 27 13  1  0
 27 16  1  0
 28 26  1  0
 29  2  1  0
 29 18  1  0
 30 10  1  0
 30 22  1  0
 31  2  1  0
 31  8  1  0
  3 32  1  1
 32  4  1  0
 33  3  1  0
 33 17  1  0
 34 19  1  0
 34 22  1  0
 35  5  1  0
 36  9  2  0
M  END
>  <ID>  (1) 
conformer_0

$$$$
