
     RDKit          3D

 50 54  0  0  0  0  0  0  0  0999 V2000
    1.5082  -41.0938    0.0880 C   0  0  0  0  0  0  0  0  0  0  0  0
    3.4575  -41.7857   -0.8124 C   0  0  0  0  0  0  0  0  0  0  0  0
    6.7578  -42.2584    4.1104 C   0  0  0  0  0  0  0  0  0  0  0  0
    0.2587  -40.4118   -0.0996 C   0  0  0  0  0  0  0  0  0  0  0  0
    6.7615  -37.4644   -1.1089 C   0  0  0  0  0  0  0  0  0  0  0  0
    3.9357  -36.8636    8.0496 C   0  0  0  0  0  0  0  0  0  0  0  0
    5.0932  -37.1790    8.3512 C   0  0  0  0  0  0  0  0  0  0  0  0
    0.6938  -39.4229    2.5092 C   0  0  0  0  0  0  0  0  0  0  0  0
    8.3353  -40.1810    1.1533 C   0  0  0  0  0  0  0  0  0  0  0  0
    2.3090  -40.9223   -1.2151 C   0  0  0  0  0  0  0  0  0  0  0  0
    6.3817  -41.3115    1.5423 C   0  0  0  0  0  0  0  0  0  0  0  0
    7.0244  -36.2567    1.8101 C   0  0  0  0  0  0  0  0  0  0  0  0
    4.1324  -40.0743   -0.6580 C   0  0  0  0  0  0  0  0  0  0  0  0
    4.2827  -37.9203    3.3578 C   0  0  0  0  0  0  0  0  0  0  0  0
    4.8172  -36.0345    9.8755 C   0  0  0  0  0  0  0  0  0  0  0  0
    9.7181  -38.9879    1.9552 O   0  0  0  0  0  0  0  0  0  0  0  0
    8.6151  -42.0723    3.8219 C   0  0  0  0  0  0  0  0  0  0  0  0
    5.0861  -36.7885    3.4561 C   0  0  0  0  0  0  0  0  0  0  0  0
    6.9203  -36.1608   -0.7776 C   0  0  0  0  0  0  0  0  0  0  0  0
    5.6430  -35.2675    9.9947 O   0  0  0  0  0  0  0  0  0  0  0  0
    6.5587  -35.4349    2.8310 O   0  0  0  0  0  0  0  0  0  0  0  0
    4.5103  -42.1834   -0.0328 C   0  0  0  0  0  0  0  0  0  0  0  0
    1.2899  -38.2816    3.2671 C   0  0  0  0  0  0  0  0  0  0  0  0
   -0.2176  -41.8510    2.4540 C   0  0  0  0  0  0  0  0  0  0  0  0
    4.6077  -44.0593    0.7556 O   0  0  0  0  0  0  0  0  0  0  0  0
    2.6331  -41.4904    4.6288 O   0  0  0  0  0  0  0  0  0  0  0  0
    6.6799  -40.5542    0.8281 O   0  0  0  0  0  0  0  0  0  0  0  0
    9.7022  -40.1328   -0.2364 O   0  0  0  0  0  0  0  0  0  0  0  0
    2.5048  -37.5829    3.5369 C   0  0  0  0  0  0  0  0  0  0  0  0
    5.4975  -42.7581    3.1500 C   0  0  0  0  0  0  0  0  0  0  0  0
   -0.2081  -42.9196    4.1858 C   0  0  0  0  0  0  0  0  0  0  0  0
    7.9923  -38.2695    0.6846 N   0  0  0  0  0  0  0  0  0  0  0  0
    5.6222  -42.3778    0.8030 O   0  0  0  0  0  0  0  0  0  0  0  0
    1.5819  -41.6101    4.2609 C   0  0  0  0  0  0  0  0  0  0  0  0
    6.9659  -38.3243    0.1532 C   0  0  0  0  0  0  0  0  0  0  0  0
    4.8316  -37.4588    6.1541 C   0  0  0  0  0  0  0  0  0  0  0  0
    1.1127  -43.0914    4.3930 C   0  0  0  0  0  0  0  0  0  0  0  0
    8.3243  -35.8186    0.1821 C   0  0  0  0  0  0  0  0  0  0  0  0
    6.4171  -35.1403    8.8868 C   0  0  0  0  0  0  0  0  0  0  0  0
    6.1983  -36.9218    2.0053 O   0  0  0  0  0  0  0  0  0  0  0  0
    7.3895  -41.4252    2.9687 C   0  0  0  0  0  0  0  0  0  0  0  0
    4.9400  -36.9274    4.8758 C   0  0  0  0  0  0  0  0  0  0  0  0
    9.0584  -38.9702    0.2197 C   0  0  0  0  0  0  0  0  0  0  0  0
    8.6863  -36.9539    1.0992 C   0  0  0  0  0  0  0  0  0  0  0  0
   -0.0993  -41.0783    3.6578 C   0  0  0  0  0  0  0  0  0  0  0  0
   -0.3517  -40.5866    1.4288 C   0  0  0  0  0  0  0  0  0  0  0  0
    2.6315  -37.1814    1.9156 C   0  0  0  0  0  0  0  0  0  0  0  0
    5.4210  -35.9451    6.9088 C   0  0  0  0  0  0  0  0  0  0  0  0
    4.6698  -42.5963    3.2024 O   0  0  0  0  0  0  0  0  0  0  0  0
    4.6408  -43.6250    1.0248 C   0  0  0  0  0  0  0  0  0  0  0  0
  4  1  1  0
  7  6  1  0
 10  1  1  0
 10  2  1  0
 13  2  1  0
 15  7  1  0
 17  3  1  0
 18 14  1  0
 19  5  1  0
 20 15  1  0
 21 12  2  0
 22  2  1  0
 23  8  1  0
 27  9  1  0
 27 11  1  0
 29 14  1  0
 29 23  1  0
 30  3  1  0
 33 11  1  0
 33 22  1  0
 34 26  2  0
 35  5  1  0
 35 32  1  0
 37 31  1  0
 37 34  1  0
 38 19  1  0
 39 20  1  0
 40 12  1  0
 40 18  1  0
 41  3  1  0
 41 11  1  0
 41 17  1  0
 42 14  1  0
 42 18  1  0
 42 36  1  0
 43  9  1  0
 43 16  1  0
 43 28  1  0
 43 32  1  0
 44 12  1  0
 44 32  1  0
 44 38  1  0
 45 24  1  0
 45 31  1  0
 45 34  1  0
 46  4  1  0
 46  8  1  0
 46 24  1  0
 47 29  1  0
 48  7  1  0
 48 36  1  0
 49 30  2  0
 50 22  1  0
 50 25  1  0
M  END
>  <ID>  (1) 
conformer_0

$$$$
