
     RDKit          3D

 36 35  0  0  0  0  0  0  0  0999 V2000
    1.4341  -40.7289   -0.4858 C   0  0  0  0  0  0  0  0  0  0  0  0
    6.5074  -42.0810    3.8548 C   0  0  0  0  0  0  0  0  0  0  0  0
    0.5450  -40.4719    0.4041 C   0  0  0  0  0  0  0  0  0  0  0  0
    2.8481  -41.0184   -1.0801 C   0  0  0  0  0  0  0  0  0  0  0  0
    7.0028  -37.4408   -0.8050 C   0  0  0  0  0  0  0  0  0  0  0  0
    4.1584  -37.0336    7.3184 C   0  0  0  0  0  0  0  0  0  0  0  0
    4.6762  -36.8066    8.5458 C   0  0  0  0  0  0  0  0  0  0  0  0
    2.4328  -37.4645    2.3031 C   0  0  0  0  0  0  0  0  0  0  0  0
    4.0048  -41.0333   -1.1410 C   0  0  0  0  0  0  0  0  0  0  0  0
   -0.2702  -41.1503    1.8414 C   0  0  1  0  0  0  0  0  0  0  0  0
    8.2433  -40.4633    1.3763 C   0  0  0  0  0  0  0  0  0  0  0  0
    4.5245  -42.8368    0.2305 C   0  0  0  0  0  0  0  0  0  0  0  0
    8.5890  -38.6215    0.4432 C   0  0  0  0  0  0  0  0  0  0  0  0
    7.6017  -41.7098    3.0160 C   0  0  0  0  0  0  0  0  0  0  0  0
    3.8920  -37.4349    2.9302 C   0  0  2  0  0  0  0  0  0  0  0  0
    6.0746  -35.4425    9.1682 C   0  0  0  0  0  0  0  0  0  0  0  0
    9.5799  -40.2626   -0.3995 O   0  0  0  0  0  0  0  0  0  0  0  0
    1.5603  -38.2565    3.5464 C   0  0  0  0  0  0  0  0  0  0  0  0
    6.4717  -35.7552    2.6388 O   0  0  0  0  0  0  0  0  0  0  0  0
   -0.1514  -41.4241    3.5018 C   0  0  0  0  0  0  0  0  0  0  0  0
    6.0730  -34.9677    9.5994 O   0  0  0  0  0  0  0  0  0  0  0  0
    7.4318  -36.6148   -0.4871 C   0  0  0  0  0  0  0  0  0  0  0  0
    5.7782  -42.2408    2.0373 C   0  0  1  0  0  0  0  0  0  0  0  0
    5.5309  -42.6814    0.7944 O   0  0  0  0  0  0  0  0  0  0  0  0
    7.7148  -36.7920    1.3403 C   0  0  0  0  0  0  0  0  0  0  0  0
    9.7132  -38.4213    2.1100 O   0  0  0  0  0  0  0  0  0  0  0  0
    4.5461  -37.4725    4.7851 C   0  0  0  0  0  0  0  0  0  0  0  0
    5.6268  -36.3627    3.2118 C   0  0  0  0  0  0  0  0  0  0  0  0
    0.2036  -42.5835    3.9671 C   0  0  0  0  0  0  0  0  0  0  0  0
    8.3828  -38.9862    0.9489 N   0  0  0  0  0  0  0  0  0  0  0  0
    8.7882  -41.9541    3.6655 C   0  0  0  0  0  0  0  0  0  0  0  0
    1.3865  -43.4124    4.1798 C   0  0  0  0  0  0  0  0  0  0  0  0
    5.2324  -36.4023    5.7011 C   0  0  0  0  0  0  0  0  0  0  0  0
    5.5167  -35.8278    7.1324 C   0  0  0  0  0  0  0  0  0  0  0  0
    4.7909  -42.8899    2.5165 O   0  0  0  0  0  0  0  0  0  0  0  0
    0.6568  -39.8921    2.3286 C   0  0  0  0  0  0  0  0  0  0  0  0
  3  1  1  0
  4  1  3  0
  7  6  1  0
  9  4  1  0
 10  3  1  6
 12  9  1  0
 14  2  1  0
 14 11  1  0
 15  8  1  1
 16  7  1  0
 17 13  1  0
 18  8  1  0
 20 10  1  0
 21 16  2  0
 22  5  1  0
 23  2  1  0
 24 12  1  0
 24 23  1  0
 25 19  1  0
 25 22  1  0
 27 15  1  0
 28 15  1  0
 28 19  1  0
 29 20  1  0
 30 11  1  0
 30 13  1  0
 30 26  1  0
 31 14  2  3
 32 29  1  0
 33 27  1  0
 34  6  1  0
 34 33  1  0
 23 35  1  1
 36 10  1  0
 36 18  1  0
M  END
>  <ID>  (1) 
conformer_0

$$$$
