
     RDKit          3D

 50 52  0  0  0  0  0  0  0  0999 V2000
    7.5660  -37.6084   -1.1726 C   0  0  0  0  0  0  0  0  0  0  0  0
    4.0744  -36.3570    8.0293 C   0  0  0  0  0  0  0  0  0  0  0  0
    4.0729  -40.1072   -0.9273 C   0  0  0  0  0  0  0  0  0  0  0  0
    0.3166  -40.3038    0.4237 C   0  0  0  0  0  0  0  0  0  0  0  0
    1.7441  -40.6880   -1.1687 C   0  0  0  0  0  0  0  0  0  0  0  0
    6.4501  -41.6458    4.3696 C   0  0  0  0  0  0  0  0  0  0  0  0
    5.2298  -36.5935    5.4691 C   0  0  0  0  0  0  0  0  0  0  0  0
    2.5478  -37.6049    2.5176 C   0  0  0  0  0  0  0  0  0  0  0  0
    8.4751  -40.6056    1.4373 C   0  0  1  0  0  0  0  0  0  0  0  0
    7.0917  -38.5693    0.2134 C   0  0  0  0  0  0  0  0  0  0  0  0
    3.4125  -41.4803   -1.2185 C   0  0  0  0  0  0  0  0  0  0  0  0
    6.4707  -36.1436    2.1205 C   0  0  0  0  0  0  0  0  0  0  0  0
    4.6159  -37.7971    4.3709 C   0  0  0  0  0  0  0  0  0  0  0  0
    1.8767  -37.7833    3.6134 C   0  0  0  0  0  0  0  0  0  0  0  0
    6.6058  -34.6314    8.3444 C   0  0  0  0  0  0  0  0  0  0  0  0
    7.2166  -42.0537    2.6480 C   0  0  1  0  0  0  0  0  0  0  0  0
    0.3909  -39.6808    2.2736 C   0  0  1  0  0  0  0  0  0  0  0  0
    5.9017  -36.3746    2.4544 O   0  0  0  0  0  0  0  0  0  0  0  0
    6.3270  -35.2185    9.4733 O   0  0  0  0  0  0  0  0  0  0  0  0
    4.2883  -42.8761    0.3478 C   0  0  1  0  0  0  0  0  0  0  0  0
    9.6476  -38.3978    1.7977 O   0  0  0  0  0  0  0  0  0  0  0  0
    4.9764  -43.1541   -0.2103 O   0  0  0  0  0  0  0  0  0  0  0  0
    6.7958  -36.7131   -0.3905 C   0  0  0  0  0  0  0  0  0  0  0  0
    4.6564  -36.8416    3.6644 C   0  0  1  0  0  0  0  0  0  0  0  0
    6.2599  -40.7689    0.4972 O   0  0  0  0  0  0  0  0  0  0  0  0
    4.6549  -37.2975    8.4100 C   0  0  2  0  0  0  0  0  0  0  0  0
    5.1268  -42.8935    1.8782 O   0  0  0  0  0  0  0  0  0  0  0  0
    0.0447  -41.4999    2.1207 C   0  0  0  0  0  0  0  0  0  0  0  0
    6.9182  -41.4640    1.4743 C   0  0  1  0  0  0  0  0  0  0  0  0
    5.6361  -35.4679    7.0381 C   0  0  0  0  0  0  0  0  0  0  0  0
    8.0100  -39.4191    1.0211 N   0  0  0  0  0  0  0  0  0  0  0  0
    1.4040  -38.7873    4.0794 O   0  0  0  0  0  0  0  0  0  0  0  0
    0.5512  -39.4404    3.4904 C   0  0  0  0  0  0  0  0  0  0  0  0
   -0.2819  -42.7992    4.0154 C   0  0  0  0  0  0  0  0  0  0  0  0
    5.4921  -42.5297    2.7273 C   0  0  0  0  0  0  0  0  0  0  0  0
    8.6800  -41.3516    3.1321 C   0  0  1  0  0  0  0  0  0  0  0  0
    3.8734  -37.2185    2.6480 C   0  0  0  0  0  0  0  0  0  0  0  0
    9.5864  -39.8134    0.1365 O   0  0  0  0  0  0  0  0  0  0  0  0
    1.0676  -43.4170    4.1030 C   0  0  0  0  0  0  0  0  0  0  0  0
    4.2607  -42.4727    3.8837 O   0  0  0  0  0  0  0  0  0  0  0  0
    5.0957  -41.2985    0.4322 C   0  0  0  0  0  0  0  0  0  0  0  0
    8.2086  -36.4125    0.3271 C   0  0  0  0  0  0  0  0  0  0  0  0
    5.4092  -36.0196    9.3241 C   0  0  0  0  0  0  0  0  0  0  0  0
    8.3003  -36.6159    1.3873 C   0  0  0  0  0  0  0  0  0  0  0  0
    7.1585  -35.0861    2.2649 O   0  0  0  0  0  0  0  0  0  0  0  0
    4.6238  -37.5464    6.5356 C   0  0  0  0  0  0  0  0  0  0  0  0
   -0.3700  -41.2363    3.5913 C   0  0  0  0  0  0  0  0  0  0  0  0
    2.0251  -41.1043    0.1526 C   0  0  0  0  0  0  0  0  0  0  0  0
    8.9659  -38.9064    0.5638 C   0  0  0  0  0  0  0  0  0  0  0  0
    8.3069  -42.4861    4.1415 C   0  0  1  0  0  0  0  0  0  0  0  0
 10  1  1  0
 11  3  1  0
 11  5  1  0
 13  7  1  0
 14  8  1  0
 17  4  1  6
 18 12  1  0
 19 15  1  0
 20 22  1  6
 23  1  1  0
 24 13  1  1
 24 18  1  0
 26  2  1  6
 27 20  1  0
 28 17  1  0
 29  9  1  0
 29 16  1  0
 29 25  1  1
 30 15  1  0
  9 31  1  1
 31 10  1  0
 32 14  1  0
 33 17  1  0
 33 32  1  0
 16 35  1  1
 35 27  1  0
 36  9  1  6
 36 16  1  0
 37  8  2  3
 37 24  1  0
 39 34  1  0
 40 35  2  0
 41 20  1  0
 41 25  1  0
 42 23  1  0
 43 19  1  0
 43 26  1  0
 44 12  1  0
 44 42  1  0
 45 12  2  0
 46  7  1  0
 46 26  1  0
 47 28  1  0
 47 34  1  0
 48  4  1  0
 48  5  1  0
 49 21  1  0
 49 31  1  0
 49 38  1  0
 50  6  1  1
 50 16  1  0
 50 36  1  0
M  END
>  <ID>  (1) 
conformer_0

$$$$
