
     RDKit          3D

 42 41  0  0  0  0  0  0  0  0999 V2000
   -0.0112  -40.7372    0.4890 C   0  0  0  0  0  0  0  0  0  0  0  0
    4.1912  -36.5609    8.5323 C   0  0  0  0  0  0  0  0  0  0  0  0
    6.8938  -37.1730   -1.3146 C   0  0  0  0  0  0  0  0  0  0  0  0
    3.0881  -41.4547   -1.9207 C   0  0  0  0  0  0  0  0  0  0  0  0
    1.9885  -40.9751    0.0648 C   0  0  0  0  0  0  0  0  0  0  0  0
    4.4448  -37.5706    7.9694 C   0  0  0  0  0  0  0  0  0  0  0  0
    6.9114  -42.1531    4.7972 C   0  0  0  0  0  0  0  0  0  0  0  0
    2.4534  -37.7565    2.5312 C   0  0  2  0  0  0  0  0  0  0  0  0
    7.7840  -38.3193    0.0872 C   0  0  0  0  0  0  0  0  0  0  0  0
    7.3445  -41.1249    1.6127 C   0  0  2  0  0  0  0  0  0  0  0  0
    8.4250  -39.7273    0.8923 C   0  0  0  0  0  0  0  0  0  0  0  0
    1.3474  -40.8240   -1.0576 C   0  0  0  0  0  0  0  0  0  0  0  0
    5.4749  -42.2396    1.1260 C   0  0  0  0  0  0  0  0  0  0  0  0
    3.8264  -37.5597    2.9062 C   0  0  0  0  0  0  0  0  0  0  0  0
    5.4660  -35.8939    9.3265 C   0  0  0  0  0  0  0  0  0  0  0  0
    0.3700  -40.2378    2.2161 C   0  0  1  0  0  0  0  0  0  0  0  0
    7.5589  -41.9210    3.2996 C   0  0  1  0  0  0  0  0  0  0  0  0
    9.3198  -40.1594   -0.3559 O   0  0  0  0  0  0  0  0  0  0  0  0
    6.5167  -35.9466    2.3123 O   0  0  0  0  0  0  0  0  0  0  0  0
    5.0210  -37.1452    4.5697 C   0  0  0  0  0  0  0  0  0  0  0  0
    7.5437  -36.8182    1.4031 C   0  0  2  0  0  0  0  0  0  0  0  0
    2.1532  -37.4730    3.5744 C   0  0  0  0  0  0  0  0  0  0  0  0
    5.4313  -36.4575    3.2280 C   0  0  2  0  0  0  0  0  0  0  0  0
    6.3618  -34.9025    9.1897 O   0  0  0  0  0  0  0  0  0  0  0  0
    4.8732  -43.2052    1.1857 O   0  0  0  0  0  0  0  0  0  0  0  0
   -0.4481  -41.6815    2.9053 C   0  0  0  0  0  0  0  0  0  0  0  0
    7.7401  -36.2369   -0.3739 C   0  0  0  0  0  0  0  0  0  0  0  0
    4.1898  -42.3601    3.6303 O   0  0  0  0  0  0  0  0  0  0  0  0
    5.1981  -35.7611    6.5860 C   0  0  0  0  0  0  0  0  0  0  0  0
    9.7230  -38.8549    1.9165 O   0  0  0  0  0  0  0  0  0  0  0  0
    0.6909  -40.0436    2.9988 C   0  0  0  0  0  0  0  0  0  0  0  0
    7.8355  -38.5483    0.8011 N   0  0  0  0  0  0  0  0  0  0  0  0
    5.4203  -42.7813    3.3625 C   0  0  0  0  0  0  0  0  0  0  0  0
    6.6988  -34.3366    8.3401 C   0  0  0  0  0  0  0  0  0  0  0  0
   -0.1705  -42.8401    3.7846 C   0  0  0  0  0  0  0  0  0  0  0  0
    4.8274  -37.4624    6.1758 C   0  0  1  0  0  0  0  0  0  0  0  0
    6.1487  -40.9832    0.7423 O   0  0  0  0  0  0  0  0  0  0  0  0
    8.8130  -41.8926    3.9046 C   0  0  0  0  0  0  0  0  0  0  0  0
    1.0339  -43.1520    4.3308 C   0  0  0  0  0  0  0  0  0  0  0  0
    7.5578  -42.9081    1.0041 O   0  0  0  0  0  0  0  0  0  0  0  0
    3.8013  -40.5261   -1.2247 C   0  0  0  0  0  0  0  0  0  0  0  0
    4.2153  -42.4764   -0.2860 C   0  0  0  0  0  0  0  0  0  0  0  0
  5  1  1  0
  6  2  1  0
 12  4  1  0
 12  5  1  0
 14  8  1  0
 15  2  1  0
 16  1  1  6
 17  7  1  0
 17 10  1  0
 18 11  1  0
 21 19  1  0
  8 22  1  1
 23 14  1  6
 23 19  1  0
 23 20  1  0
 24 15  1  0
 25 13  1  0
 26 16  1  0
 27  3  1  0
 21 27  1  6
 30 11  1  0
 31  8  1  0
 31 16  1  0
 32  9  1  0
 32 11  1  0
 32 21  1  0
 33  7  1  0
 33 28  1  0
 34 24  1  0
 35 26  1  0
 36  6  1  0
 36 20  1  0
 36 29  1  1
 37 10  1  0
 37 13  1  0
 17 38  1  1
 39 35  2  3
 10 40  1  6
 41  4  1  0
 42 25  1  0
 42 41  1  0
M  END
>  <ID>  (1) 
conformer_0

$$$$
