
     RDKit          3D

 50 54  0  0  0  0  0  0  0  0999 V2000
    0.7520  -43.4147    3.6706 C   0  0  0  0  0  0  0  0  0  0  0  0
    0.0438  -40.5059    0.6550 C   0  0  1  0  0  0  0  0  0  0  0  0
    4.4001  -36.2162    8.5210 C   0  0  1  0  0  0  0  0  0  0  0  0
    2.7738  -37.5173    3.1351 C   0  0  0  0  0  0  0  0  0  0  0  0
    0.1227  -42.0423    4.7187 C   0  0  0  0  0  0  0  0  0  0  0  0
    6.3813  -36.5001   -0.8931 C   0  0  0  0  0  0  0  0  0  0  0  0
    7.0941  -41.7023    3.0772 C   0  0  0  0  0  0  0  0  0  0  0  0
    4.4698  -37.9621    5.9700 C   0  0  0  0  0  0  0  0  0  0  0  0
    8.6237  -39.7862    1.0614 C   0  0  0  0  0  0  0  0  0  0  0  0
    5.1836  -43.1290    3.5048 C   0  0  0  0  0  0  0  0  0  0  0  0
   -0.2349  -41.4064    2.3434 C   0  0  0  0  0  0  0  0  0  0  0  0
    7.2094  -41.1412    1.7508 C   0  0  0  0  0  0  0  0  0  0  0  0
    4.4423  -43.3595    0.1048 C   0  0  2  0  0  0  0  0  0  0  0  0
    0.8181  -39.6094    2.0959 C   0  0  0  0  0  0  0  0  0  0  0  0
    4.5436  -37.4744    4.0026 C   0  0  1  0  0  0  0  0  0  0  0  0
    5.3470  -35.4895    9.3121 C   0  0  0  0  0  0  0  0  0  0  0  0
    0.8842  -39.7127    3.5004 C   0  0  1  0  0  0  0  0  0  0  0  0
    9.4187  -39.9185   -0.3404 O   0  0  0  0  0  0  0  0  0  0  0  0
    8.5808  -36.8276    1.1144 C   0  0  1  0  0  0  0  0  0  0  0  0
    6.8971  -35.4157    2.6020 O   0  0  0  0  0  0  0  0  0  0  0  0
    7.9585  -42.3851    4.0654 C   0  0  0  0  0  0  0  0  0  0  0  0
    1.5804  -39.2119    4.1484 O   0  0  0  0  0  0  0  0  0  0  0  0
    6.8882  -36.4996    1.8440 C   0  0  0  0  0  0  0  0  0  0  0  0
    6.6682  -35.0101    9.3260 O   0  0  0  0  0  0  0  0  0  0  0  0
    4.5132  -43.9870    1.0465 O   0  0  0  0  0  0  0  0  0  0  0  0
    7.2234  -37.6275   -1.5172 C   0  0  0  0  0  0  0  0  0  0  0  0
    5.5477  -42.2852    0.7926 O   0  0  0  0  0  0  0  0  0  0  0  0
    1.4724  -41.3230   -0.7297 C   0  0  0  0  0  0  0  0  0  0  0  0
    5.2461  -35.8085    7.2454 C   0  0  0  0  0  0  0  0  0  0  0  0
    4.3923  -42.5738    3.3987 O   0  0  0  0  0  0  0  0  0  0  0  0
    7.8453  -38.2050    1.0050 N   0  0  0  0  0  0  0  0  0  0  0  0
    4.4569  -37.6566    7.6855 C   0  0  0  0  0  0  0  0  0  0  0  0
   -0.6195  -40.5985    3.6079 C   0  0  2  0  0  0  0  0  0  0  0  0
    9.8561  -38.7660    1.9453 O   0  0  0  0  0  0  0  0  0  0  0  0
    2.2183  -37.8155    3.6941 C   0  0  0  0  0  0  0  0  0  0  0  0
    5.1049  -36.8661    3.2667 C   0  0  0  0  0  0  0  0  0  0  0  0
    6.9841  -34.2665    8.3075 C   0  0  0  0  0  0  0  0  0  0  0  0
    1.8013  -40.5105    0.1569 C   0  0  1  0  0  0  0  0  0  0  0  0
    3.5929  -40.7461   -1.0213 C   0  0  0  0  0  0  0  0  0  0  0  0
    5.0223  -36.7214    5.6994 C   0  0  1  0  0  0  0  0  0  0  0  0
    5.9472  -36.9385    2.3104 O   0  0  0  0  0  0  0  0  0  0  0  0
    6.3536  -40.1994    0.6903 O   0  0  0  0  0  0  0  0  0  0  0  0
    5.8957  -42.6598    2.0982 C   0  0  1  0  0  0  0  0  0  0  0  0
    4.9646  -41.7552    0.2301 C   0  0  0  0  0  0  0  0  0  0  0  0
   -0.9015  -42.8056    4.0019 C   0  0  0  0  0  0  0  0  0  0  0  0
    3.2536  -37.3365    1.8940 C   0  0  0  0  0  0  0  0  0  0  0  0
    9.0199  -41.6468    3.2923 C   0  0  0  0  0  0  0  0  0  0  0  0
    7.8751  -36.1972   -0.3591 C   0  0  0  0  0  0  0  0  0  0  0  0
    7.6383  -38.2292    0.4384 C   0  0  0  0  0  0  0  0  0  0  0  0
    3.3991  -42.1541   -1.2606 C   0  0  0  0  0  0  0  0  0  0  0  0
  5  1  1  0
  2 11  1  1
 12  7  1  0
 14  2  1  0
 15  4  1  0
  3 16  1  1
 17 14  1  0
 18  9  1  0
 21  7  1  0
 17 22  1  1
 23 19  1  0
 23 20  2  0
 24 16  1  0
 13 25  1  1
 26  6  1  0
 29  3  1  0
 30 10  1  0
 31  9  1  0
 19 31  1  6
 32  3  1  0
 32  8  1  0
 33  5  1  1
 33 11  1  0
 33 17  1  0
 34  9  1  0
 35  4  1  0
 35 22  1  0
 15 36  1  6
 37 24  1  0
 38  2  1  0
 38 28  1  1
 39 38  1  0
 40  8  1  1
 40 15  1  0
 40 29  1  0
 41 23  1  0
 41 36  1  0
 42 12  1  0
 43  7  1  0
 43 10  1  1
 43 27  1  0
 44 13  1  0
 44 27  1  0
 45  1  1  0
 45  5  1  0
 46  4  2  3
 47  7  1  0
 47 21  1  0
 48  6  1  0
 48 19  1  0
 48 26  1  0
 49 31  1  0
 50 13  1  0
 50 39  1  0
M  END
>  <ID>  (1) 
conformer_0

$$$$
