
     RDKit          3D

 50 52  0  0  0  0  0  0  0  0999 V2000
    5.0226  -36.0738    6.2568 C   0  0  0  0  0  0  0  0  0  0  0  0
    7.4205  -42.3568    4.5252 C   0  0  0  0  0  0  0  0  0  0  0  0
    4.4554  -37.3388    6.4004 C   0  0  0  0  0  0  0  0  0  0  0  0
    2.8030  -41.6349   -0.7355 C   0  0  0  0  0  0  0  0  0  0  0  0
   -1.0702  -42.4395    3.1171 C   0  0  0  0  0  0  0  0  0  0  0  0
    3.8541  -37.4259    3.8600 C   0  0  0  0  0  0  0  0  0  0  0  0
    7.0874  -37.8135   -1.1728 C   0  0  0  0  0  0  0  0  0  0  0  0
    1.8125  -40.8108   -0.8142 C   0  0  0  0  0  0  0  0  0  0  0  0
    8.8510  -37.2532    1.0548 C   0  0  0  0  0  0  0  0  0  0  0  0
    5.3030  -42.7097    2.8305 C   0  0  0  0  0  0  0  0  0  0  0  0
    0.0435  -42.7521    4.3282 C   0  0  0  0  0  0  0  0  0  0  0  0
    4.2546  -43.1477   -0.5934 C   0  0  0  0  0  0  0  0  0  0  0  0
    5.4287  -35.8184    8.8932 C   0  0  0  0  0  0  0  0  0  0  0  0
    5.0606  -42.3385    0.6499 C   0  0  0  0  0  0  0  0  0  0  0  0
    3.9148  -36.8771    8.2085 C   0  0  0  0  0  0  0  0  0  0  0  0
    1.1661  -43.4228    3.7340 C   0  0  0  0  0  0  0  0  0  0  0  0
    6.5883  -41.3751    2.9061 C   0  0  0  0  0  0  0  0  0  0  0  0
    2.0325  -38.2177    3.4729 C   0  0  0  0  0  0  0  0  0  0  0  0
    5.8256  -36.5225    2.2293 O   0  0  0  0  0  0  0  0  0  0  0  0
    9.7995  -38.6528    1.9654 O   0  0  0  0  0  0  0  0  0  0  0  0
    6.8689  -34.9197    8.8952 O   0  0  0  0  0  0  0  0  0  0  0  0
    9.1926  -40.0585   -0.2040 O   0  0  0  0  0  0  0  0  0  0  0  0
    7.2211  -36.3627    1.5578 C   0  0  0  0  0  0  0  0  0  0  0  0
    1.8765  -40.1276    4.1394 O   0  0  0  0  0  0  0  0  0  0  0  0
    4.9107  -43.7324   -0.5934 O   0  0  0  0  0  0  0  0  0  0  0  0
    6.6578  -36.4956   -0.6887 C   0  0  0  0  0  0  0  0  0  0  0  0
    5.2302  -36.3697    3.1211 C   0  0  0  0  0  0  0  0  0  0  0  0
    4.3785  -42.2730    3.2600 O   0  0  0  0  0  0  0  0  0  0  0  0
    3.9639  -40.7847   -1.2067 C   0  0  0  0  0  0  0  0  0  0  0  0
    4.8036  -36.6415    8.5604 C   0  0  0  0  0  0  0  0  0  0  0  0
    1.0415  -40.3421    1.3970 C   0  0  0  0  0  0  0  0  0  0  0  0
    7.0799  -33.8345    8.2183 C   0  0  0  0  0  0  0  0  0  0  0  0
    0.8832  -40.4027    3.6757 C   0  0  0  0  0  0  0  0  0  0  0  0
    3.2984  -37.1125    1.9654 C   0  0  0  0  0  0  0  0  0  0  0  0
    8.8497  -42.1987    3.8975 C   0  0  0  0  0  0  0  0  0  0  0  0
    0.2872  -40.6550   -0.3218 C   0  0  0  0  0  0  0  0  0  0  0  0
    6.5279  -41.1260    1.5578 C   0  0  0  0  0  0  0  0  0  0  0  0
    7.8939  -38.6247    1.0161 N   0  0  0  0  0  0  0  0  0  0  0  0
    5.2948  -43.3545    1.4763 O   0  0  0  0  0  0  0  0  0  0  0  0
   -0.7303  -41.0287    1.4955 C   0  0  0  0  0  0  0  0  0  0  0  0
    6.4376  -41.0767    0.3739 O   0  0  0  0  0  0  0  0  0  0  0  0
    7.4062  -38.5311    0.3155 C   0  0  0  0  0  0  0  0  0  0  0  0
    6.8163  -35.6437   10.3022 C   0  0  0  0  0  0  0  0  0  0  0  0
    8.4623  -39.9609    1.0906 C   0  0  0  0  0  0  0  0  0  0  0  0
    7.0621  -35.4625    2.5765 O   0  0  0  0  0  0  0  0  0  0  0  0
    2.1784  -38.0398    2.5658 C   0  0  0  0  0  0  0  0  0  0  0  0
    4.8515  -36.8239    4.5472 C   0  0  0  0  0  0  0  0  0  0  0  0
   -0.1098  -41.0076    3.2354 C   0  0  0  0  0  0  0  0  0  0  0  0
    8.0920  -36.1498   -0.0714 C   0  0  0  0  0  0  0  0  0  0  0  0
    8.2324  -41.4249    2.6425 C   0  0  0  0  0  0  0  0  0  0  0  0
  3  1  1  0
  8  4  1  0
 11  5  1  0
 12  4  1  0
 14 12  1  0
 15  3  1  0
 16 11  1  0
 17 10  1  0
 20  9  1  0
 23  9  1  0
 23 19  1  0
 24 18  1  0
 25 12  2  0
 26  7  1  0
 27  6  1  0
 27 19  1  0
 28 10  1  0
 29  4  1  0
 30 13  1  0
 30 15  1  0
 32 21  1  0
 33 24  1  0
 34  6  1  0
 35  2  1  0
 36  8  1  0
 36 31  1  0
 37 17  1  0
 38  9  1  0
 39 10  1  0
 39 14  1  0
 40 31  1  0
 41 37  1  0
 42  7  1  0
 42 38  1  0
 43 13  1  0
 43 21  1  0
 44 22  1  0
 44 38  1  0
 45 23  1  0
 46 18  1  0
 46 34  1  0
 47  1  1  0
 47  6  1  0
 47 27  1  0
 48  5  1  0
 48 33  1  0
 48 40  1  0
 49  9  1  0
 49 23  1  0
 49 26  1  0
 50 17  1  0
 50 35  1  0
M  END
>  <ID>  (1) 
conformer_0

$$$$
