
     RDKit          3D

 48 51  0  0  0  0  0  0  0  0999 V2000
    0.0329  -42.7315    4.0872 C   0  0  2  0  0  0  0  0  0  0  0  0
    1.5128  -43.4138    3.8210 C   0  0  0  0  0  0  0  0  0  0  0  0
    4.9640  -36.6344    7.8917 C   0  0  0  0  0  0  0  0  0  0  0  0
    6.4371  -41.7659    3.1297 C   0  0  0  0  0  0  0  0  0  0  0  0
    1.8187  -37.4271    2.2879 C   0  0  0  0  0  0  0  0  0  0  0  0
    7.1966  -36.6210   -0.7740 C   0  0  0  0  0  0  0  0  0  0  0  0
    5.1500  -37.3886    4.3400 C   0  0  2  0  0  0  0  0  0  0  0  0
    0.0665  -42.1607    2.6486 C   0  0  0  0  0  0  0  0  0  0  0  0
    4.4530  -43.2434    0.6248 C   0  0  0  0  0  0  0  0  0  0  0  0
    7.0501  -40.8882    1.3688 C   0  0  0  0  0  0  0  0  0  0  0  0
   -0.6191  -41.0395    3.4842 C   0  0  2  0  0  0  0  0  0  0  0  0
    5.0091  -36.0476   10.3729 C   0  0  0  0  0  0  0  0  0  0  0  0
    2.3551  -37.4833    3.7174 C   0  0  1  0  0  0  0  0  0  0  0  0
    8.7931  -37.8291    0.9241 C   0  0  2  0  0  0  0  0  0  0  0  0
    7.7958  -41.4925    2.5395 C   0  0  1  0  0  0  0  0  0  0  0  0
    3.8716  -37.1246    8.0708 C   0  0  0  0  0  0  0  0  0  0  0  0
    0.5110  -39.9355    2.2054 C   0  0  1  0  0  0  0  0  0  0  0  0
    9.4592  -40.2946   -0.1621 O   0  0  0  0  0  0  0  0  0  0  0  0
    7.2423  -35.4092    2.6035 O   0  0  0  0  0  0  0  0  0  0  0  0
    8.4680  -36.2746    0.0560 C   0  0  2  0  0  0  0  0  0  0  0  0
    1.4019  -38.8492    4.1610 O   0  0  0  0  0  0  0  0  0  0  0  0
    6.2986  -35.3524    9.5779 O   0  0  0  0  0  0  0  0  0  0  0  0
    4.8772  -43.4842    2.4746 O   0  0  0  0  0  0  0  0  0  0  0  0
    4.4865  -41.9139    0.0295 C   0  0  1  0  0  0  0  0  0  0  0  0
    5.3485  -36.6873    3.1578 C   0  0  0  0  0  0  0  0  0  0  0  0
    9.6811  -38.2870    2.0677 O   0  0  0  0  0  0  0  0  0  0  0  0
   -0.3537  -40.5152    1.1921 C   0  0  0  0  0  0  0  0  0  0  0  0
    3.3042  -37.1020    1.5047 C   0  0  0  0  0  0  0  0  0  0  0  0
    3.6929  -37.5996    3.2326 C   0  0  1  0  0  0  0  0  0  0  0  0
    0.6834  -40.1983   -0.0573 C   0  0  0  0  0  0  0  0  0  0  0  0
    6.9326  -34.5730    8.7410 C   0  0  0  0  0  0  0  0  0  0  0  0
    8.1113  -38.7837    0.9210 N   0  0  0  0  0  0  0  0  0  0  0  0
    7.0649  -38.4422    0.0470 C   0  0  0  0  0  0  0  0  0  0  0  0
    2.0205  -40.6172   -0.7455 C   0  0  0  0  0  0  0  0  0  0  0  0
    0.7725  -38.9164    3.4684 C   0  0  0  0  0  0  0  0  0  0  0  0
    8.4079  -41.9955    3.7022 C   0  0  0  0  0  0  0  0  0  0  0  0
    8.9160  -39.8712    0.9025 C   0  0  0  0  0  0  0  0  0  0  0  0
    3.1728  -41.8087   -0.7120 C   0  0  0  0  0  0  0  0  0  0  0  0
    4.6842  -43.8388    0.5546 O   0  0  0  0  0  0  0  0  0  0  0  0
    4.3858  -37.8111    5.9931 C   0  0  0  0  0  0  0  0  0  0  0  0
    6.0159  -41.2009    0.8591 O   0  0  0  0  0  0  0  0  0  0  0  0
    6.3405  -36.8240    2.3273 O   0  0  0  0  0  0  0  0  0  0  0  0
    5.3301  -42.6667    2.3660 C   0  0  0  0  0  0  0  0  0  0  0  0
    4.4840  -40.1549   -0.8208 C   0  0  0  0  0  0  0  0  0  0  0  0
    7.6730  -36.4686    1.6189 C   0  0  1  0  0  0  0  0  0  0  0  0
    5.2404  -36.6948    6.0433 C   0  0  1  0  0  0  0  0  0  0  0  0
    5.4002  -36.0517    8.5657 C   0  0  1  0  0  0  0  0  0  0  0  0
    6.5276  -38.2054   -0.9726 C   0  0  0  0  0  0  0  0  0  0  0  0
  1  2  1  1
  8  1  1  0
 11  1  1  0
 11  8  1  6
 13  5  1  0
 15  4  1  0
 15 10  1  0
 16  3  2  3
 17 11  1  0
 20  6  1  6
 20 14  1  0
 13 21  1  6
 24  9  1  0
  7 25  1  6
 14 26  1  6
 17 27  1  6
 28  5  1  0
 29  7  1  0
 29 13  1  0
 29 28  1  6
 30 27  1  0
 31 22  1  0
 32 14  1  0
 33 32  1  0
 34 30  2  3
 35 17  1  0
 35 21  1  0
 15 36  1  1
 37 18  2  0
 37 32  1  0
 38 24  1  0
 38 34  1  0
 39  9  2  0
 41 10  1  0
 41 24  1  0
 42 25  1  0
 43  4  1  0
 43 23  2  0
 24 44  1  6
 45 14  1  0
 45 19  1  1
 45 20  1  0
 45 42  1  0
 46  3  1  0
 46  7  1  0
 46 40  1  6
 47  3  1  0
 47 12  1  1
 47 22  1  0
 48  6  1  0
 48 33  1  0
M  END
>  <ID>  (1) 
conformer_0

$$$$
