
     RDKit          3D

 40 40  0  0  0  0  0  0  0  0999 V2000
    3.0865  -41.5761   -1.1152 C   0  0  2  0  0  0  0  0  0  0  0  0
   -0.0949  -43.2982    4.1027 C   0  0  0  0  0  0  0  0  0  0  0  0
    6.5747  -42.0930    3.5209 C   0  0  0  0  0  0  0  0  0  0  0  0
    5.0046  -36.8750    5.3395 C   0  0  0  0  0  0  0  0  0  0  0  0
    7.0270  -37.0425   -0.9420 C   0  0  0  0  0  0  0  0  0  0  0  0
   -0.2006  -41.7653    3.8109 C   0  0  0  0  0  0  0  0  0  0  0  0
    3.5543  -36.9914    1.9381 C   0  0  0  0  0  0  0  0  0  0  0  0
    4.3159  -37.8299    3.9933 C   0  0  0  0  0  0  0  0  0  0  0  0
    1.7288  -40.8155   -0.7776 C   0  0  0  0  0  0  0  0  0  0  0  0
    8.0505  -38.0495    0.3626 C   0  0  1  0  0  0  0  0  0  0  0  0
    4.1209  -42.8543    0.0067 C   0  0  0  0  0  0  0  0  0  0  0  0
    8.6018  -39.6104    0.7534 C   0  0  0  0  0  0  0  0  0  0  0  0
    0.9472  -43.2430    4.6243 C   0  0  0  0  0  0  0  0  0  0  0  0
    6.4939  -34.8068    8.6968 C   0  0  0  0  0  0  0  0  0  0  0  0
    5.0426  -36.3601    7.5480 C   0  0  0  0  0  0  0  0  0  0  0  0
    9.3481  -40.1062   -0.3328 O   0  0  0  0  0  0  0  0  0  0  0  0
    1.4789  -38.2627    3.5768 C   0  0  0  0  0  0  0  0  0  0  0  0
    7.7300  -41.7387    2.5571 C   0  0  1  0  0  0  0  0  0  0  0  0
   -0.0120  -40.9594    2.5869 C   0  0  0  0  0  0  0  0  0  0  0  0
    0.6821  -40.4104    0.3281 C   0  0  0  0  0  0  0  0  0  0  0  0
    8.0094  -36.5851    1.4463 C   0  0  2  0  0  0  0  0  0  0  0  0
    6.5491  -36.0391    2.4641 O   0  0  0  0  0  0  0  0  0  0  0  0
    5.3802  -42.7225    1.7334 C   0  0  0  0  0  0  0  0  0  0  0  0
    9.3818  -37.7827    2.1328 O   0  0  0  0  0  0  0  0  0  0  0  0
    7.8145  -36.1948   -0.2332 C   0  0  0  0  0  0  0  0  0  0  0  0
    4.1264  -44.0813    0.5042 O   0  0  0  0  0  0  0  0  0  0  0  0
    6.3488  -34.5901    9.0297 O   0  0  0  0  0  0  0  0  0  0  0  0
    3.2240  -41.7376    4.5732 O   0  0  0  0  0  0  0  0  0  0  0  0
    7.3370  -41.1326    1.3594 C   0  0  0  0  0  0  0  0  0  0  0  0
    2.2369  -37.6189    2.5531 C   0  0  0  0  0  0  0  0  0  0  0  0
    4.4370  -37.0983    8.5346 C   0  0  0  0  0  0  0  0  0  0  0  0
    4.6839  -35.8211    9.8377 C   0  0  0  0  0  0  0  0  0  0  0  0
    5.8401  -42.3118    0.5999 O   0  0  0  0  0  0  0  0  0  0  0  0
    4.1836  -40.4430   -0.9074 C   0  0  0  0  0  0  0  0  0  0  0  0
    0.5025  -39.8259    2.1520 C   0  0  0  0  0  0  0  0  0  0  0  0
    8.5508  -42.0027    3.7717 C   0  0  0  0  0  0  0  0  0  0  0  0
    8.2478  -38.5302    0.8615 N   0  0  0  0  0  0  0  0  0  0  0  0
    4.5091  -37.6745    6.4955 C   0  0  0  0  0  0  0  0  0  0  0  0
    4.7366  -42.8318    2.4919 O   0  0  0  0  0  0  0  0  0  0  0  0
    5.3542  -36.5971    3.0229 C   0  0  1  0  0  0  0  0  0  0  0  0
  6  2  1  0
  8  4  1  0
  9  1  1  0
 10  5  1  0
 11  1  1  0
 13  2  1  0
 16 12  2  0
 18  3  1  0
 19  6  1  0
 20  9  1  0
 21 10  1  0
 21 22  1  1
 23  3  1  0
 25  5  1  0
 25 21  1  0
 26 11  2  0
 27 14  1  0
 28 13  1  0
 29 12  1  0
 29 18  1  0
 30  7  2  3
 30 17  1  0
 31 15  1  0
 32 27  1  0
 32 31  1  0
 33 11  1  0
 33 23  1  0
  1 34  1  1
 35 19  1  0
 35 20  1  0
 18 36  1  1
 10 37  1  1
 37 12  1  0
 37 24  1  0
 38  4  1  0
 38 15  1  0
 39 23  2  0
 40  7  1  0
 40  8  1  6
 40 22  1  0
M  END
>  <ID>  (1) 
conformer_0

$$$$
