
     RDKit          3D

 46 51  0  0  0  0  0  0  0  0999 V2000
    4.6191  -37.8823    6.4410 C   0  0  0  0  0  0  0  0  0  0  0  0
    4.5288  -37.2411    8.0639 C   0  0  0  0  0  0  0  0  0  0  0  0
    6.6313  -36.6692   -0.7305 C   0  0  0  0  0  0  0  0  0  0  0  0
    2.5367  -41.5051   -1.5370 C   0  0  0  0  0  0  0  0  0  0  0  0
    3.5177  -40.7144   -0.9996 C   0  0  0  0  0  0  0  0  0  0  0  0
    0.3332  -39.6491    2.1753 C   0  0  0  0  0  0  0  0  0  0  0  0
    7.2494  -42.2373    3.9659 C   0  0  0  0  0  0  0  0  0  0  0  0
    4.4751  -43.4161   -0.3566 C   0  0  0  0  0  0  0  0  0  0  0  0
    4.5178  -38.4423    4.7244 C   0  0  0  0  0  0  0  0  0  0  0  0
    8.3427  -40.4192    1.4404 C   0  0  0  0  0  0  0  0  0  0  0  0
    5.5498  -42.9789    2.4125 C   0  0  0  0  0  0  0  0  0  0  0  0
    0.1938  -40.4472    0.7685 C   0  0  0  0  0  0  0  0  0  0  0  0
    2.3234  -37.9072    2.8020 C   0  0  0  0  0  0  0  0  0  0  0  0
    1.3261  -37.8123    3.5682 C   0  0  0  0  0  0  0  0  0  0  0  0
    7.2688  -34.9312   10.3905 C   0  0  0  0  0  0  0  0  0  0  0  0
    6.8521  -41.4867    1.6171 C   0  0  0  0  0  0  0  0  0  0  0  0
    6.2022  -35.3838    2.9276 O   0  0  0  0  0  0  0  0  0  0  0  0
    9.4270  -40.1005   -0.2898 O   0  0  0  0  0  0  0  0  0  0  0  0
    0.9196  -43.4182    3.7998 C   0  0  0  0  0  0  0  0  0  0  0  0
    8.5920  -36.8578    1.3131 C   0  0  0  0  0  0  0  0  0  0  0  0
    7.5530  -37.6055   -1.2949 C   0  0  0  0  0  0  0  0  0  0  0  0
    5.2553  -36.7147    3.3404 C   0  0  0  0  0  0  0  0  0  0  0  0
    4.9904  -43.2500    2.6295 O   0  0  0  0  0  0  0  0  0  0  0  0
   -0.2337  -42.9659    3.9263 C   0  0  0  0  0  0  0  0  0  0  0  0
    5.3499  -36.3368    7.6980 C   0  0  0  0  0  0  0  0  0  0  0  0
    9.8472  -38.9711    1.9485 O   0  0  0  0  0  0  0  0  0  0  0  0
    8.2813  -41.9274    3.2323 C   0  0  0  0  0  0  0  0  0  0  0  0
    8.0094  -38.3145    0.9499 N   0  0  0  0  0  0  0  0  0  0  0  0
    1.8624  -40.5469    4.0143 O   0  0  0  0  0  0  0  0  0  0  0  0
    2.0328  -40.6386    0.4649 C   0  0  0  0  0  0  0  0  0  0  0  0
    4.8609  -35.6044   10.7712 C   0  0  0  0  0  0  0  0  0  0  0  0
    3.9844  -36.2664    9.4773 C   0  0  0  0  0  0  0  0  0  0  0  0
    6.0744  -35.3831    9.9762 N   0  0  0  0  0  0  0  0  0  0  0  0
    4.7677  -41.9077    0.3435 C   0  0  0  0  0  0  0  0  0  0  0  0
    0.9749  -41.0028   -0.7068 C   0  0  0  0  0  0  0  0  0  0  0  0
    5.5721  -43.3737    0.4541 O   0  0  0  0  0  0  0  0  0  0  0  0
    5.1773  -36.9932    5.3298 C   0  0  0  0  0  0  0  0  0  0  0  0
    7.0786  -40.3913   -0.0064 O   0  0  0  0  0  0  0  0  0  0  0  0
    0.5992  -39.6402    3.1750 C   0  0  0  0  0  0  0  0  0  0  0  0
    8.3308  -36.1937    0.0426 C   0  0  0  0  0  0  0  0  0  0  0  0
    7.0169  -36.4300    1.6180 C   0  0  0  0  0  0  0  0  0  0  0  0
    7.6820  -38.5853    0.0523 C   0  0  0  0  0  0  0  0  0  0  0  0
    5.9744  -36.7782    2.0473 O   0  0  0  0  0  0  0  0  0  0  0  0
    6.0064  -35.6919    8.8416 C   0  0  0  0  0  0  0  0  0  0  0  0
    3.9045  -37.4135    3.2874 C   0  0  0  0  0  0  0  0  0  0  0  0
   -0.3364  -41.2798    3.3352 C   0  0  0  0  0  0  0  0  0  0  0  0
  2  1  1  0
  5  4  1  0
  9  1  1  0
 12  6  1  0
 14 13  1  0
 16 10  1  0
 16 11  1  0
 18 10  1  0
 21  3  1  0
 22 17  1  0
 23 11  1  0
 24 19  1  0
 25  2  1  0
 26 10  1  0
 27  7  1  0
 27 16  1  0
 28 20  1  0
 30 12  1  0
 32  2  1  0
 32 31  1  0
 33 15  1  0
 33 31  1  0
 34  5  1  0
 34  8  1  0
 35  4  1  0
 35 12  1  0
 35 30  1  0
 36  8  1  0
 36 34  1  0
 37  1  1  0
 37  9  1  0
 38 10  1  0
 39  6  1  0
 39 14  1  0
 39 29  1  0
 40  3  1  0
 40 20  1  0
 41 17  1  0
 41 20  1  0
 42 21  1  0
 42 28  2  0
 42 38  1  0
 43 22  1  0
 43 41  1  0
 44 25  1  0
 44 33  1  0
 45  9  1  0
 45 13  1  0
 45 22  1  0
 46 24  1  0
 46 39  1  0
M  END
>  <ID>  (1) 
conformer_0

$$$$
