
     RDKit          3D

 39 39  0  0  0  0  0  0  0  0999 V2000
   -0.0330  -40.4088    2.9228 C   0  0  2  0  0  0  0  0  0  0  0  0
   -0.3195  -41.0393    1.1143 C   0  0  0  0  0  0  0  0  0  0  0  0
    1.8085  -41.0122   -0.6925 C   0  0  0  0  0  0  0  0  0  0  0  0
    4.4875  -36.9351    8.5592 C   0  0  0  0  0  0  0  0  0  0  0  0
    4.5739  -37.5659    3.8006 C   0  0  0  0  0  0  0  0  0  0  0  0
    7.6149  -36.5419   -0.5082 C   0  0  0  0  0  0  0  0  0  0  0  0
    5.0498  -37.1778    5.3352 C   0  0  2  0  0  0  0  0  0  0  0  0
    8.1545  -41.5496    2.2112 C   0  0  0  0  0  0  0  0  0  0  0  0
    0.5450  -40.8824    0.0556 C   0  0  0  0  0  0  0  0  0  0  0  0
    8.4613  -36.9358    1.0664 C   0  0  2  0  0  0  0  0  0  0  0  0
    3.2526  -41.5431   -1.0839 C   0  0  2  0  0  0  0  0  0  0  0  0
    8.4559  -38.8879    0.5139 C   0  0  0  0  0  0  0  0  0  0  0  0
    5.6837  -42.6327    2.2360 C   0  0  0  0  0  0  0  0  0  0  0  0
    4.5680  -37.4004    7.1836 C   0  0  1  0  0  0  0  0  0  0  0  0
    1.4786  -37.9075    3.5889 C   0  0  0  0  0  0  0  0  0  0  0  0
    8.7893  -41.9087    3.5065 C   0  0  0  0  0  0  0  0  0  0  0  0
    5.2921  -35.6823    9.1707 C   0  0  0  0  0  0  0  0  0  0  0  0
    6.8444  -35.7361    2.2136 O   0  0  0  0  0  0  0  0  0  0  0  0
   -0.4208  -41.8561    3.1773 C   0  0  0  0  0  0  0  0  0  0  0  0
    9.4443  -39.9485   -0.1932 O   0  0  0  0  0  0  0  0  0  0  0  0
    2.6357  -37.8467    2.6124 C   0  0  0  0  0  0  0  0  0  0  0  0
    4.5884  -44.0218   -0.0440 O   0  0  0  0  0  0  0  0  0  0  0  0
    7.2981  -37.1391   -0.9829 C   0  0  0  0  0  0  0  0  0  0  0  0
    5.8207  -34.7608    9.7053 O   0  0  0  0  0  0  0  0  0  0  0  0
    0.0263  -42.6334    4.3868 C   0  0  0  0  0  0  0  0  0  0  0  0
    4.6128  -43.0025    0.0930 C   0  0  0  0  0  0  0  0  0  0  0  0
    5.4949  -35.9439    6.7950 C   0  0  0  0  0  0  0  0  0  0  0  0
    7.1320  -42.0743    3.9157 C   0  0  0  0  0  0  0  0  0  0  0  0
    6.3919  -41.5802    0.9137 O   0  0  0  0  0  0  0  0  0  0  0  0
    8.1443  -40.6839    1.2522 C   0  0  0  0  0  0  0  0  0  0  0  0
    9.6604  -38.7130    1.7209 O   0  0  0  0  0  0  0  0  0  0  0  0
    3.6298  -37.2367    1.8548 C   0  0  0  0  0  0  0  0  0  0  0  0
    4.0130  -40.5763   -1.1664 C   0  0  0  0  0  0  0  0  0  0  0  0
    0.9328  -43.7533    3.9840 C   0  0  0  0  0  0  0  0  0  0  0  0
    5.1058  -43.1316    1.5907 O   0  0  0  0  0  0  0  0  0  0  0  0
    6.7879  -34.1847    8.9442 C   0  0  0  0  0  0  0  0  0  0  0  0
    3.9495  -41.9170    3.8465 O   0  0  0  0  0  0  0  0  0  0  0  0
    7.0092  -36.3866    1.9642 C   0  0  0  0  0  0  0  0  0  0  0  0
    5.4644  -43.1721    3.5085 C   0  0  1  0  0  0  0  0  0  0  0  0
  1  2  1  6
  7  5  1  6
  9  2  1  0
  9  3  3  0
 10  6  1  0
 11  3  1  0
 10 12  1  6
 14  4  1  6
 14  7  1  0
 15  1  1  0
 16  8  1  0
 17  4  1  0
 19  1  1  0
 20 12  1  0
 21 15  1  0
 23  6  2  3
 24 17  1  0
 25 19  1  0
 26 11  1  0
 26 22  2  0
 27  7  1  0
 27 14  1  0
 28 16  1  0
 29 13  2  0
 30  8  1  0
 30 12  1  0
 31 12  1  0
 32  5  1  0
 32 21  1  0
 11 33  1  1
 34 25  1  0
 35 13  1  0
 35 26  1  0
 36 24  1  0
 38 10  1  0
 38 18  2  0
 39 13  1  0
 39 28  1  0
 39 37  1  1
M  END
>  <ID>  (1) 
conformer_0

$$$$
