
     RDKit          3D

 50 53  0  0  0  0  0  0  0  0999 V2000
    0.0804  -42.4218    4.6067 C   0  0  0  0  0  0  0  0  0  0  0  0
    4.1589  -38.0445    7.3490 C   0  0  0  0  0  0  0  0  0  0  0  0
    7.6372  -42.3516    4.3532 C   0  0  0  0  0  0  0  0  0  0  0  0
    6.4977  -36.5470   -0.6587 C   0  0  0  0  0  0  0  0  0  0  0  0
    1.8609  -41.3333   -0.5387 C   0  0  0  0  0  0  0  0  0  0  0  0
   -0.0458  -42.0268    3.0990 C   0  0  0  0  0  0  0  0  0  0  0  0
    4.5249  -38.2696    5.8779 C   0  0  0  0  0  0  0  0  0  0  0  0
    4.7094  -43.1247    1.8316 C   0  0  0  0  0  0  0  0  0  0  0  0
    8.8618  -40.0156    1.1243 C   0  0  0  0  0  0  0  0  0  0  0  0
    5.4480  -36.0843    6.1344 C   0  0  0  0  0  0  0  0  0  0  0  0
    3.9706  -37.4638    3.2467 C   0  0  0  0  0  0  0  0  0  0  0  0
    3.4861  -41.2859   -2.0617 C   0  0  0  0  0  0  0  0  0  0  0  0
    3.2428  -37.8990    4.3578 C   0  0  0  0  0  0  0  0  0  0  0  0
    7.7152  -38.9626    0.4815 C   0  0  0  0  0  0  0  0  0  0  0  0
    5.7187  -42.9175    3.2323 C   0  0  0  0  0  0  0  0  0  0  0  0
    0.9970  -43.2551    4.1080 C   0  0  0  0  0  0  0  0  0  0  0  0
    6.7100  -34.1741    8.7927 C   0  0  0  0  0  0  0  0  0  0  0  0
    7.0860  -35.3573    2.6860 O   0  0  0  0  0  0  0  0  0  0  0  0
    6.8526  -41.2772    1.5763 C   0  0  0  0  0  0  0  0  0  0  0  0
    9.2416  -39.9110   -0.4284 O   0  0  0  0  0  0  0  0  0  0  0  0
    7.5574  -41.5066    2.4285 C   0  0  0  0  0  0  0  0  0  0  0  0
    3.7647  -37.1819    8.4299 C   0  0  0  0  0  0  0  0  0  0  0  0
    7.2588  -37.3878   -1.4292 C   0  0  0  0  0  0  0  0  0  0  0  0
    7.2393  -36.5063    1.4833 C   0  0  0  0  0  0  0  0  0  0  0  0
    3.8131  -43.8204    0.5029 O   0  0  0  0  0  0  0  0  0  0  0  0
    6.7508  -34.6337    9.1366 O   0  0  0  0  0  0  0  0  0  0  0  0
    9.8514  -38.9042    1.8108 O   0  0  0  0  0  0  0  0  0  0  0  0
    6.3452  -40.3957    0.3420 O   0  0  0  0  0  0  0  0  0  0  0  0
    1.5779  -38.6989    4.4585 O   0  0  0  0  0  0  0  0  0  0  0  0
    0.1220  -40.4637    0.7934 C   0  0  0  0  0  0  0  0  0  0  0  0
    0.4874  -39.7172    2.2436 C   0  0  0  0  0  0  0  0  0  0  0  0
    8.0235  -38.6553    0.8516 N   0  0  0  0  0  0  0  0  0  0  0  0
    5.5481  -36.6205    2.9932 C   0  0  0  0  0  0  0  0  0  0  0  0
    5.4171  -36.0351    7.4476 C   0  0  0  0  0  0  0  0  0  0  0  0
    0.4553  -39.2666    3.7649 C   0  0  0  0  0  0  0  0  0  0  0  0
    5.0096  -35.8537    9.0499 C   0  0  0  0  0  0  0  0  0  0  0  0
   -0.6029  -40.7079    2.9648 C   0  0  0  0  0  0  0  0  0  0  0  0
    2.6101  -37.9908    2.1059 C   0  0  0  0  0  0  0  0  0  0  0  0
    5.1742  -41.5505    0.4625 C   0  0  0  0  0  0  0  0  0  0  0  0
    6.1947  -36.8862    2.1834 O   0  0  0  0  0  0  0  0  0  0  0  0
    4.6414  -42.2126    2.3835 O   0  0  0  0  0  0  0  0  0  0  0  0
    3.5373  -42.5631    0.0355 C   0  0  0  0  0  0  0  0  0  0  0  0
    8.2319  -36.2421   -0.1236 C   0  0  0  0  0  0  0  0  0  0  0  0
    8.7548  -41.8209    3.4584 C   0  0  0  0  0  0  0  0  0  0  0  0
    5.0316  -36.9316    4.8549 C   0  0  0  0  0  0  0  0  0  0  0  0
    3.7267  -40.5514   -0.9378 C   0  0  0  0  0  0  0  0  0  0  0  0
    1.4028  -40.5566   -1.3012 C   0  0  0  0  0  0  0  0  0  0  0  0
    4.9307  -35.3008    9.6611 O   0  0  0  0  0  0  0  0  0  0  0  0
    1.3502  -37.5929    3.4123 C   0  0  0  0  0  0  0  0  0  0  0  0
    8.7370  -37.3385    0.8048 C   0  0  0  0  0  0  0  0  0  0  0  0
  6  1  1  0
  7  2  1  0
 13 11  1  0
 16  1  1  0
 20  9  1  0
 21 19  1  0
 22  2  1  0
 23  4  1  0
 24 18  1  0
 25  8  1  0
 26 17  1  0
 27  9  1  0
 28 19  1  0
 31 30  1  0
 32  9  1  0
 32 14  1  0
 33 11  1  0
 34 10  2  0
 35 29  1  0
 35 31  1  0
 36 22  1  0
 36 34  2  0
 37  6  1  0
 37 31  1  0
 37 35  1  0
 38 11  1  0
 39 28  1  0
 40 24  1  0
 40 33  1  0
 41  8  1  0
 41 15  1  0
 42  5  1  0
 42 25  1  0
 42 39  1  0
 43  4  1  0
 43 24  1  0
 44  3  1  0
 44 21  1  0
 45  7  1  0
 45 10  1  0
 45 33  1  0
 46  5  1  0
 46 12  1  0
 47  5  1  0
 47 30  1  0
 48 26  1  0
 48 36  1  0
 49 29  1  0
 49 35  1  0
 49 38  1  0
 50 24  1  0
 50 32  1  0
 50 43  1  0
M  END
>  <ID>  (1) 
conformer_0

$$$$
