
     RDKit          3D

 45 50  0  0  0  0  0  0  0  0999 V2000
    1.2280  -40.0952   -0.6624 C   0  0  0  0  0  0  0  0  0  0  0  0
    0.5376  -42.8526    4.7829 C   0  0  0  0  0  0  0  0  0  0  0  0
    0.0196  -43.3010    3.5021 C   0  0  0  0  0  0  0  0  0  0  0  0
    7.3756  -42.3538    4.2572 C   0  0  0  0  0  0  0  0  0  0  0  0
    4.1945  -37.2461    8.7933 C   0  0  0  0  0  0  0  0  0  0  0  0
    4.4361  -37.8593    7.1680 C   0  0  0  0  0  0  0  0  0  0  0  0
    6.8733  -36.3910   -0.5078 C   0  0  0  0  0  0  0  0  0  0  0  0
    3.9131  -37.5536    3.1723 C   0  0  0  0  0  0  0  0  0  0  0  0
    2.5123  -40.7001   -0.9384 C   0  0  0  0  0  0  0  0  0  0  0  0
    6.8717  -40.8411    1.4235 C   0  0  0  0  0  0  0  0  0  0  0  0
    4.8839  -41.2378   -0.3034 C   0  0  0  0  0  0  0  0  0  0  0  0
    6.2188  -35.3055    8.4010 C   0  0  0  0  0  0  0  0  0  0  0  0
    3.9339  -40.4684   -1.0885 C   0  0  0  0  0  0  0  0  0  0  0  0
    4.7909  -37.8052    4.7271 C   0  0  0  0  0  0  0  0  0  0  0  0
    8.7932  -37.5361    0.9162 C   0  0  0  0  0  0  0  0  0  0  0  0
    5.5839  -42.2168    3.2438 C   0  0  0  0  0  0  0  0  0  0  0  0
    8.9178  -41.7817    3.5162 C   0  0  0  0  0  0  0  0  0  0  0  0
    5.3187  -36.6132    3.2946 C   0  0  0  0  0  0  0  0  0  0  0  0
    9.5717  -40.0876   -0.1787 O   0  0  0  0  0  0  0  0  0  0  0  0
    6.4133  -35.9015    2.3616 O   0  0  0  0  0  0  0  0  0  0  0  0
    1.8869  -38.4118    3.5160 C   0  0  0  0  0  0  0  0  0  0  0  0
   -0.4726  -41.4297    2.3740 C   0  0  0  0  0  0  0  0  0  0  0  0
    7.4486  -37.3530   -1.0634 C   0  0  0  0  0  0  0  0  0  0  0  0
    4.7951  -43.5162    0.3417 O   0  0  0  0  0  0  0  0  0  0  0  0
    6.3477  -40.8322    0.4184 O   0  0  0  0  0  0  0  0  0  0  0  0
    6.4723  -35.0475    9.3475 O   0  0  0  0  0  0  0  0  0  0  0  0
    0.0248  -40.3475    1.3134 C   0  0  0  0  0  0  0  0  0  0  0  0
    2.6298  -37.6914    2.2653 C   0  0  0  0  0  0  0  0  0  0  0  0
    4.5139  -42.3746    2.5965 O   0  0  0  0  0  0  0  0  0  0  0  0
    4.5792  -36.1990   10.0731 C   0  0  0  0  0  0  0  0  0  0  0  0
    9.0425  -39.6859    0.9012 C   0  0  0  0  0  0  0  0  0  0  0  0
    9.8034  -38.8040    1.7864 O   0  0  0  0  0  0  0  0  0  0  0  0
    4.5602  -43.7541   -0.7180 C   0  0  0  0  0  0  0  0  0  0  0  0
    5.2658  -36.8242    5.5555 C   0  0  0  0  0  0  0  0  0  0  0  0
    5.1439  -36.5382    7.5841 C   0  0  0  0  0  0  0  0  0  0  0  0
    7.8453  -38.7427    0.8951 N   0  0  0  0  0  0  0  0  0  0  0  0
    7.7226  -41.5252    2.6920 C   0  0  0  0  0  0  0  0  0  0  0  0
   -0.0644  -40.6771   -0.0794 C   0  0  0  0  0  0  0  0  0  0  0  0
    7.1729  -38.8798    0.1252 C   0  0  0  0  0  0  0  0  0  0  0  0
    8.5512  -36.1778    0.3686 C   0  0  0  0  0  0  0  0  0  0  0  0
    7.1142  -35.4096   10.0884 C   0  0  0  0  0  0  0  0  0  0  0  0
    7.2152  -36.3566    1.7202 C   0  0  0  0  0  0  0  0  0  0  0  0
    0.0501  -41.5100    3.8020 C   0  0  0  0  0  0  0  0  0  0  0  0
    1.1043  -39.4870    2.6406 C   0  0  0  0  0  0  0  0  0  0  0  0
    4.9251  -42.2980    1.2817 C   0  0  0  0  0  0  0  0  0  0  0  0
  3  2  1  0
  6  5  1  0
  9  1  1  0
 13  9  1  0
 13 11  1  0
 14  8  1  0
 17  4  1  0
 18  8  1  0
 18 14  1  0
 20 18  1  0
 23  7  1  0
 25 10  1  0
 25 11  1  0
 26 12  1  0
 27 22  1  0
 28  8  1  0
 28 21  1  0
 29 16  1  0
 30  5  1  0
 31 19  1  0
 32 15  1  0
 32 31  1  0
 33 24  1  0
 34 14  1  0
 35  5  1  0
 35  6  1  0
 35 12  1  0
 35 34  1  0
 36 15  1  0
 36 31  1  0
 37  4  1  0
 37 10  1  0
 37 17  1  0
 38  1  1  0
 38 27  1  0
 39 23  1  0
 39 36  1  0
 40  7  1  0
 40 15  1  0
 41 26  1  0
 42 20  1  0
 42 40  1  0
 43  2  1  0
 43  3  1  0
 43 22  1  0
 44 21  1  0
 44 27  1  0
 45 11  1  0
 45 24  1  0
 45 29  1  0
M  END
>  <ID>  (1) 
conformer_0

$$$$
