
     RDKit          3D

 40 41  0  0  0  0  0  0  0  0999 V2000
    4.2823  -36.6767    8.7118 C   0  0  0  0  0  0  0  0  0  0  0  0
    7.0178  -37.6048   -1.3581 C   0  0  0  0  0  0  0  0  0  0  0  0
    2.5299  -41.1684   -0.4136 C   0  0  0  0  0  0  0  0  0  0  0  0
    3.4843  -41.2138   -1.2413 C   0  0  0  0  0  0  0  0  0  0  0  0
    1.4160  -40.3646   -0.7618 C   0  0  0  0  0  0  0  0  0  0  0  0
    7.4152  -41.9354    2.8913 C   0  0  0  0  0  0  0  0  0  0  0  0
    4.8742  -37.4078    5.3819 C   0  0  0  0  0  0  0  0  0  0  0  0
    2.8773  -37.3341    2.0734 C   0  0  0  0  0  0  0  0  0  0  0  0
    0.4192  -40.2942    0.1741 C   0  0  2  0  0  0  0  0  0  0  0  0
    6.4276  -41.7461    1.9005 C   0  0  0  0  0  0  0  0  0  0  0  0
    8.4159  -38.4767    0.2115 C   0  0  0  0  0  0  0  0  0  0  0  0
    0.6719  -39.8210    1.9450 C   0  0  2  0  0  0  0  0  0  0  0  0
    7.7556  -36.7374    1.3418 C   0  0  1  0  0  0  0  0  0  0  0  0
    4.3377  -42.5071    0.5204 C   0  0  0  0  0  0  0  0  0  0  0  0
    5.5659  -35.7484    9.5323 C   0  0  0  0  0  0  0  0  0  0  0  0
    4.0632  -37.4443    3.6249 C   0  0  1  0  0  0  0  0  0  0  0  0
   -0.4138  -41.0151    1.7524 C   0  0  2  0  0  0  0  0  0  0  0  0
    1.3401  -38.2238    3.2555 C   0  0  1  0  0  0  0  0  0  0  0  0
    6.6902  -36.5186   -0.7132 C   0  0  0  0  0  0  0  0  0  0  0  0
    5.3508  -36.7331    2.9835 C   0  0  0  0  0  0  0  0  0  0  0  0
    6.3003  -35.9762    2.5057 O   0  0  0  0  0  0  0  0  0  0  0  0
    9.8500  -40.1654   -0.5020 O   0  0  0  0  0  0  0  0  0  0  0  0
    7.2743  -42.1365    4.7439 C   0  0  0  0  0  0  0  0  0  0  0  0
    8.4804  -40.1614    1.0889 C   0  0  0  0  0  0  0  0  0  0  0  0
    4.6866  -43.0616    3.3623 O   0  0  0  0  0  0  0  0  0  0  0  0
   -0.2995  -41.3560    3.1566 C   0  0  0  0  0  0  0  0  0  0  0  0
    8.2986  -38.3744    0.7239 N   0  0  0  0  0  0  0  0  0  0  0  0
    5.1826  -36.1088    7.1894 C   0  0  0  0  0  0  0  0  0  0  0  0
    1.3759  -38.5875    3.8130 O   0  0  0  0  0  0  0  0  0  0  0  0
    5.1947  -43.6479    0.9113 O   0  0  0  0  0  0  0  0  0  0  0  0
    6.8202  -34.2319    8.7645 C   0  0  0  0  0  0  0  0  0  0  0  0
    0.1916  -42.7902    3.5196 C   0  0  0  0  0  0  0  0  0  0  0  0
    9.7787  -38.6066    2.0586 O   0  0  0  0  0  0  0  0  0  0  0  0
    4.5081  -37.4601    6.8914 C   0  0  0  0  0  0  0  0  0  0  0  0
    5.1062  -43.0280    2.6429 C   0  0  0  0  0  0  0  0  0  0  0  0
    8.0507  -35.9578    0.0153 C   0  0  0  0  0  0  0  0  0  0  0  0
    1.6654  -43.7269    4.1948 C   0  0  0  0  0  0  0  0  0  0  0  0
    8.6242  -42.0169    3.9902 C   0  0  0  0  0  0  0  0  0  0  0  0
    6.8897  -34.4629    9.3444 O   0  0  0  0  0  0  0  0  0  0  0  0
    6.7779  -39.4310    1.7943 O   0  0  0  0  0  0  0  0  0  0  0  0
  4  3  1  0
  5  3  2  3
  9  5  1  1
 10  6  1  0
 12  9  1  0
 14  4  1  0
 15  1  1  0
 16  7  1  1
 16  8  1  0
 17  9  1  0
 17 12  1  0
 18  8  1  0
 12 18  1  6
 19  2  1  0
 20 16  1  0
 21 13  1  0
 21 20  1  0
 23  6  1  0
 24 22  1  0
 17 26  1  1
 27 11  1  0
 27 13  1  0
 27 24  1  0
 28  1  1  0
 18 29  1  1
 30 14  1  0
 32 26  1  0
 33 24  1  0
 34  7  1  0
 34 28  1  0
 35 10  1  0
 35 25  2  0
 35 30  1  0
 13 36  1  6
 36 19  1  0
 37 32  1  0
 38  6  1  0
 38 23  1  0
 39 15  1  0
 39 31  1  0
 40 24  1  0
M  END
>  <ID>  (1) 
conformer_0

$$$$
