
     RDKit          3D

 50 56  0  0  0  0  0  0  0  0999 V2000
    5.1928  -36.6927    5.4492 C   0  0  0  0  0  0  0  0  0  0  0  0
    3.0919  -40.8316   -0.2154 C   0  0  0  0  0  0  0  0  0  0  0  0
    3.6046  -41.6103   -1.2079 C   0  0  0  0  0  0  0  0  0  0  0  0
    7.6535  -37.3136   -0.9520 C   0  0  0  0  0  0  0  0  0  0  0  0
    0.6859  -40.8853   -0.4259 C   0  0  0  0  0  0  0  0  0  0  0  0
    4.8645  -36.4347    7.5175 C   0  0  0  0  0  0  0  0  0  0  0  0
    6.5241  -41.9991    3.9455 C   0  0  0  0  0  0  0  0  0  0  0  0
    3.3095  -37.6078    2.3176 C   0  0  0  0  0  0  0  0  0  0  0  0
    5.1939  -42.9073    2.9858 C   0  0  0  0  0  0  0  0  0  0  0  0
    7.9100  -38.5131    0.1519 C   0  0  0  0  0  0  0  0  0  0  0  0
    1.8664  -41.7784    0.1032 C   0  0  0  0  0  0  0  0  0  0  0  0
    6.2821  -37.5507   -1.0217 C   0  0  0  0  0  0  0  0  0  0  0  0
    7.1427  -41.2425    1.4700 C   0  0  0  0  0  0  0  0  0  0  0  0
    1.7778  -37.5337    3.3956 C   0  0  0  0  0  0  0  0  0  0  0  0
    1.0927  -40.0919    1.3972 C   0  0  0  0  0  0  0  0  0  0  0  0
    7.5752  -41.8391    2.2649 C   0  0  0  0  0  0  0  0  0  0  0  0
    1.1722  -38.7233    3.7076 O   0  0  0  0  0  0  0  0  0  0  0  0
    4.9446  -35.8094    9.3966 C   0  0  0  0  0  0  0  0  0  0  0  0
    6.5687  -35.4411    2.4418 O   0  0  0  0  0  0  0  0  0  0  0  0
    4.2104  -36.5962    9.1763 C   0  0  0  0  0  0  0  0  0  0  0  0
    4.2707  -42.6659    0.0354 C   0  0  0  0  0  0  0  0  0  0  0  0
    9.8376  -38.8440    1.8406 O   0  0  0  0  0  0  0  0  0  0  0  0
    4.6327  -42.3841    2.9456 O   0  0  0  0  0  0  0  0  0  0  0  0
    5.8984  -35.0373    9.4914 O   0  0  0  0  0  0  0  0  0  0  0  0
    7.0342  -36.3101    1.6424 C   0  0  0  0  0  0  0  0  0  0  0  0
    6.4714  -40.8349    0.5207 O   0  0  0  0  0  0  0  0  0  0  0  0
    5.4240  -43.0124   -0.1398 O   0  0  0  0  0  0  0  0  0  0  0  0
    5.0392  -36.9922    3.1727 C   0  0  0  0  0  0  0  0  0  0  0  0
   -0.5038  -40.8436    0.6871 C   0  0  0  0  0  0  0  0  0  0  0  0
    2.0451  -37.1873    2.4552 C   0  0  0  0  0  0  0  0  0  0  0  0
    8.5179  -35.9733    0.4698 C   0  0  0  0  0  0  0  0  0  0  0  0
    9.1107  -40.1087   -0.0632 O   0  0  0  0  0  0  0  0  0  0  0  0
   -0.0728  -40.6219    2.5489 C   0  0  0  0  0  0  0  0  0  0  0  0
    8.0836  -38.6144    0.8635 N   0  0  0  0  0  0  0  0  0  0  0  0
    8.7095  -41.4536    3.0409 C   0  0  0  0  0  0  0  0  0  0  0  0
    0.6379  -39.4091    2.9178 C   0  0  0  0  0  0  0  0  0  0  0  0
    4.4351  -37.3227    3.7689 C   0  0  0  0  0  0  0  0  0  0  0  0
    4.4685  -37.6974    7.2894 C   0  0  0  0  0  0  0  0  0  0  0  0
   -0.3265  -42.3648    2.8420 C   0  0  0  0  0  0  0  0  0  0  0  0
    5.1583  -42.2350    1.1251 C   0  0  0  0  0  0  0  0  0  0  0  0
    6.8994  -35.0100    9.2500 C   0  0  0  0  0  0  0  0  0  0  0  0
    8.9109  -39.7359    1.0150 C   0  0  0  0  0  0  0  0  0  0  0  0
    8.9292  -37.0797    1.2985 C   0  0  0  0  0  0  0  0  0  0  0  0
    5.9049  -36.9570    2.1137 O   0  0  0  0  0  0  0  0  0  0  0  0
    4.4684  -43.8349    1.4696 O   0  0  0  0  0  0  0  0  0  0  0  0
    1.3457  -43.2886    4.1088 C   0  0  0  0  0  0  0  0  0  0  0  0
    6.7661  -35.9679   -0.3956 C   0  0  0  0  0  0  0  0  0  0  0  0
    4.7217  -38.3851    5.2461 C   0  0  0  0  0  0  0  0  0  0  0  0
    0.0182  -41.9618    4.1384 C   0  0  0  0  0  0  0  0  0  0  0  0
    8.3561  -42.3216    4.2577 C   0  0  0  0  0  0  0  0  0  0  0  0
  3  2  1  0
  6  1  1  0
  9  7  1  0
 10  4  1  0
 11  2  1  0
 11  5  1  0
 12  4  1  0
 16 13  2  0
 17 14  1  0
 20  6  1  0
 20 18  1  0
 21  3  1  0
 23  9  1  0
 24 18  1  0
 25 19  2  0
 26 13  2  0
 27 21  1  0
 29  5  1  0
 29 15  1  0
 30  8  1  0
 30 14  1  0
 31 25  1  0
 33 15  1  0
 33 29  1  0
 34 10  1  0
 35 16  1  0
 36 15  1  0
 36 17  1  0
 36 33  1  0
 37  1  1  0
 37  8  1  0
 37 28  1  0
 38  6  1  0
 39 33  1  0
 40  9  1  0
 40 21  1  0
 40 27  1  0
 41 24  1  0
 42 22  1  0
 42 32  1  0
 42 34  1  0
 43 31  1  0
 43 34  1  0
 44 25  1  0
 44 28  1  0
 45 21  1  0
 45 40  1  0
 47  4  1  0
 47 12  1  0
 47 31  1  0
 48  1  1  0
 48 37  1  0
 49 39  1  0
 49 46  1  0
 50  7  1  0
 50 35  1  0
M  END
>  <ID>  (1) 
conformer_0

$$$$
