
     RDKit          3D

 40 39  0  0  0  0  0  0  0  0999 V2000
    5.1323  -36.9233    5.1038 C   0  0  0  0  0  0  0  0  0  0  0  0
    3.9505  -40.9670   -1.3394 C   0  0  0  0  0  0  0  0  0  0  0  0
    3.5573  -37.6290    3.1753 C   0  0  0  0  0  0  0  0  0  0  0  0
    1.2893  -40.8498   -0.1069 C   0  0  0  0  0  0  0  0  0  0  0  0
    0.0506  -40.2920    0.8856 C   0  0  0  0  0  0  0  0  0  0  0  0
    6.3854  -37.2594   -0.8499 C   0  0  0  0  0  0  0  0  0  0  0  0
    7.3835  -42.0041    3.2461 C   0  0  0  0  0  0  0  0  0  0  0  0
    2.1084  -37.9012    2.4174 C   0  0  0  0  0  0  0  0  0  0  0  0
    4.4806  -42.7824    0.2339 C   0  0  0  0  0  0  0  0  0  0  0  0
    7.3392  -36.5236    1.4250 C   0  0  2  0  0  0  0  0  0  0  0  0
   -0.5458  -41.4261    4.0676 C   0  0  1  0  0  0  0  0  0  0  0  0
    8.7317  -39.7664    0.8039 C   0  0  0  0  0  0  0  0  0  0  0  0
    3.0422  -41.0969   -0.5840 C   0  0  0  0  0  0  0  0  0  0  0  0
    5.1151  -36.5842    7.0479 C   0  0  0  0  0  0  0  0  0  0  0  0
    5.5409  -43.0633    2.2554 C   0  0  2  0  0  0  0  0  0  0  0  0
    7.5493  -36.7886   -0.7866 C   0  0  1  0  0  0  0  0  0  0  0  0
    2.0060  -37.8821    3.4262 C   0  0  1  0  0  0  0  0  0  0  0  0
    7.2202  -41.4983    1.7237 C   0  0  0  0  0  0  0  0  0  0  0  0
    1.0747  -39.4008    4.1357 O   0  0  0  0  0  0  0  0  0  0  0  0
    7.0138  -35.4356    2.6969 O   0  0  0  0  0  0  0  0  0  0  0  0
    6.2402  -35.5188    9.3786 C   0  0  0  0  0  0  0  0  0  0  0  0
    9.8187  -40.2408   -0.2666 O   0  0  0  0  0  0  0  0  0  0  0  0
    5.1953  -43.9672    0.3626 O   0  0  0  0  0  0  0  0  0  0  0  0
    4.5101  -36.6948    9.2343 C   0  0  0  0  0  0  0  0  0  0  0  0
   -0.5624  -42.8435    3.4335 C   0  0  0  0  0  0  0  0  0  0  0  0
    5.3915  -36.6249    2.8484 C   0  0  2  0  0  0  0  0  0  0  0  0
    6.4617  -35.4263    9.6049 O   0  0  0  0  0  0  0  0  0  0  0  0
    7.9080  -38.6317    0.7891 N   0  0  0  0  0  0  0  0  0  0  0  0
    4.8276  -42.9637    2.7206 O   0  0  0  0  0  0  0  0  0  0  0  0
    0.8907  -43.4952    3.9484 C   0  0  0  0  0  0  0  0  0  0  0  0
    0.4814  -39.7094    4.0395 C   0  0  0  0  0  0  0  0  0  0  0  0
    8.4250  -42.1344    3.5074 C   0  0  0  0  0  0  0  0  0  0  0  0
    6.2315  -41.4716    0.9065 O   0  0  0  0  0  0  0  0  0  0  0  0
    4.5048  -37.9684    5.3060 C   0  0  0  0  0  0  0  0  0  0  0  0
    4.1574  -37.3024    7.7513 C   0  0  0  0  0  0  0  0  0  0  0  0
    8.4107  -36.1599    0.1914 C   0  0  0  0  0  0  0  0  0  0  0  0
    5.6987  -36.7435    2.1291 O   0  0  0  0  0  0  0  0  0  0  0  0
   -0.4157  -40.7588    2.0852 C   0  0  0  0  0  0  0  0  0  0  0  0
    7.7219  -38.2000    0.4084 C   0  0  0  0  0  0  0  0  0  0  0  0
    9.7417  -38.8729    1.5573 O   0  0  0  0  0  0  0  0  0  0  0  0
  5  4  1  0
 13  2  2  3
 13  4  1  0
 13  9  1  0
 14  1  1  0
 16  6  1  1
 17  3  1  0
 17  8  1  6
 18  7  1  0
 19 17  1  0
 10 20  1  1
 22 12  1  0
 23  9  1  0
 23 15  1  0
 24 21  1  0
 11 25  1  6
 26  1  1  0
 26  3  1  6
 27 21  2  0
 28 12  1  0
 15 29  1  6
 30 25  1  0
 31 11  1  0
 31 19  1  0
 32  7  1  0
 33 15  1  0
 33 18  1  0
 34  1  2  3
 35 14  1  0
 35 24  1  0
 36 10  1  0
 36 16  1  0
 37 10  1  0
 37 26  1  0
 38  5  1  0
 38 11  1  0
 39 16  1  0
 39 28  1  0
 40 12  1  0
M  END
>  <ID>  (1) 
conformer_0

$$$$
