
     RDKit          3D

 43 44  0  0  0  0  0  0  0  0999 V2000
    7.6182  -41.8265    3.2632 C   0  0  0  0  0  0  0  0  0  0  0  0
   -0.3535  -41.8058    3.0675 C   0  0  0  0  0  0  0  0  0  0  0  0
    1.1627  -40.7661   -0.1926 C   0  0  0  0  0  0  0  0  0  0  0  0
   -0.0174  -42.9789    4.0754 C   0  0  0  0  0  0  0  0  0  0  0  0
    4.3234  -36.7423    8.7179 C   0  0  1  0  0  0  0  0  0  0  0  0
    7.0686  -37.4114   -1.2897 C   0  0  0  0  0  0  0  0  0  0  0  0
    4.8137  -37.4536    4.5956 C   0  0  0  0  0  0  0  0  0  0  0  0
   -0.0397  -40.6673    2.4426 C   0  0  2  0  0  0  0  0  0  0  0  0
    2.7789  -38.0424    2.3484 C   0  0  0  0  0  0  0  0  0  0  0  0
    8.2076  -36.7011    1.3846 C   0  0  2  0  0  0  0  0  0  0  0  0
    5.1416  -42.7939    1.0703 C   0  0  0  0  0  0  0  0  0  0  0  0
    2.8440  -37.6516    4.1108 C   0  0  2  0  0  0  0  0  0  0  0  0
    7.5235  -38.0668    0.1280 C   0  0  0  0  0  0  0  0  0  0  0  0
    5.7740  -42.4922    2.9543 C   0  0  0  0  0  0  0  0  0  0  0  0
    4.3404  -37.7492    2.9968 C   0  0  2  0  0  0  0  0  0  0  0  0
    0.0561  -40.5545    0.9194 C   0  0  0  0  0  0  0  0  0  0  0  0
    6.6818  -35.2679    2.7290 O   0  0  0  0  0  0  0  0  0  0  0  0
    5.4740  -35.5917    9.3777 C   0  0  0  0  0  0  0  0  0  0  0  0
    9.3569  -39.9669   -0.1529 O   0  0  0  0  0  0  0  0  0  0  0  0
    6.9347  -36.3468   -0.6904 C   0  0  0  0  0  0  0  0  0  0  0  0
    6.6210  -34.7760    9.5504 O   0  0  0  0  0  0  0  0  0  0  0  0
    7.6954  -41.0451    1.8229 C   0  0  0  0  0  0  0  0  0  0  0  0
    0.8025  -43.2020    4.6391 C   0  0  0  0  0  0  0  0  0  0  0  0
    1.6335  -38.4027    4.5708 O   0  0  0  0  0  0  0  0  0  0  0  0
    5.2216  -44.1996    0.4847 O   0  0  0  0  0  0  0  0  0  0  0  0
    8.0218  -38.1988    0.9032 N   0  0  0  0  0  0  0  0  0  0  0  0
    5.2120  -35.8308    7.4252 C   0  0  0  0  0  0  0  0  0  0  0  0
    8.9305  -41.6024    3.5346 C   0  0  0  0  0  0  0  0  0  0  0  0
    2.4954  -41.2249   -0.8660 C   0  0  0  0  0  0  0  0  0  0  0  0
    6.2073  -36.7247    2.4693 C   0  0  0  0  0  0  0  0  0  0  0  0
    2.3003  -40.8522    4.4092 O   0  0  0  0  0  0  0  0  0  0  0  0
    4.9546  -36.9821    5.8045 C   0  0  0  0  0  0  0  0  0  0  0  0
    4.3398  -37.5901    7.3771 C   0  0  2  0  0  0  0  0  0  0  0  0
    8.6034  -35.8681    0.4154 C   0  0  0  0  0  0  0  0  0  0  0  0
    5.2015  -42.7122   -2.0588 O   0  0  0  0  0  0  0  0  0  0  0  0
    1.1639  -37.9283    3.6014 C   0  0  0  0  0  0  0  0  0  0  0  0
    6.9872  -33.9044    8.8052 C   0  0  0  0  0  0  0  0  0  0  0  0
    1.2472  -40.8870    4.0939 C   0  0  0  0  0  0  0  0  0  0  0  0
    3.7081  -40.8970   -0.9752 C   0  0  0  0  0  0  0  0  0  0  0  0
    4.5305  -42.7202   -0.5309 C   0  0  2  0  0  0  0  0  0  0  0  0
    5.4145  -42.5277    1.6477 O   0  0  0  0  0  0  0  0  0  0  0  0
    6.3128  -36.9444    2.2813 O   0  0  0  0  0  0  0  0  0  0  0  0
    8.7488  -39.3964    0.6737 C   0  0  0  0  0  0  0  0  0  0  0  0
  4  2  1  0
  8  2  1  6
 12  9  1  0
 13  6  1  0
 14  1  1  0
 15  7  1  1
 15  9  1  0
 15 12  1  0
 16  3  2  0
 16  8  1  0
  5 18  1  1
 20  6  1  0
 21 18  1  0
 22  1  1  0
 23  4  2  3
 12 24  1  1
 25 11  2  0
 26 10  1  0
 26 13  1  0
 27  5  1  0
 28  1  2  3
 29  3  2  0
 30 10  1  0
 30 15  1  0
 30 17  1  0
 32  7  1  0
 33  5  1  0
 33 27  1  0
 33 32  1  6
 10 34  1  6
 36 24  1  0
 37 21  1  0
 38  8  1  0
 38 31  2  0
 39 29  1  0
 40 11  1  0
 40 35  1  6
 40 39  1  0
 41 11  1  0
 41 14  1  0
 42 30  1  0
 43 19  2  0
 43 22  1  0
 43 26  1  0
M  END
>  <ID>  (1) 
conformer_0

$$$$
