
     RDKit          3D

 37 38  0  0  0  0  0  0  0  0999 V2000
    3.9101  -36.7925    8.8787 C   0  0  0  0  0  0  0  0  0  0  0  0
    0.2265  -40.5513   -0.2487 C   0  0  0  0  0  0  0  0  0  0  0  0
    4.8689  -37.9078    5.4158 C   0  0  0  0  0  0  0  0  0  0  0  0
    7.8540  -41.6213    2.5414 C   0  0  0  0  0  0  0  0  0  0  0  0
    2.2541  -38.1331    2.6763 C   0  0  0  0  0  0  0  0  0  0  0  0
    0.0764  -40.5240    1.5703 C   0  0  0  0  0  0  0  0  0  0  0  0
    7.0546  -37.0876   -0.9421 C   0  0  0  0  0  0  0  0  0  0  0  0
    1.2729  -40.7904   -0.8022 C   0  0  0  0  0  0  0  0  0  0  0  0
   -0.1779  -40.9522    3.2287 C   0  0  0  0  0  0  0  0  0  0  0  0
    5.9323  -42.3678    1.8171 C   0  0  0  0  0  0  0  0  0  0  0  0
    8.2550  -38.7145    0.3205 C   0  0  0  0  0  0  0  0  0  0  0  0
    8.0285  -40.8135    1.1763 C   0  0  0  0  0  0  0  0  0  0  0  0
    1.6804  -38.1684    3.7616 C   0  0  0  0  0  0  0  0  0  0  0  0
    2.3170  -41.5412   -0.8724 C   0  0  0  0  0  0  0  0  0  0  0  0
    6.8238  -34.5719    9.0854 C   0  0  0  0  0  0  0  0  0  0  0  0
    4.3939  -42.4831    0.4393 C   0  0  0  0  0  0  0  0  0  0  0  0
    4.1610  -37.3701    3.7149 C   0  0  0  0  0  0  0  0  0  0  0  0
    8.6580  -42.0044    3.9557 C   0  0  0  0  0  0  0  0  0  0  0  0
   -0.4519  -42.1895    3.8384 C   0  0  0  0  0  0  0  0  0  0  0  0
    6.3951  -35.9778    2.4029 O   0  0  0  0  0  0  0  0  0  0  0  0
    9.2836  -40.0746   -0.2611 O   0  0  0  0  0  0  0  0  0  0  0  0
    7.7228  -36.7794    1.0991 C   0  0  0  0  0  0  0  0  0  0  0  0
    7.4955  -36.3523   -0.4469 C   0  0  0  0  0  0  0  0  0  0  0  0
    4.8179  -43.6586    0.8409 O   0  0  0  0  0  0  0  0  0  0  0  0
    3.8112  -40.9483   -0.9804 C   0  0  0  0  0  0  0  0  0  0  0  0
    6.4296  -34.4985    9.4027 O   0  0  0  0  0  0  0  0  0  0  0  0
    5.6471  -36.5777    2.4464 C   0  0  0  0  0  0  0  0  0  0  0  0
    4.0814  -37.4788    7.4110 C   0  0  0  0  0  0  0  0  0  0  0  0
    5.2537  -36.6023    5.6391 C   0  0  0  0  0  0  0  0  0  0  0  0
    4.6898  -42.5906    3.1930 O   0  0  0  0  0  0  0  0  0  0  0  0
    9.3893  -38.7633    1.6310 O   0  0  0  0  0  0  0  0  0  0  0  0
    6.9585  -41.7743    4.1536 C   0  0  0  0  0  0  0  0  0  0  0  0
    0.7535  -43.0463    4.0062 C   0  0  0  0  0  0  0  0  0  0  0  0
    5.0895  -35.7952    9.3927 C   0  0  0  0  0  0  0  0  0  0  0  0
    5.0342  -36.3106    7.4881 C   0  0  0  0  0  0  0  0  0  0  0  0
    1.5381  -39.2036    4.2893 O   0  0  0  0  0  0  0  0  0  0  0  0
    3.6208  -37.0317    1.7362 C   0  0  0  0  0  0  0  0  0  0  0  0
  6  2  2  0
  8  2  1  0
  9  6  2  0
 10  4  1  0
 12  4  1  0
 13  5  1  0
 14  8  1  0
 17  3  1  0
 18  4  1  0
 19  9  1  0
 21 11  1  0
 21 12  1  0
 22 11  1  0
 22 20  1  0
 23  7  1  0
 23 22  1  0
 24 10  1  0
 24 16  1  0
 25 14  1  0
 25 16  1  0
 26 15  1  0
 27 17  1  0
 27 20  1  0
 28  1  1  0
 29  3  1  0
 30 10  2  0
 31 11  1  0
 32  4  1  0
 32 18  1  0
 33 19  1  0
 34  1  1  0
 34 26  1  0
 35  1  1  0
 35 28  1  0
 35 29  1  0
 36 13  2  0
 37  5  1  0
 37 17  1  0
M  END
>  <ID>  (1) 
conformer_0

$$$$
