
     RDKit          3D

 39 40  0  0  0  0  0  0  0  0999 V2000
   -0.2240  -41.3411    2.9059 C   0  0  0  0  0  0  0  0  0  0  0  0
    6.5342  -41.6914    3.9240 C   0  0  0  0  0  0  0  0  0  0  0  0
    0.9180  -40.5057   -0.1761 C   0  0  0  0  0  0  0  0  0  0  0  0
    7.0533  -37.1441   -1.1423 C   0  0  0  0  0  0  0  0  0  0  0  0
    4.2234  -36.7622    8.5265 C   0  0  0  0  0  0  0  0  0  0  0  0
    0.2999  -42.5908    3.8930 C   0  0  0  0  0  0  0  0  0  0  0  0
    3.1760  -37.6383    2.9035 C   0  0  0  0  0  0  0  0  0  0  0  0
    2.8260  -36.8857    1.8129 C   0  0  0  0  0  0  0  0  0  0  0  0
   -0.0593  -40.6425    0.9510 C   0  0  0  0  0  0  0  0  0  0  0  0
    7.7754  -36.8453    1.1389 C   0  0  1  0  0  0  0  0  0  0  0  0
    5.6218  -42.5834    2.3879 C   0  0  0  0  0  0  0  0  0  0  0  0
    4.6315  -37.5589    4.5145 C   0  0  2  0  0  0  0  0  0  0  0  0
    8.4473  -38.8842    0.6224 C   0  0  0  0  0  0  0  0  0  0  0  0
    1.0590  -43.8141    3.7824 C   0  0  0  0  0  0  0  0  0  0  0  0
    6.7657  -34.6126    8.1501 C   0  0  0  0  0  0  0  0  0  0  0  0
    8.1417  -42.1643    4.2982 C   0  0  0  0  0  0  0  0  0  0  0  0
    4.7777  -42.7297    0.4313 C   0  0  0  0  0  0  0  0  0  0  0  0
    2.0279  -38.3399    3.6649 C   0  0  2  0  0  0  0  0  0  0  0  0
    7.0115  -36.1493   -0.4193 C   0  0  1  0  0  0  0  0  0  0  0  0
    2.0235  -40.8914   -0.7123 C   0  0  0  0  0  0  0  0  0  0  0  0
    6.4097  -35.9904    2.3994 O   0  0  0  0  0  0  0  0  0  0  0  0
    4.4529  -37.3230    7.6419 C   0  0  1  0  0  0  0  0  0  0  0  0
    4.4690  -43.9141    0.6644 O   0  0  0  0  0  0  0  0  0  0  0  0
    8.9777  -39.8501   -0.3107 O   0  0  0  0  0  0  0  0  0  0  0  0
    6.2721  -41.7276    0.8144 O   0  0  0  0  0  0  0  0  0  0  0  0
    7.0178  -35.0703    8.9695 O   0  0  0  0  0  0  0  0  0  0  0  0
    1.7908  -39.1405    4.2599 O   0  0  0  0  0  0  0  0  0  0  0  0
    7.7164  -40.9486    1.5160 C   0  0  2  0  0  0  0  0  0  0  0  0
    3.5366  -41.4080   -1.0490 C   0  0  0  0  0  0  0  0  0  0  0  0
    4.8002  -37.3474    5.9346 C   0  0  2  0  0  0  0  0  0  0  0  0
    5.2771  -36.5642    3.0143 C   0  0  0  0  0  0  0  0  0  0  0  0
    5.4806  -35.9486    6.6903 C   0  0  0  0  0  0  0  0  0  0  0  0
    9.7708  -38.8639    1.7490 O   0  0  0  0  0  0  0  0  0  0  0  0
    4.1467  -40.2343   -1.2898 C   0  0  0  0  0  0  0  0  0  0  0  0
    0.6385  -39.8257    2.1482 C   0  0  2  0  0  0  0  0  0  0  0  0
    5.3727  -35.9555    9.2616 C   0  0  0  0  0  0  0  0  0  0  0  0
    8.6300  -35.9013    0.4066 C   0  0  0  0  0  0  0  0  0  0  0  0
    8.5912  -41.6329    3.3164 C   0  0  0  0  0  0  0  0  0  0  0  0
    4.3476  -42.8333    2.5832 O   0  0  0  0  0  0  0  0  0  0  0  0
  6  1  1  0
  8  7  2  3
  9  3  1  0
 11  2  1  0
 12  7  1  0
 13 10  1  0
 14  6  1  0
 16  2  1  0
 18  7  1  0
 19  4  1  6
 19 10  1  0
 20  3  1  0
 10 21  1  1
 22  5  1  6
 23 17  2  0
 24 13  1  0
 25 17  1  0
 26 15  1  0
 18 27  1  1
 28 13  1  0
 28 25  1  0
 29 20  1  0
 30 12  1  0
 30 22  1  0
 12 31  1  6
 31 21  1  0
 32 22  1  0
 30 32  1  6
 33 13  1  0
 34 29  1  0
 35  1  1  1
 35  9  1  0
 35 18  1  0
 36  5  1  0
 36 26  1  0
 37 10  1  0
 37 19  1  0
 38 16  1  0
 28 38  1  1
 39 11  1  0
M  END
>  <ID>  (1) 
conformer_0

$$$$
