
     RDKit          3D

 45 50  0  0  0  0  0  0  0  0999 V2000
    0.1098  -40.7288    0.1293 C   0  0  0  0  0  0  0  0  0  0  0  0
    4.6144  -38.3483    5.0178 C   0  0  0  0  0  0  0  0  0  0  0  0
    1.4251  -40.7461   -0.3966 C   0  0  0  0  0  0  0  0  0  0  0  0
   -0.1623  -40.9739    2.0561 C   0  0  0  0  0  0  0  0  0  0  0  0
    7.0403  -42.4143    3.6897 C   0  0  1  0  0  0  0  0  0  0  0  0
    4.3034  -37.7315    3.3984 C   0  0  2  0  0  0  0  0  0  0  0  0
    6.9140  -37.6235   -1.2693 C   0  0  0  0  0  0  0  0  0  0  0  0
    6.6331  -41.6812    1.7596 C   0  0  0  0  0  0  0  0  0  0  0  0
    0.5517  -39.9724    1.6891 C   0  0  0  0  0  0  0  0  0  0  0  0
    8.6746  -37.4562    1.0151 C   0  0  2  0  0  0  0  0  0  0  0  0
    2.5536  -41.5204   -0.8041 C   0  0  0  0  0  0  0  0  0  0  0  0
    5.1426  -37.0365    5.0150 C   0  0  1  0  0  0  0  0  0  0  0  0
    7.0845  -38.5596    0.2735 C   0  0  0  0  0  0  0  0  0  0  0  0
   -0.2422  -41.6696    3.4513 C   0  0  0  0  0  0  0  0  0  0  0  0
    5.1092  -43.0743    0.9357 C   0  0  0  0  0  0  0  0  0  0  0  0
    6.7573  -36.6692   -0.4998 C   0  0  0  0  0  0  0  0  0  0  0  0
    4.3359  -36.0989   10.2807 C   0  0  0  0  0  0  0  0  0  0  0  0
    7.8632  -41.3780    2.4880 C   0  0  2  0  0  0  0  0  0  0  0  0
    9.3218  -39.8882   -0.1765 O   0  0  0  0  0  0  0  0  0  0  0  0
    6.4271  -35.4487    2.8207 O   0  0  0  0  0  0  0  0  0  0  0  0
    4.3740  -38.0115    7.3193 C   0  0  0  0  0  0  0  0  0  0  0  0
    6.0377  -40.9398    0.7727 O   0  0  0  0  0  0  0  0  0  0  0  0
    1.7600  -38.2615    3.4406 C   0  0  0  0  0  0  0  0  0  0  0  0
    5.1749  -36.6790    3.1320 C   0  0  2  0  0  0  0  0  0  0  0  0
    6.1721  -34.9647    9.0418 O   0  0  0  0  0  0  0  0  0  0  0  0
    3.7047  -40.8380   -0.9950 C   0  0  0  0  0  0  0  0  0  0  0  0
    4.1083  -42.7650    3.2486 O   0  0  0  0  0  0  0  0  0  0  0  0
    6.8568  -33.9061    8.2641 C   0  0  0  0  0  0  0  0  0  0  0  0
    3.4815  -36.8433    9.2893 C   0  0  0  0  0  0  0  0  0  0  0  0
    4.9120  -43.9068    1.0944 O   0  0  0  0  0  0  0  0  0  0  0  0
    6.2006  -37.3639    2.0040 O   0  0  0  0  0  0  0  0  0  0  0  0
   -0.1367  -43.1449    3.6617 C   0  0  0  0  0  0  0  0  0  0  0  0
    7.9173  -38.4442    0.8890 N   0  0  0  0  0  0  0  0  0  0  0  0
    7.3269  -36.2740    1.7397 C   0  0  2  0  0  0  0  0  0  0  0  0
    4.7413  -36.7269    8.2304 C   0  0  2  0  0  0  0  0  0  0  0  0
    5.3939  -43.0527    3.1493 C   0  0  0  0  0  0  0  0  0  0  0  0
    8.0433  -36.0480    0.2151 C   0  0  1  0  0  0  0  0  0  0  0  0
    1.9323  -38.3924    2.7587 C   0  0  0  0  0  0  0  0  0  0  0  0
    8.5975  -42.0883    3.6582 C   0  0  0  0  0  0  0  0  0  0  0  0
    1.1161  -43.3246    4.4766 C   0  0  0  0  0  0  0  0  0  0  0  0
    5.2288  -36.5079    6.6575 C   0  0  2  0  0  0  0  0  0  0  0  0
    4.7466  -41.8639   -0.0954 C   0  0  2  0  0  0  0  0  0  0  0  0
    8.5635  -39.7928    0.8141 C   0  0  0  0  0  0  0  0  0  0  0  0
    3.1097  -37.0641    2.0402 C   0  0  0  0  0  0  0  0  0  0  0  0
    5.9013  -35.7349    8.9916 C   0  0  0  0  0  0  0  0  0  0  0  0
  3  1  1  0
  6  2  1  0
  9  1  1  0
  9  4  2  3
 11  3  2  3
 12  2  1  1
 13  7  1  0
 14  4  1  0
 16  7  1  0
 18  5  1  0
 18  8  1  6
 22  8  1  0
 24  6  1  0
 24 12  1  0
 24 20  1  6
 26 11  1  0
 28 25  1  0
 29 17  1  0
 30 15  2  0
 31 24  1  0
 32 14  1  0
 10 33  1  6
 33 13  1  0
 34 10  1  0
 34 20  1  1
 34 31  1  0
 35 21  1  0
 35 29  1  6
  5 36  1  6
 36 27  1  0
 37 10  1  0
 37 16  1  6
 37 34  1  0
 38  9  1  0
 38 23  2  3
 39  5  1  0
 39 18  1  0
 40 32  1  0
 41 12  1  0
 41 21  1  1
 41 35  1  0
 42 15  1  0
 42 22  1  0
 42 26  1  1
 43 19  1  0
 43 33  1  0
  6 44  1  1
 44 38  1  0
 45 25  1  0
 45 35  1  0
M  END
>  <ID>  (1) 
conformer_0

$$$$
