
     RDKit          3D

 41 41  0  0  0  0  0  0  0  0999 V2000
    3.2770  -41.6026   -1.1346 C   0  0  2  0  0  0  0  0  0  0  0  0
    4.2045  -36.7848    8.9027 C   0  0  0  0  0  0  0  0  0  0  0  0
    0.1936  -41.0473    2.7073 C   0  0  0  0  0  0  0  0  0  0  0  0
    4.7849  -37.6501    4.1915 C   0  0  2  0  0  0  0  0  0  0  0  0
    0.0500  -42.5238    3.4287 C   0  0  0  0  0  0  0  0  0  0  0  0
    4.8877  -37.6128    5.5011 C   0  0  0  0  0  0  0  0  0  0  0  0
    6.6215  -41.8904    3.8700 C   0  0  0  0  0  0  0  0  0  0  0  0
    6.9241  -37.1198   -1.0276 C   0  0  0  0  0  0  0  0  0  0  0  0
    4.5580  -43.0437    0.5941 C   0  0  0  0  0  0  0  0  0  0  0  0
    7.6913  -37.9777    0.3671 C   0  0  0  0  0  0  0  0  0  0  0  0
    2.0317  -40.4192   -1.4391 C   0  0  0  0  0  0  0  0  0  0  0  0
    7.9979  -36.4392    1.6356 C   0  0  0  0  0  0  0  0  0  0  0  0
    5.1739  -36.0910   10.2384 C   0  0  0  0  0  0  0  0  0  0  0  0
    8.5476  -42.1711    4.1980 C   0  0  0  0  0  0  0  0  0  0  0  0
    4.5592  -37.4854    7.7463 C   0  0  0  0  0  0  0  0  0  0  0  0
    2.5577  -37.2174    3.3798 C   0  0  0  0  0  0  0  0  0  0  0  0
    5.7304  -42.7985    2.6745 C   0  0  0  0  0  0  0  0  0  0  0  0
   -0.1783  -40.3612    1.8195 C   0  0  0  0  0  0  0  0  0  0  0  0
    5.3600  -36.6453    2.8809 C   0  0  0  0  0  0  0  0  0  0  0  0
    6.3086  -35.9983    2.4681 O   0  0  0  0  0  0  0  0  0  0  0  0
    7.5553  -36.2575   -0.3004 C   0  0  0  0  0  0  0  0  0  0  0  0
    6.4508  -35.4451    9.8524 O   0  0  0  0  0  0  0  0  0  0  0  0
    5.5175  -42.8591    0.8475 O   0  0  0  0  0  0  0  0  0  0  0  0
    8.8820  -40.1677   -0.0785 O   0  0  0  0  0  0  0  0  0  0  0  0
    1.1549  -38.5571    3.7360 O   0  0  0  0  0  0  0  0  0  0  0  0
    6.0520  -40.7332   -0.2923 O   0  0  0  0  0  0  0  0  0  0  0  0
    8.8593  -39.2639    0.7109 C   0  0  0  0  0  0  0  0  0  0  0  0
    1.0400  -43.0013    4.1105 C   0  0  0  0  0  0  0  0  0  0  0  0
    3.2817  -37.6681    2.6486 C   0  0  1  0  0  0  0  0  0  0  0  0
    9.5209  -38.6790    1.7943 O   0  0  0  0  0  0  0  0  0  0  0  0
    4.7246  -41.3900   -0.2181 C   0  0  1  0  0  0  0  0  0  0  0  0
    7.9542  -41.6602    2.9893 C   0  0  0  0  0  0  0  0  0  0  0  0
    2.7985  -37.0990    1.6330 C   0  0  0  0  0  0  0  0  0  0  0  0
    3.9178  -39.9201   -1.1385 C   0  0  0  0  0  0  0  0  0  0  0  0
    0.7097  -38.7959    3.2514 C   0  0  0  0  0  0  0  0  0  0  0  0
    6.4691  -34.9230    9.4031 C   0  0  0  0  0  0  0  0  0  0  0  0
    4.6021  -43.7663    2.3678 O   0  0  0  0  0  0  0  0  0  0  0  0
    7.8367  -41.1050    1.5462 C   0  0  0  0  0  0  0  0  0  0  0  0
    1.3125  -40.7269   -0.0771 C   0  0  0  0  0  0  0  0  0  0  0  0
   -0.2656  -40.2806    0.1411 C   0  0  0  0  0  0  0  0  0  0  0  0
    4.9950  -36.5043    6.7120 C   0  0  0  0  0  0  0  0  0  0  0  0
  5  3  1  0
  4  6  1  1
 10  8  1  0
  1 11  1  1
 13  2  1  0
 15  2  1  0
 17  7  1  0
 18  3  1  0
 19  4  1  0
 20 12  1  0
 20 19  1  0
 21  8  1  0
 21 12  1  0
 22 13  1  0
 23  9  1  0
 23 17  1  0
 25 16  1  0
 27 10  1  0
 27 24  1  0
 28  5  2  3
 29  4  1  0
 29 16  1  0
 30 27  2  0
 31  1  1  0
 31  9  1  0
 31 26  1  6
 32  7  1  0
 32 14  1  0
 29 33  1  6
 34  1  1  0
 34 31  1  0
 35 25  1  0
 36 22  1  0
 37 17  2  0
 38 24  1  0
 38 32  1  0
 39 11  1  0
 40 18  1  0
 40 39  1  0
 41  6  1  0
 41 15  1  0
M  END
>  <ID>  (1) 
conformer_0

$$$$
