
     RDKit          3D

 50 55  0  0  0  0  0  0  0  0999 V2000
    2.4667  -38.0253    2.7498 C   0  0  0  0  0  0  0  0  0  0  0  0
   -0.2853  -40.9870    1.7997 C   0  0  0  0  0  0  0  0  0  0  0  0
    4.5045  -37.5130    8.0081 C   0  0  0  0  0  0  0  0  0  0  0  0
    1.9158  -40.3568   -1.6282 C   0  0  0  0  0  0  0  0  0  0  0  0
    7.6559  -37.5492   -1.3191 C   0  0  0  0  0  0  0  0  0  0  0  0
    0.5795  -39.5959    2.0579 C   0  0  0  0  0  0  0  0  0  0  0  0
    6.1607  -41.7720    4.5343 C   0  0  0  0  0  0  0  0  0  0  0  0
    5.0736  -36.3609    8.1028 C   0  0  0  0  0  0  0  0  0  0  0  0
    8.8135  -39.5737    0.8119 C   0  0  0  0  0  0  0  0  0  0  0  0
    4.3942  -43.6002   -0.3158 C   0  0  0  0  0  0  0  0  0  0  0  0
    7.5787  -38.5417    0.0479 C   0  0  0  0  0  0  0  0  0  0  0  0
    1.7455  -40.8582   -0.0271 C   0  0  0  0  0  0  0  0  0  0  0  0
    7.2035  -35.2332   10.7003 C   0  0  0  0  0  0  0  0  0  0  0  0
    0.3252  -43.0954    2.8734 C   0  0  0  0  0  0  0  0  0  0  0  0
    7.8015  -41.0497    1.6356 C   0  0  0  0  0  0  0  0  0  0  0  0
    4.6280  -37.6767    6.0556 C   0  0  0  0  0  0  0  0  0  0  0  0
    0.4947  -39.1110    3.0836 C   0  0  0  0  0  0  0  0  0  0  0  0
    7.1715  -41.9667    2.7659 C   0  0  0  0  0  0  0  0  0  0  0  0
    6.5830  -35.7823    2.7053 O   0  0  0  0  0  0  0  0  0  0  0  0
    8.3878  -36.8372    0.9827 C   0  0  0  0  0  0  0  0  0  0  0  0
    9.4948  -40.0284   -0.1246 O   0  0  0  0  0  0  0  0  0  0  0  0
    6.7240  -36.5167   -0.8064 C   0  0  0  0  0  0  0  0  0  0  0  0
    5.3402  -43.1015    2.0848 O   0  0  0  0  0  0  0  0  0  0  0  0
    7.0288  -36.1897    1.9915 C   0  0  0  0  0  0  0  0  0  0  0  0
    7.0972  -34.9815    9.4120 O   0  0  0  0  0  0  0  0  0  0  0  0
    3.3016  -41.5546   -1.0456 C   0  0  0  0  0  0  0  0  0  0  0  0
    4.2705  -37.5960    3.6008 C   0  0  0  0  0  0  0  0  0  0  0  0
    0.1121  -39.9336   -0.2363 C   0  0  0  0  0  0  0  0  0  0  0  0
    7.9448  -38.5889    0.8851 N   0  0  0  0  0  0  0  0  0  0  0  0
    5.0405  -43.5753   -0.1302 O   0  0  0  0  0  0  0  0  0  0  0  0
    6.1664  -40.7798    0.5190 O   0  0  0  0  0  0  0  0  0  0  0  0
    3.7376  -42.0979    4.0632 O   0  0  0  0  0  0  0  0  0  0  0  0
    5.2534  -36.7747    5.1298 C   0  0  0  0  0  0  0  0  0  0  0  0
    9.4561  -38.1124    1.9811 O   0  0  0  0  0  0  0  0  0  0  0  0
    4.5364  -41.7176   -0.2146 C   0  0  0  0  0  0  0  0  0  0  0  0
    5.1875  -36.5698    3.4859 C   0  0  0  0  0  0  0  0  0  0  0  0
    3.0141  -37.0615    1.6742 C   0  0  0  0  0  0  0  0  0  0  0  0
    7.9571  -42.4702    4.4750 C   0  0  0  0  0  0  0  0  0  0  0  0
    6.8815  -34.6048    8.4164 C   0  0  0  0  0  0  0  0  0  0  0  0
    3.9958  -40.1586   -1.3563 C   0  0  0  0  0  0  0  0  0  0  0  0
    2.3253  -37.5973    3.4309 C   0  0  0  0  0  0  0  0  0  0  0  0
    5.4044  -35.8681    6.6379 C   0  0  0  0  0  0  0  0  0  0  0  0
    5.4920  -35.9960    9.4029 C   0  0  0  0  0  0  0  0  0  0  0  0
    7.9929  -35.9474   -0.0086 C   0  0  0  0  0  0  0  0  0  0  0  0
    5.5360  -42.7662    3.0813 C   0  0  0  0  0  0  0  0  0  0  0  0
   -0.2770  -41.2228    3.2446 C   0  0  0  0  0  0  0  0  0  0  0  0
   -0.1805  -42.8044    4.2355 C   0  0  0  0  0  0  0  0  0  0  0  0
    8.8482  -41.7955    3.2856 C   0  0  0  0  0  0  0  0  0  0  0  0
    6.0119  -41.6531    1.2766 C   0  0  0  0  0  0  0  0  0  0  0  0
    1.3687  -43.3698    4.4702 C   0  0  0  0  0  0  0  0  0  0  0  0
  6  2  1  0
  8  3  2  0
 11  5  1  0
 12  4  1  0
 15  9  1  0
 16  3  1  0
 17  1  1  0
 17  6  1  0
 18 15  1  0
 21  9  1  0
 22  5  1  0
 24 19  1  0
 24 20  1  0
 25 13  1  0
 26  4  1  0
 28  2  1  0
 28 12  1  0
 29  9  1  0
 29 11  1  0
 29 20  1  0
 30 10  1  0
 33 16  1  0
 34 20  1  0
 35 10  1  0
 35 26  1  0
 36 19  1  0
 36 27  1  0
 36 33  1  0
 37  1  1  0
 38  7  1  0
 39 25  1  0
 40 26  1  0
 41  1  1  0
 41 27  1  0
 42  8  1  0
 42 33  2  0
 43  8  1  0
 43 39  1  0
 44 20  1  0
 44 22  1  0
 45  7  1  0
 45 18  1  0
 45 23  1  0
 45 32  1  0
 46  2  1  0
 47 14  1  0
 47 46  1  0
 48 18  1  0
 48 38  1  0
 49 15  1  0
 49 18  1  0
 49 23  1  0
 49 31  1  0
 50 14  1  0
 50 47  1  0
M  END
>  <ID>  (1) 
conformer_0

$$$$
