
     RDKit          3D

 50 56  0  0  0  0  0  0  0  0999 V2000
    7.1652  -37.4116   -1.2719 C   0  0  0  0  0  0  0  0  0  0  0  0
    4.1952  -37.9624    7.1900 C   0  0  0  0  0  0  0  0  0  0  0  0
    4.2696  -37.2514    3.7260 C   0  0  0  0  0  0  0  0  0  0  0  0
    1.1649  -39.5971    0.7557 C   0  0  0  0  0  0  0  0  0  0  0  0
    2.5234  -37.7477    2.7220 C   0  0  0  0  0  0  0  0  0  0  0  0
   -0.0519  -40.6567    2.3888 C   0  0  0  0  0  0  0  0  0  0  0  0
    6.7851  -42.2364    3.6022 C   0  0  0  0  0  0  0  0  0  0  0  0
    2.9410  -40.7929   -0.1599 C   0  0  0  0  0  0  0  0  0  0  0  0
    8.8701  -39.9369    1.1364 C   0  0  0  0  0  0  0  0  0  0  0  0
    0.2747  -43.2638    4.3999 C   0  0  0  0  0  0  0  0  0  0  0  0
    6.8915  -41.1467    1.5428 C   0  0  0  0  0  0  0  0  0  0  0  0
    8.0066  -38.6178    0.0614 C   0  0  0  0  0  0  0  0  0  0  0  0
    1.7755  -37.6902    3.7219 C   0  0  0  0  0  0  0  0  0  0  0  0
    4.2729  -37.2091    8.3713 C   0  0  0  0  0  0  0  0  0  0  0  0
    5.2076  -35.9847    9.2553 C   0  0  0  0  0  0  0  0  0  0  0  0
    4.6625  -41.5608   -0.1157 C   0  0  0  0  0  0  0  0  0  0  0  0
    3.9398  -40.6140   -1.5486 C   0  0  0  0  0  0  0  0  0  0  0  0
    5.6065  -36.5082    2.2287 O   0  0  0  0  0  0  0  0  0  0  0  0
    8.7071  -41.9260    3.4439 C   0  0  0  0  0  0  0  0  0  0  0  0
    9.2313  -39.8746   -0.4748 O   0  0  0  0  0  0  0  0  0  0  0  0
    6.5020  -36.4536   -0.5461 C   0  0  0  0  0  0  0  0  0  0  0  0
    5.3850  -43.7283    0.7359 O   0  0  0  0  0  0  0  0  0  0  0  0
    1.2471  -38.1361    4.3319 O   0  0  0  0  0  0  0  0  0  0  0  0
    1.7149  -35.7305    3.6892 O   0  0  0  0  0  0  0  0  0  0  0  0
    6.4609  -35.1762    9.0132 O   0  0  0  0  0  0  0  0  0  0  0  0
    6.8132  -36.3069    1.7178 C   0  0  0  0  0  0  0  0  0  0  0  0
    0.8703  -43.2688    3.2048 C   0  0  0  0  0  0  0  0  0  0  0  0
    2.7079  -41.5901    4.4877 O   0  0  0  0  0  0  0  0  0  0  0  0
    4.7940  -36.8268    3.1300 C   0  0  0  0  0  0  0  0  0  0  0  0
    4.7120  -37.7222    5.3093 C   0  0  0  0  0  0  0  0  0  0  0  0
    5.3686  -36.5134    5.5357 C   0  0  0  0  0  0  0  0  0  0  0  0
    9.7758  -38.8069    1.6638 O   0  0  0  0  0  0  0  0  0  0  0  0
    5.9872  -40.8049    0.6501 O   0  0  0  0  0  0  0  0  0  0  0  0
    2.5233  -42.3038   -0.4604 C   0  0  0  0  0  0  0  0  0  0  0  0
    1.3153  -41.2752    4.0981 C   0  0  0  0  0  0  0  0  0  0  0  0
    5.2044  -36.3678    7.1887 C   0  0  0  0  0  0  0  0  0  0  0  0
    7.9117  -38.5072    0.8994 N   0  0  0  0  0  0  0  0  0  0  0  0
    4.8518  -42.5411    2.4121 O   0  0  0  0  0  0  0  0  0  0  0  0
    5.1317  -43.1617    0.6935 C   0  0  0  0  0  0  0  0  0  0  0  0
   -0.1848  -41.0771    4.1508 C   0  0  0  0  0  0  0  0  0  0  0  0
    5.8244  -42.7162    2.7439 C   0  0  0  0  0  0  0  0  0  0  0  0
    8.1206  -36.1119   -0.0596 C   0  0  0  0  0  0  0  0  0  0  0  0
    8.0050  -41.4478    2.3988 C   0  0  0  0  0  0  0  0  0  0  0  0
    6.7057  -34.7487    8.6887 C   0  0  0  0  0  0  0  0  0  0  0  0
    3.0747  -37.1563    1.6213 C   0  0  0  0  0  0  0  0  0  0  0  0
   -0.8767  -42.1186    2.9431 C   0  0  0  0  0  0  0  0  0  0  0  0
    6.8018  -35.3214    2.2853 O   0  0  0  0  0  0  0  0  0  0  0  0
    0.3181  -41.1532    0.8326 C   0  0  0  0  0  0  0  0  0  0  0  0
    1.3151  -40.6695   -0.7836 C   0  0  0  0  0  0  0  0  0  0  0  0
    8.2569  -36.9107    1.0430 C   0  0  0  0  0  0  0  0  0  0  0  0
  5  3  1  0
 13  5  1  0
 14  2  1  0
 15 14  1  0
 16  8  1  0
 17  8  1  0
 17 16  1  0
 20  9  1  0
 20 12  1  0
 21  1  1  0
 23 13  1  0
 24 13  1  0
 25 15  1  0
 26 18  1  0
 27 10  1  0
 29  3  1  0
 29 18  1  0
 30  2  1  0
 30  3  1  0
 31 30  1  0
 32  9  1  0
 33 11  1  0
 33 16  1  0
 34  8  1  0
 35 13  1  0
 35 28  1  0
 36  2  1  0
 36 14  1  0
 36 31  1  0
 37  9  1  0
 37 12  1  0
 39 16  1  0
 39 22  2  0
 39 38  1  0
 40  6  1  0
 40 35  1  0
 41  7  1  0
 41 38  1  0
 42 21  1  0
 43  7  1  0
 43 11  1  0
 43 19  1  0
 44 25  1  0
 45  5  1  0
 46  6  1  0
 46 27  1  0
 46 40  1  0
 47 26  2  0
 48  4  1  0
 48  6  1  0
 49  4  1  0
 49  8  1  0
 49 48  1  0
 50 26  1  0
 50 37  1  0
 50 42  1  0
M  END
>  <ID>  (1) 
conformer_0

$$$$
