
     RDKit          3D

 39 38  0  0  0  0  0  0  0  0999 V2000
    3.2265  -41.0179   -0.6178 C   0  0  2  0  0  0  0  0  0  0  0  0
    1.5192  -40.6588   -1.0028 C   0  0  0  0  0  0  0  0  0  0  0  0
    7.6760  -42.0999    4.0255 C   0  0  0  0  0  0  0  0  0  0  0  0
    0.5731  -40.5343    0.2021 C   0  0  0  0  0  0  0  0  0  0  0  0
    3.8417  -37.3578    3.0973 C   0  0  1  0  0  0  0  0  0  0  0  0
    4.5514  -37.9691    7.3285 C   0  0  0  0  0  0  0  0  0  0  0  0
    6.9670  -37.0831   -0.9422 C   0  0  0  0  0  0  0  0  0  0  0  0
    2.4876  -37.6397    2.1963 C   0  0  0  0  0  0  0  0  0  0  0  0
    8.3583  -38.7565    0.5697 C   0  0  0  0  0  0  0  0  0  0  0  0
    3.1632  -41.2554   -1.6438 C   0  0  0  0  0  0  0  0  0  0  0  0
    7.8465  -40.5659    1.3855 C   0  0  0  0  0  0  0  0  0  0  0  0
    5.4597  -42.6909    3.2429 C   0  0  2  0  0  0  0  0  0  0  0  0
    0.0139  -40.4721    1.6660 C   0  0  0  0  0  0  0  0  0  0  0  0
    4.5686  -37.3513    8.5479 C   0  0  0  0  0  0  0  0  0  0  0  0
    4.3747  -42.9087    0.1707 C   0  0  0  0  0  0  0  0  0  0  0  0
    6.7518  -35.0527    8.6707 C   0  0  0  0  0  0  0  0  0  0  0  0
    0.9202  -38.0186    3.1944 C   0  0  0  0  0  0  0  0  0  0  0  0
    7.1289  -35.3278    2.5157 O   0  0  0  0  0  0  0  0  0  0  0  0
   -0.4030  -41.1364    2.6315 C   0  0  0  0  0  0  0  0  0  0  0  0
    9.7561  -38.0242    2.2276 O   0  0  0  0  0  0  0  0  0  0  0  0
    5.8510  -41.8421    1.4711 C   0  0  1  0  0  0  0  0  0  0  0  0
    4.8336  -43.6928    0.4731 O   0  0  0  0  0  0  0  0  0  0  0  0
    6.4701  -35.3273    9.2835 O   0  0  0  0  0  0  0  0  0  0  0  0
    8.3091  -41.8827    3.4146 C   0  0  0  0  0  0  0  0  0  0  0  0
    4.7844  -37.5602    5.1175 C   0  0  0  0  0  0  0  0  0  0  0  0
    5.2779  -36.5007    5.4287 C   0  0  0  0  0  0  0  0  0  0  0  0
    4.7003  -42.4681    3.2365 O   0  0  0  0  0  0  0  0  0  0  0  0
    8.5235  -36.5899    1.4965 C   0  0  1  0  0  0  0  0  0  0  0  0
    7.6898  -36.1760   -0.2947 C   0  0  0  0  0  0  0  0  0  0  0  0
   -0.0261  -42.4551    3.3043 C   0  0  0  0  0  0  0  0  0  0  0  0
    7.9709  -38.0899    0.9649 N   0  0  0  0  0  0  0  0  0  0  0  0
    6.9476  -36.6648    1.2605 C   0  0  2  0  0  0  0  0  0  0  0  0
    9.3919  -39.8115    0.4735 O   0  0  0  0  0  0  0  0  0  0  0  0
    1.0909  -43.2864    3.8197 C   0  0  0  0  0  0  0  0  0  0  0  0
    5.9075  -36.8815    2.2399 O   0  0  0  0  0  0  0  0  0  0  0  0
    6.3467  -40.6809    0.9490 O   0  0  0  0  0  0  0  0  0  0  0  0
    5.2198  -36.2390    7.0888 C   0  0  0  0  0  0  0  0  0  0  0  0
    4.9773  -36.9612    2.9545 C   0  0  0  0  0  0  0  0  0  0  0  0
    5.2292  -36.1205    9.6252 C   0  0  0  0  0  0  0  0  0  0  0  0
  2  1  1  0
  4  2  2  0
  5  8  1  6
  1 10  1  6
 12  3  1  0
 13  4  2  0
 14  6  1  0
 15  1  1  0
 17  8  1  0
 19 13  1  0
 21 12  1  0
 21 15  1  0
 22 15  2  0
 23 16  1  0
 24  3  2  3
 25  5  1  0
 26 25  1  0
 12 27  1  1
 28 20  1  1
 29  7  1  0
 30 19  1  0
 31  9  1  0
 31 28  1  0
 32 18  1  1
 32 28  1  0
 32 29  1  0
 33  9  1  0
 33 11  1  0
 34 30  1  0
 35 32  1  0
 36 11  1  0
 21 36  1  1
 37  6  1  0
 37 26  1  0
 38  5  1  0
 38 35  1  0
 39 14  2  3
 39 23  1  0
M  END
>  <ID>  (1) 
conformer_0

$$$$
