
     RDKit          3D

 46 47  0  0  0  0  0  0  0  0999 V2000
    3.3939  -36.8272    8.7458 C   0  0  0  0  0  0  0  0  0  0  0  0
    6.9511  -37.5282   -1.3245 C   0  0  0  0  0  0  0  0  0  0  0  0
   -0.0516  -42.8385    4.3582 C   0  0  0  0  0  0  0  0  0  0  0  0
    0.6389  -40.2329    2.2906 C   0  0  0  0  0  0  0  0  0  0  0  0
   -0.5386  -42.4912    3.0735 C   0  0  0  0  0  0  0  0  0  0  0  0
    1.0350  -43.7886    3.5942 C   0  0  0  0  0  0  0  0  0  0  0  0
    7.3654  -41.9263    3.3252 C   0  0  0  0  0  0  0  0  0  0  0  0
    4.4336  -37.7892    6.8331 C   0  0  0  0  0  0  0  0  0  0  0  0
    7.9789  -38.4578    0.2216 C   0  0  0  0  0  0  0  0  0  0  0  0
    7.2433  -41.0567    1.5692 C   0  0  0  0  0  0  0  0  0  0  0  0
   -0.6387  -40.5287    1.1023 C   0  0  0  0  0  0  0  0  0  0  0  0
    5.8047  -42.2820    1.5524 C   0  0  1  0  0  0  0  0  0  0  0  0
    0.8415  -40.7630    0.1321 C   0  0  0  0  0  0  0  0  0  0  0  0
    6.9632  -36.3895   -0.7211 C   0  0  0  0  0  0  0  0  0  0  0  0
    4.2716  -42.8566   -0.0088 C   0  0  0  0  0  0  0  0  0  0  0  0
    3.6174  -37.3740    2.3143 C   0  0  1  0  0  0  0  0  0  0  0  0
    7.0754  -35.3215    2.4323 O   0  0  0  0  0  0  0  0  0  0  0  0
    6.5078  -34.7821    8.8361 C   0  0  0  0  0  0  0  0  0  0  0  0
    5.1021  -43.5265    3.1642 C   0  0  0  0  0  0  0  0  0  0  0  0
    1.7533  -37.7660    3.6900 C   0  0  0  0  0  0  0  0  0  0  0  0
    2.1359  -40.8084   -0.5885 C   0  0  0  0  0  0  0  0  0  0  0  0
    9.6469  -40.1572   -0.3468 O   0  0  0  0  0  0  0  0  0  0  0  0
    4.7302  -43.7091    2.6925 O   0  0  0  0  0  0  0  0  0  0  0  0
    2.4174  -37.8383    2.7697 C   0  0  0  0  0  0  0  0  0  0  0  0
    7.2429  -36.2256    1.6143 C   0  0  2  0  0  0  0  0  0  0  0  0
    4.8588  -43.4229    0.4253 O   0  0  0  0  0  0  0  0  0  0  0  0
    4.5068  -35.7859    9.9031 C   0  0  0  0  0  0  0  0  0  0  0  0
    8.5834  -41.9744    3.5695 C   0  0  0  0  0  0  0  0  0  0  0  0
    8.3369  -38.4212    0.7292 N   0  0  0  0  0  0  0  0  0  0  0  0
    0.9751  -38.4166    4.0567 O   0  0  0  0  0  0  0  0  0  0  0  0
    3.0419  -41.7425   -0.7700 C   0  0  1  0  0  0  0  0  0  0  0  0
    5.1972  -36.9266    2.9453 C   0  0  1  0  0  0  0  0  0  0  0  0
    4.5858  -36.7170    7.9651 C   0  0  1  0  0  0  0  0  0  0  0  0
    6.0370  -35.1011    9.2377 O   0  0  0  0  0  0  0  0  0  0  0  0
    8.2337  -36.0512    0.0432 C   0  0  1  0  0  0  0  0  0  0  0  0
    6.0969  -41.4483    0.6507 O   0  0  0  0  0  0  0  0  0  0  0  0
   -0.4661  -40.8968    3.5560 C   0  0  0  0  0  0  0  0  0  0  0  0
    9.9961  -39.0062    1.4898 O   0  0  0  0  0  0  0  0  0  0  0  0
    4.2603  -37.4889    4.0583 C   0  0  1  0  0  0  0  0  0  0  0  0
    6.1422  -36.9135    2.2361 O   0  0  0  0  0  0  0  0  0  0  0  0
    4.0736  -40.2117   -1.3030 C   0  0  0  0  0  0  0  0  0  0  0  0
    8.8389  -39.8874    0.8778 C   0  0  0  0  0  0  0  0  0  0  0  0
    8.8332  -36.8692    1.1651 C   0  0  1  0  0  0  0  0  0  0  0  0
    0.4490  -39.4523    3.2138 C   0  0  2  0  0  0  0  0  0  0  0  0
    4.9416  -36.7116    5.2597 C   0  0  0  0  0  0  0  0  0  0  0  0
    5.3332  -35.9126    6.6643 C   0  0  0  0  0  0  0  0  0  0  0  0
  5  3  1  0
  6  3  1  0
 10  7  1  0
 11  4  1  0
 13 11  1  0
 14  2  2  3
 12 19  1  1
 21 13  1  0
 23 19  1  0
 16 24  1  1
 24 20  1  0
 25 17  1  1
 26 12  1  0
 26 15  1  0
 27  1  1  0
 28  7  1  0
 29  9  1  0
 30 20  1  0
 31 15  1  0
 31 21  1  0
 32 16  1  0
 33  1  1  0
 33  8  1  6
 34 18  1  0
 34 27  1  0
 35 14  1  6
 35 25  1  0
 36 10  1  0
 36 12  1  0
 37  5  1  0
 39 16  1  0
 39 32  1  0
 40 25  1  0
 32 40  1  6
 31 41  1  6
 42 22  1  0
 42 29  1  0
 42 38  1  0
 43 25  1  0
 43 29  1  6
 43 35  1  0
 44  4  1  1
 44 30  1  0
 44 37  1  0
 39 45  1  1
 46 33  1  0
 46 45  1  0
M  END
>  <ID>  (1) 
conformer_0

$$$$
