
     RDKit          3D

 43 43  0  0  0  0  0  0  0  0999 V2000
    3.9457  -40.6637   -0.9401 C   0  0  0  0  0  0  0  0  0  0  0  0
    7.4888  -41.6930    3.0551 C   0  0  0  0  0  0  0  0  0  0  0  0
    4.1213  -36.9529    8.7724 C   0  0  0  0  0  0  0  0  0  0  0  0
    0.3157  -40.1086    2.4386 C   0  0  2  0  0  0  0  0  0  0  0  0
    2.9585  -37.7973    3.0681 C   0  0  1  0  0  0  0  0  0  0  0  0
    1.3989  -41.0893   -0.9714 C   0  0  0  0  0  0  0  0  0  0  0  0
    6.6913  -37.6593   -1.5201 C   0  0  0  0  0  0  0  0  0  0  0  0
    4.7546  -37.5222    4.1978 C   0  0  1  0  0  0  0  0  0  0  0  0
    8.3042  -36.7319    1.3084 C   0  0  0  0  0  0  0  0  0  0  0  0
    2.8940  -41.5066   -0.9103 C   0  0  0  0  0  0  0  0  0  0  0  0
    7.7735  -40.7168    1.4263 C   0  0  0  0  0  0  0  0  0  0  0  0
    4.4526  -37.3789    7.6125 C   0  0  0  0  0  0  0  0  0  0  0  0
    5.0535  -41.5915    0.2176 C   0  0  2  0  0  0  0  0  0  0  0  0
    5.2047  -35.9921    9.8658 C   0  0  0  0  0  0  0  0  0  0  0  0
    2.1139  -37.5710    3.6855 C   0  0  1  0  0  0  0  0  0  0  0  0
   -0.6454  -41.3974    3.1584 C   0  0  0  0  0  0  0  0  0  0  0  0
    6.4595  -35.9514    2.6010 O   0  0  0  0  0  0  0  0  0  0  0  0
    6.8662  -36.5233   -0.8343 C   0  0  0  0  0  0  0  0  0  0  0  0
    9.5893  -39.6580   -0.0618 O   0  0  0  0  0  0  0  0  0  0  0  0
    5.5769  -35.7176    6.9754 C   0  0  0  0  0  0  0  0  0  0  0  0
    8.4564  -42.0007    3.6724 C   0  0  0  0  0  0  0  0  0  0  0  0
    6.9819  -34.9577    8.8294 O   0  0  0  0  0  0  0  0  0  0  0  0
    5.2630  -43.4633    2.7210 O   0  0  0  0  0  0  0  0  0  0  0  0
    6.7401  -39.8740    0.3699 O   0  0  0  0  0  0  0  0  0  0  0  0
    5.8187  -42.8431    2.7114 C   0  0  0  0  0  0  0  0  0  0  0  0
    4.1976  -43.9886    0.3513 O   0  0  0  0  0  0  0  0  0  0  0  0
    0.0092  -42.3261    4.1920 C   0  0  0  0  0  0  0  0  0  0  0  0
    5.4981  -36.6116    3.1790 C   0  0  0  0  0  0  0  0  0  0  0  0
    5.0370  -37.0456    5.8659 C   0  0  0  0  0  0  0  0  0  0  0  0
    7.2872  -38.0630    0.1232 C   0  0  1  0  0  0  0  0  0  0  0  0
    8.1590  -38.3524    0.7014 N   0  0  0  0  0  0  0  0  0  0  0  0
    6.6788  -34.7899    8.6085 C   0  0  0  0  0  0  0  0  0  0  0  0
    1.9647  -36.0515    3.8715 O   0  0  0  0  0  0  0  0  0  0  0  0
    0.5967  -39.5456    3.3883 C   0  0  0  0  0  0  0  0  0  0  0  0
    1.3485  -39.3215    4.0534 O   0  0  0  0  0  0  0  0  0  0  0  0
    9.0114  -39.1928    0.9999 C   0  0  0  0  0  0  0  0  0  0  0  0
    0.8541  -43.2061    3.6332 C   0  0  0  0  0  0  0  0  0  0  0  0
    8.1263  -35.8097    0.2532 C   0  0  0  0  0  0  0  0  0  0  0  0
    3.1636  -37.3470    1.8126 C   0  0  0  0  0  0  0  0  0  0  0  0
    5.8459  -42.0431    0.9438 O   0  0  0  0  0  0  0  0  0  0  0  0
    4.7087  -43.5528    0.2748 C   0  0  0  0  0  0  0  0  0  0  0  0
   -0.3333  -40.5077    1.1110 C   0  0  0  0  0  0  0  0  0  0  0  0
    0.6089  -40.3700   -0.1309 C   0  0  0  0  0  0  0  0  0  0  0  0
  8  5  1  0
 10  1  1  0
 10  6  1  0
 11  2  1  0
 12  3  1  0
 13  1  1  6
 14  3  1  0
 15  5  1  0
  4 16  1  1
 18  7  1  0
 21  2  2  3
 24 11  1  0
 25  2  1  0
 25 23  2  0
 27 16  1  0
  8 28  1  6
 28 17  1  0
 29  8  1  0
 29 12  1  0
 29 20  2  0
 30  7  1  0
 30 24  1  6
 31  9  1  0
 31 30  1  0
 32 20  2  0
 32 22  1  0
 15 33  1  6
 34  4  1  0
 35 15  1  0
 35 34  1  0
 36 19  1  0
 36 31  1  0
 37 27  1  0
 38  9  1  0
 38 18  1  0
  5 39  1  6
 40 13  1  0
 40 25  1  0
 41 13  1  0
 41 26  2  0
 42  4  1  0
 43  6  1  0
 43 42  1  0
M  END
>  <ID>  (1) 
conformer_0

$$$$
