
     RDKit          3D

 47 47  0  0  0  0  0  0  0  0999 V2000
    5.0936  -36.1641    7.9313 C   0  0  0  0  0  0  0  0  0  0  0  0
    3.7618  -40.9914   -1.1172 C   0  0  0  0  0  0  0  0  0  0  0  0
    2.6611  -41.2959   -0.8094 C   0  0  0  0  0  0  0  0  0  0  0  0
    1.3489  -41.1553   -1.0320 C   0  0  0  0  0  0  0  0  0  0  0  0
    7.7882  -42.2944    4.6135 C   0  0  0  0  0  0  0  0  0  0  0  0
    4.4610  -37.0543    8.5596 C   0  0  0  0  0  0  0  0  0  0  0  0
    7.0221  -37.3508   -1.2071 C   0  0  0  0  0  0  0  0  0  0  0  0
    8.3397  -40.3378    1.3108 C   0  0  1  0  0  0  0  0  0  0  0  0
    2.0448  -37.7936    2.0843 C   0  0  0  0  0  0  0  0  0  0  0  0
    0.1533  -40.4911    0.0306 C   0  0  0  0  0  0  0  0  0  0  0  0
    7.7115  -36.5709    1.5406 C   0  0  0  0  0  0  0  0  0  0  0  0
    0.9783  -40.3918    0.9319 C   0  0  0  0  0  0  0  0  0  0  0  0
    8.9219  -38.2921    1.0950 C   0  0  0  0  0  0  0  0  0  0  0  0
    4.9756  -36.7653    5.8667 C   0  0  0  0  0  0  0  0  0  0  0  0
    0.0484  -40.2468    2.3661 C   0  0  1  0  0  0  0  0  0  0  0  0
    4.6436  -43.0348    0.1457 C   0  0  0  0  0  0  0  0  0  0  0  0
    6.3588  -35.4456    3.1409 O   0  0  0  0  0  0  0  0  0  0  0  0
    2.1891  -37.6441    3.3063 C   0  0  1  0  0  0  0  0  0  0  0  0
    6.9508  -34.2848    9.3257 C   0  0  0  0  0  0  0  0  0  0  0  0
    6.9521  -42.0892    3.1842 C   0  0  0  0  0  0  0  0  0  0  0  0
    9.1258  -40.1411   -0.3053 O   0  0  0  0  0  0  0  0  0  0  0  0
    9.9035  -38.7376    2.2036 O   0  0  0  0  0  0  0  0  0  0  0  0
    1.8378  -39.5855    3.7840 O   0  0  0  0  0  0  0  0  0  0  0  0
    5.2393  -43.6553    2.2585 O   0  0  0  0  0  0  0  0  0  0  0  0
    6.5543  -36.2607   -0.3975 C   0  0  0  0  0  0  0  0  0  0  0  0
    5.1373  -43.7535    0.1464 O   0  0  0  0  0  0  0  0  0  0  0  0
    6.0943  -34.4940    9.8432 O   0  0  0  0  0  0  0  0  0  0  0  0
    5.1735  -36.7203    3.4327 C   0  0  1  0  0  0  0  0  0  0  0  0
    8.0888  -38.4410    0.9902 N   0  0  0  0  0  0  0  0  0  0  0  0
   -0.5875  -41.6785    2.5867 C   0  0  0  0  0  0  0  0  0  0  0  0
    5.4948  -43.0536    2.8255 C   0  0  0  0  0  0  0  0  0  0  0  0
    6.4556  -40.3639    0.3689 O   0  0  0  0  0  0  0  0  0  0  0  0
    7.0342  -38.2811   -0.0085 C   0  0  0  0  0  0  0  0  0  0  0  0
    1.1627  -40.1247    3.1636 C   0  0  0  0  0  0  0  0  0  0  0  0
    4.8072  -37.7761    4.6194 C   0  0  0  0  0  0  0  0  0  0  0  0
    3.6757  -37.2007    2.8636 C   0  0  0  0  0  0  0  0  0  0  0  0
   -0.4026  -42.3598    3.6617 C   0  0  0  0  0  0  0  0  0  0  0  0
    2.3482  -35.7578    3.6327 O   0  0  0  0  0  0  0  0  0  0  0  0
    6.9333  -41.7215    1.6385 C   0  0  1  0  0  0  0  0  0  0  0  0
    5.2516  -41.5837    0.4503 C   0  0  0  0  0  0  0  0  0  0  0  0
    5.2728  -35.7206    9.7562 C   0  0  0  0  0  0  0  0  0  0  0  0
    8.3989  -36.0869    0.1456 C   0  0  0  0  0  0  0  0  0  0  0  0
    8.6266  -41.9312    3.5978 C   0  0  0  0  0  0  0  0  0  0  0  0
    4.6001  -37.8044    6.9695 C   0  0  0  0  0  0  0  0  0  0  0  0
    0.9050  -43.1843    4.1639 C   0  0  0  0  0  0  0  0  0  0  0  0
    4.3238  -42.7367    4.1036 O   0  0  0  0  0  0  0  0  0  0  0  0
    6.4029  -36.9565    2.2437 O   0  0  0  0  0  0  0  0  0  0  0  0
  3  2  2  3
  4  3  1  0
  6  1  1  0
 10  4  1  0
 12 10  1  0
 15 12  1  6
 18  9  1  6
 20  5  1  0
  8 21  1  6
 22 13  1  0
 23 18  1  0
 25  7  1  0
 26 16  2  0
 27 19  1  0
 28 17  1  1
 29  8  1  0
 29 13  1  0
 30 15  1  0
 31 20  1  0
 31 24  2  0
 33  7  1  0
 33 29  1  0
 34 15  1  0
 34 23  1  0
 35 14  1  0
 35 28  1  0
 36 18  1  0
 36 28  1  0
 37 30  1  0
 38 18  1  0
 39  8  1  0
 39 20  1  0
 39 32  1  1
 40 16  1  0
 40 32  1  0
 41  1  1  0
 41 27  1  0
 42 11  1  0
 42 25  1  0
 43  5  1  0
 43 20  1  0
 44  6  1  0
 44 14  1  0
 45 37  1  0
 46 31  1  0
 47 11  1  0
 47 28  1  0
M  END
>  <ID>  (1) 
conformer_0

$$$$
