
     RDKit          3D

 49 51  0  0  0  0  0  0  0  0999 V2000
    3.9302  -36.8220    8.5933 C   0  0  0  0  0  0  0  0  0  0  0  0
   -0.6287  -41.5870    3.5419 C   0  0  0  0  0  0  0  0  0  0  0  0
    1.8249  -40.7218   -0.1018 C   0  0  0  0  0  0  0  0  0  0  0  0
    6.6187  -42.0187    4.5350 C   0  0  0  0  0  0  0  0  0  0  0  0
    0.1046  -41.1078    2.3140 C   0  0  0  0  0  0  0  0  0  0  0  0
    6.9834  -37.4678   -1.3176 C   0  0  0  0  0  0  0  0  0  0  0  0
    2.9333  -37.3275    3.1843 C   0  0  0  0  0  0  0  0  0  0  0  0
    4.5526  -37.2612    3.8418 C   0  0  0  0  0  0  0  0  0  0  0  0
    5.2698  -42.7984    3.4206 C   0  0  0  0  0  0  0  0  0  0  0  0
    0.4010  -40.2698   -0.2845 C   0  0  0  0  0  0  0  0  0  0  0  0
    7.3342  -38.7195    0.5627 C   0  0  0  0  0  0  0  0  0  0  0  0
    5.4582  -42.2032    1.5056 C   0  0  0  0  0  0  0  0  0  0  0  0
   -0.0919  -42.9496    4.1973 C   0  0  0  0  0  0  0  0  0  0  0  0
    8.2421  -42.2759    4.7970 C   0  0  0  0  0  0  0  0  0  0  0  0
    4.4172  -42.7920    0.0680 C   0  0  0  0  0  0  0  0  0  0  0  0
    5.3196  -36.0964    5.7362 C   0  0  0  0  0  0  0  0  0  0  0  0
    6.7014  -34.5811    9.0214 C   0  0  0  0  0  0  0  0  0  0  0  0
    1.6208  -37.9654    3.0432 C   0  0  0  0  0  0  0  0  0  0  0  0
    8.6882  -37.2663    0.9175 C   0  0  0  0  0  0  0  0  0  0  0  0
    6.7185  -36.3063   -0.6370 C   0  0  0  0  0  0  0  0  0  0  0  0
    9.5827  -39.8836   -0.1195 O   0  0  0  0  0  0  0  0  0  0  0  0
    6.6652  -35.5720    2.7830 O   0  0  0  0  0  0  0  0  0  0  0  0
    0.9854  -38.7521    3.6215 O   0  0  0  0  0  0  0  0  0  0  0  0
    5.7126  -34.9608    9.7009 O   0  0  0  0  0  0  0  0  0  0  0  0
    0.4301  -39.8054    1.7581 C   0  0  0  0  0  0  0  0  0  0  0  0
    5.0409  -36.7686    3.1075 C   0  0  0  0  0  0  0  0  0  0  0  0
    4.8886  -43.7267   -0.3085 O   0  0  0  0  0  0  0  0  0  0  0  0
    4.8083  -43.1425    1.8042 O   0  0  0  0  0  0  0  0  0  0  0  0
    5.5072  -35.7870    7.4002 C   0  0  0  0  0  0  0  0  0  0  0  0
    7.8735  -38.3853    0.9230 N   0  0  0  0  0  0  0  0  0  0  0  0
    1.0318  -42.9373    3.9964 C   0  0  0  0  0  0  0  0  0  0  0  0
    9.1327  -41.7390    3.5162 C   0  0  0  0  0  0  0  0  0  0  0  0
    6.5703  -40.6914    0.6208 O   0  0  0  0  0  0  0  0  0  0  0  0
    5.9705  -37.2510    1.9168 O   0  0  0  0  0  0  0  0  0  0  0  0
    0.8736  -40.2072    3.3978 C   0  0  0  0  0  0  0  0  0  0  0  0
    4.6122  -37.5245    7.6683 C   0  0  0  0  0  0  0  0  0  0  0  0
    4.7523  -37.4120    5.6416 C   0  0  0  0  0  0  0  0  0  0  0  0
    5.0092  -35.9249    9.3577 C   0  0  0  0  0  0  0  0  0  0  0  0
    4.1437  -40.3190   -1.3792 C   0  0  0  0  0  0  0  0  0  0  0  0
    4.0606  -42.3799    3.9512 O   0  0  0  0  0  0  0  0  0  0  0  0
    7.1834  -41.2081    1.6562 C   0  0  0  0  0  0  0  0  0  0  0  0
    8.8577  -39.8637    0.8633 C   0  0  0  0  0  0  0  0  0  0  0  0
    8.1837  -36.0153    0.0929 C   0  0  0  0  0  0  0  0  0  0  0  0
    7.4436  -41.8152    2.9395 C   0  0  0  0  0  0  0  0  0  0  0  0
    2.1659  -40.9219   -1.4440 C   0  0  0  0  0  0  0  0  0  0  0  0
    3.8076  -41.6530   -1.0557 C   0  0  0  0  0  0  0  0  0  0  0  0
    2.0476  -40.5814    4.2138 O   0  0  0  0  0  0  0  0  0  0  0  0
    6.8720  -36.6107    1.6392 C   0  0  0  0  0  0  0  0  0  0  0  0
    2.9129  -37.6621    1.8453 C   0  0  0  0  0  0  0  0  0  0  0  0
  5  2  1  0
  8  7  1  0
  9  4  1  0
 10  3  1  0
 13  2  1  0
 14  4  1  0
 15 12  1  0
 18  7  1  0
 20  6  1  0
 23 18  1  0
 24 17  1  0
 25  5  1  0
 25 10  1  0
 26  8  1  0
 27 15  2  0
 28  9  1  0
 28 12  1  0
 29 16  1  0
 30 11  1  0
 30 19  1  0
 31 13  1  0
 32 14  1  0
 34 26  1  0
 35  5  1  0
 35 23  1  0
 35 25  1  0
 36  1  1  0
 36 29  1  0
 37  8  1  0
 37 16  1  0
 38  1  1  0
 38 24  1  0
 40  9  2  0
 41 33  2  0
 42 21  1  0
 42 30  1  0
 43 19  1  0
 43 20  1  0
 44  4  1  0
 44 32  1  0
 44 41  2  0
 45  3  1  0
 46 15  1  0
 46 39  1  0
 46 45  1  0
 47 35  1  0
 48 19  1  0
 48 22  2  0
 48 34  1  0
 49  7  1  0
 49 18  1  0
M  END
>  <ID>  (1) 
conformer_0

$$$$
