
     RDKit          3D

 50 52  0  0  0  0  0  0  0  0999 V2000
    0.1169  -40.6808    0.2259 C   0  0  0  0  0  0  0  0  0  0  0  0
    6.8902  -37.4400   -1.4470 C   0  0  0  0  0  0  0  0  0  0  0  0
    4.3212  -36.7272    9.0419 C   0  0  1  0  0  0  0  0  0  0  0  0
    3.9888  -40.4288   -1.1423 C   0  0  0  0  0  0  0  0  0  0  0  0
    4.3002  -37.1004    7.8095 C   0  0  2  0  0  0  0  0  0  0  0  0
    2.1856  -41.2290   -0.2156 C   0  0  0  0  0  0  0  0  0  0  0  0
    7.1849  -41.9244    4.2948 C   0  0  1  0  0  0  0  0  0  0  0  0
    4.1900  -37.8866    3.4278 C   0  0  0  0  0  0  0  0  0  0  0  0
    4.1411  -43.0450    0.2514 C   0  0  0  0  0  0  0  0  0  0  0  0
    7.4134  -41.0571    1.4986 C   0  0  0  0  0  0  0  0  0  0  0  0
    1.2469  -40.6048   -1.2292 C   0  0  0  0  0  0  0  0  0  0  0  0
    7.2813  -38.5365    0.0479 C   0  0  0  0  0  0  0  0  0  0  0  0
    5.1972  -35.5610   10.8187 C   0  0  0  0  0  0  0  0  0  0  0  0
    0.6087  -39.7744    1.2713 C   0  0  0  0  0  0  0  0  0  0  0  0
    4.5163  -37.6091    6.1552 C   0  0  0  0  0  0  0  0  0  0  0  0
    2.2490  -37.9676    3.5835 C   0  0  2  0  0  0  0  0  0  0  0  0
    6.9324  -36.4010   -0.4203 C   0  0  0  0  0  0  0  0  0  0  0  0
    7.0853  -35.3981    2.5107 O   0  0  0  0  0  0  0  0  0  0  0  0
    9.4942  -40.1506   -0.3245 O   0  0  0  0  0  0  0  0  0  0  0  0
    5.0278  -41.8541    0.7485 C   0  0  0  0  0  0  0  0  0  0  0  0
   -0.0939  -40.3717    2.7131 C   0  0  2  0  0  0  0  0  0  0  0  0
    5.0720  -42.5781    2.7918 O   0  0  0  0  0  0  0  0  0  0  0  0
    7.0914  -36.2292    1.7876 C   0  0  1  0  0  0  0  0  0  0  0  0
    1.4463  -39.1375    4.0448 O   0  0  0  0  0  0  0  0  0  0  0  0
   -0.2352  -42.0029    4.3109 C   0  0  0  0  0  0  0  0  0  0  0  0
    5.1893  -37.0413    3.4687 C   0  0  0  0  0  0  0  0  0  0  0  0
    4.9916  -43.5662    0.2449 O   0  0  0  0  0  0  0  0  0  0  0  0
    7.7815  -41.5803    2.4969 C   0  0  1  0  0  0  0  0  0  0  0  0
    2.2493  -37.6690    2.6043 C   0  0  0  0  0  0  0  0  0  0  0  0
    7.0300  -39.4580   -0.0391 O   0  0  0  0  0  0  0  0  0  0  0  0
    7.1060  -34.5269    8.9926 C   0  0  0  0  0  0  0  0  0  0  0  0
    2.8494  -36.9066    1.1746 C   0  0  0  0  0  0  0  0  0  0  0  0
    6.1976  -34.7563    9.7707 O   0  0  0  0  0  0  0  0  0  0  0  0
    8.1713  -38.7070    0.9219 N   0  0  0  0  0  0  0  0  0  0  0  0
    9.7907  -38.7138    1.7398 O   0  0  0  0  0  0  0  0  0  0  0  0
    0.3111  -43.4274    4.1776 C   0  0  0  0  0  0  0  0  0  0  0  0
    8.9396  -39.9471    1.0625 C   0  0  0  0  0  0  0  0  0  0  0  0
    5.1734  -37.1477    5.1088 C   0  0  0  0  0  0  0  0  0  0  0  0
    0.5599  -39.4241    3.3950 C   0  0  0  0  0  0  0  0  0  0  0  0
    8.5785  -36.0658    0.2984 C   0  0  0  0  0  0  0  0  0  0  0  0
    2.0423  -43.8643    3.8294 C   0  0  0  0  0  0  0  0  0  0  0  0
    5.7049  -42.5172    2.8056 C   0  0  0  0  0  0  0  0  0  0  0  0
    5.9605  -41.3487    0.8774 O   0  0  0  0  0  0  0  0  0  0  0  0
    5.4582  -36.0720    7.1680 C   0  0  0  0  0  0  0  0  0  0  0  0
    8.9019  -41.8823    3.6414 C   0  0  0  0  0  0  0  0  0  0  0  0
    5.5469  -35.6666    8.8487 C   0  0  2  0  0  0  0  0  0  0  0  0
   -0.4565  -42.0089    2.7807 C   0  0  0  0  0  0  0  0  0  0  0  0
    8.5044  -37.3310    0.9053 C   0  0  1  0  0  0  0  0  0  0  0  0
    3.1218  -41.6558   -1.4594 C   0  0  0  0  0  0  0  0  0  0  0  0
    6.1337  -36.7676    2.4920 O   0  0  0  0  0  0  0  0  0  0  0  0
  5  3  1  0
 11  1  1  0
 11  6  1  0
 12  2  1  0
  3 13  1  1
 14  1  1  0
  5 15  1  1
 16  8  1  6
 17  2  1  0
 20  9  1  0
 21 14  1  6
 23 18  1  1
 24 16  1  0
 26  8  1  0
 27  9  1  0
 28  7  1  0
 28 10  1  1
 29 16  1  0
 30 12  2  0
 32 29  1  0
 33 31  1  0
 34 12  1  0
 36 25  1  0
 37 10  1  0
 37 19  1  0
 37 34  1  0
 37 35  1  0
 38 15  1  0
 38 26  2  3
 39 21  1  0
 39 24  1  0
 40 17  1  0
 41 36  1  0
  7 42  1  6
 42 22  2  0
 43 10  1  0
 43 20  1  0
 44  5  1  0
 45  7  1  0
 45 28  1  0
 46  3  1  0
 46 33  1  6
 46 44  1  0
 47 21  1  0
 47 25  1  0
 48 23  1  0
 48 34  1  0
 48 40  1  6
 49  4  1  0
 49  6  1  0
 50 23  1  0
 50 26  1  0
M  END
>  <ID>  (1) 
conformer_0

$$$$
