
     RDKit          3D

 46 50  0  0  0  0  0  0  0  0999 V2000
    2.2697  -41.2344   -0.4296 C   0  0  1  0  0  0  0  0  0  0  0  0
    4.4330  -36.7548    8.4603 C   0  0  0  0  0  0  0  0  0  0  0  0
    6.3619  -41.3514    2.9778 C   0  0  2  0  0  0  0  0  0  0  0  0
    6.7491  -36.2273   -0.4995 C   0  0  0  0  0  0  0  0  0  0  0  0
    4.0306  -40.6838   -1.0164 C   0  0  0  0  0  0  0  0  0  0  0  0
    1.4502  -40.4678   -1.0039 C   0  0  0  0  0  0  0  0  0  0  0  0
    4.8746  -37.0726    4.3457 C   0  0  0  0  0  0  0  0  0  0  0  0
    4.3967  -37.3823    7.4260 C   0  0  0  0  0  0  0  0  0  0  0  0
    7.6478  -38.1969    0.2736 C   0  0  0  0  0  0  0  0  0  0  0  0
    0.0771  -40.2186    0.0130 C   0  0  0  0  0  0  0  0  0  0  0  0
    5.8048  -42.8524    2.0860 C   0  0  0  0  0  0  0  0  0  0  0  0
   -0.4564  -41.6773    2.4216 C   0  0  2  0  0  0  0  0  0  0  0  0
    7.3219  -41.1719    1.5894 C   0  0  2  0  0  0  0  0  0  0  0  0
    2.3576  -37.3871    3.6359 C   0  0  0  0  0  0  0  0  0  0  0  0
    4.4649  -42.8715    0.1888 C   0  0  0  0  0  0  0  0  0  0  0  0
    5.1985  -35.9455    9.4760 C   0  0  0  0  0  0  0  0  0  0  0  0
    8.6976  -42.2595    3.8807 C   0  0  0  0  0  0  0  0  0  0  0  0
    4.7323  -37.1689    5.7326 C   0  0  0  0  0  0  0  0  0  0  0  0
    6.7073  -35.2192    2.4870 O   0  0  0  0  0  0  0  0  0  0  0  0
    0.1845  -42.8191    3.7658 C   0  0  1  0  0  0  0  0  0  0  0  0
    1.4689  -36.0760    3.4061 O   0  0  0  0  0  0  0  0  0  0  0  0
    9.1365  -40.0379   -0.3697 O   0  0  0  0  0  0  0  0  0  0  0  0
    5.2703  -43.6118    2.3372 O   0  0  0  0  0  0  0  0  0  0  0  0
    7.1685  -37.4131   -1.2128 C   0  0  0  0  0  0  0  0  0  0  0  0
    6.3421  -34.8783    9.2236 O   0  0  0  0  0  0  0  0  0  0  0  0
    7.7888  -36.5583    1.3393 C   0  0  1  0  0  0  0  0  0  0  0  0
    1.6348  -43.6703    3.5311 C   0  0  0  0  0  0  0  0  0  0  0  0
    5.4741  -36.4511    3.0620 C   0  0  1  0  0  0  0  0  0  0  0  0
   -0.1078  -40.3813    1.2789 C   0  0  1  0  0  0  0  0  0  0  0  0
    1.3364  -39.3936    1.9927 C   0  0  0  0  0  0  0  0  0  0  0  0
    1.7728  -39.5065    4.3486 O   0  0  0  0  0  0  0  0  0  0  0  0
    6.7216  -34.5374    8.5027 C   0  0  0  0  0  0  0  0  0  0  0  0
    9.5556  -38.7207    1.6618 O   0  0  0  0  0  0  0  0  0  0  0  0
    1.0955  -39.3185    3.5488 C   0  0  2  0  0  0  0  0  0  0  0  0
    5.4782  -35.8248    6.7404 C   0  0  0  0  0  0  0  0  0  0  0  0
    8.3229  -41.6065    2.7809 C   0  0  0  0  0  0  0  0  0  0  0  0
    5.7203  -42.2215    0.8598 O   0  0  0  0  0  0  0  0  0  0  0  0
    8.6485  -39.7788    1.0655 C   0  0  0  0  0  0  0  0  0  0  0  0
    3.5263  -42.1494   -1.4191 C   0  0  1  0  0  0  0  0  0  0  0  0
    7.8414  -38.6611    0.8932 N   0  0  0  0  0  0  0  0  0  0  0  0
    8.5336  -36.0537    0.2238 C   0  0  0  0  0  0  0  0  0  0  0  0
    0.0594  -40.9879    3.6134 C   0  0  1  0  0  0  0  0  0  0  0  0
    6.4149  -36.8484    2.0002 O   0  0  0  0  0  0  0  0  0  0  0  0
    6.9098  -42.5319    4.1836 C   0  0  0  0  0  0  0  0  0  0  0  0
    2.8476  -37.5822    3.0834 C   0  0  0  0  0  0  0  0  0  0  0  0
    3.8973  -37.7156    2.4860 C   0  0  0  0  0  0  0  0  0  0  0  0
  5  1  1  0
  1  6  1  6
  8  2  1  0
 10  6  1  0
  3 11  1  6
 13  3  1  0
 16  2  1  0
 18  7  2  3
 18  8  1  0
 20 12  1  0
 21 14  1  0
 23 11  2  0
 24  4  1  0
 24  9  1  0
 25 16  1  0
 26  9  1  0
 20 27  1  6
 28  7  1  0
 28 19  1  1
 29 10  1  6
 12 29  1  6
 30 29  1  0
 32 25  1  0
 34 30  1  0
 34 31  1  1
 35 18  1  0
 36 13  1  0
 36 17  1  0
 37 11  1  0
 37 15  1  0
 13 38  1  1
 38 22  1  0
 38 33  1  0
 39  1  1  0
 39  5  1  0
 39 15  1  1
 40  9  1  0
 40 38  1  0
 41  4  1  0
 41 26  1  0
 42 12  1  0
 42 20  1  0
 42 34  1  6
 26 43  1  6
 43 28  1  0
 44  3  1  0
 44 17  1  0
 45 14  2  0
 46 28  1  0
 46 45  2  0
M  END
>  <ID>  (1) 
conformer_0

$$$$
