
     RDKit          3D

 50 54  0  0  0  0  0  0  0  0999 V2000
    4.2044  -37.1753    8.5483 C   0  0  0  0  0  0  0  0  0  0  0  0
   -0.7572  -42.3257    3.9049 C   0  0  0  0  0  0  0  0  0  0  0  0
    0.1342  -43.4947    3.7906 C   0  0  0  0  0  0  0  0  0  0  0  0
    7.2036  -37.4736   -1.5819 C   0  0  0  0  0  0  0  0  0  0  0  0
   -0.1193  -41.1719    3.2430 C   0  0  0  0  0  0  0  0  0  0  0  0
    2.4031  -37.7294    3.1762 C   0  0  0  0  0  0  0  0  0  0  0  0
    6.8616  -41.8039    4.3557 C   0  0  0  0  0  0  0  0  0  0  0  0
    3.1267  -37.4599    1.8595 C   0  0  0  0  0  0  0  0  0  0  0  0
    7.1443  -38.6777   -0.1270 C   0  0  0  0  0  0  0  0  0  0  0  0
   -0.4349  -40.8381    1.6731 C   0  0  0  0  0  0  0  0  0  0  0  0
    8.2074  -37.1227    0.8454 C   0  0  0  0  0  0  0  0  0  0  0  0
    4.7210  -43.7991    0.0460 C   0  0  0  0  0  0  0  0  0  0  0  0
    1.8833  -37.7963    3.9913 C   0  0  0  0  0  0  0  0  0  0  0  0
    6.8448  -34.1769    8.2667 C   0  0  0  0  0  0  0  0  0  0  0  0
    2.0592  -40.7646   -0.0269 C   0  0  0  0  0  0  0  0  0  0  0  0
    4.4181  -37.4358    3.6576 C   0  0  0  0  0  0  0  0  0  0  0  0
    5.9261  -36.5758    2.2973 O   0  0  0  0  0  0  0  0  0  0  0  0
    8.7078  -39.7126    0.7166 C   0  0  0  0  0  0  0  0  0  0  0  0
    9.4233  -40.0681   -0.4014 O   0  0  0  0  0  0  0  0  0  0  0  0
    6.5605  -36.5700   -0.7223 C   0  0  0  0  0  0  0  0  0  0  0  0
    2.7731  -41.0818   -1.3726 C   0  0  0  0  0  0  0  0  0  0  0  0
    7.5558  -40.7889    1.3591 C   0  0  0  0  0  0  0  0  0  0  0  0
    5.1138  -43.5902   -0.2901 O   0  0  0  0  0  0  0  0  0  0  0  0
    4.5743  -37.6517    7.1586 C   0  0  0  0  0  0  0  0  0  0  0  0
    8.7254  -42.0455    3.6920 C   0  0  0  0  0  0  0  0  0  0  0  0
    6.7795  -35.1322    9.3366 O   0  0  0  0  0  0  0  0  0  0  0  0
    5.4096  -43.2022    1.7349 O   0  0  0  0  0  0  0  0  0  0  0  0
    1.2457  -39.4562    4.2189 O   0  0  0  0  0  0  0  0  0  0  0  0
    5.0188  -36.8687    3.1712 C   0  0  0  0  0  0  0  0  0  0  0  0
    9.6657  -38.9853    1.7828 O   0  0  0  0  0  0  0  0  0  0  0  0
    6.4991  -40.7841    0.3652 O   0  0  0  0  0  0  0  0  0  0  0  0
    7.9639  -38.5005    0.5781 N   0  0  0  0  0  0  0  0  0  0  0  0
    5.1028  -36.2697    9.1209 C   0  0  0  0  0  0  0  0  0  0  0  0
    4.0510  -40.7592   -1.1112 C   0  0  0  0  0  0  0  0  0  0  0  0
    0.7918  -39.5610    3.5946 C   0  0  0  0  0  0  0  0  0  0  0  0
    5.4443  -35.9934    7.4125 C   0  0  0  0  0  0  0  0  0  0  0  0
    5.1053  -42.7412    3.5178 C   0  0  0  0  0  0  0  0  0  0  0  0
    4.7268  -41.9024   -0.1917 C   0  0  0  0  0  0  0  0  0  0  0  0
    1.3702  -43.1570    3.9452 C   0  0  0  0  0  0  0  0  0  0  0  0
    4.7470  -37.9705    5.2687 C   0  0  0  0  0  0  0  0  0  0  0  0
    5.1047  -36.5284    5.7152 C   0  0  0  0  0  0  0  0  0  0  0  0
    7.9483  -36.1849   -0.2291 C   0  0  0  0  0  0  0  0  0  0  0  0
    7.6919  -41.8878    2.6203 C   0  0  0  0  0  0  0  0  0  0  0  0
    4.5993  -42.6856    3.5820 O   0  0  0  0  0  0  0  0  0  0  0  0
    7.1175  -35.2673    2.3042 O   0  0  0  0  0  0  0  0  0  0  0  0
    7.0167  -36.3073    1.7751 C   0  0  0  0  0  0  0  0  0  0  0  0
    0.7069  -40.7348   -0.2481 C   0  0  0  0  0  0  0  0  0  0  0  0
    6.7956  -35.0631   10.0958 C   0  0  0  0  0  0  0  0  0  0  0  0
    6.0897  -42.1905    1.6392 C   0  0  0  0  0  0  0  0  0  0  0  0
    0.8797  -39.8585    1.8255 C   0  0  0  0  0  0  0  0  0  0  0  0
  3  2  1  0
  5  2  1  0
  8  6  1  0
  9  4  1  0
 10  5  1  0
 13  6  1  0
 16  6  1  0
 19 18  1  0
 20  4  1  0
 21 15  1  0
 22 18  1  0
 23 12  1  0
 24  1  1  0
 26 14  1  0
 28 13  1  0
 29 16  1  0
 29 17  1  0
 30 18  1  0
 31 22  1  0
 32  9  1  0
 32 11  1  0
 32 18  1  0
 33  1  1  0
 34 21  1  0
 35  5  1  0
 35 28  1  0
 36 24  1  0
 36 33  1  0
 37 27  1  0
 38 23  1  0
 38 34  1  0
 39  3  1  0
 40 16  1  0
 40 24  1  0
 41 24  1  0
 41 36  1  0
 41 40  1  0
 42 11  1  0
 42 20  1  0
 43  7  1  0
 43 22  1  0
 43 25  1  0
 44 37  1  0
 46 11  1  0
 46 17  1  0
 46 45  2  0
 47 10  1  0
 47 15  1  0
 48 26  1  0
 48 33  1  0
 49 27  1  0
 49 43  1  0
 50 10  1  0
 50 35  1  0
M  END
>  <ID>  (1) 
conformer_0

$$$$
