
     RDKit          3D

 48 50  0  0  0  0  0  0  0  0999 V2000
    0.2004  -40.3242   -0.0832 C   0  0  0  0  0  0  0  0  0  0  0  0
    3.1456  -41.6925   -1.1542 C   0  0  2  0  0  0  0  0  0  0  0  0
    1.6664  -40.6626   -1.5220 C   0  0  0  0  0  0  0  0  0  0  0  0
    3.5639  -37.7805    2.8222 C   0  0  0  0  0  0  0  0  0  0  0  0
    6.8549  -41.7886    3.1576 C   0  0  2  0  0  0  0  0  0  0  0  0
    4.5261  -36.8758    8.5619 C   0  0  0  0  0  0  0  0  0  0  0  0
    7.5184  -37.4196   -1.3235 C   0  0  0  0  0  0  0  0  0  0  0  0
    2.5708  -37.3729    1.9319 C   0  0  0  0  0  0  0  0  0  0  0  0
   -0.2824  -41.0887    2.3764 C   0  0  0  0  0  0  0  0  0  0  0  0
    8.3508  -36.6391    1.5263 C   0  0  0  0  0  0  0  0  0  0  0  0
    6.6566  -41.9699    1.5967 C   0  0  1  0  0  0  0  0  0  0  0  0
    7.8546  -40.5068    1.2548 C   0  0  1  0  0  0  0  0  0  0  0  0
    4.5256  -37.7543    7.7974 C   0  0  0  0  0  0  0  0  0  0  0  0
    6.6223  -34.4248    8.3527 C   0  0  0  0  0  0  0  0  0  0  0  0
    0.4932  -39.7370    2.2951 C   0  0  2  0  0  0  0  0  0  0  0  0
    3.7242  -37.4662    3.6770 C   0  0  0  0  0  0  0  0  0  0  0  0
    4.3660  -42.8562   -0.6076 C   0  0  0  0  0  0  0  0  0  0  0  0
    1.2382  -37.8047    3.3777 C   0  0  1  0  0  0  0  0  0  0  0  0
   -0.2220  -41.4476    4.1467 C   0  0  2  0  0  0  0  0  0  0  0  0
    6.5348  -36.7294   -0.6369 C   0  0  2  0  0  0  0  0  0  0  0  0
    5.4985  -35.5977    2.9293 O   0  0  0  0  0  0  0  0  0  0  0  0
    9.2279  -40.0498   -0.0338 O   0  0  0  0  0  0  0  0  0  0  0  0
    4.5683  -42.8595    3.8655 O   0  0  0  0  0  0  0  0  0  0  0  0
    5.0316  -36.0616    5.7844 C   0  0  0  0  0  0  0  0  0  0  0  0
    5.2865  -35.6924    6.9680 C   0  0  0  0  0  0  0  0  0  0  0  0
    4.9519  -43.7802    0.1963 O   0  0  0  0  0  0  0  0  0  0  0  0
    9.7399  -37.9919    1.9935 O   0  0  0  0  0  0  0  0  0  0  0  0
    1.2210  -38.4247    3.9496 O   0  0  0  0  0  0  0  0  0  0  0  0
    6.0575  -34.8204    9.2567 O   0  0  0  0  0  0  0  0  0  0  0  0
    5.2742  -42.8077    0.7617 C   0  0  0  0  0  0  0  0  0  0  0  0
    8.1653  -41.8861    3.3895 C   0  0  0  0  0  0  0  0  0  0  0  0
    7.9599  -38.3395    0.8654 N   0  0  0  0  0  0  0  0  0  0  0  0
    5.1464  -43.0220    3.8492 C   0  0  0  0  0  0  0  0  0  0  0  0
    0.9906  -40.4872    3.7684 C   0  0  0  0  0  0  0  0  0  0  0  0
    0.3531  -42.9261    3.7957 C   0  0  0  0  0  0  0  0  0  0  0  0
    5.3426  -35.9201    9.2565 C   0  0  0  0  0  0  0  0  0  0  0  0
    2.1092  -40.7402    4.2798 O   0  0  0  0  0  0  0  0  0  0  0  0
    1.5100  -43.2403    4.8204 C   0  0  0  0  0  0  0  0  0  0  0  0
    4.8139  -37.7654    4.6020 C   0  0  1  0  0  0  0  0  0  0  0  0
    6.7013  -41.1647    0.4023 O   0  0  0  0  0  0  0  0  0  0  0  0
    8.0469  -35.8527    0.2142 C   0  0  0  0  0  0  0  0  0  0  0  0
    8.7630  -38.8930    0.6486 C   0  0  0  0  0  0  0  0  0  0  0  0
    7.1609  -37.7012    0.5534 C   0  0  1  0  0  0  0  0  0  0  0  0
    5.5690  -36.5123    3.1167 C   0  0  0  0  0  0  0  0  0  0  0  0
    1.5925  -40.5222   -0.1009 C   0  0  0  0  0  0  0  0  0  0  0  0
    3.8071  -40.4291   -1.0536 C   0  0  0  0  0  0  0  0  0  0  0  0
    6.3448  -36.9741    2.2413 O   0  0  0  0  0  0  0  0  0  0  0  0
    4.7719  -37.8258    6.2806 C   0  0  2  0  0  0  0  0  0  0  0  0
  3  2  1  0
  8  4  1  0
 11  5  1  0
 12 11  1  0
 13  6  1  0
 15  1  1  6
 15  9  1  0
 16  4  2  3
 17  2  1  0
 18  8  1  0
 18 15  1  0
 19  9  1  0
 20  7  1  6
 25 24  1  0
 26 17  1  0
 18 28  1  1
 29 14  1  0
 11 30  1  1
 30 26  1  0
  5 31  1  1
 33  5  1  0
 33 23  2  0
 34 15  1  0
 34 19  1  0
 19 35  1  6
 36  6  1  0
 36 29  1  0
 37 34  2  0
 38 35  1  0
 39 16  1  0
 40 11  1  0
 40 12  1  0
 41 10  1  0
 41 20  1  0
 12 42  1  1
 42 22  1  0
 42 27  1  0
 42 32  1  0
 43 10  1  0
 43 20  1  0
 43 32  1  6
 44 21  2  0
 39 44  1  1
 45  1  1  0
 45  3  1  0
  2 46  1  1
 47 44  1  0
 48 13  1  6
 48 24  1  0
 48 39  1  0
M  END
>  <ID>  (1) 
conformer_0

$$$$
