
     RDKit          3D

 47 49  0  0  0  0  0  0  0  0999 V2000
    3.5469  -40.9439   -1.0264 C   0  0  0  0  0  0  0  0  0  0  0  0
    6.8778  -37.4747   -1.2499 C   0  0  0  0  0  0  0  0  0  0  0  0
    4.1596  -36.8926    8.6646 C   0  0  0  0  0  0  0  0  0  0  0  0
    0.2210  -40.2560   -0.3167 C   0  0  0  0  0  0  0  0  0  0  0  0
    2.3620  -41.7670   -0.7999 C   0  0  0  0  0  0  0  0  0  0  0  0
    6.8680  -42.2414    4.3952 C   0  0  0  0  0  0  0  0  0  0  0  0
    3.4007  -37.8413    2.9401 C   0  0  0  0  0  0  0  0  0  0  0  0
    2.8483  -37.2431    1.8344 C   0  0  0  0  0  0  0  0  0  0  0  0
    7.4611  -38.2479    0.2030 C   0  0  0  0  0  0  0  0  0  0  0  0
    7.0315  -42.2793    1.6792 C   0  0  0  0  0  0  0  0  0  0  0  0
    0.2650  -40.4344    1.2356 C   0  0  0  0  0  0  0  0  0  0  0  0
    7.5276  -40.6649    1.3276 C   0  0  0  0  0  0  0  0  0  0  0  0
    4.6083  -37.8610    5.8107 C   0  0  0  0  0  0  0  0  0  0  0  0
    4.1650  -43.3649    0.0838 C   0  0  0  0  0  0  0  0  0  0  0  0
    6.8314  -34.6968    8.7620 C   0  0  0  0  0  0  0  0  0  0  0  0
   -0.2731  -40.6984    2.5767 C   0  0  0  0  0  0  0  0  0  0  0  0
    6.5852  -35.2808    2.2347 O   0  0  0  0  0  0  0  0  0  0  0  0
    7.8703  -41.7148    2.9023 C   0  0  0  0  0  0  0  0  0  0  0  0
    2.0997  -37.8499    3.3582 C   0  0  0  0  0  0  0  0  0  0  0  0
    0.9318  -38.5997    3.6626 O   0  0  0  0  0  0  0  0  0  0  0  0
    6.9210  -36.3586   -0.8506 C   0  0  0  0  0  0  0  0  0  0  0  0
    9.1415  -39.8826   -0.4895 O   0  0  0  0  0  0  0  0  0  0  0  0
    1.5233  -40.6666   -1.1382 C   0  0  0  0  0  0  0  0  0  0  0  0
    8.7621  -36.8633    1.1926 C   0  0  0  0  0  0  0  0  0  0  0  0
    5.0841  -43.8996    0.6170 O   0  0  0  0  0  0  0  0  0  0  0  0
    4.4981  -37.5363    7.6095 C   0  0  0  0  0  0  0  0  0  0  0  0
    5.2230  -36.9073    3.0594 C   0  0  0  0  0  0  0  0  0  0  0  0
    6.2320  -34.9546    9.5654 O   0  0  0  0  0  0  0  0  0  0  0  0
    4.9736  -35.8986    9.6956 C   0  0  0  0  0  0  0  0  0  0  0  0
   -0.5083  -41.5573    3.6203 C   0  0  0  0  0  0  0  0  0  0  0  0
    4.7959  -37.4179    4.2009 C   0  0  0  0  0  0  0  0  0  0  0  0
    5.0566  -43.2665    2.8473 O   0  0  0  0  0  0  0  0  0  0  0  0
    7.9913  -38.6582    0.8508 N   0  0  0  0  0  0  0  0  0  0  0  0
    9.6681  -38.5617    1.8096 O   0  0  0  0  0  0  0  0  0  0  0  0
    5.6233  -43.1574    3.0831 C   0  0  0  0  0  0  0  0  0  0  0  0
   -0.1184  -42.7768    3.6134 C   0  0  0  0  0  0  0  0  0  0  0  0
    5.3934  -36.3320    5.9725 C   0  0  0  0  0  0  0  0  0  0  0  0
    5.6380  -35.8587    7.4795 C   0  0  0  0  0  0  0  0  0  0  0  0
    8.1713  -35.9216    0.0468 C   0  0  0  0  0  0  0  0  0  0  0  0
    7.2493  -36.2344    1.7019 C   0  0  0  0  0  0  0  0  0  0  0  0
    8.6065  -42.0186    3.8082 C   0  0  0  0  0  0  0  0  0  0  0  0
    0.3902  -39.3123    3.1975 C   0  0  0  0  0  0  0  0  0  0  0  0
    5.6756  -41.4018    0.8976 O   0  0  0  0  0  0  0  0  0  0  0  0
    6.0061  -36.9810    2.1566 O   0  0  0  0  0  0  0  0  0  0  0  0
    1.2427  -43.0901    4.3929 C   0  0  0  0  0  0  0  0  0  0  0  0
    8.9052  -39.6610    0.7893 C   0  0  0  0  0  0  0  0  0  0  0  0
    5.1145  -41.9130    0.7025 C   0  0  0  0  0  0  0  0  0  0  0  0
  5  1  1  0
  8  7  1  0
  9  2  1  0
 11  4  2  0
 12 10  1  0
 16 11  2  0
 18 10  1  0
 18 12  1  0
 19  7  1  0
 19  8  1  0
 20 19  1  0
 21  2  1  0
 23  4  1  0
 23  5  1  0
 25 14  1  0
 26  3  1  0
 26 13  1  0
 28 15  1  0
 29  3  1  0
 29 28  1  0
 30 16  1  0
 31  7  1  0
 31 13  1  0
 31 27  1  0
 33  9  1  0
 35  6  1  0
 35 32  2  0
 36 30  1  0
 37 13  1  0
 38 37  1  0
 39 21  1  0
 39 24  1  0
 40 17  1  0
 40 24  1  0
 40 39  1  0
 41  6  1  0
 41 18  1  0
 42 16  1  0
 42 20  1  0
 43 10  1  0
 44 27  1  0
 44 40  1  0
 45 36  1  0
 46 12  1  0
 46 22  1  0
 46 33  1  0
 46 34  1  0
 47 14  1  0
 47 43  1  0
M  END
>  <ID>  (1) 
conformer_0

$$$$
