
     RDKit          3D

 48 51  0  0  0  0  0  0  0  0999 V2000
    6.9945  -41.9685    4.8616 C   0  0  0  0  0  0  0  0  0  0  0  0
    4.4602  -36.5906    9.0236 C   0  0  0  0  0  0  0  0  0  0  0  0
    1.9448  -40.7966   -0.3109 C   0  0  0  0  0  0  0  0  0  0  0  0
    3.9016  -41.0757   -1.1904 C   0  0  0  0  0  0  0  0  0  0  0  0
    2.8685  -41.6330   -1.1819 C   0  0  0  0  0  0  0  0  0  0  0  0
    6.6399  -37.7941   -0.9511 C   0  0  0  0  0  0  0  0  0  0  0  0
    0.6698  -40.8384   -0.0040 C   0  0  0  0  0  0  0  0  0  0  0  0
    2.6413  -37.7120    3.1698 C   0  0  0  0  0  0  0  0  0  0  0  0
    5.2273  -36.7328    5.9968 C   0  0  0  0  0  0  0  0  0  0  0  0
    4.2345  -43.4899   -0.2093 C   0  0  0  0  0  0  0  0  0  0  0  0
    7.6987  -40.9237    1.3011 C   0  0  0  0  0  0  0  0  0  0  0  0
    8.5343  -41.9632    3.6299 C   0  0  0  0  0  0  0  0  0  0  0  0
    7.4918  -38.3010    0.4294 C   0  0  0  0  0  0  0  0  0  0  0  0
    4.6819  -37.6078    3.9857 C   0  0  0  0  0  0  0  0  0  0  0  0
    0.7652  -39.8398    1.9709 C   0  0  0  0  0  0  0  0  0  0  0  0
    9.3837  -40.0976   -0.3471 O   0  0  0  0  0  0  0  0  0  0  0  0
    7.0880  -36.7295   -0.9322 C   0  0  0  0  0  0  0  0  0  0  0  0
    6.8200  -34.6704    8.3428 C   0  0  0  0  0  0  0  0  0  0  0  0
    2.3916  -37.5350    3.7372 C   0  0  0  0  0  0  0  0  0  0  0  0
    5.6568  -35.6139    7.5231 C   0  0  0  0  0  0  0  0  0  0  0  0
   -0.3415  -40.7405    1.3336 C   0  0  0  0  0  0  0  0  0  0  0  0
    7.0323  -35.3712    2.5931 O   0  0  0  0  0  0  0  0  0  0  0  0
    1.2829  -39.1763    4.2608 O   0  0  0  0  0  0  0  0  0  0  0  0
    4.9635  -42.2170    0.3046 C   0  0  0  0  0  0  0  0  0  0  0  0
    2.5448  -41.5649    4.8695 O   0  0  0  0  0  0  0  0  0  0  0  0
    7.4790  -36.6960    1.5891 C   0  0  0  0  0  0  0  0  0  0  0  0
    4.6867  -43.7620    0.8102 O   0  0  0  0  0  0  0  0  0  0  0  0
    0.8484  -39.4126    3.7421 C   0  0  0  0  0  0  0  0  0  0  0  0
    5.3493  -36.8708    3.0239 C   0  0  0  0  0  0  0  0  0  0  0  0
    6.3696  -42.3120    3.4550 C   0  0  0  0  0  0  0  0  0  0  0  0
    0.1811  -42.4307    4.0565 C   0  0  0  0  0  0  0  0  0  0  0  0
    4.3649  -37.9543    5.8257 C   0  0  0  0  0  0  0  0  0  0  0  0
    6.0112  -41.8596    0.8076 O   0  0  0  0  0  0  0  0  0  0  0  0
    1.8148  -41.8701    4.6416 C   0  0  0  0  0  0  0  0  0  0  0  0
    7.3517  -35.0409    8.3822 O   0  0  0  0  0  0  0  0  0  0  0  0
    3.3048  -36.8445    7.5373 C   0  0  0  0  0  0  0  0  0  0  0  0
    1.1823  -43.5845    4.4617 C   0  0  0  0  0  0  0  0  0  0  0  0
    7.9124  -36.2028    0.1248 C   0  0  0  0  0  0  0  0  0  0  0  0
    7.8416  -39.2397    0.9222 N   0  0  0  0  0  0  0  0  0  0  0  0
    4.2250  -42.7216    3.0468 O   0  0  0  0  0  0  0  0  0  0  0  0
    7.5792  -41.5865    2.4301 C   0  0  0  0  0  0  0  0  0  0  0  0
    8.9498  -39.5475    0.4952 C   0  0  0  0  0  0  0  0  0  0  0  0
    5.1101  -35.8617    9.0196 C   0  0  0  0  0  0  0  0  0  0  0  0
    4.7544  -37.8429    7.6014 C   0  0  0  0  0  0  0  0  0  0  0  0
    6.0836  -37.0221    2.3466 O   0  0  0  0  0  0  0  0  0  0  0  0
    5.5007  -42.4844    2.2828 C   0  0  0  0  0  0  0  0  0  0  0  0
   -0.1204  -41.2049    3.0435 C   0  0  0  0  0  0  0  0  0  0  0  0
    3.3108  -37.5501    1.8720 C   0  0  0  0  0  0  0  0  0  0  0  0
  5  3  1  0
  5  4  1  0
  7  3  1  0
 13  6  1  0
 14  8  1  0
 17  6  1  0
 19  8  1  0
 20  9  1  0
 20 18  1  0
 21  7  1  0
 21 15  1  0
 23 19  1  0
 24 10  1  0
 26 22  1  0
 27 10  1  0
 28 15  1  0
 28 23  1  0
 29 14  1  0
 30  1  1  0
 32  9  1  0
 32 14  1  0
 33 24  1  0
 34 25  2  0
 34 31  1  0
 35 18  1  0
 36  2  1  0
 37 31  1  0
 37 34  1  0
 38 17  1  0
 38 26  1  0
 39 11  1  0
 39 13  1  0
 41 11  1  0
 41 12  1  0
 41 30  1  0
 42 16  2  0
 42 39  1  0
 43  2  1  0
 43 20  1  0
 44  2  1  0
 44 32  1  0
 44 36  1  0
 45 26  1  0
 45 29  1  0
 46 30  1  0
 46 33  1  0
 46 40  2  0
 47 15  1  0
 47 21  1  0
 47 31  1  0
 48  8  1  0
M  END
>  <ID>  (1) 
conformer_0

$$$$
