
     RDKit          3D

 46 50  0  0  0  0  0  0  0  0999 V2000
    0.6559  -39.3367    2.8326 C   0  0  0  0  0  0  0  0  0  0  0  0
    4.1174  -36.8313    8.4318 C   0  0  0  0  0  0  0  0  0  0  0  0
    2.8664  -41.4251   -0.6667 C   0  0  0  0  0  0  0  0  0  0  0  0
   -0.1593  -42.0411    2.9308 C   0  0  0  0  0  0  0  0  0  0  0  0
    7.2992  -37.5257   -1.3959 C   0  0  0  0  0  0  0  0  0  0  0  0
    7.0824  -42.1149    3.5859 C   0  0  0  0  0  0  0  0  0  0  0  0
    2.2106  -37.4177    2.7713 C   0  0  0  0  0  0  0  0  0  0  0  0
    4.6635  -37.6754    7.1915 C   0  0  0  0  0  0  0  0  0  0  0  0
    1.3338  -40.6635   -1.0040 C   0  0  0  0  0  0  0  0  0  0  0  0
    5.4042  -42.7017    3.2294 C   0  0  0  0  0  0  0  0  0  0  0  0
    7.9873  -38.5753   -0.0286 C   0  0  0  0  0  0  0  0  0  0  0  0
    4.4041  -43.0187   -0.4774 C   0  0  0  0  0  0  0  0  0  0  0  0
    5.2414  -42.2197    0.9020 C   0  0  0  0  0  0  0  0  0  0  0  0
    7.0498  -34.4936    9.5994 C   0  0  0  0  0  0  0  0  0  0  0  0
    0.2188  -42.7677    4.2514 C   0  0  0  0  0  0  0  0  0  0  0  0
    6.8005  -36.5825   -0.8673 C   0  0  0  0  0  0  0  0  0  0  0  0
    4.5945  -37.4490    4.0841 C   0  0  0  0  0  0  0  0  0  0  0  0
    9.2880  -40.0854   -0.2110 O   0  0  0  0  0  0  0  0  0  0  0  0
    6.5256  -35.2736    2.5309 O   0  0  0  0  0  0  0  0  0  0  0  0
    3.8149  -40.8331   -1.0964 C   0  0  0  0  0  0  0  0  0  0  0  0
    1.7758  -37.8018    3.7246 C   0  0  0  0  0  0  0  0  0  0  0  0
    6.9475  -36.4219    1.5051 C   0  0  0  0  0  0  0  0  0  0  0  0
    3.3293  -42.5880    4.1268 O   0  0  0  0  0  0  0  0  0  0  0  0
    5.0051  -36.8757    3.1909 C   0  0  0  0  0  0  0  0  0  0  0  0
    9.8106  -38.6159    1.7941 O   0  0  0  0  0  0  0  0  0  0  0  0
    8.1230  -38.2398    0.7353 N   0  0  0  0  0  0  0  0  0  0  0  0
    4.9784  -43.5962    0.6111 O   0  0  0  0  0  0  0  0  0  0  0  0
    3.4124  -37.5038    2.1559 C   0  0  0  0  0  0  0  0  0  0  0  0
    5.9640  -35.1677    9.3554 O   0  0  0  0  0  0  0  0  0  0  0  0
    8.4186  -41.7744    3.3865 C   0  0  0  0  0  0  0  0  0  0  0  0
    1.0014  -43.7366    3.8516 C   0  0  0  0  0  0  0  0  0  0  0  0
    6.9844  -41.5027    1.8759 C   0  0  0  0  0  0  0  0  0  0  0  0
    8.2636  -35.8589    0.1533 C   0  0  0  0  0  0  0  0  0  0  0  0
    6.3155  -41.1443    0.7483 O   0  0  0  0  0  0  0  0  0  0  0  0
    4.7823  -36.0361    9.7855 C   0  0  0  0  0  0  0  0  0  0  0  0
    5.0671  -37.0893    5.4775 C   0  0  0  0  0  0  0  0  0  0  0  0
   -0.3741  -40.7899    2.7401 C   0  0  0  0  0  0  0  0  0  0  0  0
   -0.3146  -40.3104    0.7277 C   0  0  0  0  0  0  0  0  0  0  0  0
    2.5711  -42.8019    3.8222 C   0  0  0  0  0  0  0  0  0  0  0  0
    8.4889  -40.2134    1.2979 C   0  0  0  0  0  0  0  0  0  0  0  0
    5.2137  -35.9728    6.5823 C   0  0  0  0  0  0  0  0  0  0  0  0
    8.5952  -37.0189    1.0659 C   0  0  0  0  0  0  0  0  0  0  0  0
    6.0654  -36.8245    2.0996 O   0  0  0  0  0  0  0  0  0  0  0  0
    4.5462  -42.7007    2.5568 O   0  0  0  0  0  0  0  0  0  0  0  0
    1.1827  -40.5960    0.5914 C   0  0  0  0  0  0  0  0  0  0  0  0
    5.9366  -35.4987    8.1461 C   0  0  0  0  0  0  0  0  0  0  0  0
  8  2  1  0
  9  3  1  0
 10  6  1  0
 11  5  1  0
 13 12  1  0
 15  4  1  0
 16  5  1  0
 18 11  1  0
 20  3  1  0
 21  1  1  0
 21  7  1  0
 22 19  1  0
 24 17  1  0
 26 11  2  0
 27 12  1  0
 27 13  1  0
 28  7  1  0
 28 24  1  0
 29 14  1  0
 30  6  1  0
 31 15  1  0
 32  6  1  0
 33 16  1  0
 33 22  1  0
 34 13  1  0
 34 32  1  0
 35  2  1  0
 36  8  1  0
 36 17  1  0
 37  1  1  0
 37  4  1  0
 38 37  1  0
 39 23  2  0
 39 31  1  0
 40 18  1  0
 40 25  2  0
 40 32  1  0
 41  8  1  0
 41 36  1  0
 42 22  1  0
 42 26  1  0
 42 33  1  0
 43 22  1  0
 43 24  1  0
 44 10  1  0
 44 13  1  0
 45  9  1  0
 45 38  1  0
 46 29  1  0
 46 41  1  0
M  END
>  <ID>  (1) 
conformer_0

$$$$
