
     RDKit          3D

 29 29  0  0  0  0  0  0  0  0999 V2000
  -16.2225   -6.1231    4.4679 C   0  0  0  0  0  0  0  0  0  0  0  0
  -22.9348   -3.0993    5.1539 C   0  0  0  0  0  0  0  0  0  0  0  0
  -25.0655   -8.3364    3.6690 C   0  0  0  0  0  0  0  0  0  0  0  0
  -23.0156   -4.0016    0.0564 C   0  0  1  0  0  0  0  0  0  0  0  0
  -24.6361   -6.4276    2.4961 C   0  0  0  0  0  0  0  0  0  0  0  0
  -17.3146   -6.1554    3.8355 C   0  0  0  0  0  0  0  0  0  0  0  0
  -21.7037   -3.5042    1.0828 C   0  0  0  0  0  0  0  0  0  0  0  0
  -21.1194   -2.3584    0.9355 O   0  0  0  0  0  0  0  0  0  0  0  0
  -19.4698   -5.1554    4.0634 C   0  0  1  0  0  0  0  0  0  0  0  0
  -21.7602   -2.3579    4.2900 C   0  0  0  0  0  0  0  0  0  0  0  0
  -23.7979   -5.3588    1.0033 C   0  0  0  0  0  0  0  0  0  0  0  0
  -21.2400   -7.7312    5.1298 O   0  0  0  0  0  0  0  0  0  0  0  0
  -22.6454   -4.0165   -1.2889 C   0  0  0  0  0  0  0  0  0  0  0  0
  -14.7808   -6.2950    4.9237 C   0  0  0  0  0  0  0  0  0  0  0  0
  -25.9016   -7.3387    3.3135 C   0  0  0  0  0  0  0  0  0  0  0  0
  -21.1366   -3.6964    2.8395 N   0  0  0  0  0  0  0  0  0  0  0  0
  -21.0516   -3.6404    3.3653 C   0  0  0  0  0  0  0  0  0  0  0  0
  -21.5090   -8.3921    3.3590 N   0  0  0  0  0  0  0  0  0  0  0  0
  -18.5984   -7.6040    3.4532 C   0  0  0  0  0  0  0  0  0  0  0  0
  -19.5324   -3.9847    5.1125 O   0  0  0  0  0  0  0  0  0  0  0  0
  -23.0615   -5.1551    1.1695 N   0  0  0  0  0  0  0  0  0  0  0  0
  -24.6049   -5.6668    2.2425 N   0  0  0  0  0  0  0  0  0  0  0  0
  -13.1766   -6.3052    5.2482 O   0  0  0  0  0  0  0  0  0  0  0  0
  -19.8140   -7.3238    3.5778 C   0  0  0  0  0  0  0  0  0  0  0  0
  -13.7273   -6.3218    4.5616 N   0  0  0  0  0  0  0  0  0  0  0  0
  -23.6194   -7.9125    3.2709 C   0  0  0  0  0  0  0  0  0  0  0  0
  -21.7549   -8.6266    3.6356 C   0  0  2  0  0  0  0  0  0  0  0  0
  -22.6449   -1.3412    3.9930 C   0  0  0  0  0  0  0  0  0  0  0  0
  -20.0167   -5.7137    3.5162 N   0  0  0  0  0  0  0  0  0  0  0  0
  6  1  2  0
  7  4  1  0
  8  7  2  0
 10  2  1  0
  4 13  1  6
 14  1  2  0
 15  3  2  0
 15  5  1  0
 16  7  1  0
 17  9  1  0
 17 10  1  0
 17 16  2  3
 19  6  1  0
  9 20  1  1
 21  4  1  0
 21 11  1  0
 22  5  1  0
 22 11  1  0
 24 19  1  0
 25 14  1  0
 25 23  1  0
 26  3  1  0
 26  5  2  0
 27 12  1  0
 27 18  1  6
 27 26  1  0
 28 10  1  0
 29  9  1  0
 29 24  1  0
M  END
>  <ID>  (1) 
conformer_0

$$$$
