
     RDKit          3D

 26 25  0  0  0  0  0  0  0  0999 V2000
  -22.0106   -2.8062    4.5667 C   0  0  0  0  0  0  0  0  0  0  0  0
  -15.3206   -5.9878    4.6821 C   0  0  0  0  0  0  0  0  0  0  0  0
  -25.7140   -7.3081    3.0910 C   0  0  0  0  0  0  0  0  0  0  0  0
  -24.0379   -5.4700    1.2629 C   0  0  0  0  0  0  0  0  0  0  0  0
  -21.8053   -3.8070    1.7159 C   0  0  0  0  0  0  0  0  0  0  0  0
  -16.5032   -5.9290    4.2766 C   0  0  0  0  0  0  0  0  0  0  0  0
  -23.7885   -8.2366    3.2771 C   0  0  0  0  0  0  0  0  0  0  0  0
  -21.5333   -2.4874    1.2168 O   0  0  0  0  0  0  0  0  0  0  0  0
  -17.7194   -6.3174    3.7001 C   0  0  0  0  0  0  0  0  0  0  0  0
  -20.6611   -3.7805    3.5837 C   0  0  1  0  0  0  0  0  0  0  0  0
  -20.5609   -7.5298    4.9254 O   0  0  0  0  0  0  0  0  0  0  0  0
  -19.6389   -6.1734    3.7347 C   0  0  1  0  0  0  0  0  0  0  0  0
  -22.4927   -4.0919   -0.8811 C   0  0  0  0  0  0  0  0  0  0  0  0
  -19.7340   -4.2469    5.3327 O   0  0  0  0  0  0  0  0  0  0  0  0
  -21.8343   -1.5894    4.2993 C   0  0  0  0  0  0  0  0  0  0  0  0
  -21.0034   -8.7651    3.4167 C   0  0  0  0  0  0  0  0  0  0  0  0
  -20.2361   -5.0730    3.3367 N   0  0  0  0  0  0  0  0  0  0  0  0
  -23.0981   -5.2735    1.2276 N   0  0  0  0  0  0  0  0  0  0  0  0
  -14.1196   -6.2316    4.8364 C   0  0  0  0  0  0  0  0  0  0  0  0
  -24.8754   -6.7326    2.5767 C   0  0  0  0  0  0  0  0  0  0  0  0
  -13.3438   -6.0372    5.6021 O   0  0  0  0  0  0  0  0  0  0  0  0
  -19.0871   -7.7693    3.4028 C   0  0  0  0  0  0  0  0  0  0  0  0
  -23.4290   -4.0723    0.1711 C   0  0  0  0  0  0  0  0  0  0  0  0
  -23.1612   -7.8300    2.2318 N   0  0  0  0  0  0  0  0  0  0  0  0
  -21.8313   -8.7071    3.1783 N   0  0  0  0  0  0  0  0  0  0  0  0
  -25.2042   -8.3220    3.9033 C   0  0  0  0  0  0  0  0  0  0  0  0
  6  2  3  0
  8  5  1  0
  9  6  1  0
 10  1  1  0
 12  9  1  0
 12 11  1  0
 10 14  1  1
 15  1  1  0
 16 11  1  0
 17 10  1  0
 17 12  1  0
 18  4  1  0
 18  5  1  0
 19  2  1  0
 20  3  2  0
 20  4  2  0
 21 19  1  0
 12 22  1  6
 23 13  1  0
 23 18  1  0
 24  7  2  3
 25 16  1  0
 25 24  1  0
 26  3  1  0
 26  7  1  0
M  END
>  <ID>  (1) 
conformer_0

$$$$
