
     RDKit          3D

 26 26  0  0  0  0  0  0  0  0999 V2000
  -15.2414   -6.0129    4.6058 C   0  0  0  0  0  0  0  0  0  0  0  0
  -22.0707   -3.0412    4.4772 C   0  0  0  0  0  0  0  0  0  0  0  0
  -25.1924   -8.7694    3.8425 C   0  0  0  0  0  0  0  0  0  0  0  0
  -24.0889   -5.1268    0.8920 C   0  0  0  0  0  0  0  0  0  0  0  0
  -21.7478   -3.6936    1.7418 C   0  0  0  0  0  0  0  0  0  0  0  0
  -19.2152   -5.9500    3.9858 C   0  0  1  0  0  0  0  0  0  0  0  0
  -24.6209   -6.9209    2.4611 C   0  0  0  0  0  0  0  0  0  0  0  0
  -19.1560   -3.9686    4.9321 O   0  0  0  0  0  0  0  0  0  0  0  0
  -16.5032   -5.7689    4.3525 C   0  0  0  0  0  0  0  0  0  0  0  0
  -21.4508   -2.5965    0.8662 O   0  0  0  0  0  0  0  0  0  0  0  0
  -20.9296   -8.2852    3.8065 C   0  0  0  0  0  0  0  0  0  0  0  0
  -17.5914   -6.4138    4.4731 C   0  0  0  0  0  0  0  0  0  0  0  0
  -21.3105   -7.7870    5.0555 O   0  0  0  0  0  0  0  0  0  0  0  0
  -22.1352   -4.1363   -1.3696 C   0  0  0  0  0  0  0  0  0  0  0  0
  -22.2310   -9.0333    3.6569 N   0  0  0  0  0  0  0  0  0  0  0  0
  -20.1628   -5.1754    3.2724 N   0  0  0  0  0  0  0  0  0  0  0  0
  -22.9536   -3.9543    0.1741 C   0  0  1  0  0  0  0  0  0  0  0  0
  -25.7072   -7.6835    3.1718 C   0  0  0  0  0  0  0  0  0  0  0  0
  -14.3184   -5.9192    5.1164 C   0  0  0  0  0  0  0  0  0  0  0  0
  -23.2385   -5.1211    0.9668 N   0  0  0  0  0  0  0  0  0  0  0  0
  -21.9572   -1.8492    4.0478 C   0  0  0  0  0  0  0  0  0  0  0  0
  -24.6757   -6.1534    1.9042 N   0  0  0  0  0  0  0  0  0  0  0  0
  -23.6795   -8.5033    3.5485 C   0  0  1  0  0  0  0  0  0  0  0  0
  -23.3962   -7.5232    2.3238 N   0  0  0  0  0  0  0  0  0  0  0  0
  -20.5231   -3.9687    3.4472 C   0  0  1  0  0  0  0  0  0  0  0  0
  -19.1996   -7.8461    3.7040 C   0  0  0  0  0  0  0  0  0  0  0  0
  9  1  1  0
 10  5  1  0
 12  6  1  0
 12  9  2  3
 13 11  2  0
 15 11  1  0
 16  6  1  0
 17  5  1  0
 17 14  1  6
 18  3  2  0
 18  7  1  0
 19  1  3  0
 20  4  1  0
 20 17  1  0
 21  2  1  0
 22  4  1  0
 22  7  1  0
 23  3  1  0
 23 15  1  6
 24  7  2  0
 24 23  1  0
 25  2  1  0
 25  8  1  1
 25 16  1  0
  6 26  1  6
 26 11  1  0
M  END
>  <ID>  (1) 
conformer_0

$$$$
