
     RDKit          3D

 26 25  0  0  0  0  0  0  0  0999 V2000
  -26.0426   -7.5783    3.3405 C   0  0  0  0  0  0  0  0  0  0  0  0
  -22.4276   -2.7824    4.6356 C   0  0  0  0  0  0  0  0  0  0  0  0
  -15.8165   -5.6949    4.7913 C   0  0  0  0  0  0  0  0  0  0  0  0
  -23.1910   -3.5881    0.6498 C   0  0  1  0  0  0  0  0  0  0  0  0
  -21.7480   -3.8801    1.4611 C   0  0  2  0  0  0  0  0  0  0  0  0
  -16.8876   -6.1131    4.2128 C   0  0  0  0  0  0  0  0  0  0  0  0
  -23.7553   -8.7332    3.4125 C   0  0  0  0  0  0  0  0  0  0  0  0
  -20.8337   -3.7427    3.3001 C   0  0  2  0  0  0  0  0  0  0  0  0
  -21.3405   -2.4210    0.9554 O   0  0  0  0  0  0  0  0  0  0  0  0
  -19.2474   -3.7124    4.7627 O   0  0  0  0  0  0  0  0  0  0  0  0
  -21.3943   -9.0432    3.5934 C   0  0  0  0  0  0  0  0  0  0  0  0
  -25.1419   -7.2067    2.3898 C   0  0  0  0  0  0  0  0  0  0  0  0
  -20.6980   -7.8354    4.6603 O   0  0  0  0  0  0  0  0  0  0  0  0
  -23.1051   -5.3448    1.5222 N   0  0  0  0  0  0  0  0  0  0  0  0
  -19.1682   -5.1248    3.7867 C   0  0  0  0  0  0  0  0  0  0  0  0
  -14.6461   -5.9324    4.8986 C   0  0  0  0  0  0  0  0  0  0  0  0
  -22.3925   -9.0662    3.5075 N   0  0  0  0  0  0  0  0  0  0  0  0
  -20.2874   -4.9780    3.0341 N   0  0  0  0  0  0  0  0  0  0  0  0
  -22.5144   -4.0543   -0.7209 C   0  0  0  0  0  0  0  0  0  0  0  0
  -13.3388   -5.4981    5.5770 O   0  0  0  0  0  0  0  0  0  0  0  0
  -21.8309   -1.9649    4.0527 C   0  0  0  0  0  0  0  0  0  0  0  0
  -18.3264   -7.2376    3.7326 C   0  0  0  0  0  0  0  0  0  0  0  0
  -24.1502   -5.1608    1.2957 C   0  0  1  0  0  0  0  0  0  0  0  0
  -24.1561   -6.8978    2.5663 C   0  0  0  0  0  0  0  0  0  0  0  0
  -19.5558   -7.2779    3.6671 C   0  0  0  0  0  0  0  0  0  0  0  0
  -25.1458   -8.6551    3.8353 C   0  0  0  0  0  0  0  0  0  0  0  0
  5  4  1  0
  6  3  2  0
  8  5  1  0
  5  9  1  6
 12  1  1  0
 13 11  1  0
 15 10  1  0
 16  3  1  0
 17  7  1  0
 17 11  1  0
 18  8  1  0
 18 15  1  0
  4 19  1  6
 20 16  1  0
 21  2  1  0
  8 21  1  1
 22  6  2  0
 23  4  1  0
 23 14  1  6
 24 12  1  0
 24 23  1  0
 25 13  1  0
 25 22  1  0
 26  1  2  3
 26  7  1  0
M  END
>  <ID>  (1) 
conformer_0

$$$$
