
     RDKit          3D

 23 23  0  0  0  0  0  0  0  0999 V2000
  -16.0279   -5.9105    4.5491 C   0  0  0  0  0  0  0  0  0  0  0  0
  -21.9737   -2.6355    4.3035 C   0  0  0  0  0  0  0  0  0  0  0  0
  -25.5650   -8.1909    3.2263 C   0  0  0  0  0  0  0  0  0  0  0  0
  -23.2502   -4.2279    0.4600 C   0  0  1  0  0  0  0  0  0  0  0  0
  -21.9610   -3.6538    1.4834 C   0  0  2  0  0  0  0  0  0  0  0  0
  -17.1320   -6.2253    4.2252 C   0  0  0  0  0  0  0  0  0  0  0  0
  -21.7058   -9.0089    3.2845 C   0  0  0  0  0  0  0  0  0  0  0  0
  -24.0096   -8.5826    2.8332 C   0  0  2  0  0  0  0  0  0  0  0  0
  -21.1594   -2.7062    0.9963 O   0  0  0  0  0  0  0  0  0  0  0  0
  -20.8201   -7.9135    5.0047 O   0  0  0  0  0  0  0  0  0  0  0  0
  -22.3154   -4.5195   -0.6838 C   0  0  0  0  0  0  0  0  0  0  0  0
  -18.9184   -4.1637    4.5651 O   0  0  0  0  0  0  0  0  0  0  0  0
  -22.5816   -1.7673    4.2763 C   0  0  0  0  0  0  0  0  0  0  0  0
  -24.1206   -5.6595    1.0350 C   0  0  1  0  0  0  0  0  0  0  0  0
  -14.6003   -6.0010    4.9988 C   0  0  0  0  0  0  0  0  0  0  0  0
  -18.6385   -7.5376    3.5430 C   0  0  0  0  0  0  0  0  0  0  0  0
  -20.9422   -3.8354    3.2043 C   0  0  2  0  0  0  0  0  0  0  0  0
  -20.0009   -5.6683    3.5749 N   0  0  0  0  0  0  0  0  0  0  0  0
  -13.4003   -5.5599    5.5145 O   0  0  0  0  0  0  0  0  0  0  0  0
  -23.3891   -6.2728    1.1743 N   0  0  0  0  0  0  0  0  0  0  0  0
  -19.9818   -7.7692    3.9564 C   0  0  1  0  0  0  0  0  0  0  0  0
  -19.3948   -5.1914    4.1226 C   0  0  0  0  0  0  0  0  0  0  0  0
  -24.7301   -6.9911    2.3994 C   0  0  1  0  0  0  0  0  0  0  0  0
  5  4  1  0
  6  1  3  0
  8  3  1  0
  8  7  1  1
  5  9  1  6
  4 11  1  6
 13  2  2  3
 14  4  1  0
 15  1  1  0
 16  6  1  0
 17  2  1  0
 17  5  1  0
 17 18  1  1
 19 15  1  0
 14 20  1  6
 21  7  1  0
 21 10  1  1
 21 16  1  0
 22 12  2  0
 22 18  1  0
 23  3  1  6
 23  8  1  0
 23 14  1  0
M  END
>  <ID>  (1) 
conformer_0

$$$$
