
     RDKit          3D

 29 31  0  0  0  0  0  0  0  0999 V2000
  -25.5280   -8.7859    3.2306 C   0  0  0  0  0  0  0  0  0  0  0  0
  -15.8703   -5.8094    4.2591 C   0  0  0  0  0  0  0  0  0  0  0  0
  -21.7344   -2.1452    4.1447 C   0  0  0  0  0  0  0  0  0  0  0  0
  -24.2472   -5.5728    1.1954 C   0  0  0  0  0  0  0  0  0  0  0  0
  -21.3291   -3.5931    2.5411 C   0  0  0  0  0  0  0  0  0  0  0  0
  -18.9475   -5.6733    3.8097 C   0  0  2  0  0  0  0  0  0  0  0  0
  -24.9427   -6.7573    2.4967 C   0  0  0  0  0  0  0  0  0  0  0  0
  -19.8899   -7.4775    3.7434 C   0  0  0  0  0  0  0  0  0  0  0  0
  -19.1025   -4.2101    4.8402 O   0  0  0  0  0  0  0  0  0  0  0  0
  -23.7110   -4.3574    0.3877 C   0  0  1  0  0  0  0  0  0  0  0  0
  -20.9473   -2.4754    0.9665 O   0  0  0  0  0  0  0  0  0  0  0  0
  -15.9380   -6.5740    5.2374 C   0  0  0  0  0  0  0  0  0  0  0  0
  -21.1046   -7.4628    4.9729 O   0  0  0  0  0  0  0  0  0  0  0  0
  -14.3294   -6.2302    4.9442 C   0  0  0  0  0  0  0  0  0  0  0  0
  -22.2239   -9.0747    3.5167 N   0  0  0  0  0  0  0  0  0  0  0  0
  -22.9991   -3.5945   -0.7954 C   0  0  0  0  0  0  0  0  0  0  0  0
  -19.1633   -8.1859    3.4606 C   0  0  0  0  0  0  0  0  0  0  0  0
  -23.4042   -5.2392    1.1167 N   0  0  0  0  0  0  0  0  0  0  0  0
  -13.2489   -6.2372    5.5203 O   0  0  0  0  0  0  0  0  0  0  0  0
  -23.5904   -7.6943    2.3619 N   0  0  0  0  0  0  0  0  0  0  0  0
  -22.4076   -3.2695    4.8671 C   0  0  0  0  0  0  0  0  0  0  0  0
  -22.1291   -3.4249    2.1887 N   0  0  0  0  0  0  0  0  0  0  0  0
  -19.9586   -5.5679    3.2870 N   0  0  0  0  0  0  0  0  0  0  0  0
  -26.0818   -7.6103    3.0589 C   0  0  0  0  0  0  0  0  0  0  0  0
  -24.1175   -8.5764    3.1488 C   0  0  1  0  0  0  0  0  0  0  0  0
  -20.3949   -4.0487    3.8182 C   0  0  2  0  0  0  0  0  0  0  0  0
  -17.4032   -6.2892    3.8032 C   0  0  0  0  0  0  0  0  0  0  0  0
  -21.6200   -9.0222    3.7980 C   0  0  0  0  0  0  0  0  0  0  0  0
  -22.3901   -3.4133    0.8326 C   0  0  1  0  0  0  0  0  0  0  0  0
  7  4  1  0
  8  6  1  0
  9  6  1  0
 11  5  2  0
 12  2  1  0
 13  8  1  0
 14 12  1  0
 16 10  1  0
 17  8  2  3
 18  4  1  0
 10 18  1  6
 19 14  1  0
 20  7  2  0
 21  3  1  0
 22  5  1  0
 23  6  1  0
 24  1  2  0
 24  7  1  0
 25  1  1  0
 25 15  1  6
 25 20  1  0
 26  5  1  6
 26  9  1  0
 26 23  1  0
 27  2  1  0
  6 27  1  6
 28 15  1  0
 29  3  1  1
 29 10  1  0
 29 16  1  0
 29 22  1  0
M  END
>  <ID>  (1) 
conformer_0

$$$$
