
     RDKit          3D

 25 24  0  0  0  0  0  0  0  0999 V2000
  -21.9893   -2.7469    4.7757 C   0  0  0  0  0  0  0  0  0  0  0  0
  -15.6520   -6.0193    4.4832 C   0  0  0  0  0  0  0  0  0  0  0  0
  -24.2132   -5.3645    1.0407 C   0  0  0  0  0  0  0  0  0  0  0  0
  -25.3695   -8.0941    3.1528 C   0  0  0  0  0  0  0  0  0  0  0  0
  -22.0864   -3.8076    1.4653 C   0  0  0  0  0  0  0  0  0  0  0  0
  -16.8756   -5.9478    4.0207 C   0  0  0  0  0  0  0  0  0  0  0  0
  -21.9100   -9.5682    3.7895 C   0  0  0  0  0  0  0  0  0  0  0  0
  -23.9377   -8.6235    3.1965 C   0  0  0  0  0  0  0  0  0  0  0  0
  -21.1943   -2.7408    1.2652 O   0  0  0  0  0  0  0  0  0  0  0  0
  -21.9089   -1.7439    4.4885 C   0  0  0  0  0  0  0  0  0  0  0  0
  -23.3710   -4.1003    0.1559 C   0  0  0  0  0  0  0  0  0  0  0  0
  -20.9959   -7.5279    4.9722 O   0  0  0  0  0  0  0  0  0  0  0  0
  -20.5283   -3.5661    3.6567 C   0  0  0  0  0  0  0  0  0  0  0  0
  -19.0056   -3.6912    4.8162 O   0  0  0  0  0  0  0  0  0  0  0  0
  -21.8785   -4.1183   -0.9815 C   0  0  0  0  0  0  0  0  0  0  0  0
  -22.6899   -8.9209    3.4596 N   0  0  0  0  0  0  0  0  0  0  0  0
  -13.2464   -6.2242    5.4346 O   0  0  0  0  0  0  0  0  0  0  0  0
  -20.4927   -4.9117    3.1112 N   0  0  0  0  0  0  0  0  0  0  0  0
  -14.3924   -6.2526    4.9346 C   0  0  0  0  0  0  0  0  0  0  0  0
  -23.3472   -5.0530    0.9123 N   0  0  0  0  0  0  0  0  0  0  0  0
  -18.3661   -6.7513    3.3156 C   0  0  0  0  0  0  0  0  0  0  0  0
  -24.6417   -6.8704    2.2992 C   0  0  0  0  0  0  0  0  0  0  0  0
  -20.5152   -7.8775    3.5766 C   0  0  0  0  0  0  0  0  0  0  0  0
  -19.2238   -5.2194    3.9300 C   0  0  0  0  0  0  0  0  0  0  0  0
  -24.7015   -6.0890    2.0527 N   0  0  0  0  0  0  0  0  0  0  0  0
  6  2  1  0
  8  4  1  0
  9  5  1  0
 10  1  1  0
 11  5  1  0
 13  1  1  0
 15 11  1  0
 16  7  1  0
 16  8  1  0
 18 13  1  0
 19  2  3  0
 19 17  1  0
 20  3  1  0
 20 11  1  0
 21  6  1  0
 22  4  1  0
 23  7  1  0
 23 12  1  0
 23 21  1  0
 24 14  2  0
 24 18  1  0
 24 21  1  0
 25  3  1  0
 25 22  1  0
M  END
>  <ID>  (1) 
conformer_0

$$$$
