
     RDKit          3D

 26 26  0  0  0  0  0  0  0  0999 V2000
  -21.5688   -2.8440    4.6884 C   0  0  0  0  0  0  0  0  0  0  0  0
  -15.7941   -6.2948    4.8501 C   0  0  0  0  0  0  0  0  0  0  0  0
  -22.5787   -3.9048    0.3911 C   0  0  2  0  0  0  0  0  0  0  0  0
  -25.4571   -8.3854    3.5539 C   0  0  0  0  0  0  0  0  0  0  0  0
  -16.8051   -6.2086    4.2037 C   0  0  0  0  0  0  0  0  0  0  0  0
  -20.0738   -3.7822    3.9353 C   0  0  2  0  0  0  0  0  0  0  0  0
  -24.9234   -6.4507    2.4046 C   0  0  0  0  0  0  0  0  0  0  0  0
  -19.4442   -6.6156    4.0129 C   0  0  2  0  0  0  0  0  0  0  0  0
  -21.3541   -2.2653    1.1745 O   0  0  0  0  0  0  0  0  0  0  0  0
  -21.6545   -8.8670    3.9548 C   0  0  0  0  0  0  0  0  0  0  0  0
  -22.5805   -4.0415   -1.1307 C   0  0  0  0  0  0  0  0  0  0  0  0
  -20.5206   -7.3653    5.2346 O   0  0  0  0  0  0  0  0  0  0  0  0
  -21.4036   -3.6456    2.1682 C   0  0  1  0  0  0  0  0  0  0  0  0
  -23.1648   -5.2073    1.2082 N   0  0  0  0  0  0  0  0  0  0  0  0
  -20.1724   -4.9367    3.3387 N   0  0  0  0  0  0  0  0  0  0  0  0
  -18.2235   -6.9569    3.3504 C   0  0  0  0  0  0  0  0  0  0  0  0
  -22.1026   -1.7214    4.1971 C   0  0  0  0  0  0  0  0  0  0  0  0
  -21.1068   -8.4700    3.6701 N   0  0  0  0  0  0  0  0  0  0  0  0
  -13.3639   -6.6173    4.9738 O   0  0  0  0  0  0  0  0  0  0  0  0
  -24.8057   -5.8833    2.1318 N   0  0  0  0  0  0  0  0  0  0  0  0
  -14.4633   -6.1567    4.8759 C   0  0  0  0  0  0  0  0  0  0  0  0
  -23.5128   -7.7304    2.5178 N   0  0  0  0  0  0  0  0  0  0  0  0
  -24.1314   -8.1714    3.3321 C   0  0  0  0  0  0  0  0  0  0  0  0
  -23.8575   -4.8343    1.0089 C   0  0  0  0  0  0  0  0  0  0  0  0
  -18.8657   -3.9475    4.5230 O   0  0  0  0  0  0  0  0  0  0  0  0
  -26.0842   -7.2146    2.8572 C   0  0  0  0  0  0  0  0  0  0  0  0
  5  2  1  0
  6  1  1  0
  3 11  1  6
 12  8  1  0
 13  3  1  0
 13  6  1  0
 13  9  1  6
 14  3  1  0
 15  6  1  0
 15  8  1  0
 16  5  1  0
  8 16  1  6
 17  1  2  3
 18 10  1  0
 18 12  1  0
 20  7  1  0
 21  2  1  0
 21 19  1  0
 22  7  2  0
 23  4  2  0
 23 22  1  0
 24 14  1  0
 24 20  1  0
  6 25  1  6
 26  4  1  0
 26  7  1  0
M  END
>  <ID>  (1) 
conformer_0

$$$$
