
     RDKit          3D

 28 27  0  0  0  0  0  0  0  0999 V2000
  -21.3638   -2.0008    4.2925 C   0  0  0  0  0  0  0  0  0  0  0  0
  -26.1596   -8.2726    3.3094 C   0  0  0  0  0  0  0  0  0  0  0  0
  -17.3268   -5.7444    4.0429 C   0  0  0  0  0  0  0  0  0  0  0  0
  -24.3080   -4.6977    0.8009 C   0  0  1  0  0  0  0  0  0  0  0  0
  -19.7359   -4.9409    3.9816 C   0  0  0  0  0  0  0  0  0  0  0  0
  -23.6717   -8.0603    3.1738 C   0  0  0  0  0  0  0  0  0  0  0  0
  -24.8440   -8.6859    3.5348 C   0  0  0  0  0  0  0  0  0  0  0  0
  -20.9225   -2.4338    1.3557 O   0  0  0  0  0  0  0  0  0  0  0  0
  -21.6805   -3.8418    1.1893 C   0  0  0  0  0  0  0  0  0  0  0  0
  -14.8448   -6.3948    4.8423 C   0  0  0  0  0  0  0  0  0  0  0  0
  -16.2438   -6.1652    4.6657 C   0  0  0  0  0  0  0  0  0  0  0  0
  -22.3231   -3.8912   -0.9917 C   0  0  0  0  0  0  0  0  0  0  0  0
  -19.4960   -4.0086    5.4106 O   0  0  0  0  0  0  0  0  0  0  0  0
  -21.3236   -7.8558    5.0764 O   0  0  0  0  0  0  0  0  0  0  0  0
  -23.1590   -5.2292    1.2637 N   0  0  0  0  0  0  0  0  0  0  0  0
  -23.0403   -3.7114    0.0640 C   0  0  1  0  0  0  0  0  0  0  0  0
  -22.2059   -2.8097    4.7551 C   0  0  0  0  0  0  0  0  0  0  0  0
  -20.4702   -4.4661    3.1717 N   0  0  0  0  0  0  0  0  0  0  0  0
  -22.5436   -8.5275    3.4217 N   0  0  0  0  0  0  0  0  0  0  0  0
  -25.1344   -5.5779    1.7108 N   0  0  0  0  0  0  0  0  0  0  0  0
  -19.6131   -6.8872    3.5464 C   0  0  0  0  0  0  0  0  0  0  0  0
  -24.9398   -6.5671    2.2333 C   0  0  0  0  0  0  0  0  0  0  0  0
  -25.9647   -7.2167    2.5491 C   0  0  0  0  0  0  0  0  0  0  0  0
  -18.2925   -6.9380    3.6208 C   0  0  0  0  0  0  0  0  0  0  0  0
  -21.2669   -8.5911    3.6960 C   0  0  0  0  0  0  0  0  0  0  0  0
  -25.9403   -3.9259    1.3280 S   0  0  0  0  0  0  0  0  0  0  0  0
  -20.7864   -3.1558    3.2568 C   0  0  2  0  0  0  0  0  0  0  0  0
  -14.4872   -7.0936    4.7799 F   0  0  0  0  0  0  0  0  0  0  0  0
  7  2  1  0
  7  6  2  3
  9  8  1  0
 11  3  1  0
 11 10  1  0
 13  5  2  0
  4 15  1  6
 16  4  1  0
 16  9  1  0
 16 12  1  6
 17  1  1  0
 18  5  1  0
 19  6  1  0
 20  4  1  0
 21  5  1  0
 22 20  1  0
 23  2  1  0
 23 22  2  3
 24  3  1  0
 24 21  1  0
 25 14  1  0
 25 19  1  0
 26  4  1  0
 27  1  1  6
 27  8  1  0
 27 18  1  0
 28 10  1  0
M  END
>  <ID>  (1) 
conformer_0

$$$$
