
     RDKit          3D

 28 28  0  0  0  0  0  0  0  0999 V2000
  -15.4283   -6.6168    4.8938 C   0  0  0  0  0  0  0  0  0  0  0  0
  -21.6595   -3.0891    4.1765 C   0  0  0  0  0  0  0  0  0  0  0  0
  -25.2627   -8.6098    3.6264 C   0  0  0  0  0  0  0  0  0  0  0  0
  -16.4491   -6.0596    4.2910 C   0  0  0  0  0  0  0  0  0  0  0  0
  -24.2255   -5.1318    1.2026 C   0  0  0  0  0  0  0  0  0  0  0  0
  -23.7234   -8.4430    3.4228 C   0  0  0  0  0  0  0  0  0  0  0  0
  -19.1408   -5.2556    4.1546 C   0  0  0  0  0  0  0  0  0  0  0  0
  -20.9420   -2.5479    1.3305 O   0  0  0  0  0  0  0  0  0  0  0  0
  -23.7845   -3.8320    0.1160 C   0  0  0  0  0  0  0  0  0  0  0  0
  -22.0240   -9.1503    4.1151 C   0  0  0  0  0  0  0  0  0  0  0  0
  -19.1411   -4.3688    5.1000 O   0  0  0  0  0  0  0  0  0  0  0  0
  -22.8563   -3.8468   -0.9300 C   0  0  0  0  0  0  0  0  0  0  0  0
  -20.7871   -7.4919    4.8705 O   0  0  0  0  0  0  0  0  0  0  0  0
  -17.7519   -6.6553    4.0471 C   0  0  0  0  0  0  0  0  0  0  0  0
  -20.1247   -5.0990    3.1830 N   0  0  0  0  0  0  0  0  0  0  0  0
  -22.1177   -2.0376    3.9813 C   0  0  0  0  0  0  0  0  0  0  0  0
  -22.0007   -3.5941    1.0543 C   0  0  0  0  0  0  0  0  0  0  0  0
  -14.4835   -6.1925    5.0708 C   0  0  0  0  0  0  0  0  0  0  0  0
  -23.3874   -4.7819    1.0279 N   0  0  0  0  0  0  0  0  0  0  0  0
  -25.7682   -7.7102    3.0306 C   0  0  0  0  0  0  0  0  0  0  0  0
  -24.7270   -5.8366    2.2028 N   0  0  0  0  0  0  0  0  0  0  0  0
  -13.5667   -5.5595    5.6400 O   0  0  0  0  0  0  0  0  0  0  0  0
  -24.6936   -6.7729    2.5560 C   0  0  0  0  0  0  0  0  0  0  0  0
  -20.8135   -3.8905    3.2306 C   0  0  0  0  0  0  0  0  0  0  0  0
  -23.3437   -7.3678    2.4256 N   0  0  0  0  0  0  0  0  0  0  0  0
  -21.5760   -8.5200    3.5796 N   0  0  0  0  0  0  0  0  0  0  0  0
  -20.0575   -7.7028    3.7288 C   0  0  2  0  0  0  0  0  0  0  0  0
  -18.9016   -7.8078    3.6894 C   0  0  0  0  0  0  0  0  0  0  0  0
  4  1  2  3
  6  3  2  0
 10  6  1  0
 11  7  2  0
 12  9  1  0
 14  4  1  0
 14  7  1  0
 15  7  1  0
 16  2  2  3
 17  8  1  0
 18  1  1  0
 19  5  1  0
 19  9  1  0
 19 17  1  0
 20  3  1  0
 21  5  1  0
 22 18  1  0
 23 20  1  0
 23 21  1  0
 24  2  1  0
 24 15  1  0
 25  6  1  0
 25 23  2  0
 26 10  1  0
 27 13  1  1
 27 26  1  0
 28 14  2  3
 28 27  1  0
M  END
>  <ID>  (1) 
conformer_0

$$$$
