
     RDKit          3D

 28 28  0  0  0  0  0  0  0  0999 V2000
  -22.2561   -2.6774    4.7101 C   0  0  0  0  0  0  0  0  0  0  0  0
  -15.9994   -6.3301    4.2718 C   0  0  0  0  0  0  0  0  0  0  0  0
  -25.3930   -8.4267    3.5467 C   0  0  0  0  0  0  0  0  0  0  0  0
  -23.4267   -3.9611   -0.0419 C   0  0  0  0  0  0  0  0  0  0  0  0
  -20.9258   -3.5406    3.3129 C   0  0  0  0  0  0  0  0  0  0  0  0
  -24.7787   -6.6681    2.3235 C   0  0  0  0  0  0  0  0  0  0  0  0
  -19.2792   -5.4190    4.0739 C   0  0  0  0  0  0  0  0  0  0  0  0
  -21.7020   -8.9721    3.8345 C   0  0  0  0  0  0  0  0  0  0  0  0
  -21.1054   -2.4431    1.0631 O   0  0  0  0  0  0  0  0  0  0  0  0
  -20.3921   -7.7098    4.8986 O   0  0  0  0  0  0  0  0  0  0  0  0
  -21.8693   -3.4646    1.1484 C   0  0  0  0  0  0  0  0  0  0  0  0
  -19.5754   -4.4543    5.0977 O   0  0  0  0  0  0  0  0  0  0  0  0
  -21.8718   -1.7513    4.1187 C   0  0  0  0  0  0  0  0  0  0  0  0
  -15.0915   -6.1443    4.8667 C   0  0  0  0  0  0  0  0  0  0  0  0
  -17.1963   -5.7814    3.8655 C   0  0  0  0  0  0  0  0  0  0  0  0
  -23.4118   -5.1343    0.7821 N   0  0  0  0  0  0  0  0  0  0  0  0
  -22.0096   -8.8760    3.5088 N   0  0  0  0  0  0  0  0  0  0  0  0
  -20.6028   -4.5768    3.0973 N   0  0  0  0  0  0  0  0  0  0  0  0
  -13.3230   -5.6341    5.5748 O   0  0  0  0  0  0  0  0  0  0  0  0
  -22.3874   -4.0453   -0.9577 C   0  0  0  0  0  0  0  0  0  0  0  0
  -25.9345   -7.2500    2.9805 C   0  0  0  0  0  0  0  0  0  0  0  0
  -24.7583   -5.8426    1.9395 N   0  0  0  0  0  0  0  0  0  0  0  0
  -13.9897   -6.1761    4.9614 N   0  0  0  0  0  0  0  0  0  0  0  0
  -24.0227   -8.3021    3.2323 C   0  0  0  0  0  0  0  0  0  0  0  0
  -19.6628   -7.6481    3.8520 C   0  0  0  0  0  0  0  0  0  0  0  0
  -24.2691   -5.3278    0.8529 C   0  0  0  0  0  0  0  0  0  0  0  0
  -23.4284   -7.3455    2.1182 N   0  0  0  0  0  0  0  0  0  0  0  0
  -18.1168   -7.2282    3.9281 C   0  0  0  0  0  0  0  0  0  0  0  0
  5  1  1  0
 10  8  1  0
 11  4  1  0
 11  9  2  0
 12  7  1  0
 13  1  1  0
 14  2  1  0
 15  2  1  0
 15  7  1  0
 16  4  1  0
 17  8  1  0
 18  5  1  0
 18  7  1  0
 20  4  1  0
 21  3  2  0
 21  6  1  0
 22  6  1  0
 23 14  1  0
 23 19  1  0
 24  3  1  0
 24 17  1  0
 25 10  1  0
 26 16  1  0
 26 22  1  0
 27  6  2  0
 27 24  1  0
 28 15  1  0
 28 25  1  0
M  END
>  <ID>  (1) 
conformer_0

$$$$
