
     RDKit          3D

 24 23  0  0  0  0  0  0  0  0999 V2000
  -15.5148   -6.3609    4.8082 C   0  0  0  0  0  0  0  0  0  0  0  0
  -21.9454   -1.6764    3.8373 C   0  0  0  0  0  0  0  0  0  0  0  0
  -25.1698   -8.6352    3.9585 C   0  0  0  0  0  0  0  0  0  0  0  0
  -24.3034   -5.4282    0.8458 C   0  0  0  0  0  0  0  0  0  0  0  0
  -16.7583   -6.1822    4.1608 C   0  0  0  0  0  0  0  0  0  0  0  0
  -23.6383   -8.2439    3.5601 C   0  0  0  0  0  0  0  0  0  0  0  0
  -19.3845   -6.1662    4.0740 C   0  0  0  0  0  0  0  0  0  0  0  0
  -23.4148   -4.2926    0.2099 C   0  0  2  0  0  0  0  0  0  0  0  0
  -21.3274   -2.3867    1.0223 O   0  0  0  0  0  0  0  0  0  0  0  0
  -19.5621   -4.3191    5.2778 O   0  0  0  0  0  0  0  0  0  0  0  0
  -21.8071   -8.5602    4.4090 C   0  0  0  0  0  0  0  0  0  0  0  0
  -20.4614   -4.9619    3.2962 N   0  0  0  0  0  0  0  0  0  0  0  0
  -20.6868   -4.0439    3.8725 C   0  0  1  0  0  0  0  0  0  0  0  0
  -21.9569   -4.4758   -0.6583 C   0  0  0  0  0  0  0  0  0  0  0  0
  -21.4505   -8.0473    5.2664 O   0  0  0  0  0  0  0  0  0  0  0  0
  -14.0224   -6.2424    4.8581 C   0  0  0  0  0  0  0  0  0  0  0  0
  -23.4703   -5.7128    1.3114 N   0  0  0  0  0  0  0  0  0  0  0  0
  -21.8386   -2.8268    4.5863 C   0  0  0  0  0  0  0  0  0  0  0  0
  -12.9000   -6.4145    4.7288 O   0  0  0  0  0  0  0  0  0  0  0  0
  -18.3743   -7.0550    3.6690 C   0  0  0  0  0  0  0  0  0  0  0  0
  -24.6273   -6.7845    2.5867 C   0  0  0  0  0  0  0  0  0  0  0  0
  -22.4993   -8.5201    3.5664 N   0  0  0  0  0  0  0  0  0  0  0  0
  -25.8250   -7.4123    3.3157 C   0  0  0  0  0  0  0  0  0  0  0  0
  -21.8954   -3.5047    1.1865 C   0  0  0  0  0  0  0  0  0  0  0  0
  5  1  1  0
  6  3  2  3
  8  4  1  0
 12  7  1  0
 13 10  1  6
 13 12  1  0
  8 14  1  6
 15 11  2  0
 16  1  2  0
 17  4  1  0
 18  2  1  0
 18 13  1  0
 19 16  2  0
 20  5  1  0
 20  7  1  0
 21 17  1  0
 22  6  1  0
 22 11  1  0
 23  3  1  0
 23 21  1  0
 24  8  1  0
 24  9  2  0
 24 13  1  0
M  END
>  <ID>  (1) 
conformer_0

$$$$
