
     RDKit          3D

 25 24  0  0  0  0  0  0  0  0999 V2000
  -14.7678   -5.9479    4.8299 C   0  0  0  0  0  0  0  0  0  0  0  0
  -22.2128   -1.4462    3.7506 C   0  0  0  0  0  0  0  0  0  0  0  0
  -26.1582   -7.4978    3.0761 C   0  0  0  0  0  0  0  0  0  0  0  0
  -15.8007   -6.2398    4.7149 C   0  0  0  0  0  0  0  0  0  0  0  0
  -24.5814   -5.0171    1.1824 C   0  0  0  0  0  0  0  0  0  0  0  0
  -19.5525   -5.2831    3.8793 C   0  0  0  0  0  0  0  0  0  0  0  0
  -19.7643   -7.4368    4.0048 C   0  0  2  0  0  0  0  0  0  0  0  0
  -25.1056   -6.6680    2.2987 C   0  0  0  0  0  0  0  0  0  0  0  0
  -19.2728   -3.9038    4.5341 O   0  0  0  0  0  0  0  0  0  0  0  0
  -21.4060   -2.3067    1.1225 O   0  0  0  0  0  0  0  0  0  0  0  0
  -22.2590   -4.0209   -0.8965 C   0  0  0  0  0  0  0  0  0  0  0  0
  -21.8007   -8.6572    4.1198 C   0  0  0  0  0  0  0  0  0  0  0  0
  -21.2645   -7.9127    5.3028 O   0  0  0  0  0  0  0  0  0  0  0  0
  -17.1190   -6.1142    3.8996 C   0  0  0  0  0  0  0  0  0  0  0  0
  -23.3549   -3.9830    0.3655 C   0  0  1  0  0  0  0  0  0  0  0  0
  -22.2420   -8.5696    3.4306 N   0  0  0  0  0  0  0  0  0  0  0  0
  -23.4550   -5.3845    1.1782 N   0  0  0  0  0  0  0  0  0  0  0  0
  -20.7351   -4.7119    2.9346 N   0  0  0  0  0  0  0  0  0  0  0  0
  -22.0251   -2.5488    4.4477 C   0  0  0  0  0  0  0  0  0  0  0  0
  -25.3809   -8.6363    3.7093 C   0  0  0  0  0  0  0  0  0  0  0  0
  -18.4146   -7.1771    3.4370 C   0  0  0  0  0  0  0  0  0  0  0  0
  -24.5142   -6.6268    2.1279 N   0  0  0  0  0  0  0  0  0  0  0  0
  -24.0652   -8.2672    3.1932 C   0  0  0  0  0  0  0  0  0  0  0  0
  -22.0081   -3.3551    1.4707 C   0  0  0  0  0  0  0  0  0  0  0  0
  -20.8479   -3.5200    3.3617 C   0  0  0  0  0  0  0  0  0  0  0  0
  4  1  2  3
  7  6  1  0
  8  3  2  3
  9  6  2  0
 13  7  1  0
 13 12  1  0
 14  4  1  0
 15 11  1  6
 16 12  1  0
 17  5  1  0
 17 15  1  0
 18  6  1  0
 19  2  1  0
 20  3  1  0
  7 21  1  1
 21 14  1  0
 22  5  1  0
 22  8  1  0
 23 16  1  0
 23 20  2  3
 24 10  2  0
 24 15  1  0
 25 18  1  0
 25 19  1  0
M  END
>  <ID>  (1) 
conformer_0

$$$$
