
     RDKit          3D

 25 25  0  0  0  0  0  0  0  0999 V2000
  -14.4227   -6.2758    4.8319 C   0  0  0  0  0  0  0  0  0  0  0  0
  -21.8698   -1.7729    4.2111 C   0  0  0  0  0  0  0  0  0  0  0  0
  -25.2296   -8.3580    3.5322 C   0  0  0  0  0  0  0  0  0  0  0  0
  -24.2742   -5.1797    0.9544 C   0  0  0  0  0  0  0  0  0  0  0  0
  -15.6652   -6.1020    4.6699 C   0  0  0  0  0  0  0  0  0  0  0  0
  -19.0637   -5.1646    3.8963 C   0  0  0  0  0  0  0  0  0  0  0  0
  -23.5106   -8.2726    3.3678 C   0  0  0  0  0  0  0  0  0  0  0  0
  -21.3419   -2.5271    1.0141 O   0  0  0  0  0  0  0  0  0  0  0  0
  -23.2777   -4.0441    0.4210 C   0  0  0  0  0  0  0  0  0  0  0  0
  -19.0729   -3.9385    4.7505 O   0  0  0  0  0  0  0  0  0  0  0  0
  -21.5190   -8.8243    4.0230 C   0  0  0  0  0  0  0  0  0  0  0  0
  -20.8307   -3.7508    3.3543 C   0  0  0  0  0  0  0  0  0  0  0  0
  -20.5814   -4.7854    3.1064 N   0  0  0  0  0  0  0  0  0  0  0  0
  -25.6251   -7.3825    2.9950 C   0  0  0  0  0  0  0  0  0  0  0  0
  -23.2449   -5.0301    1.0673 N   0  0  0  0  0  0  0  0  0  0  0  0
  -21.0268   -7.6979    5.1553 O   0  0  0  0  0  0  0  0  0  0  0  0
  -22.1438   -2.6790    4.6666 C   0  0  0  0  0  0  0  0  0  0  0  0
  -22.0673   -8.5225    3.4485 N   0  0  0  0  0  0  0  0  0  0  0  0
  -16.7882   -5.8999    3.9892 C   0  0  0  0  0  0  0  0  0  0  0  0
  -22.2791   -4.0949   -0.8653 C   0  0  0  0  0  0  0  0  0  0  0  0
  -24.4122   -6.6400    2.4061 C   0  0  0  0  0  0  0  0  0  0  0  0
  -18.2579   -7.0871    3.5577 C   0  0  0  0  0  0  0  0  0  0  0  0
  -23.3452   -7.0718    2.0794 N   0  0  0  0  0  0  0  0  0  0  0  0
  -19.6292   -6.9512    3.7276 C   0  0  0  0  0  0  0  0  0  0  0  0
  -21.8490   -3.8256    1.2506 C   0  0  0  0  0  0  0  0  0  0  0  0
  5  1  3  0
  7  3  2  0
 10  6  1  0
 13  6  1  0
 13 12  1  0
 14  3  1  0
 15  4  1  0
 15  9  1  0
 16 11  1  0
 17  2  1  0
 17 12  1  0
 18  7  1  0
 18 11  1  0
 19  5  1  0
 20  9  1  0
 21  4  1  0
 21 14  1  0
 22 19  1  0
 23  7  1  0
 23 21  2  0
 24  6  1  0
 24 16  1  0
 24 22  1  0
 25  8  1  0
 25  9  1  0
M  END
>  <ID>  (1) 
conformer_0

$$$$
