
     RDKit          3D

 27 28  0  0  0  0  0  0  0  0999 V2000
  -22.0033   -1.5642    4.4213 C   0  0  0  0  0  0  0  0  0  0  0  0
  -15.3832   -6.3983    4.9416 C   0  0  0  0  0  0  0  0  0  0  0  0
  -26.0186   -7.5839    3.3349 C   0  0  0  0  0  0  0  0  0  0  0  0
  -24.0697   -4.9102    0.8961 C   0  0  2  0  0  0  0  0  0  0  0  0
  -16.5647   -6.2298    4.4865 C   0  0  0  0  0  0  0  0  0  0  0  0
  -24.7374   -7.0830    2.3804 C   0  0  0  0  0  0  0  0  0  0  0  0
  -22.9503   -3.4344    0.2507 C   0  0  2  0  0  0  0  0  0  0  0  0
  -19.2598   -4.0355    4.9358 O   0  0  0  0  0  0  0  0  0  0  0  0
  -21.2027   -2.3244    1.0099 O   0  0  0  0  0  0  0  0  0  0  0  0
  -21.1726   -8.5865    3.8570 C   0  0  0  0  0  0  0  0  0  0  0  0
  -22.7358   -3.7081   -1.1969 C   0  0  0  0  0  0  0  0  0  0  0  0
  -21.8451   -3.2652    1.8256 C   0  0  2  0  0  0  0  0  0  0  0  0
  -20.7232   -7.8884    5.0260 O   0  0  0  0  0  0  0  0  0  0  0  0
  -17.7108   -6.1904    3.6183 C   0  0  2  0  0  0  0  0  0  0  0  0
  -23.9302   -8.1949    2.2356 N   0  0  0  0  0  0  0  0  0  0  0  0
  -21.8710   -2.5343    4.6647 C   0  0  0  0  0  0  0  0  0  0  0  0
  -20.6447   -4.4700    3.1068 N   0  0  0  0  0  0  0  0  0  0  0  0
  -19.4368   -6.2738    3.8943 C   0  0  1  0  0  0  0  0  0  0  0  0
  -23.3078   -5.1549    1.1689 N   0  0  0  0  0  0  0  0  0  0  0  0
  -21.8787   -8.4402    3.3860 N   0  0  0  0  0  0  0  0  0  0  0  0
  -25.4522   -8.5038    3.9493 C   0  0  0  0  0  0  0  0  0  0  0  0
  -14.3431   -6.4759    4.9508 C   0  0  0  0  0  0  0  0  0  0  0  0
  -24.7242   -6.3177    1.7193 N   0  0  0  0  0  0  0  0  0  0  0  0
  -25.1216   -4.1655    0.8750 O   0  0  0  0  0  0  0  0  0  0  0  0
  -23.8836   -8.5798    3.3656 C   0  0  0  0  0  0  0  0  0  0  0  0
  -18.8655   -7.6734    3.3866 C   0  0  0  0  0  0  0  0  0  0  0  0
  -20.5056   -4.0167    3.6971 C   0  0  0  0  0  0  0  0  0  0  0  0
  5  2  1  0
  6  3  2  0
  7  4  1  0
  7 11  1  6
 12  7  1  0
 12  9  1  6
 13 10  1  0
 14  5  1  1
 15  6  1  0
 16  1  2  3
 17 12  1  0
 18 13  1  1
 18 14  1  0
  4 19  1  6
 20 10  1  0
 21  3  1  0
 22  2  3  0
 23  4  1  0
 23  6  1  0
 24  4  1  0
 25 15  2  0
 25 20  1  0
 25 21  1  0
 26 14  1  0
 26 18  1  0
 27  8  2  0
 27 16  1  0
 27 17  1  0
M  END
>  <ID>  (1) 
conformer_0

$$$$
