
     RDKit          3D

 26 26  0  0  0  0  0  0  0  0999 V2000
  -21.7045   -2.7319    4.5259 C   0  0  0  0  0  0  0  0  0  0  0  0
  -15.7187   -5.9018    4.6539 C   0  0  0  0  0  0  0  0  0  0  0  0
  -25.9441   -7.4819    2.7890 C   0  0  0  0  0  0  0  0  0  0  0  0
  -24.0547   -4.8430    0.7499 C   0  0  0  0  0  0  0  0  0  0  0  0
  -22.5516   -3.8597    0.2315 C   0  0  2  0  0  0  0  0  0  0  0  0
  -16.9097   -5.9647    4.0850 C   0  0  0  0  0  0  0  0  0  0  0  0
  -23.7251   -8.4047    3.2706 C   0  0  0  0  0  0  0  0  0  0  0  0
  -21.4137   -8.4317    4.1999 C   0  0  0  0  0  0  0  0  0  0  0  0
  -22.1489   -3.9818   -1.2119 C   0  0  0  0  0  0  0  0  0  0  0  0
  -20.9549   -2.4317    1.0666 O   0  0  0  0  0  0  0  0  0  0  0  0
  -20.8948   -7.4872    5.3510 O   0  0  0  0  0  0  0  0  0  0  0  0
  -25.5796   -8.4017    3.3301 C   0  0  0  0  0  0  0  0  0  0  0  0
  -18.6913   -7.6111    3.6952 C   0  0  0  0  0  0  0  0  0  0  0  0
  -21.3485   -3.4911    2.0063 C   0  0  2  0  0  0  0  0  0  0  0  0
  -19.0176   -4.1813    4.9948 O   0  0  0  0  0  0  0  0  0  0  0  0
  -23.2801   -5.1221    0.9921 N   0  0  0  0  0  0  0  0  0  0  0  0
  -21.9875   -1.8138    4.1326 C   0  0  0  0  0  0  0  0  0  0  0  0
  -19.4050   -6.4372    4.0154 C   0  0  0  0  0  0  0  0  0  0  0  0
  -19.8476   -5.0756    3.3974 N   0  0  0  0  0  0  0  0  0  0  0  0
  -14.2872   -5.9421    4.9178 C   0  0  0  0  0  0  0  0  0  0  0  0
  -24.8927   -5.5917    1.5448 N   0  0  0  0  0  0  0  0  0  0  0  0
  -23.4690   -7.5851    2.3293 N   0  0  0  0  0  0  0  0  0  0  0  0
  -13.3330   -6.0515    5.5272 O   0  0  0  0  0  0  0  0  0  0  0  0
  -24.4588   -6.9175    2.2741 C   0  0  2  0  0  0  0  0  0  0  0  0
  -20.0749   -3.9197    3.8033 C   0  0  1  0  0  0  0  0  0  0  0  0
  -21.9342   -8.5731    3.4957 N   0  0  0  0  0  0  0  0  0  0  0  0
  6  2  1  0
  5  9  1  6
 11  8  1  0
 12  3  2  0
 12  7  1  0
 13  6  1  0
 14  5  1  0
 14 10  1  6
 16  4  1  0
 16  5  1  0
 17  1  2  3
 18 13  1  0
 19 18  1  0
 20  2  3  0
 21  4  1  0
 22  7  2  0
 23 20  1  0
 24  3  1  0
 24 21  1  6
 24 22  1  0
 25  1  1  0
 25 14  1  0
 25 15  1  6
 25 19  1  0
 26  7  1  0
 26  8  1  0
M  END
>  <ID>  (1) 
conformer_0

$$$$
