
     RDKit          3D

 31 33  0  0  0  0  0  0  0  0999 V2000
  -25.9132   -6.9271    2.9705 C   0  0  0  0  0  0  0  0  0  0  0  0
  -14.9963   -6.4768    4.8118 C   0  0  0  0  0  0  0  0  0  0  0  0
  -23.6093   -4.0269    0.3259 C   0  0  0  0  0  0  0  0  0  0  0  0
  -21.1028   -2.5491    4.1090 C   0  0  0  0  0  0  0  0  0  0  0  0
  -15.8290   -5.5821    4.3916 C   0  0  0  0  0  0  0  0  0  0  0  0
  -17.1415   -6.3572    4.0656 C   0  0  0  0  0  0  0  0  0  0  0  0
  -24.8602   -6.4634    2.5114 C   0  0  0  0  0  0  0  0  0  0  0  0
  -22.0362   -3.6414    0.2517 C   0  0  0  0  0  0  0  0  0  0  0  0
  -21.0608   -2.4165    1.0505 O   0  0  0  0  0  0  0  0  0  0  0  0
  -21.3155   -8.5120    4.0139 C   0  0  0  0  0  0  0  0  0  0  0  0
  -19.2742   -4.1595    4.9171 O   0  0  0  0  0  0  0  0  0  0  0  0
  -23.9612   -5.1430    1.2670 C   0  0  0  0  0  0  0  0  0  0  0  0
  -21.4106   -8.1053    5.2547 O   0  0  0  0  0  0  0  0  0  0  0  0
  -26.0885   -8.2395    3.5490 C   0  0  0  0  0  0  0  0  0  0  0  0
  -21.9202   -4.1813   -1.1914 C   0  0  0  0  0  0  0  0  0  0  0  0
  -20.5030   -4.6929    3.0074 N   0  0  0  0  0  0  0  0  0  0  0  0
  -22.1308   -8.9206    3.5174 N   0  0  0  0  0  0  0  0  0  0  0  0
  -22.8158   -4.8453    1.3944 N   0  0  0  0  0  0  0  0  0  0  0  0
  -24.6187   -5.8694    2.0385 N   0  0  0  0  0  0  0  0  0  0  0  0
  -23.2971   -7.3415    2.6330 N   0  0  0  0  0  0  0  0  0  0  0  0
  -21.5948   -3.3561    2.0935 C   0  0  0  0  0  0  0  0  0  0  0  0
  -22.0884   -2.1086    4.5303 C   0  0  0  0  0  0  0  0  0  0  0  0
  -18.4833   -6.6700    3.7608 C   0  0  0  0  0  0  0  0  0  0  0  0
  -25.2574   -3.9333    2.0989 S   0  0  0  0  0  0  0  0  0  0  0  0
  -23.7282   -8.1364    3.3211 C   0  0  0  0  0  0  0  0  0  0  0  0
  -19.7124   -5.9497    3.7125 C   0  0  0  0  0  0  0  0  0  0  0  0
  -13.3143   -6.0476    5.7225 O   0  0  0  0  0  0  0  0  0  0  0  0
  -14.3220   -6.3024    5.0512 C   0  0  0  0  0  0  0  0  0  0  0  0
  -24.7026   -8.7581    3.7299 C   0  0  0  0  0  0  0  0  0  0  0  0
  -20.1678   -3.5596    3.8659 C   0  0  0  0  0  0  0  0  0  0  0  0
  -19.3444   -7.9541    3.5579 C   0  0  0  0  0  0  0  0  0  0  0  0
  5  2  1  0
  6  5  1  0
  7  1  2  0
  8  3  1  0
  9  8  1  0
 12  3  1  0
 13 10  2  0
 14  1  1  0
 15  8  1  0
 17 10  1  0
 18  3  1  0
 18  8  1  0
 18 12  1  0
 19  7  1  0
 19 12  1  0
 20  7  1  0
 21  9  1  0
 22  4  3  0
 23  6  1  0
 24 12  1  0
 25 17  1  0
 25 20  2  0
 26 16  1  0
 26 23  1  0
 28  2  1  0
 28 27  1  0
 29 14  2  0
 29 25  1  0
 30  4  1  0
 30 11  2  0
 30 16  1  0
 31 10  1  0
 31 23  1  0
M  END
>  <ID>  (1) 
conformer_0

$$$$
