
     RDKit          3D

 24 23  0  0  0  0  0  0  0  0999 V2000
  -22.0439   -1.5867    4.0969 C   0  0  0  0  0  0  0  0  0  0  0  0
  -15.8153   -6.1496    4.5374 C   0  0  0  0  0  0  0  0  0  0  0  0
  -25.9844   -7.3611    2.7084 C   0  0  0  0  0  0  0  0  0  0  0  0
  -24.0812   -5.0406    0.7996 C   0  0  0  0  0  0  0  0  0  0  0  0
  -21.2422   -3.5374    2.7407 C   0  0  1  0  0  0  0  0  0  0  0  0
  -17.0718   -6.1285    3.9299 C   0  0  0  0  0  0  0  0  0  0  0  0
  -24.0459   -8.1710    3.2389 C   0  0  0  0  0  0  0  0  0  0  0  0
  -21.8030   -8.7933    3.7997 C   0  0  0  0  0  0  0  0  0  0  0  0
  -21.1170   -2.6488    1.0074 O   0  0  0  0  0  0  0  0  0  0  0  0
  -19.7831   -4.5876    3.7043 C   0  0  0  0  0  0  0  0  0  0  0  0
  -19.0700   -4.0572    4.6307 O   0  0  0  0  0  0  0  0  0  0  0  0
  -22.3428   -4.0400   -1.0382 C   0  0  0  0  0  0  0  0  0  0  0  0
  -22.6463   -2.4942    4.6800 C   0  0  0  0  0  0  0  0  0  0  0  0
  -23.1183   -5.0337    1.3597 N   0  0  0  0  0  0  0  0  0  0  0  0
  -25.6444   -8.1826    3.6434 C   0  0  0  0  0  0  0  0  0  0  0  0
  -22.3790   -3.9277    0.7364 C   0  0  1  0  0  0  0  0  0  0  0  0
  -13.4386   -5.9918    5.4495 O   0  0  0  0  0  0  0  0  0  0  0  0
  -20.2435   -5.2720    3.1279 N   0  0  0  0  0  0  0  0  0  0  0  0
  -18.4335   -7.1855    3.3763 C   0  0  0  0  0  0  0  0  0  0  0  0
  -14.5473   -6.1389    4.9060 C   0  0  0  0  0  0  0  0  0  0  0  0
  -21.5671   -8.2337    3.3526 N   0  0  0  0  0  0  0  0  0  0  0  0
  -24.9275   -6.5671    2.3314 C   0  0  0  0  0  0  0  0  0  0  0  0
  -19.9952   -7.0176    3.4329 C   0  0  1  0  0  0  0  0  0  0  0  0
  -21.2850   -7.1875    4.5159 O   0  0  0  0  0  0  0  0  0  0  0  0
  5  1  1  1
  6  2  1  0
  9  5  1  0
 10  5  1  0
 11 10  2  0
 13  1  1  0
 14  4  1  0
 15  3  1  0
 15  7  1  0
 16  9  1  0
 16 12  1  6
 16 14  1  0
 18 10  1  0
 19  6  1  0
 20  2  3  0
 20 17  1  0
 21  8  1  0
 22  3  2  3
 22  4  1  0
 23 18  1  0
 23 19  1  1
 24 21  1  0
 24 23  1  0
M  END
>  <ID>  (1) 
conformer_0

$$$$
