
     RDKit          3D

 24 24  0  0  0  0  0  0  0  0999 V2000
  -22.2159   -2.8153    4.5098 C   0  0  0  0  0  0  0  0  0  0  0  0
  -25.7161   -8.4565    3.1901 C   0  0  0  0  0  0  0  0  0  0  0  0
  -17.0346   -5.9588    4.2215 C   0  0  0  0  0  0  0  0  0  0  0  0
  -24.1828   -4.8973    1.0397 C   0  0  0  0  0  0  0  0  0  0  0  0
  -22.9271   -4.0002    0.3826 C   0  0  0  0  0  0  0  0  0  0  0  0
  -21.2239   -8.5881    3.8473 C   0  0  0  0  0  0  0  0  0  0  0  0
  -22.3621   -4.0482   -0.9809 C   0  0  0  0  0  0  0  0  0  0  0  0
  -23.9590   -8.5500    3.1189 C   0  0  0  0  0  0  0  0  0  0  0  0
  -21.5873   -3.7320    1.7631 C   0  0  0  0  0  0  0  0  0  0  0  0
  -20.8058   -2.5385    1.4187 O   0  0  0  0  0  0  0  0  0  0  0  0
  -15.8470   -6.3094    4.7026 C   0  0  0  0  0  0  0  0  0  0  0  0
  -20.8059   -7.6069    5.0994 O   0  0  0  0  0  0  0  0  0  0  0  0
  -22.1657   -1.7300    4.0288 C   0  0  0  0  0  0  0  0  0  0  0  0
  -20.2543   -3.8101    3.5516 C   0  0  0  0  0  0  0  0  0  0  0  0
  -20.4782   -5.0254    2.9788 N   0  0  0  0  0  0  0  0  0  0  0  0
  -23.6775   -7.7035    2.4303 N   0  0  0  0  0  0  0  0  0  0  0  0
  -14.5178   -6.0755    4.9591 C   0  0  0  0  0  0  0  0  0  0  0  0
  -25.8089   -7.3499    3.1674 C   0  0  0  0  0  0  0  0  0  0  0  0
  -13.2990   -6.1599    5.4613 O   0  0  0  0  0  0  0  0  0  0  0  0
  -23.2412   -4.6399    1.1442 N   0  0  0  0  0  0  0  0  0  0  0  0
  -24.5951   -6.7373    2.5434 C   0  0  0  0  0  0  0  0  0  0  0  0
  -19.3331   -6.0778    3.7816 C   0  0  0  0  0  0  0  0  0  0  0  0
  -18.2209   -6.7916    3.5691 C   0  0  0  0  0  0  0  0  0  0  0  0
  -22.9382   -8.6399    3.4858 N   0  0  0  0  0  0  0  0  0  0  0  0
  7  5  1  0
  8  2  1  0
  9  5  1  0
 10  9  1  0
 11  3  1  0
 12  6  1  0
 13  1  1  0
 14  1  1  0
 14  9  1  0
 15 14  1  0
 16  8  2  0
 17 11  1  0
 18  2  1  0
 19 17  1  0
 20  4  1  0
 20  5  1  0
 21 16  1  0
 21 18  2  0
 22 15  1  0
 23  3  1  0
 23  6  1  0
 23 22  1  0
 24  6  1  0
 24  8  1  0
M  END
>  <ID>  (1) 
conformer_0

$$$$
