
     RDKit          3D

 23 22  0  0  0  0  0  0  0  0999 V2000
  -25.0295   -8.5583    3.0225 C   0  0  0  0  0  0  0  0  0  0  0  0
  -14.7789   -6.0754    4.8503 C   0  0  0  0  0  0  0  0  0  0  0  0
  -22.1917   -2.7330    4.6858 C   0  0  0  0  0  0  0  0  0  0  0  0
  -24.1493   -4.5482    0.5955 C   0  0  0  0  0  0  0  0  0  0  0  0
  -15.9416   -5.8848    4.5838 C   0  0  0  0  0  0  0  0  0  0  0  0
  -19.4444   -5.8238    3.7471 C   0  0  0  0  0  0  0  0  0  0  0  0
  -22.2628   -3.9987   -1.0775 C   0  0  0  0  0  0  0  0  0  0  0  0
  -22.2353   -3.5866    0.9996 C   0  0  1  0  0  0  0  0  0  0  0  0
  -21.3370   -2.1536    1.1070 O   0  0  0  0  0  0  0  0  0  0  0  0
  -24.9032   -6.5466    2.2260 C   0  0  0  0  0  0  0  0  0  0  0  0
  -19.5394   -3.9268    5.1371 O   0  0  0  0  0  0  0  0  0  0  0  0
  -21.3848   -8.6108    4.0938 C   0  0  1  0  0  0  0  0  0  0  0  0
  -17.2358   -6.3009    4.0270 C   0  0  0  0  0  0  0  0  0  0  0  0
  -21.4418   -7.9305    5.3100 O   0  0  0  0  0  0  0  0  0  0  0  0
  -20.3618   -4.4977    3.2015 N   0  0  0  0  0  0  0  0  0  0  0  0
  -21.6737   -8.9099    3.6600 N   0  0  0  0  0  0  0  0  0  0  0  0
  -21.0546   -3.6023    3.1476 C   0  0  1  0  0  0  0  0  0  0  0  0
  -25.6260   -7.7050    2.9139 C   0  0  0  0  0  0  0  0  0  0  0  0
  -23.8569   -8.3968    3.3946 C   0  0  0  0  0  0  0  0  0  0  0  0
  -22.9702   -4.6482    1.2204 N   0  0  0  0  0  0  0  0  0  0  0  0
  -24.8145   -5.6003    1.5568 N   0  0  0  0  0  0  0  0  0  0  0  0
  -21.7469   -1.6243    4.0267 C   0  0  0  0  0  0  0  0  0  0  0  0
  -18.6376   -7.5396    3.7317 C   0  0  0  0  0  0  0  0  0  0  0  0
  5  2  2  3
  8  7  1  6
  9  8  1  0
 11  6  2  0
 13  5  1  0
 14 12  1  0
 15  6  1  0
 12 16  1  1
 17  3  1  1
 17  9  1  0
 17 15  1  0
 18  1  1  0
 18 10  1  0
 19  1  1  0
 19 12  1  0
 20  4  1  0
 20  8  1  0
 21  4  1  0
 21 10  1  0
 22  3  1  0
 23  6  1  0
 23 13  1  0
M  END
>  <ID>  (1) 
conformer_0

$$$$
