
     RDKit          3D

 26 25  0  0  0  0  0  0  0  0999 V2000
  -16.1052   -6.1508    4.5992 C   0  0  0  0  0  0  0  0  0  0  0  0
  -25.4059   -8.5278    3.9478 C   0  0  0  0  0  0  0  0  0  0  0  0
  -23.9882   -4.7688    0.9262 C   0  0  0  0  0  0  0  0  0  0  0  0
  -21.7934   -2.6508    4.4391 C   0  0  0  0  0  0  0  0  0  0  0  0
  -17.2965   -6.2846    3.8565 C   0  0  0  0  0  0  0  0  0  0  0  0
  -22.6828   -4.0558    0.2877 C   0  0  1  0  0  0  0  0  0  0  0  0
  -23.9768   -8.3304    3.7262 C   0  0  0  0  0  0  0  0  0  0  0  0
  -21.0813   -2.9277    0.9727 O   0  0  0  0  0  0  0  0  0  0  0  0
  -21.9181   -3.4941    2.0802 C   0  0  1  0  0  0  0  0  0  0  0  0
  -21.8104   -4.5021   -1.2280 C   0  0  0  0  0  0  0  0  0  0  0  0
  -19.4912   -4.3884    5.4588 O   0  0  0  0  0  0  0  0  0  0  0  0
  -21.5626   -8.6465    4.1478 C   0  0  0  0  0  0  0  0  0  0  0  0
  -19.3130   -6.5560    4.3615 C   0  0  2  0  0  0  0  0  0  0  0  0
  -14.6340   -6.2796    4.8007 C   0  0  0  0  0  0  0  0  0  0  0  0
  -22.2057   -1.8849    4.2799 C   0  0  0  0  0  0  0  0  0  0  0  0
  -20.6087   -7.3501    5.2782 O   0  0  0  0  0  0  0  0  0  0  0  0
  -23.2730   -5.5527    1.1805 N   0  0  0  0  0  0  0  0  0  0  0  0
  -18.8220   -7.7133    3.5867 C   0  0  0  0  0  0  0  0  0  0  0  0
  -13.6970   -5.6538    5.4717 O   0  0  0  0  0  0  0  0  0  0  0  0
  -22.2403   -8.3776    3.8410 N   0  0  0  0  0  0  0  0  0  0  0  0
  -20.2482   -3.9359    4.0596 C   0  0  1  0  0  0  0  0  0  0  0  0
  -19.9156   -5.0523    3.6848 N   0  0  0  0  0  0  0  0  0  0  0  0
  -24.4826   -6.3966    2.0776 N   0  0  0  0  0  0  0  0  0  0  0  0
  -25.9791   -7.4776    3.1042 C   0  0  0  0  0  0  0  0  0  0  0  0
  -22.6905   -3.2353    2.3279 N   0  0  0  0  0  0  0  0  0  0  0  0
  -24.6579   -6.8452    2.5209 C   0  0  0  0  0  0  0  0  0  0  0  0
  5  1  1  0
  6  3  1  0
  7  2  1  0
  9  6  1  0
  9  8  1  0
  6 10  1  1
 13  5  1  0
 14  1  1  0
 15  4  2  3
 16 12  1  0
 16 13  1  0
 17  3  1  0
 13 18  1  6
 19 14  1  0
 20  7  1  0
 20 12  1  0
 21  4  1  0
 21 11  1  1
 22 13  1  0
 22 21  1  0
 23 17  1  0
 24  2  1  0
  9 25  1  6
 26 23  1  0
 26 24  2  3
M  END
>  <ID>  (1) 
conformer_0

$$$$
