
     RDKit          3D

 26 25  0  0  0  0  0  0  0  0999 V2000
  -21.5789   -2.5432    4.4131 C   0  0  0  0  0  0  0  0  0  0  0  0
  -18.0391   -6.7927    3.6907 C   0  0  0  0  0  0  0  0  0  0  0  0
  -25.6448   -7.2218    2.7588 C   0  0  0  0  0  0  0  0  0  0  0  0
  -23.7591   -4.8972    0.6171 C   0  0  0  0  0  0  0  0  0  0  0  0
  -22.4929   -3.8578    0.0322 C   0  0  0  0  0  0  0  0  0  0  0  0
  -24.6247   -6.7577    2.4147 C   0  0  0  0  0  0  0  0  0  0  0  0
  -20.9118   -8.7431    3.5643 C   0  0  0  0  0  0  0  0  0  0  0  0
  -20.6236   -3.9163    3.6653 C   0  0  1  0  0  0  0  0  0  0  0  0
  -25.9879   -8.4506    3.3278 C   0  0  0  0  0  0  0  0  0  0  0  0
  -22.1710   -4.1284   -1.3244 C   0  0  0  0  0  0  0  0  0  0  0  0
  -19.2838   -4.3503    5.1402 O   0  0  0  0  0  0  0  0  0  0  0  0
  -17.0314   -5.9117    4.2002 C   0  0  0  0  0  0  0  0  0  0  0  0
  -21.5186   -8.3096    4.9633 O   0  0  0  0  0  0  0  0  0  0  0  0
  -14.9182   -6.1268    5.0306 C   0  0  0  0  0  0  0  0  0  0  0  0
  -20.0029   -4.9332    3.3014 N   0  0  0  0  0  0  0  0  0  0  0  0
  -24.5520   -6.0011    1.8718 N   0  0  0  0  0  0  0  0  0  0  0  0
  -22.4145   -2.0601    4.3643 C   0  0  0  0  0  0  0  0  0  0  0  0
  -21.8011   -3.6926    1.9607 C   0  0  0  0  0  0  0  0  0  0  0  0
  -22.8362   -4.8727    0.9218 N   0  0  0  0  0  0  0  0  0  0  0  0
  -13.5290   -6.3172    5.3875 O   0  0  0  0  0  0  0  0  0  0  0  0
  -21.8235   -8.3161    3.1408 N   0  0  0  0  0  0  0  0  0  0  0  0
  -21.6650   -2.5693    1.3549 O   0  0  0  0  0  0  0  0  0  0  0  0
  -19.1677   -5.9244    3.8656 C   0  0  1  0  0  0  0  0  0  0  0  0
  -23.4585   -8.2146    3.2040 C   0  0  0  0  0  0  0  0  0  0  0  0
  -24.5769   -8.9642    3.4992 C   0  0  0  0  0  0  0  0  0  0  0  0
  -16.1138   -6.6713    5.1606 C   0  0  0  0  0  0  0  0  0  0  0  0
  6  3  2  3
  8  1  1  0
  9  3  1  0
 10  5  1  0
 12  2  1  0
 13  7  1  0
  8 15  1  1
 16  4  1  0
 16  6  1  0
 17  1  2  3
 18  8  1  0
 19  4  1  0
 19  5  1  0
 19 18  1  0
 20 14  1  0
 21  7  1  0
 22 18  2  0
 23  2  1  0
 23 11  1  1
 23 15  1  0
 24 21  1  0
 25  9  1  0
 25 24  2  3
 26 12  1  0
 26 14  1  0
M  END
>  <ID>  (1) 
conformer_0

$$$$
