
     RDKit          3D

 26 25  0  0  0  0  0  0  0  0999 V2000
  -15.6044   -6.2148    4.7307 C   0  0  0  0  0  0  0  0  0  0  0  0
  -21.9614   -1.5124    4.0917 C   0  0  0  0  0  0  0  0  0  0  0  0
  -26.0758   -7.8574    3.6948 C   0  0  0  0  0  0  0  0  0  0  0  0
  -22.6491   -3.8269    0.4727 C   0  0  2  0  0  0  0  0  0  0  0  0
  -21.5356   -3.6055    1.9199 C   0  0  0  0  0  0  0  0  0  0  0  0
  -16.8097   -6.1823    4.1435 C   0  0  0  0  0  0  0  0  0  0  0  0
  -21.1076   -8.7623    3.6975 C   0  0  0  0  0  0  0  0  0  0  0  0
  -23.6687   -8.1722    3.1221 C   0  0  0  0  0  0  0  0  0  0  0  0
  -21.2148   -2.3476    0.9273 O   0  0  0  0  0  0  0  0  0  0  0  0
  -25.8689   -7.1651    2.6430 C   0  0  0  0  0  0  0  0  0  0  0  0
  -19.2806   -4.3149    4.8427 O   0  0  0  0  0  0  0  0  0  0  0  0
  -24.4247   -4.8708    0.8046 C   0  0  0  0  0  0  0  0  0  0  0  0
  -20.4970   -7.5309    5.1807 O   0  0  0  0  0  0  0  0  0  0  0  0
  -22.1078   -8.8250    3.5768 N   0  0  0  0  0  0  0  0  0  0  0  0
  -23.3140   -5.4292    1.2552 N   0  0  0  0  0  0  0  0  0  0  0  0
  -19.8510   -5.5476    3.2604 N   0  0  0  0  0  0  0  0  0  0  0  0
  -13.3296   -5.7123    5.3994 O   0  0  0  0  0  0  0  0  0  0  0  0
  -21.9714   -4.3417   -0.6136 C   0  0  0  0  0  0  0  0  0  0  0  0
  -19.4747   -6.8867    3.9224 C   0  0  1  0  0  0  0  0  0  0  0  0
  -18.2801   -7.2453    3.8067 C   0  0  0  0  0  0  0  0  0  0  0  0
  -21.9332   -2.6668    4.3752 C   0  0  0  0  0  0  0  0  0  0  0  0
  -14.4043   -6.1602    5.0191 C   0  0  0  0  0  0  0  0  0  0  0  0
  -24.8090   -6.4896    2.2730 C   0  0  0  0  0  0  0  0  0  0  0  0
  -20.4160   -4.0399    3.8376 C   0  0  1  0  0  0  0  0  0  0  0  0
  -24.7611   -8.3534    3.6162 C   0  0  0  0  0  0  0  0  0  0  0  0
  -21.4656   -3.7806    2.4356 N   0  0  0  0  0  0  0  0  0  0  0  0
  5  4  1  0
  6  1  1  0
  9  5  2  0
 10  3  1  0
 13  7  1  0
 14  7  1  0
 14  8  1  0
 15  4  1  0
 15 12  1  0
  4 18  1  6
 19 13  1  0
 19 16  1  0
 20  6  1  0
 19 20  1  1
 21  2  2  3
 22  1  3  0
 22 17  1  0
 23 10  2  3
 24 11  1  6
 24 16  1  0
 24 21  1  0
 25  3  1  0
 25  8  2  3
 26  5  1  0
 26 24  1  0
M  END
>  <ID>  (1) 
conformer_0

$$$$
