
     RDKit          3D

 26 26  0  0  0  0  0  0  0  0999 V2000
  -21.4936   -3.0929    4.2070 C   0  0  0  0  0  0  0  0  0  0  0  0
  -25.6383   -8.4225    3.5317 C   0  0  0  0  0  0  0  0  0  0  0  0
  -15.9232   -6.2976    4.5353 C   0  0  0  0  0  3  0  0  0  0  0  0
  -23.9104   -5.1208    0.9689 C   0  0  0  0  0  0  0  0  0  0  0  0
  -23.0044   -3.8682    0.3574 C   0  0  1  0  0  0  0  0  0  0  0  0
  -17.1837   -6.3902    4.0698 C   0  0  0  0  0  0  0  0  0  0  0  0
  -24.5983   -7.0639    2.1345 C   0  0  0  0  0  0  0  0  0  0  0  0
  -20.8585   -2.2437    1.0160 O   0  0  0  0  0  0  0  0  0  0  0  0
  -21.3136   -8.4731    3.8331 C   0  0  0  0  0  0  0  0  0  0  0  0
  -22.5761   -3.2074    5.2276 C   0  0  0  0  0  0  0  0  0  0  0  0
  -21.5707   -3.4851    1.6239 C   0  0  1  0  0  0  0  0  0  0  0  0
  -21.9799   -4.1826   -0.9185 C   0  0  0  0  0  0  0  0  0  0  0  0
  -19.5582   -4.7499    5.4759 O   0  0  0  0  0  0  0  0  0  0  0  0
  -19.0260   -7.7927    3.6473 C   0  0  0  0  0  0  0  0  0  0  0  0
  -20.5062   -3.7741    3.6153 C   0  0  2  0  0  0  0  0  0  0  0  0
  -26.0060   -7.6623    2.8417 C   0  0  0  0  0  0  0  0  0  0  0  0
  -14.2925   -6.2637    4.9629 C   0  0  0  0  0  0  0  0  0  0  0  0
  -23.0214   -5.4649    1.1653 N   0  0  0  0  0  0  0  0  0  0  0  0
  -19.6014   -5.1657    3.6031 N   0  0  0  0  0  0  0  0  0  0  0  0
  -22.3951   -8.2849    3.3841 N   0  0  0  0  0  0  0  0  0  0  0  0
  -19.2275   -6.2152    4.3109 C   0  0  2  0  0  0  0  0  0  0  0  0
  -13.5987   -5.6465    5.6619 O   0  0  0  0  0  0  0  0  0  0  0  0
  -23.7375   -7.9787    2.1288 N   0  0  0  0  0  0  0  0  0  0  0  0
  -13.1767   -6.4722    4.5755 O   0  0  0  0  0  0  0  0  0  0  0  0
  -22.0980   -1.5046    4.1320 C   0  0  0  0  0  0  0  0  0  0  0  0
  -23.9502   -8.4754    3.2721 C   0  0  2  0  0  0  0  0  0  0  0  0
  5  4  1  0
  6  3  2  3
 10  1  1  0
 11  5  1  0
 11  8  1  1
  5 12  1  6
 14  9  1  0
 15  1  1  0
 15 11  1  0
 16  2  2  0
 16  7  1  0
 17  3  1  0
 18  4  1  0
 15 19  1  1
 20  9  1  0
 21  6  1  0
 21 13  1  1
 21 14  1  0
 21 19  1  0
 22 17  1  0
 23  7  2  0
 24 17  2  0
 25  1  1  0
 26  2  1  0
 26 20  1  1
 26 23  1  0
M  RAD  1   3   2
M  END
>  <ID>  (1) 
conformer_0

$$$$
