
     RDKit          3D

 24 24  0  0  0  0  0  0  0  0999 V2000
  -21.6138   -1.6653    4.0513 C   0  0  0  0  0  0  0  0  0  0  0  0
  -15.2969   -5.8246    4.7712 C   0  0  0  0  0  0  0  0  0  0  0  0
  -22.9963   -4.2688    0.2244 C   0  0  0  0  0  0  0  0  0  0  0  0
  -16.4075   -5.6328    4.4853 C   0  0  0  0  0  0  0  0  0  0  0  0
  -25.7983   -7.5392    2.8071 C   0  0  0  0  0  0  0  0  0  0  0  0
  -20.6743   -3.4767    3.4693 C   0  0  1  0  0  0  0  0  0  0  0  0
  -23.8808   -8.3110    3.4321 C   0  0  0  0  0  0  0  0  0  0  0  0
  -21.3151   -2.4213    1.0403 O   0  0  0  0  0  0  0  0  0  0  0  0
  -22.3386   -4.2365   -1.1358 C   0  0  0  0  0  0  0  0  0  0  0  0
  -21.4227   -8.7966    3.8167 C   0  0  0  0  0  0  0  0  0  0  0  0
  -17.6337   -6.5251    4.0641 C   0  0  2  0  0  0  0  0  0  0  0  0
  -21.6708   -3.9125    1.7792 C   0  0  0  0  0  0  0  0  0  0  0  0
  -22.0979   -2.5812    4.7155 C   0  0  0  0  0  0  0  0  0  0  0  0
  -19.2580   -5.7042    3.9498 C   0  0  1  0  0  0  0  0  0  0  0  0
  -22.9468   -5.2891    1.5482 N   0  0  0  0  0  0  0  0  0  0  0  0
  -22.1121   -8.6083    3.8779 N   0  0  0  0  0  0  0  0  0  0  0  0
  -19.4942   -4.6873    4.7463 O   0  0  0  0  0  0  0  0  0  0  0  0
  -20.3684   -4.7084    3.1156 N   0  0  0  0  0  0  0  0  0  0  0  0
  -20.7064   -7.2425    4.8445 O   0  0  0  0  0  0  0  0  0  0  0  0
  -24.6255   -6.9146    2.4065 C   0  0  0  0  0  0  0  0  0  0  0  0
  -18.9963   -7.7723    3.7421 C   0  0  0  0  0  0  0  0  0  0  0  0
  -23.9486   -5.3037    0.9975 C   0  0  2  0  0  0  0  0  0  0  0  0
  -25.2289   -8.5802    3.7588 C   0  0  0  0  0  0  0  0  0  0  0  0
  -24.2610   -6.6006    2.1559 N   0  0  0  0  0  0  0  0  0  0  0  0
  4  2  2  3
  9  3  1  0
 11  4  1  0
 12  6  1  0
 12  8  2  0
 13  1  1  0
  6 13  1  1
 14 11  1  0
 15 12  1  0
 16  7  1  0
 16 10  1  0
 14 17  1  1
 18  6  1  0
 18 14  1  0
 19 10  1  0
 20  5  2  0
 20  7  1  0
 11 21  1  1
 22  3  1  6
 22 15  1  0
 23  5  1  0
 23  7  2  0
 24 20  1  0
 24 22  1  0
M  END
>  <ID>  (1) 
conformer_0

$$$$
