
     RDKit          3D

 30 36  0  0  0  0  0  0  0  0999 V2000
  -21.5291   -2.6463    4.0683 C   0  0  0  0  0  0  0  0  0  0  0  0
  -15.4700   -6.8144    5.0559 C   0  0  0  0  0  0  0  0  0  0  0  0
  -25.3342   -8.4491    3.7318 C   0  0  0  0  0  0  0  0  0  0  0  0
  -24.3745   -5.4500    1.0863 C   0  0  0  0  0  0  0  0  0  0  0  0
  -23.8702   -4.0885    0.2074 C   0  0  0  0  0  0  0  0  0  0  0  0
  -15.8557   -5.6745    4.5034 C   0  0  0  0  0  0  0  0  0  0  0  0
  -23.7337   -8.4125    3.5261 C   0  0  0  0  0  0  0  0  0  0  0  0
  -19.8040   -7.6582    3.8876 C   0  0  0  0  0  0  0  0  0  0  0  0
  -21.2229   -2.2448    1.0799 O   0  0  0  0  0  0  0  0  0  0  0  0
  -19.1410   -3.9860    4.6906 O   0  0  0  0  0  0  0  0  0  0  0  0
  -21.8470   -8.9513    4.1843 C   0  0  0  0  0  0  0  0  0  0  0  0
  -21.7280   -8.1966    5.1969 O   0  0  0  0  0  0  0  0  0  0  0  0
  -22.1409   -3.8495    0.7374 C   0  0  0  0  0  0  0  0  0  0  0  0
  -23.1702   -5.0646    1.0669 N   0  0  0  0  0  0  0  0  0  0  0  0
  -20.2017   -5.0140    3.0727 N   0  0  0  0  0  0  0  0  0  0  0  0
  -22.5207   -3.8228   -0.9724 C   0  0  0  0  0  0  0  0  0  0  0  0
  -25.7118   -7.3090    3.1287 C   0  0  0  0  0  0  0  0  0  0  0  0
  -13.4093   -5.5148    5.5319 O   0  0  0  0  0  0  0  0  0  0  0  0
  -22.2366   -8.6843    3.5358 N   0  0  0  0  0  0  0  0  0  0  0  0
  -24.8388   -5.6692    1.8604 N   0  0  0  0  0  0  0  0  0  0  0  0
  -14.5316   -6.3743    5.1299 C   0  0  0  0  0  0  0  0  0  0  0  0
  -24.5007   -6.7782    2.3922 C   0  0  0  0  0  0  0  0  0  0  0  0
  -17.2470   -6.0746    3.8592 C   0  0  0  0  0  0  0  0  0  0  0  0
  -23.3227   -7.4127    2.0485 N   0  0  0  0  0  0  0  0  0  0  0  0
  -22.0637   -1.6114    3.8584 C   0  0  0  0  0  0  0  0  0  0  0  0
  -21.4000   -3.1172    2.2271 C   0  0  0  0  0  0  0  0  0  0  0  0
  -20.2890   -3.7494    3.6616 C   0  0  0  0  0  0  0  0  0  0  0  0
  -19.7912   -7.5242    4.9877 O   0  0  0  0  0  0  0  0  0  0  0  0
  -18.4385   -7.0955    3.4260 C   0  0  0  0  0  0  0  0  0  0  0  0
  -18.8971   -5.6829    4.1013 C   0  0  0  0  0  0  0  0  0  0  0  0
  5  4  1  0
  6  2  1  0
  7  3  2  0
 12 11  2  0
 13  5  1  0
 14  4  1  0
 14  5  1  0
 14 13  1  0
 16  5  1  0
 16 13  1  0
 17  3  1  0
 19  7  1  0
 19 11  1  0
 20  4  1  0
 21  2  1  0
 21 18  1  0
 22 17  1  0
 22 20  1  0
 23  6  1  0
 24  7  1  0
 24 22  2  0
 25  1  1  0
 26  1  1  0
 26  9  1  0
 26 13  1  0
 27  1  1  0
 27 10  1  0
 27 15  1  0
 27 26  1  0
 28  8  1  0
 29  8  1  0
 29 23  1  0
 30 10  1  0
 30 15  1  0
 30 23  1  0
 30 29  1  0
M  END
>  <ID>  (1) 
conformer_0

$$$$
