
     RDKit          3D

 29 29  0  0  0  0  0  0  0  0999 V2000
  -24.9498   -7.2994    2.0680 C   0  0  0  0  0  0  0  0  0  0  0  0
  -15.3421   -6.2266    4.6910 C   0  0  0  0  0  0  0  0  0  0  0  0
  -21.5810   -1.7448    4.3778 C   0  0  0  0  0  0  0  0  0  0  0  0
  -24.2053   -5.9407    1.2006 C   0  0  0  0  0  0  0  0  0  0  0  0
  -23.8667   -4.6186    0.2997 C   0  0  1  0  0  0  0  0  0  0  0  0
  -16.4614   -5.7231    4.1512 C   0  0  0  0  0  0  0  0  0  0  0  0
  -23.9792   -8.5127    3.4434 C   0  0  0  0  0  0  0  0  0  0  0  0
  -20.2246   -8.0675    3.7623 C   0  0  0  0  0  0  0  0  0  0  0  0
  -21.1584   -2.6285    1.1705 O   0  0  0  0  0  0  0  0  0  0  0  0
  -22.5517   -3.6806    1.0561 C   0  0  2  0  0  0  0  0  0  0  0  0
  -19.3547   -4.3231    5.1554 O   0  0  0  0  0  0  0  0  0  0  0  0
  -24.8365   -8.6225    3.9298 C   0  0  0  0  0  0  0  0  0  0  0  0
  -22.7237   -4.2120   -0.8715 C   0  0  0  0  0  0  0  0  0  0  0  0
  -19.2577   -5.9809    3.9687 C   0  0  2  0  0  0  0  0  0  0  0  0
  -22.1009   -8.8311    3.6948 N   0  0  0  0  0  0  0  0  0  0  0  0
  -20.9497   -7.4363    5.1806 O   0  0  0  0  0  0  0  0  0  0  0  0
  -23.3629   -5.3412    1.2623 N   0  0  0  0  0  0  0  0  0  0  0  0
  -19.9939   -5.0938    3.3276 N   0  0  0  0  0  0  0  0  0  0  0  0
  -17.5334   -6.3841    3.6671 C   0  0  0  0  0  0  0  0  0  0  0  0
  -14.3824   -6.2598    4.9025 C   0  0  0  0  0  0  0  0  0  0  0  0
  -22.1243   -2.6971    4.2590 C   0  0  0  0  0  0  0  0  0  0  0  0
  -13.2799   -5.5344    5.4629 O   0  0  0  0  0  0  0  0  0  0  0  0
  -21.5060   -3.6314    2.4051 C   0  0  2  0  0  0  0  0  0  0  0  0
  -22.2641   -8.9314    4.2710 C   0  0  0  0  0  0  0  0  0  0  0  0
  -18.9166   -7.8093    3.2956 C   0  0  0  0  0  0  0  0  0  0  0  0
  -24.5383   -6.9608    2.3489 C   0  0  0  0  0  0  0  0  0  0  0  0
  -26.3214   -8.4835    3.4270 C   0  0  0  0  0  0  0  0  0  0  0  0
  -26.3236   -6.9010    2.9384 C   0  0  0  0  0  0  0  0  0  0  0  0
  -20.2981   -3.8618    3.9140 C   0  0  1  0  0  0  0  0  0  0  0  0
  6  2  2  0
 10  5  1  0
 10  9  1  6
 12  7  2  3
  5 13  1  6
 16  8  1  0
 17  4  1  0
 17  5  1  0
 18 14  1  0
 19  6  1  0
 14 19  1  6
 20  2  2  0
 21  3  1  0
 22 20  1  0
 23  9  1  0
 23 10  1  0
 23 21  1  1
 24  7  1  0
 24 15  1  0
 25  8  1  0
 25 14  1  0
 26  1  1  0
 26  4  2  3
 27 12  1  0
 28  1  1  0
 28 27  1  0
 29 11  1  1
 29 18  1  0
 29 23  1  0
M  END
>  <ID>  (1) 
conformer_0

$$$$
