
     RDKit          3D

 26 27  0  0  0  0  0  0  0  0999 V2000
  -26.0521   -8.1586    2.9316 C   0  0  0  0  0  0  0  0  0  0  0  0
  -16.0823   -6.3377    4.6152 C   0  0  0  0  0  0  0  0  0  0  0  0
  -24.3304   -4.7838    0.8244 C   0  0  0  0  0  0  0  0  0  0  0  0
  -21.9264   -2.5716    4.3823 C   0  0  0  0  0  0  0  0  0  0  0  0
  -22.7852   -3.8912    0.5519 C   0  0  0  0  0  0  0  0  0  0  0  0
  -19.0022   -5.4369    3.9648 C   0  0  0  0  0  0  0  0  0  0  0  0
  -19.5177   -7.4736    3.6484 C   0  0  0  0  0  0  0  0  0  0  0  0
  -24.0019   -7.8793    2.9794 C   0  0  0  0  0  0  0  0  0  0  0  0
  -20.8751   -2.5422    0.8934 O   0  0  0  0  0  0  0  0  0  0  0  0
  -19.3200   -4.0309    4.9623 O   0  0  0  0  0  0  0  0  0  0  0  0
  -25.7365   -7.0031    3.1269 C   0  0  0  0  0  0  0  0  0  0  0  0
  -21.6674   -3.4219    1.7194 C   0  0  0  0  0  0  0  0  0  0  0  0
  -20.8846   -7.8946    5.1160 O   0  0  0  0  0  0  0  0  0  0  0  0
  -16.9794   -5.9368    3.7943 C   0  0  0  0  0  0  0  0  0  0  0  0
  -22.2086   -8.5268    3.4855 N   0  0  0  0  0  0  0  0  0  0  0  0
  -20.3624   -4.5334    3.1329 N   0  0  0  0  0  0  0  0  0  0  0  0
  -14.8025   -6.1522    4.9093 C   0  0  0  0  0  0  0  0  0  0  0  0
  -22.0407   -4.0777   -0.9594 C   0  0  0  0  0  0  0  0  0  0  0  0
  -23.1023   -5.0834    1.1966 N   0  0  0  0  0  0  0  0  0  0  0  0
  -22.1771   -1.2569    3.7062 C   0  0  0  0  0  0  0  0  0  0  0  0
  -13.4351   -6.1362    5.4237 O   0  0  0  0  0  0  0  0  0  0  0  0
  -20.6922   -3.4214    3.7060 C   0  0  0  0  0  0  0  0  0  0  0  0
  -23.6447   -7.8002    2.3721 N   0  0  0  0  0  0  0  0  0  0  0  0
  -18.3512   -7.1062    3.2545 C   0  0  0  0  0  0  0  0  0  0  0  0
  -21.4171   -8.8333    3.9866 C   0  0  0  0  0  0  0  0  0  0  0  0
  -25.0840   -8.4421    3.9645 C   0  0  0  0  0  0  0  0  0  0  0  0
  5  3  1  0
 10  6  2  0
 11  1  1  0
 11  8  1  0
 12  5  1  0
 12  9  1  0
 13  7  1  0
 14  2  1  0
 15  8  1  0
 16  6  1  0
 17  2  1  0
 18  5  1  0
 19  3  1  0
 19  5  1  0
 20  4  1  0
 21 17  1  0
 22  4  1  0
 22 12  1  0
 22 16  1  0
 23  8  1  0
 24  6  1  0
 24  7  1  0
 24 14  1  0
 25 13  1  0
 25 15  1  0
 26  1  1  0
 26  8  1  0
M  END
>  <ID>  (1) 
conformer_0

$$$$
