
     RDKit          3D

 23 22  0  0  0  0  0  0  0  0999 V2000
  -21.5601   -1.9460    4.2343 C   0  0  0  0  0  0  0  0  0  0  0  0
  -15.6602   -5.6745    4.6550 C   0  0  0  0  0  0  0  0  0  0  0  0
  -24.9183   -8.9600    3.0984 C   0  0  0  0  0  0  0  0  0  0  0  0
  -23.7104   -4.8736    0.7524 C   0  0  1  0  0  0  0  0  0  0  0  0
  -20.7298   -3.6884    3.2625 C   0  0  2  0  0  0  0  0  0  0  0  0
  -21.9769   -4.2051   -0.8526 C   0  0  0  0  0  0  0  0  0  0  0  0
  -19.3821   -5.8098    3.9277 C   0  0  0  0  0  0  0  0  0  0  0  0
  -21.3059   -2.4940    1.3246 O   0  0  0  0  0  0  0  0  0  0  0  0
  -16.6866   -6.1883    4.2961 C   0  0  0  0  0  0  0  0  0  0  0  0
  -24.9272   -6.6229    2.6160 C   0  0  0  0  0  0  0  0  0  0  0  0
  -19.2404   -4.5100    5.0421 O   0  0  0  0  0  0  0  0  0  0  0  0
  -21.1877   -7.9041    3.6341 C   0  0  2  0  0  0  0  0  0  0  0  0
  -20.1523   -5.2174    3.1925 N   0  0  0  0  0  0  0  0  0  0  0  0
  -21.0140   -7.5819    4.9249 O   0  0  0  0  0  0  0  0  0  0  0  0
  -21.9543   -3.9502    1.0889 C   0  0  1  0  0  0  0  0  0  0  0  0
  -14.6213   -6.2129    4.9758 C   0  0  0  0  0  0  0  0  0  0  0  0
  -23.0839   -5.6608    1.5560 N   0  0  0  0  0  0  0  0  0  0  0  0
  -22.0775   -2.9582    4.7529 C   0  0  0  0  0  0  0  0  0  0  0  0
  -21.7202   -7.9711    3.3256 N   0  0  0  0  0  0  0  0  0  0  0  0
  -18.1200   -7.0676    3.5826 C   0  0  0  0  0  0  0  0  0  0  0  0
  -25.8202   -7.9240    3.2846 C   0  0  0  0  0  0  0  0  0  0  0  0
  -23.7050   -8.3087    3.2107 C   0  0  0  0  0  0  0  0  0  0  0  0
  -25.6497   -5.3275    1.9444 S   0  0  0  0  0  0  0  0  0  0  0  0
  8  5  1  0
  9  2  1  0
 11  7  2  0
 13  5  1  0
 13  7  1  0
 14 12  1  0
 15  4  1  0
 15  6  1  6
 15  8  1  0
 16  2  2  3
  4 17  1  1
 18  1  1  0
  5 18  1  1
 12 19  1  6
 20  7  1  0
 20  9  1  0
 21  3  1  0
 21 10  1  0
 22  3  1  0
 22 12  1  0
 23  4  1  0
 23 10  1  0
M  END
>  <ID>  (1) 
conformer_0

$$$$
