
     RDKit          3D

 30 32  0  0  0  0  0  0  0  0999 V2000
  -25.5823   -7.3350    2.7882 C   0  0  0  0  0  0  0  0  0  0  0  0
  -22.4220   -2.8480    4.9241 C   0  0  0  0  0  0  0  0  0  0  0  0
  -15.9202   -5.7731    4.5605 C   0  0  0  0  0  0  0  0  0  0  0  0
  -23.9247   -4.3204    0.2424 C   0  0  0  0  0  0  0  0  0  0  0  0
  -20.0605   -3.9909    4.0094 C   0  0  0  0  0  0  0  0  0  0  0  0
  -22.0241   -9.4354    4.2369 C   0  0  0  0  0  0  0  0  0  0  0  0
  -18.9596   -5.9104    4.1030 C   0  0  0  0  0  0  0  0  0  0  0  0
  -23.8459   -8.3717    3.4755 C   0  0  0  0  0  0  0  0  0  0  0  0
  -21.3787   -2.4942    1.0120 O   0  0  0  0  0  0  0  0  0  0  0  0
  -21.2267   -3.3468    2.5885 C   0  0  0  0  0  0  0  0  0  0  0  0
  -16.9953   -6.0121    4.1006 C   0  0  0  0  0  0  0  0  0  0  0  0
  -19.0987   -4.1604    4.9771 O   0  0  0  0  0  0  0  0  0  0  0  0
  -14.7086   -6.4414    4.9003 C   0  0  0  0  0  0  0  0  0  0  0  0
  -21.5190   -1.7978    4.2195 C   0  0  0  0  0  0  0  0  0  0  0  0
  -22.8049   -8.6944    3.7940 N   0  0  0  0  0  0  0  0  0  0  0  0
  -20.6898   -7.2118    5.0713 O   0  0  0  0  0  0  0  0  0  0  0  0
  -23.2770   -4.9908    1.0977 N   0  0  0  0  0  0  0  0  0  0  0  0
  -22.4187   -4.1766   -1.0748 C   0  0  0  0  0  0  0  0  0  0  0  0
  -20.8663   -4.0580    2.9011 N   0  0  0  0  0  0  0  0  0  0  0  0
  -14.5929   -7.4243    4.9818 O   0  0  0  0  0  0  0  0  0  0  0  0
  -25.4215   -8.3333    3.5686 C   0  0  0  0  0  0  0  0  0  0  0  0
  -20.4088   -7.9563    3.8103 C   0  0  0  0  0  0  0  0  0  0  0  0
  -24.5335   -6.6965    2.4621 C   0  0  0  0  0  0  0  0  0  0  0  0
  -13.1069   -6.1700    5.5054 O   0  0  0  0  0  0  0  0  0  0  0  0
  -23.3744   -7.3265    2.3684 N   0  0  0  0  0  0  0  0  0  0  0  0
  -18.2070   -7.1423    3.5566 C   0  0  0  0  0  0  0  0  0  0  0  0
  -13.5421   -6.0028    4.8207 N   0  0  0  0  0  0  0  0  0  0  0  0
  -24.5490   -5.3397    1.2857 C   0  0  0  0  0  0  0  0  0  0  0  0
  -22.1346   -4.0623    0.8135 C   0  0  0  0  0  0  0  0  0  0  0  0
  -19.7897   -6.2374    3.5216 N   0  0  0  0  0  0  0  0  0  0  0  0
 10  9  1  0
 11  3  1  0
 11  7  1  0
 12  5  1  0
 12  7  1  0
 13  3  1  0
 14  2  1  0
 14 10  1  0
 15  6  1  0
 15  8  1  0
 17  4  1  0
 19  5  1  0
 19 10  1  0
 20 13  2  0
 21  1  2  0
 21  8  1  0
 22  6  1  0
 22 16  1  0
 23  1  1  0
 25  8  2  0
 25 23  1  0
 26  7  1  0
 26 11  1  0
 27 13  1  0
 27 24  1  0
 28  4  1  0
 28 17  1  0
 28 23  1  0
 29  9  1  0
 29 17  1  0
 29 18  1  0
 30  7  1  0
M  END
>  <ID>  (1) 
conformer_0

$$$$
