
     RDKit          3D

 27 26  0  0  0  0  0  0  0  0999 V2000
  -14.9785   -6.7912    5.1203 C   0  0  0  0  0  0  0  0  0  0  0  0
  -22.2318   -2.7611    4.6246 C   0  0  0  0  0  0  0  0  0  0  0  0
  -23.4082   -4.1514    0.3590 C   0  0  1  0  0  0  0  0  0  0  0  0
  -16.4968   -6.1018    4.1773 C   0  0  0  0  0  0  0  0  0  0  0  0
  -25.7038   -7.3651    3.2733 C   0  0  0  0  0  0  0  0  0  0  0  0
  -23.8968   -8.3585    3.5994 C   0  0  0  0  0  0  0  0  0  0  0  0
  -21.2249   -3.3160    2.8753 C   0  0  0  0  0  0  0  0  0  0  0  0
  -22.0389   -3.7020    0.7940 C   0  0  1  0  0  0  0  0  0  0  0  0
  -21.0048   -2.6194    1.0297 O   0  0  0  0  0  0  0  0  0  0  0  0
  -19.9018   -4.6239    3.9816 C   0  0  0  0  0  0  0  0  0  0  0  0
  -22.1259   -9.0039    4.0575 C   0  0  2  0  0  0  0  0  0  0  0  0
  -17.6372   -6.3272    3.6095 C   0  0  0  0  0  0  0  0  0  0  0  0
  -19.5500   -4.4621    5.1756 O   0  0  0  0  0  0  0  0  0  0  0  0
  -22.3805   -4.0612   -1.1337 C   0  0  0  0  0  0  0  0  0  0  0  0
  -23.2626   -5.3618    1.2616 N   0  0  0  0  0  0  0  0  0  0  0  0
  -19.9318   -5.3079    3.3901 N   0  0  0  0  0  0  0  0  0  0  0  0
  -21.8343   -1.7236    4.1377 C   0  0  0  0  0  0  0  0  0  0  0  0
  -18.7163   -7.5115    3.6486 C   0  0  2  0  0  0  0  0  0  0  0  0
  -24.7787   -6.7788    2.6429 C   0  0  0  0  0  0  0  0  0  0  0  0
  -24.4132   -5.3752    1.1791 C   0  0  0  0  0  0  0  0  0  0  0  0
  -21.7776   -8.5544    3.7421 N   0  0  0  0  0  0  0  0  0  0  0  0
  -21.2751   -7.6403    4.9251 O   0  0  0  0  0  0  0  0  0  0  0  0
  -25.2413   -8.5228    3.9587 C   0  0  0  0  0  0  0  0  0  0  0  0
  -24.5966   -6.1543    2.3427 N   0  0  0  0  0  0  0  0  0  0  0  0
  -19.9076   -7.0113    3.6236 C   0  0  0  0  0  0  0  0  0  0  0  0
  -21.5157   -3.6690    2.6465 N   0  0  0  0  0  0  0  0  0  0  0  0
  -14.9774   -5.5465    4.7732 C   0  0  0  0  0  0  0  0  0  0  0  0
  7  2  1  0
  8  3  1  0
  8  9  1  1
 11  6  1  0
 12  4  1  0
 13 10  2  0
  3 14  1  6
 15  3  1  0
 16 10  1  0
 17  2  1  0
 18 11  1  0
 18 12  1  1
 19  5  2  3
 20 15  1  0
 11 21  1  6
 22 21  1  0
 23  5  1  0
 23  6  2  3
 24 19  1  0
 24 20  1  0
 25 16  1  0
 25 18  1  0
 26  7  1  0
 26  8  1  0
 27  1  1  0
 27  4  1  0
M  END
>  <ID>  (1) 
conformer_0

$$$$
