
     RDKit          3D

 25 24  0  0  0  0  0  0  0  0999 V2000
  -25.3168   -8.5254    3.4638 C   0  0  0  0  0  0  0  0  0  0  0  0
  -15.5954   -5.9093    4.5888 C   0  0  0  0  0  0  0  0  0  0  0  0
  -21.8380   -1.7108    4.2072 C   0  0  0  0  0  0  0  0  0  0  0  0
  -24.0744   -5.2721    0.7292 C   0  0  1  0  0  0  0  0  0  0  0  0
  -20.5749   -3.8540    3.5246 C   0  0  1  0  0  0  0  0  0  0  0  0
  -22.9188   -4.2209    0.2691 C   0  0  2  0  0  0  0  0  0  0  0  0
  -23.7457   -8.4248    3.5055 C   0  0  0  0  0  0  0  0  0  0  0  0
  -21.2120   -2.4735    1.0567 O   0  0  0  0  0  0  0  0  0  0  0  0
  -16.6560   -5.8799    4.3138 C   0  0  0  0  0  0  0  0  0  0  0  0
  -21.9258   -9.0985    4.1603 C   0  0  1  0  0  0  0  0  0  0  0  0
  -22.1686   -4.5005   -1.1486 C   0  0  0  0  0  0  0  0  0  0  0  0
  -21.8183   -3.3233    1.7088 C   0  0  0  0  0  0  0  0  0  0  0  0
  -25.7855   -7.5748    2.8648 C   0  0  0  0  0  0  0  0  0  0  0  0
  -14.7519   -6.0344    4.8524 C   0  0  0  0  0  0  0  0  0  0  0  0
  -20.5361   -4.4779    3.1471 N   0  0  0  0  0  0  0  0  0  0  0  0
  -19.3438   -4.1813    4.8474 O   0  0  0  0  0  0  0  0  0  0  0  0
  -23.1635   -5.6234    0.9823 N   0  0  0  0  0  0  0  0  0  0  0  0
  -22.0774   -2.5148    4.6482 C   0  0  0  0  0  0  0  0  0  0  0  0
  -19.6697   -7.2402    3.6609 C   0  0  0  0  0  0  0  0  0  0  0  0
  -24.6637   -5.9273    1.9186 N   0  0  0  0  0  0  0  0  0  0  0  0
  -17.8741   -6.9651    3.6339 C   0  0  1  0  0  0  0  0  0  0  0  0
  -24.5577   -6.8518    2.3406 C   0  0  0  0  0  0  0  0  0  0  0  0
  -18.7210   -5.4290    4.1476 C   0  0  0  0  0  0  0  0  0  0  0  0
  -21.2066   -7.9022    3.7387 N   0  0  0  0  0  0  0  0  0  0  0  0
  -21.9501   -8.5098    4.7694 O   0  0  0  0  0  0  0  0  0  0  0  0
  6  4  1  0
  7  1  2  3
  9  2  1  0
 10  7  1  0
  6 11  1  6
 12  5  1  0
 12  6  1  0
 12  8  2  0
 13  1  1  0
 14  2  3  0
  5 15  1  1
 16  5  1  0
  4 17  1  6
 18  3  1  0
 18  5  1  0
 20  4  1  0
 21  9  1  0
 21 19  1  1
 22 13  2  3
 22 20  1  0
 23 16  1  0
 23 21  1  0
 10 24  1  6
 25 10  1  0
M  END
>  <ID>  (1) 
conformer_0

$$$$
