
     RDKit          3D

 26 25  0  0  0  0  0  0  0  0999 V2000
  -15.7650   -6.0606    4.5227 C   0  0  0  0  0  0  0  0  0  0  0  0
  -25.3240   -8.5351    3.6233 C   0  0  0  0  0  0  0  0  0  0  0  0
  -21.6650   -2.6121    4.5182 C   0  0  0  0  0  0  0  0  0  0  0  0
  -23.0307   -4.1504    0.4059 C   0  0  1  0  0  0  0  0  0  0  0  0
  -21.8681   -3.5947    1.6042 C   0  0  0  0  0  0  0  0  0  0  0  0
  -23.7122   -8.2895    3.3418 C   0  0  0  0  0  0  0  0  0  0  0  0
  -21.1327   -2.6145    1.0425 O   0  0  0  0  0  0  0  0  0  0  0  0
  -16.8568   -6.0654    4.0460 C   0  0  0  0  0  0  0  0  0  0  0  0
  -20.7485   -3.6040    3.7077 C   0  0  1  0  0  0  0  0  0  0  0  0
  -21.5594   -8.9121    3.9375 C   0  0  0  0  0  0  0  0  0  0  0  0
  -24.0737   -5.3251    1.0017 C   0  0  0  0  0  0  0  0  0  0  0  0
  -22.2481   -4.1958   -0.8538 C   0  0  0  0  0  0  0  0  0  0  0  0
  -25.9980   -7.6062    3.0595 C   0  0  0  0  0  0  0  0  0  0  0  0
  -20.9730   -8.0831    4.8127 O   0  0  0  0  0  0  0  0  0  0  0  0
  -14.7155   -6.0826    4.9518 C   0  0  0  0  0  0  0  0  0  0  0  0
  -19.2773   -4.3502    4.9939 O   0  0  0  0  0  0  0  0  0  0  0  0
  -23.1460   -5.4302    1.3180 N   0  0  0  0  0  0  0  0  0  0  0  0
  -19.8201   -5.1085    3.4153 N   0  0  0  0  0  0  0  0  0  0  0  0
  -22.1300   -1.7081    4.2569 C   0  0  0  0  0  0  0  0  0  0  0  0
  -18.5412   -7.2684    3.5189 C   0  0  2  0  0  0  0  0  0  0  0  0
  -24.7972   -6.7947    2.4153 C   0  0  0  0  0  0  0  0  0  0  0  0
  -18.9112   -5.3650    4.0617 C   0  0  0  0  0  0  0  0  0  0  0  0
  -13.6270   -6.4614    5.2057 O   0  0  0  0  0  0  0  0  0  0  0  0
  -21.9439   -3.6961    2.7056 N   0  0  0  0  0  0  0  0  0  0  0  0
  -24.7352   -6.1004    2.0987 N   0  0  0  0  0  0  0  0  0  0  0  0
  -19.4272   -7.7209    3.8277 C   0  0  0  0  0  0  0  0  0  0  0  0
  5  4  1  0
  6  2  1  0
  7  5  2  0
  8  1  1  0
  9  3  1  0
  4 12  1  6
 13  2  1  0
 14 10  1  0
 15  1  3  0
 17  4  1  0
 17 11  1  0
  9 18  1  1
 19  3  2  3
 20  8  1  1
 21 13  2  3
 22 16  2  0
 22 18  1  0
 22 20  1  0
 23 15  1  0
 24  5  1  0
 24  9  1  0
 25 11  1  0
 25 21  1  0
 26 14  1  0
 26 20  1  0
M  END
>  <ID>  (1) 
conformer_0

$$$$
