
     RDKit          3D

 29 30  0  0  0  0  0  0  0  0999 V2000
  -15.7016   -6.1860    4.7062 C   0  0  0  0  0  0  0  0  0  0  0  0
  -25.8474   -7.1876    2.6892 C   0  0  0  0  0  0  0  0  0  0  0  0
  -21.9609   -3.0415    4.6177 C   0  0  0  0  0  0  0  0  0  0  0  0
  -23.0042   -4.0445    0.4642 C   0  0  0  0  0  0  0  0  0  0  0  0
  -16.8196   -5.9497    4.0628 C   0  0  0  0  0  0  0  0  0  0  0  0
  -21.8073   -3.8030    1.5239 C   0  0  0  0  0  0  0  0  0  0  0  0
  -23.7973   -8.3274    3.2591 C   0  0  0  0  0  0  0  0  0  0  0  0
  -24.7096   -4.8404    0.7936 C   0  0  0  0  0  0  0  0  0  0  0  0
  -26.1680   -8.2281    3.6030 C   0  0  0  0  0  0  0  0  0  0  0  0
  -21.3975   -2.5187    0.9118 O   0  0  0  0  0  0  0  0  0  0  0  0
  -22.1705   -8.9447    4.1180 C   0  0  0  0  0  0  0  0  0  0  0  0
  -20.7654   -3.6977    3.6224 C   0  0  0  0  0  0  0  0  0  0  0  0
  -20.9212   -7.8207    5.3134 O   0  0  0  0  0  0  0  0  0  0  0  0
  -21.8860   -4.3360   -0.8409 C   0  0  0  0  0  0  0  0  0  0  0  0
  -14.4678   -6.1447    4.7652 C   0  0  0  0  0  0  0  0  0  0  0  0
  -17.9575   -6.6496    3.5467 C   0  0  0  0  0  0  0  0  0  0  0  0
  -20.4652   -4.9668    3.1666 N   0  0  0  0  0  0  0  0  0  0  0  0
  -23.3288   -5.1727    1.3170 N   0  0  0  0  0  0  0  0  0  0  0  0
  -21.5193   -1.7173    4.0362 C   0  0  0  0  0  0  0  0  0  0  0  0
  -21.7402   -8.1393    3.3408 N   0  0  0  0  0  0  0  0  0  0  0  0
  -19.1929   -3.9129    4.9069 O   0  0  0  0  0  0  0  0  0  0  0  0
  -24.7856   -6.9110    2.3412 C   0  0  0  0  0  0  0  0  0  0  0  0
  -13.4883   -6.0192    4.4576 O   0  0  0  0  0  0  0  0  0  0  0  0
  -24.9297   -5.9750    1.7092 N   0  0  0  0  0  0  0  0  0  0  0  0
  -24.9553   -8.8364    3.8301 C   0  0  0  0  0  0  0  0  0  0  0  0
  -20.1553   -7.7271    3.8363 C   0  0  0  0  0  0  0  0  0  0  0  0
  -26.0314   -3.9883    1.2354 S   0  0  0  0  0  0  0  0  0  0  0  0
  -19.1579   -5.3601    4.0358 C   0  0  0  0  0  0  0  0  0  0  0  0
  -19.0364   -7.9345    3.4246 C   0  0  0  0  0  0  0  0  0  0  0  0
  5  1  1  0
  6  4  1  0
  8  4  1  0
  9  2  2  0
 10  6  1  0
 11  7  1  0
 12  3  1  0
 14  4  1  0
 15  1  2  0
 16  5  1  0
 17 12  1  0
 18  4  1  0
 18  8  1  0
 19  3  1  0
 20 11  1  0
 22  2  1  0
 22  7  1  0
 23 15  2  0
 24  8  1  0
 24 22  1  0
 25  7  2  0
 25  9  1  0
 26 13  2  0
 26 20  1  0
 27  8  1  0
 28 16  1  0
 28 17  1  0
 28 21  2  0
 29 16  1  0
 29 26  1  0
M  END
>  <ID>  (1) 
conformer_0

$$$$
