
     RDKit          3D

 34 35  0  0  0  0  0  0  0  0999 V2000
  -15.3477   -6.2648    4.6675 C   0  0  0  0  0  0  0  0  0  0  0  0
  -22.5681   -3.0713    5.0325 C   0  0  0  0  0  0  0  0  0  0  0  0
  -25.0602   -7.2789    2.1674 C   0  0  0  0  0  0  0  0  0  0  0  0
  -24.4622   -5.1043    0.9847 C   0  0  2  0  0  0  0  0  0  0  0  0
  -20.0921   -3.9221    3.9779 C   0  0  1  0  0  0  0  0  0  0  0  0
  -21.7641   -9.2061    3.9794 C   0  0  0  0  0  0  0  0  0  0  0  0
  -25.8598   -8.7110    3.4185 C   0  0  0  0  0  0  0  0  0  0  0  0
  -23.6609   -8.2762    3.3719 C   0  0  0  0  0  0  0  0  0  0  0  0
  -21.2821   -2.3882    0.9003 O   0  0  0  0  0  0  0  0  0  0  0  0
  -18.8759   -3.5287    4.5373 O   0  0  0  0  0  0  0  0  0  0  0  0
  -16.5210   -5.7091    4.1854 C   0  0  0  0  0  0  0  0  0  0  0  0
  -18.8607   -5.6790    4.0237 C   0  0  0  0  0  0  0  0  0  0  0  0
  -21.2526   -3.9480    2.2878 C   0  0  0  0  0  0  0  0  0  0  0  0
  -20.4035   -7.3927    4.9347 O   0  0  0  0  0  0  0  0  0  0  0  0
  -19.6469   -5.4260    3.5911 N   0  0  0  0  0  0  0  0  0  0  0  0
  -21.8219   -3.9257   -0.9977 C   0  0  0  0  0  0  0  0  0  0  0  0
  -23.1778   -4.7664    1.0525 N   0  0  0  0  0  0  0  0  0  0  0  0
  -13.5245   -5.2756    5.6147 O   0  0  0  0  0  0  0  0  0  0  0  0
  -19.4326   -8.7358    3.1593 C   0  0  0  0  0  0  0  0  0  0  0  0
  -21.2384   -2.9287    4.3632 C   0  0  0  0  0  0  0  0  0  0  0  0
  -14.5466   -5.8939    4.8944 C   0  0  0  0  0  0  0  0  0  0  0  0
  -22.0904   -8.5825    3.7149 N   0  0  0  0  0  0  0  0  0  0  0  0
  -24.7409   -6.4974    2.3699 C   0  0  0  0  0  0  0  0  0  0  0  0
  -25.0756   -5.4159    1.8877 N   0  0  0  0  0  0  0  0  0  0  0  0
  -25.8082   -3.8159    1.8329 S   0  0  0  0  0  0  0  0  0  0  0  0
  -22.0417   -3.7245    0.4384 C   0  0  1  0  0  0  0  0  0  0  0  0
  -24.5926   -8.6051    4.0735 C   0  0  0  0  0  0  0  0  0  0  0  0
  -21.1980   -4.0275    2.3164 N   0  0  0  0  0  0  0  0  0  0  0  0
  -22.9356   -7.5513    2.6221 N   0  0  0  0  0  0  0  0  0  0  0  0
  -17.5639   -6.5250    3.8082 C   0  0  0  0  0  0  0  0  0  0  0  0
  -20.0480   -7.8045    3.7232 C   0  0  1  0  0  0  0  0  0  0  0  0
  -26.2000   -7.1381    3.3649 C   0  0  0  0  0  0  0  0  0  0  0  0
  -23.7891   -3.6829    0.1482 C   0  0  1  0  0  0  0  0  0  0  0  0
  -21.9097   -1.3973    3.7731 C   0  0  0  0  0  0  0  0  0  0  0  0
  5 10  1  6
 11  1  2  3
 13  9  1  0
 15  5  1  0
 15 12  1  0
 17  4  1  0
 20  2  1  0
 20  5  1  0
 21  1  1  0
 21 18  1  0
 22  6  1  0
 22  8  1  0
 23  3  1  0
 24  4  1  0
 24 23  1  0
  4 25  1  1
 26  9  1  0
 26 16  1  1
 26 17  1  0
 27  7  1  0
 27  8  1  0
 28  5  1  0
 28 13  1  0
 29  8  2  3
 30 11  1  0
 30 12  1  0
 31  6  1  0
 31 14  1  0
 31 19  1  1
 32  3  1  0
 32  7  1  0
 33  4  1  0
 33 17  1  1
 33 26  1  0
 34 20  1  0
M  END
>  <ID>  (1) 
conformer_0

$$$$
