
     RDKit          3D

 26 27  0  0  0  0  0  0  0  0999 V2000
  -15.5600   -5.8553    4.6785 C   0  0  0  0  0  0  0  0  0  0  0  0
  -21.8402   -1.7383    4.2604 C   0  0  0  0  0  0  0  0  0  0  0  0
  -25.7840   -8.2533    3.4080 C   0  0  0  0  0  0  0  0  0  0  0  0
  -24.3802   -3.9249    0.7164 C   0  0  0  0  0  0  0  0  0  0  0  0
  -21.5051   -3.3313    2.0673 C   0  0  0  0  0  0  0  0  0  0  0  0
  -16.9418   -6.0524    3.9562 C   0  0  0  0  0  0  0  0  0  0  0  0
  -24.7903   -6.9615    2.6131 C   0  0  0  0  0  0  0  0  0  0  0  0
  -22.3476   -9.1415    3.7539 C   0  0  0  0  0  0  0  0  0  0  0  0
  -22.4768   -3.7836    0.3762 C   0  0  0  0  0  0  0  0  0  0  0  0
  -20.7493   -2.4282    1.3822 O   0  0  0  0  0  0  0  0  0  0  0  0
  -22.1045   -4.0314   -1.0118 C   0  0  0  0  0  0  0  0  0  0  0  0
  -20.4553   -3.7522    3.7899 C   0  0  0  0  0  0  0  0  0  0  0  0
  -19.1068   -4.1724    5.1337 O   0  0  0  0  0  0  0  0  0  0  0  0
  -23.2331   -4.6689    1.1555 N   0  0  0  0  0  0  0  0  0  0  0  0
  -21.8293   -2.7700    4.8566 C   0  0  0  0  0  0  0  0  0  0  0  0
  -20.3961   -4.7277    3.3157 N   0  0  0  0  0  0  0  0  0  0  0  0
  -21.1257   -7.9038    4.9321 O   0  0  0  0  0  0  0  0  0  0  0  0
  -14.4439   -6.2083    4.7812 C   0  0  0  0  0  0  0  0  0  0  0  0
  -18.6883   -7.1482    3.5386 C   0  0  2  0  0  0  0  0  0  0  0  0
  -19.0479   -5.5115    4.1066 C   0  0  0  0  0  0  0  0  0  0  0  0
  -24.0226   -5.7078    1.4851 C   0  0  0  0  0  0  0  0  0  0  0  0
  -21.5407   -8.5406    3.3178 N   0  0  0  0  0  0  0  0  0  0  0  0
  -24.5449   -6.1484    2.1649 N   0  0  0  0  0  0  0  0  0  0  0  0
  -13.2322   -6.2107    5.3724 O   0  0  0  0  0  0  0  0  0  0  0  0
  -20.2372   -7.8344    3.8434 C   0  0  0  0  0  0  0  0  0  0  0  0
  -24.2721   -8.6576    3.3683 C   0  0  1  0  0  0  0  0  0  0  0  0
  6  1  1  0
  7  3  2  0
  9  4  1  0
  9  5  1  0
 10  5  1  0
 11  9  1  0
 14  4  1  0
 14  9  1  0
 15  2  1  0
 15 12  1  0
 16 12  1  0
 18  1  2  3
 19  6  1  1
 20 13  2  0
 20 16  1  0
 20 19  1  0
 21 14  1  0
 22  8  1  0
 23  7  1  0
 23 21  1  0
 24 18  1  0
 25 17  2  0
 25 19  1  0
 25 22  1  0
 26  3  1  0
 26  7  1  0
 26  8  1  1
M  END
>  <ID>  (1) 
conformer_0

$$$$
