
     RDKit          3D

 24 24  0  0  0  0  0  0  0  0999 V2000
  -17.7779   -6.6582    3.6478 C   0  0  2  0  0  0  0  0  0  0  0  0
  -21.9954   -2.5378    4.5661 C   0  0  0  0  0  0  0  0  0  0  0  0
  -24.3829   -5.1936    1.1864 C   0  0  2  0  0  0  0  0  0  0  0  0
  -25.6629   -7.7900    2.8506 C   0  0  0  0  0  0  0  0  0  0  0  0
  -20.6601   -3.7302    3.6257 C   0  0  0  0  0  0  0  0  0  0  0  0
  -23.6381   -8.3691    3.2935 C   0  0  0  0  0  0  0  0  0  0  0  0
  -19.3691   -5.2796    3.9523 C   0  0  0  0  0  0  0  0  0  0  0  0
  -21.0854   -2.8544    1.0930 O   0  0  0  0  0  0  0  0  0  0  0  0
  -23.0681   -4.4158    0.4906 C   0  0  1  0  0  0  0  0  0  0  0  0
  -14.9667   -6.0015    4.8004 C   0  0  0  0  0  0  0  0  0  0  0  0
  -19.5012   -7.4388    3.6994 C   0  0  0  0  0  0  0  0  0  0  0  0
  -16.4612   -5.9894    3.9584 C   0  0  0  0  0  0  0  0  0  0  0  0
  -21.9989   -1.4079    4.3480 C   0  0  0  0  0  0  0  0  0  0  0  0
  -20.6040   -7.7955    4.7131 O   0  0  0  0  0  0  0  0  0  0  0  0
  -20.5014   -5.0372    2.8553 N   0  0  0  0  0  0  0  0  0  0  0  0
  -23.1441   -5.2985    1.4476 N   0  0  0  0  0  0  0  0  0  0  0  0
  -21.7343   -4.7318   -0.7776 C   0  0  0  0  0  0  0  0  0  0  0  0
  -13.7285   -5.2854    5.5476 O   0  0  0  0  0  0  0  0  0  0  0  0
  -21.8026   -8.6792    3.3139 N   0  0  0  0  0  0  0  0  0  0  0  0
  -24.8656   -6.8491    2.4070 C   0  0  0  0  0  0  0  0  0  0  0  0
  -25.0245   -6.1490    2.0131 N   0  0  0  0  0  0  0  0  0  0  0  0
  -21.4380   -8.9474    3.7168 C   0  0  0  0  0  0  0  0  0  0  0  0
  -21.6668   -4.1108    1.5245 C   0  0  0  0  0  0  0  0  0  0  0  0
  -24.8402   -8.7718    3.7485 C   0  0  0  0  0  0  0  0  0  0  0  0
  5  2  1  0
  1  7  1  6
  9  3  1  0
 11  1  1  0
 12  1  1  0
 12 10  1  0
 13  2  2  3
 14 11  1  0
 15  5  1  0
 15  7  1  0
 16  3  1  0
 16  9  1  0
  9 17  1  6
 18 10  1  0
 19  6  1  0
 20  4  2  3
  3 21  1  6
 21 20  1  0
 22 14  1  0
 22 19  1  0
 23  8  1  0
 23  9  1  0
 24  4  1  0
 24  6  2  3
M  END
>  <ID>  (1) 
conformer_0

$$$$
