
     RDKit          3D

 23 22  0  0  0  0  0  0  0  0999 V2000
  -15.7880   -5.9623    4.7966 C   0  0  0  0  0  0  0  0  0  0  0  0
  -25.4295   -8.4765    3.5023 C   0  0  0  0  0  0  0  0  0  0  0  0
  -22.3258   -3.0513    4.7179 C   0  0  0  0  0  0  0  0  0  0  0  0
  -17.0270   -6.0495    4.1852 C   0  0  0  0  0  0  0  0  0  0  0  0
  -22.4179   -3.7361    0.7643 C   0  0  0  0  0  0  0  0  0  0  0  0
  -20.9358   -3.5772    2.9448 C   0  0  0  0  0  0  0  0  0  0  0  0
  -21.2586   -2.5108    0.9122 O   0  0  0  0  0  0  0  0  0  0  0  0
  -19.2380   -3.9574    5.2611 O   0  0  0  0  0  0  0  0  0  0  0  0
  -23.8750   -8.3841    3.2543 C   0  0  0  0  0  0  0  0  0  0  0  0
  -20.9966   -8.3845    3.8522 C   0  0  0  0  0  0  0  0  0  0  0  0
  -24.2186   -4.6882    0.7137 C   0  0  0  0  0  0  0  0  0  0  0  0
  -20.9865   -7.9384    5.0462 O   0  0  0  0  0  0  0  0  0  0  0  0
  -22.1677   -4.1262   -0.9277 C   0  0  0  0  0  0  0  0  0  0  0  0
  -25.9043   -7.8252    2.9117 C   0  0  0  0  0  0  0  0  0  0  0  0
  -23.4010   -5.2632    1.4452 N   0  0  0  0  0  0  0  0  0  0  0  0
  -18.7106   -7.2718    3.5595 C   0  0  1  0  0  0  0  0  0  0  0  0
  -22.5272   -8.8292    3.7514 N   0  0  0  0  0  0  0  0  0  0  0  0
  -20.1712   -4.9049    3.2377 N   0  0  0  0  0  0  0  0  0  0  0  0
  -14.4233   -6.0719    4.8152 C   0  0  0  0  0  0  0  0  0  0  0  0
  -19.3647   -4.9058    4.0549 C   0  0  0  0  0  0  0  0  0  0  0  0
  -21.5314   -2.3498    4.0947 C   0  0  0  0  0  0  0  0  0  0  0  0
  -24.9832   -6.6530    2.2371 C   0  0  0  0  0  0  0  0  0  0  0  0
  -25.1177   -5.6982    1.9391 N   0  0  0  0  0  0  0  0  0  0  0  0
  4  1  1  0
  7  5  2  0
  9  2  2  3
 12 10  2  0
 13  5  1  0
 14  2  1  0
 15  5  1  0
 15 11  1  0
 16  4  1  1
 16 10  1  0
 17  9  1  0
 17 10  1  0
 18  6  1  0
 19  1  2  3
 20  8  2  0
 20 16  1  0
 20 18  1  0
 21  3  1  0
 21  6  1  0
 22 14  1  0
 23 11  1  0
 23 22  1  0
M  END
>  <ID>  (1) 
conformer_0

$$$$
