
     RDKit          3D

 25 25  0  0  0  0  0  0  0  0999 V2000
  -16.0952   -6.2393    4.5013 C   0  0  0  0  0  0  0  0  0  0  0  0
  -21.6875   -1.5331    4.0047 C   0  0  0  0  0  0  0  0  0  0  0  0
  -22.8304   -3.9761    0.4860 C   0  0  1  0  0  0  0  0  0  0  0  0
  -25.1410   -8.5800    3.8693 C   0  0  0  0  0  0  0  0  0  0  0  0
  -20.3614   -3.9537    3.8391 C   0  0  2  0  0  0  0  0  0  0  0  0
  -24.9084   -7.0248    2.6000 C   0  0  0  0  0  0  0  0  0  0  0  0
  -19.2585   -6.2814    3.8406 C   0  0  2  0  0  0  0  0  0  0  0  0
  -21.1779   -2.4527    0.9102 O   0  0  0  0  0  0  0  0  0  0  0  0
  -21.4761   -3.4793    2.0417 C   0  0  1  0  0  0  0  0  0  0  0  0
  -22.4768   -4.3018   -0.8176 C   0  0  0  0  0  0  0  0  0  0  0  0
  -19.3530   -4.1364    5.0722 O   0  0  0  0  0  0  0  0  0  0  0  0
  -17.1010   -6.2134    4.0058 C   0  0  0  0  0  0  0  0  0  0  0  0
  -21.4424   -8.5607    3.6461 C   0  0  0  0  0  0  0  0  0  0  0  0
  -14.7760   -6.2491    4.7781 C   0  0  0  0  0  0  0  0  0  0  0  0
  -20.6051   -7.4515    5.0283 O   0  0  0  0  0  0  0  0  0  0  0  0
  -23.2064   -5.9941    1.4968 N   0  0  0  0  0  0  0  0  0  0  0  0
  -19.8566   -5.3370    3.3132 N   0  0  0  0  0  0  0  0  0  0  0  0
  -13.3614   -6.0435    5.5289 O   0  0  0  0  0  0  0  0  0  0  0  0
  -21.6574   -8.3375    3.3529 N   0  0  0  0  0  0  0  0  0  0  0  0
  -22.0691   -2.7767    4.5364 C   0  0  0  0  0  0  0  0  0  0  0  0
  -18.5824   -7.7710    3.7619 C   0  0  0  0  0  0  0  0  0  0  0  0
  -23.9731   -8.5272    3.4162 C   0  0  0  0  0  0  0  0  0  0  0  0
  -23.9916   -5.2809    1.1436 C   0  0  0  0  0  0  0  0  0  0  0  0
  -25.9590   -7.4876    3.1085 C   0  0  0  0  0  0  0  0  0  0  0  0
  -13.7621   -6.3421    5.0110 N   0  0  0  0  0  0  0  0  0  0  0  0
  9  3  1  0
  9  5  1  0
  9  8  1  6
  3 10  1  6
  5 11  1  6
 12  1  1  0
 14  1  3  0
 15  7  1  0
 15 13  1  0
 16  6  2  3
 17  5  1  0
 17  7  1  0
 19 13  1  0
 20  2  1  0
 20  5  1  0
  7 21  1  6
 21 12  1  0
 22  4  2  0
 22  6  1  0
 23  3  1  0
 23 16  1  0
 24  4  1  0
 24  6  1  0
 25 14  1  0
 25 18  1  0
M  END
>  <ID>  (1) 
conformer_0

$$$$
