
     RDKit          3D

 25 25  0  0  0  0  0  0  0  0999 V2000
  -15.6804   -6.4681    4.8315 C   0  0  0  0  0  0  0  0  0  0  0  0
  -21.6096   -2.8582    4.6878 C   0  0  0  0  0  0  0  0  0  0  0  0
  -25.9388   -7.3959    3.1830 C   0  0  0  0  0  0  0  0  0  0  0  0
  -22.0243   -3.8420    1.4042 C   0  0  0  0  0  0  0  0  0  0  0  0
  -20.4670   -3.1269    3.8684 C   0  0  2  0  0  0  0  0  0  0  0  0
  -16.8771   -6.0987    4.0775 C   0  0  0  0  0  0  0  0  0  0  0  0
  -23.9089   -8.4854    3.4250 C   0  0  0  0  0  0  0  0  0  0  0  0
  -22.3344   -4.0810   -0.9251 C   0  0  0  0  0  0  0  0  0  0  0  0
  -21.3649   -2.5698    1.4024 O   0  0  0  0  0  0  0  0  0  0  0  0
  -19.8992   -4.9422    3.7871 C   0  0  0  0  0  0  0  0  0  0  0  0
  -23.3824   -4.1448    0.2646 C   0  0  0  0  0  0  0  0  0  0  0  0
  -17.8776   -6.5370    3.5744 C   0  0  0  0  0  0  0  0  0  0  0  0
  -19.8953   -7.2812    3.3782 C   0  0  2  0  0  0  0  0  0  0  0  0
  -19.0954   -2.9270    4.6635 O   0  0  0  0  0  0  0  0  0  0  0  0
  -21.8102   -1.3952    4.2134 C   0  0  0  0  0  0  0  0  0  0  0  0
  -14.6155   -6.4666    4.8767 C   0  0  0  0  0  0  0  0  0  0  0  0
  -20.0426   -5.2101    3.5420 N   0  0  0  0  0  0  0  0  0  0  0  0
  -25.5168   -8.4632    3.8724 C   0  0  0  0  0  0  0  0  0  0  0  0
  -23.1472   -4.7057    1.1346 N   0  0  0  0  0  0  0  0  0  0  0  0
  -24.7055   -6.9237    2.5116 C   0  0  1  0  0  0  0  0  0  0  0  0
  -21.3596   -7.3697    3.9351 O   0  0  0  0  0  0  0  0  0  0  0  0
  -23.4933   -7.2462    2.0680 N   0  0  0  0  0  0  0  0  0  0  0  0
  -19.1936   -7.9881    3.1183 C   0  0  0  0  0  0  0  0  0  0  0  0
  -21.8328   -9.0409    3.6552 C   0  0  0  0  0  0  0  0  0  0  0  0
  -24.1922   -5.4081    1.1536 C   0  0  0  0  0  0  0  0  0  0  0  0
  5  2  1  0
  6  1  1  0
  9  4  1  0
 10  5  1  0
 11  8  1  0
 12  6  2  3
  5 14  1  1
 15  2  1  0
 16  1  2  3
 17 10  1  0
 17 13  1  0
 18  3  2  0
 18  7  1  0
 19  4  1  0
 19 11  1  0
 20  3  1  0
 21 13  1  0
 22  7  2  0
 22 20  1  0
 23 12  1  0
 13 23  1  1
 24  7  1  0
 24 21  1  0
 25 19  1  0
 20 25  1  6
M  END
>  <ID>  (1) 
conformer_0

$$$$
