
     RDKit          3D

 29 31  0  0  0  0  0  0  0  0999 V2000
  -16.2528   -5.9298    4.2900 C   0  0  0  0  0  0  0  0  0  0  0  0
  -22.1212   -2.3830    4.3901 C   0  0  0  0  0  0  0  0  0  0  0  0
  -25.0408   -8.9631    3.8352 C   0  0  0  0  0  3  0  0  0  0  0  0
  -23.4985   -4.1752    0.0864 C   0  0  0  0  0  0  0  0  0  0  0  0
  -22.0975   -3.9583    1.1121 C   0  0  0  0  0  0  0  0  0  0  0  0
  -15.0057   -6.6148    4.9510 C   0  0  0  0  0  0  0  0  0  0  0  0
  -19.3722   -6.7433    4.1938 C   0  0  0  0  0  0  0  0  0  0  0  0
  -24.6073   -7.0886    2.5263 C   0  0  0  0  0  0  0  0  0  0  0  0
  -21.3110   -2.5896    0.9702 O   0  0  0  0  0  0  0  0  0  0  0  0
  -19.0478   -3.5152    4.2043 O   0  0  0  0  0  0  0  0  0  0  0  0
  -22.5294   -4.5915   -0.9249 C   0  0  0  0  0  0  0  0  0  0  0  0
  -20.9501   -7.7362    5.1734 O   0  0  0  0  0  0  0  0  0  0  0  0
  -21.1662   -8.5003    3.7843 C   0  0  0  0  0  0  0  0  0  0  0  0
  -21.6654   -1.3778    3.8653 C   0  0  0  0  0  0  0  0  0  0  0  0
  -17.4533   -6.3188    3.9121 C   0  0  0  0  0  0  0  0  0  0  0  0
  -19.9443   -5.4974    3.5926 N   0  0  0  0  0  0  0  0  0  0  0  0
  -23.3537   -5.0716    1.0565 N   0  0  0  0  0  0  0  0  0  0  0  0
  -22.1343   -9.0139    3.6326 N   0  0  0  0  0  0  0  0  0  0  0  0
  -19.3766   -8.0637    3.5561 C   0  0  0  0  0  0  0  0  0  0  0  0
  -23.9605   -5.4521    1.5024 C   0  0  0  0  0  0  0  0  0  0  0  0
  -23.5300   -7.7729    2.2692 N   0  0  0  0  0  0  0  0  0  0  0  0
  -14.4572   -6.0333    5.0999 C   0  0  0  0  0  0  0  0  0  0  0  0
  -21.6434   -3.9887    2.5631 N   0  0  0  0  0  0  0  0  0  0  0  0
  -23.7358   -8.7848    3.5863 C   0  0  0  0  0  0  0  0  0  0  0  0
  -24.5978   -6.2754    2.1277 N   0  0  0  0  0  0  0  0  0  0  0  0
  -25.7505   -7.7952    3.0440 C   0  0  0  0  0  0  0  0  0  0  0  0
  -23.0330   -9.8972    5.1287 C   0  0  0  0  0  0  0  0  0  0  0  0
  -19.9471   -4.4482    3.8778 C   0  0  0  0  0  0  0  0  0  0  0  0
  -21.1417   -3.2475    3.0402 C   0  0  0  0  0  0  0  0  0  0  0  0
  5  4  1  0
  6  1  1  0
  9  5  1  0
 11  4  1  0
 13 12  2  0
 14  2  1  0
 15  1  1  0
 15  7  1  0
 16  7  1  0
 17  4  1  0
 17  5  1  0
 18 13  1  0
 19  7  1  0
 19 13  1  0
 20 17  1  0
 21  8  2  0
 22  6  1  0
 23  5  1  0
 24  3  1  0
 24 18  1  0
 24 21  1  0
 25  8  1  0
 25 20  1  0
 26  3  1  0
 26  8  1  0
 27 24  1  0
 28 10  2  0
 28 16  1  0
 29  2  1  0
 29 23  1  0
 29 28  1  0
M  RAD  1   3   2
M  END
>  <ID>  (1) 
conformer_0

$$$$
