
     RDKit          3D

 25 24  0  0  0  0  0  0  0  0999 V2000
  -21.8402   -1.6871    3.8048 C   0  0  0  0  0  0  0  0  0  0  0  0
  -16.0177   -5.9470    4.6044 C   0  0  0  0  0  0  0  0  0  0  0  0
  -22.8091   -4.1839    0.5960 C   0  0  1  0  0  0  0  0  0  0  0  0
  -25.2762   -8.3806    3.7909 C   0  0  0  0  0  0  0  0  0  0  0  0
  -24.7853   -6.8692    2.4196 C   0  0  0  0  0  0  0  0  0  0  0  0
  -17.1708   -6.2156    3.9541 C   0  0  0  0  0  0  0  0  0  0  0  0
  -21.5611   -3.6135    1.5218 C   0  0  0  0  0  0  0  0  0  0  0  0
  -19.3884   -3.8347    5.1035 O   0  0  0  0  0  0  0  0  0  0  0  0
  -24.2217   -5.3963    1.1529 C   0  0  0  0  0  0  0  0  0  0  0  0
  -21.3543   -2.2352    0.7999 O   0  0  0  0  0  0  0  0  0  0  0  0
  -22.2151   -9.0603    4.1647 C   0  0  0  0  0  0  0  0  0  0  0  0
  -20.7867   -7.7673    5.2010 O   0  0  0  0  0  0  0  0  0  0  0  0
  -20.1959   -4.8016    3.1106 N   0  0  0  0  0  0  0  0  0  0  0  0
  -19.1838   -5.6738    3.6740 C   0  0  0  0  0  0  0  0  0  0  0  0
  -22.4020   -4.0778   -0.6829 C   0  0  0  0  0  0  0  0  0  0  0  0
  -14.7809   -6.2359    4.7615 C   0  0  0  0  0  0  0  0  0  0  0  0
  -21.7117   -8.8788    3.6721 N   0  0  0  0  0  0  0  0  0  0  0  0
  -13.7894   -6.2281    5.5222 O   0  0  0  0  0  0  0  0  0  0  0  0
  -22.9617   -5.3890    1.3284 N   0  0  0  0  0  0  0  0  0  0  0  0
  -21.7621   -2.8001    4.4780 C   0  0  0  0  0  0  0  0  0  0  0  0
  -18.5885   -7.2079    3.5926 C   0  0  2  0  0  0  0  0  0  0  0  0
  -23.9427   -8.3802    3.3943 C   0  0  0  0  0  0  0  0  0  0  0  0
  -20.2004   -8.0232    3.8970 C   0  0  0  0  0  0  0  0  0  0  0  0
  -20.6228   -3.8842    3.6684 C   0  0  0  0  0  0  0  0  0  0  0  0
  -25.6240   -7.7099    2.6754 C   0  0  0  0  0  0  0  0  0  0  0  0
  6  2  1  0
  7  3  1  0
  9  5  1  0
 10  7  1  0
 14 13  1  0
  3 15  1  6
 16  2  1  0
 17 11  1  0
 18 16  1  0
 19  3  1  0
 19  9  1  0
 20  1  1  0
 21  6  1  1
 21 14  1  0
 22  4  2  3
 22 11  1  0
 23 12  2  0
 23 17  1  0
 23 21  1  0
 24  8  2  0
 24 13  1  0
 24 20  1  0
 25  4  1  0
 25  5  2  3
M  END
>  <ID>  (1) 
conformer_0

$$$$
