
     RDKit          3D

 20 19  0  0  0  0  0  0  0  0999 V2000
  -15.1454   -6.0381    4.8324 C   0  0  0  0  0  0  0  0  0  0  0  0
  -21.9251   -1.9638    4.1407 C   0  0  0  0  0  0  0  0  0  0  0  0
  -26.0302   -7.6615    2.7831 C   0  0  0  0  0  0  0  0  0  0  0  0
  -23.9763   -4.8935    0.6493 C   0  0  0  0  0  0  0  0  0  0  0  0
  -16.3470   -6.0877    4.1406 C   0  0  0  0  0  0  0  0  0  0  0  0
  -22.6728   -3.5979    1.0172 C   0  0  1  0  0  0  0  0  0  0  0  0
  -24.2612   -7.4871    2.5954 C   0  0  2  0  0  0  0  0  0  0  0  0
  -21.3565   -2.6727    1.1133 O   0  0  0  0  0  0  0  0  0  0  0  0
  -20.8389   -8.4523    3.5863 C   0  0  1  0  0  0  0  0  0  0  0  0
  -18.1013   -6.8820    3.5555 C   0  0  1  0  0  0  0  0  0  0  0  0
  -19.0856   -4.2712    5.0702 O   0  0  0  0  0  0  0  0  0  0  0  0
  -20.7719   -3.6707    3.2344 C   0  0  0  0  0  0  0  0  0  0  0  0
  -25.4707   -8.6624    3.1567 C   0  0  0  0  0  0  0  0  0  0  0  0
  -21.9702   -3.0771    4.5650 C   0  0  0  0  0  0  0  0  0  0  0  0
  -19.3906   -5.4697    3.8436 C   0  0  1  0  0  0  0  0  0  0  0  0
  -21.2573   -8.0771    4.8666 O   0  0  0  0  0  0  0  0  0  0  0  0
  -22.3109   -4.2393   -0.9590 C   0  0  0  0  0  0  0  0  0  0  0  0
  -23.4923   -6.4499    1.5384 N   0  0  0  0  0  0  0  0  0  0  0  0
  -23.1298   -3.1960    2.0966 N   0  0  0  0  0  0  0  0  0  0  0  0
  -22.0911   -8.8378    3.2837 N   0  0  0  0  0  0  0  0  0  0  0  0
  5  1  1  0
  6  4  1  0
  8  6  1  0
  9  7  1  0
 10  5  1  1
 10  9  1  0
 13  3  2  3
 13  7  1  0
 14  2  1  0
 14 12  1  0
 15 10  1  0
 15 11  1  1
 15 12  1  0
 16  9  1  0
  6 17  1  6
 18  4  1  0
  7 18  1  6
 19  6  1  0
  9 20  1  1
M  END
>  <ID>  (1) 
conformer_0

$$$$
