
     RDKit          3D

 27 28  0  0  0  0  0  0  0  0999 V2000
  -24.6265   -8.5657    3.4475 C   0  0  0  0  0  0  0  0  0  0  0  0
  -22.0768   -2.6974    4.5650 C   0  0  0  0  0  0  0  0  0  0  0  0
  -15.5298   -6.0006    4.6462 C   0  0  0  0  0  0  0  0  0  0  0  0
  -22.7882   -3.9752    0.3325 C   0  0  1  0  0  0  0  0  0  0  0  0
  -21.6501   -3.6999    1.8129 C   0  0  1  0  0  0  0  0  0  0  0  0
  -25.9306   -8.3398    3.5464 C   0  0  0  0  0  0  0  0  0  0  0  0
  -16.7749   -5.9644    4.2939 C   0  0  0  0  0  0  0  0  0  0  0  0
  -24.9350   -6.5044    2.1732 C   0  0  0  0  0  0  0  0  0  0  0  0
  -21.3448   -2.4987    1.0074 O   0  0  0  0  0  0  0  0  0  0  0  0
  -20.6157   -3.6440    3.6485 C   0  0  1  0  0  0  0  0  0  0  0  0
  -19.7578   -7.6669    3.4943 C   0  0  0  0  0  0  0  0  0  0  0  0
  -24.3736   -4.7673    0.6819 C   0  0  2  0  0  0  0  0  0  0  0  0
  -22.0091   -4.2451   -0.9538 C   0  0  0  0  0  0  0  0  0  0  0  0
  -21.5878   -1.6471    4.1921 C   0  0  0  0  0  0  0  0  0  0  0  0
  -24.8414   -5.6778    1.8980 N   0  0  0  0  0  0  0  0  0  0  0  0
  -23.0831   -5.4863    1.3165 N   0  0  0  0  0  0  0  0  0  0  0  0
  -19.2692   -4.4247    4.3187 N   0  0  0  0  0  0  0  0  0  0  0  0
  -14.6074   -6.3368    5.0076 C   0  0  0  0  0  0  0  0  0  0  0  0
  -26.1146   -7.2124    2.7682 C   0  0  0  0  0  0  0  0  0  0  0  0
  -13.3936   -6.0473    5.5186 O   0  0  0  0  0  0  0  0  0  0  0  0
  -18.0462   -6.9868    3.6982 C   0  0  1  0  0  0  0  0  0  0  0  0
  -21.0891   -7.7924    4.2392 O   0  0  0  0  0  0  0  0  0  0  0  0
  -21.9199   -9.0195    3.6750 C   0  0  0  0  0  0  0  0  0  0  0  0
  -20.3638   -4.9428    3.0671 N   0  0  0  0  0  0  0  0  0  0  0  0
  -21.5366   -8.2728    3.3404 N   0  0  0  0  0  0  0  0  0  0  0  0
  -23.6976   -7.9192    2.9028 C   0  0  0  0  0  0  0  0  0  0  0  0
  -18.9414   -5.3802    3.9913 C   0  0  0  0  0  0  0  0  0  0  0  0
  5  4  1  0
  6  1  1  0
  7  3  2  0
  5  9  1  1
 10  2  1  6
 10  5  1  0
 12  4  1  0
  4 13  1  1
 14  2  1  0
 15  8  1  0
 12 15  1  1
 16  4  1  0
 16 12  1  0
 17 10  1  0
 18  3  2  0
 19  6  2  3
 19  8  1  0
 20 18  1  0
 21  7  1  0
 21 11  1  1
 22 11  1  0
 24 10  1  0
 25 22  1  0
 25 23  1  0
 26  1  2  3
 27 17  2  0
 27 21  1  0
 27 24  1  0
M  END
>  <ID>  (1) 
conformer_0

$$$$
