
     RDKit          3D

 27 28  0  0  0  0  0  0  0  0999 V2000
  -16.7639   -6.2437    4.4330 C   0  0  0  0  0  0  0  0  0  0  0  0
  -21.9488   -2.6102    4.5591 C   0  0  0  0  0  0  0  0  0  0  0  0
  -25.2783   -8.6847    3.5678 C   0  0  0  0  0  0  0  0  0  0  0  0
  -22.7337   -3.8305    0.4680 C   0  0  2  0  0  0  0  0  0  0  0  0
  -21.5527   -3.6101    2.3455 C   0  0  2  0  0  0  0  0  0  0  0  0
  -20.2136   -4.2435    3.9093 C   0  0  2  0  0  0  0  0  0  0  0  0
  -23.7364   -8.6477    3.1966 C   0  0  0  0  0  0  0  0  0  0  0  0
  -15.8029   -6.5122    4.9822 C   0  0  0  0  0  0  0  0  0  0  0  0
  -21.3296   -2.3950    1.0725 O   0  0  0  0  0  0  0  0  0  0  0  0
  -23.0494   -3.9934   -1.1992 C   0  0  0  0  0  0  0  0  0  0  0  0
  -22.0316   -1.4014    4.1110 C   0  0  0  0  0  0  0  0  0  0  0  0
  -19.2495   -6.5649    4.0767 C   0  0  0  0  0  0  0  0  0  0  0  0
  -20.7543   -7.6905    4.9810 O   0  0  0  0  0  0  0  0  0  0  0  0
  -14.3439   -6.4259    4.9860 C   0  0  0  0  0  0  0  0  0  0  0  0
  -23.9776   -4.7977    0.9010 C   0  0  1  0  0  0  0  0  0  0  0  0
  -25.8401   -7.7803    2.9214 C   0  0  0  0  0  0  0  0  0  0  0  0
  -22.8543   -5.1509    1.2803 N   0  0  0  0  0  0  0  0  0  0  0  0
  -13.3464   -6.0839    5.4615 O   0  0  0  0  0  0  0  0  0  0  0  0
  -20.0504   -5.4788    3.4494 N   0  0  0  0  0  0  0  0  0  0  0  0
  -19.0868   -4.2540    4.5613 O   0  0  0  0  0  0  0  0  0  0  0  0
  -18.1179   -7.2472    3.8479 C   0  0  2  0  0  0  0  0  0  0  0  0
  -24.4716   -6.1497    1.8291 N   0  0  0  0  0  0  0  0  0  0  0  0
  -23.3149   -7.7774    2.1248 N   0  0  0  0  0  0  0  0  0  0  0  0
  -24.6555   -6.8913    2.3085 C   0  0  0  0  0  0  0  0  0  0  0  0
  -21.9310   -3.7631    2.5972 N   0  0  0  0  0  0  0  0  0  0  0  0
  -21.1100   -8.7102    3.7204 C   0  0  2  0  0  0  0  0  0  0  0  0
  -21.4002   -8.5457    3.4456 N   0  0  0  0  0  0  0  0  0  0  0  0
  6  2  1  0
  6  5  1  0
  7  3  2  0
  8  1  1  0
  9  4  1  0
  9  5  1  0
  4 10  1  6
 11  2  2  3
 14  8  1  0
 15  4  1  0
 16  3  1  0
 17  4  1  0
 17 15  1  0
 18 14  1  0
 19  6  1  0
 19 12  1  0
  6 20  1  6
 21  1  1  1
 21 12  1  0
 15 22  1  1
 23  7  1  0
 24 16  1  0
 24 22  1  0
 24 23  2  0
  5 25  1  1
 26 13  1  0
 26 21  1  0
 26 27  1  6
M  END
>  <ID>  (1) 
conformer_0

$$$$
