
     RDKit          3D

 26 26  0  0  0  0  0  0  0  0999 V2000
  -25.7593   -8.3013    3.4264 C   0  0  0  0  0  0  0  0  0  0  0  0
  -15.5031   -6.4725    4.9498 C   0  0  0  0  0  0  0  0  0  0  0  0
  -21.9966   -1.5691    4.0156 C   0  0  0  0  0  0  0  0  0  0  0  0
  -23.9898   -4.9666    0.9400 C   0  0  0  0  0  0  0  0  0  0  0  0
  -16.5619   -5.9523    4.3548 C   0  0  0  0  0  0  0  0  0  0  0  0
  -20.2636   -3.5640    3.8765 C   0  0  1  0  0  0  0  0  0  0  0  0
  -23.2519   -8.4232    3.2616 C   0  0  0  0  0  0  0  0  0  0  0  0
  -25.3904   -7.2074    2.7417 C   0  0  0  0  0  0  0  0  0  0  0  0
  -19.2433   -5.9445    3.9371 C   0  0  0  0  0  0  0  0  0  0  0  0
  -21.2245   -2.1951    1.1307 O   0  0  0  0  0  0  0  0  0  0  0  0
  -22.3634   -3.9896   -1.0377 C   0  0  0  0  0  0  0  0  0  0  0  0
  -22.7590   -3.9273    0.3221 C   0  0  1  0  0  0  0  0  0  0  0  0
  -20.8513   -8.0181    4.9875 O   0  0  0  0  0  0  0  0  0  0  0  0
  -20.9928   -8.4627    3.8610 C   0  0  0  0  0  0  0  0  0  0  0  0
  -19.6776   -4.9269    3.6077 N   0  0  0  0  0  0  0  0  0  0  0  0
  -22.0013   -2.6154    4.5695 C   0  0  0  0  0  0  0  0  0  0  0  0
  -23.0916   -4.9889    1.0208 N   0  0  0  0  0  0  0  0  0  0  0  0
  -19.2497   -3.5152    4.8847 O   0  0  0  0  0  0  0  0  0  0  0  0
  -21.6555   -8.4119    3.2682 N   0  0  0  0  0  0  0  0  0  0  0  0
  -17.8830   -6.7046    3.7156 C   0  0  0  0  0  0  0  0  0  0  0  0
  -14.2415   -6.5359    4.8685 C   0  0  0  0  0  0  0  0  0  0  0  0
  -21.5958   -3.7372    2.5056 N   0  0  0  0  0  0  0  0  0  0  0  0
  -24.4402   -8.9287    3.5790 C   0  0  0  0  0  0  0  0  0  0  0  0
  -24.1628   -6.8112    2.3808 C   0  0  0  0  0  0  0  0  0  0  0  0
  -21.5619   -3.4223    1.7488 C   0  0  0  0  0  0  0  0  0  0  0  0
  -23.2321   -7.1872    2.0123 N   0  0  0  0  0  0  0  0  0  0  0  0
  5  2  1  0
  8  1  2  0
 12 11  1  6
 14 13  2  0
 15  6  1  0
 15  9  1  0
 16  3  1  0
 16  6  1  0
 17  4  1  0
 17 12  1  0
  6 18  1  6
 19  7  1  0
 19 14  1  0
 20  5  1  0
 20  9  1  0
 21  2  2  3
 22  6  1  0
 23  1  1  0
 23  7  2  0
 24  4  1  0
 24  8  1  0
 25 10  2  0
 25 12  1  0
 25 22  1  0
 26  7  1  0
 26 24  2  0
M  END
>  <ID>  (1) 
conformer_0

$$$$
