
     RDKit          3D

 28 28  0  0  0  0  0  0  0  0999 V2000
  -22.0203   -2.7831    4.4717 C   0  0  0  0  0  0  0  0  0  0  0  0
  -24.6318   -8.5157    3.6138 C   0  0  0  0  0  0  0  0  0  0  0  0
  -15.9290   -6.2085    4.5198 C   0  0  0  0  0  0  0  0  0  0  0  0
  -22.6214   -3.8459    0.0393 C   0  0  0  0  0  0  0  0  0  0  0  0
  -21.6300   -3.7873    1.6993 C   0  0  0  0  0  0  0  0  0  0  0  0
  -21.8599   -4.2595   -1.6059 C   0  0  0  0  0  0  0  0  0  0  0  0
  -19.6171   -7.6984    3.5929 C   0  0  0  0  0  0  0  0  0  0  0  0
  -24.9120   -6.4558    2.5710 C   0  0  0  0  0  0  0  0  0  0  0  0
  -21.0659   -2.7451    0.9254 O   0  0  0  0  0  0  0  0  0  0  0  0
  -25.9905   -8.3743    3.7145 C   0  0  0  0  0  0  0  0  0  0  0  0
  -19.3136   -4.5153    5.2331 O   0  0  0  0  0  0  0  0  0  0  0  0
  -19.1891   -5.3905    3.9580 C   0  0  0  0  0  0  0  0  0  0  0  0
  -21.8784   -8.8093    3.5849 N   0  0  0  0  0  0  0  0  0  0  0  0
  -23.8485   -4.9106    1.1581 C   0  0  0  0  0  0  0  0  0  0  0  0
  -17.0692   -6.2986    4.2130 C   0  0  0  0  0  0  0  0  0  0  0  0
  -19.8172   -5.7435    3.5079 N   0  0  0  0  0  0  0  0  0  0  0  0
  -23.0831   -5.1955    0.9074 N   0  0  0  0  0  0  0  0  0  0  0  0
  -14.5954   -6.0856    5.0325 C   0  0  0  0  0  0  0  0  0  0  0  0
  -24.8101   -5.5255    2.1452 N   0  0  0  0  0  0  0  0  0  0  0  0
  -18.9795   -7.9153    3.3772 C   0  0  0  0  0  0  0  0  0  0  0  0
  -21.7456   -1.6648    4.0528 C   0  0  0  0  0  0  0  0  0  0  0  0
  -13.5798   -5.8761    5.5931 O   0  0  0  0  0  0  0  0  0  0  0  0
  -20.5240   -3.6766    3.5629 C   0  0  0  0  0  0  0  0  0  0  0  0
  -23.2237   -7.2955    2.3453 N   0  0  0  0  0  0  0  0  0  0  0  0
  -23.7988   -8.1606    3.2124 C   0  0  0  0  0  0  0  0  0  0  0  0
  -21.5968   -9.0050    3.5839 C   0  0  0  0  0  0  0  0  0  0  0  0
  -26.0381   -6.9991    3.2201 C   0  0  0  0  0  0  0  0  0  0  0  0
  -21.6315   -3.7941    2.5742 N   0  0  0  0  0  0  0  0  0  0  0  0
  5  4  1  0
  6  4  1  0
  9  5  2  0
 10  2  2  0
 12 11  1  0
 15  3  1  0
 15 12  1  0
 16  7  1  0
 16 12  1  0
 17  4  1  0
 17 14  1  0
 18  3  3  0
 19  8  1  0
 19 14  1  0
 20  7  1  0
 21  1  1  0
 22 18  1  0
 23  1  1  0
 23 12  1  0
 24  8  1  0
 25  2  1  0
 25 13  1  0
 25 24  2  0
 26 13  1  0
 27  8  2  0
 27 10  1  0
 28  5  1  0
 28 23  1  0
M  END
>  <ID>  (1) 
conformer_0

$$$$
