
     RDKit          3D

 29 31  0  0  0  0  0  0  0  0999 V2000
  -15.4731   -6.0276    4.7601 C   0  0  0  0  0  3  0  0  0  0  0  0
  -25.6432   -7.1553    2.7578 C   0  0  0  0  0  0  0  0  0  0  0  0
  -21.9815   -3.3948    4.8936 C   0  0  0  0  0  0  0  0  0  0  0  0
  -23.4756   -4.4160    0.4911 C   0  0  1  0  0  0  0  0  0  0  0  0
  -24.6344   -6.9782    2.4111 C   0  0  0  0  0  0  0  0  0  0  0  0
  -16.5517   -5.8115    4.1864 C   0  0  0  0  0  0  0  0  0  0  0  0
  -21.2693   -3.2066    2.4974 C   0  0  1  0  0  0  0  0  0  0  0  0
  -24.4517   -5.6285    1.0419 C   0  0  2  0  0  0  0  0  0  0  0  0
  -19.3229   -6.5537    3.7827 C   0  0  0  0  0  0  0  0  0  0  0  0
  -21.0227   -2.3731    1.0476 O   0  0  0  0  0  0  0  0  0  0  0  0
  -21.8561   -8.2797    5.3676 O   0  0  0  0  0  0  0  0  0  0  0  0
  -19.4873   -4.1407    5.2872 O   0  0  0  0  0  0  0  0  0  0  0  0
  -20.1541   -4.3116    4.2300 C   0  0  0  0  0  0  0  0  0  0  0  0
  -26.2779   -8.2260    3.4087 C   0  0  0  0  0  0  0  0  0  0  0  0
  -23.1871   -5.5045    1.1950 N   0  0  0  0  0  0  0  0  0  0  0  0
  -14.4112   -6.2072    4.8857 C   0  0  0  0  0  0  0  0  0  0  0  0
  -19.2290   -8.0233    3.3488 C   0  0  0  0  0  0  0  0  0  0  0  0
  -22.2298   -8.4232    3.4006 N   0  0  0  0  0  0  0  0  0  0  0  0
  -22.2021   -4.0080   -0.9307 C   0  0  0  0  0  0  0  0  0  0  0  0
  -19.6436   -5.2923    3.6926 N   0  0  0  0  0  0  0  0  0  0  0  0
  -13.3130   -5.5496    5.5224 O   0  0  0  0  0  0  0  0  0  0  0  0
  -21.6160   -1.9091    4.2172 C   0  0  0  0  0  0  0  0  0  0  0  0
  -21.4970   -3.5199    2.5394 N   0  0  0  0  0  0  0  0  0  0  0  0
  -22.0712   -3.6187    0.5735 C   0  0  2  0  0  0  0  0  0  0  0  0
  -23.8327   -8.3679    3.3219 C   0  0  0  0  0  0  0  0  0  0  0  0
  -21.4852   -8.4862    4.1022 C   0  0  0  0  0  0  0  0  0  0  0  0
  -13.5273   -6.7640    4.6335 O   0  0  0  0  0  0  0  0  0  0  0  0
  -25.0306   -9.0272    3.5142 C   0  0  0  0  0  0  0  0  0  0  0  0
  -17.6790   -6.7141    3.5622 C   0  0  0  0  0  0  0  0  0  0  0  0
  5  2  2  0
  6  1  2  3
  8  4  1  0
  8  5  1  0
 10  7  1  0
 13  3  1  0
 13 12  2  0
 14  2  1  0
 15  4  1  0
  8 15  1  6
 16  1  1  0
 17  9  1  0
  4 19  1  6
 20  9  2  3
 20 13  1  0
 21 16  1  0
 22  3  1  0
 22  7  1  0
  7 23  1  6
 24  4  1  0
 24 10  1  6
 24 19  1  0
 25  5  1  0
 25 18  1  0
 26 11  1  0
 26 18  1  0
 27 16  2  0
 28 14  1  0
 28 25  2  0
 29  6  1  0
 29  9  1  0
M  RAD  1   1   2
M  END
>  <ID>  (1) 
conformer_0

$$$$
