
     RDKit          3D

 30 32  0  0  0  0  0  0  0  0999 V2000
  -25.5672   -7.2634    2.4243 C   0  0  0  0  0  0  0  0  0  0  0  0
  -22.4384   -2.8415    5.1527 C   0  0  0  0  0  0  0  0  0  0  0  0
  -15.8272   -5.9809    4.5818 C   0  0  0  0  0  0  0  0  0  0  0  0
  -24.1086   -5.5090    1.2102 C   0  0  2  0  0  0  0  0  0  0  0  0
  -22.5525   -3.6835    0.3767 C   0  0  1  0  0  0  0  0  0  0  0  0
  -17.0846   -6.2860    4.2682 C   0  0  0  0  0  0  0  0  0  0  0  0
  -23.6833   -8.2922    3.3065 C   0  0  0  0  0  0  0  0  0  0  0  0
  -20.9495   -2.4699    1.0568 O   0  0  0  0  0  0  0  0  0  0  0  0
  -20.6058   -3.9015    3.5002 C   0  0  1  0  0  0  0  0  0  0  0  0
  -19.1056   -4.4826    5.0300 O   0  0  0  0  0  0  0  0  0  0  0  0
  -24.1629   -4.2385    0.2961 C   0  0  0  0  0  0  0  0  0  0  0  0
  -21.9083   -9.0694    3.9660 C   0  0  0  0  0  0  0  0  0  0  0  0
  -26.0997   -7.9706    3.5758 C   0  0  0  0  0  0  0  0  0  0  0  0
  -22.2284   -3.9189   -1.2967 C   0  0  0  0  0  0  0  0  0  0  0  0
  -21.0247   -7.8024    5.1402 O   0  0  0  0  0  0  0  0  0  0  0  0
  -23.3327   -4.9021    1.0715 N   0  0  0  0  0  0  0  0  0  0  0  0
  -19.9102   -5.3898    3.4415 N   0  0  0  0  0  0  0  0  0  0  0  0
  -22.0706   -1.3168    4.0785 C   0  0  0  0  0  0  0  0  0  0  0  0
  -21.9136   -8.7210    3.6019 N   0  0  0  0  0  0  0  0  0  0  0  0
  -13.3728   -5.6468    5.5048 O   0  0  0  0  0  0  0  0  0  0  0  0
  -18.7763   -7.5793    3.6585 C   0  0  0  0  0  0  0  0  0  0  0  0
  -14.5473   -5.9952    4.9227 C   0  0  0  0  0  0  0  0  0  0  0  0
  -21.6408   -3.5137    2.0101 C   0  0  0  0  0  0  0  0  0  0  0  0
  -24.6264   -6.8406    2.2965 C   0  0  2  0  0  0  0  0  0  0  0  0
  -21.7471   -3.8079    2.5056 N   0  0  0  0  0  0  0  0  0  0  0  0
  -23.1336   -6.9148    2.0657 N   0  0  0  0  0  0  0  0  0  0  0  0
  -24.7865   -8.6045    3.7986 C   0  0  0  0  0  0  0  0  0  0  0  0
  -20.0329   -7.6241    3.8257 C   0  0  0  0  0  0  0  0  0  0  0  0
  -21.2964   -2.6807    4.1804 C   0  0  0  0  0  0  0  0  0  0  0  0
  -18.9623   -5.6725    4.1568 C   0  0  1  0  0  0  0  0  0  0  0  0
  6  3  1  0
 11  5  1  0
 13  1  1  0
  5 14  1  6
  4 16  1  1
 16  5  1  0
 16 11  1  0
  9 17  1  1
 18  2  1  0
 19  7  1  0
 19 12  1  0
 22  3  3  0
 22 20  1  0
 23  5  1  0
 23  8  2  0
 24  1  1  6
 24  4  1  0
 25  9  1  0
 25 23  1  0
 26  4  1  0
 26 24  1  0
 27  7  2  3
 27 13  1  0
 28 15  1  0
 28 21  1  0
 29  2  1  0
 29  9  1  0
 29 18  1  0
 30  6  1  0
 30 10  1  1
 30 17  1  0
 30 21  1  0
M  END
>  <ID>  (1) 
conformer_0

$$$$
