
     RDKit          3D

 27 27  0  0  0  0  0  0  0  0999 V2000
  -15.9947   -6.3094    4.7929 C   0  0  0  0  0  0  0  0  0  0  0  0
  -25.8827   -7.3732    3.1832 C   0  0  0  0  0  0  0  0  0  0  0  0
  -21.6424   -3.3057    4.5586 C   0  0  0  0  0  0  0  0  0  0  0  0
  -22.9743   -4.1472   -0.0829 C   0  0  0  0  0  0  0  0  0  0  0  0
  -19.2601   -5.1121    3.9357 C   0  0  0  0  0  0  0  0  0  0  0  0
  -23.8600   -8.3402    3.4365 C   0  0  0  0  0  0  0  0  0  0  0  0
  -21.2799   -2.3523    1.3122 O   0  0  0  0  0  0  0  0  0  0  0  0
  -21.7957   -8.8918    3.9390 C   0  0  0  0  0  0  0  0  0  0  0  0
  -19.1703   -3.8765    5.0796 O   0  0  0  0  0  0  0  0  0  0  0  0
  -24.1011   -5.2107    1.0247 C   0  0  0  0  0  0  0  0  0  0  0  0
  -17.0399   -6.0312    4.2233 C   0  0  0  0  0  0  0  0  0  0  0  0
  -22.2256   -4.0877   -1.2339 C   0  0  0  0  0  0  0  0  0  0  0  0
  -19.8253   -7.1008    3.5964 C   0  0  0  0  0  0  0  0  0  0  0  0
  -21.2532   -7.7072    5.2592 O   0  0  0  0  0  0  0  0  0  0  0  0
  -14.6525   -6.3193    4.9958 C   0  0  0  0  0  0  0  0  0  0  0  0
  -23.1964   -4.9712    0.7705 N   0  0  0  0  0  0  0  0  0  0  0  0
  -21.0738   -8.1775    3.4430 N   0  0  0  0  0  0  0  0  0  0  0  0
  -25.4684   -8.4010    3.7511 C   0  0  0  0  0  0  0  0  0  0  0  0
  -24.7349   -5.6011    2.1728 N   0  0  0  0  0  0  0  0  0  0  0  0
  -20.0609   -5.3980    3.3824 N   0  0  0  0  0  0  0  0  0  0  0  0
  -21.6648   -1.7441    3.9863 C   0  0  0  0  0  0  0  0  0  0  0  0
  -13.5942   -6.0713    5.4762 O   0  0  0  0  0  0  0  0  0  0  0  0
  -22.1514   -3.3047    1.1710 C   0  0  0  0  0  0  0  0  0  0  0  0
  -20.6369   -3.3941    3.4417 C   0  0  0  0  0  0  0  0  0  0  0  0
  -23.2742   -7.5698    2.4253 N   0  0  0  0  0  0  0  0  0  0  0  0
  -24.7055   -6.6610    2.5542 C   0  0  0  0  0  0  0  0  0  0  0  0
  -18.0871   -6.9161    3.4890 C   0  0  0  0  0  0  0  0  0  0  0  0
  8  6  1  0
  9  5  1  0
 11  1  1  0
 12  4  1  0
 14  8  1  0
 15  1  3  0
 16  4  1  0
 16 10  1  0
 17  8  1  0
 17 13  1  0
 18  2  2  0
 18  6  1  0
 19 10  1  0
 20  5  1  0
 20 13  1  0
 21  3  1  0
 22 15  1  0
 23  4  1  0
 23  7  1  0
 24  3  1  0
 24  9  1  0
 25  6  2  0
 26  2  1  0
 26 19  1  0
 26 25  1  0
 27 11  1  0
 27 13  1  0
M  END
>  <ID>  (1) 
conformer_0

$$$$
