
     RDKit          3D

 25 24  0  0  0  0  0  0  0  0999 V2000
  -26.0396   -8.2456    3.7468 C   0  0  0  0  0  0  0  0  0  0  0  0
  -21.3214   -1.9808    4.0226 C   0  0  0  0  0  0  0  0  0  0  0  0
  -16.0427   -5.7780    4.5533 C   0  0  0  0  0  0  0  0  0  0  0  0
  -23.9762   -4.9965    0.7163 C   0  0  1  0  0  0  0  0  0  0  0  0
  -20.1190   -3.7574    3.6719 C   0  0  0  0  0  0  0  0  0  0  0  0
  -24.6274   -8.4884    3.6389 C   0  0  0  0  0  0  0  0  0  0  0  0
  -23.6434   -8.2493    3.2943 C   0  0  0  0  0  0  0  0  0  0  0  0
  -17.1933   -6.1470    4.1957 C   0  0  0  0  0  0  0  0  0  0  0  0
  -21.0114   -2.4762    0.9956 O   0  0  0  0  0  0  0  0  0  0  0  0
  -19.3110   -6.1209    4.0267 C   0  0  2  0  0  0  0  0  0  0  0  0
  -21.2981   -8.5768    4.0090 C   0  0  0  0  0  0  0  0  0  0  0  0
  -21.4969   -3.7316    1.5842 C   0  0  0  0  0  0  0  0  0  0  0  0
  -23.2299   -5.2407    0.9625 N   0  0  0  0  0  0  0  0  0  0  0  0
  -14.7053   -6.1801    4.9748 C   0  0  0  0  0  0  0  0  0  0  0  0
  -21.8076   -2.5068    4.5064 C   0  0  0  0  0  0  0  0  0  0  0  0
  -20.6551   -7.3159    5.1779 O   0  0  0  0  0  0  0  0  0  0  0  0
  -13.3880   -5.5982    5.5292 O   0  0  0  0  0  0  0  0  0  0  0  0
  -18.7451   -7.5659    3.5626 C   0  0  0  0  0  0  0  0  0  0  0  0
  -22.0277   -3.9812   -1.3036 C   0  0  0  0  0  0  0  0  0  0  0  0
  -20.0492   -4.9691    3.2052 N   0  0  0  0  0  0  0  0  0  0  0  0
  -24.5906   -5.9079    1.8236 N   0  0  0  0  0  0  0  0  0  0  0  0
  -21.6880   -8.5428    3.7225 N   0  0  0  0  0  0  0  0  0  0  0  0
  -25.8883   -7.0663    2.8918 C   0  0  0  0  0  0  0  0  0  0  0  0
  -22.8206   -3.7074    0.0424 C   0  0  1  0  0  0  0  0  0  0  0  0
  -24.5996   -6.6797    2.3088 C   0  0  0  0  0  0  0  0  0  0  0  0
  5  2  1  0
  6  1  2  3
  7  6  1  0
  8  3  1  0
 10  8  1  0
 12  9  1  0
  4 13  1  6
 14  3  2  3
 15  2  1  0
 16 10  1  0
 16 11  1  0
 17 14  1  0
 10 18  1  6
 20  5  1  0
 20 10  1  0
 21  4  1  0
 22  7  1  0
 22 11  1  0
 23  1  1  0
 24  4  1  0
 24 12  1  0
 24 19  1  6
 25 21  1  0
 25 23  2  3
M  END
>  <ID>  (1) 
conformer_0

$$$$
