
     RDKit          3D

 28 29  0  0  0  0  0  0  0  0999 V2000
  -15.7157   -6.0061    4.4922 C   0  0  0  0  0  0  0  0  0  0  0  0
  -20.9535   -1.2661    3.8105 C   0  0  0  0  0  0  0  0  0  0  0  0
  -24.2586   -5.4491    1.1114 C   0  0  0  0  0  0  0  0  0  0  0  0
  -25.9030   -7.4081    3.2139 C   0  0  0  0  0  0  0  0  0  0  0  0
  -22.0659   -3.8853    0.8562 C   0  0  0  0  0  0  0  0  0  0  0  0
  -16.8393   -6.1736    4.1369 C   0  0  0  0  0  0  0  0  0  0  0  0
  -23.7734   -8.2831    3.3221 C   0  0  0  0  0  0  0  0  0  0  0  0
  -21.0490   -3.3142    2.9370 C   0  0  0  0  0  0  0  0  0  0  0  0
  -21.2978   -2.6174    0.9306 O   0  0  0  0  0  0  0  0  0  0  0  0
  -21.9661   -2.3745    4.3434 C   0  0  0  0  0  0  0  0  0  0  0  0
  -23.7191   -4.3719    0.0773 C   0  0  0  0  0  0  0  0  0  0  0  0
  -21.7713   -9.0128    3.8036 C   0  0  0  0  0  0  0  0  0  0  0  0
  -18.9676   -4.0273    4.9009 O   0  0  0  0  0  0  0  0  0  0  0  0
  -18.4717   -7.2641    3.8569 C   0  0  0  0  0  0  0  0  0  0  0  0
  -22.0109   -4.1223   -1.1698 C   0  0  0  0  0  0  0  0  0  0  0  0
  -21.7442   -8.9140    4.7500 O   0  0  0  0  0  0  0  0  0  0  0  0
  -14.3760   -6.0548    5.0751 C   0  0  0  0  0  0  0  0  0  0  0  0
  -13.3678   -5.8235    5.4602 O   0  0  0  0  0  0  0  0  0  0  0  0
  -23.1950   -4.8866    1.0554 N   0  0  0  0  0  0  0  0  0  0  0  0
  -25.6426   -4.2752    0.6407 O   0  0  0  0  0  0  0  0  0  0  0  0
  -20.1865   -4.8922    3.0653 N   0  0  0  0  0  0  0  0  0  0  0  0
  -19.7606   -4.3475    3.8043 C   0  0  0  0  0  0  0  0  0  0  0  0
  -24.8553   -6.7323    2.4532 C   0  0  0  0  0  0  0  0  0  0  0  0
  -25.1092   -8.6457    3.6569 C   0  0  0  0  0  0  0  0  0  0  0  0
  -19.3653   -6.6770    3.8206 C   0  0  0  0  0  0  0  0  0  0  0  0
  -21.8236   -8.8001    3.3394 N   0  0  0  0  0  0  0  0  0  0  0  0
  -23.2077   -7.2436    2.1324 N   0  0  0  0  0  0  0  0  0  0  0  0
  -22.0356   -3.5213    4.8389 C   0  0  0  0  0  0  0  0  0  0  0  0
  6  1  1  0
  9  5  2  0
 10  2  1  0
 10  8  1  0
 11  3  1  0
 12  7  1  0
 14  6  1  0
 14 12  1  0
 15  5  1  0
 16 12  1  0
 17  1  3  0
 18 17  1  0
 19  3  1  0
 19  5  1  0
 19 11  1  0
 20  3  1  0
 21  8  1  0
 22 13  1  0
 22 21  1  0
 23  3  1  0
 23  4  2  0
 24  4  1  0
 24  7  1  0
 25 14  1  0
 25 22  1  0
 26 12  1  0
 27  7  2  0
 27 23  1  0
 28 10  1  0
M  END
>  <ID>  (1) 
conformer_0

$$$$
