
     RDKit          3D

 25 24  0  0  0  0  0  0  0  0999 V2000
  -21.8732   -2.8611    4.2544 C   0  0  2  0  0  0  0  0  0  0  0  0
  -18.1688   -6.9742    3.4960 C   0  0  0  0  0  0  0  0  0  0  0  0
  -24.9180   -8.9156    3.5107 C   0  0  0  0  0  0  0  0  0  0  0  0
  -24.2891   -4.8350    0.9656 C   0  0  1  0  0  0  0  0  0  0  0  0
  -21.5411   -3.4032    2.2439 C   0  0  2  0  0  0  0  0  0  0  0  0
  -24.3312   -7.0018    2.2996 C   0  0  0  0  0  0  0  0  0  0  0  0
  -19.3630   -6.9226    3.9936 C   0  0  0  0  0  0  0  0  0  0  0  0
  -21.1545   -2.2868    1.2345 O   0  0  0  0  0  0  0  0  0  0  0  0
  -24.9671   -3.4583    1.3087 O   0  0  0  0  0  0  0  0  0  0  0  0
  -16.6765   -6.1507    4.3582 C   0  0  0  0  0  0  0  0  0  0  0  0
  -22.8383   -3.8650    0.5050 C   0  0  1  0  0  0  0  0  0  0  0  0
  -21.9702   -1.6493    4.0985 C   0  0  0  0  0  0  0  0  0  0  0  0
  -15.0466   -6.1764    4.7461 C   0  0  0  0  0  0  0  0  0  0  0  0
  -22.3791   -4.0591   -1.0615 C   0  0  0  0  0  0  0  0  0  0  0  0
  -18.9812   -4.2127    4.8285 O   0  0  0  0  0  0  0  0  0  0  0  0
  -21.5535   -8.8987    3.9732 C   0  0  0  0  0  0  0  0  0  0  0  0
  -20.7592   -7.7286    5.1349 O   0  0  0  0  0  0  0  0  0  0  0  0
  -20.0400   -5.3024    3.4102 N   0  0  0  0  0  0  0  0  0  0  0  0
  -13.5421   -5.8418    5.3824 O   0  0  0  0  0  0  0  0  0  0  0  0
  -24.1891   -5.8971    1.9661 N   0  0  0  0  0  0  0  0  0  0  0  0
  -25.4942   -7.7160    2.9888 C   0  0  0  0  0  0  0  0  0  0  0  0
  -23.4438   -8.6294    3.2732 C   0  0  0  0  0  0  0  0  0  0  0  0
  -23.2104   -5.4686    1.1184 N   0  0  0  0  0  0  0  0  0  0  0  0
  -20.0265   -4.0454    3.9853 C   0  0  0  0  0  0  0  0  0  0  0  0
  -20.7914   -8.6427    3.7128 N   0  0  0  0  0  0  0  0  0  0  0  0
  5  1  1  0
  7  2  1  0
  5  8  1  6
  4  9  1  1
 10  2  1  0
 11  4  1  0
 11  5  1  0
  1 12  1  6
 13 10  1  0
 11 14  1  6
 18  7  1  0
 19 13  1  0
 20  6  1  0
 21  3  1  0
 21  6  2  3
 22  3  1  0
 22 16  2  3
 23  4  1  0
 23 20  1  0
 24  1  1  0
 24 15  2  0
 24 18  1  0
 25 16  1  0
 25 17  1  0
M  END
>  <ID>  (1) 
conformer_0

$$$$
