
     RDKit          3D

 24 24  0  0  0  0  0  0  0  0999 V2000
  -22.2772   -2.5890    4.9790 C   0  0  0  0  0  0  0  0  0  0  0  0
  -25.8936   -7.6394    2.3874 C   0  0  0  0  0  0  0  0  0  0  0  0
  -15.7940   -6.2145    4.4319 C   0  0  0  0  0  0  0  0  0  0  0  0
  -24.2031   -5.4528    1.0968 C   0  0  0  0  0  0  0  0  0  0  0  0
  -21.6767   -3.7432    1.9528 C   0  0  0  0  0  0  0  0  0  0  0  0
  -17.1436   -6.2918    4.1105 C   0  0  0  0  0  0  0  0  0  0  0  0
  -24.1519   -8.7623    3.0250 C   0  0  0  0  0  0  0  0  0  0  0  0
  -20.2614   -3.6551    3.8608 C   0  0  0  0  0  0  0  0  0  0  0  0
  -21.3003   -2.7395    1.1888 O   0  0  0  0  0  0  0  0  0  0  0  0
  -22.0933   -4.2151   -0.8923 C   0  0  0  0  0  0  0  0  0  0  0  0
  -21.2809   -8.7169    3.8061 C   0  0  0  0  0  0  0  0  0  0  0  0
  -23.1530   -4.2206    0.6507 C   0  0  0  0  0  0  0  0  0  0  0  0
  -20.6312   -7.4730    5.0891 O   0  0  0  0  0  0  0  0  0  0  0  0
  -14.4246   -6.2997    4.8793 C   0  0  0  0  0  0  0  0  0  0  0  0
  -21.5488   -1.7375    4.5648 C   0  0  0  0  0  0  0  0  0  0  0  0
  -13.3808   -5.4973    5.6063 O   0  0  0  0  0  0  0  0  0  0  0  0
  -25.7519   -8.4959    3.2836 C   0  0  0  0  0  0  0  0  0  0  0  0
  -20.6054   -4.5577    3.2437 N   0  0  0  0  0  0  0  0  0  0  0  0
  -23.1962   -5.1642    1.2011 N   0  0  0  0  0  0  0  0  0  0  0  0
  -18.4806   -7.4413    3.7497 C   0  0  0  0  0  0  0  0  0  0  0  0
  -19.4573   -6.1930    4.0066 C   0  0  0  0  0  0  0  0  0  0  0  0
  -21.7853   -8.6535    3.5419 N   0  0  0  0  0  0  0  0  0  0  0  0
  -24.6529   -7.1572    1.9115 C   0  0  0  0  0  0  0  0  0  0  0  0
  -23.4852   -7.7031    1.7615 N   0  0  0  0  0  0  0  0  0  0  0  0
  6  3  2  0
  9  5  2  0
 12  5  1  0
 12 10  1  0
 13 11  1  0
 14  3  2  0
 15  1  1  0
 15  8  1  0
 16 14  1  0
 17  2  2  0
 17  7  1  0
 18  5  1  0
 18  8  1  0
 19  4  1  0
 19 12  1  0
 20  6  1  0
 21  8  1  0
 21 13  1  0
 21 20  1  0
 22 11  1  0
 23  2  1  0
 23  4  1  0
 24  7  2  0
 24 23  1  0
M  END
>  <ID>  (1) 
conformer_0

$$$$
