
     RDKit          3D

 28 28  0  0  0  0  0  0  0  0999 V2000
  -16.0509   -5.9124    4.6072 C   0  0  0  0  0  0  0  0  0  0  0  0
  -22.5166   -2.0358    4.5273 C   0  0  0  0  0  0  0  0  0  0  0  0
  -25.8569   -7.4724    2.7802 C   0  0  0  0  0  0  0  0  0  0  0  0
  -22.8576   -3.8899    0.0116 C   0  0  0  0  0  0  0  0  0  0  0  0
  -21.8221   -3.5787    1.4144 C   0  0  0  0  0  0  0  0  0  0  0  0
  -22.0584   -4.1763   -1.3449 C   0  0  0  0  0  0  0  0  0  0  0  0
  -23.9902   -8.5933    3.2337 C   0  0  0  0  0  0  0  0  0  0  0  0
  -19.5181   -7.2379    3.8733 C   0  0  0  0  0  0  0  0  0  0  0  0
  -21.1054   -2.7076    1.2241 O   0  0  0  0  0  0  0  0  0  0  0  0
  -17.2084   -6.1480    3.9741 C   0  0  0  0  0  0  0  0  0  0  0  0
  -19.7573   -4.8108    4.0906 C   0  0  0  0  0  0  0  0  0  0  0  0
  -19.4647   -4.2533    5.2145 O   0  0  0  0  0  0  0  0  0  0  0  0
  -21.4433   -8.1584    5.2916 O   0  0  0  0  0  0  0  0  0  0  0  0
  -19.1074   -7.8432    3.4164 C   0  0  0  0  0  0  0  0  0  0  0  0
  -21.7269   -1.3812    3.6994 C   0  0  0  0  0  0  0  0  0  0  0  0
  -23.0296   -5.0983    0.7648 N   0  0  0  0  0  0  0  0  0  0  0  0
  -13.6774   -6.3008    5.2771 O   0  0  0  0  0  0  0  0  0  0  0  0
  -19.8892   -5.5473    3.5363 N   0  0  0  0  0  0  0  0  0  0  0  0
  -14.8061   -6.1067    5.0880 C   0  0  0  0  0  0  0  0  0  0  0  0
  -23.9437   -5.1772    0.9976 C   0  0  0  0  0  0  0  0  0  0  0  0
  -24.3948   -5.9857    1.8855 N   0  0  0  0  0  0  0  0  0  0  0  0
  -23.5966   -7.9335    2.2129 N   0  0  0  0  0  0  0  0  0  0  0  0
  -21.7101   -8.1815    3.4213 N   0  0  0  0  0  0  0  0  0  0  0  0
  -24.6091   -6.9168    2.2737 C   0  0  0  0  0  0  0  0  0  0  0  0
  -20.9744   -3.5861    3.3876 C   0  0  0  0  0  0  0  0  0  0  0  0
  -25.4341   -8.6206    3.4768 C   0  0  0  0  0  0  0  0  0  0  0  0
  -21.9098   -8.7838    4.2069 C   0  0  0  0  0  0  0  0  0  0  0  0
  -21.7957   -3.4183    4.5050 C   0  0  0  0  0  0  0  0  0  0  0  0
  5  4  1  0
  6  4  1  0
  9  5  2  0
 10  1  1  0
 10  8  1  0
 12 11  2  0
 14  8  1  0
 15  2  1  0
 16  4  1  0
 18  8  1  0
 18 11  1  0
 19  1  3  0
 19 17  1  0
 20 16  1  0
 21 20  1  0
 22  7  2  0
 24  3  2  0
 24 21  1  0
 24 22  1  0
 25  5  1  0
 25 11  1  0
 26  3  1  0
 26  7  1  0
 27 13  1  0
 27 14  1  0
 27 23  1  0
 28  2  1  0
 28 25  1  0
M  END
>  <ID>  (1) 
conformer_0

$$$$
