
     RDKit          3D

 22 21  0  0  0  0  0  0  0  0999 V2000
  -21.9621   -1.8393    4.1944 C   0  0  0  0  0  0  0  0  0  0  0  0
  -15.9437   -6.0958    4.5426 C   0  0  0  0  0  0  0  0  0  0  0  0
  -23.3768   -3.7442    0.1009 C   0  0  0  0  0  0  0  0  0  0  0  0
  -25.8109   -8.1217    3.6171 C   0  0  0  0  0  0  0  0  0  0  0  0
  -20.3317   -3.8711    3.6575 C   0  0  1  0  0  0  0  0  0  0  0  0
  -17.2592   -6.1930    3.9012 C   0  0  0  0  0  0  0  0  0  0  0  0
  -19.9664   -8.0850    3.6709 C   0  0  0  0  0  0  0  0  0  0  0  0
  -24.5383   -7.7193    3.1034 C   0  0  0  0  0  0  0  0  0  0  0  0
  -22.2811   -3.9830   -1.4719 C   0  0  0  0  0  0  0  0  0  0  0  0
  -20.9882   -2.7084    1.0447 O   0  0  0  0  0  0  0  0  0  0  0  0
  -19.4880   -4.5197    5.2160 O   0  0  0  0  0  0  0  0  0  0  0  0
  -23.8668   -5.2664    1.1988 C   0  0  0  0  0  0  0  0  0  0  0  0
  -21.2495   -7.9001    5.2143 O   0  0  0  0  0  0  0  0  0  0  0  0
  -14.7250   -6.4693    4.9227 C   0  0  0  0  0  0  0  0  0  0  0  0
  -20.3952   -4.3781    3.0829 N   0  0  0  0  0  0  0  0  0  0  0  0
  -22.0734   -2.7951    4.6461 C   0  0  0  0  0  0  0  0  0  0  0  0
  -23.0971   -5.4633    1.4294 N   0  0  0  0  0  0  0  0  0  0  0  0
  -21.7800   -3.9017    1.5008 C   0  0  0  0  0  0  0  0  0  0  0  0
  -18.4310   -6.9176    3.5882 C   0  0  0  0  0  0  0  0  0  0  0  0
  -24.2621   -6.9466    2.3682 N   0  0  0  0  0  0  0  0  0  0  0  0
  -21.8785   -8.6968    3.6762 C   0  0  2  0  0  0  0  0  0  0  0  0
  -21.0916   -8.1458    3.3790 N   0  0  0  0  0  0  0  0  0  0  0  0
  6  2  1  0
  8  4  1  0
  9  3  1  0
  5 11  1  1
 12  3  1  0
 14  2  1  0
 15  5  1  0
 16  1  1  0
 16  5  1  0
 17 12  1  0
 18 10  2  0
 18 15  1  0
 18 17  1  0
 19  6  2  0
 19  7  2  0
 20  8  2  3
 20 12  1  0
 21  8  1  0
 21 13  1  1
 22  7  1  0
 22 21  1  0
M  END
>  <ID>  (1) 
conformer_0

$$$$
