
     RDKit          3D

 28 27  0  0  0  0  0  0  0  0999 V2000
  -15.9492   -6.1075    4.6992 C   0  0  0  0  0  0  0  0  0  0  0  0
  -24.8803   -8.6484    3.9961 C   0  0  0  0  0  0  0  0  0  0  0  0
  -22.2623   -2.5323    4.6116 C   0  0  0  0  0  0  0  0  0  0  0  0
  -24.3626   -5.0116    1.2135 C   0  0  1  0  0  0  0  0  0  0  0  0
  -19.0025   -5.3759    4.1288 C   0  0  2  0  0  0  0  0  0  0  0  0
  -23.3772   -8.4158    3.4814 C   0  0  0  0  0  0  0  0  0  0  0  0
  -19.9140   -7.4050    3.6315 C   0  0  0  0  0  0  0  0  0  0  0  0
  -17.0004   -6.2257    4.0013 C   0  0  0  0  0  0  0  0  0  0  0  0
  -21.2956   -2.2495    1.1017 O   0  0  0  0  0  0  0  0  0  0  0  0
  -23.2324   -4.1099    0.5251 C   0  0  2  0  0  0  0  0  0  0  0  0
  -20.5947   -3.2682    3.6888 C   0  0  2  0  0  0  0  0  0  0  0  0
  -22.1428   -4.1907   -0.8525 C   0  0  0  0  0  0  0  0  0  0  0  0
  -25.4995   -7.6806    3.4308 C   0  0  0  0  0  0  0  0  0  0  0  0
  -19.3133   -3.9045    4.9277 O   0  0  0  0  0  0  0  0  0  0  0  0
  -14.7557   -6.4414    4.8026 C   0  0  0  0  0  0  0  0  0  0  0  0
  -19.7014   -5.2114    3.5014 N   0  0  0  0  0  0  0  0  0  0  0  0
  -23.3679   -5.4690    1.3562 N   0  0  0  0  0  0  0  0  0  0  0  0
  -20.3905   -7.3579    5.0351 O   0  0  0  0  0  0  0  0  0  0  0  0
  -22.0177   -8.6028    3.7138 N   0  0  0  0  0  0  0  0  0  0  0  0
  -21.4128   -1.8175    4.0615 C   0  0  0  0  0  0  0  0  0  0  0  0
  -21.4868   -9.0764    3.8617 C   0  0  0  0  0  0  0  0  0  0  0  0
  -18.3973   -7.2858    3.4277 C   0  0  2  0  0  0  0  0  0  0  0  0
  -13.3839   -6.0473    5.3014 O   0  0  0  0  0  0  0  0  0  0  0  0
  -24.8899   -5.8479    2.2140 N   0  0  0  0  0  0  0  0  0  0  0  0
  -24.4061   -6.9254    2.5830 C   0  0  0  0  0  0  0  0  0  0  0  0
  -14.2191   -7.5393    5.0606 O   0  0  0  0  0  0  0  0  0  0  0  0
  -21.9306   -3.4781    1.2770 C   0  0  0  0  0  0  0  0  0  0  0  0
  -21.3648   -3.5749    2.8331 N   0  0  0  0  0  0  0  0  0  0  0  0
  6  2  1  0
  8  1  1  0
 10  4  1  0
 10 12  1  6
 13  2  1  0
 14  5  1  0
 14 11  1  0
 15  1  1  0
  5 16  1  1
  4 17  1  6
 18  7  1  0
 19  6  1  0
 20  3  1  0
 11 20  1  1
 21 19  2  3
 22  5  1  0
 22  7  1  1
 22  8  1  0
 23 15  1  0
 24  4  1  0
 25 13  2  3
 25 24  1  0
 26 15  2  0
 27  9  2  0
 27 10  1  0
 28 11  1  0
 28 27  1  0
M  END
>  <ID>  (1) 
conformer_0

$$$$
