
     RDKit          3D

 30 29  0  0  0  0  0  0  0  0999 V2000
  -26.3054   -8.6144    3.5491 C   0  0  0  0  0  0  0  0  0  0  0  0
  -15.7605   -6.0266    4.4892 C   0  0  0  0  0  0  0  0  0  0  0  0
  -22.2410   -2.7432    4.9489 C   0  0  0  0  0  0  0  0  0  0  0  0
  -23.9327   -5.3103    1.2286 C   0  0  1  0  0  0  0  0  0  0  0  0
  -21.7192   -4.2044    2.0100 C   0  0  2  0  0  0  0  0  0  0  0  0
  -17.0617   -6.0809    4.0064 C   0  0  0  0  0  0  0  0  0  0  0  0
  -25.0444   -6.8101    2.5703 C   0  0  0  0  0  0  0  0  0  0  0  0
  -19.2188   -4.2489    5.4214 O   0  0  0  0  0  0  0  0  0  0  0  0
  -22.7404   -4.1741   -0.9353 C   0  0  0  0  0  0  0  0  0  0  0  0
  -20.6449   -3.7279    3.6346 C   0  0  1  0  0  0  0  0  0  0  0  0
  -21.1478   -2.6867    1.0545 O   0  0  0  0  0  0  0  0  0  0  0  0
  -25.0399   -9.0089    3.4149 C   0  0  0  0  0  0  0  0  0  0  0  0
  -21.7520   -9.1538    3.8664 C   0  0  0  0  0  0  0  0  0  0  0  0
  -14.3215   -6.2804    4.9205 C   0  0  0  0  0  0  0  0  0  0  0  0
  -21.4332   -2.0522    4.4500 C   0  0  0  0  0  0  0  0  0  0  0  0
  -19.2657   -5.2639    4.0200 C   0  0  0  0  0  0  0  0  0  0  0  0
  -23.4505   -8.1574    2.3388 N   0  0  0  0  0  0  0  0  0  0  0  0
  -19.7745   -5.2361    3.5434 N   0  0  0  0  0  0  0  0  0  0  0  0
  -24.7364   -6.0894    2.1439 N   0  0  0  0  0  0  0  0  0  0  0  0
  -21.2215   -7.6111    4.6135 O   0  0  0  0  0  0  0  0  0  0  0  0
  -24.5740   -3.3033    0.4865 O   0  0  0  0  0  0  0  0  0  0  0  0
  -18.4935   -7.4082    3.5444 C   0  0  2  0  0  0  0  0  0  0  0  0
  -23.0816   -3.8033    0.4940 C   0  0  1  0  0  0  0  0  0  0  0  0
  -22.7668   -5.6423    1.8887 N   0  0  0  0  0  0  0  0  0  0  0  0
  -21.8758   -3.8857    2.4264 N   0  0  0  0  0  0  0  0  0  0  0  0
  -26.0565   -7.3962    3.3643 C   0  0  0  0  0  0  0  0  0  0  0  0
  -23.9551   -8.4365    3.0565 C   0  0  0  0  0  0  0  0  0  0  0  0
  -21.2902   -8.6536    3.3444 N   0  0  0  0  0  0  0  0  0  0  0  0
  -19.8046   -7.6023    3.6513 C   0  0  0  0  0  0  0  0  0  0  0  0
  -13.4019   -6.5418    5.3892 O   0  0  0  0  0  0  0  0  0  0  0  0
  6  2  1  0
  5 11  1  6
 12  1  2  3
 14  2  3  0
 15  3  1  0
 10 15  1  1
 16  8  2  0
 18 10  1  0
 18 16  1  0
  4 19  1  1
 19  7  1  0
 22  6  1  1
 22 16  1  0
 23  4  1  0
 23  9  1  6
 23 21  1  0
 24  4  1  0
 24  5  1  0
 25  5  1  0
 25 10  1  0
 26  1  1  0
 26  7  2  3
 27 12  1  0
 27 17  2  3
 28 13  1  0
 28 20  1  0
 29 20  1  0
 29 22  1  0
 30 14  1  0
M  END
>  <ID>  (1) 
conformer_0

$$$$
