
     RDKit          3D

 26 26  0  0  0  0  0  0  0  0999 V2000
  -25.3411   -8.5793    3.9377 C   0  0  0  0  0  0  0  0  0  0  0  0
  -14.7408   -6.2090    4.8825 C   0  0  0  0  0  0  0  0  0  0  0  0
  -21.8315   -2.0232    4.1899 C   0  0  0  0  0  0  0  0  0  0  0  0
  -15.8760   -5.9672    4.5123 C   0  0  0  0  0  0  0  0  0  0  0  0
  -23.4653   -4.0919    0.0203 C   0  0  0  0  0  0  0  0  0  0  0  0
  -19.5159   -5.3349    3.7432 C   0  0  0  0  0  0  0  0  0  0  0  0
  -20.7427   -3.3685    3.4364 C   0  0  0  0  0  0  0  0  0  0  0  0
  -23.7672   -8.3633    3.6655 C   0  0  0  0  0  0  0  0  0  0  0  0
  -21.0950   -2.9866    1.1498 O   0  0  0  0  0  0  0  0  0  0  0  0
  -23.0316   -4.0010   -1.0247 C   0  0  0  0  0  0  0  0  0  0  0  0
  -19.2872   -3.9607    4.8243 O   0  0  0  0  0  0  0  0  0  0  0  0
  -17.1252   -6.2750    3.8109 C   0  0  0  0  0  0  0  0  0  0  0  0
  -19.8049   -7.2460    3.5473 C   0  0  2  0  0  0  0  0  0  0  0  0
  -20.0851   -5.1079    3.3017 N   0  0  0  0  0  0  0  0  0  0  0  0
  -22.5169   -2.7744    4.8313 C   0  0  0  0  0  0  0  0  0  0  0  0
  -21.7876   -4.1418    1.3183 C   0  0  0  0  0  0  0  0  0  0  0  0
  -20.7230   -7.4017    5.2892 O   0  0  0  0  0  0  0  0  0  0  0  0
  -22.1964   -8.5891    3.6160 N   0  0  0  0  0  0  0  0  0  0  0  0
  -25.8961   -7.5582    3.1067 C   0  0  0  0  0  0  0  0  0  0  0  0
  -24.7221   -5.9316    2.0726 N   0  0  0  0  0  0  0  0  0  0  0  0
  -23.2838   -4.8785    1.1856 N   0  0  0  0  0  0  0  0  0  0  0  0
  -24.6476   -6.7886    2.5776 C   0  0  0  0  0  0  0  0  0  0  0  0
  -23.1152   -7.1383    2.4869 N   0  0  0  0  0  0  0  0  0  0  0  0
  -18.4820   -7.3033    3.1796 C   0  0  0  0  0  0  0  0  0  0  0  0
  -24.2087   -5.2725    1.0726 C   0  0  0  0  0  0  0  0  0  0  0  0
  -21.4456   -8.5833    3.9047 C   0  0  0  0  0  0  0  0  0  0  0  0
  4  2  1  0
  7  3  1  0
  8  1  2  0
 10  5  2  3
 11  6  2  0
 12  4  2  0
 13  6  1  0
 14  6  1  0
 14  7  1  0
 15  3  1  0
 16  9  1  0
 13 17  1  1
 18  8  1  0
 19  1  1  0
 21  5  1  0
 21 16  1  0
 22 19  1  0
 22 20  1  0
 23  8  1  0
 23 22  2  0
 24 12  2  0
 24 13  1  0
 25 20  1  0
 25 21  1  0
 26 17  1  0
 26 18  1  0
M  END
>  <ID>  (1) 
conformer_0

$$$$
