
     RDKit          3D

 27 27  0  0  0  0  0  0  0  0999 V2000
  -21.9680   -1.8010    4.1223 C   0  0  0  0  0  0  0  0  0  0  0  0
  -15.8524   -5.9426    4.6944 C   0  0  0  0  0  0  0  0  0  0  0  0
  -25.7808   -7.2965    3.0184 C   0  0  0  0  0  0  0  0  0  0  0  0
  -22.6617   -3.8249    0.3699 C   0  0  2  0  0  0  0  0  0  0  0  0
  -21.6998   -3.7165    1.9134 C   0  0  0  0  0  0  0  0  0  0  0  0
  -23.5903   -8.3017    3.4751 C   0  0  0  0  0  0  0  0  0  0  0  0
  -17.0767   -6.1965    3.9262 C   0  0  0  0  0  0  0  0  0  0  0  0
  -26.0056   -8.4079    3.7696 C   0  0  0  0  0  0  0  0  0  0  0  0
  -21.7291   -2.2677    0.6506 O   0  0  0  0  0  0  0  0  0  0  0  0
  -18.9210   -4.0777    4.6524 O   0  0  0  0  0  0  0  0  0  0  0  0
  -21.3681   -7.8450    4.9760 O   0  0  0  0  0  0  0  0  0  0  0  0
  -21.0849   -8.3945    3.9646 C   0  0  0  0  0  0  0  0  0  0  0  0
  -23.3052   -5.6808    1.3542 N   0  0  0  0  0  0  0  0  0  0  0  0
  -23.8536   -5.1149    0.9363 C   0  0  1  0  0  0  0  0  0  0  0  0
  -20.2705   -4.9020    3.1451 N   0  0  0  0  0  0  0  0  0  0  0  0
  -14.7187   -6.2146    4.8423 C   0  0  0  0  0  0  0  0  0  0  0  0
  -21.8968   -4.2572   -0.9143 C   0  0  0  0  0  0  0  0  0  0  0  0
  -22.0580   -2.6851    4.4470 C   0  0  0  0  0  0  0  0  0  0  0  0
  -19.0948   -6.3386    3.8971 C   0  0  1  0  0  0  0  0  0  0  0  0
  -18.6806   -7.3727    3.3236 C   0  0  0  0  0  0  0  0  0  0  0  0
  -22.3816   -8.2183    3.2731 N   0  0  0  0  0  0  0  0  0  0  0  0
  -20.4354   -3.8171    3.8814 C   0  0  2  0  0  0  0  0  0  0  0  0
  -24.7654   -3.4637    0.7067 O   0  0  0  0  0  0  0  0  0  0  0  0
  -24.7350   -6.2066    1.8463 N   0  0  0  0  0  0  0  0  0  0  0  0
  -24.7169   -8.8083    4.0971 C   0  0  0  0  0  0  0  0  0  0  0  0
  -24.5292   -7.0404    2.4553 C   0  0  2  0  0  0  0  0  0  0  0  0
  -13.3935   -5.9957    5.4319 O   0  0  0  0  0  0  0  0  0  0  0  0
  5  4  1  0
  7  2  1  0
  8  3  2  0
  9  4  1  0
 12 11  1  0
 14  4  1  0
 14 13  1  0
 16  2  2  3
  4 17  1  6
 18  1  1  0
 19  7  1  0
 19 15  1  0
 19 20  1  6
 21  6  1  0
 21 12  1  0
 22  5  1  0
 22 10  1  6
 22 15  1  0
 22 18  1  0
 14 23  1  1
 24 13  1  0
 25  6  2  0
 25  8  1  0
 26  3  1  0
 26  6  1  0
 26 24  1  1
 27 16  1  0
M  END
>  <ID>  (1) 
conformer_0

$$$$
