
     RDKit          3D

 26 25  0  0  0  0  0  0  0  0999 V2000
  -25.1993   -8.5429    3.7673 C   0  0  0  0  0  0  0  0  0  0  0  0
  -22.0046   -2.5621    4.5148 C   0  0  0  0  0  0  0  0  0  0  0  0
  -16.0760   -6.1230    4.4270 C   0  0  0  0  0  0  0  0  0  0  0  0
  -22.6611   -4.0136    0.3741 C   0  0  2  0  0  0  0  0  0  0  0  0
  -21.6621   -3.5851    1.9282 C   0  0  0  0  0  0  0  0  0  0  0  0
  -25.0103   -6.5197    2.5072 C   0  0  0  0  0  0  0  0  0  0  0  0
  -18.8238   -3.8224    4.6857 O   0  0  0  0  0  0  0  0  0  0  0  0
  -21.2715   -8.5947    3.8807 C   0  0  1  0  0  0  0  0  0  0  0  0
  -21.5971   -2.4057    0.9427 O   0  0  0  0  0  0  0  0  0  0  0  0
  -25.9515   -7.5745    3.4163 C   0  0  0  0  0  0  0  0  0  0  0  0
  -19.1490   -6.2301    3.8587 C   0  0  0  0  0  0  0  0  0  0  0  0
  -17.1154   -6.1116    4.0346 C   0  0  0  0  0  0  0  0  0  0  0  0
  -23.4609   -5.4721    1.0138 N   0  0  0  0  0  0  0  0  0  0  0  0
  -21.4422   -7.7958    4.9473 O   0  0  0  0  0  0  0  0  0  0  0  0
  -14.5580   -6.2800    4.8137 C   0  0  0  0  0  0  0  0  0  0  0  0
  -19.6270   -5.5604    3.5758 N   0  0  0  0  0  0  0  0  0  0  0  0
  -24.1541   -4.8876    1.0964 C   0  0  0  0  0  0  0  0  0  0  0  0
  -21.9143   -4.3854   -0.8618 C   0  0  0  0  0  0  0  0  0  0  0  0
  -22.0156   -1.4202    4.1395 C   0  0  0  0  0  0  0  0  0  0  0  0
  -13.4708   -6.3600    4.0146 O   0  0  0  0  0  0  0  0  0  0  0  0
  -13.5745   -6.6051    5.6843 O   0  0  0  0  0  0  0  0  0  0  0  0
  -18.5875   -7.6717    3.7474 C   0  0  0  0  0  0  0  0  0  0  0  0
  -23.7026   -8.0277    3.3766 C   0  0  0  0  0  0  0  0  0  0  0  0
  -21.2275   -3.9475    2.6366 N   0  0  0  0  0  0  0  0  0  0  0  0
  -20.2154   -3.7971    3.7782 C   0  0  1  0  0  0  0  0  0  0  0  0
  -21.3910   -8.3159    3.3138 N   0  0  0  0  0  0  0  0  0  0  0  0
  5  4  1  0
  9  5  2  0
 10  1  2  3
 10  6  1  0
 12  3  3  0
 12 11  1  0
 13  4  1  0
 14  8  1  0
 15  3  1  0
 16 11  2  3
 17  6  1  0
 17 13  1  0
  4 18  1  6
 19  2  1  0
 20 15  2  0
 21 15  1  0
 22 11  1  0
 23  1  1  0
 23  8  1  0
 24  5  1  0
 25  2  1  0
 25  7  1  6
 25 16  1  0
 25 24  1  0
  8 26  1  6
M  END
>  <ID>  (1) 
conformer_0

$$$$
