
     RDKit          3D

 27 26  0  0  0  0  0  0  0  0999 V2000
  -21.8629   -3.9488    1.1891 C   0  0  2  0  0  0  0  0  0  0  0  0
  -15.8346   -6.1073    4.7668 C   0  0  0  0  0  0  0  0  0  0  0  0
  -22.2560   -2.6958    4.8382 C   0  0  0  0  0  0  0  0  0  0  0  0
  -25.5633   -8.3242    3.8740 C   0  0  0  0  0  0  0  0  0  0  0  0
  -19.5309   -5.5701    3.9366 C   0  0  0  0  0  0  0  0  0  0  0  0
  -16.9653   -6.1557    4.1050 C   0  0  0  0  0  0  0  0  0  0  0  0
  -24.8036   -6.9172    2.3664 C   0  0  0  0  0  0  0  0  0  0  0  0
  -20.7038   -3.5994    3.5696 C   0  0  2  0  0  0  0  0  0  0  0  0
  -21.3643   -2.4150    0.9091 O   0  0  0  0  0  0  0  0  0  0  0  0
  -24.0576   -5.4649    1.0330 C   0  0  2  0  0  0  0  0  0  0  0  0
  -22.3826   -8.8194    4.4192 C   0  0  0  0  0  0  0  0  0  0  0  0
  -19.5985   -4.1456    5.2327 O   0  0  0  0  0  0  0  0  0  0  0  0
  -21.7793   -4.2794   -0.8546 C   0  0  0  0  0  0  0  0  0  0  0  0
  -23.1703   -5.6271    1.2845 N   0  0  0  0  0  0  0  0  0  0  0  0
  -20.5977   -7.8202    4.7624 O   0  0  0  0  0  0  0  0  0  0  0  0
  -14.3724   -6.0855    4.7170 C   0  0  0  0  0  0  0  0  0  0  0  0
  -19.9345   -5.5002    3.4601 N   0  0  0  0  0  0  0  0  0  0  0  0
  -13.5410   -6.3262    4.0847 O   0  0  0  0  0  0  0  0  0  0  0  0
  -21.6725   -1.7833    4.2743 C   0  0  0  0  0  0  0  0  0  0  0  0
  -22.3525   -8.5626    3.6051 N   0  0  0  0  0  0  0  0  0  0  0  0
  -18.3399   -7.0619    3.4717 C   0  0  1  0  0  0  0  0  0  0  0  0
  -13.4955   -5.4039    5.5873 O   0  0  0  0  0  0  0  0  0  0  0  0
  -23.2758   -3.8754    0.3820 C   0  0  2  0  0  0  0  0  0  0  0  0
  -24.1661   -8.4162    3.4810 C   0  0  0  0  0  0  0  0  0  0  0  0
  -25.9650   -7.3099    2.9591 C   0  0  0  0  0  0  0  0  0  0  0  0
  -20.0835   -7.5218    3.8037 C   0  0  0  0  0  0  0  0  0  0  0  0
  -21.2482   -3.9224    2.7913 N   0  0  0  0  0  0  0  0  0  0  0  0
  6  2  1  0
  1  9  1  6
 10  7  1  0
 12  5  2  0
 10 14  1  1
 16  2  1  0
 17  5  1  0
 17  8  1  0
 18 16  2  0
 19  3  1  0
  8 19  1  1
 20 11  1  0
 21  5  1  0
 21  6  1  1
 22 16  1  0
 23  1  1  0
 23 10  1  0
 23 13  1  6
 24  4  1  0
 24 20  1  0
 25  4  1  0
 25  7  2  3
 26 15  2  0
 26 21  1  0
 27  1  1  0
 27  8  1  0
M  END
>  <ID>  (1) 
conformer_0

$$$$
