
     RDKit          3D

 27 26  0  0  0  0  0  0  0  0999 V2000
  -22.1658   -1.8566    4.0875 C   0  0  0  0  0  0  0  0  0  0  0  0
  -25.5460   -7.2484    2.6232 C   0  0  0  0  0  0  0  0  0  0  0  0
  -16.1467   -6.1325    4.4795 C   0  0  0  0  0  0  0  0  0  0  0  0
  -22.9156   -4.2686    0.5495 C   0  0  1  0  0  0  0  0  0  0  0  0
  -23.7108   -8.5430    3.5291 C   0  0  0  0  0  0  0  0  0  0  0  0
  -24.4505   -5.3343    0.9412 C   0  0  2  0  0  0  0  0  0  0  0  0
  -17.4198   -6.1775    3.6559 C   0  0  0  0  0  0  0  0  0  0  0  0
  -21.6508   -3.6508    1.6365 C   0  0  1  0  0  0  0  0  0  0  0  0
  -20.9603   -2.4067    1.0193 O   0  0  0  0  0  0  0  0  0  0  0  0
  -19.3182   -3.8505    4.9636 O   0  0  0  0  0  0  0  0  0  0  0  0
  -22.3060   -4.0848   -0.8206 C   0  0  0  0  0  0  0  0  0  0  0  0
  -26.1237   -8.1912    3.4826 C   0  0  0  0  0  0  0  0  0  0  0  0
  -14.8022   -6.1870    4.8446 C   0  0  0  0  0  0  0  0  0  0  0  0
  -21.2004   -7.6361    4.5210 O   0  0  0  0  0  0  0  0  0  0  0  0
  -20.2583   -4.9791    3.1794 N   0  0  0  0  0  0  0  0  0  0  0  0
  -19.6686   -6.1250    3.6759 C   0  0  0  0  0  0  0  0  0  0  0  0
  -23.2004   -5.1037    1.3842 N   0  0  0  0  0  0  0  0  0  0  0  0
  -21.4805   -8.6063    3.8339 C   0  0  0  0  0  0  0  0  0  0  0  0
  -22.5245   -9.0171    3.6389 N   0  0  0  0  0  0  0  0  0  0  0  0
  -21.5837   -2.7051    4.1815 C   0  0  0  0  0  0  0  0  0  0  0  0
  -18.8072   -7.3587    3.6884 C   0  0  0  0  0  0  0  0  0  0  0  0
  -20.5025   -3.7520    3.6794 C   0  0  2  0  0  0  0  0  0  0  0  0
  -13.4435   -6.0427    5.5795 O   0  0  0  0  0  0  0  0  0  0  0  0
  -25.7766   -3.9568    0.9355 S   0  0  0  0  0  0  0  0  0  0  0  0
  -24.4129   -6.9438    2.5513 C   0  0  0  0  0  0  0  0  0  0  0  0
  -25.0256   -8.9497    3.9356 C   0  0  0  0  0  0  0  0  0  0  0  0
  -14.1832   -6.9261    5.2334 N   0  0  0  0  0  0  0  0  0  0  0  0
  7  3  2  0
  8  4  1  0
  8  9  1  1
  4 11  1  6
 12  2  1  0
 13  3  2  0
 16 15  1  0
 17  4  1  0
 17  6  1  0
 18 14  2  0
 19  5  1  0
 19 18  1  0
 20  1  2  3
 21  7  1  0
 21 16  1  0
 22  8  1  0
 22 10  1  6
 22 15  1  0
 22 20  1  0
  6 24  1  1
 25  2  2  3
 25  6  1  0
 26  5  2  3
 26 12  1  0
 27 13  1  0
 27 23  1  0
M  END
>  <ID>  (1) 
conformer_0

$$$$
