
     RDKit          3D

 24 25  0  0  0  0  0  0  0  0999 V2000
  -25.5346   -6.8192    3.3581 C   0  0  0  0  0  0  0  0  0  0  0  0
  -15.5869   -6.0650    4.7576 C   0  0  0  0  0  0  0  0  0  0  0  0
  -23.7993   -4.6720    0.6323 C   0  0  1  0  0  0  0  0  0  0  0  0
  -21.6623   -2.7715    4.5691 C   0  0  0  0  0  0  0  0  0  0  0  0
  -16.8123   -6.1225    4.4770 C   0  0  0  0  0  0  0  0  0  0  0  0
  -19.2047   -5.0154    4.2627 C   0  0  0  0  0  0  0  0  0  0  0  0
  -20.8062   -3.3358    3.1379 C   0  0  0  0  0  0  0  0  0  0  0  0
  -26.2498   -7.9149    3.6212 C   0  0  0  0  0  0  0  0  0  0  0  0
  -24.1622   -7.4217    2.8534 C   0  0  2  0  0  0  0  0  0  0  0  0
  -21.0860   -2.3088    1.0482 O   0  0  0  0  0  0  0  0  0  0  0  0
  -19.2408   -3.4990    4.9876 O   0  0  0  0  0  0  0  0  0  0  0  0
  -19.5568   -7.2313    3.8368 C   0  0  1  0  0  0  0  0  0  0  0  0
  -23.3658   -5.4974    1.1300 N   0  0  0  0  0  0  0  0  0  0  0  0
  -21.2620   -7.7967    5.1067 O   0  0  0  0  0  0  0  0  0  0  0  0
  -22.7406   -3.8704   -1.0962 C   0  0  0  0  0  0  0  0  0  0  0  0
  -18.2787   -7.4622    3.7687 C   0  0  0  0  0  0  0  0  0  0  0  0
  -22.1796   -3.8686    1.0230 C   0  0  0  0  0  0  0  0  0  0  0  0
  -19.7383   -5.2984    3.6213 N   0  0  0  0  0  0  0  0  0  0  0  0
  -21.5846   -8.6144    3.4751 N   0  0  0  0  0  0  0  0  0  0  0  0
  -25.2592   -4.0514    0.9630 O   0  0  0  0  0  0  0  0  0  0  0  0
  -24.9719   -8.5522    3.4838 C   0  0  1  0  0  0  0  0  0  0  0  0
  -21.4885   -3.7824    2.6493 N   0  0  0  0  0  0  0  0  0  0  0  0
  -21.5485   -8.8913    3.8619 C   0  0  2  0  0  0  0  0  0  0  0  0
  -21.4627   -1.5750    4.0323 C   0  0  0  0  0  0  0  0  0  0  0  0
  5  2  2  3
  7  4  1  0
  8  1  2  0
  9  1  1  1
  9  3  1  0
 11  6  1  0
 13  3  1  0
  3 15  1  6
 16  5  1  0
 12 16  1  6
 17 10  2  0
 17 13  1  0
 18  6  1  0
 18 12  1  0
 20  3  1  0
 21  1  1  0
 21  8  1  6
 21  9  1  0
 22  7  1  0
 22 17  1  0
 23 12  1  0
 23 14  1  0
 23 19  1  6
 23 21  1  0
 24  4  1  0
M  END
>  <ID>  (1) 
conformer_0

$$$$
