
     RDKit          3D

 28 27  0  0  0  0  0  0  0  0999 V2000
  -21.6792   -1.4603    4.2021 C   0  0  0  0  0  0  0  0  0  0  0  0
  -25.7770   -7.6769    3.3454 C   0  0  0  0  0  0  0  0  0  0  0  0
  -15.5317   -6.0102    4.5403 C   0  0  0  0  0  3  0  0  0  0  0  0
  -24.1305   -4.8022    0.9063 C   0  0  2  0  0  0  0  0  0  0  0  0
  -22.7982   -3.8623    0.1646 C   0  0  0  0  0  0  0  0  0  0  0  0
  -16.6999   -6.0376    3.9770 C   0  0  0  0  0  0  0  0  0  0  0  0
  -23.6413   -8.3797    3.1909 C   0  0  0  0  0  0  0  0  0  0  0  0
  -19.4210   -3.9618    5.2173 O   0  0  0  0  0  0  0  0  0  0  0  0
  -21.4737   -2.2918    0.9929 O   0  0  0  0  0  0  0  0  0  0  0  0
  -20.9156   -8.5281    3.4594 C   0  0  0  0  0  0  0  0  0  0  0  0
  -21.3678   -8.0506    4.9451 O   0  0  0  0  0  0  0  0  0  0  0  0
  -25.1870   -8.6737    3.6830 C   0  0  0  0  0  0  0  0  0  0  0  0
  -21.6242   -3.4234    1.9231 C   0  0  0  0  0  0  0  0  0  0  0  0
  -17.9748   -6.6428    3.6871 C   0  0  2  0  0  0  0  0  0  0  0  0
  -21.9835   -2.9452    4.7055 C   0  0  0  0  0  0  0  0  0  0  0  0
  -19.4340   -6.0285    3.7553 C   0  0  0  0  0  0  0  0  0  0  0  0
  -14.3653   -6.2620    4.9132 C   0  0  0  0  0  0  0  0  0  0  0  0
  -20.0212   -5.4239    3.4760 N   0  0  0  0  0  0  0  0  0  0  0  0
  -22.1387   -8.8346    3.1817 N   0  0  0  0  0  0  0  0  0  0  0  0
  -24.7619   -5.8576    2.0576 N   0  0  0  0  0  0  0  0  0  0  0  0
  -22.1771   -4.0923   -1.0205 C   0  0  0  0  0  0  0  0  0  0  0  0
  -23.1249   -5.2928    1.3905 N   0  0  0  0  0  0  0  0  0  0  0  0
  -13.4904   -5.6083    5.6513 O   0  0  0  0  0  0  0  0  0  0  0  0
  -13.3296   -6.4792    4.6230 O   0  0  0  0  0  0  0  0  0  0  0  0
  -24.7969   -6.7104    2.5096 C   0  0  0  0  0  0  0  0  0  0  0  0
  -21.6887   -3.8775    2.3389 N   0  0  0  0  0  0  0  0  0  0  0  0
  -20.5516   -3.7415    3.8256 C   0  0  1  0  0  0  0  0  0  0  0  0
  -19.3029   -8.2002    3.3983 C   0  0  0  0  0  0  0  0  0  0  0  0
  5  4  1  0
  6  3  2  3
 11 10  2  0
 12  2  1  0
 12  7  2  3
 13  9  1  0
 14  6  1  0
 15  1  1  0
 14 16  1  1
 17  3  1  0
 18 16  1  0
 19  7  1  0
 19 10  1  0
 20  4  1  0
 21  5  2  3
  4 22  1  6
 23 17  1  0
 24 17  2  0
 25  2  2  3
 25 20  1  0
 26 13  1  0
 27  8  1  6
 27 15  1  0
 27 18  1  0
 27 26  1  0
 28 10  1  0
 28 14  1  0
M  RAD  1   3   2
M  END
>  <ID>  (1) 
conformer_0

$$$$
