
     RDKit          3D

 30 29  0  0  0  0  0  0  0  0999 V2000
  -17.0929   -5.6045    4.0532 C   0  0  0  0  0  0  0  0  0  0  0  0
  -22.2900   -1.8698    4.3083 C   0  0  0  0  0  0  0  0  0  0  0  0
  -24.0056   -5.6523    1.3251 C   0  0  0  0  0  0  0  0  0  0  0  0
  -25.4278   -8.3159    3.3773 C   0  0  0  0  0  0  0  0  0  0  0  0
  -20.9674   -3.6105    2.8053 C   0  0  2  0  0  0  0  0  0  0  0  0
  -24.1073   -8.2229    3.1600 C   0  0  0  0  0  0  0  0  0  0  0  0
  -21.3183   -2.7110    1.1920 O   0  0  0  0  0  0  0  0  0  0  0  0
  -22.2055   -9.2986    4.1286 C   0  0  0  0  0  0  0  0  0  0  0  0
  -19.7865   -4.1629    4.1437 C   0  0  0  0  0  0  0  0  0  0  0  0
  -19.5170   -4.0731    5.5549 O   0  0  0  0  0  0  0  0  0  0  0  0
  -20.3022   -7.3094    5.0974 O   0  0  0  0  0  0  0  0  0  0  0  0
  -23.1663   -6.1469    1.5872 N   0  0  0  0  0  0  0  0  0  0  0  0
  -14.8511   -6.2674    4.7658 C   0  0  0  0  0  0  0  0  0  0  0  0
  -22.4232   -4.0225    0.9113 C   0  0  1  0  0  0  0  0  0  0  0  0
  -15.9425   -6.2414    4.4952 C   0  0  0  0  0  0  0  0  0  0  0  0
  -22.1360   -3.1673    4.6751 C   0  0  0  0  0  0  0  0  0  0  0  0
  -22.1275   -8.7099    3.5802 N   0  0  0  0  0  0  0  0  0  0  0  0
  -22.6452   -3.9266   -0.9923 C   0  0  0  0  0  0  0  0  0  0  0  0
  -24.8759   -6.7278    2.0819 C   0  0  0  0  0  0  0  0  0  0  0  0
  -13.8855   -6.2561    4.5425 N   0  0  0  0  0  0  0  0  0  0  0  0
  -21.8137   -4.2227    2.2021 N   0  0  0  0  0  0  0  0  0  0  0  0
  -19.0634   -5.8818    3.8571 C   0  0  1  0  0  0  0  0  0  0  0  0
  -19.6744   -4.4153    3.7381 N   0  0  0  0  0  0  0  0  0  0  0  0
  -13.2770   -6.1790    5.3228 O   0  0  0  0  0  0  0  0  0  0  0  0
  -25.8686   -7.3009    2.4071 C   0  0  0  0  0  0  0  0  0  0  0  0
  -20.6520   -7.6042    3.9245 C   0  0  0  0  0  0  0  0  0  0  0  0
  -20.1916   -6.5608    3.4213 N   0  0  0  0  0  0  0  0  0  0  0  0
  -17.9196   -6.7916    3.5790 C   0  0  0  0  0  0  0  0  0  0  0  0
  -24.2648   -4.2386    0.5754 C   0  0  0  0  0  0  0  0  0  0  0  0
  -20.3953   -2.0384    3.8585 C   0  0  0  0  0  0  0  0  0  0  0  0
  6  4  2  3
 10  9  1  0
 12  3  1  0
 14  7  1  0
 15  1  1  0
 15 13  1  0
 16  2  1  0
 17  8  1  0
 14 18  1  6
 19  3  2  0
 20 13  1  0
 21  5  1  0
 21 14  1  0
 23  5  1  0
 23  9  1  0
 23 22  1  0
 24 20  1  0
 25  4  1  0
 25 19  2  0
 26 11  2  0
 26 17  1  0
 27 22  1  0
 27 26  1  0
 28  1  1  0
 22 28  1  6
 29  3  1  0
 29 14  1  0
 30  2  1  0
  5 30  1  1
M  END
>  <ID>  (1) 
conformer_0

$$$$
