
     RDKit          3D

 24 23  0  0  0  0  0  0  0  0999 V2000
  -25.3577   -7.7823    2.8018 C   0  0  0  0  0  0  0  0  0  0  0  0
  -21.6865   -1.6894    3.8907 C   0  0  0  0  0  0  0  0  0  0  0  0
  -16.8762   -6.0869    4.0566 C   0  0  0  0  0  0  0  0  0  0  0  0
  -24.1835   -4.7919    0.7860 C   0  0  0  0  0  0  0  0  0  0  0  0
  -22.9724   -3.5668    0.4283 C   0  0  1  0  0  0  0  0  0  0  0  0
  -15.6049   -6.3660    4.7763 C   0  0  0  0  0  0  0  0  0  0  0  0
  -23.4060   -8.5212    3.5688 C   0  0  0  0  0  0  0  0  0  0  0  0
  -21.8039   -3.3242    1.7610 C   0  0  0  0  0  0  0  0  0  0  0  0
  -19.2691   -3.7430    4.8298 O   0  0  0  0  0  0  0  0  0  0  0  0
  -19.4605   -6.2802    4.0586 C   0  0  2  0  0  0  0  0  0  0  0  0
  -21.0893   -2.3715    0.9386 O   0  0  0  0  0  0  0  0  0  0  0  0
  -20.6407   -7.5081    5.2315 O   0  0  0  0  0  0  0  0  0  0  0  0
  -23.2738   -5.1177    1.3188 N   0  0  0  0  0  0  0  0  0  0  0  0
  -20.3444   -4.8329    3.2236 N   0  0  0  0  0  0  0  0  0  0  0  0
  -25.0308   -8.5537    3.3611 C   0  0  0  0  0  0  0  0  0  0  0  0
  -14.5783   -6.2550    4.9446 C   0  0  0  0  0  0  0  0  0  0  0  0
  -20.3584   -3.7897    3.7212 C   0  0  1  0  0  0  0  0  0  0  0  0
  -17.9345   -6.1595    3.7929 C   0  0  0  0  0  0  0  0  0  0  0  0
  -24.5002   -6.7233    2.4418 C   0  0  0  0  0  0  0  0  0  0  0  0
  -22.6016   -4.0361   -0.8539 C   0  0  0  0  0  0  0  0  0  0  0  0
  -21.7591   -2.8837    4.2963 C   0  0  0  0  0  0  0  0  0  0  0  0
  -21.7038   -8.8096    3.8271 N   0  0  0  0  0  0  0  0  0  0  0  0
  -21.1233   -8.5120    4.1480 C   0  0  0  0  0  0  0  0  0  0  0  0
  -19.1618   -8.0562    3.4261 C   0  0  0  0  0  0  0  0  0  0  0  0
  5  4  1  0
  6  3  1  0
  8  5  1  0
 11  8  1  0
 13  4  1  0
 14 10  1  0
 15  1  2  3
 15  7  1  0
 16  6  2  3
 17  9  1  1
 17 14  1  0
 18  3  3  0
 10 18  1  6
 19  1  1  0
 19 13  1  0
  5 20  1  6
 21  2  1  0
 21 17  1  0
 22  7  1  0
 23 12  2  0
 23 22  1  0
 24 10  1  0
 24 23  1  0
M  END
>  <ID>  (1) 
conformer_0

$$$$
