
     RDKit          3D

 28 29  0  0  0  0  0  0  0  0999 V2000
  -15.7537   -6.2793    4.6400 C   0  0  0  0  0  0  0  0  0  0  0  0
  -25.7706   -7.3637    3.2212 C   0  0  0  0  0  0  0  0  0  0  0  0
  -22.4785   -3.1592    4.7591 C   0  0  0  0  0  0  0  0  0  0  0  0
  -21.8225   -3.6873    1.4077 C   0  0  0  0  0  0  0  0  0  0  0  0
  -20.6766   -3.8705    3.5387 C   0  0  0  0  0  0  0  0  0  0  0  0
  -23.9842   -8.6450    3.5025 C   0  0  0  0  0  0  0  0  0  0  0  0
  -21.8540   -9.5486    3.8168 C   0  0  0  0  0  0  0  0  0  0  0  0
  -21.1731   -2.4101    0.9175 O   0  0  0  0  0  0  0  0  0  0  0  0
  -24.3299   -5.0119    1.1870 C   0  0  0  0  0  0  0  0  0  0  0  0
  -16.9506   -6.2019    3.9802 C   0  0  0  0  0  0  0  0  0  0  0  0
  -21.3661   -2.4015    4.2203 C   0  0  0  0  0  0  0  0  0  0  0  0
  -19.2448   -5.4165    4.0039 C   0  0  0  0  0  0  0  0  0  0  0  0
  -20.6595   -7.5115    5.1732 O   0  0  0  0  0  0  0  0  0  0  0  0
  -23.5994   -7.8821    2.4220 N   0  0  0  0  0  0  0  0  0  0  0  0
  -14.5040   -6.2924    4.9372 C   0  0  0  0  0  0  0  0  0  0  0  0
  -22.6600   -8.8202    3.5840 N   0  0  0  0  0  0  0  0  0  0  0  0
  -23.3282   -4.8445    1.0896 N   0  0  0  0  0  0  0  0  0  0  0  0
  -21.7985   -4.2830   -0.9954 C   0  0  0  0  0  0  0  0  0  0  0  0
  -13.5031   -5.5528    5.4665 O   0  0  0  0  0  0  0  0  0  0  0  0
  -20.4178   -5.0699    2.9409 N   0  0  0  0  0  0  0  0  0  0  0  0
  -25.4628   -8.5873    3.7804 C   0  0  0  0  0  0  0  0  0  0  0  0
  -18.6984   -7.3745    3.3256 C   0  0  2  0  0  0  0  0  0  0  0  0
  -24.7531   -5.8895    1.9923 N   0  0  0  0  0  0  0  0  0  0  0  0
  -24.3753   -7.0208    2.5781 C   0  0  0  0  0  0  0  0  0  0  0  0
  -22.9652   -3.6988    0.2554 C   0  0  2  0  0  0  0  0  0  0  0  0
  -19.0732   -5.1838    5.0430 O   0  0  0  0  0  0  0  0  0  0  0  0
  -21.7303   -0.8449    4.0363 C   0  0  0  0  0  0  0  0  0  0  0  0
  -20.3315   -7.8218    3.8247 C   0  0  1  0  0  0  0  0  0  0  0  0
  8  4  1  0
 10  1  2  0
 11  3  1  0
 11  5  1  0
 14  6  1  0
 15  1  2  0
 16  6  1  0
 16  7  1  0
 16 14  1  0
 17  9  2  3
 19 15  1  0
 20  5  1  0
 20 12  1  0
 21  2  1  0
 21  6  2  0
 22 10  1  1
 22 12  1  0
 23  9  1  0
 24  2  2  0
 24 14  1  0
 24 23  1  0
 25  4  1  0
 25 17  1  0
 25 18  1  6
 26 12  2  0
 27 11  1  0
 28  7  1  0
 28 13  1  1
 28 22  1  0
M  END
>  <ID>  (1) 
conformer_0

$$$$
