
     RDKit          3D

 25 25  0  0  0  0  0  0  0  0999 V2000
  -15.7854   -5.9492    4.6354 C   0  0  0  0  0  0  0  0  0  0  0  0
  -25.5349   -6.9972    2.8274 C   0  0  0  0  0  0  0  0  0  0  0  0
  -21.8253   -2.6655    4.3260 C   0  0  0  0  0  0  0  0  0  0  0  0
  -24.0914   -4.9879    0.8561 C   0  0  0  0  0  0  0  0  0  0  0  0
  -21.5459   -3.6737    2.2502 C   0  0  0  0  0  0  0  0  0  0  0  0
  -23.5288   -8.2806    3.4886 C   0  0  0  0  0  0  0  0  0  0  0  0
  -16.9466   -6.0826    4.2005 C   0  0  0  0  0  0  0  0  0  0  0  0
  -21.0093   -8.2294    4.0753 C   0  0  0  0  0  0  0  0  0  0  0  0
  -19.1968   -4.2435    4.8414 O   0  0  0  0  0  0  0  0  0  0  0  0
  -25.9519   -8.1418    3.5753 C   0  0  0  0  0  0  0  0  0  0  0  0
  -21.6287   -7.9860    5.4156 O   0  0  0  0  0  0  0  0  0  0  0  0
  -14.4371   -6.3295    4.8661 C   0  0  0  0  0  0  0  0  0  0  0  0
  -22.0973   -4.1896   -0.7075 C   0  0  0  0  0  0  0  0  0  0  0  0
  -20.0630   -5.1437    3.1301 N   0  0  0  0  0  0  0  0  0  0  0  0
  -18.5758   -7.3650    3.5485 C   0  0  0  0  0  0  0  0  0  0  0  0
  -22.7364   -3.9576    0.5633 C   0  0  0  0  0  0  0  0  0  0  0  0
  -23.2449   -5.0107    1.2904 N   0  0  0  0  0  0  0  0  0  0  0  0
  -21.7937   -1.2856    3.7776 C   0  0  0  0  0  0  0  0  0  0  0  0
  -19.2284   -6.3614    3.7993 C   0  0  0  0  0  0  0  0  0  0  0  0
  -21.7533   -8.4191    3.5422 N   0  0  0  0  0  0  0  0  0  0  0  0
  -21.3477   -2.5659    1.0132 O   0  0  0  0  0  0  0  0  0  0  0  0
  -23.2631   -7.3735    2.5222 N   0  0  0  0  0  0  0  0  0  0  0  0
  -24.4177   -6.7540    2.4549 C   0  0  0  0  0  0  0  0  0  0  0  0
  -20.2489   -3.7506    3.6902 C   0  0  0  0  0  0  0  0  0  0  0  0
  -24.7691   -8.8681    3.8579 C   0  0  0  0  0  0  0  0  0  0  0  0
  7  1  1  0
 10  2  2  0
 11  8  2  0
 12  1  1  0
 15  7  1  0
 15  8  1  0
 16  5  1  0
 16 13  1  0
 17  4  1  0
 17 16  1  0
 18  3  1  0
 19 14  1  0
 19 15  1  0
 20  6  1  0
 20  8  1  0
 21  5  1  0
 22  6  1  0
 23  2  1  0
 23 22  2  0
 24  3  1  0
 24  5  1  0
 24  9  1  0
 24 14  1  0
 25  6  2  0
 25 10  1  0
M  END
>  <ID>  (1) 
conformer_0

$$$$
