
     RDKit          3D

 29 30  0  0  0  0  0  0  0  0999 V2000
  -22.0544   -2.6506    4.5074 C   0  0  0  0  0  0  0  0  0  0  0  0
  -15.0628   -6.3335    4.8615 C   0  0  0  0  0  0  0  0  0  0  0  0
  -25.2621   -8.7475    3.4360 C   0  0  0  0  0  0  0  0  0  0  0  0
  -24.1212   -5.4879    1.1781 C   0  0  0  0  0  0  0  0  0  0  0  0
  -22.0389   -3.8667    1.0082 C   0  0  0  0  0  0  0  0  0  0  0  0
  -16.3822   -6.1715    4.4339 C   0  0  0  0  0  0  0  0  0  0  0  0
  -18.8769   -5.8788    3.9534 C   0  0  0  0  0  0  0  0  0  0  0  0
  -23.7446   -8.5909    3.3410 C   0  0  0  0  0  0  0  0  0  0  0  0
  -21.3074   -2.3656    1.1025 O   0  0  0  0  0  0  0  0  0  0  0  0
  -21.8712   -9.0377    4.0452 C   0  0  0  0  0  0  0  0  0  0  0  0
  -22.5277   -4.1243   -0.8214 C   0  0  0  0  0  0  0  0  0  0  0  0
  -19.2481   -4.1511    4.6754 O   0  0  0  0  0  0  0  0  0  0  0  0
  -21.5530   -3.1722    2.6330 C   0  0  0  0  0  0  0  0  0  0  0  0
  -20.5260   -7.4156    4.9267 O   0  0  0  0  0  0  0  0  0  0  0  0
  -19.9264   -5.4243    3.4452 N   0  0  0  0  0  0  0  0  0  0  0  0
  -22.0233   -1.6177    4.1104 C   0  0  0  0  0  0  0  0  0  0  0  0
  -23.4991   -4.9970    1.0884 N   0  0  0  0  0  0  0  0  0  0  0  0
  -23.4440   -7.7219    2.4736 N   0  0  0  0  0  0  0  0  0  0  0  0
  -25.6885   -7.5408    2.9969 C   0  0  0  0  0  0  0  0  0  0  0  0
  -14.3104   -6.1767    4.8114 C   0  0  0  0  0  0  0  0  0  0  0  0
  -13.3863   -5.6110    5.5299 O   0  0  0  0  0  0  0  0  0  0  0  0
  -24.8138   -5.8443    2.1112 N   0  0  0  0  0  0  0  0  0  0  0  0
  -24.5379   -6.8263    2.4069 C   0  0  0  0  0  0  0  0  0  0  0  0
  -17.1775   -6.0630    3.3969 C   0  0  0  0  0  0  0  0  0  0  0  0
  -20.5422   -3.9953    4.0306 C   0  0  0  0  0  0  0  0  0  0  0  0
  -21.5785   -8.7673    3.5451 N   0  0  0  0  0  0  0  0  0  0  0  0
  -18.8147   -7.6126    3.2809 C   0  0  0  0  0  0  0  0  0  0  0  0
  -20.0012   -7.7803    3.7063 C   0  0  0  0  0  0  0  0  0  0  0  0
  -23.7084   -4.0861    0.2023 C   0  0  0  0  0  0  0  0  0  0  0  0
  6  2  1  0
  8  3  2  0
  9  5  1  0
 13  1  1  0
 13  5  1  0
 13  9  1  0
 15  7  1  0
 16  1  1  0
 17  4  1  0
 18  8  1  0
 19  3  1  0
 20  2  1  0
 21 20  1  0
 22  4  1  0
 23 18  2  0
 23 19  1  0
 23 22  1  0
 24  6  1  0
 24  7  1  0
 25 12  1  0
 25 13  1  0
 25 15  1  0
 26 10  1  0
 27  7  1  0
 28 14  2  0
 28 26  1  0
 28 27  1  0
 29  5  1  0
 29 11  1  0
 29 17  1  0
M  END
>  <ID>  (1) 
conformer_0

$$$$
