
     RDKit          3D

 31 31  0  0  0  0  0  0  0  0999 V2000
  -15.4403   -5.7430    4.6555 C   0  0  0  0  0  0  0  0  0  0  0  0
  -22.2554   -3.0828    4.8481 C   0  0  0  0  0  0  0  0  0  0  0  0
  -24.8771   -9.0541    4.0307 C   0  0  0  0  0  0  0  0  0  0  0  0
  -22.5064   -3.8466    0.1852 C   0  0  2  0  0  0  0  0  0  0  0  0
  -23.6182   -8.5259    3.4384 C   0  0  0  0  0  0  0  0  0  0  0  0
  -21.6152   -4.1033    1.6249 C   0  0  1  0  0  0  0  0  0  0  0  0
  -16.4882   -6.4089    4.3350 C   0  0  0  0  0  0  0  0  0  0  0  0
  -21.0888   -2.5157    1.1878 O   0  0  0  0  0  0  0  0  0  0  0  0
  -19.2184   -4.2220    4.8131 O   0  0  0  0  0  0  0  0  0  0  0  0
  -26.1240   -8.5547    3.7076 C   0  0  0  0  0  0  0  0  0  0  0  0
  -23.2090   -5.0391    1.0388 N   0  0  0  0  0  0  0  0  0  0  0  0
  -21.8879   -9.0805    4.1226 C   0  0  0  0  0  0  0  0  0  0  0  0
  -19.5361   -5.0021    3.9262 C   0  0  0  0  0  0  0  0  0  0  0  0
  -20.8537   -3.3445    3.3068 C   0  0  1  0  0  0  0  0  0  0  0  0
  -22.3644   -3.8491   -1.1722 C   0  0  0  0  0  0  0  0  0  0  0  0
  -21.2900   -2.3840    4.1334 C   0  0  0  0  0  0  0  0  0  0  0  0
  -20.3961   -5.0691    3.1805 N   0  0  0  0  0  0  0  0  0  0  0  0
  -20.8538   -7.8127    5.0905 O   0  0  0  0  0  0  0  0  0  0  0  0
  -13.4972   -5.4904    5.6586 O   0  0  0  0  0  0  0  0  0  0  0  0
  -14.4433   -6.0560    4.9074 C   0  0  0  0  0  0  0  0  0  0  0  0
  -24.6250   -6.3152    1.8952 N   0  0  0  0  0  0  0  0  0  0  0  0
  -23.5195   -7.5410    2.2504 N   0  0  0  0  0  0  0  0  0  0  0  0
  -18.5749   -7.2812    3.5761 C   0  0  0  0  0  0  0  0  0  0  0  0
  -24.5260   -7.1996    2.4625 C   0  0  0  0  0  0  0  0  0  0  0  0
  -23.9107   -5.4170    1.0937 C   0  0  1  0  0  0  0  0  0  0  0  0
  -20.9818   -8.1614    3.4462 N   0  0  0  0  0  0  0  0  0  0  0  0
  -25.9732   -7.4666    2.8204 C   0  0  0  0  0  0  0  0  0  0  0  0
  -24.5345   -3.7837    0.1121 C   0  0  0  0  0  0  0  0  0  0  0  0
  -19.8315   -7.4211    3.9053 C   0  0  0  0  0  0  0  0  0  0  0  0
  -22.2716   -1.1535    3.8311 C   0  0  0  0  0  0  0  0  0  0  0  0
  -17.6626   -5.9484    3.6847 C   0  0  0  0  0  0  0  0  0  0  0  0
  5  3  2  0
  6  4  1  0
  7  1  2  3
  6  8  1  6
 10  3  1  0
 11  4  1  0
 12  5  1  0
 13  9  2  0
 14  6  1  0
  4 15  1  6
 16  2  1  0
 16 14  1  0
 17 13  1  0
 14 17  1  1
 20  1  1  0
 20 19  1  0
 22  5  1  0
 24 21  1  0
 24 22  2  0
 25 11  1  0
 25 21  1  0
 26 12  1  0
 27 10  2  0
 27 24  1  0
 25 28  1  1
 29 18  2  0
 29 23  1  0
 29 26  1  0
 30 16  1  0
 31  7  1  0
 31 23  1  0
M  END
>  <ID>  (1) 
conformer_0

$$$$
