
     RDKit          3D

 28 29  0  0  0  0  0  0  0  0999 V2000
  -22.4702   -3.3179    5.2533 C   0  0  0  0  0  0  0  0  0  0  0  0
  -25.9447   -7.3152    3.1789 C   0  0  0  0  0  0  0  0  0  0  0  0
  -15.4377   -6.3635    5.0303 C   0  0  0  0  0  0  0  0  0  0  0  0
  -21.5814   -3.6055    1.5693 C   0  0  0  0  0  0  0  0  0  0  0  0
  -16.2492   -5.8679    4.3169 C   0  0  0  0  0  0  0  0  0  0  0  0
  -20.3333   -3.9599    4.0572 C   0  0  2  0  0  0  0  0  0  0  0  0
  -23.7466   -8.1632    3.3495 C   0  0  0  0  0  0  0  0  0  0  0  0
  -21.2100   -2.5706    1.1638 O   0  0  0  0  0  0  0  0  0  0  0  0
  -19.0789   -5.8373    3.8610 C   0  0  2  0  0  0  0  0  0  0  0  0
  -22.2084   -4.2111   -0.9585 C   0  0  0  0  0  0  0  0  0  0  0  0
  -20.0732   -7.9887    3.3222 C   0  0  0  0  0  0  0  0  0  0  0  0
  -21.1545   -2.8920    4.5889 C   0  0  0  0  0  0  0  0  0  0  0  0
  -22.7598   -4.1965    0.4564 C   0  0  1  0  0  0  0  0  0  0  0  0
  -21.1325   -8.4623    4.4055 O   0  0  0  0  0  0  0  0  0  0  0  0
  -17.4030   -6.5799    3.8024 C   0  0  1  0  0  0  0  0  0  0  0  0
  -20.1487   -5.2117    3.2314 N   0  0  0  0  0  0  0  0  0  0  0  0
  -22.6970   -6.1098    1.5835 N   0  0  0  0  0  0  0  0  0  0  0  0
  -14.3358   -6.1655    4.8183 C   0  0  0  0  0  0  0  0  0  0  0  0
  -24.6897   -6.5112    2.4630 C   0  0  0  0  0  0  0  0  0  0  0  0
  -13.5349   -5.6143    5.5002 O   0  0  0  0  0  0  0  0  0  0  0  0
  -25.2030   -8.3852    3.6360 C   0  0  0  0  0  0  0  0  0  0  0  0
  -21.9869   -8.2237    3.2214 N   0  0  0  0  0  0  0  0  0  0  0  0
  -22.2525   -9.1279    4.1422 C   0  0  2  0  0  0  0  0  0  0  0  0
  -19.0477   -4.7837    4.6945 N   0  0  0  0  0  0  0  0  0  0  0  0
  -24.4791   -6.0451    2.0419 N   0  0  0  0  0  0  0  0  0  0  0  0
  -21.7245   -1.5316    4.5068 C   0  0  0  0  0  0  0  0  0  0  0  0
  -23.7611   -5.2221    1.0438 C   0  0  1  0  0  0  0  0  0  0  0  0
  -18.6936   -7.5103    3.0502 C   0  0  2  0  0  0  0  0  0  0  0  0
  5  3  1  0
  8  4  1  0
 12  1  1  0
  6 12  1  1
 13  4  1  0
 13 10  1  6
 15  5  1  6
 15  9  1  0
 16  6  1  0
  9 16  1  6
 18  3  1  0
 19  2  2  3
 20 18  1  0
 21  2  1  0
 21  7  2  3
 22 14  1  0
 23  7  1  0
 23 11  1  1
 23 22  1  0
 24  6  1  0
 24  9  1  0
 25 19  1  0
 26 12  1  0
 27 13  1  0
 27 17  1  6
 27 25  1  0
 28  9  1  0
 28 11  1  1
 28 15  1  0
M  END
>  <ID>  (1) 
conformer_0

$$$$
