
     RDKit          3D

 31 36  0  0  0  0  0  0  0  0999 V2000
  -22.1036   -0.9470    4.3064 C   0  0  0  0  0  0  0  0  0  0  0  0
  -15.1390   -6.2385    4.7418 C   0  0  0  0  0  0  0  0  0  0  0  0
  -25.9130   -7.3847    3.2310 C   0  0  0  0  0  0  0  0  0  0  0  0
  -23.8868   -5.6252    1.3314 C   0  0  0  0  0  0  0  0  0  0  0  0
  -20.2948   -3.7853    3.8566 C   0  0  0  0  0  0  0  0  0  0  0  0
  -16.1800   -5.7761    4.1339 C   0  0  0  0  0  0  0  0  0  0  0  0
  -18.8416   -5.6659    4.0822 C   0  0  0  0  0  0  0  0  0  0  0  0
  -24.0199   -8.6280    3.5665 C   0  0  0  0  0  0  0  0  0  0  0  0
  -22.7256   -3.8902   -1.1191 C   0  0  0  0  0  0  0  0  0  0  0  0
  -18.9179   -3.8854    4.5814 O   0  0  0  0  0  0  0  0  0  0  0  0
  -21.4079   -2.2077    1.1416 O   0  0  0  0  0  0  0  0  0  0  0  0
  -19.8868   -7.6044    3.8604 C   0  0  0  0  0  0  0  0  0  0  0  0
  -20.9658   -7.8146    5.2512 O   0  0  0  0  0  0  0  0  0  0  0  0
  -23.3912   -5.1235    1.2807 N   0  0  0  0  0  0  0  0  0  0  0  0
  -21.5303   -3.1670    2.7238 C   0  0  0  0  0  0  0  0  0  0  0  0
  -17.3553   -6.3218    3.6485 C   0  0  0  0  0  0  0  0  0  0  0  0
  -21.8779   -8.6811    3.5726 N   0  0  0  0  0  0  0  0  0  0  0  0
  -19.8158   -5.3367    3.5246 N   0  0  0  0  0  0  0  0  0  0  0  0
  -22.8558   -2.6190    4.9580 C   0  0  0  0  0  0  0  0  0  0  0  0
  -13.3631   -5.9600    5.2608 O   0  0  0  0  0  0  0  0  0  0  0  0
  -23.5940   -7.7363    2.2101 N   0  0  0  0  0  0  0  0  0  0  0  0
  -14.4853   -6.2494    4.9361 C   0  0  0  0  0  0  0  0  0  0  0  0
  -24.6238   -6.9317    2.5471 C   0  0  0  0  0  0  0  0  0  0  0  0
  -24.6322   -6.2728    2.1141 N   0  0  0  0  0  0  0  0  0  0  0  0
  -21.8096   -8.6371    4.1782 C   0  0  0  0  0  0  0  0  0  0  0  0
  -22.1555   -3.7395    0.8213 C   0  0  0  0  0  0  0  0  0  0  0  0
  -25.4149   -8.7164    3.8578 C   0  0  0  0  0  0  0  0  0  0  0  0
  -18.7533   -7.7529    3.5183 C   0  0  0  0  0  0  0  0  0  0  0  0
  -21.5273   -3.7261    2.5154 N   0  0  0  0  0  0  0  0  0  0  0  0
  -23.7377   -4.1648    0.0781 C   0  0  0  0  0  0  0  0  0  0  0  0
  -21.4464   -2.4252    4.1850 C   0  0  0  0  0  0  0  0  0  0  0  0
  6  2  1  0
 10  5  1  0
 10  7  1  0
 13 12  1  0
 14  4  1  0
 15  5  1  0
 15 11  1  0
 16  6  1  0
 16  7  1  0
 18  5  1  0
 18  7  1  0
 19  1  1  0
 21  8  2  0
 22  2  3  0
 22 20  1  0
 23  3  2  0
 23 21  1  0
 24  4  1  0
 24 23  1  0
 25 13  1  0
 25 17  1  0
 26 11  1  0
 26 14  1  0
 27  3  1  0
 27  8  1  0
 28 12  1  0
 28 16  1  0
 29 15  1  0
 29 26  1  0
 30  9  1  0
 30 14  1  0
 30 26  1  0
 31  1  1  0
 31  5  1  0
 31 15  1  0
 31 19  1  0
M  END
>  <ID>  (1) 
conformer_0

$$$$
