
     RDKit          3D

 22 21  0  0  0  0  0  0  0  0999 V2000
  -25.6537   -8.0771    3.9042 C   0  0  0  0  0  0  0  0  0  0  0  0
  -21.5950   -1.8612    4.2658 C   0  0  0  0  0  0  0  0  0  0  0  0
  -16.0200   -5.9939    4.4026 C   0  0  0  0  0  0  0  0  0  0  0  0
  -17.2346   -6.1611    3.8323 C   0  0  0  0  0  0  0  0  0  0  0  0
  -23.8899   -4.8799    1.0957 C   0  0  0  0  0  0  0  0  0  0  0  0
  -22.4986   -4.0187   -0.9680 C   0  0  0  0  0  0  0  0  0  0  0  0
  -21.6318   -4.0420    1.7633 C   0  0  0  0  0  0  0  0  0  0  0  0
  -24.0041   -8.0847    3.2486 C   0  0  0  0  0  0  0  0  0  0  0  0
  -19.1872   -4.1270    4.8554 O   0  0  0  0  0  0  0  0  0  0  0  0
  -20.9639   -2.6712    1.0812 O   0  0  0  0  0  0  0  0  0  0  0  0
  -20.5967   -3.8303    3.6196 C   0  0  1  0  0  0  0  0  0  0  0  0
  -22.4910   -2.9178    4.8481 C   0  0  0  0  0  0  0  0  0  0  0  0
  -19.4445   -6.0759    3.8019 C   0  0  0  0  0  0  0  0  0  0  0  0
  -21.2112   -8.0588    4.7213 O   0  0  0  0  0  0  0  0  0  0  0  0
  -25.6862   -8.1811    3.1256 C   0  0  0  0  0  0  0  0  0  0  0  0
  -18.7067   -7.3923    3.4507 C   0  0  2  0  0  0  0  0  0  0  0  0
  -20.4583   -4.7352    3.1145 N   0  0  0  0  0  0  0  0  0  0  0  0
  -21.1216   -8.4818    3.8605 C   0  0  2  0  0  0  0  0  0  0  0  0
  -14.5967   -6.2285    4.7880 C   0  0  0  0  0  0  0  0  0  0  0  0
  -13.7939   -6.5803    5.4181 O   0  0  0  0  0  0  0  0  0  0  0  0
  -22.9375   -5.0446    1.4957 N   0  0  0  0  0  0  0  0  0  0  0  0
  -23.0259   -3.3739    0.3047 C   0  0  0  0  0  0  0  0  0  0  0  0
  4  3  1  0
 10  7  2  0
 11  2  1  0
 11  7  1  0
 11  9  1  6
 12  2  1  0
 15  1  2  3
 15  8  1  0
 16  4  1  1
 16 13  1  0
 17 11  1  0
 17 13  1  0
 18  8  1  0
 18 14  1  1
 18 16  1  0
 19  3  3  0
 20 19  1  0
 21  5  1  0
 21  7  1  0
 22  5  1  0
 22  6  1  0
M  END
>  <ID>  (1) 
conformer_0

$$$$
