
     RDKit          3D

 25 24  0  0  0  0  0  0  0  0999 V2000
  -22.1937   -2.5669    4.5934 C   0  0  0  0  0  0  0  0  0  0  0  0
  -17.0166   -6.1018    3.8757 C   0  0  0  0  0  0  0  0  0  0  0  0
  -24.8573   -8.3060    3.7996 C   0  0  0  0  0  0  0  0  0  0  0  0
  -23.0181   -4.3327    0.1505 C   0  0  1  0  0  0  0  0  0  0  0  0
  -21.7597   -3.7202    1.0472 C   0  0  0  0  0  0  0  0  0  0  0  0
  -23.5368   -8.1345    3.2079 C   0  0  0  0  0  0  0  0  0  0  0  0
  -21.3608   -8.9130    3.4980 C   0  0  0  0  0  0  0  0  0  0  0  0
  -21.2766   -2.5407    1.2615 O   0  0  0  0  0  0  0  0  0  0  0  0
  -19.7455   -4.4673    3.9121 C   0  0  0  0  0  0  0  0  0  0  0  0
  -21.8191   -4.3166   -0.9078 C   0  0  0  0  0  0  0  0  0  0  0  0
  -24.4581   -5.2005    0.9565 C   0  0  0  0  0  0  0  0  0  0  0  0
  -21.0644   -7.9114    5.0141 O   0  0  0  0  0  0  0  0  0  0  0  0
  -14.6424   -5.9986    4.7538 C   0  0  0  0  0  0  0  0  0  0  0  0
  -23.0461   -4.8770    1.0436 N   0  0  0  0  0  0  0  0  0  0  0  0
  -22.4339   -1.5741    4.3266 C   0  0  0  0  0  0  0  0  0  0  0  0
  -19.9516   -5.3212    3.1947 N   0  0  0  0  0  0  0  0  0  0  0  0
  -15.8910   -6.4357    4.7909 C   0  0  0  0  0  0  0  0  0  0  0  0
  -19.0864   -4.4431    4.7760 O   0  0  0  0  0  0  0  0  0  0  0  0
  -24.6277   -6.5849    2.3288 C   0  0  0  0  0  0  0  0  0  0  0  0
  -24.9777   -5.5347    1.8441 N   0  0  0  0  0  0  0  0  0  0  0  0
  -18.8077   -7.6091    3.2921 C   0  0  0  0  0  0  0  0  0  0  0  0
  -25.6261   -7.2770    3.0912 C   0  0  0  0  0  0  0  0  0  0  0  0
  -21.0558   -3.2542    3.2232 C   0  0  1  0  0  0  0  0  0  0  0  0
  -13.6071   -5.5800    5.4848 O   0  0  0  0  0  0  0  0  0  0  0  0
  -18.9642   -6.7075    3.8265 C   0  0  1  0  0  0  0  0  0  0  0  0
  5  4  1  0
  6  3  2  3
  7  6  1  0
  8  5  1  0
  4 10  1  6
 12  7  1  0
 14  4  1  0
 14 11  1  0
 15  1  1  0
 16  9  1  0
 17  2  2  3
 17 13  1  0
 18  9  2  0
 20 11  1  0
 20 19  1  0
 22  3  1  0
 22 19  2  3
 23  1  1  1
 23  8  1  0
 23  9  1  0
 24 13  1  0
 25  2  1  0
 25 16  1  0
 25 21  1  6
M  END
>  <ID>  (1) 
conformer_0

$$$$
