
     RDKit          3D

 27 26  0  0  0  0  0  0  0  0999 V2000
  -22.1376   -1.7730    4.3577 C   0  0  0  0  0  0  0  0  0  0  0  0
  -25.9470   -7.1038    2.7151 C   0  0  0  0  0  0  0  0  0  0  0  0
  -16.7621   -6.1209    4.1952 C   0  0  0  0  0  0  0  0  0  0  0  0
  -22.7215   -3.9603    0.3196 C   0  0  1  0  0  0  0  0  0  0  0  0
  -21.5593   -3.8672    1.8447 C   0  0  1  0  0  0  0  0  0  0  0  0
  -26.2424   -8.0658    3.5889 C   0  0  0  0  0  0  0  0  0  0  0  0
  -15.5063   -6.3185    4.8088 C   0  0  0  0  0  0  0  0  0  0  0  0
  -19.1494   -5.2106    3.9629 C   0  0  0  0  0  0  0  0  0  0  0  0
  -22.1781   -4.1490   -1.1573 C   0  0  0  0  0  0  0  0  0  0  0  0
  -21.6136   -8.7875    4.0128 C   0  0  0  0  0  0  0  0  0  0  0  0
  -24.7302   -6.7663    2.1914 C   0  0  0  0  0  0  0  0  0  0  0  0
  -21.4662   -2.4444    1.0205 O   0  0  0  0  0  0  0  0  0  0  0  0
  -21.2469   -7.8790    5.1653 O   0  0  0  0  0  0  0  0  0  0  0  0
  -23.9243   -5.3152    0.9121 C   0  0  1  0  0  0  0  0  0  0  0  0
  -22.1616   -8.6405    3.5895 N   0  0  0  0  0  0  0  0  0  0  0  0
  -20.3342   -4.8369    3.0062 N   0  0  0  0  0  0  0  0  0  0  0  0
  -23.0214   -5.8130    1.4213 N   0  0  0  0  0  0  0  0  0  0  0  0
  -22.0323   -2.7034    4.8011 C   0  0  0  0  0  0  0  0  0  0  0  0
  -19.0816   -4.3562    4.9589 O   0  0  0  0  0  0  0  0  0  0  0  0
  -13.0892   -6.1982    5.3434 O   0  0  0  0  0  0  0  0  0  0  0  0
  -24.9742   -8.6736    3.5890 C   0  0  0  0  0  0  0  0  0  0  0  0
  -14.3802   -6.3079    4.8871 C   0  0  0  0  0  0  0  0  0  0  0  0
  -24.7746   -5.6274    1.7000 N   0  0  0  0  0  0  0  0  0  0  0  0
  -18.1210   -6.8807    3.5553 C   0  0  2  0  0  0  0  0  0  0  0  0
  -19.6189   -7.4108    3.8558 C   0  0  0  0  0  0  0  0  0  0  0  0
  -20.7332   -3.5276    3.7344 C   0  0  2  0  0  0  0  0  0  0  0  0
  -23.8364   -8.2475    3.3335 C   0  0  0  0  0  0  0  0  0  0  0  0
  5  4  1  0
  6  2  1  0
  7  3  1  0
  4  9  1  6
 11  2  2  3
  5 12  1  6
 13 10  1  0
 14  4  1  0
 15 10  1  0
 16  8  1  0
 14 17  1  1
 18  1  1  0
 19  8  2  0
 21  6  1  0
 22  7  3  0
 22 20  1  0
 23 11  1  0
 23 14  1  0
 24  3  1  0
 24  8  1  0
 24 25  1  1
 26  5  1  0
 26 16  1  0
 26 18  1  1
 27 15  1  0
 27 21  2  3
M  END
>  <ID>  (1) 
conformer_0

$$$$
