
     RDKit          3D

 26 26  0  0  0  0  0  0  0  0999 V2000
  -21.5857   -2.1468    4.2600 C   0  0  0  0  0  0  0  0  0  0  0  0
  -15.5736   -6.1846    4.8325 C   0  0  0  0  0  0  0  0  0  0  0  0
  -26.0044   -7.2306    2.7761 C   0  0  0  0  0  0  0  0  0  0  0  0
  -24.3147   -4.9176    0.9472 C   0  0  0  0  0  0  0  0  0  0  0  0
  -16.7472   -6.1735    4.2842 C   0  0  0  0  0  0  0  0  0  0  0  0
  -21.4207   -3.4185    1.9775 C   0  0  1  0  0  0  0  0  0  0  0  0
  -23.9151   -8.2133    3.4512 C   0  0  0  0  0  0  0  0  0  0  0  0
  -21.1883   -2.3708    1.1415 O   0  0  0  0  0  0  0  0  0  0  0  0
  -19.5218   -6.2194    3.7414 C   0  0  2  0  0  0  0  0  0  0  0  0
  -21.4475   -8.5418    3.9575 C   0  0  0  0  0  0  0  0  0  0  0  0
  -21.0357   -7.9065    4.8910 O   0  0  0  0  0  0  0  0  0  0  0  0
  -19.2084   -3.9516    4.9556 O   0  0  0  0  0  0  0  0  0  0  0  0
  -22.8186   -4.0181    0.4248 C   0  0  2  0  0  0  0  0  0  0  0  0
  -25.5978   -8.2580    3.6279 C   0  0  0  0  0  0  0  0  0  0  0  0
  -20.3077   -4.9582    3.2556 N   0  0  0  0  0  0  0  0  0  0  0  0
  -23.4845   -5.0909    1.0225 N   0  0  0  0  0  0  0  0  0  0  0  0
  -25.2960   -3.9230    1.1382 O   0  0  0  0  0  0  0  0  0  0  0  0
  -22.4413   -2.4218    4.5483 C   0  0  0  0  0  0  0  0  0  0  0  0
  -22.5834   -8.6780    3.5822 N   0  0  0  0  0  0  0  0  0  0  0  0
  -18.1935   -6.8674    3.6002 C   0  0  0  0  0  0  0  0  0  0  0  0
  -22.4829   -4.2034   -0.8140 C   0  0  0  0  0  0  0  0  0  0  0  0
  -13.2310   -6.1712    5.2537 O   0  0  0  0  0  0  0  0  0  0  0  0
  -14.3769   -6.2747    4.9113 C   0  0  0  0  0  0  0  0  0  0  0  0
  -23.6799   -7.3931    2.1987 N   0  0  0  0  0  0  0  0  0  0  0  0
  -24.6552   -6.6333    2.4032 C   0  0  0  0  0  0  0  0  0  0  0  0
  -20.1697   -3.5393    3.8119 C   0  0  1  0  0  0  0  0  0  0  0  0
  5  2  1  0
  6  8  1  6
 11  9  1  0
 11 10  1  0
 13  6  1  0
 14  3  2  0
 14  7  1  0
 15  9  1  0
 16  4  1  0
 16 13  1  0
 17  4  1  0
 18  1  2  3
 19  7  1  0
 19 10  1  0
 20  5  1  0
  9 20  1  6
 13 21  1  6
 23  2  3  0
 23 22  1  0
 24  7  2  0
 25  3  1  0
 25 24  1  0
 26  1  1  0
 26  6  1  0
 26 12  1  1
 26 15  1  0
M  END
>  <ID>  (1) 
conformer_0

$$$$
