
     RDKit          3D

 28 28  0  0  0  0  0  0  0  0999 V2000
  -26.0748   -7.2059    2.7868 C   0  0  0  0  0  0  0  0  0  0  0  0
  -22.7397   -2.8737    4.8582 C   0  0  0  0  0  0  0  0  0  0  0  0
  -15.1244   -5.8456    4.4751 C   0  0  0  0  0  0  0  0  0  0  0  0
  -24.0737   -5.3573    0.9106 C   0  0  0  0  0  0  0  0  0  0  0  0
  -16.3326   -6.0462    4.5401 C   0  0  0  0  0  0  0  0  0  0  0  0
  -20.7066   -3.5384    3.2583 C   0  0  0  0  0  0  0  0  0  0  0  0
  -21.8876   -3.5202    1.5524 C   0  0  0  0  0  0  0  0  0  0  0  0
  -22.1910   -4.0236   -1.1237 C   0  0  0  0  0  0  0  0  0  0  0  0
  -24.8384   -6.5154    2.2130 C   0  0  0  0  0  0  0  0  0  0  0  0
  -19.8552   -7.2589    3.8568 C   0  0  0  0  0  0  0  0  0  0  0  0
  -21.0549   -2.2747    1.2892 O   0  0  0  0  0  0  0  0  0  0  0  0
  -21.0441   -7.8343    5.3177 O   0  0  0  0  0  0  0  0  0  0  0  0
  -21.8302   -2.1341    4.1851 C   0  0  0  0  0  0  0  0  0  0  0  0
  -23.1326   -4.1024    0.2652 C   0  0  0  0  0  0  0  0  0  0  0  0
  -22.1620   -8.7513    3.6072 N   0  0  0  0  0  0  0  0  0  0  0  0
  -20.7118   -4.5390    2.9808 N   0  0  0  0  0  0  0  0  0  0  0  0
  -19.0884   -4.3313    4.9584 O   0  0  0  0  0  0  0  0  0  0  0  0
  -17.3636   -6.1301    3.7879 C   0  0  0  0  0  0  0  0  0  0  0  0
  -23.0108   -5.0928    0.8979 N   0  0  0  0  0  0  0  0  0  0  0  0
  -13.2097   -5.9174    5.4870 O   0  0  0  0  0  0  0  0  0  0  0  0
  -24.2401   -8.3356    3.2000 C   0  0  0  0  0  0  0  0  0  0  0  0
  -25.5512   -8.5198    3.0760 C   0  0  0  0  0  0  0  0  0  0  0  0
  -14.3778   -6.2324    4.8326 C   0  0  0  0  0  0  0  0  0  0  0  0
  -24.7672   -5.7095    1.9881 N   0  0  0  0  0  0  0  0  0  0  0  0
  -21.6526   -8.8225    4.0925 C   0  0  0  0  0  0  0  0  0  0  0  0
  -23.5428   -7.4529    2.3181 N   0  0  0  0  0  0  0  0  0  0  0  0
  -18.5528   -7.3779    3.6995 C   0  0  0  0  0  0  0  0  0  0  0  0
  -19.3233   -5.2141    3.8297 C   0  0  0  0  0  0  0  0  0  0  0  0
  5  3  1  0
  7  6  1  0
  9  1  2  0
 11  7  1  0
 12 10  1  0
 13  2  1  0
 13  6  1  0
 14  7  1  0
 14  8  1  0
 16  6  1  0
 18  5  1  0
 19  4  1  0
 19 14  1  0
 22  1  1  0
 22 21  1  0
 23  3  1  0
 23 20  1  0
 24  4  1  0
 24  9  1  0
 25 12  1  0
 25 15  1  0
 26  9  1  0
 26 21  2  0
 27 10  1  0
 27 18  1  0
 28 10  1  0
 28 16  1  0
 28 17  1  0
M  END
>  <ID>  (1) 
conformer_0

$$$$
