
     RDKit          3D

 23 22  0  0  0  0  0  0  0  0999 V2000
  -22.1819   -2.5858    4.5472 C   0  0  0  0  0  0  0  0  0  0  0  0
  -15.4238   -6.4788    4.9302 C   0  0  0  0  0  0  0  0  0  0  0  0
  -25.7672   -7.9052    2.5586 C   0  0  0  0  0  0  0  0  0  0  0  0
  -24.2626   -5.5908    1.5730 C   0  0  1  0  0  0  0  0  0  0  0  0
  -21.1874   -3.6208    2.7122 C   0  0  0  0  0  0  0  0  0  0  0  0
  -16.5302   -5.9977    4.4531 C   0  0  0  0  0  0  0  0  0  0  0  0
  -23.8397   -8.9438    3.4070 C   0  0  0  0  0  0  0  0  0  0  0  0
  -22.0950   -4.1236    0.9496 C   0  0  2  0  0  0  0  0  0  0  0  0
  -21.0482   -2.5233    1.2275 O   0  0  0  0  0  0  0  0  0  0  0  0
  -21.2999   -8.9223    3.7816 C   0  0  2  0  0  0  0  0  0  0  0  0
  -18.8874   -4.1502    4.6150 O   0  0  0  0  0  0  0  0  0  0  0  0
  -19.6969   -4.3157    3.8051 C   0  0  1  0  0  0  0  0  0  0  0  0
  -21.5471   -8.5382    4.9337 O   0  0  0  0  0  0  0  0  0  0  0  0
  -21.9195   -4.2855   -0.6996 C   0  0  0  0  0  0  0  0  0  0  0  0
  -23.3432   -5.6075    1.2341 N   0  0  0  0  0  0  0  0  0  0  0  0
  -17.9256   -6.7777    3.7660 C   0  0  1  0  0  0  0  0  0  0  0  0
  -21.9995   -1.5295    4.3012 C   0  0  0  0  0  0  0  0  0  0  0  0
  -14.3840   -6.0060    4.9182 C   0  0  0  0  0  0  0  0  0  0  0  0
  -24.0744   -4.0036    0.5293 C   0  0  0  0  0  0  0  0  0  0  0  0
  -19.1406   -6.8115    3.7307 C   0  0  0  0  0  0  0  0  0  0  0  0
  -24.5064   -7.3891    2.2617 C   0  0  0  0  0  0  0  0  0  0  0  0
  -25.3404   -8.8974    3.6313 C   0  0  0  0  0  0  0  0  0  0  0  0
  -20.4649   -5.2567    3.0196 N   0  0  0  0  0  0  0  0  0  0  0  0
  6  2  1  0
  8  1  1  0
  9  5  1  0
 10  7  1  0
 12 11  1  1
 10 13  1  1
  8 14  1  6
 15  4  1  0
 15  8  1  0
 16  6  1  1
 16 10  1  0
 17  1  1  0
 18  2  2  3
  4 19  1  6
 20 12  1  0
 20 16  1  0
 21  3  1  0
 21  4  1  0
 22  3  2  3
 22  7  1  0
 23  5  1  0
 23 12  1  0
M  END
>  <ID>  (1) 
conformer_0

$$$$
