
     RDKit          3D

 24 24  0  0  0  0  0  0  0  0999 V2000
  -16.0953   -5.9771    4.4323 C   0  0  0  0  0  0  0  0  0  0  0  0
  -21.7008   -1.6056    3.7176 C   0  0  0  0  0  0  0  0  0  0  0  0
  -26.0219   -7.6850    3.1920 C   0  0  0  0  0  0  0  0  0  0  0  0
  -23.9167   -5.4421    1.3374 C   0  0  0  0  0  0  0  0  0  0  0  0
  -19.0709   -7.5474    3.6956 C   0  0  0  0  0  0  0  0  0  0  0  0
  -21.8517   -3.4936    1.3117 C   0  0  0  0  0  0  0  0  0  0  0  0
  -24.0377   -8.5263    3.6190 C   0  0  0  0  0  0  0  0  0  0  0  0
  -19.2284   -5.9325    4.0239 C   0  0  0  0  0  0  0  0  0  0  0  0
  -21.0590   -2.3546    0.9660 O   0  0  0  0  0  0  0  0  0  0  0  0
  -22.4855   -4.0761   -1.0464 C   0  0  0  0  0  0  0  0  0  0  0  0
  -21.4713   -8.5100    3.9308 C   0  0  0  0  0  0  0  0  0  0  0  0
  -19.0572   -4.5020    5.0075 O   0  0  0  0  0  0  0  0  0  0  0  0
  -14.7945   -6.3445    4.8581 C   0  0  0  0  0  0  0  0  0  0  0  0
  -20.4999   -4.5873    3.1013 N   0  0  0  0  0  0  0  0  0  0  0  0
  -20.9408   -3.7659    3.2282 C   0  0  0  0  0  0  0  0  0  0  0  0
  -22.0354   -2.8690    4.4554 C   0  0  0  0  0  0  0  0  0  0  0  0
  -21.1678   -7.9870    3.9942 O   0  0  0  0  0  0  0  0  0  0  0  0
  -23.2109   -5.0512    1.3561 N   0  0  0  0  0  0  0  0  0  0  0  0
  -17.3390   -6.3304    3.8984 C   0  0  0  0  0  0  0  0  0  0  0  0
  -23.9878   -6.9867    2.3489 N   0  0  0  0  0  0  0  0  0  0  0  0
  -25.4884   -8.4921    4.1198 C   0  0  0  0  0  0  0  0  0  0  0  0
  -14.1968   -7.1263    4.8512 O   0  0  0  0  0  0  0  0  0  0  0  0
  -23.2576   -4.1190    0.1898 C   0  0  0  0  0  0  0  0  0  0  0  0
  -24.6828   -7.1250    2.6015 C   0  0  0  0  0  0  0  0  0  0  0  0
  8  5  1  0
  9  6  1  0
 12  8  1  0
 13  1  1  0
 14  8  1  0
 15  6  1  0
 15 14  1  0
 16  2  1  0
 16 15  1  0
 17  5  1  0
 17 11  1  0
 18  4  1  0
 19  1  1  0
 19  8  1  0
 20  4  1  0
 21  3  2  0
 21  7  1  0
 22 13  2  0
 23  6  1  0
 23 10  1  0
 23 18  1  0
 24  3  1  0
 24  7  2  0
 24 20  1  0
M  END
>  <ID>  (1) 
conformer_0

$$$$
