
     RDKit          3D

 27 27  0  0  0  0  0  0  0  0999 V2000
  -25.9483   -7.5519    3.2565 C   0  0  0  0  0  0  0  0  0  0  0  0
  -14.8086   -5.9841    4.8813 C   0  0  0  0  0  0  0  0  0  0  0  0
  -22.1241   -1.4620    3.9549 C   0  0  0  0  0  0  0  0  0  0  0  0
  -22.5252   -3.7329    0.3985 C   0  0  1  0  0  0  0  0  0  0  0  0
  -21.6581   -3.1586    2.2429 C   0  0  0  0  0  0  0  0  0  0  0  0
  -15.8385   -5.6385    4.6155 C   0  0  0  0  0  0  0  0  0  0  0  0
  -19.0655   -6.1485    4.0522 C   0  0  1  0  0  0  0  0  0  0  0  0
  -21.2281   -8.7018    3.7690 C   0  0  0  0  0  0  0  0  0  0  0  0
  -24.8931   -6.5253    2.4656 C   0  0  0  0  0  0  0  0  0  0  0  0
  -16.9771   -6.3345    4.0044 C   0  0  0  0  0  0  0  0  0  0  0  0
  -21.9303   -4.2999   -0.9428 C   0  0  0  0  0  0  0  0  0  0  0  0
  -21.6981   -8.3574    5.2183 O   0  0  0  0  0  0  0  0  0  0  0  0
  -21.1894   -2.3314    0.8495 O   0  0  0  0  0  0  0  0  0  0  0  0
  -19.2826   -4.1847    4.9673 O   0  0  0  0  0  0  0  0  0  0  0  0
  -22.1038   -2.7153    4.6364 C   0  0  0  0  0  0  0  0  0  0  0  0
  -19.8299   -5.3178    3.4390 N   0  0  0  0  0  0  0  0  0  0  0  0
  -25.3114   -8.6425    3.5518 C   0  0  0  0  0  0  0  0  0  0  0  0
  -24.8642   -5.7818    2.0626 N   0  0  0  0  0  0  0  0  0  0  0  0
  -23.8703   -4.8687    1.0215 C   0  0  0  0  0  0  0  0  0  0  0  0
  -18.9572   -7.7088    3.7263 C   0  0  0  0  0  0  0  0  0  0  0  0
  -23.0412   -5.2430    1.0753 N   0  0  0  0  0  0  0  0  0  0  0  0
  -22.1639   -9.0116    3.3673 N   0  0  0  0  0  0  0  0  0  0  0  0
  -13.1270   -5.7987    5.5949 O   0  0  0  0  0  0  0  0  0  0  0  0
  -23.8056   -8.2923    3.2450 C   0  0  0  0  0  0  0  0  0  0  0  0
  -22.4665   -3.4612    1.4465 N   0  0  0  0  0  0  0  0  0  0  0  0
  -20.5215   -3.9432    3.6724 C   0  0  1  0  0  0  0  0  0  0  0  0
  -23.5567   -7.4874    2.5942 N   0  0  0  0  0  0  0  0  0  0  0  0
  6  2  2  3
  9  1  2  0
 10  6  1  0
 10  7  1  0
  4 11  1  1
 12  8  1  0
 13  5  2  0
 15  3  1  0
 16  7  1  0
 17  1  1  0
 18  9  1  0
 19 18  1  0
  7 20  1  6
 21  4  1  0
 21 19  1  0
 22  8  1  0
 23  2  1  0
 24 17  1  0
 24 22  1  0
 25  4  1  0
 25  5  1  0
 26  5  1  0
 26 14  1  6
 26 15  1  0
 26 16  1  0
 27  9  1  0
 27 24  2  0
M  END
>  <ID>  (1) 
conformer_0

$$$$
