
     RDKit          3D

 25 26  0  0  0  0  0  0  0  0999 V2000
  -25.8448   -7.6950    3.4415 C   0  0  0  0  0  0  0  0  0  0  0  0
  -14.8209   -6.0919    4.5706 C   0  0  0  0  0  0  0  0  0  0  0  0
  -21.8663   -1.4606    3.7557 C   0  0  0  0  0  0  0  0  0  0  0  0
  -24.3780   -4.7676    1.0401 C   0  0  0  0  0  0  0  0  0  0  0  0
  -16.1947   -6.2529    4.5881 C   0  0  0  0  0  0  0  0  0  0  0  0
  -21.6623   -4.0160    1.7761 C   0  0  2  0  0  0  0  0  0  0  0  0
  -19.7299   -6.4408    3.7661 C   0  0  2  0  0  0  0  0  0  0  0  0
  -23.7194   -8.6213    3.5339 C   0  0  0  0  0  0  0  0  0  0  0  0
  -21.2819   -2.5379    1.0978 O   0  0  0  0  0  0  0  0  0  0  0  0
  -19.0939   -3.7571    4.7489 O   0  0  0  0  0  0  0  0  0  0  0  0
  -22.6834   -4.2483   -1.1090 C   0  0  0  0  0  0  0  0  0  0  0  0
  -23.0770   -4.0267    0.4633 C   0  0  2  0  0  0  0  0  0  0  0  0
  -20.6470   -7.6819    5.1404 O   0  0  0  0  0  0  0  0  0  0  0  0
  -21.2942   -8.6675    4.0305 C   0  0  0  0  0  0  0  0  0  0  0  0
  -25.4284   -8.7127    3.8142 C   0  0  0  0  0  0  0  0  0  0  0  0
  -17.4887   -6.2851    3.9801 C   0  0  0  0  0  0  0  0  0  0  0  0
  -20.3902   -4.7420    3.0829 N   0  0  0  0  0  0  0  0  0  0  0  0
  -23.1276   -5.0302    1.1391 N   0  0  0  0  0  0  0  0  0  0  0  0
  -13.1578   -5.8833    5.5970 O   0  0  0  0  0  0  0  0  0  0  0  0
  -23.6949   -7.8265    2.5744 N   0  0  0  0  0  0  0  0  0  0  0  0
  -18.7541   -7.6259    3.4212 C   0  0  0  0  0  0  0  0  0  0  0  0
  -22.1835   -2.6477    4.4168 C   0  0  0  0  0  0  0  0  0  0  0  0
  -21.6794   -8.5026    3.5396 N   0  0  0  0  0  0  0  0  0  0  0  0
  -24.5301   -6.9591    2.7082 C   0  0  0  0  0  0  0  0  0  0  0  0
  -20.2573   -3.8747    3.5747 C   0  0  2  0  0  0  0  0  0  0  0  0
  5  2  2  3
  6  9  1  6
 12  4  1  0
 12  6  1  0
 12 11  1  1
 13  7  1  0
 14 13  1  0
 15  1  2  0
 15  8  1  0
 16  5  1  0
 17  7  1  0
 18  4  1  0
 18 12  1  0
 19  2  1  0
 20  8  2  0
  7 21  1  6
 21 16  1  0
 22  3  1  0
 23  8  1  0
 23 14  1  0
 24  1  1  0
 24 20  1  0
 25  6  1  0
 25 10  1  6
 25 17  1  0
 25 22  1  0
M  END
>  <ID>  (1) 
conformer_0

$$$$
