
     RDKit          3D

 23 23  0  0  0  0  0  0  0  0999 V2000
  -21.8961   -3.3812    4.4601 C   0  0  0  0  0  0  0  0  0  0  0  0
  -15.4027   -6.4659    4.8739 C   0  0  0  0  0  0  0  0  0  0  0  0
  -22.7108   -3.8593    0.3681 C   0  0  0  0  0  0  0  0  0  0  0  0
  -25.6179   -8.1007    3.3268 C   0  0  0  0  0  0  0  0  0  0  0  0
  -23.9632   -8.4678    3.1860 C   0  0  0  0  0  0  0  0  0  0  0  0
  -24.0335   -4.9719    0.9956 C   0  0  0  0  0  0  0  0  0  0  0  0
  -19.2405   -6.6397    3.9674 C   0  0  0  0  0  0  0  0  0  0  0  0
  -16.2654   -5.5344    4.3834 C   0  0  0  0  0  0  0  0  0  0  0  0
  -21.1264   -8.5790    3.6403 C   0  0  0  0  0  0  0  0  0  0  0  0
  -21.2607   -2.2416    0.9738 O   0  0  0  0  0  0  0  0  0  0  0  0
  -21.7414   -1.7801    3.9263 C   0  0  0  0  0  0  0  0  0  0  0  0
  -21.7802   -3.1630    1.9369 C   0  0  0  0  0  0  0  0  0  0  0  0
  -20.8832   -7.6681    5.0566 O   0  0  0  0  0  0  0  0  0  0  0  0
  -23.3085   -5.0355    1.1043 N   0  0  0  0  0  0  0  0  0  0  0  0
  -14.2764   -6.1740    4.9084 C   0  0  0  0  0  0  0  0  0  0  0  0
  -24.9889   -6.7781    2.4413 C   0  0  0  0  0  0  0  0  0  0  0  0
  -17.5523   -5.8969    3.8996 C   0  0  0  0  0  0  0  0  0  0  0  0
  -13.3511   -6.3021    4.7839 O   0  0  0  0  0  0  0  0  0  0  0  0
  -19.9814   -4.2496    4.2467 C   0  0  0  0  0  0  0  0  0  0  0  0
  -23.2262   -7.4013    2.0891 N   0  0  0  0  0  0  0  0  0  0  0  0
  -20.0914   -5.6917    3.3840 N   0  0  0  0  0  0  0  0  0  0  0  0
  -18.7018   -7.7111    3.5732 C   0  0  0  0  0  0  0  0  0  0  0  0
  -21.5998   -8.3206    3.2086 N   0  0  0  0  0  0  0  0  0  0  0  0
  5  4  1  0
  8  2  1  0
 11  1  1  0
 12  3  1  0
 12 10  1  0
 12 11  1  0
 13  9  1  0
 14  3  1  0
 14  6  1  0
 15  2  2  0
 16  4  1  0
 16  6  1  0
 17  7  1  0
 17  8  1  0
 18 15  2  0
 19  1  1  0
 20  5  2  0
 20 16  1  0
 21  7  1  0
 21 19  1  0
 22  7  1  0
 22  9  1  0
 23  9  1  0
M  END
>  <ID>  (1) 
conformer_0

$$$$
