
     RDKit          3D

 27 28  0  0  0  0  0  0  0  0999 V2000
  -22.5322   -2.9838    4.9139 C   0  0  0  0  0  0  0  0  0  0  0  0
  -25.9736   -6.9096    3.0454 C   0  0  0  0  0  0  0  0  0  0  0  0
  -15.7653   -6.0734    4.6608 C   0  0  0  0  0  3  0  0  0  0  0  0
  -21.6182   -4.0176    1.9685 C   0  0  1  0  0  0  0  0  0  0  0  0
  -20.6041   -3.7637    3.8786 C   0  0  0  0  0  0  0  0  0  0  0  0
  -21.1497   -2.2709    1.1994 O   0  0  0  0  0  0  0  0  0  0  0  0
  -23.8798   -8.1936    3.2760 C   0  0  0  0  0  0  0  0  0  0  0  0
  -26.2500   -8.0408    3.8217 C   0  0  0  0  0  0  0  0  0  0  0  0
  -19.3530   -3.3611    5.1000 O   0  0  0  0  0  0  0  0  0  0  0  0
  -17.0326   -6.1463    4.2374 C   0  0  0  0  0  0  0  0  0  0  0  0
  -24.4300   -4.7538    0.4621 C   0  0  1  0  0  0  0  0  0  0  0  0
  -19.4334   -6.3776    3.9699 C   0  0  2  0  0  0  0  0  0  0  0  0
  -21.3293   -8.8611    3.4761 C   0  0  0  0  0  0  0  0  0  0  0  0
  -14.4650   -6.5084    4.8718 C   0  0  0  0  0  0  0  0  0  0  0  0
  -22.8881   -5.2274    1.4479 N   0  0  0  0  0  0  0  0  0  0  0  0
  -20.9194   -7.4276    4.6354 O   0  0  0  0  0  0  0  0  0  0  0  0
  -20.0994   -4.9161    3.5309 N   0  0  0  0  0  0  0  0  0  0  0  0
  -22.2027   -4.2585   -1.0939 C   0  0  0  0  0  0  0  0  0  0  0  0
  -22.3302   -8.8295    3.3880 N   0  0  0  0  0  0  0  0  0  0  0  0
  -25.0925   -5.6120    1.9498 N   0  0  0  0  0  0  0  0  0  0  0  0
  -21.7129   -2.0661    4.3476 C   0  0  0  0  0  0  0  0  0  0  0  0
  -18.6402   -7.5200    3.6766 C   0  0  0  0  0  0  0  0  0  0  0  0
  -13.0691   -5.8988    5.5474 O   0  0  0  0  0  0  0  0  0  0  0  0
  -25.0213   -6.4799    2.5048 C   0  0  0  0  0  0  0  0  0  0  0  0
  -22.6464   -4.1255    0.4053 C   0  0  1  0  0  0  0  0  0  0  0  0
  -24.9399   -8.5414    3.9314 C   0  0  0  0  0  0  0  0  0  0  0  0
  -13.6631   -7.1414    4.6302 O   0  0  0  0  0  0  0  0  0  0  0  0
  4  6  1  1
  8  2  1  0
  9  5  2  0
 10  3  2  3
 14  3  1  0
 15  4  1  0
 15 11  1  0
 16 12  1  0
 16 13  1  0
 17  5  1  0
 17 12  1  0
 19  7  1  0
 19 13  1  0
 11 20  1  1
 21  1  1  0
 21  5  1  0
 22 10  1  0
 12 22  1  6
 23 14  1  0
 24  2  2  3
 24 20  1  0
 25  4  1  0
 25 11  1  0
 25 15  1  0
 25 18  1  6
 26  7  2  3
 26  8  1  0
 27 14  2  0
M  RAD  1   3   2
M  END
>  <ID>  (1) 
conformer_0

$$$$
