
     RDKit          3D

 30 31  0  0  0  0  0  0  0  0999 V2000
  -15.3542   -5.7484    4.2743 C   0  0  0  0  0  0  0  0  0  0  0  0
  -22.5369   -2.8526    4.8577 C   0  0  0  0  0  0  0  0  0  0  0  0
  -25.8133   -7.7166    2.8372 C   0  0  0  0  0  0  0  0  0  0  0  0
  -20.2050   -4.3725    3.8548 C   0  0  0  0  0  0  0  0  0  0  0  0
  -22.1903   -3.9527    0.4221 C   0  0  1  0  0  0  0  0  0  0  0  0
  -21.2280   -3.5436    2.6582 C   0  0  2  0  0  0  0  0  0  0  0  0
  -21.6475   -8.7942    3.8886 C   0  0  0  0  0  0  0  0  0  0  0  0
  -21.2844   -2.6716    1.0688 O   0  0  0  0  0  0  0  0  0  0  0  0
  -24.7999   -6.7830    2.3589 C   0  0  0  0  0  0  0  0  0  0  0  0
  -22.4757   -4.0787   -1.0180 C   0  0  0  0  0  0  0  0  0  0  0  0
  -24.2717   -5.5588    1.0447 C   0  0  0  0  0  0  0  0  0  0  0  0
  -21.2444   -7.8114    4.8802 O   0  0  0  0  0  0  0  0  0  0  0  0
  -18.8297   -4.3536    5.1354 O   0  0  0  0  0  0  0  0  0  0  0  0
  -14.5040   -6.1413    4.8380 C   0  0  0  0  0  0  0  0  0  0  0  0
  -16.8370   -6.0746    4.6374 C   0  0  0  0  0  0  0  0  0  0  0  0
  -21.9028   -2.2871    4.4264 C   0  0  0  0  0  0  0  0  0  0  0  0
  -13.4678   -6.5447    4.8448 O   0  0  0  0  0  0  0  0  0  0  0  0
  -23.2989   -5.0498    0.9017 N   0  0  0  0  0  0  0  0  0  0  0  0
  -22.1967   -8.7912    3.4494 N   0  0  0  0  0  0  0  0  0  0  0  0
  -23.5062   -7.5626    2.3799 N   0  0  0  0  0  0  0  0  0  0  0  0
  -19.9557   -6.2085    3.4930 N   0  0  0  0  0  0  0  0  0  0  0  0
  -25.4084   -8.6229    3.5017 C   0  0  0  0  0  0  0  0  0  0  0  0
  -17.2541   -6.3429    3.3723 C   0  0  0  0  0  0  0  0  0  0  0  0
  -21.6672   -4.1151    2.4026 N   0  0  0  0  0  0  0  0  0  0  0  0
  -24.8130   -5.9006    2.2547 N   0  0  0  0  0  0  0  0  0  0  0  0
  -23.9201   -8.4887    3.3343 C   0  0  0  0  0  0  0  0  0  0  0  0
  -19.9046   -7.2640    3.7031 C   0  0  0  0  0  0  0  0  0  0  0  0
  -23.9425   -3.9144    0.3015 C   0  0  0  0  0  0  0  0  0  0  0  0
  -19.0161   -8.0176    3.3324 C   0  0  0  0  0  0  0  0  0  0  0  0
  -18.7122   -5.6450    4.0524 C   0  0  0  0  0  0  0  0  0  0  0  0
  6  4  1  1
  8  5  1  0
  8  6  1  0
  9  3  2  0
  5 10  1  1
 12  7  1  0
 14  1  1  0
 15  1  1  0
 16  2  1  0
 16  6  1  0
 17 14  2  0
 18  5  1  0
 18 11  1  0
 19  7  1  0
 20  9  1  0
 22  3  1  0
 23 15  1  0
 24  6  1  0
 25  9  1  0
 25 11  1  0
 26 19  1  0
 26 20  2  0
 26 22  1  0
 27 12  1  0
 27 21  1  0
 28  5  1  0
 28 18  1  0
 29 27  2  3
 30 13  2  0
 30 21  1  0
 30 23  1  0
M  END
>  <ID>  (1) 
conformer_0

$$$$
