
     RDKit          3D

 31 34  0  0  0  0  0  0  0  0999 V2000
  -15.8989   -5.4325    4.4924 C   0  0  0  0  0  0  0  0  0  0  0  0
  -21.6890   -1.6795    3.7775 C   0  0  0  0  0  0  0  0  0  0  0  0
  -25.1978   -8.7394    3.7855 C   0  0  0  0  0  0  0  0  0  0  0  0
  -24.5855   -5.5477    1.6066 C   0  0  1  0  0  0  0  0  0  0  0  0
  -21.5171   -3.9056    1.7470 C   0  0  0  0  0  0  0  0  0  0  0  0
  -24.6382   -6.9378    2.5783 C   0  0  0  0  0  0  0  0  0  0  0  0
  -22.5541   -4.0119    0.3746 C   0  0  2  0  0  0  0  0  0  0  0  0
  -21.2588   -2.3637    0.9686 O   0  0  0  0  0  0  0  0  0  0  0  0
  -20.5308   -3.8963    3.5784 C   0  0  1  0  0  0  0  0  0  0  0  0
  -19.3560   -3.9260    4.9781 O   0  0  0  0  0  0  0  0  0  0  0  0
  -22.3031   -9.1396    4.3155 C   0  0  0  0  0  0  0  0  0  0  0  0
  -16.3330   -6.6589    4.8813 C   0  0  2  0  0  0  0  0  0  0  0  0
  -19.5610   -5.4607    3.4517 N   0  0  0  0  0  0  0  0  0  0  0  0
  -14.6443   -6.2058    4.9379 C   0  0  1  0  0  0  0  0  0  0  0  0
  -22.0204   -4.1081   -0.9233 C   0  0  0  0  0  0  0  0  0  0  0  0
  -23.2993   -5.0579    1.2520 N   0  0  0  0  0  0  0  0  0  0  0  0
  -25.4992   -4.4327    2.4531 O   0  0  0  0  0  0  0  0  0  0  0  0
  -21.0781   -7.7366    4.9452 O   0  0  0  0  0  0  0  0  0  0  0  0
  -17.5239   -6.2710    3.6476 C   0  0  0  0  0  0  0  0  0  0  0  0
  -13.2539   -5.8946    5.4132 O   0  0  0  0  0  0  0  0  0  0  0  0
  -21.7103   -2.7850    4.4308 C   0  0  0  0  0  0  0  0  0  0  0  0
  -24.3949   -4.2719    0.3941 C   0  0  0  0  0  0  0  0  0  0  0  0
  -23.8286   -8.5611    3.6164 C   0  0  0  0  0  0  0  0  0  0  0  0
  -22.0508   -9.1373    3.6454 N   0  0  0  0  0  0  0  0  0  0  0  0
  -25.7247   -7.6098    3.0099 C   0  0  0  0  0  0  0  0  0  0  0  0
  -19.2139   -8.1769    3.4670 C   0  0  0  0  0  0  0  0  0  0  0  0
  -24.4186   -6.5304    2.1721 N   0  0  0  0  0  0  0  0  0  0  0  0
  -18.8142   -5.3864    4.1763 C   0  0  1  0  0  0  0  0  0  0  0  0
  -21.1168   -4.1165    2.5719 N   0  0  0  0  0  0  0  0  0  0  0  0
  -13.7889   -6.3673    5.0113 N   0  0  0  0  0  0  0  0  0  0  0  0
  -19.4470   -7.2931    3.9573 C   0  0  0  0  0  0  0  0  0  0  0  0
  7  5  1  0
  8  5  2  0
 10  9  1  0
 12  1  1  0
 13  9  1  0
 14  1  1  0
 14 12  1  0
  7 15  1  6
 16  4  1  0
 16  7  1  0
 12 19  1  6
 21  2  1  0
  9 21  1  1
 22  4  1  0
 22  7  1  0
 22 16  1  0
 22 17  1  0
 23  3  2  3
 23 11  1  0
 24 11  1  0
 25  3  1  0
 25  6  2  3
  4 27  1  6
 27  6  1  0
 28 10  1  0
 28 13  1  0
 28 19  1  6
 29  5  1  0
 29  9  1  0
 14 30  1  6
 30 20  1  0
 31 18  1  0
 31 26  2  3
 31 28  1  0
M  END
>  <ID>  (1) 
conformer_0

$$$$
