
     RDKit          3D

 26 25  0  0  0  0  0  0  0  0999 V2000
  -26.3428   -7.7598    3.3801 C   0  0  0  0  0  0  0  0  0  0  0  0
  -21.3030   -2.3557    4.1009 C   0  0  0  0  0  0  0  0  0  0  0  0
  -15.9746   -6.1321    4.7255 C   0  0  0  0  0  0  0  0  0  0  0  0
  -24.1719   -5.2183    0.8065 C   0  0  0  0  0  0  0  0  0  0  0  0
  -23.3335   -3.9938    0.1187 C   0  0  2  0  0  0  0  0  0  0  0  0
  -21.9772   -9.1746    4.1870 C   0  0  0  0  0  0  0  0  0  0  0  0
  -17.1214   -6.1031    3.9747 C   0  0  0  0  0  0  0  0  0  0  0  0
  -23.8411   -8.3029    3.5383 C   0  0  0  0  0  0  0  0  0  0  0  0
  -19.2025   -4.2328    5.1240 O   0  0  0  0  0  0  0  0  0  0  0  0
  -21.3336   -2.5014    0.8780 O   0  0  0  0  0  0  0  0  0  0  0  0
  -21.8786   -3.9828    1.3364 C   0  0  0  0  0  0  0  0  0  0  0  0
  -25.5924   -7.1731    2.5098 C   0  0  0  0  0  0  0  0  0  0  0  0
  -19.4114   -5.1972    3.7483 C   0  0  0  0  0  0  0  0  0  0  0  0
  -23.3568   -5.2796    1.0213 N   0  0  0  0  0  0  0  0  0  0  0  0
  -14.6356   -6.1440    4.8718 C   0  0  0  0  0  0  0  0  0  0  0  0
  -13.5417   -5.6865    5.4809 O   0  0  0  0  0  0  0  0  0  0  0  0
  -20.2589   -4.9212    2.9603 N   0  0  0  0  0  0  0  0  0  0  0  0
  -22.6259   -4.3657   -1.0846 C   0  0  0  0  0  0  0  0  0  0  0  0
  -22.3214   -2.3469    4.6411 C   0  0  0  0  0  0  0  0  0  0  0  0
  -20.7646   -7.5790    4.3483 O   0  0  0  0  0  0  0  0  0  0  0  0
  -18.4142   -7.2056    3.5177 C   0  0  2  0  0  0  0  0  0  0  0  0
  -19.9890   -7.5923    3.4866 C   0  0  0  0  0  0  0  0  0  0  0  0
  -20.7087   -3.4529    3.1952 C   0  0  0  0  0  0  0  0  0  0  0  0
  -25.0318   -8.0367    4.1442 C   0  0  0  0  0  0  0  0  0  0  0  0
  -24.5469   -6.7290    2.3995 C   0  0  0  0  0  0  0  0  0  0  0  0
  -21.4607   -8.4241    3.5379 N   0  0  0  0  0  0  0  0  0  0  0  0
  7  3  1  0
  8  6  1  0
 11  5  1  0
 11 10  1  0
 12  1  1  0
 13  9  2  0
 14  4  1  0
 14  5  1  0
 15  3  1  0
 16 15  1  0
 17 13  1  0
  5 18  1  6
 19  2  2  3
 21  7  1  1
 21 13  1  0
 22 20  1  0
 22 21  1  0
 23  2  1  0
 23 17  1  0
 24  1  1  0
 24  8  2  3
 25  4  1  0
 25 12  1  0
 26  6  1  0
 26 20  1  0
M  END
>  <ID>  (1) 
conformer_0

$$$$
