
     RDKit          3D

 31 32  0  0  0  0  0  0  0  0999 V2000
  -16.7380   -6.2209    4.7967 C   0  0  0  0  0  0  0  0  0  0  0  0
  -21.4139   -3.0181    4.2443 C   0  0  0  0  0  0  0  0  0  0  0  0
  -26.1341   -7.4784    3.4631 C   0  0  0  0  0  0  0  0  0  0  0  0
  -23.7730   -4.9018    0.9723 C   0  0  0  0  0  0  0  0  0  0  0  0
  -22.4958   -3.7934    0.2612 C   0  0  0  0  0  0  0  0  0  0  0  0
  -23.8173   -8.2695    3.3595 C   0  0  0  0  0  0  0  0  0  0  0  0
  -15.3425   -5.9721    4.7055 C   0  0  0  0  0  0  0  0  0  0  0  0
  -21.6545   -2.0483    1.1927 O   0  0  0  0  0  0  0  0  0  0  0  0
  -18.9768   -4.1428    4.8373 O   0  0  0  0  0  0  0  0  0  0  0  0
  -19.9005   -7.8553    3.9689 C   0  0  0  0  0  0  0  0  0  0  0  0
  -22.0858   -3.9300   -1.0643 C   0  0  0  0  0  0  0  0  0  0  0  0
  -20.8905   -7.9746    5.1953 O   0  0  0  0  0  0  0  0  0  0  0  0
  -13.3890   -5.5491    5.4074 O   0  0  0  0  0  0  0  0  0  0  0  0
  -23.6318   -7.7397    2.3327 N   0  0  0  0  0  0  0  0  0  0  0  0
  -21.6305   -3.5605    1.8820 C   0  0  0  0  0  0  0  0  0  0  0  0
  -19.8059   -5.6282    3.6322 N   0  0  0  0  0  0  0  0  0  0  0  0
  -14.4545   -6.1087    4.9098 C   0  0  0  0  0  0  0  0  0  0  0  0
  -20.4541   -3.7590    3.6241 C   0  0  0  0  0  0  0  0  0  0  0  0
  -25.4694   -6.6584    2.3468 C   0  0  0  0  0  0  0  0  0  0  0  0
  -22.8471   -1.7433    4.0738 C   0  0  0  0  0  0  0  0  0  0  0  0
  -23.1223   -5.2421    1.0325 N   0  0  0  0  0  0  0  0  0  0  0  0
  -24.3997   -6.6660    2.0980 C   0  0  0  0  0  0  0  0  0  0  0  0
  -22.1396   -8.7716    3.7981 N   0  0  0  0  0  0  0  0  0  0  0  0
  -17.2956   -6.2255    3.5135 C   0  0  0  0  0  0  0  0  0  0  0  0
  -24.5656   -5.5113    1.8413 N   0  0  0  0  0  0  0  0  0  0  0  0
  -21.9986   -8.9791    4.2361 C   0  0  0  0  0  0  0  0  0  0  0  0
  -21.1772   -3.9749    2.4732 N   0  0  0  0  0  0  0  0  0  0  0  0
  -19.0511   -5.6319    4.1878 C   0  0  0  0  0  0  0  0  0  0  0  0
  -21.2123   -1.3231    3.9591 C   0  0  0  0  0  0  0  0  0  0  0  0
  -18.7698   -7.5520    3.6167 C   0  0  0  0  0  0  0  0  0  0  0  0
  -24.8564   -8.1832    3.9880 C   0  0  0  0  0  0  0  0  0  0  0  0
  7  1  1  0
 11  5  1  0
 12 10  1  0
 14  6  1  0
 15  5  1  0
 15  8  2  0
 17  7  1  0
 17 13  1  0
 18  2  1  0
 19  3  2  0
 20  2  1  0
 21  4  1  0
 21  5  1  0
 22 14  2  0
 22 19  1  0
 23  6  1  0
 24  1  1  0
 25  4  1  0
 25 22  1  0
 26 12  1  0
 26 23  1  0
 27 15  1  0
 27 18  1  0
 28  9  1  0
 28 16  1  0
 28 24  1  0
 29  2  1  0
 29 20  1  0
 30 10  1  0
 30 24  1  0
 31  3  1  0
 31  6  2  0
M  END
>  <ID>  (1) 
conformer_0

$$$$
