
     RDKit          3D

 25 26  0  0  0  0  0  0  0  0999 V2000
  -16.1320   -6.2437    4.5795 C   0  0  0  0  0  0  0  0  0  0  0  0
  -21.7531   -2.8570    4.6551 C   0  0  0  0  0  0  0  0  0  0  0  0
  -23.7779   -4.1421    0.1856 C   0  0  1  0  0  0  0  0  0  0  0  0
  -22.2465   -3.9143    1.1933 C   0  0  0  0  0  0  0  0  0  0  0  0
  -26.1924   -7.7184    2.8542 C   0  0  0  0  0  0  0  0  0  0  0  0
  -24.9155   -7.1352    2.4550 C   0  0  0  0  0  0  0  0  0  0  0  0
  -22.9073   -4.0276   -0.9747 C   0  0  0  0  0  0  0  0  0  0  0  0
  -19.8831   -4.4672    3.9757 C   0  0  0  0  0  0  0  0  0  0  0  0
  -21.3218   -2.5223    1.1866 O   0  0  0  0  0  0  0  0  0  0  0  0
  -21.4473   -8.7722    3.7172 C   0  0  0  0  0  0  0  0  0  0  0  0
  -17.0068   -6.2093    4.1912 C   0  0  0  0  0  0  0  0  0  0  0  0
  -20.7088   -7.6276    4.8488 O   0  0  0  0  0  0  0  0  0  0  0  0
  -21.2406   -3.5200    2.9108 C   0  0  0  0  0  0  0  0  0  0  0  0
  -14.4336   -6.2827    4.9600 C   0  0  0  0  0  0  0  0  0  0  0  0
  -19.1038   -4.2140    5.1298 O   0  0  0  0  0  0  0  0  0  0  0  0
  -23.4695   -5.3510    1.1976 N   0  0  0  0  0  0  0  0  0  0  0  0
  -18.8126   -7.8450    3.4096 C   0  0  0  0  0  0  0  0  0  0  0  0
  -19.8765   -5.2552    3.5126 N   0  0  0  0  0  0  0  0  0  0  0  0
  -13.6642   -5.5729    5.1583 O   0  0  0  0  0  0  0  0  0  0  0  0
  -24.3554   -5.5803    1.4356 C   0  0  0  0  0  0  0  0  0  0  0  0
  -21.9859   -1.7904    4.1363 C   0  0  0  0  0  0  0  0  0  0  0  0
  -24.2920   -8.6020    3.4740 C   0  0  1  0  0  0  0  0  0  0  0  0
  -23.1364   -8.0808    3.1735 N   0  0  0  0  0  0  0  0  0  0  0  0
  -19.1158   -6.8872    4.1560 C   0  0  2  0  0  0  0  0  0  0  0  0
  -25.5609   -8.7494    3.9385 C   0  0  0  0  0  0  0  0  0  0  0  0
  4  3  1  0
  6  5  1  0
  3  7  1  6
  9  4  2  0
 11  1  2  0
 12 10  1  0
 13  2  1  0
 13  8  1  0
 14  1  2  0
 15  8  2  0
 16  3  1  0
 16  4  1  0
 18  8  1  0
 19 14  1  0
 20  6  2  3
 20 16  1  0
 21  2  1  0
 22  6  1  0
 23 10  1  0
 22 23  1  1
 24 11  1  0
 24 12  1  0
 24 17  1  6
 24 18  1  0
 25  5  2  0
 25 22  1  0
M  END
>  <ID>  (1) 
conformer_0

$$$$
