
     RDKit          3D

 29 30  0  0  0  0  0  0  0  0999 V2000
  -16.3605   -6.2321    4.6291 C   0  0  0  0  0  0  0  0  0  0  0  0
  -22.3705   -2.6474    4.7241 C   0  0  0  0  0  0  0  0  0  0  0  0
  -24.1828   -5.3753    0.9308 C   0  0  0  0  0  0  0  0  0  0  0  0
  -25.3021   -8.6208    3.7838 C   0  0  0  0  0  0  0  0  0  0  0  0
  -21.6430   -3.8188    2.0783 C   0  0  0  0  0  0  0  0  0  0  0  0
  -19.4015   -5.6439    3.8880 C   0  0  0  0  0  0  0  0  0  0  0  0
  -24.4716   -7.0058    2.4250 C   0  0  0  0  0  0  0  0  0  0  0  0
  -15.1285   -6.2450    4.6838 C   0  0  0  0  0  0  0  0  0  0  0  0
  -19.7142   -3.8784    5.5774 O   0  0  0  0  0  0  0  0  0  0  0  0
  -21.2009   -2.7973    0.9953 O   0  0  0  0  0  0  0  0  0  0  0  0
  -22.6163   -4.0067    0.1627 C   0  0  0  0  0  0  0  0  0  0  0  0
  -25.5062   -3.5771    0.8878 O   0  0  0  0  0  0  0  0  0  0  0  0
  -19.7897   -7.6242    3.6106 C   0  0  0  0  0  0  0  0  0  0  0  0
  -21.6492   -7.8863    5.2489 O   0  0  0  0  0  0  0  0  0  0  0  0
  -19.6839   -5.4475    3.6452 N   0  0  0  0  0  0  0  0  0  0  0  0
  -21.7923   -1.8791    4.1923 C   0  0  0  0  0  0  0  0  0  0  0  0
  -22.1266   -4.2161   -1.1298 C   0  0  0  0  0  0  0  0  0  0  0  0
  -23.2719   -5.1989    1.0086 N   0  0  0  0  0  0  0  0  0  0  0  0
  -21.8333   -8.8802    3.6311 N   0  0  0  0  0  0  0  0  0  0  0  0
  -17.0816   -5.9777    3.5704 C   0  0  0  0  0  0  0  0  0  0  0  0
  -14.0398   -6.1864    4.8223 C   0  0  0  0  0  0  0  0  0  0  0  0
  -25.6859   -7.5359    2.9254 C   0  0  0  0  0  0  0  0  0  0  0  0
  -24.3189   -3.5467    0.4118 C   0  0  0  0  0  0  0  0  0  0  0  0
  -23.8071   -8.4954    3.4665 C   0  0  0  0  0  0  0  0  0  0  0  0
  -18.4787   -7.4875    3.7884 C   0  0  0  0  0  0  0  0  0  0  0  0
  -13.0204   -6.3848    4.6713 O   0  0  0  0  0  0  0  0  0  0  0  0
  -21.5515   -3.9857    2.8694 N   0  0  0  0  0  0  0  0  0  0  0  0
  -21.7205   -8.6201    3.9696 C   0  0  0  0  0  0  0  0  0  0  0  0
  -20.5370   -3.6863    4.1375 C   0  0  0  0  0  0  0  0  0  0  0  0
  8  1  1  0
 10  5  1  0
 11 10  1  0
 13  6  1  0
 15  6  1  0
 16  2  1  0
 17 11  1  0
 18  3  1  0
 18 11  1  0
 20  1  1  0
 21  8  3  0
 22  4  1  0
 22  7  2  0
 23  3  1  0
 23 11  1  0
 23 12  1  0
 24  4  1  0
 24  7  1  0
 25 13  1  0
 25 20  1  0
 26 21  1  0
 27  5  1  0
 28 13  1  0
 28 14  1  0
 28 19  1  0
 28 24  1  0
 29  2  1  0
 29  9  1  0
 29 15  1  0
 29 27  1  0
M  END
>  <ID>  (1) 
conformer_0

$$$$
