
     RDKit          3D

 25 24  0  0  0  0  0  0  0  0999 V2000
  -25.8353   -7.2998    3.1668 C   0  0  0  0  0  0  0  0  0  0  0  0
  -15.4957   -6.0142    4.4721 C   0  0  0  0  0  0  0  0  0  0  0  0
  -21.9300   -1.5360    4.0836 C   0  0  0  0  0  0  0  0  0  0  0  0
  -21.3412   -3.3568    2.2725 C   0  0  0  0  0  0  0  0  0  0  0  0
  -18.5190   -7.3916    4.0314 C   0  0  0  0  0  0  0  0  0  0  0  0
  -24.5133   -4.6182    0.6352 C   0  0  0  0  0  0  0  0  0  0  0  0
  -21.0590   -2.2838    1.2732 O   0  0  0  0  0  0  0  0  0  0  0  0
  -24.9480   -6.3965    2.3263 C   0  0  0  0  0  0  0  0  0  0  0  0
  -20.2306   -4.0832    3.6703 C   0  0  1  0  0  0  0  0  0  0  0  0
  -21.3656   -8.7653    3.5934 C   0  0  2  0  0  0  0  0  0  0  0  0
  -22.1132   -8.3185    4.9995 O   0  0  0  0  0  0  0  0  0  0  0  0
  -22.7798   -3.7394   -0.8142 C   0  0  0  0  0  0  0  0  0  0  0  0
  -18.9178   -4.2528    5.0212 O   0  0  0  0  0  0  0  0  0  0  0  0
  -21.0112   -8.4863    3.4093 N   0  0  0  0  0  0  0  0  0  0  0  0
  -25.1509   -8.3229    3.4700 C   0  0  0  0  0  0  0  0  0  0  0  0
  -16.9802   -6.2362    3.9573 C   0  0  0  0  0  0  0  0  0  0  0  0
  -23.7492   -4.9818    0.9779 N   0  0  0  0  0  0  0  0  0  0  0  0
  -21.7678   -2.7654    4.4873 C   0  0  0  0  0  0  0  0  0  0  0  0
  -22.8014   -3.6504    0.4854 C   0  0  1  0  0  0  0  0  0  0  0  0
  -19.9051   -5.2562    3.2503 N   0  0  0  0  0  0  0  0  0  0  0  0
  -13.5336   -6.2180    5.4440 O   0  0  0  0  0  0  0  0  0  0  0  0
  -23.6649   -8.0525    3.1708 C   0  0  0  0  0  0  0  0  0  0  0  0
  -22.0750   -3.8944    1.9511 N   0  0  0  0  0  0  0  0  0  0  0  0
  -14.6540   -6.1879    4.9976 C   0  0  0  0  0  0  0  0  0  0  0  0
  -19.3705   -6.3687    3.7971 C   0  0  0  0  0  0  0  0  0  0  0  0
  7  4  2  0
  8  1  1  0
  9  4  1  0
 11 10  1  0
  9 13  1  6
 10 14  1  6
 15  1  2  3
 16  2  1  0
 16  5  1  0
 17  6  1  0
 17  8  1  0
 18  3  2  3
 18  9  1  0
 19 12  1  6
 19 17  1  0
 20  9  1  0
 22 10  1  0
 22 15  1  0
 23  4  1  0
 23 19  1  0
 24  2  3  0
 24 21  1  0
 25  5  1  0
 25 20  1  0
M  END
>  <ID>  (1) 
conformer_0

$$$$
