
     RDKit          3D

 28 29  0  0  0  0  0  0  0  0999 V2000
  -15.3543   -6.3171    4.9855 C   0  0  0  0  0  0  0  0  0  0  0  0
  -21.6580   -1.7599    4.1868 C   0  0  0  0  0  0  0  0  0  0  0  0
  -24.5367   -3.5445   -0.1325 C   0  0  0  0  0  0  0  0  0  0  0  0
  -26.0722   -7.5008    2.7801 C   0  0  0  0  0  3  0  0  0  0  0  0
  -16.3952   -5.8991    4.4437 C   0  0  0  0  0  0  0  0  0  0  0  0
  -21.4888   -3.7378    1.8940 C   0  0  0  0  0  0  0  0  0  0  0  0
  -24.0520   -8.3685    3.4499 C   0  0  0  0  0  0  0  0  0  0  0  0
  -17.7789   -6.4393    3.8835 C   0  0  0  0  0  0  0  0  0  0  0  0
  -20.9695   -2.4774    1.3481 O   0  0  0  0  0  0  0  0  0  0  0  0
  -19.4488   -5.9018    3.6945 C   0  0  0  0  0  0  0  0  0  0  0  0
  -22.4899   -3.8607    0.3047 C   0  0  0  0  0  0  0  0  0  0  0  0
  -19.2676   -4.5259    4.9779 O   0  0  0  0  0  0  0  0  0  0  0  0
  -21.3833   -8.2288    5.1485 O   0  0  0  0  0  0  0  0  0  0  0  0
  -22.3109   -3.9761   -1.0885 C   0  0  0  0  0  0  0  0  0  0  0  0
  -20.5503   -3.6803    3.5444 C   0  0  0  0  0  0  0  0  0  0  0  0
  -20.3320   -5.1332    3.1941 N   0  0  0  0  0  0  0  0  0  0  0  0
  -22.0370   -8.3454    3.3740 N   0  0  0  0  0  0  0  0  0  0  0  0
  -22.8211   -4.7418    1.2451 N   0  0  0  0  0  0  0  0  0  0  0  0
  -14.2804   -6.1421    5.0203 C   0  0  0  0  0  0  0  0  0  0  0  0
  -23.4936   -7.2332    2.3673 N   0  0  0  0  0  0  0  0  0  0  0  0
  -21.9769   -3.1183    4.6057 C   0  0  0  0  0  0  0  0  0  0  0  0
  -24.8407   -6.8051    2.4728 C   0  0  0  0  0  0  0  0  0  0  0  0
  -19.0658   -7.7382    3.3347 C   0  0  0  0  0  0  0  0  0  0  0  0
  -23.9648   -5.0338    0.9377 C   0  0  0  0  0  0  0  0  0  0  0  0
  -24.5430   -6.1054    2.0917 N   0  0  0  0  0  0  0  0  0  0  0  0
  -12.9423   -5.9022    5.4883 O   0  0  0  0  0  0  0  0  0  0  0  0
  -25.4157   -8.5168    3.6589 C   0  0  0  0  0  0  0  0  0  0  0  0
  -21.1768   -8.4623    3.6975 C   0  0  0  0  0  0  0  0  0  0  0  0
  5  1  1  0
  8  5  1  0
  9  6  2  0
 10  8  1  0
 12 10  1  0
 14 11  1  0
 15  6  1  0
 16 10  1  0
 16 15  1  0
 18  6  1  0
 18 11  1  0
 19  1  1  0
 20  7  2  0
 21  2  1  0
 21 15  1  0
 22  4  1  0
 22 20  1  0
 23  8  1  0
 23 10  1  0
 24  3  1  0
 24 18  1  0
 24 22  1  0
 25 22  1  0
 26 19  1  0
 27  4  1  0
 27  7  1  0
 28 13  2  0
 28 17  1  0
 28 23  1  0
M  RAD  1   4   2
M  END
>  <ID>  (1) 
conformer_0

$$$$
