
     RDKit          3D

 24 24  0  0  0  0  0  0  0  0999 V2000
  -15.7003   -5.8513    4.6316 C   0  0  0  0  0  0  0  0  0  0  0  0
  -21.7301   -2.7279    4.6431 C   0  0  0  0  0  0  0  0  0  0  0  0
  -25.7680   -7.6652    3.2424 C   0  0  0  0  0  0  0  0  0  0  0  0
  -17.1056   -6.1748    4.0892 C   0  0  0  0  0  0  0  0  0  0  0  0
  -24.4077   -4.8722    0.7409 C   0  0  1  0  0  0  0  0  0  0  0  0
  -21.5243   -3.5930    2.3751 C   0  0  1  0  0  0  0  0  0  0  0  0
  -23.7799   -8.2463    3.3806 C   0  0  0  0  0  0  0  0  0  0  0  0
  -21.1185   -2.6803    1.0198 O   0  0  0  0  0  0  0  0  0  0  0  0
  -21.6972   -9.1252    3.9515 C   0  0  1  0  0  0  0  0  0  0  0  0
  -18.9702   -4.1771    4.6170 O   0  0  0  0  0  0  0  0  0  0  0  0
  -18.4744   -6.8736    3.6015 C   0  0  0  0  0  0  0  0  0  0  0  0
  -22.8083   -3.9120    0.6216 C   0  0  2  0  0  0  0  0  0  0  0  0
  -25.2497   -8.5670    3.7318 C   0  0  0  0  0  0  0  0  0  0  0  0
  -22.6389   -4.1603   -1.0534 C   0  0  0  0  0  0  0  0  0  0  0  0
  -23.1895   -5.0377    1.3673 N   0  0  0  0  0  0  0  0  0  0  0  0
  -20.6074   -4.9068    3.1652 N   0  0  0  0  0  0  0  0  0  0  0  0
  -22.1227   -1.5296    4.1141 C   0  0  0  0  0  0  0  0  0  0  0  0
  -19.9765   -4.5650    3.7844 C   0  0  0  0  0  0  0  0  0  0  0  0
  -25.0827   -6.5364    2.5189 C   0  0  0  0  0  0  0  0  0  0  0  0
  -21.5830   -7.7420    5.0209 O   0  0  0  0  0  0  0  0  0  0  0  0
  -21.5004   -8.3903    3.5264 N   0  0  0  0  0  0  0  0  0  0  0  0
  -25.6421   -4.7733    2.3833 S   0  0  0  0  0  0  0  0  0  0  0  0
  -14.4886   -6.0779    4.7529 C   0  0  0  0  0  0  0  0  0  0  0  0
  -19.8505   -7.4781    3.5605 C   0  0  0  0  0  0  0  0  0  0  0  0
  4  1  1  0
  6  8  1  6
  9  7  1  1
 11  4  1  0
 12  5  1  0
 12  6  1  0
 13  3  2  3
 13  7  1  0
 12 14  1  1
 15  5  1  0
 15 12  1  0
 16  6  1  0
 17  2  2  3
 18  2  1  0
 18 10  2  0
 18 16  1  0
 19  3  1  0
 21  9  1  0
 21 20  1  0
  5 22  1  1
 22 19  1  0
 23  1  2  3
 24  9  1  0
 24 11  3  0
M  END
>  <ID>  (1) 
conformer_0

$$$$
