
     RDKit          3D

 26 25  0  0  0  0  0  0  0  0999 V2000
  -25.4726   -8.5270    3.3871 C   0  0  0  0  0  0  0  0  0  0  0  0
  -21.9475   -3.5178    1.1595 C   0  0  0  0  0  0  0  0  0  0  0  0
  -15.8942   -6.0969    4.4884 C   0  0  0  0  0  0  0  0  0  0  0  0
  -21.9150   -2.5886    4.6374 C   0  0  0  0  0  0  0  0  0  0  0  0
  -21.1039   -3.3356    3.3667 C   0  0  0  0  0  0  0  0  0  0  0  0
  -19.8526   -7.1828    3.9033 C   0  0  2  0  0  0  0  0  0  0  0  0
  -23.9782   -8.4437    3.3522 C   0  0  0  0  0  0  0  0  0  0  0  0
  -23.0596   -3.9161    0.0503 C   0  0  1  0  0  0  0  0  0  0  0  0
  -21.3092   -2.3103    0.8430 O   0  0  0  0  0  0  0  0  0  0  0  0
  -17.0772   -5.9110    3.9605 C   0  0  0  0  0  0  0  0  0  0  0  0
  -19.7485   -4.6354    5.3020 O   0  0  0  0  0  0  0  0  0  0  0  0
  -22.1744   -4.0171   -1.2563 C   0  0  0  0  0  0  0  0  0  0  0  0
  -23.3970   -4.9553    0.9474 N   0  0  0  0  0  0  0  0  0  0  0  0
  -19.8177   -4.8956    4.0561 C   0  0  2  0  0  0  0  0  0  0  0  0
  -14.4660   -6.2562    4.9503 C   0  0  0  0  0  0  0  0  0  0  0  0
  -20.4836   -4.6880    3.1409 N   0  0  0  0  0  0  0  0  0  0  0  0
  -18.7325   -7.1803    3.6071 C   0  0  0  0  0  0  0  0  0  0  0  0
  -21.5764   -8.1260    5.3494 O   0  0  0  0  0  0  0  0  0  0  0  0
  -21.8358   -8.6328    3.7057 N   0  0  0  0  0  0  0  0  0  0  0  0
  -21.8513   -1.5479    4.0580 C   0  0  0  0  0  0  0  0  0  0  0  0
  -25.7931   -7.5209    2.6322 C   0  0  0  0  0  0  0  0  0  0  0  0
  -23.4063   -7.4871    2.1793 N   0  0  0  0  0  0  0  0  0  0  0  0
  -24.3094   -5.3268    1.1735 C   0  0  0  0  0  0  0  0  0  0  0  0
  -24.7807   -6.7874    2.2886 C   0  0  1  0  0  0  0  0  0  0  0  0
  -13.1925   -5.8508    5.4947 O   0  0  0  0  0  0  0  0  0  0  0  0
  -21.7022   -8.6612    4.1660 C   0  0  1  0  0  0  0  0  0  0  0  0
  5  4  1  0
  8  2  1  0
  9  2  1  0
 10  3  1  0
  8 12  1  6
 13  8  1  0
 14  6  1  0
 14 11  1  1
 15  3  3  0
 16  5  1  0
 16 14  1  0
  6 17  1  6
 17 10  1  0
 20  4  1  0
 21  1  2  3
 22  7  1  0
 23 13  2  3
 24 21  1  0
 24 22  1  6
 24 23  1  0
 25 15  1  0
 26  1  1  0
 26  6  1  0
 26 18  1  0
 26 19  1  1
M  END
>  <ID>  (1) 
conformer_0

$$$$
