
     RDKit          3D

 27 26  0  0  0  0  0  0  0  0999 V2000
  -25.3124   -8.5089    3.9662 C   0  0  0  0  0  0  0  0  0  0  0  0
  -16.0816   -6.0920    4.4498 C   0  0  0  0  0  3  0  0  0  0  0  0
  -21.5470   -1.8020    4.2879 C   0  0  0  0  0  0  0  0  0  0  0  0
  -24.0084   -3.7751   -0.1557 C   0  0  0  0  0  0  0  0  0  0  0  0
  -21.2699   -3.6367    2.5519 C   0  0  0  0  0  0  0  0  0  0  0  0
  -17.3067   -6.4021    3.9803 C   0  0  0  0  0  0  0  0  0  0  0  0
  -24.8441   -6.4783    2.6113 C   0  0  0  0  0  0  0  0  0  0  0  0
  -21.1677   -2.2619    1.1462 O   0  0  0  0  0  0  0  0  0  0  0  0
  -20.0496   -4.0857    3.9146 C   0  0  1  0  0  0  0  0  0  0  0  0
  -19.3261   -4.0685    5.0963 O   0  0  0  0  0  0  0  0  0  0  0  0
  -22.0503   -3.8126    0.6419 C   0  0  2  0  0  0  0  0  0  0  0  0
  -21.2484   -8.6218    3.9741 C   0  0  2  0  0  0  0  0  0  0  0  0
  -22.3003   -4.0089   -1.2077 C   0  0  0  0  0  0  0  0  0  0  0  0
  -14.6188   -6.3069    4.9104 C   0  0  0  0  0  0  0  0  0  0  0  0
  -23.2818   -4.9189    1.1153 N   0  0  0  0  0  0  0  0  0  0  0  0
  -25.9923   -7.6643    3.2264 C   0  0  0  0  0  0  0  0  0  0  0  0
  -20.8072   -7.7195    5.0306 O   0  0  0  0  0  0  0  0  0  0  0  0
  -20.3723   -4.6611    3.2136 N   0  0  0  0  0  0  0  0  0  0  0  0
  -18.7484   -7.6429    3.4255 C   0  0  1  0  0  0  0  0  0  0  0  0
  -22.2892   -2.9050    4.8722 C   0  0  0  0  0  0  0  0  0  0  0  0
  -23.8231   -8.1482    3.5463 C   0  0  0  0  0  0  0  0  0  0  0  0
  -13.3552   -5.6596    5.4571 O   0  0  0  0  0  0  0  0  0  0  0  0
  -24.0759   -4.9905    1.1425 C   0  0  1  0  0  0  0  0  0  0  0  0
  -25.6004   -4.6997    2.4390 S   0  0  0  0  0  0  0  0  0  0  0  0
  -14.0194   -7.0798    5.1768 O   0  0  0  0  0  0  0  0  0  0  0  0
  -22.2411   -8.5027    3.7265 N   0  0  0  0  0  0  0  0  0  0  0  0
  -19.3676   -6.5830    3.9147 C   0  0  0  0  0  0  0  0  0  0  0  0
  6  2  2  3
  8  5  1  0
  9 10  1  1
 11  8  1  0
 11 13  1  6
 14  2  1  0
 15 11  1  0
 16  1  2  3
 16  7  1  0
 12 17  1  1
 18  5  1  0
 18  9  1  0
 19  6  1  0
 19 12  1  0
 20  3  1  0
 20  9  1  0
 21  1  1  0
 22 14  1  0
 23  4  1  6
 23 15  1  0
 24  7  1  0
 24 23  1  0
 25 14  2  0
 26 12  1  0
 26 21  1  0
 19 27  1  6
M  RAD  1   2   2
M  END
>  <ID>  (1) 
conformer_0

$$$$
