
     RDKit          3D

 31 33  0  0  0  0  0  0  0  0999 V2000
  -15.6899   -6.5431    5.1238 C   0  0  0  0  0  0  0  0  0  0  0  0
  -22.3749   -1.0203    4.0488 C   0  0  0  0  0  0  0  0  0  0  0  0
  -25.9781   -7.0907    2.9202 C   0  0  0  0  0  0  0  0  0  0  0  0
  -21.9854   -3.6248    0.9817 C   0  0  0  0  0  0  0  0  0  0  0  0
  -23.9847   -8.3812    3.2018 C   0  0  0  0  0  0  0  0  0  0  0  0
  -20.3786   -4.4003    3.6727 C   0  0  0  0  0  0  0  0  0  0  0  0
  -21.1327   -3.0002    3.0333 C   0  0  0  0  0  0  0  0  0  0  0  0
  -21.1700   -2.4243    1.0924 O   0  0  0  0  0  0  0  0  0  0  0  0
  -26.3934   -8.2620    3.5796 C   0  0  0  0  0  0  0  0  0  0  0  0
  -19.2056   -3.8287    4.7438 O   0  0  0  0  0  0  0  0  0  0  0  0
  -24.2052   -5.2192    1.1444 C   0  0  0  0  0  0  0  0  0  0  0  0
  -16.2163   -5.8188    4.2451 C   0  0  0  0  0  0  0  0  0  0  0  0
  -22.1401   -4.1668   -1.1462 C   0  0  0  0  0  0  0  0  0  0  0  0
  -19.9857   -7.3453    3.5596 C   0  0  0  0  0  0  0  0  0  0  0  0
  -20.6028   -7.5202    4.8716 O   0  0  0  0  0  0  0  0  0  0  0  0
  -14.2362   -6.3353    5.0170 C   0  0  0  0  0  0  0  0  0  0  0  0
  -23.3227   -4.9297    1.1029 N   0  0  0  0  0  0  0  0  0  0  0  0
  -19.5243   -8.2218    2.8676 C   0  0  0  0  0  0  0  0  0  0  0  0
  -19.8850   -5.6377    3.3564 N   0  0  0  0  0  0  0  0  0  0  0  0
  -13.1804   -6.4447    5.2709 O   0  0  0  0  0  0  0  0  0  0  0  0
  -21.4918   -2.3745    4.3395 C   0  0  0  0  0  0  0  0  0  0  0  0
  -24.5784   -6.0512    1.9169 N   0  0  0  0  0  0  0  0  0  0  0  0
  -24.7781   -6.8579    2.4420 C   0  0  0  0  0  0  0  0  0  0  0  0
  -25.1895   -9.1556    3.6622 C   0  0  0  0  0  0  0  0  0  0  0  0
  -22.4222   -8.6244    3.2919 N   0  0  0  0  0  0  0  0  0  0  0  0
  -17.6091   -6.3044    3.9006 C   0  0  0  0  0  0  0  0  0  0  0  0
  -23.1015   -4.0046    0.0406 C   0  0  0  0  0  0  0  0  0  0  0  0
  -21.6094   -8.9184    3.6610 C   0  0  0  0  0  0  0  0  0  0  0  0
  -21.3678   -3.8884    2.7033 N   0  0  0  0  0  0  0  0  0  0  0  0
  -22.8510   -2.4289    5.0794 C   0  0  0  0  0  0  0  0  0  0  0  0
  -19.0248   -5.8732    4.1528 C   0  0  0  0  0  0  0  0  0  0  0  0
  8  4  1  0
  8  7  1  0
  9  3  2  0
 10  6  2  0
 12  1  1  0
 15 14  1  0
 16  1  1  0
 17  4  1  0
 17 11  1  0
 18 14  1  0
 19  6  1  0
 20 16  1  0
 21  2  1  0
 21  7  1  0
 22 11  1  0
 23  3  1  0
 23  5  1  0
 23 22  1  0
 24  5  2  0
 24  9  1  0
 25  5  1  0
 26 12  1  0
 27  4  1  0
 27 13  1  0
 27 17  1  0
 28 25  1  0
 29  6  1  0
 29  7  1  0
 30  2  1  0
 30 21  1  0
 31 14  1  0
 31 19  1  0
 31 26  1  0
M  END
>  <ID>  (1) 
conformer_0

$$$$
