
     RDKit          3D

 30 33  0  0  0  0  0  0  0  0999 V2000
  -14.9981   -6.2241    4.7440 C   0  0  0  0  0  0  0  0  0  0  0  0
  -21.9171   -2.2994    4.2891 C   0  0  0  0  0  0  0  0  0  0  0  0
  -26.1648   -8.1698    3.7375 C   0  0  0  0  0  0  0  0  0  0  0  0
  -23.5939   -4.3523    0.4543 C   0  0  0  0  0  0  0  0  0  0  0  0
  -22.1008   -3.8241    0.6919 C   0  0  0  0  0  0  0  0  0  0  0  0
  -16.2621   -6.0665    4.5259 C   0  0  0  0  0  0  0  0  0  0  0  0
  -23.6714   -8.3299    3.4107 C   0  0  0  0  0  0  0  0  0  0  0  0
  -21.9907   -9.5391    3.7930 C   0  0  0  0  0  0  0  0  0  0  0  0
  -24.2685   -5.5100    1.1979 C   0  0  0  0  0  0  0  0  0  0  0  0
  -18.8265   -3.5434    4.4197 O   0  0  0  0  0  0  0  0  0  0  0  0
  -21.0897   -2.1825    1.1981 O   0  0  0  0  0  0  0  0  0  0  0  0
  -21.2797   -3.1389    2.4226 C   0  0  0  0  0  0  0  0  0  0  0  0
  -22.1431   -4.1570   -1.0144 C   0  0  0  0  0  0  0  0  0  0  0  0
  -24.8534   -8.7366    3.9653 C   0  0  0  0  0  0  0  0  0  0  0  0
  -21.0506   -7.6562    5.1515 O   0  0  0  0  0  0  0  0  0  0  0  0
  -23.1731   -5.1539    1.2096 N   0  0  0  0  0  0  0  0  0  0  0  0
  -17.4443   -6.0488    3.9818 C   0  0  0  0  0  0  0  0  0  0  0  0
  -20.3340   -5.0227    3.2270 N   0  0  0  0  0  0  0  0  0  0  0  0
  -13.2897   -5.7618    5.5871 O   0  0  0  0  0  0  0  0  0  0  0  0
  -20.1306   -3.6404    3.7240 C   0  0  0  0  0  0  0  0  0  0  0  0
  -21.8745   -1.3485    3.8025 C   0  0  0  0  0  0  0  0  0  0  0  0
  -25.1575   -5.4817    2.3661 N   0  0  0  0  0  0  0  0  0  0  0  0
  -24.7360   -6.7509    2.4844 C   0  0  0  0  0  0  0  0  0  0  0  0
  -14.1375   -6.0429    5.0183 C   0  0  0  0  0  0  0  0  0  0  0  0
  -23.6665   -7.4869    2.2304 N   0  0  0  0  0  0  0  0  0  0  0  0
  -21.5605   -8.3490    3.4897 N   0  0  0  0  0  0  0  0  0  0  0  0
  -20.4657   -7.8286    3.8911 C   0  0  0  0  0  0  0  0  0  0  0  0
  -18.6128   -7.3106    3.7122 C   0  0  0  0  0  0  0  0  0  0  0  0
  -25.6512   -6.9621    3.0687 C   0  0  0  0  0  3  0  0  0  0  0  0
  -19.2556   -5.5431    4.1255 C   0  0  0  0  0  0  0  0  0  0  0  0
  5  4  1  0
  6  1  1  0
  9  4  1  0
 12  2  1  0
 12  5  1  0
 12 11  1  0
 13  5  1  0
 14  3  2  0
 14  7  1  0
 16  4  1  0
 16  9  1  0
 17  6  1  0
 20 10  2  0
 20 12  1  0
 20 18  1  0
 21  2  1  0
 22  9  1  0
 23  9  1  0
 23 22  1  0
 24  1  3  0
 24 19  1  0
 25  7  2  0
 25 23  1  0
 26  8  1  0
 27 15  2  0
 27 26  1  0
 28 17  1  0
 28 27  1  0
 29  3  1  0
 29 23  1  0
 30 17  1  0
 30 18  1  0
 30 28  1  0
M  RAD  1  29   2
M  END
>  <ID>  (1) 
conformer_0

$$$$
