
     RDKit          3D

 27 27  0  0  0  0  0  0  0  0999 V2000
  -15.7709   -6.1426    4.7570 C   0  0  0  0  0  0  0  0  0  0  0  0
  -22.0056   -1.1918    3.7623 C   0  0  0  0  0  0  0  0  0  0  0  0
  -25.2234   -8.9163    3.5592 C   0  0  0  0  0  0  0  0  0  0  0  0
  -23.6434   -4.3868    0.4568 C   0  0  1  0  0  0  0  0  0  0  0  0
  -20.1085   -7.4769    3.6160 C   0  0  0  0  0  0  0  0  0  0  0  0
  -16.8425   -6.0751    4.4116 C   0  0  0  0  0  0  0  0  0  0  0  0
  -24.7563   -6.9173    2.4468 C   0  0  0  0  0  0  0  0  0  0  0  0
  -24.4109   -5.8321    0.9733 C   0  0  2  0  0  0  0  0  0  0  0  0
  -19.1932   -4.4245    5.3327 O   0  0  0  0  0  0  0  0  0  0  0  0
  -21.9579   -9.3365    3.6585 C   0  0  0  0  0  0  0  0  0  0  0  0
  -20.9259   -2.2306    1.0656 O   0  0  0  0  0  0  0  0  0  0  0  0
  -22.2309   -3.9102    0.7475 C   0  0  1  0  0  0  0  0  0  0  0  0
  -21.5359   -2.5138    4.4387 C   0  0  0  0  0  0  0  0  0  0  0  0
  -19.9404   -5.0711    3.4428 N   0  0  0  0  0  0  0  0  0  0  0  0
  -22.1947   -4.1650   -0.7921 C   0  0  0  0  0  0  0  0  0  0  0  0
  -23.3365   -5.8952    1.1117 N   0  0  0  0  0  0  0  0  0  0  0  0
  -14.5297   -6.0418    5.0385 C   0  0  0  0  0  0  0  0  0  0  0  0
  -20.4787   -4.0496    3.5149 C   0  0  0  0  0  0  0  0  0  0  0  0
  -13.5364   -5.5565    5.5984 O   0  0  0  0  0  0  0  0  0  0  0  0
  -20.7922   -8.0763    4.2708 O   0  0  0  0  0  0  0  0  0  0  0  0
  -25.7660   -7.8527    3.2743 C   0  0  0  0  0  0  0  0  0  0  0  0
  -18.0529   -7.0586    3.7649 C   0  0  2  0  0  0  0  0  0  0  0  0
  -22.0789   -3.0766    2.3225 N   0  0  0  0  0  0  0  0  0  0  0  0
  -23.7681   -8.5459    3.2784 C   0  0  0  0  0  0  0  0  0  0  0  0
  -19.0201   -5.7164    4.1227 C   0  0  0  0  0  0  0  0  0  0  0  0
  -21.7485   -8.2450    3.3911 N   0  0  0  0  0  0  0  0  0  0  0  0
  -21.7068   -2.4818    1.9978 C   0  0  0  0  0  0  0  0  0  0  0  0
  6  1  1  0
  8  4  1  0
  8  7  1  0
 12  4  1  0
 13  2  1  0
  4 15  1  6
 15 12  1  0
  8 16  1  6
 17  1  3  0
 18 13  1  0
 18 14  1  0
 19 17  1  0
 20  5  1  0
 21  3  1  0
 21  7  1  0
 22  5  1  1
 22  6  1  0
 12 23  1  6
 24  3  2  3
 24 10  1  0
 25  9  2  0
 25 14  1  0
 25 22  1  0
 26 10  1  0
 26 20  1  0
 27 11  2  0
 27 23  1  0
M  END
>  <ID>  (1) 
conformer_0

$$$$
