
     RDKit          3D

 28 30  0  0  0  0  0  0  0  0999 V2000
  -15.6343   -6.6024    4.8834 C   0  0  0  0  0  0  0  0  0  0  0  0
  -25.7456   -7.7919    3.0656 C   0  0  0  0  0  0  0  0  0  0  0  0
  -22.4968   -2.4151    4.7497 C   0  0  0  0  0  0  0  0  0  0  0  0
  -24.4072   -5.2547    1.2712 C   0  0  0  0  0  0  0  0  0  0  0  0
  -18.7913   -5.7529    3.8751 C   0  0  0  0  0  0  0  0  0  0  0  0
  -23.5503   -8.3946    3.3836 C   0  0  0  0  0  0  0  0  0  0  0  0
  -21.6125   -9.2925    3.7113 C   0  0  0  0  0  0  0  0  0  0  0  0
  -17.0366   -6.2970    4.0231 C   0  0  0  0  0  0  0  0  0  0  0  0
  -23.4147   -4.1696    0.4280 C   0  0  0  0  0  0  0  0  0  0  0  0
  -21.2081   -2.1747    1.0528 O   0  0  0  0  0  0  0  0  0  0  0  0
  -19.3188   -4.0130    5.0300 O   0  0  0  0  0  0  0  0  0  0  0  0
  -22.1627   -3.4512    0.9335 C   0  0  0  0  0  0  0  0  0  0  0  0
  -23.2864   -4.9656    1.3516 N   0  0  0  0  0  0  0  0  0  0  0  0
  -19.9459   -5.2082    3.3980 N   0  0  0  0  0  0  0  0  0  0  0  0
  -25.1045   -8.6835    3.7720 C   0  0  0  0  0  0  0  0  0  0  0  0
  -14.5986   -6.1703    4.9038 C   0  0  0  0  0  0  0  0  0  0  0  0
  -22.3450   -1.6459    4.1648 C   0  0  0  0  0  0  0  0  0  0  0  0
  -25.1189   -5.8644    1.8120 N   0  0  0  0  0  0  0  0  0  0  0  0
  -23.3110   -7.4704    2.3916 N   0  0  0  0  0  0  0  0  0  0  0  0
  -22.1416   -4.1481   -0.8900 C   0  0  0  0  0  0  0  0  0  0  0  0
  -13.4083   -5.6319    5.4331 O   0  0  0  0  0  0  0  0  0  0  0  0
  -21.4930   -8.5458    3.6744 N   0  0  0  0  0  0  0  0  0  0  0  0
  -24.7307   -6.8420    2.3971 C   0  0  0  0  0  0  0  0  0  0  0  0
  -20.1608   -4.3432    3.8629 C   0  0  0  0  0  0  0  0  0  0  0  0
  -18.4308   -7.3269    3.5041 C   0  0  0  0  0  0  0  0  0  0  0  0
  -21.5666   -3.5349    2.6281 N   0  0  0  0  0  0  0  0  0  0  0  0
  -20.0991   -7.6947    3.5757 C   0  0  0  0  0  0  0  0  0  0  0  0
  -21.3926   -2.9553    2.8026 C   0  0  0  0  0  0  0  0  0  0  0  0
  8  1  1  0
  8  5  1  0
 12  9  1  0
 12 10  1  0
 13  4  1  0
 13  9  1  0
 14  5  1  0
 15  2  2  0
 15  6  1  0
 16  1  1  0
 17  3  1  0
 18  4  1  0
 19  6  2  0
 20  9  1  0
 20 12  1  0
 21 16  1  0
 22  7  1  0
 23  2  1  0
 23 18  1  0
 23 19  1  0
 24 11  2  0
 24 14  1  0
 25  5  1  0
 25  8  1  0
 26 12  1  0
 27 22  1  0
 27 25  1  0
 28 17  1  0
 28 24  1  0
 28 26  1  0
M  END
>  <ID>  (1) 
conformer_0

$$$$
