
     RDKit          3D

 29 32  0  0  0  0  0  0  0  0999 V2000
  -21.9589   -1.1862    4.0405 C   0  0  0  0  0  0  0  0  0  0  0  0
  -14.0593   -6.0322    5.0354 C   0  0  0  0  0  0  0  0  0  0  0  0
  -25.2204   -8.0676    2.5451 C   0  0  1  0  0  0  0  0  0  0  0  0
  -22.5406   -3.8846    0.0347 C   0  0  1  0  0  0  0  0  0  0  0  0
  -15.2387   -6.3918    5.0372 C   0  0  0  0  0  0  0  0  0  0  0  0
  -21.6701   -3.8454    1.5482 C   0  0  0  0  0  0  0  0  0  0  0  0
  -23.6378   -8.0982    2.9871 C   0  0  2  0  0  0  0  0  0  0  0  0
  -21.4680   -2.4693    0.7572 O   0  0  0  0  0  0  0  0  0  0  0  0
  -16.3502   -5.6702    4.4704 C   0  0  0  0  0  0  0  0  0  0  0  0
  -20.8217   -3.7012    3.5770 C   0  0  0  0  0  0  0  0  0  0  0  0
  -21.4543   -8.9000    3.6072 C   0  0  0  0  0  0  0  0  0  0  0  0
  -26.1759   -7.1778    2.9923 C   0  0  2  0  0  0  0  0  0  0  0  0
  -22.2696   -4.0492   -1.1891 C   0  0  0  0  0  0  0  0  0  0  0  0
  -23.2089   -5.2717    1.0876 N   0  0  0  0  0  0  0  0  0  0  0  0
  -17.4113   -6.4348    3.7922 C   0  0  0  0  0  0  0  0  0  0  0  0
  -20.6244   -7.7277    4.6656 O   0  0  0  0  0  0  0  0  0  0  0  0
  -19.5471   -4.3041    5.4950 O   0  0  0  0  0  0  0  0  0  0  0  0
  -19.7384   -5.4073    3.5053 N   0  0  0  0  0  0  0  0  0  0  0  0
  -22.6261   -2.7400    4.8183 C   0  0  0  0  0  0  0  0  0  0  0  0
  -24.1679   -4.8735    0.7913 C   0  0  0  0  0  0  0  0  0  0  0  0
  -25.0859   -5.4615    1.5537 N   0  0  0  0  0  0  0  0  0  0  0  0
  -24.8712   -6.4710    2.0920 C   0  0  2  0  0  0  0  0  0  0  0  0
  -22.4968   -8.3190    3.0983 N   0  0  0  0  0  0  0  0  0  0  0  0
  -21.4478   -3.8933    2.5781 N   0  0  0  0  0  0  0  0  0  0  0  0
  -19.0999   -4.9961    4.1728 C   0  0  0  0  0  0  0  0  0  0  0  0
  -19.0077   -8.0517    3.4546 C   0  0  0  0  0  0  0  0  0  0  0  0
  -25.1308   -8.4939    3.8262 C   0  0  1  0  0  0  0  0  0  0  0  0
  -19.3873   -7.2239    3.9020 C   0  0  1  0  0  0  0  0  0  0  0  0
  -21.1856   -2.6159    4.1745 C   0  0  0  0  0  0  0  0  0  0  0  0
  5  2  2  3
  6  4  1  0
  3  7  1  1
  8  6  2  0
  9  5  1  0
 12  3  1  0
  4 13  1  6
 14  4  1  0
 15  9  1  0
 16 11  1  0
 19  1  1  0
 20 14  1  0
 21 20  1  0
 22  3  1  0
 12 22  1  1
 22 21  1  6
  7 23  1  6
 23 11  1  0
 24  6  1  0
 24 10  1  0
 25 17  1  0
 25 18  1  0
 27  3  1  0
 27  7  1  1
 27 12  1  0
 28 15  1  0
 28 16  1  0
 28 18  1  0
 28 26  1  6
 29  1  1  0
 29 10  1  0
 29 19  1  0
M  END
>  <ID>  (1) 
conformer_0

$$$$
