
     RDKit          3D

 29 30  0  0  0  0  0  0  0  0999 V2000
   23.9763   56.0697   87.8987 O   0  0  0  0  0  0  0  0  0  0  0  0
   26.7614   56.5522   91.6328 C   0  0  0  0  0  0  0  0  0  0  0  0
   28.5970   58.4681   87.2088 C   0  0  0  0  0  0  0  0  0  0  0  0
   27.0252   57.2113   84.7499 C   0  0  0  0  0  0  0  0  0  0  0  0
   23.7046   54.9909   90.0631 C   0  0  0  0  0  0  0  0  0  0  0  0
   24.4832   56.0452   89.2453 C   0  0  0  0  0  0  0  0  0  0  0  0
   25.9761   55.8239   89.4631 O   0  0  0  0  0  0  0  0  0  0  0  0
   28.7588   58.2460   90.1313 O   0  0  0  0  0  0  0  0  0  0  0  0
   24.1575   53.6745   89.5272 O   0  0  0  0  0  0  0  0  0  0  0  0
   26.6328   60.9007   84.0264 C   0  0  0  0  0  0  0  0  0  0  0  0
   21.6078   55.7711   88.3264 O   0  0  0  0  0  0  0  0  0  0  0  0
   26.5064   58.4062   89.2684 C   0  0  0  0  0  0  0  0  0  0  0  0
   25.8599   55.3839   92.1313 C   0  0  0  0  0  0  0  0  0  0  0  0
   28.3976   57.1354   88.0408 C   0  0  0  0  0  0  0  0  0  0  0  0
   27.2840   56.2084   90.1831 C   0  0  0  0  0  0  0  0  0  0  0  0
   23.5035   55.9972   85.2410 C   0  0  0  0  0  0  0  0  0  0  0  0
   22.2230   55.0654   89.5052 C   0  0  0  0  0  0  0  0  0  0  0  0
   25.9290   55.2930   93.5418 O   0  0  0  0  0  0  0  0  0  0  0  0
   27.5912   59.8049   84.3203 C   0  0  0  0  0  0  0  0  0  0  0  0
   24.4727   55.0158   91.4870 C   0  0  0  0  0  0  0  0  0  0  0  0
   27.7810   56.8337   92.5825 O   0  0  0  0  0  0  0  0  0  0  0  0
   27.7529   57.5631   89.4212 C   0  0  0  0  0  0  0  0  0  0  0  0
   22.6341   56.4521   87.5538 C   0  0  0  0  0  0  0  0  0  0  0  0
   23.8171   54.0714   92.3453 O   0  0  0  0  0  0  0  0  0  0  0  0
   26.9254   58.7000   85.1355 C   0  0  0  0  0  0  0  0  0  0  0  0
   27.1924   58.9587   86.6283 C   0  0  0  0  0  0  0  0  0  0  0  0
   28.3660   55.2534   90.1078 O   0  0  0  0  0  0  0  0  0  0  0  0
   22.2677   56.3255   86.0724 C   0  0  0  0  0  0  0  0  0  0  0  0
   28.8837   60.0963   84.6409 O   0  0  0  0  0  0  0  0  0  0  0  0
  1  6  1  0
  1 23  1  0
  2 13  1  0
  2 15  1  0
  2 21  1  0
  3 14  1  0
  3 26  1  0
  4 25  1  0
  5  6  1  0
  5  9  1  0
  5 17  1  0
  5 20  1  0
  6  7  1  0
  7 15  1  0
  8 22  1  0
 10 19  1  0
 11 17  1  0
 11 23  1  0
 12 22  1  0
 13 18  1  0
 13 20  1  0
 14 22  1  0
 15 22  1  0
 15 27  1  0
 16 28  1  0
 19 25  1  0
 19 29  1  0
 20 24  1  0
 23 28  1  0
 25 26  1  0
M  END
>  <ID>  (1) 
conformer_0

$$$$
