
     RDKit          3D

 18 19  0  0  0  0  0  0  0  0999 V2000
   22.5468   55.7753   88.6438 C   0  0  0  0  0  0  0  0  0  0  0  0
   28.2864   57.5322   87.6265 C   0  0  0  0  0  0  0  0  0  0  0  0
   26.0560   59.0825   85.0759 O   0  0  0  0  0  0  0  0  0  0  0  0
   26.3987   58.2264   86.0916 C   0  0  0  0  0  0  0  0  0  0  0  0
   27.4227   56.9989   88.7465 C   0  0  0  0  0  0  0  0  0  0  0  0
   24.5206   55.3280   90.5676 C   0  0  0  0  0  0  0  0  0  0  0  0
   27.6971   58.5716   86.7204 C   0  0  0  0  0  0  0  0  0  0  0  0
   24.9650   56.0627   89.2238 C   0  0  0  0  0  0  0  0  0  0  0  0
   25.4679   57.3630   86.9121 C   0  0  0  0  0  0  0  0  0  0  0  0
   28.7752   55.5982   90.1701 O   0  0  0  0  0  0  0  0  0  0  0  0
   25.6854   55.4569   91.5798 C   0  0  0  0  0  0  0  0  0  0  0  0
   27.3618   56.8528   92.6123 O   0  0  0  0  0  0  0  0  0  0  0  0
   27.9147   56.8349   90.1981 C   0  0  0  0  0  0  0  0  0  0  0  0
   25.9310   57.0882   88.4065 C   0  0  0  0  0  0  0  0  0  0  0  0
   24.0865   53.9415   90.5962 N   0  0  0  0  0  0  0  0  0  0  0  0
   28.2742   59.9262   86.6989 C   0  0  0  0  0  0  0  0  0  0  0  0
   23.9489   55.4870   88.1305 C   0  0  0  0  0  0  0  0  0  0  0  0
   26.7469   56.5770   91.2770 C   0  0  0  0  0  0  0  0  0  0  0  0
  1 17  1  0
  2  5  1  0
  2  7  1  0
  3  4  1  0
  4  7  1  0
  4  9  1  0
  5 13  1  0
  5 14  1  0
  6  8  1  0
  6 11  1  0
  6 15  1  0
  7 16  1  0
  8 14  1  0
  8 17  1  0
  9 14  1  0
 10 13  1  0
 11 18  1  0
 12 18  1  0
 13 18  1  0
M  END
>  <ID>  (1) 
conformer_0

$$$$
