
     RDKit          3D

 25 28  0  0  0  0  0  0  0  0999 V2000
   21.5317   54.6754   89.1949 C   0  0  0  0  0  0  0  0  0  0  0  0
   27.9432   59.3042   85.7212 O   0  0  0  0  0  0  0  0  0  0  0  0
   28.4946   58.4183   87.9983 C   0  0  0  0  0  0  0  0  0  0  0  0
   27.3487   56.4427   88.7423 C   0  0  0  0  0  0  0  0  0  0  0  0
   23.3136   54.7748   90.7790 C   0  0  0  0  0  0  0  0  0  0  0  0
   25.0398   58.0016   84.7741 C   0  0  0  0  0  0  0  0  0  0  0  0
   20.7747   54.0353   90.1799 C   0  0  0  0  0  0  0  0  0  0  0  0
   29.3719   57.4199   87.4140 O   0  0  0  0  0  0  0  0  0  0  0  0
   26.4532   57.6431   86.5343 C   0  0  0  0  0  0  0  0  0  0  0  0
   22.8474   55.0224   89.4958 C   0  0  0  0  0  0  0  0  0  0  0  0
   23.7005   55.5877   88.3722 C   0  0  0  0  0  0  0  0  0  0  0  0
   21.3002   53.7539   91.4400 C   0  0  0  0  0  0  0  0  0  0  0  0
   25.3498   56.7768   85.7827 C   0  0  0  0  0  0  0  0  0  0  0  0
   22.5917   54.1441   91.7353 C   0  0  0  0  0  0  0  0  0  0  0  0
   28.7914   55.6568   90.5199 O   0  0  0  0  0  0  0  0  0  0  0  0
   28.4017   59.6539   87.1010 C   0  0  0  0  0  0  0  0  0  0  0  0
   26.7503   56.8079   91.1566 C   0  0  0  0  0  0  0  0  0  0  0  0
   24.1696   56.1625   86.8068 C   0  0  0  0  0  0  0  0  0  0  0  0
   26.1705   60.0571   84.6321 O   0  0  0  0  0  0  0  0  0  0  0  0
   27.9375   56.7366   90.1272 C   0  0  0  0  0  0  0  0  0  0  0  0
   27.0718   57.7215   87.9614 C   0  0  0  0  0  0  0  0  0  0  0  0
   25.6188   55.9996   90.5746 C   0  0  0  0  0  0  0  0  0  0  0  0
   26.4609   58.8674   85.4899 C   0  0  0  0  0  0  0  0  0  0  0  0
   27.2307   56.7657   92.4707 O   0  0  0  0  0  0  0  0  0  0  0  0
   25.0129   56.1100   89.1306 C   0  0  0  0  0  0  0  0  0  0  0  0
  1  7  2  0
  1 10  1  0
  2 16  1  0
  2 23  1  0
  3  8  1  0
  3 16  1  0
  3 21  1  0
  4 20  1  0
  4 21  1  0
  5 10  2  0
  5 14  1  0
  6 13  1  0
  6 23  1  0
  7 12  1  0
  9 13  1  0
  9 21  1  0
  9 23  1  0
 10 11  1  0
 11 18  2  0
 11 25  1  0
 12 14  2  0
 13 18  1  0
 15 20  1  0
 17 20  1  0
 17 22  1  0
 17 24  1  0
 19 23  1  0
 22 25  2  0
M  END
>  <ID>  (1) 
conformer_0

$$$$
