
     RDKit          3D

 23 25  0  0  0  0  0  0  0  0999 V2000
   27.1360   57.0236   92.4536 O   0  0  0  0  0  0  0  0  0  0  0  0
   28.5807   55.5733   89.6262 O   0  0  0  0  0  0  0  0  0  0  0  0
   25.1179   57.0253   86.0732 C   0  0  0  0  0  0  0  0  0  0  0  0
   26.1314   55.2948   91.4518 O   0  0  0  0  0  0  0  0  0  0  0  0
   28.1070   58.5801   87.4005 C   0  0  0  0  0  0  0  0  0  0  0  0
   21.8213   55.2803   88.6077 C   0  0  0  0  0  0  0  0  0  0  0  0
   27.9376   59.1473   86.1596 C   0  0  0  0  0  0  0  0  0  0  0  0
   25.4926   56.3749   88.8200 C   0  0  0  0  0  0  0  0  0  0  0  0
   26.8154   58.6083   85.5885 N   0  0  0  0  0  0  0  0  0  0  0  0
   23.1496   55.7501   88.9609 C   0  0  0  0  0  0  0  0  0  0  0  0
   27.0350   57.6994   87.6052 C   0  0  0  0  0  0  0  0  0  0  0  0
   26.7218   56.9320   88.7702 C   0  0  0  0  0  0  0  0  0  0  0  0
   27.3964   61.2819   84.4666 C   0  0  0  0  0  0  0  0  0  0  0  0
   21.7946   54.3444   89.9443 C   0  0  0  0  0  0  0  0  0  0  0  0
   26.3319   58.8458   84.2140 C   0  0  0  0  0  0  0  0  0  0  0  0
   24.1745   56.3605   86.7935 C   0  0  0  0  0  0  0  0  0  0  0  0
   26.2400   57.7133   86.4701 C   0  0  0  0  0  0  0  0  0  0  0  0
   26.8729   56.4659   91.2665 C   0  0  0  0  0  0  0  0  0  0  0  0
   23.3223   54.5886   89.9109 C   0  0  0  0  0  0  0  0  0  0  0  0
   27.7277   56.7833   89.9558 C   0  0  0  0  0  0  0  0  0  0  0  0
   26.2132   60.3727   83.9860 C   0  0  0  0  0  0  0  0  0  0  0  0
   28.5527   57.9651   90.1320 N   0  0  0  0  0  0  0  0  0  0  0  0
   24.3526   56.1551   88.1963 C   0  0  0  0  0  0  0  0  0  0  0  0
  1 18  2  0
  2 20  1  0
  3 16  2  0
  3 17  1  0
  4 18  1  0
  5  7  1  0
  5 11  1  0
  6 10  1  0
  6 14  1  0
  7  9  1  0
  8 12  1  0
  8 23  2  0
  9 15  1  0
  9 17  1  0
 10 19  1  0
 10 23  1  0
 11 12  2  0
 11 17  1  0
 12 20  1  0
 13 21  1  0
 14 19  1  0
 15 21  1  0
 16 23  1  0
 18 20  1  0
 20 22  1  0
M  END
>  <ID>  (1) 
conformer_0

$$$$
