
     RDKit          3D

 35 38  0  0  0  0  0  0  0  0999 V2000
   23.5364   55.6045   89.6864 N   0  0  0  0  0  0  0  0  0  0  0  0
   23.0317   55.9260   87.2549 C   0  0  0  0  0  0  0  0  0  0  0  0
   20.9196   55.6080   88.4216 O   0  0  0  0  0  0  0  0  0  0  0  0
   23.9059   56.0567   88.3954 C   0  0  0  0  0  0  0  0  0  0  0  0
   21.5848   55.7889   87.3579 C   0  0  0  0  0  0  0  0  0  0  0  0
   26.8963   57.8490   86.7478 C   0  0  0  0  0  0  0  0  0  0  0  0
   27.3278   58.5965   82.5617 O   0  0  0  0  0  0  0  0  0  0  0  0
   27.6228   61.1435   85.4486 O   0  0  0  0  0  0  0  0  0  0  0  0
   23.7285   54.5028   91.7312 C   0  0  0  0  0  0  0  0  0  0  0  0
   28.1057   58.1793   87.6168 C   0  0  0  0  0  0  0  0  0  0  0  0
   23.6473   53.1318   93.7368 O   0  0  0  0  0  0  0  0  0  0  0  0
   24.9563   56.4642   85.8878 C   0  0  0  0  0  0  0  0  0  0  0  0
   24.1145   53.8404   95.0037 N   0  0  0  0  0  0  0  0  0  0  0  0
   25.8802   55.6641   91.2670 C   0  0  0  0  0  0  0  0  0  0  0  0
   27.9603   58.0548   89.1381 C   0  0  0  0  0  0  0  0  0  0  0  0
   29.1930   57.4067   87.1518 O   0  0  0  0  0  0  0  0  0  0  0  0
   27.0027   58.6308   85.4995 N   0  0  0  0  0  0  0  0  0  0  0  0
   26.0220   59.0999   84.4655 C   0  0  0  0  0  0  0  0  0  0  0  0
   27.2995   60.7821   82.9343 O   0  0  0  0  0  0  0  0  0  0  0  0
   28.6173   55.6411   89.7406 O   0  0  0  0  0  0  0  0  0  0  0  0
   27.7122   56.6816   89.7896 C   0  0  0  0  0  0  0  0  0  0  0  0
   28.8864   58.7801   89.8876 O   0  0  0  0  0  0  0  0  0  0  0  0
   26.7366   56.8588   90.9731 C   0  0  0  0  0  0  0  0  0  0  0  0
   27.9684   59.7368   85.6430 C   0  0  0  0  0  0  0  0  0  0  0  0
   28.4254   59.6589   87.1435 C   0  0  0  0  0  0  0  0  0  0  0  0
   24.4518   55.5185   90.7712 C   0  0  0  0  0  0  0  0  0  0  0  0
   20.9642   56.0917   86.2486 N   0  0  0  0  0  0  0  0  0  0  0  0
   26.6849   54.6133   91.4992 O   0  0  0  0  0  0  0  0  0  0  0  0
   26.9314   59.6080   83.3030 C   0  0  0  0  0  0  0  0  0  0  0  0
   25.1198   56.6253   88.2104 C   0  0  0  0  0  0  0  0  0  0  0  0
   28.1145   60.5910   88.2159 O   0  0  0  0  0  0  0  0  0  0  0  0
   25.6813   56.9560   86.9964 C   0  0  0  0  0  0  0  0  0  0  0  0
   24.9804   54.7124   94.0343 N   0  0  0  0  0  0  0  0  0  0  0  0
   23.6613   55.9998   86.0357 C   0  0  0  0  0  0  0  0  0  0  0  0
   24.4673   53.9806   92.8969 C   0  0  0  0  0  0  0  0  0  0  0  0
  1  4  2  0
  1 26  1  0
  2  4  1  0
  2  5  1  0
  2 34  2  0
  3  5  2  0
  4 30  1  0
  5 27  1  0
  6 10  1  0
  6 17  1  0
  6 32  1  0
  7 29  2  0
  8 24  1  0
  9 26  2  3
  9 35  1  0
 10 15  1  0
 10 16  1  0
 10 25  1  0
 11 13  1  0
 11 35  1  0
 12 32  1  0
 12 34  1  0
 13 33  1  0
 14 23  1  0
 14 26  1  0
 14 28  1  0
 15 21  1  0
 15 22  1  0
 17 18  1  0
 17 24  1  0
 18 29  1  0
 19 29  1  0
 20 21  1  0
 21 23  1  0
 24 25  1  0
 25 31  1  0
 30 32  2  0
 33 35  1  0
M  END
>  <ID>  (1) 
conformer_0

$$$$
