
     RDKit          3D

 16 17  0  0  0  0  0  0  0  0999 V2000
   28.4870   57.9651   90.2639 O   0  0  0  0  0  0  0  0  0  0  0  0
   28.4794   55.5217   89.8715 O   0  0  0  0  0  0  0  0  0  0  0  0
   23.3079   54.9894   89.9982 C   0  0  0  0  0  0  0  0  0  0  0  0
   24.3355   54.8910   91.1016 C   0  0  0  0  0  0  0  0  0  0  0  0
   26.7935   56.4723   91.3738 C   0  0  0  0  0  0  0  0  0  0  0  0
   24.3151   56.1588   86.6101 N   0  0  0  0  0  0  0  0  0  0  0  0
   23.4259   56.0357   87.6830 C   0  0  0  0  0  0  0  0  0  0  0  0
   23.9212   55.8006   88.9844 N   0  0  0  0  0  0  0  0  0  0  0  0
   28.5236   58.2152   87.5499 C   0  0  0  0  0  0  0  0  0  0  0  0
   22.0203   56.4039   87.5394 C   0  0  0  0  0  0  0  0  0  0  0  0
   29.0698   56.8905   87.4791 N   0  0  0  0  0  0  0  0  0  0  0  0
   25.4379   55.8875   90.8254 C   0  0  0  0  0  0  0  0  0  0  0  0
   26.6194   57.0707   88.9020 C   0  0  0  0  0  0  0  0  0  0  0  0
   27.7446   56.7774   90.0341 C   0  0  0  0  0  0  0  0  0  0  0  0
   27.1033   58.2229   87.9749 C   0  0  0  0  0  0  0  0  0  0  0  0
   25.2803   56.3080   89.3679 C   0  0  0  0  0  0  0  0  0  0  0  0
  1 14  1  0
  2 14  1  0
  3  4  1  0
  3  8  1  0
  4 12  1  0
  5 12  1  0
  5 14  1  0
  6  7  2  0
  7  8  1  0
  7 10  1  0
  8 16  1  0
  9 11  1  0
  9 15  1  0
 12 16  2  0
 13 14  1  0
 13 15  1  0
 13 16  1  0
M  END
>  <ID>  (1) 
conformer_0

$$$$
