
     RDKit          3D

 27 30  0  0  0  0  0  0  0  0999 V2000
   21.7095   55.9964   87.2756 C   0  0  0  0  0  0  0  0  0  0  0  0
   24.3259   55.1001   89.7754 C   0  0  0  0  0  0  0  0  0  0  0  0
   27.8711   56.9493   92.2231 O   0  0  0  0  0  0  0  0  0  0  0  0
   27.8580   57.4808   88.3603 C   0  0  0  0  0  0  0  0  0  0  0  0
   27.5542   56.4462   89.6597 C   0  0  0  0  0  0  0  0  0  0  0  0
   24.0775   55.7268   88.5259 N   0  0  0  0  0  0  0  0  0  0  0  0
   26.0828   59.0269   84.9199 C   0  0  0  0  0  0  0  0  0  0  0  0
   20.4614   55.5947   87.7458 N   0  0  0  0  0  0  0  0  0  0  0  0
   28.3365   58.7361   89.0422 O   0  0  0  0  0  0  0  0  0  0  0  0
   25.4891   54.9492   90.4385 N   0  0  0  0  0  0  0  0  0  0  0  0
   26.9999   59.1535   85.9323 C   0  0  0  0  0  0  0  0  0  0  0  0
   25.8500   57.1231   86.7303 C   0  0  0  0  0  0  0  0  0  0  0  0
   27.8766   60.2534   85.8670 C   0  0  0  0  0  0  0  0  0  0  0  0
   26.9490   56.8567   91.0287 C   0  0  0  0  0  0  0  0  0  0  0  0
   25.9179   59.9927   83.9881 N   0  0  0  0  0  0  0  0  0  0  0  0
   28.5529   55.4373   89.8359 O   0  0  0  0  0  0  0  0  0  0  0  0
   23.1361   54.5932   90.2397 O   0  0  0  0  0  0  0  0  0  0  0  0
   26.9066   58.1479   87.1315 C   0  0  0  0  0  0  0  0  0  0  0  0
   24.9185   56.4586   87.5565 C   0  0  0  0  0  0  0  0  0  0  0  0
   22.7060   55.6219   88.2334 C   0  0  0  0  0  0  0  0  0  0  0  0
   26.7230   61.1235   83.9876 N   0  0  0  0  0  0  0  0  0  0  0  0
   28.9367   56.8363   87.5866 O   0  0  0  0  0  0  0  0  0  0  0  0
   20.7003   54.7567   89.0574 C   0  0  0  0  0  0  0  0  0  0  0  0
   21.9192   56.5817   86.1692 N   0  0  0  0  0  0  0  0  0  0  0  0
   27.7222   61.2544   84.8821 C   0  0  0  0  0  0  0  0  0  0  0  0
   25.9765   55.7429   91.5392 C   0  0  0  0  0  0  0  0  0  0  0  0
   22.1108   54.9264   89.2537 C   0  0  0  0  0  0  0  0  0  0  0  0
  1  8  1  0
  1 20  1  0
  1 24  2  0
  2  6  1  0
  2 10  2  0
  2 17  1  0
  3 14  1  0
  4  5  1  0
  4  9  1  0
  4 18  1  0
  4 22  1  0
  5 14  1  0
  5 16  1  0
  6 19  1  0
  6 20  1  0
  7 11  2  0
  7 15  1  0
  8 23  1  0
 10 26  1  0
 11 13  1  0
 11 18  1  0
 12 18  1  0
 12 19  1  0
 13 25  2  0
 14 26  1  0
 15 21  2  0
 17 27  1  0
 20 27  2  0
 21 25  1  0
 23 27  1  0
M  END
>  <ID>  (1) 
conformer_0

$$$$
