
     RDKit          3D

 20 21  0  0  0  0  0  0  0  0999 V2000
   24.8988   54.5864   92.6542 C   0  0  0  0  0  0  0  0  0  0  0  0
   24.8361   57.0825   86.1411 C   0  0  0  0  0  0  0  0  0  0  0  0
   24.5849   54.9545   89.8338 C   0  0  0  0  0  0  0  0  0  0  0  0
   28.5595   59.0205   88.0988 O   0  0  0  0  0  0  0  0  0  0  0  0
   27.9184   56.5843   89.7875 C   0  0  0  0  0  0  0  0  0  0  0  0
   25.3041   56.0030   90.7050 C   0  0  0  0  0  0  0  0  0  0  0  0
   27.6164   58.0362   87.6098 C   0  0  0  0  0  0  0  0  0  0  0  0
   27.0678   57.0512   88.5911 C   0  0  0  0  0  0  0  0  0  0  0  0
   25.8605   55.3899   91.8864 N   0  0  0  0  0  0  0  0  0  0  0  0
   23.4584   56.1093   87.8904 C   0  0  0  0  0  0  0  0  0  0  0  0
   26.0313   57.6017   85.7076 N   0  0  0  0  0  0  0  0  0  0  0  0
   22.4534   56.6931   85.7587 C   0  0  0  0  0  0  0  0  0  0  0  0
   23.2989   55.3469   89.1696 C   0  0  0  0  0  0  0  0  0  0  0  0
   22.3192   56.2525   87.0762 C   0  0  0  0  0  0  0  0  0  0  0  0
   25.8370   56.6344   88.2283 N   0  0  0  0  0  0  0  0  0  0  0  0
   27.0532   58.0436   86.3638 C   0  0  0  0  0  0  0  0  0  0  0  0
   24.7328   56.6007   87.4489 C   0  0  0  0  0  0  0  0  0  0  0  0
   28.1499   57.2916   90.8473 O   0  0  0  0  0  0  0  0  0  0  0  0
   23.7263   57.0512   85.2801 C   0  0  0  0  0  0  0  0  0  0  0  0
   28.5865   55.4202   89.6701 O   0  0  0  0  0  0  0  0  0  0  0  0
  1  9  1  0
  2 11  1  0
  2 17  2  0
  2 19  1  0
  3  6  1  0
  3 13  1  0
  4  7  1  0
  5  8  1  0
  5 18  2  0
  5 20  1  0
  6  9  1  0
  7  8  1  0
  7 16  1  0
  8 15  1  0
 10 13  1  0
 10 14  1  0
 10 17  1  0
 11 16  1  0
 12 14  2  0
 12 19  1  0
 15 17  1  0
M  END
>  <ID>  (1) 
conformer_0

$$$$
