
     RDKit          3D

 34 39  0  0  0  0  0  0  0  0999 V2000
   21.2880   54.6064   89.3919 C   0  0  0  0  0  0  0  0  0  0  0  0
   27.1216   59.3562   86.1940 O   0  0  0  0  0  0  0  0  0  0  0  0
   28.5632   61.2092   86.8285 O   0  0  0  0  0  0  0  0  0  0  0  0
   23.6168   55.3559   89.1353 C   0  0  0  0  0  0  0  0  0  0  0  0
   24.7699   54.5889   93.4186 N   0  0  0  0  0  0  0  0  0  0  0  0
   26.3400   56.1000   92.4637 C   0  0  0  0  0  0  0  0  0  0  0  0
   27.3094   57.1758   87.1498 C   0  0  0  0  0  0  0  0  0  0  0  0
   27.4667   57.7033   89.5720 C   0  0  0  0  0  0  0  0  0  0  0  0
   23.0582   53.1879   93.0968 N   0  0  0  0  0  0  0  0  0  0  0  0
   27.2388   56.3385   90.2041 C   0  0  0  0  0  0  0  0  0  0  0  0
   23.0600   54.0894   92.0105 C   0  0  0  0  0  0  0  0  0  0  0  0
   24.9414   55.5997   89.2812 N   0  0  0  0  0  0  0  0  0  0  0  0
   21.8666   55.7873   87.5081 C   0  0  0  0  0  0  0  0  0  0  0  0
   24.0584   53.6240   95.5340 C   0  0  0  0  0  0  0  0  0  0  0  0
   25.3580   55.5906   91.4984 C   0  0  0  0  0  0  0  0  0  0  0  0
   20.5300   53.3803   89.7078 C   0  0  0  0  0  0  0  0  0  0  0  0
   27.4643   56.5276   91.7073 O   0  0  0  0  0  0  0  0  0  0  0  0
   21.8070   56.3245   86.2708 N   0  0  0  0  0  0  0  0  0  0  0  0
   23.0935   56.5125   85.8648 C   0  0  0  0  0  0  0  0  0  0  0  0
   20.8012   55.3657   88.2633 N   0  0  0  0  0  0  0  0  0  0  0  0
   28.2213   59.9266   86.8777 C   0  0  0  0  0  0  0  0  0  0  0  0
   24.3368   54.8041   92.0803 C   0  0  0  0  0  0  0  0  0  0  0  0
   28.8726   59.0456   87.8988 C   0  0  0  0  0  0  0  0  0  0  0  0
   22.5135   54.9237   89.8731 N   0  0  0  0  0  0  0  0  0  0  0  0
   27.0644   57.9531   85.9184 C   0  0  0  0  0  0  0  0  0  0  0  0
   28.2552   57.6731   88.2602 C   0  0  0  0  0  0  0  0  0  0  0  0
   23.5322   57.1931   84.6299 C   0  0  0  0  0  0  0  0  0  0  0  0
   25.7995   55.8327   90.2342 C   0  0  0  0  0  0  0  0  0  0  0  0
   23.9558   56.0496   86.7799 N   0  0  0  0  0  0  0  0  0  0  0  0
   24.0421   53.6030   94.0557 C   0  0  0  0  0  0  0  0  0  0  0  0
   29.2116   59.7716   89.1141 O   0  0  0  0  0  0  0  0  0  0  0  0
   23.1953   55.6878   87.8238 C   0  0  0  0  0  0  0  0  0  0  0  0
   26.0244   55.4110   93.6859 C   0  0  0  0  0  0  0  0  0  0  0  0
   28.2825   55.4356   89.7424 O   0  0  0  0  0  0  0  0  0  0  0  0
  1 16  1  0
  1 20  2  0
  1 24  1  0
  2 21  1  0
  2 25  1  0
  3 21  2  0
  4 12  1  0
  4 24  2  0
  4 32  1  0
  5 22  1  0
  5 30  1  0
  5 33  1  0
  6 15  2  0
  6 17  1  0
  6 33  1  0
  7 25  1  0
  7 26  1  0
  8 10  1  0
  8 26  1  0
  9 11  1  0
  9 30  2  0
 10 17  1  0
 10 28  1  0
 10 34  1  0
 11 22  1  0
 12 28  2  3
 13 18  1  0
 13 20  1  0
 13 32  2  0
 14 30  1  0
 15 22  1  0
 15 28  1  0
 18 19  2  0
 19 27  1  0
 19 29  1  0
 21 23  1  0
 23 26  1  0
 23 31  1  0
 29 32  1  0
M  END
>  <ID>  (1) 
conformer_0

$$$$
