
     RDKit          3D

 20 20  0  0  0  0  0  0  0  0999 V2000
   27.8120   58.9984   86.9781 C   0  0  0  0  0  0  0  0  0  0  0  0
   23.8309   55.2582   90.2527 C   0  0  0  0  0  0  0  0  0  0  0  0
   22.3537   55.3797   88.3352 C   0  0  0  0  0  0  0  0  0  0  0  0
   28.6298   56.4807   87.9939 O   0  0  0  0  0  0  0  0  0  0  0  0
   27.8143   58.3473   89.2914 N   0  0  0  0  0  0  0  0  0  0  0  0
   24.4804   56.3972   88.2582 N   0  0  0  0  0  0  0  0  0  0  0  0
   27.1907   56.4398   90.8032 C   0  0  0  0  0  0  0  0  0  0  0  0
   24.3368   56.9905   85.4856 C   0  0  0  0  0  0  0  0  0  0  0  0
   23.4308   57.6401   84.3863 C   0  0  0  0  0  0  0  0  0  0  0  0
   25.4180   54.7641   92.2915 C   0  0  0  0  0  0  0  0  0  0  0  0
   28.9252   60.0771   87.3843 C   0  0  0  0  0  0  0  0  0  0  0  0
   22.6160   54.9835   89.6399 C   0  0  0  0  0  0  0  0  0  0  0  0
   23.0746   56.5972   86.1993 C   0  0  0  0  0  0  0  0  0  0  0  0
   28.1109   57.7896   87.8989 C   0  0  0  0  0  0  0  0  0  0  0  0
   24.6807   55.9847   89.4827 C   0  0  0  0  0  0  0  0  0  0  0  0
   23.3237   56.1241   87.6204 C   0  0  0  0  0  0  0  0  0  0  0  0
   28.4558   55.8952   90.5575 O   0  0  0  0  0  0  0  0  0  0  0  0
   26.4036   55.9840   92.0155 C   0  0  0  0  0  0  0  0  0  0  0  0
   24.0866   54.7342   91.6447 C   0  0  0  0  0  0  0  0  0  0  0  0
   26.6836   57.6416   89.9984 C   0  0  0  0  0  0  0  0  0  0  0  0
  1 11  1  0
  1 14  1  0
  2 12  2  0
  2 15  1  0
  2 19  1  0
  3 12  1  0
  3 16  2  0
  4 14  2  0
  5 14  1  0
  5 20  1  0
  6 15  2  0
  6 16  1  0
  7 17  1  0
  7 18  1  0
  7 20  1  0
  8  9  1  0
  8 13  1  0
 10 18  1  0
 10 19  1  0
 13 16  1  0
M  END
>  <ID>  (1) 
conformer_0

$$$$
