
     RDKit          3D

 20 21  0  0  0  0  0  0  0  0999 V2000
   21.8367   56.6300   87.5296 N   0  0  0  0  0  0  0  0  0  0  0  0
   28.8503   60.2326   88.4513 C   0  0  0  0  0  0  0  0  0  0  0  0
   22.5445   55.4502   89.4820 N   0  0  0  0  0  0  0  0  0  0  0  0
   26.2211   55.9396   91.5031 C   0  0  0  0  0  0  0  0  0  0  0  0
   28.7284   54.6750   90.0364 O   0  0  0  0  0  0  0  0  0  0  0  0
   25.2289   55.0168   92.1743 C   0  0  0  0  0  0  0  0  0  0  0  0
   27.2738   56.6358   89.3435 C   0  0  0  0  0  0  0  0  0  0  0  0
   27.0333   56.6855   92.3512 O   0  0  0  0  0  0  0  0  0  0  0  0
   27.5029   58.1134   89.1424 N   0  0  0  0  0  0  0  0  0  0  0  0
   26.4915   58.3683   85.9189 C   0  0  0  0  0  0  0  0  0  0  0  0
   27.7398   58.4925   86.7100 C   0  0  0  0  0  0  0  0  0  0  0  0
   28.4543   56.0856   90.0391 N   0  0  0  0  0  0  0  0  0  0  0  0
   23.8889   54.6414   91.4836 C   0  0  0  0  0  0  0  0  0  0  0  0
   22.7888   56.2028   88.3793 C   0  0  0  0  0  0  0  0  0  0  0  0
   24.1065   56.5372   88.3915 N   0  0  0  0  0  0  0  0  0  0  0  0
   27.7975   59.1457   88.0680 C   0  0  0  0  0  0  0  0  0  0  0  0
   28.5892   57.3775   86.6446 N   0  0  0  0  0  0  0  0  0  0  0  0
   26.0513   56.3536   90.1150 C   0  0  0  0  0  0  0  0  0  0  0  0
   24.7435   56.0806   89.5556 C   0  0  0  0  0  0  0  0  0  0  0  0
   23.7231   55.3518   90.2019 C   0  0  0  0  0  0  0  0  0  0  0  0
  1 14  2  0
  2 16  1  0
  3 14  1  0
  3 20  1  0
  4  6  1  0
  4  8  1  0
  4 18  1  0
  5 12  1  0
  6 13  1  0
  7  9  1  0
  7 12  1  0
  7 18  1  0
  9 16  1  0
 10 11  1  0
 11 16  1  0
 11 17  1  0
 13 20  1  0
 14 15  1  0
 15 19  1  0
 18 19  1  0
 19 20  2  0
M  END
>  <ID>  (1) 
conformer_0

$$$$
