
     RDKit          3D

 20 23  0  0  0  0  0  0  0  0999 V2000
   25.3850   55.4052   91.7353 C   0  0  0  0  0  0  0  0  0  0  0  0
   28.7343   56.3108   90.9288 O   0  0  0  0  0  0  0  0  0  0  0  0
   23.4254   55.1146   90.3108 C   0  0  0  0  0  0  0  0  0  0  0  0
   26.4530   59.4250   84.8156 C   0  0  0  0  0  0  0  0  0  0  0  0
   25.5924   57.2142   87.2215 C   0  0  0  0  0  0  0  0  0  0  0  0
   28.9713   56.9070   88.3114 N   0  0  0  0  0  0  0  0  0  0  0  0
   22.8412   55.3110   89.0851 C   0  0  0  0  0  0  0  0  0  0  0  0
   26.6955   55.7548   91.9208 C   0  0  0  0  0  0  0  0  0  0  0  0
   25.4714   56.1801   89.4510 C   0  0  0  0  0  0  0  0  0  0  0  0
   27.6364   57.1069   88.6249 C   0  0  0  0  0  0  0  0  0  0  0  0
   27.5056   59.4926   85.7580 C   0  0  0  0  0  0  0  0  0  0  0  0
   24.8803   56.4272   88.1997 C   0  0  0  0  0  0  0  0  0  0  0  0
   23.5470   55.9454   88.0530 C   0  0  0  0  0  0  0  0  0  0  0  0
   25.1360   57.6162   85.9500 C   0  0  0  0  0  0  0  0  0  0  0  0
   27.5595   58.6888   86.8325 C   0  0  0  0  0  0  0  0  0  0  0  0
   24.7661   55.5652   90.4953 C   0  0  0  0  0  0  0  0  0  0  0  0
   26.8887   57.6981   87.5259 C   0  0  0  0  0  0  0  0  0  0  0  0
   26.8156   56.5452   89.6801 N   0  0  0  0  0  0  0  0  0  0  0  0
   27.4184   56.2523   90.8920 C   0  0  0  0  0  0  0  0  0  0  0  0
   25.4634   58.4822   85.0007 C   0  0  0  0  0  0  0  0  0  0  0  0
  1  8  2  0
  1 16  1  0
  2 19  2  0
  3  7  1  0
  3 16  2  0
  4 11  1  0
  4 20  1  0
  5 12  1  0
  5 14  1  0
  5 17  1  0
  6 10  2  0
  7 13  2  0
  8 19  1  0
  9 12  2  0
  9 16  1  0
  9 18  1  0
 10 17  1  0
 10 18  1  0
 11 15  2  0
 12 13  1  0
 14 20  2  0
 15 17  1  0
 18 19  1  0
M  END
>  <ID>  (1) 
conformer_0

$$$$
