
     RDKit          3D

 26 27  0  0  0  0  0  0  0  0999 V2000
   23.2633   55.1141   90.1268 C   0  0  0  0  0  0  0  0  0  0  0  0
   25.9062   55.1953   93.2326 O   0  0  0  0  0  0  0  0  0  0  0  0
   27.8550   59.4163   88.8360 O   0  0  0  0  0  0  0  0  0  0  0  0
   29.2157   56.4803   87.4689 O   0  0  0  0  0  0  0  0  0  0  0  0
   23.7250   56.8252   85.1271 C   0  0  0  0  0  0  0  0  0  0  0  0
   25.6446   57.1281   86.4224 C   0  0  0  0  0  0  0  0  0  0  0  0
   22.9644   55.6818   88.6580 C   0  0  0  0  0  0  0  0  0  0  0  0
   25.7503   55.6472   90.9700 C   0  0  0  0  0  0  0  0  0  0  0  0
   24.9587   55.0280   92.1250 C   0  0  0  0  0  0  0  0  0  0  0  0
   23.5728   54.5515   91.6117 C   0  0  0  0  0  0  0  0  0  0  0  0
   26.9520   56.4840   91.2029 C   0  0  0  0  0  0  0  0  0  0  0  0
   27.7027   56.9968   92.3013 O   0  0  0  0  0  0  0  0  0  0  0  0
   27.7615   60.8991   85.7435 C   0  0  0  0  0  0  0  0  0  0  0  0
   22.9126   53.7294   92.7037 C   0  0  0  0  0  0  0  0  0  0  0  0
   28.0939   59.5588   86.2906 C   0  0  0  0  0  0  0  0  0  0  0  0
   25.8313   56.7487   88.7306 O   0  0  0  0  0  0  0  0  0  0  0  0
   28.4905   58.8001   87.6229 C   0  0  0  0  0  0  0  0  0  0  0  0
   28.0932   58.6683   85.1877 O   0  0  0  0  0  0  0  0  0  0  0  0
   25.0629   56.7303   87.5279 C   0  0  0  0  0  0  0  0  0  0  0  0
   27.2455   56.8063   88.7798 C   0  0  0  0  0  0  0  0  0  0  0  0
   23.6984   56.2755   87.4886 C   0  0  0  0  0  0  0  0  0  0  0  0
   25.0429   57.2077   85.2123 C   0  0  0  0  0  0  0  0  0  0  0  0
   28.8056   55.1676   89.8316 O   0  0  0  0  0  0  0  0  0  0  0  0
   28.0428   56.3914   90.0273 C   0  0  0  0  0  0  0  0  0  0  0  0
   23.0647   56.3569   86.2521 C   0  0  0  0  0  0  0  0  0  0  0  0
   28.0373   57.2957   87.5776 C   0  0  0  0  0  0  0  0  0  0  0  0
  1  7  2  0
  1 10  2  0
  2  9  1  0
  3 17  1  0
  4 26  1  0
  5 22  1  0
  5 25  2  0
  6 19  1  0
  6 22  2  0
  7 21  1  0
  8  9  2  0
  8 11  1  0
  9 10  1  0
 10 14  1  0
 11 12  1  0
 11 24  1  0
 13 15  1  0
 15 17  1  0
 15 18  1  0
 16 19  1  0
 16 20  1  0
 17 26  1  0
 19 21  2  0
 20 24  1  0
 20 26  1  0
 21 25  1  0
 23 24  1  0
M  END
>  <ID>  (1) 
conformer_0

$$$$
