
     RDKit          3D

 19 21  0  0  0  0  0  0  0  0999 V2000
   29.2495   57.3908   87.5428 O   0  0  0  0  0  0  0  0  0  0  0  0
   27.4147   56.3785   90.0426 C   0  0  0  0  0  0  0  0  0  0  0  0
   27.7539   57.1172   91.2141 O   0  0  0  0  0  0  0  0  0  0  0  0
   26.1391   55.5242   90.4862 C   0  0  0  0  0  0  0  0  0  0  0  0
   24.8148   56.0180   89.8073 C   0  0  0  0  0  0  0  0  0  0  0  0
   22.4747   56.8625   87.2157 O   0  0  0  0  0  0  0  0  0  0  0  0
   27.3775   58.2216   86.3177 C   0  0  0  0  0  0  0  0  0  0  0  0
   27.9999   58.1379   87.7835 C   0  0  0  0  0  0  0  0  0  0  0  0
   25.1408   57.0028   85.3747 C   0  0  0  0  0  0  0  0  0  0  0  0
   28.5267   55.4678   89.7353 O   0  0  0  0  0  0  0  0  0  0  0  0
   27.0681   57.2069   88.6792 C   0  0  0  0  0  0  0  0  0  0  0  0
   23.1942   56.1206   88.0141 C   0  0  0  0  0  0  0  0  0  0  0  0
   23.4219   54.7816   91.3578 O   0  0  0  0  0  0  0  0  0  0  0  0
   22.5420   55.4021   89.1448 C   0  0  0  0  0  0  0  0  0  0  0  0
   25.9023   56.8919   87.7390 N   0  0  0  0  0  0  0  0  0  0  0  0
   23.6125   55.2102   90.1443 C   0  0  0  0  0  0  0  0  0  0  0  0
   27.2899   59.6788   85.8944 C   0  0  0  0  0  0  0  0  0  0  0  0
   24.6063   56.4562   88.3469 C   0  0  0  0  0  0  0  0  0  0  0  0
   25.9958   57.6042   86.4874 C   0  0  0  0  0  0  0  0  0  0  0  0
  1  8  1  0
  2  3  1  0
  2  4  1  0
  2 10  1  0
  2 11  1  0
  4  5  1  0
  5 16  1  0
  5 18  1  0
  6 12  1  0
  7  8  1  0
  7 17  1  0
  7 19  1  0
  8 11  1  0
  9 19  1  0
 11 15  1  0
 12 14  1  0
 12 18  1  0
 13 16  1  0
 14 16  1  0
 15 18  1  0
 15 19  1  0
M  END
>  <ID>  (1) 
conformer_0

$$$$
