
     RDKit          3D

 24 27  0  0  0  0  0  0  0  0999 V2000
   26.6775   56.3458   91.5839 C   0  0  0  0  0  0  0  0  0  0  0  0
   24.2411   55.7882   88.7999 C   0  0  0  0  0  0  0  0  0  0  0  0
   29.0058   56.3917   87.7393 O   0  0  0  0  0  0  0  0  0  0  0  0
   21.9590   55.7679   88.1056 C   0  0  0  0  0  0  0  0  0  0  0  0
   27.0277   56.5985   89.0956 C   0  0  0  0  0  0  0  0  0  0  0  0
   25.5802   56.1309   89.3426 C   0  0  0  0  0  0  0  0  0  0  0  0
   23.3779   55.2012   89.8954 C   0  0  0  0  0  0  0  0  0  0  0  0
   28.4338   57.9131   90.4894 O   0  0  0  0  0  0  0  0  0  0  0  0
   25.7342   58.0452   85.0589 C   0  0  0  0  0  0  0  0  0  0  0  0
   27.9298   57.1988   88.0624 C   0  0  0  0  0  0  0  0  0  0  0  0
   23.3151   56.3098   87.9159 O   0  0  0  0  0  0  0  0  0  0  0  0
   25.6010   55.5676   90.7641 C   0  0  0  0  0  0  0  0  0  0  0  0
   26.4506   55.8537   93.0098 O   0  0  0  0  0  0  0  0  0  0  0  0
   26.2968   57.3637   86.1309 C   0  0  0  0  0  0  0  0  0  0  0  0
   27.0435   59.9754   85.6054 C   0  0  0  0  0  0  0  0  0  0  0  0
   27.2699   57.9394   86.9555 C   0  0  0  0  0  0  0  0  0  0  0  0
   28.6667   55.3807   90.4326 O   0  0  0  0  0  0  0  0  0  0  0  0
   27.5915   59.2938   86.6954 C   0  0  0  0  0  0  0  0  0  0  0  0
   23.9577   54.4361   92.1003 O   0  0  0  0  0  0  0  0  0  0  0  0
   25.8396   59.9504   83.4906 C   0  0  0  0  0  0  0  0  0  0  0  0
   24.2442   55.1818   91.0803 C   0  0  0  0  0  0  0  0  0  0  0  0
   27.8584   56.5939   90.4925 C   0  0  0  0  0  0  0  0  0  0  0  0
   26.1537   59.3356   84.7708 C   0  0  0  0  0  0  0  0  0  0  0  0
   22.1042   54.8821   89.2959 C   0  0  0  0  0  0  0  0  0  0  0  0
  1 12  1  0
  1 13  1  0
  1 22  1  0
  2  6  1  0
  2  7  1  0
  2 11  1  0
  3 10  1  0
  4 11  1  0
  4 24  1  0
  5  6  2  0
  5 10  1  0
  5 22  1  0
  6 12  1  0
  7 21  1  0
  7 24  1  0
  8 22  1  0
  9 14  2  0
  9 23  1  0
 10 16  1  0
 12 21  1  0
 14 16  1  0
 15 18  1  0
 15 23  2  0
 16 18  2  0
 17 22  1  0
 19 21  1  0
 20 23  1  0
M  END
>  <ID>  (1) 
conformer_0

$$$$
