
     RDKit          3D

 31 35  0  0  0  0  0  0  0  0999 V2000
   27.8364   57.5048   88.9519 C   0  0  0  0  0  0  0  0  0  0  0  0
   23.1214   56.3265   86.2151 C   0  0  0  0  0  0  0  0  0  0  0  0
   26.8472   58.4306   89.4528 O   0  0  0  0  0  0  0  0  0  0  0  0
   27.8071   56.2018   90.0862 C   0  0  0  0  0  0  0  0  0  0  0  0
   25.6663   55.3684   91.5637 C   0  0  0  0  0  0  0  0  0  0  0  0
   27.0472   59.5141   85.0674 C   0  0  0  0  0  0  0  0  0  0  0  0
   23.3347   54.8713   90.7491 C   0  0  0  0  0  0  0  0  0  0  0  0
   26.7051   56.5039   91.3125 C   0  0  0  0  0  0  0  0  0  0  0  0
   23.9344   56.1183   88.4062 C   0  0  0  0  0  0  0  0  0  0  0  0
   25.5003   54.8696   92.7570 O   0  0  0  0  0  0  0  0  0  0  0  0
   28.6474   55.2140   89.1503 O   0  0  0  0  0  0  0  0  0  0  0  0
   28.8865   59.1134   86.7111 C   0  0  0  0  0  0  0  0  0  0  0  0
   21.9259   55.8326   87.2436 C   0  0  0  0  0  0  0  0  0  0  0  0
   22.3938   54.8919   89.7573 C   0  0  0  0  0  0  0  0  0  0  0  0
   28.0211   58.0357   87.3884 C   0  0  0  0  0  0  0  0  0  0  0  0
   21.2181   54.2303   89.8888 C   0  0  0  0  0  0  0  0  0  0  0  0
   28.1637   60.0170   85.7334 C   0  0  0  0  0  0  0  0  0  0  0  0
   24.0700   56.7265   87.2208 O   0  0  0  0  0  0  0  0  0  0  0  0
   24.3564   56.4070   85.0742 C   0  0  0  0  0  0  0  0  0  0  0  0
   26.3967   60.3326   84.1646 C   0  0  0  0  0  0  0  0  0  0  0  0
   27.9175   62.1538   84.5977 C   0  0  0  0  0  0  0  0  0  0  0  0
   27.3818   57.3113   86.2967 O   0  0  0  0  0  0  0  0  0  0  0  0
   28.5999   61.3360   85.5344 C   0  0  0  0  0  0  0  0  0  0  0  0
   29.0692   56.3715   90.8347 O   0  0  0  0  0  0  0  0  0  0  0  0
   24.5723   55.4463   90.5141 C   0  0  0  0  0  0  0  0  0  0  0  0
   26.6551   58.0967   85.3217 C   0  0  0  0  0  0  0  0  0  0  0  0
   27.1114   56.9012   92.6264 O   0  0  0  0  0  0  0  0  0  0  0  0
   26.8379   61.6552   83.9134 C   0  0  0  0  0  0  0  0  0  0  0  0
   22.6884   55.5605   88.5391 N   0  0  0  0  0  0  0  0  0  0  0  0
   24.8296   56.0403   89.3549 N   0  0  0  0  0  0  0  0  0  0  0  0
   25.1675   57.7490   85.2921 C   0  0  0  0  0  0  0  0  0  0  0  0
  1  3  1  0
  1  4  1  0
  1 15  1  0
  2 13  1  0
  2 18  1  0
  2 19  1  0
  4  8  1  0
  4 11  1  0
  4 24  1  0
  5  8  1  0
  5 10  1  0
  5 25  1  0
  6 17  2  0
  6 20  1  0
  6 26  1  0
  7 14  1  0
  7 25  2  0
  8 27  1  0
  9 18  1  0
  9 29  1  0
  9 30  2  0
 12 15  1  0
 12 17  1  0
 13 29  1  0
 14 16  2  0
 14 29  1  0
 15 22  1  0
 17 23  1  0
 19 31  1  0
 20 28  2  0
 21 23  2  0
 21 28  1  0
 22 26  1  0
 25 30  1  0
 26 31  1  0
M  END
>  <ID>  (1) 
conformer_0

$$$$
