
     RDKit          3D

 28 31  0  0  0  0  0  0  0  0999 V2000
   28.6779   59.7754   86.0943 C   0  0  0  0  0  0  0  0  0  0  0  0
   25.1377   57.1057   86.0733 C   0  0  0  0  0  0  0  0  0  0  0  0
   28.3224   58.7439   87.9698 C   0  0  0  0  0  0  0  0  0  0  0  0
   27.7241   56.6982   92.1734 O   0  0  0  0  0  0  0  0  0  0  0  0
   28.8223   56.3922   87.7994 O   0  0  0  0  0  0  0  0  0  0  0  0
   26.0442   56.5817   90.5592 N   0  0  0  0  0  0  0  0  0  0  0  0
   26.5946   56.2753   91.7639 C   0  0  0  0  0  0  0  0  0  0  0  0
   22.3113   56.4190   86.0660 C   0  0  0  0  0  0  0  0  0  0  0  0
   27.3160   59.8741   85.5818 C   0  0  0  0  0  0  0  0  0  0  0  0
   24.8768   55.7872   90.3941 C   0  0  0  0  0  0  0  0  0  0  0  0
   22.8959   57.0860   84.9836 C   0  0  0  0  0  0  0  0  0  0  0  0
   23.6911   54.4237   92.2134 C   0  0  0  0  0  0  0  0  0  0  0  0
   28.7477   60.1228   88.7018 C   0  0  0  0  0  0  0  0  0  0  0  0
   24.0799   56.0785   87.9589 C   0  0  0  0  0  0  0  0  0  0  0  0
   26.4138   57.5585   89.6204 C   0  0  0  0  0  0  0  0  0  0  0  0
   22.7935   54.9536   89.5699 C   0  0  0  0  0  0  0  0  0  0  0  0
   27.7185   57.3125   87.5904 C   0  0  0  0  0  0  0  0  0  0  0  0
   22.9379   56.0345   87.1763 C   0  0  0  0  0  0  0  0  0  0  0  0
   21.0524   56.0987   86.0315 O   0  0  0  0  0  0  0  0  0  0  0  0
   25.8271   55.4442   92.4114 N   0  0  0  0  0  0  0  0  0  0  0  0
   22.1266   54.3666   90.4563 C   0  0  0  0  0  0  0  0  0  0  0  0
   24.6699   55.1574   91.6177 C   0  0  0  0  0  0  0  0  0  0  0  0
   29.4328   58.8339   86.8755 N   0  0  0  0  0  0  0  0  0  0  0  0
   22.4635   54.0224   91.7403 C   0  0  0  0  0  0  0  0  0  0  0  0
   26.3923   57.0705   88.2444 C   0  0  0  0  0  0  0  0  0  0  0  0
   24.2788   57.3399   85.0763 C   0  0  0  0  0  0  0  0  0  0  0  0
   25.2498   56.7070   87.3990 C   0  0  0  0  0  0  0  0  0  0  0  0
   24.0064   55.6145   89.3114 C   0  0  0  0  0  0  0  0  0  0  0  0
  1  9  1  0
  1 23  1  0
  2 26  2  0
  2 27  1  0
  3 13  1  0
  3 17  1  0
  3 23  1  0
  4  7  2  0
  5 17  1  0
  6  7  1  0
  6 10  1  0
  6 15  1  0
  7 20  1  0
  8 11  1  0
  8 18  2  0
  8 19  1  0
 10 22  1  0
 10 28  1  0
 11 26  1  0
 12 22  2  0
 12 24  1  0
 14 18  1  0
 14 27  1  0
 14 28  2  0
 15 25  1  0
 16 21  2  0
 16 28  1  0
 17 25  1  0
 20 22  1  0
 21 24  1  0
 25 27  1  0
M  END
>  <ID>  (1) 
conformer_0

$$$$
