
     RDKit          3D

 32 35  0  0  0  0  0  0  0  0999 V2000
   27.1666   57.3966   89.8468 C   0  0  0  0  0  0  0  0  0  0  0  0
   23.2360   55.2224   89.7029 C   0  0  0  0  0  0  0  0  0  0  0  0
   23.4374   56.4763   84.6684 C   0  0  0  0  0  0  0  0  0  0  0  0
   24.2361   55.4747   88.8000 C   0  0  0  0  0  0  0  0  0  0  0  0
   24.5630   54.3959   93.1053 C   0  0  0  0  0  0  0  0  0  0  0  0
   28.4018   59.8031   85.6341 C   0  0  0  0  0  0  0  0  0  0  0  0
   26.9841   59.1739   83.1991 O   0  0  0  0  0  0  0  0  0  0  0  0
   26.4083   59.0211   84.3318 C   0  0  0  0  0  0  0  0  0  0  0  0
   23.9937   55.7353   87.4973 C   0  0  0  0  0  0  0  0  0  0  0  0
   28.2963   58.4942   89.3517 C   0  0  0  0  0  0  0  0  0  0  0  0
   27.9416   56.4362   90.7872 C   0  0  0  0  0  0  0  0  0  0  0  0
   23.3613   54.7788   91.0681 C   0  0  0  0  0  0  0  0  0  0  0  0
   22.3555   53.5524   92.8870 C   0  0  0  0  0  0  0  0  0  0  0  0
   28.0353   58.5282   87.7799 C   0  0  0  0  0  0  0  0  0  0  0  0
   25.6871   55.4896   91.2822 N   0  0  0  0  0  0  0  0  0  0  0  0
   27.2333   58.8757   85.4672 N   0  0  0  0  0  0  0  0  0  0  0  0
   21.6696   55.5899   87.8855 C   0  0  0  0  0  0  0  0  0  0  0  0
   24.3746   57.5678   85.0539 C   0  0  0  0  0  0  0  0  0  0  0  0
   29.0944   59.3974   86.9778 C   0  0  0  0  0  0  0  0  0  0  0  0
   27.4027   57.8284   86.4985 C   0  0  0  0  0  0  0  0  0  0  0  0
   25.0452   58.7429   84.5013 O   0  0  0  0  0  0  0  0  0  0  0  0
   26.7626   56.5926   88.7300 O   0  0  0  0  0  0  0  0  0  0  0  0
   23.4871   53.6964   93.6514 C   0  0  0  0  0  0  0  0  0  0  0  0
   22.3927   55.8738   85.5418 C   0  0  0  0  0  0  0  0  0  0  0  0
   28.6548   55.3980   90.1033 O   0  0  0  0  0  0  0  0  0  0  0  0
   26.9674   56.6528   92.9282 O   0  0  0  0  0  0  0  0  0  0  0  0
   21.9323   55.3430   89.1728 C   0  0  0  0  0  0  0  0  0  0  0  0
   24.5552   54.9061   91.8312 C   0  0  0  0  0  0  0  0  0  0  0  0
   22.7336   55.7528   86.9843 C   0  0  0  0  0  0  0  0  0  0  0  0
   29.3182   59.6648   89.4801 N   0  0  0  0  0  0  0  0  0  0  0  0
   26.8630   55.9395   91.7854 C   0  0  0  0  0  0  0  0  0  0  0  0
   22.2855   54.1061   91.6494 C   0  0  0  0  0  0  0  0  0  0  0  0
  1 10  1  0
  1 11  1  0
  1 22  1  0
  2  4  1  0
  2 12  1  0
  2 27  1  0
  3 18  1  0
  3 24  1  0
  4  9  2  0
  5 23  1  0
  5 28  2  0
  6 16  1  0
  6 19  1  0
  7  8  2  0
  8 16  1  0
  8 21  1  0
  9 29  1  0
 10 14  1  0
 10 30  1  0
 11 25  1  0
 11 31  1  0
 12 28  1  0
 12 32  1  0
 13 23  1  0
 13 32  2  0
 14 19  1  0
 14 20  1  0
 15 28  1  0
 15 31  1  0
 16 20  1  0
 17 27  2  0
 17 29  1  0
 18 21  1  0
 24 29  1  0
 26 31  2  0
M  END
>  <ID>  (1) 
conformer_0

$$$$
