
     RDKit          3D

 28 31  0  0  0  0  0  0  0  0999 V2000
   22.5277   56.1011   87.1655 C   0  0  0  0  0  0  0  0  0  0  0  0
   23.7421   55.3982   88.9886 N   0  0  0  0  0  0  0  0  0  0  0  0
   27.0268   57.8399   87.4723 C   0  0  0  0  0  0  0  0  0  0  0  0
   21.6134   55.6122   88.1770 C   0  0  0  0  0  0  0  0  0  0  0  0
   24.6984   54.9410   89.9414 C   0  0  0  0  0  0  0  0  0  0  0  0
   25.6113   57.9134   84.9610 N   0  0  0  0  0  0  0  0  0  0  0  0
   26.4849   59.0173   85.2109 C   0  0  0  0  0  0  0  0  0  0  0  0
   26.9629   56.9938   90.8426 C   0  0  0  0  0  0  0  0  0  0  0  0
   28.1109   57.5697   88.5439 C   0  0  0  0  0  0  0  0  0  0  0  0
   29.2064   57.1506   87.6744 O   0  0  0  0  0  0  0  0  0  0  0  0
   24.1876   54.6454   91.4094 C   0  0  0  0  0  0  0  0  0  0  0  0
   29.1401   60.0679   87.9071 O   0  0  0  0  0  0  0  0  0  0  0  0
   27.5603   56.9224   92.1892 O   0  0  0  0  0  0  0  0  0  0  0  0
   27.0178   60.4517   84.2965 S   0  0  0  0  0  0  0  0  0  0  0  0
   28.7260   59.5955   86.5689 C   0  0  0  0  0  0  0  0  0  0  0  0
   28.5868   55.3079   89.8454 O   0  0  0  0  0  0  0  0  0  0  0  0
   28.0386   56.6252   89.7968 C   0  0  0  0  0  0  0  0  0  0  0  0
   24.2473   53.3403   91.9573 O   0  0  0  0  0  0  0  0  0  0  0  0
   27.3807   58.8928   86.4607 C   0  0  0  0  0  0  0  0  0  0  0  0
   21.8837   54.7006   90.2318 O   0  0  0  0  0  0  0  0  0  0  0  0
   23.3311   57.0966   85.1659 C   0  0  0  0  0  0  0  0  0  0  0  0
   23.8555   55.9975   87.6931 C   0  0  0  0  0  0  0  0  0  0  0  0
   24.8547   56.4708   86.8992 C   0  0  0  0  0  0  0  0  0  0  0  0
   25.6833   56.1068   90.5407 C   0  0  0  0  0  0  0  0  0  0  0  0
   25.5312   55.3658   91.9154 C   0  0  0  0  0  0  0  0  0  0  0  0
   22.2824   56.5927   85.8970 C   0  0  0  0  0  0  0  0  0  0  0  0
   22.3677   55.1872   89.2592 C   0  0  0  0  0  0  0  0  0  0  0  0
   24.6277   57.1413   85.7129 C   0  0  0  0  0  0  0  0  0  0  0  0
  1  4  1  0
  1 22  1  0
  1 26  1  0
  2  5  1  0
  2 22  1  0
  2 27  1  0
  3  9  1  0
  3 19  2  0
  4 27  1  0
  5 11  1  0
  5 24  1  0
  6  7  1  0
  6 28  1  0
  7 14  2  0
  7 19  1  0
  8 13  1  0
  8 17  1  0
  8 24  1  0
  9 10  1  0
  9 17  1  0
 11 18  1  0
 11 25  1  0
 12 15  1  0
 15 19  1  0
 16 17  1  0
 20 27  2  0
 21 26  2  0
 21 28  1  0
 22 23  2  0
 23 28  1  0
 24 25  1  0
M  END
>  <ID>  (1) 
conformer_0

$$$$
