
     RDKit          3D

 25 27  0  0  0  0  0  0  0  0999 V2000
   28.8598   60.1283   87.9964 C   0  0  0  0  0  0  0  0  0  0  0  0
   28.0037   57.7560   87.4560 C   0  0  0  0  0  0  0  0  0  0  0  0
   28.4486   55.9510   89.2877 O   0  0  0  0  0  0  0  0  0  0  0  0
   29.3514   59.9112   89.3678 O   0  0  0  0  0  0  0  0  0  0  0  0
   26.9220   57.3956   86.4642 C   0  0  0  0  0  0  0  0  0  0  0  0
   23.1543   55.5578   88.8830 C   0  0  0  0  0  0  0  0  0  0  0  0
   24.1755   55.4517   87.7870 C   0  0  0  0  0  0  0  0  0  0  0  0
   25.0124   54.6884   92.9272 C   0  0  0  0  0  0  0  0  0  0  0  0
   27.4591   58.0593   88.8014 O   0  0  0  0  0  0  0  0  0  0  0  0
   24.2803   56.5566   86.9211 N   0  0  0  0  0  0  0  0  0  0  0  0
   23.2455   54.5426   91.2079 C   0  0  0  0  0  0  0  0  0  0  0  0
   23.8501   55.3613   90.2336 C   0  0  0  0  0  0  0  0  0  0  0  0
   23.8547   54.2764   92.4329 C   0  0  0  0  0  0  0  0  0  0  0  0
   27.6725   57.0498   89.7157 C   0  0  0  0  0  0  0  0  0  0  0  0
   27.0983   57.0319   90.9898 N   0  0  0  0  0  0  0  0  0  0  0  0
   26.0069   56.1754   91.3113 C   0  0  0  0  0  0  0  0  0  0  0  0
   21.9981   56.2825   88.1956 C   0  0  0  0  0  0  0  0  0  0  0  0
   25.0174   55.9370   90.4367 C   0  0  0  0  0  0  0  0  0  0  0  0
   25.5026   57.1901   86.6489 N   0  0  0  0  0  0  0  0  0  0  0  0
   29.1612   55.5614   90.5952 O   0  0  0  0  0  0  0  0  0  0  0  0
   23.2092   56.7691   85.9313 C   0  0  0  0  0  0  0  0  0  0  0  0
   25.9748   55.5546   92.5611 N   0  0  0  0  0  0  0  0  0  0  0  0
   27.3382   57.2639   85.1717 O   0  0  0  0  0  0  0  0  0  0  0  0
   21.9174   56.3015   86.6582 C   0  0  0  0  0  0  0  0  0  0  0  0
   28.7927   58.9916   86.9932 C   0  0  0  0  0  0  0  0  0  0  0  0
  1  4  1  0
  1 25  1  0
  2  5  1  0
  2  9  1  0
  2 25  1  0
  3 14  1  0
  3 20  1  0
  5 19  1  0
  5 23  2  0
  6  7  1  0
  6 12  1  0
  6 17  1  0
  7 10  1  0
  8 13  2  0
  8 22  1  0
  9 14  1  0
 10 19  1  0
 10 21  1  0
 11 12  1  0
 11 13  1  0
 12 18  2  0
 14 15  1  0
 15 16  1  0
 16 18  1  0
 16 22  2  0
 17 24  1  0
 21 24  1  0
M  END
>  <ID>  (1) 
conformer_0

$$$$
