
     RDKit          3D

 20 22  0  0  0  0  0  0  0  0999 V2000
   26.4253   57.4109   87.2718 C   0  0  0  0  0  0  0  0  0  0  0  0
   25.7032   58.3605   85.1277 C   0  0  0  0  0  0  0  0  0  0  0  0
   26.5337   58.3772   86.2354 C   0  0  0  0  0  0  0  0  0  0  0  0
   24.6391   55.8633   88.9244 C   0  0  0  0  0  0  0  0  0  0  0  0
   28.5987   58.3304   89.6779 O   0  0  0  0  0  0  0  0  0  0  0  0
   28.6954   55.6101   89.7734 O   0  0  0  0  0  0  0  0  0  0  0  0
   26.6346   56.8839   90.5610 C   0  0  0  0  0  0  0  0  0  0  0  0
   27.4849   59.4062   86.2777 C   0  0  0  0  0  0  0  0  0  0  0  0
   27.7179   56.9214   87.8558 C   0  0  0  0  0  0  0  0  0  0  0  0
   25.2270   56.7061   87.7499 N   0  0  0  0  0  0  0  0  0  0  0  0
   27.9809   56.9330   89.5008 C   0  0  0  0  0  0  0  0  0  0  0  0
   25.7302   59.3562   84.1487 C   0  0  0  0  0  0  0  0  0  0  0  0
   24.8166   55.2756   91.2614 C   0  0  0  0  0  0  0  0  0  0  0  0
   26.6218   60.4415   84.2583 C   0  0  0  0  0  0  0  0  0  0  0  0
   23.4450   54.7127   90.8510 C   0  0  0  0  0  0  0  0  0  0  0  0
   25.3675   54.8641   92.3927 O   0  0  0  0  0  0  0  0  0  0  0  0
   27.5252   60.4415   85.3063 C   0  0  0  0  0  0  0  0  0  0  0  0
   23.1755   55.2607   89.3344 C   0  0  0  0  0  0  0  0  0  0  0  0
   25.4772   55.9569   90.1522 N   0  0  0  0  0  0  0  0  0  0  0  0
   27.2846   56.8857   91.9134 O   0  0  0  0  0  0  0  0  0  0  0  0
  1  3  1  0
  1  9  1  0
  1 10  1  0
  2  3  2  0
  2 12  1  0
  3  8  1  0
  4 10  2  0
  4 18  1  0
  4 19  1  0
  5 11  1  0
  6 11  1  0
  7 11  1  0
  7 19  1  0
  7 20  1  0
  8 17  1  0
  9 11  1  0
 12 14  1  0
 13 15  1  0
 13 16  2  0
 13 19  1  0
 14 17  2  0
 15 18  1  0
M  END
>  <ID>  (1) 
conformer_0

$$$$
