
     RDKit          3D

 20 22  0  0  0  0  0  0  0  0999 V2000
   26.5073   59.6722   84.9051 O   0  0  0  0  0  0  0  0  0  0  0  0
   25.3149   55.7977   90.3238 C   0  0  0  0  0  0  0  0  0  0  0  0
   26.0123   57.0273   87.8949 N   0  0  0  0  0  0  0  0  0  0  0  0
   26.7299   56.3246   90.1320 C   0  0  0  0  0  0  0  0  0  0  0  0
   23.7453   56.7720   87.0976 C   0  0  0  0  0  0  0  0  0  0  0  0
   26.3676   57.6025   86.6626 C   0  0  0  0  0  0  0  0  0  0  0  0
   24.3186   55.8772   89.2157 N   0  0  0  0  0  0  0  0  0  0  0  0
   22.9984   55.3524   89.3605 C   0  0  0  0  0  0  0  0  0  0  0  0
   27.4310   58.6657   86.9119 C   0  0  0  0  0  0  0  0  0  0  0  0
   22.0774   55.6302   88.2926 C   0  0  0  0  0  0  0  0  0  0  0  0
   20.7070   55.0448   88.3086 C   0  0  0  0  0  0  0  0  0  0  0  0
   28.2713   55.9240   90.3115 C   0  0  0  0  0  0  0  0  0  0  0  0
   26.8303   57.4955   89.0412 C   0  0  0  0  0  0  0  0  0  0  0  0
   28.6573   59.2750   88.9428 O   0  0  0  0  0  0  0  0  0  0  0  0
   28.7842   57.2672   90.8084 O   0  0  0  0  0  0  0  0  0  0  0  0
   28.0835   58.1443   88.2977 C   0  0  0  0  0  0  0  0  0  0  0  0
   22.4594   56.3807   87.2114 N   0  0  0  0  0  0  0  0  0  0  0  0
   24.7069   56.5452   88.0592 C   0  0  0  0  0  0  0  0  0  0  0  0
   27.7304   59.1536   85.4402 C   0  0  0  0  0  0  0  0  0  0  0  0
   22.6378   54.5098   90.4847 C   0  0  0  0  0  0  0  0  0  0  0  0
  1 19  1  0
  2  4  1  0
  2  7  1  0
  3  6  1  0
  3 13  1  0
  3 18  1  0
  4 12  1  0
  4 13  1  0
  5 17  2  0
  5 18  1  0
  6  9  1  0
  7  8  1  0
  7 18  1  0
  8 10  2  0
  8 20  1  0
  9 16  1  0
  9 19  1  0
 10 11  1  0
 10 17  1  0
 12 15  1  0
 13 16  1  0
 14 16  1  0
M  END
>  <ID>  (1) 
conformer_0

$$$$
