
     RDKit          3D

 15 15  0  0  0  0  0  0  0  0999 V2000
   28.6383   55.7338   89.3298 N   0  0  0  0  0  0  0  0  0  0  0  0
   26.6250   57.3042   84.9681 C   0  0  0  0  0  0  0  0  0  0  0  0
   22.2322   55.2942   89.1869 N   0  0  0  0  0  0  0  0  0  0  0  0
   22.3766   55.7157   87.7447 C   0  0  0  0  0  0  0  0  0  0  0  0
   27.6274   57.8040   88.1529 P   0  0  0  0  0  4  0  0  0  0  0  0
   28.8997   55.5969   90.7576 N   0  0  0  0  0  0  0  0  0  0  0  0
   27.5813   56.6572   89.2683 N   0  0  0  0  0  0  0  0  0  0  0  0
   23.5846   55.2976   89.8456 C   0  0  0  0  0  0  0  0  0  0  0  0
   24.3721   56.6947   86.4137 N   0  0  0  0  0  0  0  0  0  0  0  0
   23.8024   56.1337   87.5635 C   0  0  0  0  0  0  0  0  0  0  0  0
   27.7787   59.1233   88.8378 O   0  0  0  0  0  1  0  0  0  0  0  0
   26.2754   57.7389   87.3875 N   0  0  0  0  0  0  0  0  0  0  0  0
   25.6698   57.2218   86.2943 C   0  0  0  0  0  0  0  0  0  0  0  0
   28.7893   57.4977   87.2944 O   0  0  0  0  0  0  0  0  0  0  0  0
   24.4310   56.1606   88.9278 C   0  0  0  0  0  0  0  0  0  0  0  0
  1  6  1  0
  1  7  1  0
  2 13  1  0
  3  4  1  0
  3  8  1  0
  4 10  1  0
  5  7  1  0
  5 11  2  0
  5 12  1  0
  5 14  1  0
  8 15  1  0
  9 10  2  3
  9 13  1  0
 10 15  1  0
 12 13  2  3
M  END
>  <ID>  (1) 
conformer_0

$$$$
