
     RDKit          3D

 20 20  0  0  0  0  0  0  0  0999 V2000
   27.9131   57.9251   87.5470 C   0  0  0  0  0  0  0  0  0  0  0  0
   28.8301   60.5077   88.1485 C   0  0  0  0  0  0  0  0  0  0  0  0
   28.9388   56.8676   87.4843 O   0  0  0  0  0  0  0  0  0  0  0  0
   27.7217   59.9256   85.9575 C   0  0  0  0  0  0  0  0  0  0  0  0
   27.0742   56.8710   91.6457 O   0  0  0  0  0  0  0  0  0  0  0  0
   27.2146   57.8328   89.0258 C   0  0  0  0  0  0  0  0  0  0  0  0
   28.4485   59.3208   87.2059 C   0  0  0  0  0  0  0  0  0  0  0  0
   22.6952   54.1170   90.8636 O   0  0  0  0  0  0  0  0  0  0  0  0
   24.1648   54.1215   90.6093 C   0  0  0  0  0  0  0  0  0  0  0  0
   24.4051   55.2485   89.6675 C   0  0  0  0  0  0  0  0  0  0  0  0
   28.2440   55.5579   90.1395 O   0  0  0  0  0  0  0  0  0  0  0  0
   25.6224   56.0472   89.6229 C   0  0  0  0  0  0  0  0  0  0  0  0
   23.4238   55.4614   88.7374 C   0  0  0  0  0  0  0  0  0  0  0  0
   23.5894   54.5267   91.8504 C   0  0  0  0  0  0  0  0  0  0  0  0
   24.8306   57.0332   87.5714 C   0  0  0  0  0  0  0  0  0  0  0  0
   28.4093   58.4068   89.8999 O   0  0  0  0  0  0  0  0  0  0  0  0
   25.7584   56.9527   88.6132 C   0  0  0  0  0  0  0  0  0  0  0  0
   22.6374   56.5142   86.6409 C   0  0  0  0  0  0  0  0  0  0  0  0
   27.0565   56.2794   90.4268 C   0  0  0  0  0  0  0  0  0  0  0  0
   23.6527   56.3331   87.6711 C   0  0  0  0  0  0  0  0  0  0  0  0
  1  3  1  0
  1  6  1  0
  1  7  1  0
  2  7  1  0
  4  7  1  0
  5 19  2  0
  6 16  1  0
  6 17  1  0
  8 14  1  0
  9 10  1  0
  9 14  1  0
 10 12  2  0
 10 13  1  0
 11 19  1  0
 12 17  1  0
 12 19  1  0
 13 20  2  0
 15 17  2  0
 15 20  1  0
 18 20  1  0
M  END
>  <ID>  (1) 
conformer_0

$$$$
