
     RDKit          3D

 20 21  0  0  0  0  0  0  0  0999 V2000
   23.2786   56.6628   86.9184 O   0  0  0  0  0  0  0  0  0  0  0  0
   26.8100   56.6186   90.4916 C   0  0  0  0  0  0  0  0  0  0  0  0
   28.1084   57.2270   89.9427 C   0  0  0  0  0  0  0  0  0  0  0  0
   29.1178   57.6389   87.5335 O   0  0  0  0  0  0  0  0  0  0  0  0
   25.7190   57.3636   87.4054 N   0  0  0  0  0  0  0  0  0  0  0  0
   27.7125   58.6077   89.2617 N   0  0  0  0  0  0  0  0  0  0  0  0
   24.6916   55.4423   90.5000 C   0  0  0  0  0  0  0  0  0  0  0  0
   28.2215   59.8633   87.2358 O   0  0  0  0  0  0  0  0  0  0  0  0
   26.8126   57.9315   86.6703 C   0  0  0  0  0  0  0  0  0  0  0  0
   25.9514   55.5581   92.4765 N   0  0  0  0  0  0  0  0  0  0  0  0
   23.1225   54.9481   88.5263 O   0  0  0  0  0  0  0  0  0  0  0  0
   24.8581   55.0653   91.7896 C   0  0  0  0  0  0  0  0  0  0  0  0
   26.9027   57.3797   85.2308 C   0  0  0  0  0  0  0  0  0  0  0  0
   21.7906   55.1130   89.0215 C   0  0  0  0  0  0  0  0  0  0  0  0
   23.8141   56.0411   88.0028 C   0  0  0  0  0  0  0  0  0  0  0  0
   25.1968   56.4559   88.3388 C   0  0  0  0  0  0  0  0  0  0  0  0
   26.9043   56.3331   91.8438 C   0  0  0  0  0  0  0  0  0  0  0  0
   25.5944   56.1954   89.7746 C   0  0  0  0  0  0  0  0  0  0  0  0
   24.0065   54.2360   92.3109 O   0  0  0  0  0  0  0  0  0  0  0  0
   28.0244   58.5400   87.6608 C   0  0  0  0  0  0  0  0  0  0  0  0
  1 15  2  0
  2  3  1  0
  2 17  1  0
  2 18  1  0
  3  6  1  0
  4 20  1  0
  5  9  1  0
  5 16  1  0
  6 20  1  0
  7 12  1  0
  7 18  2  0
  8 20  1  0
  9 13  1  0
  9 20  1  0
 10 12  1  0
 10 17  2  0
 11 14  1  0
 11 15  1  0
 12 19  2  0
 15 16  1  0
 16 18  1  0
M  END
>  <ID>  (1) 
conformer_0

$$$$
