
     RDKit          3D

 21 20  0  0  0  0  0  0  0  0999 V2000
   24.6086   55.8929   89.3060 O   0  0  0  0  0  0  0  0  0  0  0  0
   25.4561   55.4383   90.3860 C   0  0  0  0  0  0  0  0  0  0  0  0
   28.8998   56.7834   87.5292 O   0  0  0  0  0  0  0  0  0  0  0  0
   22.3408   54.4961   89.7674 C   0  0  0  0  0  0  0  0  0  0  0  0
   27.9528   57.6277   88.2324 C   0  0  0  0  0  0  0  0  0  0  0  0
   26.5765   57.6295   86.9687 C   0  0  0  0  0  0  0  0  0  0  0  0
   28.5667   55.5599   89.8239 O   0  0  0  0  0  0  0  0  0  0  0  0
   26.5862   56.4199   90.9238 C   0  0  0  0  0  0  0  0  0  0  0  0
   27.3486   56.6863   92.1951 O   0  0  0  0  0  0  0  0  0  0  0  0
   25.3752   57.2491   86.0555 C   0  0  0  0  0  0  0  0  0  0  0  0
   24.4688   56.3786   86.5459 O   0  0  0  0  0  0  0  0  0  0  0  0
   22.4536   56.4161   88.4039 O   0  0  0  0  0  0  0  0  0  0  0  0
   27.6493   56.7555   89.7108 C   0  0  0  0  0  0  0  0  0  0  0  0
   29.0226   59.8419   88.5885 O   0  0  0  0  0  0  0  0  0  0  0  0
   26.9857   60.0110   85.5186 O   0  0  0  0  0  0  0  0  0  0  0  0
   28.3671   59.1374   87.4007 C   0  0  0  0  0  0  0  0  0  0  0  0
   23.1850   55.5165   89.1551 C   0  0  0  0  0  0  0  0  0  0  0  0
   25.2205   57.9718   84.9476 O   0  0  0  0  0  0  0  0  0  0  0  0
   24.4496   55.0872   91.4941 C   0  0  0  0  0  0  0  0  0  0  0  0
   27.1784   58.1201   89.2878 O   0  0  0  0  0  0  0  0  0  0  0  0
   27.2219   58.8850   86.2973 C   0  0  0  0  0  0  0  0  0  0  0  0
  1  2  1  0
  1 17  1  0
  2  8  1  0
  2 19  1  0
  3  5  2  0
  4 17  1  0
  5 16  1  0
  5 20  1  0
  6 10  1  0
  6 21  1  0
  7 13  2  0
  8  9  1  0
  8 13  1  0
 10 11  2  0
 10 18  1  0
 12 17  2  0
 13 20  1  0
 14 16  1  0
 15 21  1  0
 16 21  1  0
M  END
>  <ID>  (1) 
conformer_0

$$$$
