
     RDKit          3D

 23 25  0  0  0  0  0  0  0  0999 V2000
   23.0449   56.5642   87.4236 C   0  0  0  0  0  0  0  0  0  0  0  0
   23.5801   56.8655   86.2076 C   0  0  0  0  0  0  0  0  0  0  0  0
   29.3256   58.7406   86.9419 N   0  0  0  0  0  0  0  0  0  0  0  0
   27.0096   56.5194   92.3106 O   0  0  0  0  0  0  0  0  0  0  0  0
   23.8532   56.3601   88.5175 C   0  0  0  0  0  0  0  0  0  0  0  0
   25.4945   57.3273   84.9658 O   0  0  0  0  0  0  0  0  0  0  0  0
   28.4253   55.8538   89.0073 O   0  0  0  0  0  0  0  0  0  0  0  0
   28.0761   58.4368   86.2243 C   0  0  0  0  0  0  0  0  0  0  0  0
   25.4477   55.8342   90.6779 C   0  0  0  0  0  0  0  0  0  0  0  0
   21.6806   56.4009   87.5473 O   0  0  0  0  0  0  0  0  0  0  0  0
   26.1793   55.6960   91.8612 C   0  0  0  0  0  0  0  0  0  0  0  0
   27.4922   56.8039   89.3626 C   0  0  0  0  0  0  0  0  0  0  0  0
   29.0668   59.9561   87.7583 C   0  0  0  0  0  0  0  0  0  0  0  0
   24.2637   54.4860   92.6242 C   0  0  0  0  0  0  0  0  0  0  0  0
   24.9440   57.1444   86.1303 C   0  0  0  0  0  0  0  0  0  0  0  0
   25.6000   54.6215   92.5875 N   0  0  0  0  0  0  0  0  0  0  0  0
   26.1266   56.3513   89.5305 C   0  0  0  0  0  0  0  0  0  0  0  0
   27.9015   59.5752   88.6537 C   0  0  0  0  0  0  0  0  0  0  0  0
   27.6612   58.0574   88.5967 C   0  0  0  0  0  0  0  0  0  0  0  0
   27.1121   57.8223   87.1852 C   0  0  0  0  0  0  0  0  0  0  0  0
   25.7723   57.1909   87.2626 C   0  0  0  0  0  0  0  0  0  0  0  0
   25.2162   56.6435   88.4173 C   0  0  0  0  0  0  0  0  0  0  0  0
   23.2948   53.7256   92.2899 N   0  0  0  0  0  0  0  0  0  0  0  0
  1  2  1  0
  1  5  2  0
  1 10  1  0
  2 15  2  0
  3  8  1  0
  3 13  1  0
  4 11  2  0
  5 22  1  0
  6 15  1  0
  7 12  1  0
  8 20  1  0
  9 11  1  0
  9 17  1  0
 11 16  1  0
 12 17  1  0
 12 19  1  0
 13 18  1  0
 14 16  1  0
 14 23  2  0
 15 21  1  0
 17 22  2  0
 18 19  1  0
 19 20  1  0
 20 21  2  0
 21 22  1  0
M  END
>  <ID>  (1) 
conformer_0

$$$$
