
     RDKit          3D

 26 30  0  0  0  0  0  0  0  0999 V2000
   27.7676   56.5719   89.5819 S   0  0  0  0  0  4  0  0  0  0  0  0
   23.8859   55.6192   89.1074 N   0  0  0  0  0  0  0  0  0  0  0  0
   25.4770   58.2099   85.4801 C   0  0  0  0  0  0  0  0  0  0  0  0
   24.2874   57.9448   84.7672 C   0  0  0  0  0  0  0  0  0  0  0  0
   23.4395   53.8919   92.9050 C   0  0  0  0  0  0  0  0  0  0  0  0
   28.6125   55.2992   89.8277 O   0  0  0  0  0  1  0  0  0  0  0  0
   22.4973   54.4685   90.7602 C   0  0  0  0  0  0  0  0  0  0  0  0
   22.3923   53.8860   92.0178 C   0  0  0  0  0  0  0  0  0  0  0  0
   23.6782   55.1057   90.3786 C   0  0  0  0  0  0  0  0  0  0  0  0
   28.1573   57.5364   90.6796 O   0  0  0  0  0  1  0  0  0  0  0  0
   27.8420   59.0055   86.7014 C   0  0  0  0  0  0  0  0  0  0  0  0
   28.1795   57.1342   88.1377 N   0  0  0  0  0  0  0  0  0  0  0  0
   26.0762   56.2597   89.6450 C   0  0  0  0  0  0  0  0  0  0  0  0
   25.9104   57.5326   86.6614 C   0  0  0  0  0  0  0  0  0  0  0  0
   24.8281   59.6963   83.1078 C   0  0  0  0  0  0  0  0  0  0  0  0
   27.2122   57.8363   87.1562 C   0  0  0  0  0  0  0  0  0  0  0  0
   25.7918   55.8789   90.9080 N   0  0  0  0  0  0  0  0  0  0  0  0
   25.0875   56.6558   87.3765 N   0  0  0  0  0  0  0  0  0  0  0  0
   23.9547   58.7278   83.6458 C   0  0  0  0  0  0  0  0  0  0  0  0
   26.2858   59.2471   84.9933 C   0  0  0  0  0  0  0  0  0  0  0  0
   25.0263   56.1959   88.6991 C   0  0  0  0  0  0  0  0  0  0  0  0
   24.6943   55.1706   91.2943 C   0  0  0  0  0  0  0  0  0  0  0  0
   25.9954   59.9483   83.7951 C   0  0  0  0  0  0  0  0  0  0  0  0
   27.4108   59.6218   85.6267 N   0  0  0  0  0  0  0  0  0  0  0  0
   24.6164   54.5483   92.5704 C   0  0  0  0  0  0  0  0  0  0  0  0
   29.0230   59.6760   87.4620 C   0  0  0  0  0  0  0  0  0  0  0  0
  1  6  1  0
  1 10  1  0
  1 12  1  0
  1 13  1  0
  2  9  1  0
  2 21  2  0
  3  4  1  0
  3 14  1  0
  3 20  2  0
  4 19  2  0
  5  8  2  0
  5 25  1  0
  7  8  1  0
  7  9  1  0
  9 22  2  0
 11 16  1  0
 11 24  2  0
 11 26  1  0
 12 16  1  0
 13 17  1  0
 13 21  1  0
 14 16  1  0
 14 18  1  0
 15 19  1  0
 15 23  2  0
 17 22  1  0
 18 21  1  0
 20 23  1  0
 20 24  1  0
 22 25  1  0
M  END
>  <ID>  (1) 
conformer_0

$$$$
