
     RDKit          3D

 27 28  0  0  0  0  0  0  0  0999 V2000
   22.9916   57.7244   84.1480 C   0  0  0  0  0  0  0  0  0  0  0  0
   27.6652   57.0513   92.3228 O   0  0  0  0  0  0  0  0  0  0  0  0
   23.3385   55.5140   88.2150 C   0  0  0  0  0  0  0  0  0  0  0  0
   21.4423   57.0648   85.4101 O   0  0  0  0  0  0  0  0  0  0  0  0
   28.2752   56.6953   87.0691 C   0  0  0  0  0  0  0  0  0  0  0  0
   27.6778   59.3694   86.5620 O   0  0  0  0  0  0  0  0  0  0  0  0
   28.9493   59.9365   88.5015 O   0  0  0  0  0  0  0  0  0  0  0  0
   25.1519   55.6563   90.0968 C   0  0  0  0  0  0  0  0  0  0  0  0
   25.7535   56.5663   87.8867 O   0  0  0  0  0  0  0  0  0  0  0  0
   23.9609   54.9861   90.4357 O   0  0  0  0  0  0  0  0  0  0  0  0
   28.3335   59.1323   87.6391 C   0  0  0  0  0  0  0  0  0  0  0  0
   26.2740   56.1252   89.1627 C   0  0  0  0  0  0  0  0  0  0  0  0
   26.8642   56.5024   91.3966 C   0  0  0  0  0  0  0  0  0  0  0  0
   22.4470   56.6564   86.1854 C   0  0  0  0  0  0  0  0  0  0  0  0
   24.2108   53.6694   92.5252 N   0  0  0  0  0  0  0  0  0  0  0  0
   26.0826   55.2163   91.3874 C   0  0  0  0  0  0  0  0  0  0  0  0
   27.5309   56.5263   89.9739 C   0  0  0  0  0  0  0  0  0  0  0  0
   28.5124   55.4920   89.8664 O   0  0  0  0  0  0  0  0  0  0  0  0
   24.9998   54.8950   92.3510 C   0  0  0  0  0  0  0  0  0  0  0  0
   22.2345   53.9092   89.6041 O   0  0  0  0  0  0  0  0  0  0  0  0
   22.9003   54.9477   89.5090 C   0  0  0  0  0  0  0  0  0  0  0  0
   23.5858   56.6697   85.1406 C   0  0  0  0  0  0  0  0  0  0  0  0
   27.9609   57.8764   89.6648 O   0  0  0  0  0  0  0  0  0  0  0  0
   24.3111   56.5783   87.7546 C   0  0  0  0  0  0  0  0  0  0  0  0
   22.1286   55.6083   87.2235 C   0  0  0  0  0  0  0  0  0  0  0  0
   20.9501   55.9419   87.9268 O   0  0  0  0  0  0  0  0  0  0  0  0
   28.1835   57.6960   88.1766 C   0  0  0  0  0  0  0  0  0  0  0  0
  1 22  1  0
  2 13  1  0
  3 21  1  0
  3 24  1  0
  3 25  1  0
  4 14  1  0
  5 27  1  0
  6 11  2  0
  7 11  1  0
  8 10  1  0
  8 12  1  0
  8 16  1  0
  9 12  1  0
  9 24  1  0
 10 21  1  0
 11 27  1  0
 12 17  1  0
 13 16  1  0
 13 17  1  0
 14 22  1  0
 14 25  1  0
 15 19  1  0
 16 19  1  0
 17 18  1  0
 17 23  1  0
 20 21  2  0
 23 27  1  0
 25 26  1  0
M  END
>  <ID>  (1) 
conformer_0

$$$$
