
     RDKit          3D

 21 22  0  0  0  0  0  0  0  0999 V2000
   25.6342   56.3554   89.2086 C   0  0  0  0  0  0  0  0  0  0  0  0
   27.6728   57.6499   88.7763 C   0  0  0  0  0  0  0  0  0  0  0  0
   24.8060   57.0983   85.0156 O   0  0  0  0  0  0  0  0  0  0  0  0
   28.3183   55.6030   89.9037 O   0  0  0  0  0  0  0  0  0  0  0  0
   22.2556   54.6252   89.7813 C   0  0  0  0  0  0  0  0  0  0  0  0
   27.6722   59.0856   88.8625 O   0  0  0  0  0  0  0  0  0  0  0  0
   28.6025   61.0551   87.8869 C   0  0  0  0  0  0  0  0  0  0  0  0
   28.2600   57.2879   87.3906 C   0  0  0  0  0  0  0  0  0  0  0  0
   29.6146   57.7176   87.3109 O   0  0  0  0  0  0  0  0  0  0  0  0
   28.9657   59.8057   88.5620 C   0  0  0  0  0  0  0  0  0  0  0  0
   27.9584   56.8437   92.1571 N   0  0  0  0  0  0  0  0  0  0  0  0
   27.1616   56.6000   89.8241 C   0  0  0  0  0  0  0  0  0  0  0  0
   23.2914   55.3560   89.1045 C   0  0  0  0  0  0  0  0  0  0  0  0
   23.1301   55.6737   87.7469 C   0  0  0  0  0  0  0  0  0  0  0  0
   24.5877   55.4579   89.7198 C   0  0  0  0  0  0  0  0  0  0  0  0
   23.9173   56.7811   85.8667 C   0  0  0  0  0  0  0  0  0  0  0  0
   21.9615   56.2999   87.1102 C   0  0  0  0  0  0  0  0  0  0  0  0
   26.8372   56.8522   91.3232 C   0  0  0  0  0  0  0  0  0  0  0  0
   25.5423   56.5171   87.7937 C   0  0  0  0  0  0  0  0  0  0  0  0
   22.4721   56.7880   85.8037 C   0  0  0  0  0  0  0  0  0  0  0  0
   24.2974   56.3280   87.1563 C   0  0  0  0  0  0  0  0  0  0  0  0
  1 12  1  0
  1 15  1  0
  1 19  1  0
  2  6  1  0
  2  8  1  0
  2 12  1  0
  3 16  2  0
  4 12  1  0
  5 13  1  0
  6 10  1  0
  7 10  1  0
  8  9  1  0
 11 18  1  0
 12 18  1  0
 13 14  1  0
 13 15  1  0
 14 17  1  0
 14 21  1  0
 16 20  1  0
 16 21  1  0
 17 20  1  0
 19 21  1  0
M  END
>  <ID>  (1) 
conformer_0

$$$$
