
     RDKit          3D

 25 27  0  0  0  0  0  0  0  0999 V2000
   27.9013   57.4856   88.0577 C   0  0  0  0  0  0  0  0  0  0  0  0
   22.5280   55.2347   89.2229 C   0  0  0  0  0  0  0  0  0  0  0  0
   27.9700   58.9470   87.4895 C   0  0  0  0  0  0  0  0  0  0  0  0
   25.9276   55.0147   91.6710 C   0  0  0  0  0  0  0  0  0  0  0  0
   26.7062   56.3332   91.7706 C   0  0  0  0  0  0  0  0  0  0  0  0
   25.1633   56.2906   89.7845 O   0  0  0  0  0  0  0  0  0  0  0  0
   27.4296   59.0968   86.0633 C   0  0  0  0  0  0  0  0  0  0  0  0
   24.6520   55.4517   90.9466 C   0  0  0  0  0  0  0  0  0  0  0  0
   28.6537   58.1877   90.3039 O   0  0  0  0  0  0  0  0  0  0  0  0
   24.9573   57.4546   85.7024 C   0  0  0  0  0  0  0  0  0  0  0  0
   22.6955   56.6855   85.3313 C   0  0  0  0  0  0  0  0  0  0  0  0
   26.2260   58.3491   85.2771 C   0  0  0  0  0  0  0  0  0  0  0  0
   23.1090   53.9566   89.6939 O   0  0  0  0  0  0  0  0  0  0  0  0
   28.1641   60.0219   88.3875 O   0  0  0  0  0  0  0  0  0  0  0  0
   23.7361   54.2278   90.9139 C   0  0  0  0  0  0  0  0  0  0  0  0
   24.8696   56.9491   86.9508 C   0  0  0  0  0  0  0  0  0  0  0  0
   23.7082   53.4763   91.9404 O   0  0  0  0  0  0  0  0  0  0  0  0
   28.4670   55.7380   89.8695 C   0  0  0  0  0  0  0  0  0  0  0  0
   22.6355   56.2666   86.6596 C   0  0  0  0  0  0  0  0  0  0  0  0
   27.8800   57.1406   89.6325 C   0  0  0  0  0  0  0  0  0  0  0  0
   28.9862   56.7172   87.4401 O   0  0  0  0  0  0  0  0  0  0  0  0
   23.7556   56.4689   87.5294 C   0  0  0  0  0  0  0  0  0  0  0  0
   23.8779   57.2506   84.8346 C   0  0  0  0  0  0  0  0  0  0  0  0
   23.6936   56.1827   89.0174 C   0  0  0  0  0  0  0  0  0  0  0  0
   26.4353   57.1212   90.4267 C   0  0  0  0  0  0  0  0  0  0  0  0
  1  3  1  0
  1 20  1  0
  1 21  1  0
  2 13  1  0
  2 24  1  0
  3  7  1  0
  3 14  1  0
  4  5  1  0
  4  8  1  0
  5 25  1  0
  6  8  1  0
  6 25  1  0
  7 12  1  0
  8 15  1  0
  9 20  1  0
 10 12  1  0
 10 16  2  0
 10 23  1  0
 11 19  1  0
 11 23  2  0
 13 15  1  0
 15 17  2  0
 16 22  1  0
 18 20  1  0
 19 22  2  0
 20 25  1  0
 22 24  1  0
M  END
>  <ID>  (1) 
conformer_0

$$$$
