
     RDKit          3D

 19 19  0  0  0  0  0  0  0  0999 V2000
   26.6139   57.4627   86.4444 C   0  0  0  0  0  0  0  0  0  0  0  0
   24.2285   56.5822   86.1829 C   0  0  0  0  0  0  0  0  0  0  0  0
   25.0441   58.2268   84.4661 C   0  0  0  0  0  0  0  0  0  0  0  0
   27.7889   58.2522   85.8029 C   0  0  0  0  0  0  0  0  0  0  0  0
   23.9518   55.2311   90.0063 C   0  0  0  0  0  0  0  0  0  0  0  0
   28.3820   58.7190   89.1446 O   0  0  0  0  0  0  0  0  0  0  0  0
   26.7150   56.1920   90.7866 C   0  0  0  0  0  0  0  0  0  0  0  0
   28.7347   55.1857   89.7789 O   0  0  0  0  0  0  0  0  0  0  0  0
   27.8311   56.2760   89.6453 C   0  0  0  0  0  0  0  0  0  0  0  0
   27.8906   57.4794   88.7226 C   0  0  0  0  0  0  0  0  0  0  0  0
   27.3911   59.7842   85.6646 C   0  0  0  0  0  0  0  0  0  0  0  0
   24.5509   54.4549   91.1026 C   0  0  0  0  0  0  0  0  0  0  0  0
   26.6608   57.6659   87.9082 N   0  0  0  0  0  0  0  0  0  0  0  0
   27.1753   57.2635   91.7234 O   0  0  0  0  0  0  0  0  0  0  0  0
   24.6250   56.1151   89.0310 C   0  0  0  0  0  0  0  0  0  0  0  0
   24.6453   55.7854   87.4942 C   0  0  0  0  0  0  0  0  0  0  0  0
   25.3498   57.4506   85.6597 C   0  0  0  0  0  0  0  0  0  0  0  0
   22.4943   55.0897   89.7987 C   0  0  0  0  0  0  0  0  0  0  0  0
   25.8241   55.2175   91.6758 C   0  0  0  0  0  0  0  0  0  0  0  0
  1  4  1  0
  1 13  1  0
  1 17  1  0
  2 16  1  0
  2 17  1  0
  3 17  1  0
  4 11  1  0
  5 12  1  0
  5 15  1  0
  5 18  1  0
  6 10  2  0
  7  9  1  0
  7 14  1  0
  7 19  1  0
  8  9  1  0
  9 10  1  0
 10 13  1  0
 12 19  1  0
 15 16  1  0
M  END
>  <ID>  (1) 
conformer_0

$$$$
