
     RDKit          3D

 35 39  0  0  0  0  0  0  0  0999 V2000
   23.4921   53.1824   93.2609 C   0  0  0  0  0  0  0  0  0  0  0  0
   27.8616   57.0127   92.2786 O   0  0  0  0  0  0  0  0  0  0  0  0
   28.8991   60.6477   86.9942 C   0  0  0  0  0  0  0  0  0  0  0  0
   22.1113   55.7691   88.4827 C   0  0  0  0  0  0  0  0  0  0  0  0
   21.9302   56.1982   87.1583 C   0  0  0  0  0  0  0  0  0  0  0  0
   25.2605   55.3018   90.4887 C   0  0  0  0  0  0  0  0  0  0  0  0
   23.8253   53.2717   95.6660 C   0  0  0  0  0  0  0  0  0  0  0  0
   26.1237   59.3850   84.6659 C   0  0  0  0  0  0  0  0  0  0  0  0
   26.1379   60.4099   83.7331 C   0  0  0  0  0  0  0  0  0  0  0  0
   25.2195   58.3659   84.3878 N   0  0  0  0  0  0  0  0  0  0  0  0
   28.1245   57.1895   88.7840 C   0  0  0  0  0  0  0  0  0  0  0  0
   23.0420   56.7289   84.2616 O   0  0  0  0  0  0  0  0  0  0  0  0
   23.5340   55.6482   88.6912 C   0  0  0  0  0  0  0  0  0  0  0  0
   26.4152   56.1476   90.6379 C   0  0  0  0  0  0  0  0  0  0  0  0
   27.8450   61.5217   84.9519 N   0  0  0  0  0  0  0  0  0  0  0  0
   28.9526   56.6694   87.7395 O   0  0  0  0  0  0  0  0  0  0  0  0
   23.2643   56.3815   86.5914 C   0  0  0  0  0  0  0  0  0  0  0  0
   23.2758   52.6600   94.5435 C   0  0  0  0  0  0  0  0  0  0  0  0
   23.6101   56.9139   85.3047 C   0  0  0  0  0  0  0  0  0  0  0  0
   27.8571   60.4939   85.8447 C   0  0  0  0  0  0  0  0  0  0  0  0
   24.2804   54.3096   93.0803 C   0  0  0  0  0  0  0  0  0  0  0  0
   23.2865   54.7557   90.9195 C   0  0  0  0  0  0  0  0  0  0  0  0
   26.5693   56.5532   92.0186 N   0  0  0  0  0  0  0  0  0  0  0  0
   26.9910   61.4859   83.9133 C   0  0  0  0  0  0  0  0  0  0  0  0
   24.1592   55.9659   87.5015 C   0  0  0  0  0  0  0  0  0  0  0  0
   27.0251   58.3388   86.7701 N   0  0  0  0  0  0  0  0  0  0  0  0
   27.6578   56.1836   89.8225 C   0  0  0  0  0  0  0  0  0  0  0  0
   24.0375   55.3170   89.8490 N   0  0  0  0  0  0  0  0  0  0  0  0
   26.9907   59.3653   85.7655 C   0  0  0  0  0  0  0  0  0  0  0  0
   24.6449   54.4346   95.4715 C   0  0  0  0  0  0  0  0  0  0  0  0
   24.5385   54.8645   91.7258 N   0  0  0  0  0  0  0  0  0  0  0  0
   24.8327   54.9088   94.1887 C   0  0  0  0  0  0  0  0  0  0  0  0
   24.8489   57.5596   85.3303 N   0  0  0  0  0  0  0  0  0  0  0  0
   27.2530   58.2856   88.1978 C   0  0  0  0  0  0  0  0  0  0  0  0
   28.6996   55.2300   90.0659 O   0  0  0  0  0  0  0  0  0  0  0  0
  1 18  2  0
  1 21  1  0
  2 23  1  0
  3 20  1  0
  4  5  1  0
  4 13  1  0
  5 17  1  0
  6 14  1  0
  6 28  1  0
  6 31  1  0
  7 18  1  0
  7 30  2  0
  8  9  2  0
  8 10  1  0
  8 29  1  0
  9 24  1  0
 10 33  1  0
 11 16  1  0
 11 27  1  0
 11 34  1  0
 12 19  2  0
 13 25  1  0
 13 28  1  0
 14 23  1  0
 14 27  1  0
 15 20  1  0
 15 24  2  0
 17 19  1  0
 17 25  1  0
 19 33  1  0
 20 29  2  0
 21 31  1  0
 21 32  2  0
 22 28  1  0
 22 31  1  0
 26 29  1  0
 26 34  1  0
 27 35  1  0
 30 32  1  0
M  END
>  <ID>  (1) 
conformer_0

$$$$
