
     RDKit          3D

 27 29  0  0  0  0  0  0  0  0999 V2000
   25.7855   57.6048   86.1519 C   0  0  0  0  0  0  0  0  0  0  0  0
   28.9808   56.1939   87.4966 O   0  0  0  0  0  0  0  0  0  0  0  0
   25.6686   56.7994   87.2715 C   0  0  0  0  0  0  0  0  0  0  0  0
   23.7570   56.9869   85.2208 C   0  0  0  0  0  0  0  0  0  0  0  0
   28.0097   59.9386   85.6831 C   0  0  0  0  0  0  0  0  0  0  0  0
   24.4982   56.0530   87.2225 C   0  0  0  0  0  0  0  0  0  0  0  0
   24.9057   57.7189   85.1747 N   0  0  0  0  0  0  0  0  0  0  0  0
   23.1173   54.5813   91.0808 C   0  0  0  0  0  0  0  0  0  0  0  0
   26.3170   56.3914   89.6936 N   0  0  0  0  0  0  0  0  0  0  0  0
   28.1099   57.0637   88.1495 C   0  0  0  0  0  0  0  0  0  0  0  0
   28.8856   61.0060   87.7992 C   0  0  0  0  0  0  0  0  0  0  0  0
   26.6949   56.6817   88.3311 C   0  0  0  0  0  0  0  0  0  0  0  0
   28.5021   55.5218   90.3843 O   0  0  0  0  0  0  0  0  0  0  0  0
   27.5312   57.1256   91.5823 O   0  0  0  0  0  0  0  0  0  0  0  0
   23.5186   56.1391   86.2929 C   0  0  0  0  0  0  0  0  0  0  0  0
   27.4809   56.3391   90.5673 C   0  0  0  0  0  0  0  0  0  0  0  0
   23.5651   55.3954   89.8724 S   0  0  0  0  0  0  0  0  0  0  0  0
   22.8737   57.0409   84.1743 F   0  0  0  0  0  0  0  0  0  0  0  0
   28.3426   58.4891   87.7618 C   0  0  0  0  0  0  0  0  0  0  0  0
   28.5035   61.2055   86.3410 C   0  0  0  0  0  0  0  0  0  0  0  0
   25.1328   55.7494   90.2417 C   0  0  0  0  0  0  0  0  0  0  0  0
   28.3886   59.7818   88.5210 C   0  0  0  0  0  0  0  0  0  0  0  0
   24.1903   53.8167   93.2772 C   0  0  0  0  0  0  0  0  0  0  0  0
   25.2337   55.2164   91.5257 C   0  0  0  0  0  0  0  0  0  0  0  0
   21.8340   53.9666   91.1123 C   0  0  0  0  0  0  0  0  0  0  0  0
   24.1363   54.5202   92.0220 C   0  0  0  0  0  0  0  0  0  0  0  0
   28.6293   58.7620   86.3813 N   0  0  0  0  0  0  0  0  0  0  0  0
  1  3  1  0
  1  7  2  0
  2 10  1  0
  3  6  1  0
  3 12  1  0
  4  7  1  0
  4 15  1  0
  4 18  1  0
  5 20  1  0
  5 27  1  0
  6 15  2  0
  8 17  1  0
  8 25  1  0
  8 26  2  0
  9 12  1  0
  9 16  1  0
  9 21  1  0
 10 12  1  0
 10 19  1  0
 11 20  1  0
 11 22  1  0
 13 16  2  0
 14 16  1  0
 17 21  1  0
 19 22  2  0
 19 27  1  0
 21 24  2  0
 23 26  1  0
 24 26  1  0
M  END
>  <ID>  (1) 
conformer_0

$$$$
