
     RDKit          3D

 29 32  0  0  0  0  0  0  0  0999 V2000
   24.1518   56.5699   86.2393 C   0  0  0  0  0  0  0  0  0  0  0  0
   27.7419   59.2483   86.0435 C   0  0  0  0  0  0  0  0  0  0  0  0
   24.6870   56.1760   87.3975 N   0  0  0  0  0  0  0  0  0  0  0  0
   27.9413   56.6050   89.9414 C   0  0  0  0  0  0  0  0  0  0  0  0
   21.5707   55.6392   87.9699 C   0  0  0  0  0  0  0  0  0  0  0  0
   22.7540   55.4333   88.7970 C   0  0  0  0  0  0  0  0  0  0  0  0
   28.6616   55.3159   90.0014 O   0  0  0  0  0  0  0  0  0  0  0  0
   21.7011   56.1945   86.7596 N   0  0  0  0  0  0  0  0  0  0  0  0
   24.0235   54.8982   90.5887 C   0  0  0  0  0  0  0  0  0  0  0  0
   27.8524   56.9119   92.3613 O   0  0  0  0  0  0  0  0  0  0  0  0
   22.6799   54.8923   90.1068 C   0  0  0  0  0  0  0  0  0  0  0  0
   26.8191   58.8293   87.1814 O   0  0  0  0  0  0  0  0  0  0  0  0
   24.1014   55.7359   88.5108 C   0  0  0  0  0  0  0  0  0  0  0  0
   28.7150   56.6799   87.4822 O   0  0  0  0  0  0  0  0  0  0  0  0
   24.1902   54.1769   93.0610 C   0  0  0  0  0  0  0  0  0  0  0  0
   24.9851   56.8970   85.1435 N   0  0  0  0  0  0  0  0  0  0  0  0
   24.8111   55.4592   89.6361 N   0  0  0  0  0  0  0  0  0  0  0  0
   28.9371   59.4388   87.1318 C   0  0  0  0  0  0  0  0  0  0  0  0
   28.7971   59.2423   89.5163 O   0  0  0  0  0  0  0  0  0  0  0  0
   26.8958   56.5533   91.1340 C   0  0  0  0  0  0  0  0  0  0  0  0
   25.9535   55.4851   91.9105 C   0  0  0  0  0  0  0  0  0  0  0  0
   28.0035   57.1993   88.5155 C   0  0  0  0  0  0  0  0  0  0  0  0
   25.7264   58.1693   84.9211 C   0  0  0  0  0  0  0  0  0  0  0  0
   28.9903   60.8210   87.4572 O   0  0  0  0  0  0  0  0  0  0  0  0
   27.8403   58.8095   88.3736 C   0  0  0  0  0  0  0  0  0  0  0  0
   20.4149   55.2708   88.3973 N   0  0  0  0  0  0  0  0  0  0  0  0
   24.8149   54.3720   91.7484 C   0  0  0  0  0  0  0  0  0  0  0  0
   22.7573   56.5655   86.1041 C   0  0  0  0  0  0  0  0  0  0  0  0
   27.2622   58.2594   84.9048 C   0  0  0  0  0  0  0  0  0  0  0  0
  1  3  1  0
  1 16  2  0
  1 28  1  0
  2 12  1  0
  2 18  1  0
  2 29  1  0
  3 13  2  0
  4  7  1  0
  4 20  1  0
  4 22  1  0
  5  6  1  0
  5  8  1  0
  5 26  2  0
  6 11  1  0
  6 13  1  0
  8 28  2  0
  9 11  1  0
  9 17  1  0
  9 27  1  0
 10 20  1  0
 12 25  1  0
 13 17  1  0
 14 22  1  0
 15 27  1  0
 16 23  1  0
 18 24  1  0
 18 25  1  0
 19 25  1  0
 20 21  1  0
 21 27  1  0
 22 25  1  0
 23 29  1  0
M  END
>  <ID>  (1) 
conformer_0

$$$$
