
     RDKit          3D

 29 32  0  0  0  0  0  0  0  0999 V2000
   24.7723   56.3185   88.0027 C   0  0  0  0  0  0  0  0  0  0  0  0
   24.2907   54.5017   92.2799 C   0  0  0  0  0  0  0  0  0  0  0  0
   25.9800   57.7559   86.3431 C   0  0  0  0  0  0  0  0  0  0  0  0
   25.1662   55.9004   90.4522 C   0  0  0  0  0  0  0  0  0  0  0  0
   22.4756   54.6387   90.5886 C   0  0  0  0  0  0  0  0  0  0  0  0
   28.3696   57.3164   90.9439 O   0  0  0  0  0  0  0  0  0  0  0  0
   28.8018   55.1541   89.9431 O   0  0  0  0  0  0  0  0  0  0  0  0
   22.5596   55.7597   87.1427 N   0  0  0  0  0  0  0  0  0  0  0  0
   24.8759   57.6766   85.5007 C   0  0  0  0  0  0  0  0  0  0  0  0
   27.0331   58.5721   85.8002 C   0  0  0  0  0  0  0  0  0  0  0  0
   24.6773   58.3796   84.3885 C   0  0  0  0  0  0  0  0  0  0  0  0
   26.8972   59.2469   84.6057 C   0  0  0  0  0  0  0  0  0  0  0  0
   27.6617   59.0469   88.7939 C   0  0  0  0  0  0  0  0  0  0  0  0
   20.8467   55.2751   88.6220 O   0  0  0  0  0  0  0  0  0  0  0  0
   25.7148   59.1955   83.8861 C   0  0  0  0  0  0  0  0  0  0  0  0
   28.2470   59.8403   87.5616 C   0  0  0  0  0  0  0  0  0  0  0  0
   28.2912   57.6694   88.6422 N   0  0  0  0  0  0  0  0  0  0  0  0
   27.1957   56.6331   88.8408 C   0  0  0  0  0  0  0  0  0  0  0  0
   23.8046   56.1781   87.0311 C   0  0  0  0  0  0  0  0  0  0  0  0
   24.8682   53.7073   93.2584 N   0  0  0  0  0  0  0  0  0  0  0  0
   28.3996   58.7671   86.4525 C   0  0  0  0  0  0  0  0  0  0  0  0
   22.0876   55.4430   88.3673 C   0  0  0  0  0  0  0  0  0  0  0  0
   22.9490   54.2390   91.8318 C   0  0  0  0  0  0  0  0  0  0  0  0
   26.0832   57.0117   87.7223 C   0  0  0  0  0  0  0  0  0  0  0  0
   23.0335   55.2989   89.4397 C   0  0  0  0  0  0  0  0  0  0  0  0
   28.8533   61.0758   88.2267 C   0  0  0  0  0  0  0  0  0  0  0  0
   27.9154   56.1279   90.3239 C   0  0  0  0  0  0  0  0  0  0  0  0
   24.3509   55.8135   89.2608 C   0  0  0  0  0  0  0  0  0  0  0  0
   25.3166   54.9447   91.4163 C   0  0  0  0  0  0  0  0  0  0  0  0
  1 19  1  0
  1 24  1  0
  1 28  2  0
  2 20  1  0
  2 23  1  0
  2 29  1  0
  3  9  2  0
  3 10  1  0
  3 24  1  0
  4 28  1  0
  4 29  1  0
  5 23  2  0
  5 25  1  0
  6 27  1  0
  7 27  1  0
  8 19  2  0
  8 22  1  0
  9 11  1  0
 10 12  2  0
 10 21  1  0
 11 15  2  0
 12 15  1  0
 13 16  1  0
 13 17  1  0
 14 22  2  0
 16 21  1  0
 16 26  1  0
 17 18  1  0
 18 24  1  0
 18 27  1  0
 22 25  1  0
 25 28  1  0
M  END
>  <ID>  (1) 
conformer_0

$$$$
