
     RDKit          3D

 21 23  0  0  0  0  0  0  0  0999 V2000
   25.2144   55.4509   90.9050 C   0  0  0  0  0  0  0  0  0  0  0  0
   23.8056   56.3293   86.2429 C   0  0  0  0  0  0  0  0  0  0  0  0
   27.1006   59.9418   85.3427 C   0  0  0  0  0  0  0  0  0  0  0  0
   27.5531   57.1123   92.1650 O   0  0  0  0  0  0  0  0  0  0  0  0
   28.2110   55.1658   90.1179 O   0  0  0  0  0  0  0  0  0  0  0  0
   24.0465   55.3619   89.8812 C   0  0  0  0  0  0  0  0  0  0  0  0
   28.7632   57.2226   87.3178 O   0  0  0  0  0  0  0  0  0  0  0  0
   24.3655   57.2626   85.3482 C   0  0  0  0  0  0  0  0  0  0  0  0
   26.7547   55.5309   90.5817 C   0  0  0  0  0  0  0  0  0  0  0  0
   25.5333   57.9640   85.7029 C   0  0  0  0  0  0  0  0  0  0  0  0
   27.6019   58.2328   87.5491 C   0  0  0  0  0  0  0  0  0  0  0  0
   28.0987   59.4024   86.4954 C   0  0  0  0  0  0  0  0  0  0  0  0
   24.4682   56.0765   87.4679 C   0  0  0  0  0  0  0  0  0  0  0  0
   26.9466   57.1613   90.7774 C   0  0  0  0  0  0  0  0  0  0  0  0
   27.3877   57.7985   89.2933 C   0  0  0  0  0  0  0  0  0  0  0  0
   25.6036   56.7574   87.7131 C   0  0  0  0  0  0  0  0  0  0  0  0
   23.9139   55.0467   88.4146 C   0  0  0  0  0  0  0  0  0  0  0  0
   22.9278   54.6738   90.7153 C   0  0  0  0  0  0  0  0  0  0  0  0
   28.7364   58.4248   89.7202 O   0  0  0  0  0  0  0  0  0  0  0  0
   25.9759   59.0611   84.6955 C   0  0  0  0  0  0  0  0  0  0  0  0
   26.2036   57.6589   86.9341 C   0  0  0  0  0  0  0  0  0  0  0  0
  1  6  1  0
  1  9  1  0
  2  8  2  0
  2 13  1  0
  3 12  1  0
  3 20  1  0
  4 14  1  0
  5  9  1  0
  6 17  1  0
  6 18  1  0
  7 11  1  0
  8 10  1  0
  9 14  1  0
 10 20  1  0
 10 21  2  0
 11 12  1  0
 11 15  1  0
 11 21  1  0
 13 16  2  0
 13 17  1  0
 14 15  1  0
 15 19  1  0
 16 21  1  0
M  END
>  <ID>  (1) 
conformer_0

$$$$
