
     RDKit          3D

 31 37  0  0  0  0  0  0  0  0999 V2000
   26.5074   56.9941   91.2031 C   0  0  0  0  0  0  0  0  0  0  0  0
   27.1602   60.2131   84.5705 C   0  0  0  0  0  0  0  0  0  0  0  0
   27.6072   59.4699   85.8363 C   0  0  0  0  0  0  0  0  0  0  0  0
   28.3423   60.1971   86.9433 C   0  0  0  0  0  0  0  0  0  0  0  0
   23.9068   54.0514   92.9166 C   0  0  0  0  0  0  0  0  0  0  0  0
   25.8098   58.3732   85.0739 C   0  0  0  0  0  0  0  0  0  0  0  0
   23.7772   58.1573   83.9115 C   0  0  0  0  0  0  0  0  0  0  0  0
   23.9734   56.5061   87.1485 C   0  0  0  0  0  0  0  0  0  0  0  0
   28.5362   58.2361   90.0182 O   0  0  0  0  0  0  0  0  0  0  0  0
   24.5207   57.6879   85.1417 N   0  0  0  0  0  0  0  0  0  0  0  0
   26.7250   58.4306   86.0968 N   0  0  0  0  0  0  0  0  0  0  0  0
   22.9156   56.1814   88.0331 C   0  0  0  0  0  0  0  0  0  0  0  0
   26.1561   59.2700   84.0500 O   0  0  0  0  0  0  0  0  0  0  0  0
   25.6911   55.8947   91.7941 C   0  0  0  0  0  0  0  0  0  0  0  0
   24.6171   55.6514   89.6081 C   0  0  0  0  0  0  0  0  0  0  0  0
   28.4360   59.4350   84.6902 C   0  0  0  0  0  0  0  0  0  0  0  0
   28.4734   56.1502   88.0367 O   0  0  0  0  0  0  0  0  0  0  0  0
   21.7122   56.4302   87.4082 O   0  0  0  0  0  0  0  0  0  0  0  0
   26.6118   57.4543   87.1937 C   0  0  0  0  0  0  0  0  0  0  0  0
   25.7083   56.1904   88.8335 C   0  0  0  0  0  0  0  0  0  0  0  0
   23.7678   54.4640   91.6160 C   0  0  0  0  0  0  0  0  0  0  0  0
   23.4292   56.8917   85.8678 C   0  0  0  0  0  0  0  0  0  0  0  0
   28.6740   55.9272   90.6108 O   0  0  0  0  0  0  0  0  0  0  0  0
   21.9838   56.4351   85.9271 C   0  0  0  0  0  0  0  0  0  0  0  0
   24.6831   55.3272   91.0419 C   0  0  0  0  0  0  0  0  0  0  0  0
   25.8782   55.4382   93.0988 C   0  0  0  0  0  0  0  0  0  0  0  0
   23.3554   55.2340   89.0194 C   0  0  0  0  0  0  0  0  0  0  0  0
   24.9804   54.5111   93.6439 C   0  0  0  0  0  0  0  0  0  0  0  0
   25.2912   56.8489   87.5405 C   0  0  0  0  0  0  0  0  0  0  0  0
   27.2015   56.6513   88.6418 C   0  0  0  0  0  0  0  0  0  0  0  0
   27.7346   57.0150   90.2422 C   0  0  0  0  0  0  0  0  0  0  0  0
  1 14  1  0
  1 31  1  0
  2 13  1  0
  2 16  1  0
  3  4  1  0
  3 11  1  0
  3 16  1  0
  5 21  2  0
  5 28  1  0
  6 10  1  0
  6 11  1  0
  6 13  1  0
  7 10  1  0
  8 12  1  0
  8 22  2  0
  8 29  1  0
  9 31  1  0
 10 22  1  0
 11 19  1  0
 12 18  1  0
 12 27  1  0
 14 25  2  0
 14 26  1  0
 15 20  1  0
 15 25  1  0
 15 27  1  0
 17 30  1  0
 18 24  1  0
 19 29  1  0
 19 30  1  0
 20 29  1  0
 20 30  1  0
 21 25  1  0
 22 24  1  0
 23 31  1  0
 26 28  2  0
 30 31  1  0
M  END
>  <ID>  (1) 
conformer_0

$$$$
