
     RDKit          3D

 19 21  0  0  0  0  0  0  0  0999 V2000
   24.9025   56.3057   88.1346 C   0  0  0  0  0  0  0  0  0  0  0  0
   27.8161   57.8705   89.6190 C   0  0  0  0  0  0  0  0  0  0  0  0
   24.8412   55.6971   89.5436 C   0  0  0  0  0  0  0  0  0  0  0  0
   27.4441   57.2493   88.1886 C   0  0  0  0  0  0  0  0  0  0  0  0
   24.8179   57.2895   85.4985 C   0  0  0  0  0  0  0  0  0  0  0  0
   27.5971   56.4872   90.6465 C   0  0  0  0  0  0  0  0  0  0  0  0
   28.5809   57.5869   87.2302 C   0  0  0  0  0  0  0  0  0  0  0  0
   25.9891   57.3103   86.2415 C   0  0  0  0  0  0  0  0  0  0  0  0
   25.6331   55.3580   91.9032 C   0  0  0  0  0  0  0  0  0  0  0  0
   22.3931   56.8684   85.3726 C   0  0  0  0  0  0  0  0  0  0  0  0
   23.7276   55.1360   90.3554 C   0  0  0  0  0  0  0  0  0  0  0  0
   26.0777   56.9127   87.5614 C   0  0  0  0  0  0  0  0  0  0  0  0
   23.7106   56.2764   87.3763 C   0  0  0  0  0  0  0  0  0  0  0  0
   24.2285   54.7257   91.7390 C   0  0  0  0  0  0  0  0  0  0  0  0
   26.0906   55.8096   90.4559 C   0  0  0  0  0  0  0  0  0  0  0  0
   28.5593   55.5160   90.0884 O   0  0  0  0  0  0  0  0  0  0  0  0
   27.7232   56.9402   91.9441 O   0  0  0  0  0  0  0  0  0  0  0  0
   28.5606   59.2151   89.1425 O   0  0  0  0  0  0  0  0  0  0  0  0
   23.6742   56.8141   86.1032 C   0  0  0  0  0  0  0  0  0  0  0  0
  1  3  1  0
  1 12  2  0
  1 13  1  0
  2  4  1  0
  2  6  1  0
  2 18  1  0
  3 11  1  0
  3 15  2  0
  4  7  1  0
  4 12  1  0
  5  8  2  0
  5 19  1  0
  6 15  1  0
  6 16  1  0
  6 17  1  0
  8 12  1  0
  9 14  1  0
  9 15  1  0
 10 19  1  0
 11 14  1  0
 13 19  2  0
M  END
>  <ID>  (1) 
conformer_0

$$$$
