
     RDKit          3D

 15 16  0  0  0  0  0  0  0  0999 V2000
   28.3717   55.4956   89.9432 O   0  0  0  0  0  0  0  0  0  0  0  0
   23.7076   55.4416   89.7727 C   0  0  0  0  0  0  0  0  0  0  0  0
   28.8404   57.0730   87.6863 N   0  0  0  0  0  0  0  0  0  0  0  0
   26.7837   57.3440   88.9137 C   0  0  0  0  0  0  0  0  0  0  0  0
   23.1142   55.9608   88.5650 C   0  0  0  0  0  0  0  0  0  0  0  0
   27.9967   58.0055   88.1839 C   0  0  0  0  0  0  0  0  0  0  0  0
   28.2056   59.2470   88.4792 O   0  0  0  0  0  0  0  0  0  0  0  0
   25.5529   56.4091   88.5369 C   0  0  0  0  0  0  0  0  0  0  0  0
   23.1502   54.5780   90.8298 C   0  0  0  0  0  0  0  0  0  0  0  0
   28.0649   57.5637   90.9732 O   0  0  0  0  0  0  0  0  0  0  0  0
   26.1535   55.9379   90.8697 C   0  0  0  0  0  0  0  0  0  0  0  0
   21.8518   55.6753   88.0163 C   0  0  0  0  0  0  0  0  0  0  0  0
   27.4507   56.5672   90.2251 C   0  0  0  0  0  0  0  0  0  0  0  0
   25.1326   55.6932   89.7884 N   0  0  0  0  0  0  0  0  0  0  0  0
   24.2292   56.5252   87.7509 C   0  0  0  0  0  0  0  0  0  0  0  0
  1 13  1  0
  2  5  2  0
  2  9  1  0
  2 14  1  0
  3  6  1  0
  4  6  1  0
  4  8  1  0
  4 13  1  0
  5 12  1  0
  5 15  1  0
  6  7  2  0
  8 14  1  0
  8 15  1  0
 10 13  1  0
 11 13  1  0
 11 14  1  0
M  END
>  <ID>  (1) 
conformer_0

$$$$
