
     RDKit          3D

 35 40  0  0  0  0  0  0  0  0999 V2000
   27.2687   57.5480   86.5414 C   0  0  0  0  0  0  0  0  0  0  0  0
   28.6572   61.4789   86.0900 C   0  0  0  0  0  0  0  0  0  0  0  0
   21.1462   54.5280   90.0308 O   0  0  0  0  0  0  0  0  0  0  0  0
   25.3206   57.8584   85.1137 C   0  0  0  0  0  0  0  0  0  0  0  0
   26.0886   57.0829   85.9889 O   0  0  0  0  0  0  0  0  0  0  0  0
   28.3120   54.9145   89.7889 O   0  0  0  0  0  0  0  0  0  0  0  0
   27.0044   59.7460   85.4440 C   0  0  0  0  0  0  0  0  0  0  0  0
   25.9398   59.1360   84.6817 C   0  0  0  0  0  0  0  0  0  0  0  0
   26.7956   56.7246   92.0979 C   0  0  0  0  0  0  0  0  0  0  0  0
   22.9408   56.3508   87.5722 C   0  0  0  0  0  0  0  0  0  0  0  0
   27.6228   57.5167   88.9852 C   0  0  0  0  0  0  0  0  0  0  0  0
   21.7668   55.4720   87.8687 C   0  0  0  0  0  0  0  0  0  0  0  0
   26.9039   55.4069   90.0278 C   0  0  0  0  0  0  0  0  0  0  0  0
   28.8446   59.1762   87.3464 C   0  0  0  0  0  0  0  0  0  0  0  0
   27.5350   56.8303   93.3174 O   0  0  0  0  0  0  0  0  0  0  0  0
   23.8949   56.1197   88.6728 O   0  0  0  0  0  0  0  0  0  0  0  0
   20.6003   55.7119   87.3535 O   0  0  0  0  0  0  0  0  0  0  0  0
   23.2661   56.1290   86.1005 C   0  0  0  0  0  0  0  0  0  0  0  0
   27.3867   56.9765   90.5566 C   0  0  0  0  0  0  0  0  0  0  0  0
   22.1724   56.8776   85.2868 C   0  0  0  0  0  0  0  0  0  0  0  0
   25.2829   55.0775   93.1855 O   0  0  0  0  0  0  0  0  0  0  0  0
   28.7614   57.5050   91.0191 O   0  0  0  0  0  0  0  0  0  0  0  0
   27.6802   58.9197   86.4506 C   0  0  0  0  0  0  0  0  0  0  0  0
   25.5337   55.2210   90.7324 C   0  0  0  0  0  0  0  0  0  0  0  0
   27.7695   56.7353   87.6671 C   0  0  0  0  0  0  0  0  0  0  0  0
   24.0791   54.8602   90.7687 C   0  0  0  0  0  0  0  0  0  0  0  0
   23.7704   53.7452   91.3908 O   0  0  0  0  0  0  0  0  0  0  0  0
   22.0493   54.8664   89.1791 C   0  0  0  0  0  0  0  0  0  0  0  0
   23.4118   55.1448   89.5032 C   0  0  0  0  0  0  0  0  0  0  0  0
   24.4132   57.1064   84.1921 C   0  0  0  0  0  0  0  0  0  0  0  0
   25.9944   55.4299   92.1312 C   0  0  0  0  0  0  0  0  0  0  0  0
   22.9642   57.6431   84.1829 C   0  0  0  0  0  0  0  0  0  0  0  0
   28.9097   60.7636   87.4307 C   0  0  0  0  0  0  0  0  0  0  0  0
   28.5581   58.6681   88.7404 N   0  0  0  0  0  0  0  0  0  0  0  0
   27.7828   60.9251   85.0387 C   0  0  0  0  0  0  0  0  0  0  0  0
  1  5  1  0
  1 23  1  0
  1 25  1  0
  2 33  1  0
  2 35  1  0
  3 28  1  0
  4  5  1  0
  4  8  1  0
  4 30  1  0
  6 13  1  0
  7  8  1  0
  7 23  1  0
  7 35  1  0
  9 15  1  0
  9 19  1  0
  9 31  1  0
 10 12  1  0
 10 16  1  0
 10 18  1  0
 11 19  1  0
 11 25  1  0
 11 34  1  0
 12 17  1  0
 12 28  1  0
 13 19  1  0
 13 24  1  0
 14 23  1  0
 14 33  1  0
 14 34  1  0
 16 29  1  0
 18 20  1  0
 19 22  1  0
 20 32  1  0
 21 31  1  0
 24 26  1  0
 24 31  1  0
 26 27  1  0
 26 29  1  0
 28 29  1  0
 30 32  1  0
M  END
>  <ID>  (1) 
conformer_0

$$$$
