
     RDKit          3D

 24 25  0  0  0  0  0  0  0  0999 V2000
   27.4934   56.5382   92.0639 O   0  0  0  0  0  0  0  0  0  0  0  0
   22.5571   55.8493   87.9838 C   0  0  0  0  0  0  0  0  0  0  0  0
   27.5178   56.8520   85.4058 C   0  0  0  0  0  0  0  0  0  0  0  0
   22.3657   55.2415   89.2239 C   0  0  0  0  0  0  0  0  0  0  0  0
   27.3538   59.1542   86.2809 C   0  0  0  0  0  0  0  0  0  0  0  0
   26.4343   57.9514   85.6469 C   0  0  0  0  0  0  0  0  0  0  0  0
   28.6578   58.2741   90.1116 O   0  0  0  0  0  0  0  0  0  0  0  0
   23.2733   54.3229   91.1945 O   0  0  0  0  0  0  0  0  0  0  0  0
   23.4591   55.1073   90.0714 C   0  0  0  0  0  0  0  0  0  0  0  0
   25.8775   58.6711   84.4197 O   0  0  0  0  0  0  0  0  0  0  0  0
   23.8394   56.2799   87.6285 C   0  0  0  0  0  0  0  0  0  0  0  0
   25.1834   57.0865   85.8708 C   0  0  0  0  0  0  0  0  0  0  0  0
   25.9036   55.5774   90.5370 O   0  0  0  0  0  0  0  0  0  0  0  0
   28.3544   55.4971   89.9995 O   0  0  0  0  0  0  0  0  0  0  0  0
   27.0255   57.9496   88.4411 C   0  0  0  0  0  0  0  0  0  0  0  0
   24.0526   56.7827   86.3403 N   0  0  0  0  0  0  0  0  0  0  0  0
   25.0277   54.5233   93.1165 C   0  0  0  0  0  0  0  0  0  0  0  0
   24.7100   55.6277   89.7127 C   0  0  0  0  0  0  0  0  0  0  0  0
   27.2850   57.7554   89.9366 C   0  0  0  0  0  0  0  0  0  0  0  0
   27.2549   56.2589   90.6581 C   0  0  0  0  0  0  0  0  0  0  0  0
   23.6455   54.3251   92.4723 C   0  0  0  0  0  0  0  0  0  0  0  0
   24.8422   56.1597   88.5182 C   0  0  0  0  0  0  0  0  0  0  0  0
   29.0749   59.7287   87.9422 O   0  0  0  0  0  0  0  0  0  0  0  0
   28.1211   58.6746   87.5917 C   0  0  0  0  0  0  0  0  0  0  0  0
  1 20  1  0
  2  4  1  0
  2 11  1  0
  3  6  1  0
  4  9  2  0
  5  6  1  0
  5 24  1  0
  6 10  1  0
  6 12  1  0
  7 19  1  0
  8  9  1  0
  8 21  1  0
  9 18  1  0
 11 16  2  0
 11 22  1  0
 12 16  1  0
 13 18  1  0
 13 20  1  0
 14 20  1  0
 15 19  1  0
 15 24  1  0
 17 21  1  0
 18 22  2  0
 19 20  1  0
 23 24  1  0
M  END
>  <ID>  (1) 
conformer_0

$$$$
