
     RDKit          3D

 21 22  0  0  0  0  0  0  0  0999 V2000
   21.8784   55.2448   88.9096 C   0  0  0  0  0  0  0  0  0  0  0  0
   24.8597   57.2091   85.3717 C   0  0  0  0  0  0  0  0  0  0  0  0
   29.0991   56.7142   87.6596 O   0  0  0  0  0  0  0  0  0  0  0  0
   25.0836   54.7365   90.6352 N   0  0  0  0  0  0  0  0  0  0  0  0
   23.6753   56.0326   87.5327 C   0  0  0  0  0  0  0  0  0  0  0  0
   22.7628   54.8989   89.8973 C   0  0  0  0  0  0  0  0  0  0  0  0
   29.0532   59.0083   89.6253 O   0  0  0  0  0  0  0  0  0  0  0  0
   24.1522   55.0959   89.6423 C   0  0  0  0  0  0  0  0  0  0  0  0
   26.0734   58.0762   85.7509 C   0  0  0  0  0  0  0  0  0  0  0  0
   27.9509   56.5036   89.8716 C   0  0  0  0  0  0  0  0  0  0  0  0
   27.7685   58.7695   89.0152 C   0  0  0  0  0  0  0  0  0  0  0  0
   24.5306   55.5889   88.4818 N   0  0  0  0  0  0  0  0  0  0  0  0
   25.8351   55.8370   91.2475 C   0  0  0  0  0  0  0  0  0  0  0  0
   27.5177   56.8426   92.6137 O   0  0  0  0  0  0  0  0  0  0  0  0
   28.8154   55.4835   90.2816 O   0  0  0  0  0  0  0  0  0  0  0  0
   22.3113   55.7965   87.7243 C   0  0  0  0  0  0  0  0  0  0  0  0
   26.8875   57.4358   87.0107 C   0  0  0  0  0  0  0  0  0  0  0  0
   22.3685   54.2629   91.1153 C   0  0  0  0  0  0  0  0  0  0  0  0
   27.0046   56.8936   91.0880 C   0  0  0  0  0  0  0  0  0  0  0  0
   27.8809   57.2310   88.3972 C   0  0  0  0  0  0  0  0  0  0  0  0
   24.1035   56.6926   86.3827 N   0  0  0  0  0  0  0  0  0  0  0  0
  1  6  2  0
  1 16  1  0
  2  9  1  0
  2 21  1  0
  3 20  1  0
  4  8  1  0
  4 13  1  0
  5 12  1  0
  5 16  2  0
  5 21  1  0
  6  8  1  0
  6 18  1  0
  7 11  1  0
  8 12  2  0
  9 17  1  0
 10 15  1  0
 10 19  1  0
 10 20  1  0
 11 20  1  0
 13 19  1  0
 14 19  1  0
 17 20  1  0
M  END
>  <ID>  (1) 
conformer_0

$$$$
