
     RDKit          3D

 31 34  0  0  0  0  0  0  0  0999 V2000
   24.3272   56.2083   88.5660 C   0  0  0  0  0  0  0  0  0  0  0  0
   25.7972   56.0592   90.7385 C   0  0  0  0  0  0  0  0  0  0  0  0
   21.1852   54.7710   89.5469 O   0  0  0  0  0  0  0  0  0  0  0  0
   27.4994   60.0414   85.3025 C   0  0  0  0  0  0  0  0  0  0  0  0
   25.5484   56.3384   89.3631 C   0  0  0  0  0  0  0  0  0  0  0  0
   23.0257   53.1666   94.8747 O   0  0  0  0  0  0  0  0  0  0  0  0
   24.7456   54.2317   93.7274 C   0  0  0  0  0  0  0  0  0  0  0  0
   28.4153   57.7583   90.6823 O   0  0  0  0  0  0  0  0  0  0  0  0
   29.0801   54.9721   89.8481 O   0  0  0  0  0  0  0  0  0  0  0  0
   22.6658   54.4076   91.4978 C   0  0  0  0  0  0  0  0  0  0  0  0
   23.6188   55.1331   90.7546 C   0  0  0  0  0  0  0  0  0  0  0  0
   23.4251   55.5830   89.4452 C   0  0  0  0  0  0  0  0  0  0  0  0
   24.8118   55.3248   91.4590 C   0  0  0  0  0  0  0  0  0  0  0  0
   22.6322   53.8940   92.6873 C   0  0  0  0  0  0  0  0  0  0  0  0
   23.4541   53.7611   93.7525 C   0  0  0  0  0  0  0  0  0  0  0  0
   26.6215   57.6484   87.5750 N   0  0  0  0  0  0  0  0  0  0  0  0
   23.8383   56.5444   87.2474 C   0  0  0  0  0  0  0  0  0  0  0  0
   26.5817   57.0896   88.8064 C   0  0  0  0  0  0  0  0  0  0  0  0
   22.0875   55.3659   88.9232 C   0  0  0  0  0  0  0  0  0  0  0  0
   25.1996   54.9069   92.6938 C   0  0  0  0  0  0  0  0  0  0  0  0
   27.8305   57.1018   89.5682 C   0  0  0  0  0  0  0  0  0  0  0  0
   27.7980   61.5015   85.0017 C   0  0  0  0  0  0  0  0  0  0  0  0
   21.6669   55.7753   87.6680 C   0  0  0  0  0  0  0  0  0  0  0  0
   28.0069   55.6396   89.9755 C   0  0  0  0  0  0  0  0  0  0  0  0
   28.8561   57.1503   87.1401 O   0  0  0  0  0  0  0  0  0  0  0  0
   22.5305   56.3602   86.8385 C   0  0  0  0  0  0  0  0  0  0  0  0
   26.3204   59.5059   84.5338 C   0  0  0  0  0  0  0  0  0  0  0  0
   27.8715   57.9799   87.0461 C   0  0  0  0  0  0  0  0  0  0  0  0
   28.1503   59.3437   86.4286 C   0  0  0  0  0  0  0  0  0  0  0  0
   28.8327   60.3512   87.4715 C   0  0  0  0  0  0  0  0  0  0  0  0
   27.1523   55.4861   91.0943 C   0  0  0  0  0  0  0  0  0  0  0  0
  1  5  1  0
  1 12  1  0
  1 17  2  0
  2  5  1  0
  2 13  1  0
  2 31  1  0
  3 19  2  0
  4 22  1  0
  4 27  1  0
  4 29  1  0
  5 18  1  0
  6 15  1  0
  7 15  1  0
  7 20  2  0
  8 21  1  0
  9 24  2  0
 10 11  1  0
 10 14  2  0
 11 12  1  0
 11 13  2  0
 12 19  1  0
 13 20  1  0
 14 15  1  0
 16 18  1  0
 16 28  1  0
 17 26  1  0
 18 21  1  0
 19 23  1  0
 21 24  1  0
 23 26  2  0
 24 31  1  0
 25 28  2  0
 28 29  1  0
 29 30  1  0
M  END
>  <ID>  (1) 
conformer_0

$$$$
