
     RDKit          3D

 20 20  0  0  0  0  0  0  0  0999 V2000
   28.2485   56.9070   88.0479 N   0  0  0  0  0  0  0  0  0  0  0  0
   23.6634   55.2815   88.7733 C   0  0  0  0  0  0  0  0  0  0  0  0
   27.0553   57.3847   87.3102 C   0  0  0  0  0  0  0  0  0  0  0  0
   28.6588   55.3889   90.0535 O   0  0  0  0  0  0  0  0  0  0  0  0
   26.2223   60.8917   83.7266 C   0  0  0  0  0  0  0  0  0  0  0  0
   25.9020   56.7406   87.8257 O   0  0  0  0  0  0  0  0  0  0  0  0
   28.0168   60.5659   85.3826 C   0  0  0  0  0  0  0  0  0  0  0  0
   26.0641   59.4955   84.4090 C   0  0  0  0  0  0  0  0  0  0  0  0
   26.8987   56.4312   91.9318 O   0  0  0  0  0  0  0  0  0  0  0  0
   25.5417   56.9182   89.2445 C   0  0  0  0  0  0  0  0  0  0  0  0
   26.5170   56.8380   90.5327 C   0  0  0  0  0  0  0  0  0  0  0  0
   27.4331   61.5743   84.3624 C   0  0  0  0  0  0  0  0  0  0  0  0
   22.3324   54.8863   89.4856 C   0  0  0  0  0  0  0  0  0  0  0  0
   27.4796   58.0908   86.0347 C   0  0  0  0  0  0  0  0  0  0  0  0
   24.0879   53.8766   90.9777 C   0  0  0  0  0  0  0  0  0  0  0  0
   22.7324   54.5021   90.9036 C   0  0  0  0  0  0  0  0  0  0  0  0
   28.7287   58.0137   90.1849 O   0  0  0  0  0  0  0  0  0  0  0  0
   28.0977   56.7330   89.6911 P   0  0  0  0  0  0  0  0  0  0  0  0
   24.3143   56.2132   89.6924 N   0  0  0  0  0  0  0  0  0  0  0  0
   26.9299   59.4928   85.6601 C   0  0  0  0  0  0  0  0  0  0  0  0
  1  3  1  0
  1 18  1  0
  2 13  1  0
  2 19  1  0
  3  6  1  0
  3 14  1  0
  4 18  1  0
  5  8  1  0
  5 12  1  0
  6 10  1  0
  7 12  1  0
  7 20  1  0
  8 20  1  0
  9 11  1  0
 10 11  1  0
 10 19  1  0
 13 16  1  0
 14 20  1  0
 15 16  1  0
 17 18  1  0
M  END
>  <ID>  (1) 
conformer_0

$$$$
