
     RDKit          3D

 28 32  0  0  0  0  0  0  0  0999 V2000
   28.2072   58.7525   89.0915 O   0  0  0  0  0  0  0  0  0  0  0  0
   26.1884   56.6993   88.3924 C   0  0  0  0  0  0  0  0  0  0  0  0
   26.1543   57.4726   86.1839 N   0  0  0  0  0  0  0  0  0  0  0  0
   22.6614   57.2977   84.8389 C   0  0  0  0  0  0  0  0  0  0  0  0
   23.1568   55.1957   89.7293 C   0  0  0  0  0  0  0  0  0  0  0  0
   22.7886   56.3271   86.9927 C   0  0  0  0  0  0  0  0  0  0  0  0
   22.8840   54.6509   90.9599 C   0  0  0  0  0  0  0  0  0  0  0  0
   24.6382   53.3695   93.7228 O   0  0  0  0  0  0  0  0  0  0  0  0
   28.7752   55.2165   89.9069 O   0  0  0  0  0  0  0  0  0  0  0  0
   28.2572   57.8564   87.8112 C   0  0  0  0  0  0  0  0  0  0  0  0
   24.4049   55.6940   89.4060 C   0  0  0  0  0  0  0  0  0  0  0  0
   22.0401   56.6939   85.9083 C   0  0  0  0  0  0  0  0  0  0  0  0
   28.5688   59.1411   86.9670 C   0  0  0  0  0  0  0  0  0  0  0  0
   28.8368   59.9516   88.2854 C   0  0  0  0  0  0  0  0  0  0  0  0
   24.1548   56.6035   87.0610 C   0  0  0  0  0  0  0  0  0  0  0  0
   27.6467   60.0036   86.2372 O   0  0  0  0  0  0  0  0  0  0  0  0
   28.1011   56.3259   90.1537 C   0  0  0  0  0  0  0  0  0  0  0  0
   25.1209   55.1239   91.6096 C   0  0  0  0  0  0  0  0  0  0  0  0
   25.4271   55.6888   90.3433 C   0  0  0  0  0  0  0  0  0  0  0  0
   26.8190   57.3568   87.3968 N   0  0  0  0  0  0  0  0  0  0  0  0
   23.6612   53.9275   93.1768 C   0  0  0  0  0  0  0  0  0  0  0  0
   22.4578   53.8341   93.5871 O   0  0  0  0  0  0  0  0  0  0  0  0
   24.8100   57.2121   86.0196 C   0  0  0  0  0  0  0  0  0  0  0  0
   28.3426   57.1051   91.1402 O   0  0  0  0  0  0  0  0  0  0  0  0
   23.8888   54.5737   91.9256 C   0  0  0  0  0  0  0  0  0  0  0  0
   24.8565   56.2976   88.2015 C   0  0  0  0  0  0  0  0  0  0  0  0
   24.0392   57.5394   84.8626 C   0  0  0  0  0  0  0  0  0  0  0  0
   26.6644   56.3050   89.7337 C   0  0  0  0  0  0  0  0  0  0  0  0
  1 10  1  0
  1 14  1  0
  2 20  1  0
  2 26  2  0
  2 28  1  0
  3 20  1  0
  3 23  1  0
  4 12  1  0
  4 27  2  0
  5  7  1  0
  5 11  2  0
  6 12  2  0
  6 15  1  0
  7 25  2  0
  8 21  2  0
  9 17  2  0
 10 13  1  0
 10 20  1  0
 11 19  1  0
 11 26  1  0
 13 14  1  0
 13 16  1  0
 15 23  2  0
 15 26  1  0
 17 24  1  0
 17 28  1  0
 18 19  2  0
 18 25  1  0
 19 28  1  0
 21 22  1  0
 21 25  1  0
 23 27  1  0
M  END
>  <ID>  (1) 
conformer_0

$$$$
