
     RDKit          3D

 14 14  0  0  0  0  0  0  0  0999 V2000
   24.5337   56.4041   87.6590 C   0  0  0  0  0  0  0  0  0  0  0  0
   23.2743   55.8868   87.4343 O   0  0  0  0  0  0  0  0  0  0  0  0
   26.4898   56.8647   89.1161 C   0  0  0  0  0  0  0  0  0  0  0  0
   28.4470   58.2965   88.2562 C   0  0  0  0  0  0  0  0  0  0  0  0
   25.1722   57.0497   86.6113 C   0  0  0  0  0  0  0  0  0  0  0  0
   28.3950   55.9132   90.2903 O   0  0  0  0  0  0  0  0  0  0  0  0
   24.5678   55.5936   89.8866 O   0  0  0  0  0  0  0  0  0  0  0  0
   28.7453   59.0890   89.2647 O   0  0  0  0  0  0  0  0  0  0  0  0
   29.3915   58.2648   87.2734 N   0  0  0  0  0  0  0  0  0  0  0  0
   26.9578   57.1388   91.4889 O   0  0  0  0  0  0  0  0  0  0  0  0
   25.1793   56.2954   88.8875 C   0  0  0  0  0  0  0  0  0  0  0  0
   27.1149   57.5954   88.0333 C   0  0  0  0  0  0  0  0  0  0  0  0
   27.3107   56.6816   90.3594 C   0  0  0  0  0  0  0  0  0  0  0  0
   26.4567   57.6284   86.8079 C   0  0  0  0  0  0  0  0  0  0  0  0
  1  2  1  0
  1  5  2  0
  1 11  1  0
  3 11  2  0
  3 12  1  0
  3 13  1  0
  4  8  2  0
  4  9  1  0
  4 12  1  0
  5 14  1  0
  6 13  2  0
  7 11  1  0
 10 13  1  0
 12 14  2  0
M  END
>  <ID>  (1) 
conformer_0

$$$$
