
     RDKit          3D

 15 15  0  0  0  0  0  0  0  0999 V2000
   28.1637   56.3456   91.0058 O   0  0  0  0  0  0  0  0  0  0  0  0
   25.2612   55.2278   91.6504 C   0  0  0  0  0  0  0  0  0  0  0  0
   27.6846   58.1697   87.5544 C   0  0  0  0  0  0  0  0  0  0  0  0
   25.1491   56.6723   86.7685 C   0  0  0  0  0  0  0  0  0  0  0  0
   27.3350   56.9918   88.7234 C   0  0  0  0  0  0  0  0  0  0  0  0
   23.3874   55.2836   90.1611 O   0  0  0  0  0  0  0  0  0  0  0  0
   25.8884   57.5600   85.7184 C   0  0  0  0  0  0  0  0  0  0  0  0
   28.4905   59.3900   87.8773 C   0  0  0  0  0  0  0  0  0  0  0  0
   25.7197   56.1830   90.6687 N   0  0  0  0  0  0  0  0  0  0  0  0
   28.8842   59.3961   89.2969 O   0  0  0  0  0  0  0  0  0  0  0  0
   27.4254   57.7162   86.0899 C   0  0  0  0  0  0  0  0  0  0  0  0
   28.4212   56.0028   88.4942 O   0  0  0  0  0  0  0  0  0  0  0  0
   25.9275   56.5619   88.1310 C   0  0  0  0  0  0  0  0  0  0  0  0
   27.0034   56.8306   90.3632 C   0  0  0  0  0  0  0  0  0  0  0  0
   23.9235   54.7127   91.3463 C   0  0  0  0  0  0  0  0  0  0  0  0
  1 14  1  0
  2  9  1  0
  2 15  1  0
  3  5  1  0
  3  8  1  0
  3 11  1  0
  4  7  1  0
  4 13  1  0
  5 12  1  0
  5 13  1  0
  5 14  1  0
  6 15  1  0
  7 11  1  0
  8 10  1  0
  9 14  1  0
M  END
>  <ID>  (1) 
conformer_0

$$$$
