
     RDKit          3D

 26 29  0  0  0  0  0  0  0  0999 V2000
   21.7649   54.8195   89.0961 C   0  0  0  0  0  0  0  0  0  0  0  0
   23.8506   56.5827   86.9306 O   0  0  0  0  0  0  0  0  0  0  0  0
   28.8026   59.8800   86.1694 C   0  0  0  0  0  0  0  0  0  0  0  0
   28.0583   57.8361   87.7471 C   0  0  0  0  0  0  0  0  0  0  0  0
   21.9598   55.5152   87.8749 C   0  0  0  0  0  0  0  0  0  0  0  0
   28.4776   55.3902   89.7829 O   0  0  0  0  0  0  0  0  0  0  0  0
   23.2396   54.4751   91.0880 N   0  0  0  0  0  0  0  0  0  0  0  0
   20.7098   54.1654   89.8816 C   0  0  0  0  0  0  0  0  0  0  0  0
   25.5369   55.2456   90.9327 N   0  0  0  0  0  0  0  0  0  0  0  0
   27.2966   59.8550   85.6664 C   0  0  0  0  0  0  0  0  0  0  0  0
   23.3085   56.0856   87.9248 C   0  0  0  0  0  0  0  0  0  0  0  0
   28.5131   57.6630   90.5245 O   0  0  0  0  0  0  0  0  0  0  0  0
   27.0894   56.7723   92.8217 O   0  0  0  0  0  0  0  0  0  0  0  0
   23.9288   55.7415   89.1924 C   0  0  0  0  0  0  0  0  0  0  0  0
   24.5019   54.6109   91.6255 C   0  0  0  0  0  0  0  0  0  0  0  0
   24.7776   53.9864   92.6646 O   0  0  0  0  0  0  0  0  0  0  0  0
   28.7711   59.2867   87.6509 C   0  0  0  0  0  0  0  0  0  0  0  0
   26.4369   56.8215   89.5592 C   0  0  0  0  0  0  0  0  0  0  0  0
   26.7036   57.6809   88.4045 C   0  0  0  0  0  0  0  0  0  0  0  0
   26.9632   58.3360   85.3917 C   0  0  0  0  0  0  0  0  0  0  0  0
   27.8541   57.4624   86.2719 N   0  0  0  0  0  0  0  0  0  0  0  0
   21.1365   56.0279   86.9798 N   0  0  0  0  0  0  0  0  0  0  0  0
   27.7167   56.4592   90.4455 C   0  0  0  0  0  0  0  0  0  0  0  0
   25.2612   55.9222   89.6779 C   0  0  0  0  0  0  0  0  0  0  0  0
   22.9797   54.9777   89.8816 C   0  0  0  0  0  0  0  0  0  0  0  0
   26.7172   55.8629   91.6734 C   0  0  0  0  0  0  0  0  0  0  0  0
  1  5  1  0
  1  8  1  0
  1 25  1  0
  2 11  2  0
  3 10  1  0
  3 17  1  0
  4 17  1  0
  4 19  1  0
  4 21  1  0
  5 11  1  0
  5 22  2  0
  6 23  1  0
  7 15  1  0
  7 25  2  0
  9 15  1  0
  9 24  1  0
  9 26  1  0
 10 20  1  0
 11 14  1  0
 12 23  1  0
 13 26  2  0
 14 24  1  0
 14 25  1  0
 15 16  2  0
 18 19  1  0
 18 23  1  0
 18 24  1  0
 20 21  1  0
 23 26  1  0
M  END
>  <ID>  (1) 
conformer_0

$$$$
