
     RDKit          3D

 33 35  0  0  0  0  0  0  0  0999 V2000
   22.7125   53.9115   92.6025 C   0  0  0  0  0  0  0  0  0  0  0  0
   25.9770   55.1867   93.4958 O   0  0  0  0  0  0  0  0  0  0  0  0
   23.8613   54.1625   93.3091 C   0  0  0  0  0  0  0  0  0  0  0  0
   20.7391   55.4746   88.3771 C   0  0  0  0  0  0  0  0  0  0  0  0
   27.5856   58.6434   86.0989 C   0  0  0  0  0  0  0  0  0  0  0  0
   28.8232   59.7738   88.0428 C   0  0  0  0  0  0  0  0  0  0  0  0
   25.7531   56.9881   85.0960 C   0  0  0  0  0  0  0  0  0  0  0  0
   23.4919   55.0901   90.6508 C   0  0  0  0  0  0  0  0  0  0  0  0
   24.4665   55.6131   88.5201 C   0  0  0  0  0  0  0  0  0  0  0  0
   28.3270   61.1479   85.9597 C   0  0  0  0  0  0  0  0  0  0  0  0
   24.8622   54.9082   92.7109 C   0  0  0  0  0  0  0  0  0  0  0  0
   22.1745   55.7281   88.1498 C   0  0  0  0  0  0  0  0  0  0  0  0
   26.3049   58.3724   85.2692 C   0  0  0  0  0  0  0  0  0  0  0  0
   23.7554   56.3444   86.4350 C   0  0  0  0  0  0  0  0  0  0  0  0
   28.7403   54.3004   90.2168 O   0  0  0  0  0  0  0  0  0  0  0  0
   24.6892   55.3649   91.3655 C   0  0  0  0  0  0  0  0  0  0  0  0
   22.4289   56.1659   86.8874 C   0  0  0  0  0  0  0  0  0  0  0  0
   27.5970   56.9311   92.4233 O   0  0  0  0  0  0  0  0  0  0  0  0
   28.8784   61.1842   87.4092 C   0  0  0  0  0  0  0  0  0  0  0  0
   24.7400   55.9636   87.2840 C   0  0  0  0  0  0  0  0  0  0  0  0
   27.2249   57.9223   89.8176 O   0  0  0  0  0  0  0  0  0  0  0  0
   23.2532   55.4606   89.1830 C   0  0  0  0  0  0  0  0  0  0  0  0
   28.3032   58.3870   87.5262 C   0  0  0  0  0  0  0  0  0  0  0  0
   25.7493   56.1394   90.8374 N   0  0  0  0  0  0  0  0  0  0  0  0
   29.3416   59.9197   89.3710 O   0  0  0  0  0  0  0  0  0  0  0  0
   24.2114   56.9082   85.1041 C   0  0  0  0  0  0  0  0  0  0  0  0
   28.4644   59.7168   85.3547 C   0  0  0  0  0  0  0  0  0  0  0  0
   27.9581   56.7264   90.0945 C   0  0  0  0  0  0  0  0  0  0  0  0
   28.9899   57.0883   87.4896 N   0  0  0  0  0  0  0  0  0  0  0  0
   27.0832   56.1728   91.3102 C   0  0  0  0  0  0  0  0  0  0  0  0
   22.5180   54.3438   91.3132 C   0  0  0  0  0  0  0  0  0  0  0  0
   25.9750   59.3023   84.3708 O   0  0  0  0  0  0  0  0  0  0  0  0
   28.5524   55.5188   89.4803 N   0  0  0  0  0  0  0  0  0  0  0  0
  1  3  2  0
  1 31  1  0
  2 11  1  0
  3 11  1  0
  4 12  1  0
  5 13  1  0
  5 23  1  0
  5 27  1  0
  6 19  1  0
  6 23  1  0
  6 25  1  0
  7 13  1  0
  7 26  1  0
  8 16  1  0
  8 22  1  0
  8 31  2  0
  9 20  2  0
  9 22  1  0
 10 19  1  0
 10 27  1  0
 11 16  2  0
 12 17  1  0
 12 22  2  0
 13 32  1  0
 14 17  2  0
 14 20  1  0
 14 26  1  0
 15 33  1  0
 16 24  1  0
 18 30  1  0
 21 28  2  0
 23 29  1  0
 24 30  1  0
 28 30  1  0
 28 33  1  0
M  END
>  <ID>  (1) 
conformer_0

$$$$
