
     RDKit          3D

 23 25  0  0  0  0  0  0  0  0999 V2000
   24.4528   54.8843   91.2514 C   0  0  0  0  0  0  0  0  0  0  0  0
   21.9374   56.4857   87.2418 C   0  0  0  0  0  0  0  0  0  0  0  0
   26.5606   56.3570   91.5268 C   0  0  0  0  0  0  0  0  0  0  0  0
   27.0832   58.2275   88.2526 C   0  0  0  0  0  0  0  0  0  0  0  0
   29.0530   59.9224   87.1878 C   0  0  0  0  0  0  0  0  0  0  0  0
   26.7539   56.8310   88.9652 C   0  0  0  0  0  0  0  0  0  0  0  0
   25.6348   55.2028   92.0672 C   0  0  0  0  0  0  0  0  0  0  0  0
   25.2991   56.3500   88.8941 C   0  0  0  0  0  0  0  0  0  0  0  0
   27.6343   56.6069   90.3007 C   0  0  0  0  0  0  0  0  0  0  0  0
   23.1645   56.2587   88.0321 C   0  0  0  0  0  0  0  0  0  0  0  0
   27.9927   59.5927   88.3664 C   0  0  0  0  0  0  0  0  0  0  0  0
   27.6768   57.7350   86.7736 C   0  0  0  0  0  0  0  0  0  0  0  0
   28.1438   60.1067   85.9109 C   0  0  0  0  0  0  0  0  0  0  0  0
   22.1190   54.9100   89.6843 O   0  0  0  0  0  0  0  0  0  0  0  0
   28.4289   57.7691   90.5592 O   0  0  0  0  0  0  0  0  0  0  0  0
   24.4806   56.6546   87.8392 N   0  0  0  0  0  0  0  0  0  0  0  0
   23.1298   55.5376   89.2665 C   0  0  0  0  0  0  0  0  0  0  0  0
   28.5567   55.4505   90.0350 O   0  0  0  0  0  0  0  0  0  0  0  0
   22.1021   57.0354   85.9538 N   0  0  0  0  0  0  0  0  0  0  0  0
   24.4147   55.5772   89.8913 C   0  0  0  0  0  0  0  0  0  0  0  0
   27.1888   58.8925   85.8467 C   0  0  0  0  0  0  0  0  0  0  0  0
   28.7160   56.7461   87.2545 O   0  0  0  0  0  0  0  0  0  0  0  0
   23.5756   53.9460   92.0937 C   0  0  0  0  0  0  0  0  0  0  0  0
  1  7  2  0
  1 20  1  0
  1 23  1  0
  2 10  2  3
  2 19  1  0
  3  7  1  0
  3  9  1  0
  4  6  1  0
  4 11  1  0
  4 12  1  0
  5 11  1  0
  5 13  1  0
  6  8  1  0
  6  9  1  0
  8 16  1  0
  8 20  2  0
  9 15  1  0
  9 18  1  0
 10 16  1  0
 10 17  1  0
 12 21  1  0
 12 22  1  0
 13 21  1  0
 14 17  2  0
 17 20  1  0
M  END
>  <ID>  (1) 
conformer_0

$$$$
