
     RDKit          3D

 21 23  0  0  0  0  0  0  0  0999 V2000
   22.2246   56.4787   87.5248 C   0  0  0  0  0  0  0  0  0  0  0  0
   27.9026   57.0520   88.9905 C   0  0  0  0  0  0  0  0  0  0  0  0
   25.2481   56.4670   87.7829 C   0  0  0  0  0  0  0  0  0  0  0  0
   28.6183   56.3526   88.0334 O   0  0  0  0  0  0  0  0  0  0  0  0
   27.1617   59.3928   85.6848 C   0  0  0  0  0  0  0  0  0  0  0  0
   25.9738   57.3854   86.8671 C   0  0  0  0  0  0  0  0  0  0  0  0
   28.6582   55.3143   90.5216 O   0  0  0  0  0  0  0  0  0  0  0  0
   20.8270   55.7910   87.6273 C   0  0  0  0  0  0  0  0  0  0  0  0
   22.2187   55.2125   89.5227 N   0  0  0  0  0  0  0  0  0  0  0  0
   28.1854   58.4801   89.1251 N   0  0  0  0  0  0  0  0  0  0  0  0
   24.3593   55.9974   88.9218 C   0  0  0  0  0  0  0  0  0  0  0  0
   28.4125   59.1914   87.6457 C   0  0  0  0  0  0  0  0  0  0  0  0
   27.5482   56.3852   90.4641 C   0  0  0  0  0  0  0  0  0  0  0  0
   22.7119   54.7653   90.6156 C   0  0  0  0  0  0  0  0  0  0  0  0
   22.9951   55.8907   88.6541 C   0  0  0  0  0  0  0  0  0  0  0  0
   27.6805   57.1910   91.7298 O   0  0  0  0  0  0  0  0  0  0  0  0
   24.7983   55.6021   90.1866 C   0  0  0  0  0  0  0  0  0  0  0  0
   26.1538   55.7927   90.7444 C   0  0  0  0  0  0  0  0  0  0  0  0
   23.9204   54.9579   91.0094 N   0  0  0  0  0  0  0  0  0  0  0  0
   28.4121   60.1831   86.1888 C   0  0  0  0  0  0  0  0  0  0  0  0
   27.1407   58.4678   86.8986 C   0  0  0  0  0  0  0  0  0  0  0  0
  1  8  1  0
  1 15  1  0
  2  4  2  0
  2 10  1  0
  2 13  1  0
  3  6  2  0
  3 11  2  0
  5 20  1  0
  5 21  1  0
  6 21  1  0
  7 13  1  0
  9 14  1  0
  9 15  2  0
 10 12  1  0
 11 15  1  0
 11 17  1  0
 12 20  1  0
 12 21  2  0
 13 16  1  0
 13 18  1  0
 14 19  2  0
 17 18  2  0
 17 19  1  0
M  END
>  <ID>  (1) 
conformer_0

$$$$
