
     RDKit          3D

 14 14  0  0  0  0  0  0  0  0999 V2000
   22.9348   55.3430   89.9034 O   0  0  0  0  0  0  0  0  0  0  0  0
   26.7179   56.6291   91.8723 O   0  0  0  0  0  0  0  0  0  0  0  0
   24.4861   56.6053   86.8198 C   0  0  0  0  0  0  0  0  0  0  0  0
   27.7739   57.1568   91.0258 N   0  0  0  0  0  0  0  0  0  0  0  0
   29.1730   58.1010   87.6381 N   0  0  0  0  0  0  0  0  0  0  0  0
   28.6175   55.5449   89.6085 O   0  0  0  0  0  0  0  0  0  0  0  0
   24.2961   56.1714   88.1403 C   0  0  0  0  0  0  0  0  0  0  0  0
   28.1342   57.6975   86.8295 C   0  0  0  0  0  0  0  0  0  0  0  0
   22.9273   55.6370   88.5274 C   0  0  0  0  0  0  0  0  0  0  0  0
   25.3532   56.2324   89.0538 C   0  0  0  0  0  0  0  0  0  0  0  0
   27.8175   56.6093   89.7075 C   0  0  0  0  0  0  0  0  0  0  0  0
   26.8272   57.1786   87.3994 C   0  0  0  0  0  0  0  0  0  0  0  0
   25.7509   57.1139   86.4665 C   0  0  0  0  0  0  0  0  0  0  0  0
   26.6425   56.7071   88.7455 C   0  0  0  0  0  0  0  0  0  0  0  0
  1  9  1  0
  2  4  1  0
  3  7  2  0
  3 13  1  0
  4 11  1  0
  5  8  1  0
  6 11  2  0
  7  9  1  0
  7 10  1  0
  8 12  1  0
 10 14  2  0
 11 14  1  0
 12 13  2  0
 12 14  1  0
M  END
>  <ID>  (1) 
conformer_0

$$$$
