
     RDKit          3D

 15 14  0  0  0  0  0  0  0  0999 V2000
   23.8518   55.2579   90.9701 O   0  0  0  0  0  0  0  0  0  0  0  0
   26.2258   56.1433   90.8984 C   0  0  0  0  0  0  0  0  0  0  0  0
   28.1721   56.8300   87.4415 O   0  0  0  0  0  0  0  0  0  0  0  0
   28.5523   55.4128   90.0180 O   0  0  0  0  0  0  0  0  0  0  0  0
   27.4139   58.9030   88.0081 O   0  0  0  0  0  0  0  0  0  0  0  0
   26.9380   57.5846   87.5834 C   0  0  0  0  0  0  0  0  0  0  0  0
   24.7477   56.3513   88.9268 C   0  0  0  0  0  0  0  0  0  0  0  0
   26.2502   55.5778   92.1974 O   0  0  0  0  0  0  0  0  0  0  0  0
   26.1077   57.0774   88.7534 C   0  0  0  0  0  0  0  0  0  0  0  0
   28.3554   57.4966   90.8788 O   0  0  0  0  0  1  0  0  0  0  0  0
   24.9645   56.6597   86.2105 O   0  0  0  0  0  0  0  0  0  0  0  0
   26.0857   57.5912   86.2902 C   0  0  0  0  0  0  0  0  0  0  0  0
   26.1814   58.5873   85.1895 C   0  0  0  0  0  0  0  0  0  0  0  0
   24.8901   55.6052   90.2613 C   0  0  0  0  0  0  0  0  0  0  0  0
   27.7969   56.3559   90.5725 P   0  0  0  0  0  4  0  0  0  0  0  0
  1 14  1  0
  2  8  1  0
  2 14  1  0
  2 15  1  0
  3  6  1  0
  4 15  1  0
  5  6  1  0
  6  9  1  0
  6 12  1  0
  7  9  1  0
  7 14  1  0
 10 15  2  0
 11 12  1  0
 12 13  1  0
M  END
>  <ID>  (1) 
conformer_0

$$$$
