
     RDKit          3D

 27 28  0  0  0  0  0  0  0  0999 V2000
   24.7853   53.3985   90.9916 O   0  0  0  0  0  0  0  0  0  0  0  0
   21.0040   55.6675   88.0410 C   0  0  0  0  0  0  0  0  0  0  0  0
   23.0229   54.9925   90.7125 C   0  0  0  0  0  0  0  0  0  0  0  0
   26.5292   56.3289   91.4293 C   0  0  0  0  0  0  0  0  0  0  0  0
   28.7590   57.8736   87.6060 O   0  0  0  0  0  0  0  0  0  0  0  0
   26.6226   58.0584   88.8195 C   0  0  0  0  0  0  0  0  0  0  0  0
   28.7561   59.9604   85.8810 C   0  0  0  0  0  0  0  0  0  0  0  0
   27.7620   59.0824   85.1776 N   0  0  0  0  0  0  0  0  0  0  0  0
   27.3315   56.6729   92.5803 O   0  0  0  0  0  0  0  0  0  0  0  0
   25.8495   57.4001   85.4516 C   0  0  0  0  0  0  0  0  0  0  0  0
   23.1140   55.7441   86.9582 N   0  0  0  0  0  0  0  0  0  0  0  0
   25.2300   56.9958   86.6139 C   0  0  0  0  0  0  0  0  0  0  0  0
   28.0410   59.9618   88.6180 O   0  0  0  0  0  0  0  0  0  0  0  0
   22.5562   55.8432   88.2780 C   0  0  0  0  0  0  0  0  0  0  0  0
   24.2820   54.5532   91.4098 C   0  0  0  0  0  0  0  0  0  0  0  0
   23.7425   56.8711   84.9792 C   0  0  0  0  0  0  0  0  0  0  0  0
   23.9319   56.5190   86.2634 C   0  0  0  0  0  0  0  0  0  0  0  0
   24.8877   57.4237   84.5157 N   0  0  0  0  0  0  0  0  0  0  0  0
   27.3189   57.6495   85.0906 C   0  0  0  0  0  0  0  0  0  0  0  0
   25.2405   55.6171   91.7820 C   0  0  0  0  0  0  0  0  0  0  0  0
   28.2510   56.3335   89.7261 C   0  0  0  0  0  0  0  0  0  0  0  0
   23.1237   54.7855   89.2148 C   0  0  0  0  0  0  0  0  0  0  0  0
   26.6997   60.0103   84.6248 C   0  0  0  0  0  0  0  0  0  0  0  0
   27.0543   57.1631   90.2181 C   0  0  0  0  0  0  0  0  0  0  0  0
   25.7407   57.1164   88.0248 C   0  0  0  0  0  0  0  0  0  0  0  0
   28.4493   55.0298   90.3595 O   0  0  0  0  0  0  0  0  0  0  0  0
   27.9566   58.6531   88.2975 C   0  0  0  0  0  0  0  0  0  0  0  0
  1 15  1  0
  2 14  1  0
  3 15  1  0
  3 22  1  0
  4  9  1  0
  4 20  1  0
  4 24  1  0
  5 27  2  0
  6 24  1  0
  6 25  1  0
  6 27  1  0
  7  8  1  0
  8 19  1  0
  8 23  1  0
 10 12  1  0
 10 18  1  0
 10 19  1  0
 11 14  1  0
 11 17  1  0
 12 17  1  0
 12 25  1  0
 13 27  1  0
 14 22  1  0
 15 20  1  0
 16 17  1  0
 16 18  1  0
 21 24  1  0
 21 26  1  0
M  END
>  <ID>  (1) 
conformer_0

$$$$
