
     RDKit          3D

 35 40  0  0  0  0  0  0  0  0999 V2000
   24.1497   56.2629   87.8455 C   0  0  0  0  0  0  0  0  0  0  0  0
   28.6682   58.5294   88.0190 C   0  0  0  0  0  0  0  0  0  0  0  0
   28.4694   55.9339   89.1563 O   0  0  0  0  0  0  0  0  0  0  0  0
   22.3835   54.9851   89.3810 C   0  0  0  0  0  0  0  0  0  0  0  0
   25.6297   55.5052   92.6745 N   0  0  0  0  0  0  0  0  0  0  0  0
   22.5143   57.0083   84.8941 C   0  0  0  0  0  0  0  0  0  0  0  0
   21.4291   53.7168   91.3851 Cl  0  0  0  0  0  0  0  0  0  0  0  0
   22.0034   55.9492   87.1824 N   0  0  0  0  0  0  0  0  0  0  0  0
   28.9682   59.9648   87.6889 C   0  0  0  0  0  0  0  0  0  0  0  0
   27.9971   56.9548   89.8476 C   0  0  0  0  0  0  0  0  0  0  0  0
   27.2440   60.1790   85.3467 C   0  0  0  0  0  0  0  0  0  0  0  0
   24.6591   57.4992   85.3925 C   0  0  0  0  0  0  0  0  0  0  0  0
   22.8159   54.5187   90.6152 C   0  0  0  0  0  0  0  0  0  0  0  0
   26.2578   59.2887   84.7742 C   0  0  0  0  0  0  0  0  0  0  0  0
   27.2502   61.4092   84.4109 C   0  0  0  0  0  0  0  0  0  0  0  0
   23.9632   55.0382   91.1725 N   0  0  0  0  0  0  0  0  0  0  0  0
   24.5998   54.5638   92.3198 C   0  0  0  0  0  0  0  0  0  0  0  0
   26.3686   61.2109   83.3604 C   0  0  0  0  0  0  0  0  0  0  0  0
   25.7112   59.8670   83.5602 C   0  0  0  0  0  0  0  0  0  0  0  0
   27.1949   54.5962   91.2749 O   0  0  0  0  0  0  0  0  0  0  0  0
   28.7255   61.8416   86.0973 C   0  0  0  0  0  0  0  0  0  0  0  0
   29.3093   60.6578   88.9215 O   0  0  0  0  0  0  0  0  0  0  0  0
   24.0597   56.8025   86.5243 C   0  0  0  0  0  0  0  0  0  0  0  0
   28.3435   58.3097   89.4475 N   0  0  0  0  0  0  0  0  0  0  0  0
   28.2250   60.4926   86.4081 C   0  0  0  0  0  0  0  0  0  0  0  0
   26.6009   55.7171   91.6636 C   0  0  0  0  0  0  0  0  0  0  0  0
   27.0956   57.2113   85.7267 C   0  0  0  0  0  0  0  0  0  0  0  0
   28.1154   62.3563   84.9198 C   0  0  0  0  0  0  0  0  0  0  0  0
   25.9460   57.9930   85.2613 N   0  0  0  0  0  0  0  0  0  0  0  0
   26.6950   56.8681   90.6769 C   0  0  0  0  0  0  0  0  0  0  0  0
   24.5153   53.4048   92.8099 O   0  0  0  0  0  0  0  0  0  0  0  0
   22.7027   56.5557   86.1778 C   0  0  0  0  0  0  0  0  0  0  0  0
   22.8828   55.7257   88.2604 C   0  0  0  0  0  0  0  0  0  0  0  0
   23.7521   57.6124   84.4407 N   0  0  0  0  0  0  0  0  0  0  0  0
   28.1269   57.7431   86.8035 C   0  0  0  0  0  0  0  0  0  0  0  0
  1 23  1  0
  1 33  1  0
  2  9  1  0
  2 24  1  0
  2 35  2  0
  3 10  2  0
  4 13  1  0
  4 33  2  0
  5 17  1  0
  5 26  1  0
  6 32  1  0
  6 34  1  0
  7 13  1  0
  8 32  1  0
  8 33  1  0
  9 22  1  0
  9 25  1  0
 10 24  1  0
 10 30  1  0
 11 14  1  0
 11 15  2  0
 11 25  1  0
 12 23  2  0
 12 29  1  0
 12 34  1  0
 13 16  1  0
 14 19  1  0
 14 29  1  0
 15 18  1  0
 15 28  1  0
 16 17  1  0
 17 31  2  0
 18 19  1  0
 20 26  2  0
 21 25  1  0
 21 28  1  0
 23 32  1  0
 26 30  1  0
 27 29  1  0
 27 35  2  0
M  END
>  <ID>  (1) 
conformer_0

$$$$
