
     RDKit          3D

 36 41  0  0  0  0  0  0  0  0999 V2000
   28.5971   59.8276   84.6529 C   0  0  0  0  0  0  0  0  0  0  0  0
   23.3419   54.4460   91.6783 N   0  0  0  0  0  0  0  0  0  0  0  0
   26.4572   57.2574   86.6908 C   0  0  0  0  0  0  0  0  0  0  0  0
   29.1292   55.0039   90.3501 O   0  0  0  0  0  0  0  0  0  0  0  0
   27.8051   58.5062   84.8297 C   0  0  0  0  0  0  0  0  0  0  0  0
   23.7147   56.9553   84.8366 N   0  0  0  0  0  0  0  0  0  0  0  0
   25.6841   56.3757   86.0115 N   0  0  0  0  0  0  0  0  0  0  0  0
   29.1151   55.8151   87.7860 O   0  0  0  0  0  0  0  0  0  0  0  0
   28.5175   61.2336   86.6585 C   0  0  0  0  0  0  0  0  0  0  0  0
   26.8464   56.2435   90.7456 C   0  0  0  0  0  0  0  0  0  0  0  0
   23.1518   55.0777   89.3804 C   0  0  0  0  0  0  0  0  0  0  0  0
   21.5673   56.6431   85.6448 N   0  0  0  0  0  0  0  0  0  0  0  0
   25.4271   55.4661   90.8697 C   0  0  0  0  0  0  0  0  0  0  0  0
   27.1356   58.5311   86.2743 C   0  0  0  0  0  0  0  0  0  0  0  0
   28.2296   56.4227   88.6288 C   0  0  0  0  0  0  0  0  0  0  0  0
   23.8117   55.5047   88.2465 N   0  0  0  0  0  0  0  0  0  0  0  0
   23.9110   54.9966   90.5917 C   0  0  0  0  0  0  0  0  0  0  0  0
   25.4951   55.2017   92.3552 C   0  0  0  0  0  0  0  0  0  0  0  0
   27.1153   57.1748   91.8499 O   0  0  0  0  0  0  0  0  0  0  0  0
   21.2781   54.1880   90.6750 C   0  0  0  0  0  0  0  0  0  0  0  0
   24.2522   54.4307   92.8163 C   0  0  0  0  0  0  0  0  0  0  0  0
   26.8626   58.4466   89.1853 C   0  0  0  0  0  0  0  0  0  0  0  0
   27.7463   60.9775   85.3362 C   0  0  0  0  0  0  0  0  0  0  0  0
   21.7476   54.7020   89.4926 C   0  0  0  0  0  0  0  0  0  0  0  0
   22.0130   56.0191   86.7703 C   0  0  0  0  0  0  0  0  0  0  0  0
   22.0531   54.0005   91.7242 N   0  0  0  0  0  0  0  0  0  0  0  0
   29.0936   59.9926   87.3103 C   0  0  0  0  0  0  0  0  0  0  0  0
   28.1575   57.9258   88.5154 C   0  0  0  0  0  0  0  0  0  0  0  0
   20.9100   55.4759   87.4330 N   0  0  0  0  0  0  0  0  0  0  0  0
   28.4153   58.6782   87.1850 C   0  0  0  0  0  0  0  0  0  0  0  0
   29.4954   60.2333   88.7702 N   0  0  0  0  0  0  0  0  0  0  0  0
   28.2112   56.0150   90.0675 C   0  0  0  0  0  0  0  0  0  0  0  0
   23.4666   55.9830   87.0280 C   0  0  0  0  0  0  0  0  0  0  0  0
   22.3940   57.0519   84.7480 C   0  0  0  0  0  0  0  0  0  0  0  0
   20.6844   54.8286   88.4823 C   0  0  0  0  0  0  0  0  0  0  0  0
   24.2893   56.4593   85.9666 C   0  0  0  0  0  0  0  0  0  0  0  0
  1  5  1  0
  1 23  1  0
  2 17  1  0
  2 21  1  0
  2 26  1  0
  3  7  1  0
  3 14  1  0
  4 32  1  0
  5 14  1  0
  6 34  1  0
  6 36  2  0
  7 36  1  0
  8 15  1  0
  9 23  1  0
  9 27  1  0
 10 13  1  0
 10 19  1  0
 10 32  1  0
 11 16  1  0
 11 17  2  0
 11 24  1  0
 12 25  1  0
 12 34  2  0
 13 17  1  0
 13 18  1  0
 14 30  1  0
 15 28  1  0
 15 32  1  0
 16 33  2  0
 18 21  1  0
 20 24  1  0
 20 26  2  0
 22 28  1  0
 24 35  1  0
 25 29  1  0
 25 33  1  0
 27 30  1  0
 27 31  1  0
 28 30  1  0
 29 35  2  0
 33 36  1  0
M  END
>  <ID>  (1) 
conformer_0

$$$$
