
     RDKit          3D

 22 24  0  0  0  0  0  0  0  0999 V2000
   23.9281   55.4069   89.8386 C   0  0  0  0  0  0  0  0  0  0  0  0
   27.0381   57.9624   87.0790 N   0  0  0  0  0  0  0  0  0  0  0  0
   28.0235   58.0552   89.5049 N   0  0  0  0  0  0  0  0  0  0  0  0
   24.0949   55.9376   88.5448 C   0  0  0  0  0  0  0  0  0  0  0  0
   27.6008   56.6845   90.3035 P   0  0  0  0  0  0  0  0  0  0  0  0
   25.1125   55.5644   90.5654 C   0  0  0  0  0  0  0  0  0  0  0  0
   28.2003   58.0251   88.0413 C   0  0  0  0  0  0  0  0  0  0  0  0
   24.4974   58.3206   83.9271 N   0  0  0  0  0  0  0  0  0  0  0  0
   27.2695   58.6988   85.9785 C   0  0  0  0  0  0  0  0  0  0  0  0
   25.3640   56.5199   88.3384 C   0  0  0  0  0  0  0  0  0  0  0  0
   27.5955   56.9708   91.7313 O   0  0  0  0  0  0  0  0  0  0  0  0
   26.5012   58.8450   84.9280 N   0  0  0  0  0  0  0  0  0  0  0  0
   25.3184   58.1580   85.0063 C   0  0  0  0  0  0  0  0  0  0  0  0
   26.0986   56.3094   89.6685 C   0  0  0  0  0  0  0  0  0  0  0  0
   24.9648   57.3219   86.0367 C   0  0  0  0  0  0  0  0  0  0  0  0
   28.5933   55.6126   89.9519 O   0  0  0  0  0  0  0  0  0  0  0  0
   22.7766   54.8149   90.3184 C   0  0  0  0  0  0  0  0  0  0  0  0
   22.7467   54.2756   91.5955 C   0  0  0  0  0  0  0  0  0  0  0  0
   25.0234   54.9632   91.8763 C   0  0  0  0  0  0  0  0  0  0  0  0
   29.0869   59.3428   87.6988 C   0  0  0  0  0  0  0  0  0  0  0  0
   23.8960   54.3278   92.3774 C   0  0  0  0  0  0  0  0  0  0  0  0
   25.7746   57.2483   87.1407 C   0  0  0  0  0  0  0  0  0  0  0  0
  1  4  1  0
  1  6  2  0
  1 17  1  0
  2  7  1  0
  2  9  1  0
  2 22  1  0
  3  7  1  0
  4 10  1  0
  5 11  1  0
  5 14  1  0
  5 16  1  0
  6 14  1  0
  6 19  1  0
  7 20  1  0
  8 13  2  0
  9 12  1  0
 10 14  2  0
 10 22  1  0
 12 13  1  0
 13 15  1  0
 15 22  2  0
 17 18  2  0
 18 21  1  0
 19 21  2  0
M  END
>  <ID>  (1) 
conformer_0

$$$$
