
     RDKit          3D

 20 22  0  0  0  0  0  0  0  0999 V2000
   26.9029   58.3806   86.6201 C   0  0  0  0  0  0  0  0  0  0  0  0
   27.7721   58.7783   88.0409 C   0  0  0  0  0  0  0  0  0  0  0  0
   25.4049   55.2161   91.0196 C   0  0  0  0  0  0  0  0  0  0  0  0
   25.5226   56.6573   88.6784 C   0  0  0  0  0  0  0  0  0  0  0  0
   24.4478   54.4993   91.9513 C   0  0  0  0  0  0  0  0  0  0  0  0
   28.9058   56.6487   87.6443 O   0  0  0  0  0  0  0  0  0  0  0  0
   25.7961   57.3565   87.1857 C   0  0  0  0  0  0  0  0  0  0  0  0
   23.4794   55.4572   89.2545 C   0  0  0  0  0  0  0  0  0  0  0  0
   22.6859   54.4326   89.9656 C   0  0  0  0  0  0  0  0  0  0  0  0
   28.6623   55.5453   90.1998 O   0  0  0  0  0  0  0  0  0  0  0  0
   23.0029   54.4385   91.4612 C   0  0  0  0  0  0  0  0  0  0  0  0
   26.9151   57.1497   90.9401 N   0  0  0  0  0  0  0  0  0  0  0  0
   22.9111   56.2023   88.3222 O   0  0  0  0  0  0  0  0  0  0  0  0
   28.0515   56.8371   90.0435 C   0  0  0  0  0  0  0  0  0  0  0  0
   26.4167   56.0457   91.7967 C   0  0  0  0  0  0  0  0  0  0  0  0
   24.8186   55.8367   89.8137 C   0  0  0  0  0  0  0  0  0  0  0  0
   28.1191   57.3117   88.5651 C   0  0  0  0  0  0  0  0  0  0  0  0
   26.1170   58.4814   85.2252 C   0  0  0  0  0  0  0  0  0  0  0  0
   25.0568   57.4404   85.7235 O   0  0  0  0  0  0  0  0  0  0  0  0
   28.7530   59.6498   89.1010 N   0  0  0  0  0  0  0  0  0  0  0  0
  1  2  1  0
  1  7  1  0
  1 18  1  0
  2 17  1  0
  2 20  1  0
  3  5  1  0
  3 15  1  0
  3 16  1  0
  4  7  2  0
  4 16  2  0
  5 11  1  0
  6 17  1  0
  7 19  1  0
  8  9  1  0
  8 13  1  0
  8 16  1  0
  9 11  1  0
 10 14  2  0
 12 14  1  0
 12 15  1  0
 14 17  1  0
 18 19  1  0
M  END
>  <ID>  (1) 
conformer_0

$$$$
