
     RDKit          3D

 27 29  0  0  0  0  0  0  0  0999 V2000
   23.0620   56.1021   88.3486 C   0  0  0  0  0  0  0  0  0  0  0  0
   27.3418   58.8731   86.0899 C   0  0  0  0  0  0  0  0  0  0  0  0
   28.9789   59.8424   87.7170 C   0  0  0  0  0  0  0  0  0  0  0  0
   24.8150   55.4214   90.6392 C   0  0  0  0  0  0  0  0  0  0  0  0
   28.0997   58.8153   88.6573 C   0  0  0  0  0  0  0  0  0  0  0  0
   27.9456   56.8684   91.4265 O   0  0  0  0  0  0  0  0  0  0  0  0
   22.0251   56.3130   87.5718 C   0  0  0  0  0  0  0  0  0  0  0  0
   28.6669   55.2924   89.9331 O   0  0  0  0  0  0  0  0  0  0  0  0
   21.8767   56.6179   86.2606 C   0  0  0  0  0  0  0  0  0  0  0  0
   28.7471   59.5273   86.1679 C   0  0  0  0  0  0  0  0  0  0  0  0
   28.4887   61.1483   87.9643 O   0  0  0  0  0  0  0  0  0  0  0  0
   25.3385   55.9716   89.4005 C   0  0  0  0  0  0  0  0  0  0  0  0
   25.5802   55.2522   91.8083 C   0  0  0  0  0  0  0  0  0  0  0  0
   24.4785   56.1306   88.2256 C   0  0  0  0  0  0  0  0  0  0  0  0
   24.3442   54.1372   93.6734 C   0  0  0  0  0  0  0  0  0  0  0  0
   26.6632   56.5805   89.4313 C   0  0  0  0  0  0  0  0  0  0  0  0
   22.8399   54.3634   91.7968 C   0  0  0  0  0  0  0  0  0  0  0  0
   24.2668   56.7468   85.7645 C   0  0  0  0  0  0  0  0  0  0  0  0
   26.6857   58.1358   89.2631 C   0  0  0  0  0  0  0  0  0  0  0  0
   27.4169   57.5701   86.7649 N   0  0  0  0  0  0  0  0  0  0  0  0
   27.8107   56.2034   90.3373 C   0  0  0  0  0  0  0  0  0  0  0  0
   23.0587   53.9651   93.0750 C   0  0  0  0  0  0  0  0  0  0  0  0
   28.4888   57.5076   87.8159 C   0  0  0  0  0  0  0  0  0  0  0  0
   24.8767   56.3733   86.8870 C   0  0  0  0  0  0  0  0  0  0  0  0
   22.9650   56.9172   85.3822 C   0  0  0  0  0  0  0  0  0  0  0  0
   25.3455   54.7492   93.0057 C   0  0  0  0  0  0  0  0  0  0  0  0
   23.5072   54.9545   90.8372 C   0  0  0  0  0  0  0  0  0  0  0  0
  1  7  2  0
  1 14  1  0
  2 10  1  0
  2 20  1  0
  3  5  1  0
  3 10  1  0
  3 11  1  0
  4 12  2  3
  4 13  1  0
  4 27  1  0
  5 19  1  0
  5 23  1  0
  6 21  2  0
  7  9  1  0
  8 21  1  0
  9 25  2  0
 12 14  1  0
 12 16  1  0
 13 26  2  0
 14 24  1  0
 15 22  2  0
 15 26  1  0
 16 19  1  0
 16 21  1  0
 17 22  1  0
 17 27  2  0
 18 24  2  0
 18 25  1  0
 20 23  1  0
M  END
>  <ID>  (1) 
conformer_0

$$$$
