
     RDKit          3D

 24 27  0  0  0  0  0  0  0  0999 V2000
   24.4941   56.7539   86.4786 C   0  0  0  0  0  0  0  0  0  0  0  0
   25.3381   58.9717   84.4024 C   0  0  0  0  0  0  0  0  0  0  0  0
   28.0875   59.2708   85.5918 C   0  0  0  0  0  0  0  0  0  0  0  0
   27.8970   58.3312   88.5102 C   0  0  0  0  0  0  0  0  0  0  0  0
   25.7618   57.0464   86.8629 C   0  0  0  0  0  0  0  0  0  0  0  0
   24.9295   55.6418   90.1095 C   0  0  0  0  0  0  0  0  0  0  0  0
   23.9038   55.9594   87.5857 C   0  0  0  0  0  0  0  0  0  0  0  0
   23.8425   57.1794   85.2851 C   0  0  0  0  0  0  0  0  0  0  0  0
   26.0705   56.6273   88.1193 C   0  0  0  0  0  0  0  0  0  0  0  0
   25.0342   54.8150   92.8085 C   0  0  0  0  0  0  0  0  0  0  0  0
   28.5355   55.9729   88.4137 O   0  0  0  0  0  0  0  0  0  0  0  0
   26.5897   59.5353   84.9872 C   0  0  0  0  0  0  0  0  0  0  0  0
   27.2551   56.7580   90.3853 C   0  0  0  0  0  0  0  0  0  0  0  0
   28.4159   57.4583   90.9111 O   0  0  0  0  0  0  0  0  0  0  0  0
   28.3064   58.3342   86.9581 C   0  0  0  0  0  0  0  0  0  0  0  0
   23.9024   54.5916   92.0649 C   0  0  0  0  0  0  0  0  0  0  0  0
   26.0654   55.9578   90.9063 C   0  0  0  0  0  0  0  0  0  0  0  0
   23.8324   55.0226   90.7460 C   0  0  0  0  0  0  0  0  0  0  0  0
   24.2547   58.1331   84.4374 C   0  0  0  0  0  0  0  0  0  0  0  0
   26.1170   55.5111   92.2699 C   0  0  0  0  0  0  0  0  0  0  0  0
   22.6097   54.7723   89.9785 C   0  0  0  0  0  0  0  0  0  0  0  0
   24.9155   55.9779   88.6920 C   0  0  0  0  0  0  0  0  0  0  0  0
   28.6488   59.5718   87.9803 C   0  0  0  0  0  0  0  0  0  0  0  0
   27.3799   56.8135   88.8519 C   0  0  0  0  0  0  0  0  0  0  0  0
  1  5  1  0
  1  7  1  0
  1  8  1  0
  2 12  1  0
  2 19  1  0
  3 12  1  0
  3 15  1  0
  4 15  1  0
  4 23  1  0
  4 24  1  0
  5  9  1  0
  6 17  2  0
  6 18  1  0
  6 22  1  0
  7 22  1  0
  8 19  2  0
  9 22  2  0
  9 24  1  0
 10 16  1  0
 10 20  2  0
 11 24  1  0
 13 14  1  0
 13 17  1  0
 13 24  1  0
 16 18  2  0
 17 20  1  0
 18 21  1  0
M  END
>  <ID>  (1) 
conformer_0

$$$$
