
     RDKit          3D

 14 14  0  0  0  0  0  0  0  0999 V2000
   26.8931   57.6196   89.3170 C   0  0  0  0  0  0  0  0  0  0  0  0
   25.6951   56.8907   88.7228 O   0  0  0  0  0  0  0  0  0  0  0  0
   27.9902   57.0971   91.4611 O   0  0  0  0  0  0  0  0  0  0  0  0
   28.0324   58.3361   88.4679 C   0  0  0  0  0  0  0  0  0  0  0  0
   26.1136   55.7376   90.7760 C   0  0  0  0  0  0  0  0  0  0  0  0
   28.3497   57.2880   87.2957 C   0  0  0  0  0  0  0  0  0  0  0  0
   27.4727   56.4906   90.3338 C   0  0  0  0  0  0  0  0  0  0  0  0
   25.8809   57.9672   85.8338 C   0  0  0  0  0  0  0  0  0  0  0  0
   27.1887   57.4006   86.2711 C   0  0  0  0  0  0  0  0  0  0  0  0
   23.8407   55.3576   89.4853 C   0  0  0  0  0  0  0  0  0  0  0  0
   28.4394   55.5908   89.7881 O   0  0  0  0  0  0  0  0  0  0  0  0
   26.0191   59.0826   84.6182 C   0  0  0  0  0  0  0  0  0  0  0  0
   28.9731   59.4747   88.0020 O   0  0  0  0  0  0  0  0  0  0  0  0
   24.9405   56.2329   89.8906 C   0  0  0  0  0  0  0  0  0  0  0  0
  1  2  1  0
  1  4  1  0
  1  7  1  0
  2 14  1  0
  3  7  1  0
  4  6  1  0
  4 13  1  0
  5  7  1  0
  5 14  1  0
  6  9  1  0
  7 11  1  0
  8  9  1  0
  8 12  1  0
 10 14  1  0
M  END
>  <ID>  (1) 
conformer_0

$$$$
