
     RDKit          3D

 21 22  0  0  0  0  0  0  0  0999 V2000
   25.6764   56.8624   87.5362 C   0  0  0  0  0  0  0  0  0  0  0  0
   27.1549   57.4415   87.3128 C   0  0  0  0  0  0  0  0  0  0  0  0
   21.4824   56.2797   86.5240 C   0  0  0  0  0  0  0  0  0  0  0  0
   24.0116   55.7954   88.8449 C   0  0  0  0  0  0  0  0  0  0  0  0
   24.8825   54.0447   91.2622 N   0  0  0  0  0  0  0  0  0  0  0  0
   27.8651   56.8089   92.1656 N   0  0  0  0  0  0  0  0  0  0  0  0
   23.1859   56.0951   87.8148 C   0  0  0  0  0  0  0  0  0  0  0  0
   23.1794   55.0273   89.8846 C   0  0  0  0  0  0  0  0  0  0  0  0
   28.0456   59.0990   88.9908 C   0  0  0  0  0  0  0  0  0  0  0  0
   21.8610   55.8652   87.7159 N   0  0  0  0  0  0  0  0  0  0  0  0
   23.6474   56.6861   86.6597 C   0  0  0  0  0  0  0  0  0  0  0  0
   28.7960   60.0822   88.1462 C   0  0  0  0  0  0  0  0  0  0  0  0
   27.9115   58.0852   86.2562 O   0  0  0  0  0  0  0  0  0  0  0  0
   22.5841   56.8082   85.8290 N   0  0  0  0  0  0  0  0  0  0  0  0
   23.6325   54.6852   91.1096 C   0  0  0  0  0  0  0  0  0  0  0  0
   25.2803   56.2395   88.6161 N   0  0  0  0  0  0  0  0  0  0  0  0
   28.0179   57.5749   88.6455 C   0  0  0  0  0  0  0  0  0  0  0  0
   27.8791   56.5045   89.7234 C   0  0  0  0  0  0  0  0  0  0  0  0
   27.0661   56.8422   90.9586 C   0  0  0  0  0  0  0  0  0  0  0  0
   24.8891   57.0711   86.4625 N   0  0  0  0  0  0  0  0  0  0  0  0
   28.7777   55.4669   90.0648 O   0  0  0  0  0  0  0  0  0  0  0  0
  1  2  1  0
  1 16  2  0
  1 20  1  0
  2 13  1  0
  2 17  1  0
  3 10  1  0
  3 14  1  0
  4  7  1  0
  4  8  2  3
  4 16  1  0
  5 15  1  0
  6 19  1  0
  7 10  1  0
  7 11  2  0
  8 15  1  0
  9 12  1  0
  9 17  1  0
 11 14  1  0
 11 20  1  0
 17 18  1  0
 18 19  1  0
 18 21  1  0
M  END
>  <ID>  (1) 
conformer_0

$$$$
