
     RDKit          3D

 20 21  0  0  0  0  0  0  0  0999 V2000
   28.8049   55.1364   90.0873 O   0  0  0  0  0  0  0  0  0  0  0  0
   23.1737   55.3271   89.5655 C   0  0  0  0  0  0  0  0  0  0  0  0
   28.3969   59.6618   88.1528 C   0  0  0  0  0  0  0  0  0  0  0  0
   26.8846   58.5070   86.5169 O   0  0  0  0  0  0  0  0  0  0  0  0
   24.8973   55.0691   91.7066 C   0  0  0  0  0  0  0  0  0  0  0  0
   22.7224   54.6763   90.7016 C   0  0  0  0  0  0  0  0  0  0  0  0
   26.7293   56.5634   90.2481 C   0  0  0  0  0  0  0  0  0  0  0  0
   25.3336   55.7759   90.5499 C   0  0  0  0  0  0  0  0  0  0  0  0
   28.7533   57.1315   87.4659 N   0  0  0  0  0  0  0  0  0  0  0  0
   28.3312   56.4796   89.9692 N   0  0  0  0  0  0  0  0  0  0  0  0
   27.0643   56.9447   91.7260 O   0  0  0  0  0  0  0  0  0  0  0  0
   27.4936   58.0875   87.7743 S   0  0  0  0  0  4  0  0  0  0  0  0
   24.9105   57.6915   84.9056 O   0  0  0  0  0  0  0  0  0  0  0  0
   24.2732   56.8565   85.8417 C   0  0  0  0  0  0  0  0  0  0  0  0
   25.0530   56.4929   88.3094 C   0  0  0  0  0  0  0  0  0  0  0  0
   24.5098   56.2851   87.0826 N   0  0  0  0  0  0  0  0  0  0  0  0
   22.8001   56.8723   85.4889 C   0  0  0  0  0  0  0  0  0  0  0  0
   26.3298   57.1796   88.7381 C   0  0  0  0  0  0  0  0  0  0  0  0
   23.6098   54.5206   91.7750 C   0  0  0  0  0  0  0  0  0  0  0  0
   24.4836   55.8423   89.4915 C   0  0  0  0  0  0  0  0  0  0  0  0
  1 10  1  0
  2  6  2  0
  2 20  1  0
  3 12  1  0
  4 12  1  0
  5  8  1  0
  5 19  2  0
  6 19  1  0
  7  8  1  0
  7 10  1  0
  7 11  1  0
  7 18  1  0
  8 20  2  0
  9 12  1  0
 12 18  1  0
 13 14  2  0
 14 16  1  0
 14 17  1  0
 15 16  1  0
 15 18  1  0
 15 20  1  0
M  END
>  <ID>  (1) 
conformer_0

$$$$
