
     RDKit          3D

 26 29  0  0  0  0  0  0  0  0999 V2000
   24.8445   56.9827   86.0211 C   0  0  0  0  0  0  0  0  0  0  0  0
   23.1429   55.2592   89.2918 N   0  0  0  0  0  0  0  0  0  0  0  0
   29.2233   57.8684   87.3758 N   0  0  0  0  0  0  0  0  0  0  0  0
   26.8553   56.8623   90.3182 C   0  0  0  0  0  0  0  0  0  0  0  0
   27.8912   58.4042   87.4624 C   0  0  0  0  0  0  0  0  0  0  0  0
   28.6676   58.2392   89.7887 N   0  0  0  0  0  0  0  0  0  0  0  0
   23.6378   55.0425   90.4956 C   0  0  0  0  0  0  0  0  0  0  0  0
   23.2212   54.1048   92.6812 C   0  0  0  0  0  0  0  0  0  0  0  0
   25.3596   55.0064   92.0994 C   0  0  0  0  0  0  0  0  0  0  0  0
   22.7841   54.4327   91.4257 C   0  0  0  0  0  0  0  0  0  0  0  0
   27.2759   57.0997   91.7047 O   0  0  0  0  0  0  0  0  0  0  0  0
   25.1605   56.2775   88.3686 C   0  0  0  0  0  0  0  0  0  0  0  0
   28.3465   56.7807   89.6021 C   0  0  0  0  0  0  0  0  0  0  0  0
   22.9837   56.1159   87.1927 C   0  0  0  0  0  0  0  0  0  0  0  0
   27.5274   58.9388   88.9019 C   0  0  0  0  0  0  0  0  0  0  0  0
   25.7590   56.0018   89.7253 C   0  0  0  0  0  0  0  0  0  0  0  0
   25.6864   56.9079   87.1015 C   0  0  0  0  0  0  0  0  0  0  0  0
   23.5001   56.6702   86.0302 C   0  0  0  0  0  0  0  0  0  0  0  0
   23.8120   55.8877   88.2928 C   0  0  0  0  0  0  0  0  0  0  0  0
   27.8040   59.5730   86.6403 O   0  0  0  0  0  0  0  0  0  0  0  0
   24.9654   55.3831   90.7919 C   0  0  0  0  0  0  0  0  0  0  0  0
   22.6684   56.9044   85.0013 O   0  0  0  0  0  0  0  0  0  0  0  0
   28.7865   55.4401   89.8833 O   0  0  0  0  0  0  0  0  0  0  0  0
   26.9478   57.3745   86.9516 O   0  0  0  0  0  0  0  0  0  0  0  0
   21.6747   55.7963   87.2958 O   0  0  0  0  0  0  0  0  0  0  0  0
   24.5232   54.3769   93.0140 C   0  0  0  0  0  0  0  0  0  0  0  0
  1 17  2  0
  1 18  1  0
  2  7  2  0
  2 19  1  0
  3  5  1  0
  4 11  1  0
  4 13  1  0
  4 16  1  0
  5 15  1  0
  5 20  1  0
  5 24  1  0
  6 13  1  0
  6 15  1  0
  7 10  1  0
  7 21  1  0
  8 10  2  0
  8 26  1  0
  9 21  1  0
  9 26  2  0
 12 16  1  0
 12 17  1  0
 12 19  2  0
 13 23  1  0
 14 18  2  0
 14 19  1  0
 14 25  1  0
 16 21  1  0
 17 24  1  0
 18 22  1  0
M  END
>  <ID>  (1) 
conformer_0

$$$$
