
     RDKit          3D

 25 27  0  0  0  0  0  0  0  0999 V2000
   25.0200   56.7611   86.7608 N   0  0  0  0  0  0  0  0  0  0  0  0
   28.2835   59.4292   88.4409 C   0  0  0  0  0  0  0  0  0  0  0  0
   22.9261   56.0881   88.4459 C   0  0  0  0  0  0  0  0  0  0  0  0
   24.3608   55.4148   90.5617 C   0  0  0  0  0  0  0  0  0  0  0  0
   24.2251   54.1991   92.5954 C   0  0  0  0  0  0  0  0  0  0  0  0
   23.4387   57.3246   84.9754 C   0  0  0  0  0  0  0  0  0  0  0  0
   24.0674   55.3067   89.0605 C   0  0  0  0  0  0  0  0  0  0  0  0
   29.1236   60.6546   88.3605 C   0  0  0  0  0  0  0  0  0  0  0  0
   25.8525   55.6066   90.9419 C   0  0  0  0  0  0  0  0  0  0  0  0
   25.8784   59.7149   83.7855 C   0  0  0  0  0  0  0  0  0  0  0  0
   29.6758   58.1335   87.0383 O   0  0  0  0  0  0  0  0  0  0  0  0
   27.6813   57.0433   89.1935 C   0  0  0  0  0  0  0  0  0  0  0  0
   22.7062   56.0143   86.9337 C   0  0  0  0  0  0  0  0  0  0  0  0
   24.0894   54.0592   91.1965 O   0  0  0  0  0  0  0  0  0  0  0  0
   25.3336   58.6639   84.6021 C   0  0  0  0  0  0  0  0  0  0  0  0
   27.7437   57.0040   91.7687 O   0  0  0  0  0  0  0  0  0  0  0  0
   28.3333   58.5479   87.1526 C   0  0  0  0  0  0  0  0  0  0  0  0
   26.1758   57.4089   86.6261 C   0  0  0  0  0  0  0  0  0  0  0  0
   23.8223   56.7659   86.1928 C   0  0  0  0  0  0  0  0  0  0  0  0
   28.3944   58.3926   89.5572 N   0  0  0  0  0  0  0  0  0  0  0  0
   27.4317   57.3053   87.5793 C   0  0  0  0  0  0  0  0  0  0  0  0
   26.1151   58.2152   85.5565 C   0  0  0  0  0  0  0  0  0  0  0  0
   28.4616   55.7766   89.2423 O   0  0  0  0  0  0  0  0  0  0  0  0
   24.0539   58.2016   84.2109 N   0  0  0  0  0  0  0  0  0  0  0  0
   26.7461   56.8634   90.6004 C   0  0  0  0  0  0  0  0  0  0  0  0
  1 18  2  0
  1 19  1  0
  2  8  1  0
  2 17  1  0
  2 20  1  0
  3  7  2  0
  3 13  1  0
  4  7  1  0
  4  9  1  0
  4 14  1  0
  5 14  1  0
  6 19  1  0
  6 24  2  0
  9 25  1  0
 10 15  1  0
 11 17  1  0
 12 20  1  0
 12 21  1  0
 12 23  1  0
 12 25  1  0
 13 19  1  0
 15 22  2  0
 15 24  1  0
 16 25  1  0
 17 21  1  0
 18 21  1  0
 18 22  1  0
M  END
>  <ID>  (1) 
conformer_0

$$$$
