
     RDKit          3D

 22 23  0  0  0  0  0  0  0  0999 V2000
   29.3346   58.4914   87.4314 O   0  0  0  0  0  0  0  0  0  0  0  0
   26.7942   57.9012   84.5676 C   0  0  0  0  0  0  0  0  0  0  0  0
   26.7004   56.2723   91.4207 C   0  0  0  0  0  0  0  0  0  0  0  0
   27.0325   56.8663   92.5703 O   0  0  0  0  0  0  0  0  0  0  0  0
   26.8828   58.4361   85.9700 C   0  0  0  0  0  0  0  0  0  0  0  0
   26.2082   57.4144   86.8261 C   0  0  0  0  0  0  0  0  0  0  0  0
   26.7918   57.0197   88.1158 C   0  0  0  0  0  0  0  0  0  0  0  0
   25.6993   55.4410   91.0918 O   0  0  0  0  0  0  0  0  0  0  0  0
   27.8912   56.3465   90.4281 C   0  0  0  0  0  0  0  0  0  0  0  0
   22.6822   56.5807   86.4296 C   0  0  0  0  0  0  0  0  0  0  0  0
   27.3789   58.2317   88.8772 C   0  0  0  0  0  0  0  0  0  0  0  0
   25.1512   56.7729   86.0260 C   0  0  0  0  0  0  0  0  0  0  0  0
   28.6758   55.3109   90.0338 O   0  0  0  0  0  0  0  0  0  0  0  0
   23.0972   55.6267   89.0132 C   0  0  0  0  0  0  0  0  0  0  0  0
   25.5854   57.0239   84.7230 N   0  0  0  0  0  0  0  0  0  0  0  0
   21.5937   56.2175   87.2490 C   0  0  0  0  0  0  0  0  0  0  0  0
   21.8094   55.7467   88.5459 C   0  0  0  0  0  0  0  0  0  0  0  0
   28.4355   59.1840   88.1679 C   0  0  0  0  0  0  0  0  0  0  0  0
   23.9973   56.4163   86.8929 C   0  0  0  0  0  0  0  0  0  0  0  0
   24.1588   55.9281   88.1789 C   0  0  0  0  0  0  0  0  0  0  0  0
   28.8831   60.1161   89.1760 N   0  0  0  0  0  0  0  0  0  0  0  0
   28.1537   57.7119   90.1086 N   0  0  0  0  0  0  0  0  0  0  0  0
  1 18  1  0
  2  5  1  0
  2 15  1  0
  3  4  2  0
  3  8  1  0
  3  9  1  0
  5  6  1  0
  6  7  1  0
  6 12  1  0
  7 11  1  0
  9 13  2  0
  9 22  1  0
 10 16  2  0
 10 19  1  0
 11 18  1  0
 11 22  1  0
 12 15  1  0
 12 19  1  0
 14 17  2  0
 14 20  1  0
 16 17  1  0
 18 21  1  0
 19 20  2  0
M  END
>  <ID>  (1) 
conformer_0

$$$$
