
     RDKit          3D

 12 11  0  0  0  0  0  0  0  0999 V2000
   26.6963   56.1815   92.5237 O   0  0  0  0  0  0  0  0  0  0  0  0
   27.6571   57.3530   88.4622 C   0  0  0  0  0  0  0  0  0  0  0  0
   23.5204   56.2050   86.8285 C   0  0  0  0  0  0  0  0  0  0  0  0
   27.1848   56.5021   91.0817 N   0  0  0  0  0  0  0  0  0  0  0  0
   25.1502   56.6228   88.8510 C   0  0  0  0  0  0  0  0  0  0  0  0
   28.4821   56.3236   88.6748 O   0  0  0  0  0  0  0  0  0  0  0  0
   23.7014   56.3476   88.3777 C   0  0  0  0  0  0  0  0  0  0  0  0
   29.4574   58.6281   87.4335 N   0  0  0  0  0  0  0  0  0  0  0  0
   25.8558   56.4130   90.2505 C   0  0  0  0  0  0  0  0  0  0  0  0
   28.2401   58.7365   88.2298 C   0  0  0  0  0  0  0  0  0  0  0  0
   26.2329   57.2449   87.9029 C   0  0  0  0  0  0  0  0  0  0  0  0
   22.1215   56.6566   86.4256 C   0  0  0  0  0  0  0  0  0  0  0  0
  1  4  1  0
  2  6  1  0
  2 10  1  0
  2 11  1  0
  3  7  1  0
  3 12  1  0
  4  9  1  0
  5  7  1  0
  5  9  1  0
  5 11  2  3
  8 10  1  0
M  END
>  <ID>  (1) 
conformer_0

$$$$
