
     RDKit          3D

 20 22  0  0  0  0  0  0  0  0999 V2000
   27.8528   57.0164   91.7932 O   0  0  0  0  0  0  0  0  0  0  0  0
   22.3461   56.6101   85.5185 C   0  0  0  0  0  0  0  0  0  0  0  0
   25.5951   57.2796   87.2222 C   0  0  0  0  0  0  0  0  0  0  0  0
   26.1721   55.8597   90.7085 C   0  0  0  0  0  0  0  0  0  0  0  0
   22.1310   56.0270   87.8333 C   0  0  0  0  0  0  0  0  0  0  0  0
   21.5411   56.1756   86.6085 C   0  0  0  0  0  0  0  0  0  0  0  0
   24.2925   56.8318   86.9567 C   0  0  0  0  0  0  0  0  0  0  0  0
   27.6134   56.2619   90.7429 C   0  0  0  0  0  0  0  0  0  0  0  0
   25.5001   56.3175   89.4780 C   0  0  0  0  0  0  0  0  0  0  0  0
   26.1818   57.0932   88.5120 C   0  0  0  0  0  0  0  0  0  0  0  0
   25.8766   55.1601   91.9519 C   0  0  0  0  0  0  0  0  0  0  0  0
   27.6690   58.3929   87.1479 C   0  0  0  0  0  0  0  0  0  0  0  0
   28.8769   59.0608   86.7080 C   0  0  0  0  0  0  0  0  0  0  0  0
   23.5257   56.2839   88.0195 C   0  0  0  0  0  0  0  0  0  0  0  0
   23.6790   56.9146   85.7109 C   0  0  0  0  0  0  0  0  0  0  0  0
   26.4970   58.0134   86.3674 C   0  0  0  0  0  0  0  0  0  0  0  0
   28.4675   58.4907   89.3602 O   0  0  0  0  0  0  0  0  0  0  0  0
   27.4642   57.9288   88.4583 C   0  0  0  0  0  0  0  0  0  0  0  0
   24.1473   55.9940   89.2484 C   0  0  0  0  0  0  0  0  0  0  0  0
   28.5352   55.5496   90.0063 O   0  0  0  0  0  0  0  0  0  0  0  0
  1  8  2  0
  2  6  1  0
  2 15  2  0
  3  7  2  0
  3 10  1  0
  3 16  1  0
  4  8  1  0
  4  9  2  3
  4 11  1  0
  5  6  2  0
  5 14  1  0
  7 14  1  0
  7 15  1  0
  8 20  1  0
  9 10  1  0
  9 19  1  0
 10 18  1  0
 12 13  1  0
 12 16  1  0
 12 18  2  0
 14 19  2  0
 17 18  1  0
M  END
>  <ID>  (1) 
conformer_0

$$$$
