
     RDKit          3D

 30 33  0  0  0  0  0  0  0  0999 V2000
   24.7409   57.1901   85.0524 C   0  0  0  0  0  0  0  0  0  0  0  0
   23.9599   54.5442   89.8603 C   0  0  0  0  0  0  0  0  0  0  0  0
   23.8445   54.5320   91.3110 C   0  0  0  0  0  0  0  0  0  0  0  0
   27.1174   56.7486   92.3401 O   0  0  0  0  0  0  0  0  0  0  0  0
   22.4467   56.9625   86.1167 N   0  0  0  0  0  0  0  0  0  0  0  0
   24.1108   56.4369   87.4275 C   0  0  0  0  0  0  0  0  0  0  0  0
   25.0739   54.8488   93.5486 C   0  0  0  0  0  0  0  0  0  0  0  0
   26.9819   59.3036   85.4911 C   0  0  0  0  0  0  0  0  0  0  0  0
   23.8047   56.9027   86.1655 C   0  0  0  0  0  0  0  0  0  0  0  0
   26.5870   56.5048   88.7130 C   0  0  0  0  0  0  0  0  0  0  0  0
   28.3101   56.1052   90.4501 C   0  0  0  0  0  0  0  0  0  0  0  0
   22.4991   54.2576   91.8591 C   0  0  0  0  0  0  0  0  0  0  0  0
   26.8159   60.6175   84.9571 O   0  0  0  0  0  0  0  0  0  0  0  0
   27.3356   57.8324   88.8378 C   0  0  0  0  0  0  0  0  0  0  0  0
   25.7166   58.4496   85.1376 C   0  0  0  0  0  0  0  0  0  0  0  0
   22.7839   55.0936   89.2141 C   0  0  0  0  0  0  0  0  0  0  0  0
   28.1013   59.2241   86.5187 C   0  0  0  0  0  0  0  0  0  0  0  0
   21.8808   56.4261   87.3041 N   0  0  0  0  0  0  0  0  0  0  0  0
   28.0926   58.0334   87.4629 C   0  0  0  0  0  0  0  0  0  0  0  0
   23.5494   52.9798   94.0252 C   0  0  0  0  0  0  0  0  0  0  0  0
   26.1860   54.8342   91.2906 N   0  0  0  0  0  0  0  0  0  0  0  0
   28.7993   60.4367   87.3774 C   0  0  0  0  0  0  0  0  0  0  0  0
   25.0576   54.4630   92.1022 C   0  0  0  0  0  0  0  0  0  0  0  0
   24.6055   53.9112   94.6811 C   0  0  0  0  0  0  0  0  0  0  0  0
   22.9136   55.9800   88.0647 C   0  0  0  0  0  0  0  0  0  0  0  0
   28.9900   56.9366   87.3191 O   0  0  0  0  0  0  0  0  0  0  0  0
   22.4625   53.9052   93.3777 C   0  0  0  0  0  0  0  0  0  0  0  0
   27.0957   55.9554   91.3106 C   0  0  0  0  0  0  0  0  0  0  0  0
   25.3274   56.5338   88.1135 C   0  0  0  0  0  0  0  0  0  0  0  0
   28.3561   57.5174   89.9401 N   0  0  0  0  0  0  0  0  0  0  0  0
  1  9  1  0
  1 15  2  0
  2  3  1  0
  2 16  1  0
  3 12  2  0
  3 23  1  0
  4 28  2  0
  5  9  1  0
  5 18  1  0
  6  9  1  0
  6 25  1  0
  6 29  2  0
  7 23  1  0
  7 24  1  0
  8 13  1  0
  8 15  2  0
  8 17  1  0
 10 14  1  0
 10 29  2  0
 11 28  1  0
 11 30  1  0
 12 27  1  0
 14 19  1  0
 14 30  1  0
 16 25  2  0
 17 19  1  0
 17 22  1  0
 18 25  1  0
 19 26  1  0
 20 24  1  0
 20 27  1  0
 21 23  1  0
 21 28  1  0
M  END
>  <ID>  (1) 
conformer_0

$$$$
