
     RDKit          3D

 21 22  0  0  0  0  0  0  0  0999 V2000
   25.7544   55.2736   91.7752 C   0  0  0  0  0  0  0  0  0  0  0  0
   22.7709   55.0771   89.8751 C   0  0  0  0  0  0  0  0  0  0  0  0
   25.9704   54.8579   92.9770 O   0  0  0  0  0  0  0  0  0  0  0  0
   29.1449   56.7374   87.4006 O   0  0  0  0  0  0  0  0  0  0  0  0
   24.8203   56.3065   89.3155 C   0  0  0  0  0  0  0  0  0  0  0  0
   22.1238   55.6351   88.8168 C   0  0  0  0  0  0  0  0  0  0  0  0
   24.8270   54.6194   91.0095 N   0  0  0  0  0  0  0  0  0  0  0  0
   27.3833   58.5355   87.5682 C   0  0  0  0  0  0  0  0  0  0  0  0
   27.5995   56.8911   91.8636 O   0  0  0  0  0  0  0  0  0  0  0  0
   22.8431   56.4378   87.9056 C   0  0  0  0  0  0  0  0  0  0  0  0
   24.1580   56.7737   88.1715 C   0  0  0  0  0  0  0  0  0  0  0  0
   28.4698   59.7126   85.6344 C   0  0  0  0  0  0  0  0  0  0  0  0
   26.3144   56.5638   91.2976 C   0  0  0  0  0  0  0  0  0  0  0  0
   27.7939   57.0127   87.7215 C   0  0  0  0  0  0  0  0  0  0  0  0
   27.5622   56.5615   89.1481 C   0  0  0  0  0  0  0  0  0  0  0  0
   28.4049   60.8924   86.4498 O   0  0  0  0  0  0  0  0  0  0  0  0
   26.2041   56.7579   89.8002 C   0  0  0  0  0  0  0  0  0  0  0  0
   28.8010   58.8577   89.5797 O   0  0  0  0  0  0  0  0  0  0  0  0
   24.1470   55.3710   90.0658 C   0  0  0  0  0  0  0  0  0  0  0  0
   27.3153   58.8137   86.0005 C   0  0  0  0  0  0  0  0  0  0  0  0
   27.4821   59.1531   89.0322 C   0  0  0  0  0  0  0  0  0  0  0  0
  1  3  2  0
  1  7  1  0
  1 13  1  0
  2  6  2  0
  2 19  1  0
  4 14  1  0
  5 11  2  0
  5 17  1  0
  5 19  1  0
  6 10  1  0
  7 19  1  0
  8 14  1  0
  8 20  1  0
  8 21  1  0
  9 13  1  0
 10 11  1  0
 12 16  1  0
 12 20  1  0
 13 17  1  0
 14 15  1  0
 15 17  1  0
 18 21  1  0
M  END
>  <ID>  (1) 
conformer_0

$$$$
