
     RDKit          3D

 21 23  0  0  0  0  0  0  0  0999 V2000
   27.4520   58.0535   86.0715 C   0  0  0  0  0  0  0  0  0  0  0  0
   22.7259   54.1267   92.6539 C   0  0  0  0  0  0  0  0  0  0  0  0
   23.6439   55.6064   87.9593 C   0  0  0  0  0  0  0  0  0  0  0  0
   25.8403   56.5359   88.5495 C   0  0  0  0  0  0  0  0  0  0  0  0
   27.5273   58.4414   88.7858 C   0  0  0  0  0  0  0  0  0  0  0  0
   23.2331   54.7330   90.3840 N   0  0  0  0  0  0  0  0  0  0  0  0
   28.3558   58.0805   87.4219 C   0  0  0  0  0  0  0  0  0  0  0  0
   29.0281   56.8134   87.6075 O   0  0  0  0  0  0  0  0  0  0  0  0
   29.3154   59.2061   87.2015 N   0  0  0  0  0  0  0  0  0  0  0  0
   24.7373   56.4263   87.5182 N   0  0  0  0  0  0  0  0  0  0  0  0
   28.3368   56.8670   90.4095 O   0  0  0  0  0  0  0  0  0  0  0  0
   23.7383   54.7730   91.7208 C   0  0  0  0  0  0  0  0  0  0  0  0
   25.2041   55.8794   89.7181 C   0  0  0  0  0  0  0  0  0  0  0  0
   27.1449   57.1116   89.5274 C   0  0  0  0  0  0  0  0  0  0  0  0
   23.9541   55.3243   89.3596 C   0  0  0  0  0  0  0  0  0  0  0  0
   22.2070   55.9819   87.7654 C   0  0  0  0  0  0  0  0  0  0  0  0
   25.8610   57.8507   85.7552 C   0  0  0  0  0  0  0  0  0  0  0  0
   24.8557   56.7128   86.0838 C   0  0  0  0  0  0  0  0  0  0  0  0
   26.2063   55.1104   91.8906 C   0  0  0  0  0  0  0  0  0  0  0  0
   25.0044   54.4550   92.3732 C   0  0  0  0  0  0  0  0  0  0  0  0
   26.0400   56.2339   90.8812 C   0  0  0  0  0  0  0  0  0  0  0  0
  1  7  1  0
  1 17  1  0
  2 12  1  0
  3 10  1  0
  3 15  1  0
  3 16  1  0
  4 10  1  0
  4 13  2  0
  4 14  1  0
  5  7  1  0
  5 14  1  0
  6 12  1  0
  6 15  2  0
  7  8  1  0
  7  9  1  0
 10 18  1  0
 11 14  1  0
 12 20  1  0
 13 15  1  0
 13 21  1  0
 17 18  1  0
 19 20  2  0
 19 21  1  0
M  END
>  <ID>  (1) 
conformer_0

$$$$
