
     RDKit          3D

 27 30  0  0  0  0  0  0  0  0999 V2000
   27.5811   56.9208   92.1482 O   0  0  0  0  0  0  0  0  0  0  0  0
   27.4696   57.3511   88.0370 C   0  0  0  0  0  0  0  0  0  0  0  0
   25.2545   55.3470   91.9033 C   0  0  0  0  0  0  0  0  0  0  0  0
   23.1081   56.1825   85.9498 C   0  0  0  0  0  0  0  0  0  0  0  0
   25.4293   55.9715   89.5652 C   0  0  0  0  0  0  0  0  0  0  0  0
   26.2468   55.5171   90.7458 C   0  0  0  0  0  0  0  0  0  0  0  0
   24.0444   55.4466   89.5079 C   0  0  0  0  0  0  0  0  0  0  0  0
   23.4112   55.5401   88.1757 C   0  0  0  0  0  0  0  0  0  0  0  0
   23.9579   54.7085   91.7936 O   0  0  0  0  0  0  0  0  0  0  0  0
   24.1195   56.1636   87.0239 N   0  0  0  0  0  0  0  0  0  0  0  0
   28.6276   58.5748   89.7915 O   0  0  0  0  0  0  0  0  0  0  0  0
   27.4689   57.5924   89.6321 C   0  0  0  0  0  0  0  0  0  0  0  0
   25.2837   56.9144   86.4001 C   0  0  0  0  0  0  0  0  0  0  0  0
   21.8515   56.4169   86.6754 C   0  0  0  0  0  0  0  0  0  0  0  0
   26.3250   56.6336   88.5977 O   0  0  0  0  0  0  0  0  0  0  0  0
   27.5744   56.4439   90.7985 C   0  0  0  0  0  0  0  0  0  0  0  0
   20.5954   54.3819   89.6657 C   0  0  0  0  0  0  0  0  0  0  0  0
   25.2188   57.0900   85.0698 O   0  0  0  0  0  0  0  0  0  0  0  0
   28.0419   59.4367   86.5719 O   0  0  0  0  0  0  0  0  0  0  0  0
   22.0401   55.8375   87.9739 N   0  0  0  0  0  0  0  0  0  0  0  0
   26.3413   57.8446   85.7892 C   0  0  0  0  0  0  0  0  0  0  0  0
   27.1466   58.4683   86.9751 C   0  0  0  0  0  0  0  0  0  0  0  0
   28.7601   56.8471   87.6741 O   0  0  0  0  0  0  0  0  0  0  0  0
   23.2333   54.9248   90.6059 C   0  0  0  0  0  0  0  0  0  0  0  0
   21.9440   54.1877   90.3926 C   0  0  0  0  0  0  0  0  0  0  0  0
   21.8466   53.1012   91.1180 O   0  0  0  0  0  0  0  0  0  0  0  0
   28.6950   55.5714   90.4377 O   0  0  0  0  0  0  0  0  0  0  0  0
  1 16  1  0
  2 12  1  0
  2 15  1  0
  2 22  1  0
  2 23  1  0
  3  6  1  0
  3  9  1  0
  4 10  1  0
  4 14  1  0
  5  6  1  0
  5  7  1  0
  5 15  1  0
  6 16  1  0
  7  8  1  0
  7 24  1  0
  8 10  1  0
  8 20  2  0
  9 24  1  0
 10 13  1  0
 11 12  1  0
 12 16  1  0
 13 18  2  0
 13 21  1  0
 14 20  1  0
 16 27  1  0
 17 25  1  0
 19 22  1  0
 21 22  1  0
 24 25  1  0
 25 26  1  0
M  END
>  <ID>  (1) 
conformer_0

$$$$
