
     RDKit          3D

 18 18  0  0  0  0  0  0  0  0999 V2000
   23.7549   54.5053   90.4001 C   0  0  0  0  0  0  0  0  0  0  0  0
   27.6877   60.4005   85.7066 C   0  0  0  0  0  0  0  0  0  0  0  0
   26.2878   58.3505   85.8206 O   0  0  0  0  0  0  0  0  0  0  0  0
   28.3955   58.0838   90.0286 N   0  0  0  0  0  0  0  0  0  0  0  0
   27.4177   59.0158   86.0984 C   0  0  0  0  0  0  0  0  0  0  0  0
   27.6989   57.1688   87.9063 C   0  0  0  0  0  0  0  0  0  0  0  0
   29.5950   58.8094   87.0185 O   0  0  0  0  0  0  0  0  0  0  0  0
   26.2224   55.8107   91.3285 C   0  0  0  0  0  0  0  0  0  0  0  0
   28.2206   58.5046   87.3238 C   0  0  0  0  0  0  0  0  0  0  0  0
   26.2761   56.6339   89.9830 C   0  0  0  0  0  0  0  0  0  0  0  0
   25.5151   55.8824   88.9459 O   0  0  0  0  0  0  0  0  0  0  0  0
   27.1486   56.4532   92.2861 O   0  0  0  0  0  0  0  0  0  0  0  0
   22.9142   55.7550   88.2496 C   0  0  0  0  0  0  0  0  0  0  0  0
   22.5540   55.0916   89.5946 C   0  0  0  0  0  0  0  0  0  0  0  0
   24.3183   56.3266   88.2236 C   0  0  0  0  0  0  0  0  0  0  0  0
   27.8036   56.8745   89.4473 C   0  0  0  0  0  0  0  0  0  0  0  0
   24.7707   55.1991   91.4468 C   0  0  0  0  0  0  0  0  0  0  0  0
   28.5346   55.6450   89.7775 O   0  0  0  0  0  0  0  0  0  0  0  0
  1 14  1  0
  1 17  1  0
  2  5  1  0
  3  5  1  0
  4 16  1  0
  5  9  1  0
  6  9  1  0
  6 16  1  0
  7  9  1  0
  8 10  1  0
  8 12  1  0
  8 17  1  0
 10 11  1  0
 10 16  1  0
 11 15  1  0
 13 14  1  0
 13 15  1  0
 16 18  1  0
M  END
>  <ID>  (1) 
conformer_0

$$$$
