
     RDKit          3D

 16 17  0  0  0  0  0  0  0  0999 V2000
   24.0896   55.4590   89.4861 C   0  0  0  0  0  0  0  0  0  0  0  0
   28.5191   55.7932   89.7239 O   0  0  0  0  0  0  0  0  0  0  0  0
   25.4381   56.1573   89.4243 C   0  0  0  0  0  0  0  0  0  0  0  0
   27.2911   57.2826   87.9968 C   0  0  0  0  0  0  0  0  0  0  0  0
   28.6003   58.1884   89.8753 O   0  0  0  0  0  0  0  0  0  0  0  0
   28.9112   58.6526   86.8669 N   0  0  0  0  0  0  0  0  0  0  0  0
   25.2376   56.7624   86.5843 C   0  0  0  0  0  0  0  0  0  0  0  0
   27.3876   58.1461   86.5694 C   0  0  0  0  0  0  0  0  0  0  0  0
   26.4383   57.2024   85.6233 C   0  0  0  0  0  0  0  0  0  0  0  0
   25.8769   56.6139   88.0215 C   0  0  0  0  0  0  0  0  0  0  0  0
   25.2313   55.2421   91.6585 C   0  0  0  0  0  0  0  0  0  0  0  0
   25.9407   56.3688   90.8698 C   0  0  0  0  0  0  0  0  0  0  0  0
   23.8916   55.0116   90.9490 C   0  0  0  0  0  0  0  0  0  0  0  0
   28.1318   57.0471   89.3302 C   0  0  0  0  0  0  0  0  0  0  0  0
   27.1050   59.5620   85.6397 C   0  0  0  0  0  0  0  0  0  0  0  0
   27.0196   56.9338   91.8333 N   0  0  0  0  0  0  0  0  0  0  0  0
  1  3  1  0
  1 13  1  0
  2 14  2  0
  3 10  1  0
  3 12  1  0
  4  8  1  0
  4 10  2  0
  4 14  1  0
  5 14  1  0
  6  8  1  0
  7  9  1  0
  7 10  1  0
  8  9  1  0
  8 15  1  0
 11 12  1  0
 11 13  1  0
 12 16  1  0
M  END
>  <ID>  (1) 
conformer_0

$$$$
