
     RDKit          3D

 40 47  0  0  0  0  0  0  0  0999 V2000
   22.7733   54.3812   91.4381 C   0  0  0  0  0  0  0  0  0  0  0  0
   22.8926   57.8876   83.9795 C   0  0  0  0  0  0  0  0  0  0  0  0
   23.8775   53.9574   93.4973 C   0  0  0  0  0  0  0  0  0  0  0  0
   21.5725   57.5320   84.8836 N   0  0  0  0  0  0  0  0  0  0  0  0
   25.0187   54.5866   92.9894 C   0  0  0  0  0  0  0  0  0  0  0  0
   27.8701   56.8941   91.8870 O   0  0  0  0  0  0  0  0  0  0  0  0
   29.2370   59.5380   87.7545 C   0  0  0  0  0  0  0  0  0  0  0  0
   23.6185   56.8609   84.9772 C   0  0  0  0  0  0  0  0  0  0  0  0
   22.7728   53.8700   92.7149 C   0  0  0  0  0  0  0  0  0  0  0  0
   26.0893   60.3316   82.9157 C   0  0  0  0  0  0  0  0  0  0  0  0
   25.1190   61.3590   82.5640 C   0  0  0  0  0  0  0  0  0  0  0  0
   28.6442   60.7749   85.7103 N   0  0  0  0  0  0  0  0  0  0  0  0
   26.0607   55.7230   91.1913 O   0  0  0  0  0  0  0  0  0  0  0  0
   27.7969   61.5001   84.7794 C   0  0  0  0  0  0  0  0  0  0  0  0
   22.0937   56.0548   86.7862 C   0  0  0  0  0  0  0  0  0  0  0  0
   26.4359   56.4743   88.5179 C   0  0  0  0  0  0  0  0  0  0  0  0
   27.1838   56.2199   90.8985 C   0  0  0  0  0  0  0  0  0  0  0  0
   21.0802   55.6940   87.5691 N   0  0  0  0  0  0  0  0  0  0  0  0
   28.8132   60.8282   87.0794 C   0  0  0  0  0  0  0  0  0  0  0  0
   28.7665   61.8959   87.7263 O   0  0  0  0  0  0  0  0  0  0  0  0
   22.2399   56.3838   85.4026 C   0  0  0  0  0  0  0  0  0  0  0  0
   24.9863   55.1103   91.7431 C   0  0  0  0  0  0  0  0  0  0  0  0
   24.0460   55.5138   89.6345 N   0  0  0  0  0  0  0  0  0  0  0  0
   27.5408   56.5831   89.4454 C   0  0  0  0  0  0  0  0  0  0  0  0
   27.2370   60.5843   83.7274 N   0  0  0  0  0  0  0  0  0  0  0  0
   24.4578   56.2392   87.3818 C   0  0  0  0  0  0  0  0  0  0  0  0
   28.9325   58.5593   90.2075 F   0  0  0  0  0  0  0  0  0  0  0  0
   25.0605   56.0326   88.7195 C   0  0  0  0  0  0  0  0  0  0  0  0
   27.9789   58.6203   88.0278 C   0  0  0  0  0  0  0  0  0  0  0  0
   23.8863   55.0239   90.9349 C   0  0  0  0  0  0  0  0  0  0  0  0
   27.8554   58.1135   89.4450 C   0  0  0  0  0  0  0  0  0  0  0  0
   28.5763   55.7513   88.9529 O   0  0  0  0  0  0  0  0  0  0  0  0
   27.7858   59.2534   83.9831 C   0  0  0  0  0  0  0  0  0  0  0  0
   28.7301   59.3751   85.1462 C   0  0  0  0  0  0  0  0  0  0  0  0
   21.5811   55.2951   88.8762 C   0  0  0  0  0  0  0  0  0  0  0  0
   22.9018   55.5041   88.8706 C   0  0  0  0  0  0  0  0  0  0  0  0
   26.6955   58.2749   83.7473 C   0  0  0  0  0  0  0  0  0  0  0  0
   25.6963   58.9940   83.0529 O   0  0  0  0  0  0  0  0  0  0  0  0
   24.7393   56.7430   85.9816 C   0  0  0  0  0  0  0  0  0  0  0  0
   23.1598   55.9479   87.5740 N   0  0  0  0  0  0  0  0  0  0  0  0
  1  9  2  0
  1 30  1  0
  2  4  1  0
  2  8  1  0
  3  5  2  0
  3  9  1  0
  4 21  1  0
  5 22  1  0
  6 17  2  0
  7 19  1  0
  7 29  1  0
  8 21  1  0
  8 39  1  0
 10 11  1  0
 10 25  1  0
 10 38  1  0
 12 14  1  0
 12 19  1  0
 12 34  1  0
 13 17  1  0
 13 22  1  0
 14 25  1  0
 15 18  2  0
 15 21  1  0
 15 40  1  0
 16 24  1  0
 16 28  1  0
 17 24  1  0
 18 35  1  0
 19 20  2  0
 22 30  2  0
 23 28  1  0
 23 30  1  0
 23 36  1  0
 24 31  1  0
 24 32  1  0
 25 33  1  0
 26 28  2  0
 26 39  1  0
 26 40  1  0
 27 31  1  0
 29 31  1  0
 33 34  1  0
 33 37  1  0
 35 36  1  0
 36 40  1  0
 37 38  1  0
M  END
>  <ID>  (1) 
conformer_0

$$$$
