
     RDKit          3D

 21 23  0  0  0  0  0  0  0  0999 V2000
   26.6469   57.2856   88.1596 C   0  0  0  0  0  0  0  0  0  0  0  0
   28.7136   59.6302   86.9572 C   0  0  0  0  0  0  0  0  0  0  0  0
   26.0114   56.1564   90.0601 C   0  0  0  0  0  0  0  0  0  0  0  0
   25.3308   55.5355   91.1501 C   0  0  0  0  0  0  0  0  0  0  0  0
   23.1483   55.8193   88.9618 N   0  0  0  0  0  0  0  0  0  0  0  0
   24.2459   56.1235   88.1615 C   0  0  0  0  0  0  0  0  0  0  0  0
   22.7160   56.8912   86.3146 O   0  0  0  0  0  0  0  0  0  0  0  0
   25.9181   57.3679   85.6079 C   0  0  0  0  0  0  0  0  0  0  0  0
   23.8258   56.1746   86.7556 C   0  0  0  0  0  0  0  0  0  0  0  0
   24.0691   55.0419   91.2939 N   0  0  0  0  0  0  0  0  0  0  0  0
   29.7063   58.5991   87.2864 N   0  0  0  0  0  0  0  0  0  0  0  0
   25.0502   54.5783   93.1803 C   0  0  0  0  0  0  0  0  0  0  0  0
   27.7675   57.2540   89.0393 N   0  0  0  0  0  0  0  0  0  0  0  0
   25.9430   55.2789   92.3338 N   0  0  0  0  0  0  0  0  0  0  0  0
   25.5743   56.5491   88.7404 C   0  0  0  0  0  0  0  0  0  0  0  0
   28.3198   56.1246   91.0059 O   0  0  0  0  0  0  0  0  0  0  0  0
   23.8955   54.4258   92.5162 C   0  0  0  0  0  0  0  0  0  0  0  0
   26.7114   58.0159   86.8399 C   0  0  0  0  0  0  0  0  0  0  0  0
   24.8879   56.0944   85.6851 C   0  0  0  0  0  0  0  0  0  0  0  0
   27.5377   59.1371   86.2298 C   0  0  0  0  0  0  0  0  0  0  0  0
   27.4124   56.5330   90.1467 C   0  0  0  0  0  0  0  0  0  0  0  0
  1 13  1  0
  1 15  2  0
  1 18  1  0
  2 11  1  0
  2 20  1  0
  3  4  2  3
  3 15  1  0
  3 21  1  0
  4 10  1  0
  4 14  1  0
  5  6  1  0
  6  9  1  0
  6 15  1  0
  7  9  1  0
  8 18  2  0
  8 19  1  0
  9 19  1  0
 10 17  1  0
 12 14  1  0
 12 17  1  0
 13 21  1  0
 16 21  2  0
 18 20  1  0
M  END
>  <ID>  (1) 
conformer_0

$$$$
