
     RDKit          3D

 25 26  0  0  0  0  0  0  0  0999 V2000
   27.1607   57.9754   87.6875 C   0  0  0  0  0  0  0  0  0  0  0  0
   21.6025   56.5256   85.7078 N   0  0  0  0  0  0  0  0  0  0  0  0
   25.6045   55.1285   92.5490 O   0  0  0  0  0  0  0  0  0  0  0  0
   24.1822   54.9228   90.6393 C   0  0  0  0  0  0  0  0  0  0  0  0
   28.5717   59.9525   88.2525 N   0  0  0  0  0  0  0  0  0  0  0  0
   25.8441   57.0758   87.5145 N   0  0  0  0  0  0  0  0  0  0  0  0
   20.8901   55.6653   87.9202 N   0  0  0  0  0  0  0  0  0  0  0  0
   23.9044   55.8658   88.3417 C   0  0  0  0  0  0  0  0  0  0  0  0
   24.4352   53.7568   89.8993 O   0  0  0  0  0  0  0  0  0  0  0  0
   27.6461   56.3157   89.6547 C   0  0  0  0  0  0  0  0  0  0  0  0
   27.4967   56.9354   91.9960 N   0  0  0  0  0  0  0  0  0  0  0  0
   22.9102   56.9855   85.0847 C   0  0  0  0  0  0  0  0  0  0  0  0
   28.6672   55.3925   89.9844 O   0  0  0  0  0  0  0  0  0  0  0  0
   25.8927   57.6195   85.0969 C   0  0  0  0  0  0  0  0  0  0  0  0
   26.6552   56.5116   90.8587 C   0  0  0  0  0  0  0  0  0  0  0  0
   23.1620   56.1753   87.2447 C   0  0  0  0  0  0  0  0  0  0  0  0
   28.0182   57.5303   88.9359 C   0  0  0  0  0  0  0  0  0  0  0  0
   23.0050   54.6576   91.4562 C   0  0  0  0  0  0  0  0  0  0  0  0
   27.8084   59.8715   86.0688 O   0  0  0  0  0  0  0  0  0  0  0  0
   25.4042   55.6287   91.2457 C   0  0  0  0  0  0  0  0  0  0  0  0
   23.8367   56.7976   86.1794 C   0  0  0  0  0  0  0  0  0  0  0  0
   27.8710   59.2703   87.2005 C   0  0  0  0  0  0  0  0  0  0  0  0
   25.2215   56.2893   88.4565 C   0  0  0  0  0  0  0  0  0  0  0  0
   21.7506   56.0041   86.9762 C   0  0  0  0  0  0  0  0  0  0  0  0
   25.2037   57.1860   86.2849 C   0  0  0  0  0  0  0  0  0  0  0  0
  1  6  1  0
  1 17  2  3
  1 22  1  0
  2 12  1  0
  2 24  1  0
  3 20  1  0
  4  9  1  0
  4 18  1  0
  4 20  1  0
  5 22  1  0
  6 23  1  0
  6 25  1  0
  7 24  2  0
  8 16  2  0
  8 23  1  0
 10 13  1  0
 10 15  1  0
 10 17  1  0
 11 15  1  0
 12 21  1  0
 14 25  1  0
 15 20  1  0
 16 21  1  0
 16 24  1  0
 19 22  2  0
 21 25  2  0
M  END
>  <ID>  (1) 
conformer_0

$$$$
