
     RDKit          3D

 32 36  0  0  0  0  0  0  0  0999 V2000
   28.3638   61.3054   86.0310 N   0  0  0  0  0  0  0  0  0  0  0  0
   24.0995   56.4793   87.3498 C   0  0  0  0  0  0  0  0  0  0  0  0
   28.5487   59.0796   88.8545 O   0  0  0  0  0  0  0  0  0  0  0  0
   27.6075   60.2352   85.5331 C   0  0  0  0  0  0  0  0  0  0  0  0
   22.9513   56.0629   87.9840 C   0  0  0  0  0  0  0  0  0  0  0  0
   26.1088   55.8744   92.8863 O   0  0  0  0  0  0  0  0  0  0  0  0
   27.7699   56.3318   91.3633 N   0  0  0  0  0  0  0  0  0  0  0  0
   23.0764   53.3725   94.1403 N   0  0  0  0  0  0  0  0  0  0  0  0
   23.3505   54.7816   90.9241 C   0  0  0  0  0  0  0  0  0  0  0  0
   27.5712   59.3015   86.5251 C   0  0  0  0  0  0  0  0  0  0  0  0
   26.2316   57.3686   87.1049 C   0  0  0  0  0  0  0  0  0  0  0  0
   21.7601   55.9653   87.2501 C   0  0  0  0  0  0  0  0  0  0  0  0
   22.8439   56.7515   85.2743 C   0  0  0  0  0  0  0  0  0  0  0  0
   25.0853   55.0501   93.2730 C   0  0  0  0  0  0  0  0  0  0  0  0
   25.3808   56.7162   87.9260 C   0  0  0  0  0  0  0  0  0  0  0  0
   27.2987   56.3235   89.1431 C   0  0  0  0  0  0  0  0  0  0  0  0
   21.6830   56.3155   85.9334 N   0  0  0  0  0  0  0  0  0  0  0  0
   24.0662   53.7385   95.0331 C   0  0  0  0  0  0  0  0  0  0  0  0
   28.3264   59.7440   87.6933 C   0  0  0  0  0  0  0  0  0  0  0  0
   25.9689   56.3749   89.2339 N   0  0  0  0  0  0  0  0  0  0  0  0
   22.1152   53.9384   91.5611 C   0  0  0  0  0  0  0  0  0  0  0  0
   25.0506   54.6418   94.6263 C   0  0  0  0  0  0  0  0  0  0  0  0
   28.1535   56.1076   90.1339 C   0  0  0  0  0  0  0  0  0  0  0  0
   29.2303   55.2719   89.8968 O   0  0  0  0  0  0  0  0  0  0  0  0
   28.8084   61.0069   87.4083 C   0  0  0  0  0  0  0  0  0  0  0  0
   24.0711   54.6875   92.3553 C   0  0  0  0  0  0  0  0  0  0  0  0
   26.8479   58.1870   86.4960 C   0  0  0  0  0  0  0  0  0  0  0  0
   20.4874   55.4280   87.8870 C   0  0  0  0  0  0  0  0  0  0  0  0
   26.4268   56.1619   91.5391 C   0  0  0  0  0  0  0  0  0  0  0  0
   23.9996   56.7667   85.9701 C   0  0  0  0  0  0  0  0  0  0  0  0
   25.5447   56.1929   90.4980 N   0  0  0  0  0  0  0  0  0  0  0  0
   23.0408   53.8957   92.8575 C   0  0  0  0  0  0  0  0  0  0  0  0
  1  4  1  0
  1 25  1  0
  2  5  2  0
  2 15  1  0
  2 30  1  0
  3 19  1  0
  4 10  1  0
  5 12  1  0
  6 14  1  0
  6 29  1  0
  7 23  1  0
  7 29  1  0
  8 18  2  0
  8 32  1  0
  9 21  1  0
  9 26  1  0
 10 19  2  0
 10 27  1  0
 11 15  2  0
 11 27  2  0
 12 17  2  0
 12 28  1  0
 13 17  1  0
 13 30  2  0
 14 22  1  0
 14 26  2  0
 15 20  1  0
 16 20  1  0
 16 23  1  0
 18 22  1  0
 19 25  1  0
 20 31  1  0
 21 32  1  0
 23 24  2  0
 26 32  1  0
 29 31  2  0
M  END
>  <ID>  (1) 
conformer_0

$$$$
