
     RDKit          3D

 15 15  0  0  0  0  0  0  0  0999 V2000
   26.9136   57.7882   85.2351 O   0  0  0  0  0  0  0  0  0  0  0  0
   26.7493   57.0397   91.1627 O   0  0  0  0  0  0  0  0  0  0  0  0
   28.0923   55.9534   89.4630 N   0  0  0  0  0  0  0  0  0  0  0  0
   28.8430   55.5568   90.5328 O   0  0  0  0  0  0  0  0  0  0  0  0
   23.5398   55.9520   88.5298 C   0  0  0  0  0  0  0  0  0  0  0  0
   24.6563   56.2605   89.3122 C   0  0  0  0  0  0  0  0  0  0  0  0
   23.5366   56.1798   87.1635 C   0  0  0  0  0  0  0  0  0  0  0  0
   27.1213   57.0977   89.7321 C   0  0  0  0  0  0  0  0  0  0  0  0
   27.9218   58.3207   89.5061 O   0  0  0  0  0  0  0  0  0  0  0  0
   27.0372   57.4749   86.5354 C   0  0  0  0  0  0  0  0  0  0  0  0
   22.3946   55.3511   89.1258 N   0  0  0  0  0  0  0  0  0  0  0  0
   28.3530   57.4587   86.9461 N   0  0  0  0  0  0  0  0  0  0  0  0
   25.8478   57.0109   87.3092 C   0  0  0  0  0  0  0  0  0  0  0  0
   24.6733   56.7259   86.5806 C   0  0  0  0  0  0  0  0  0  0  0  0
   25.8219   56.7830   88.7408 C   0  0  0  0  0  0  0  0  0  0  0  0
  1 10  2  0
  2  8  1  0
  3  4  1  0
  3  8  1  0
  5  6  2  0
  5  7  1  0
  5 11  1  0
  6 15  1  0
  7 14  2  0
  8  9  1  0
  8 15  1  0
 10 12  1  0
 10 13  1  0
 13 14  1  0
 13 15  2  0
M  END
>  <ID>  (1) 
conformer_0

$$$$
