
     RDKit          3D

 19 20  0  0  0  0  0  0  0  0999 V2000
   25.9122   56.8830   89.2331 C   0  0  0  0  0  0  0  0  0  0  0  0
   27.2264   57.9879   89.0791 C   0  0  0  0  0  0  0  0  0  0  0  0
   27.2060   58.1905   87.5259 C   0  0  0  0  0  0  0  0  0  0  0  0
   28.5404   58.7277   89.4394 O   0  0  0  0  0  0  0  0  0  0  0  0
   26.1555   57.4445   86.6007 C   0  0  0  0  0  0  0  0  0  0  0  0
   23.8066   56.3413   86.4481 C   0  0  0  0  0  0  0  0  0  0  0  0
   25.0850   56.6117   85.7867 C   0  0  0  0  0  0  0  0  0  0  0  0
   28.9975   56.5538   87.7589 O   0  0  0  0  0  0  0  0  0  0  0  0
   24.4696   56.2512   89.0248 C   0  0  0  0  0  0  0  0  0  0  0  0
   22.6156   56.2007   85.7901 N   0  0  0  0  0  0  0  0  0  0  0  0
   26.2438   55.8475   91.9581 C   0  0  0  0  0  0  0  0  0  0  0  0
   28.7001   59.9813   88.7459 O   0  0  0  0  0  0  0  0  0  0  0  0
   26.9140   56.4827   92.9393 O   0  0  0  0  0  0  0  0  0  0  0  0
   28.6228   57.7616   87.0574 C   0  0  0  0  0  0  0  0  0  0  0  0
   23.5212   56.3090   87.8514 C   0  0  0  0  0  0  0  0  0  0  0  0
   22.1239   56.3161   87.9917 N   0  0  0  0  0  0  0  0  0  0  0  0
   25.4885   54.8400   92.2521 O   0  0  0  0  0  0  0  0  0  0  0  0
   26.2212   56.4293   90.6847 C   0  0  0  0  0  3  0  0  0  0  0  0
   21.5806   56.1830   86.7228 C   0  0  0  0  0  0  0  0  0  0  0  0
  1  2  1  0
  1  9  1  0
  1 18  2  0
  2  3  1  0
  2  4  1  0
  3  5  1  0
  3 14  1  0
  4 12  1  0
  5  7  1  0
  6  7  1  0
  6 10  1  0
  6 15  2  0
  8 14  1  0
  9 15  1  0
 10 19  1  0
 11 13  2  0
 11 17  1  0
 11 18  1  0
 15 16  1  0
 16 19  1  0
M  END
>  <ID>  (1) 
conformer_0

$$$$
