
     RDKit          3D

 34 37  0  0  0  0  0  0  0  0999 V2000
   27.9071   57.9415   86.3415 C   0  0  0  0  0  0  0  0  0  0  0  0
   24.2562   55.8047   88.1111 C   0  0  0  0  0  0  0  0  0  0  0  0
   23.0883   55.7500   87.8485 C   0  0  0  0  0  3  0  0  0  0  0  0
   27.3497   60.1958   85.3894 O   0  0  0  0  0  0  0  0  0  0  0  0
   27.5410   58.2792   88.8877 C   0  0  0  0  0  0  0  0  0  0  0  0
   25.7058   55.5861   91.6011 N   0  0  0  0  0  0  0  0  0  0  0  0
   22.9168   56.9201   85.3333 C   0  0  0  0  0  0  0  0  0  0  0  0
   25.3684   56.2153   87.4885 C   0  0  0  0  0  0  0  0  0  0  0  0
   28.7772   61.6047   87.0773 N   0  0  0  0  0  0  0  0  0  0  0  0
   28.4252   57.6482   87.7887 C   0  0  0  0  0  0  0  0  0  0  0  0
   21.5833   56.6665   85.5389 C   0  0  0  0  0  0  0  0  0  0  0  0
   28.4126   59.4336   86.0272 C   0  0  0  0  0  0  0  0  0  0  0  0
   21.7689   55.6230   87.6877 C   0  0  0  0  0  0  0  0  0  0  0  0
   21.0487   55.0007   88.6921 C   0  0  0  0  0  0  0  0  0  0  0  0
   26.6979   57.3829   84.3453 O   0  0  0  0  0  0  0  0  0  0  0  0
   27.8152   56.5408   90.6697 C   0  0  0  0  0  0  0  0  0  0  0  0
   23.0460   54.8389   90.0897 C   0  0  0  0  0  0  0  0  0  0  0  0
   28.8718   56.2917   87.8170 O   0  0  0  0  0  0  0  0  0  0  0  0
   23.4505   54.4408   91.4812 C   0  0  0  0  0  0  0  0  0  0  0  0
   24.6174   54.8363   92.1501 C   0  0  0  0  0  0  0  0  0  0  0  0
   26.6389   57.4404   85.6838 C   0  0  0  0  0  0  0  0  0  0  0  0
   28.0112   57.8799   90.2625 N   0  0  0  0  0  0  0  0  0  0  0  0
   20.9372   53.7252   90.9548 S   0  0  0  0  0  0  0  0  0  0  0  0
   26.8108   56.4659   91.8118 C   0  0  0  0  0  0  0  0  0  0  0  0
   29.3743   60.0353   88.6895 O   0  0  0  0  0  0  0  0  0  0  0  0
   24.1686   56.9616   85.5900 C   0  0  0  0  0  0  0  0  0  0  0  0
   27.3875   56.6575   93.0294 O   0  0  0  0  0  0  0  0  0  0  0  0
   20.9986   56.0595   86.5761 C   0  0  0  0  0  0  0  0  0  0  0  0
   25.3765   56.8660   86.2438 C   0  0  0  0  0  0  0  0  0  0  0  0
   22.1875   53.7684   92.1134 C   0  0  0  0  0  0  0  0  0  0  0  0
   21.6605   54.5774   89.8287 C   0  0  0  0  0  0  0  0  0  0  0  0
   28.6710   55.5449   90.3626 O   0  0  0  0  0  0  0  0  0  0  0  0
   23.7457   55.3879   89.0853 C   0  0  0  0  0  0  0  0  0  0  0  0
   28.8352   60.2172   87.3376 C   0  0  0  0  0  0  0  0  0  0  0  0
  1 10  1  0
  1 12  1  0
  1 21  1  0
  2  3  1  0
  2  8  1  0
  2 33  2  0
  3 13  2  0
  4 12  1  0
  5 10  1  0
  5 22  1  0
  6 20  1  0
  6 24  1  0
  7 11  1  0
  7 26  3  0
  8 29  2  0
  9 34  1  0
 10 18  1  0
 11 28  2  0
 12 34  1  0
 13 14  1  0
 13 28  1  0
 14 31  2  0
 15 21  1  0
 16 22  1  0
 16 24  1  0
 16 32  2  0
 17 19  1  0
 17 31  1  0
 17 33  2  0
 19 20  2  0
 19 30  1  0
 21 29  1  0
 23 30  1  0
 23 31  1  0
 24 27  2  0
 25 34  2  0
 26 29  1  0
M  END
>  <ID>  (1) 
conformer_0

$$$$
