
     RDKit          3D

 31 35  0  0  0  0  0  0  0  0999 V2000
   27.1761   60.5102   84.5788 C   0  0  0  0  0  0  0  0  0  0  0  0
   25.1824   56.6829   86.6101 C   0  0  0  0  0  0  0  0  0  0  0  0
   24.7598   54.8218   92.0384 C   0  0  0  0  0  0  0  0  0  0  0  0
   27.9667   60.4262   85.8310 C   0  0  0  0  0  0  0  0  0  0  0  0
   24.3024   54.5654   90.6682 C   0  0  0  0  0  0  0  0  0  0  0  0
   23.7208   55.6008   88.2435 C   0  0  0  0  0  0  0  0  0  0  0  0
   26.7629   58.2976   85.4450 C   0  0  0  0  0  0  0  0  0  0  0  0
   22.9644   55.1969   88.9680 C   0  0  0  0  0  0  0  0  0  0  0  0
   21.5545   56.1196   86.5446 C   0  0  0  0  0  0  0  0  0  0  0  0
   22.9888   57.2384   85.0391 C   0  0  0  0  0  0  0  0  0  0  0  0
   29.0901   60.4880   87.9995 C   0  0  0  0  0  0  0  0  0  0  0  0
   22.8136   56.5463   86.1965 C   0  0  0  0  0  0  0  0  0  0  0  0
   24.2395   55.2308   89.4002 N   0  0  0  0  0  0  0  0  0  0  0  0
   28.2476   59.2038   87.9637 C   0  0  0  0  0  0  0  0  0  0  0  0
   28.4897   58.1865   90.1787 N   0  0  0  0  0  0  0  0  0  0  0  0
   24.2659   57.7151   84.7128 C   0  0  0  0  0  0  0  0  0  0  0  0
   25.3941   57.5427   85.5601 C   0  0  0  0  0  0  0  0  0  0  0  0
   20.6411   54.9892   88.5688 C   0  0  0  0  0  0  0  0  0  0  0  0
   26.8293   59.0955   84.2608 O   0  0  0  0  0  0  0  0  0  0  0  0
   26.2019   55.3133   91.9412 O   0  0  0  0  0  0  0  0  0  0  0  0
   27.8108   57.1189   91.0812 C   0  0  0  0  0  0  0  0  0  0  0  0
   20.7311   55.5932   87.3243 C   0  0  0  0  0  0  0  0  0  0  0  0
   28.5957   56.7731   87.6002 C   0  0  0  0  0  0  0  0  0  0  0  0
   27.4938   56.0379   89.9753 C   0  0  0  0  0  0  0  0  0  0  0  0
   21.8083   54.8124   89.3983 C   0  0  0  0  0  0  0  0  0  0  0  0
   26.2720   56.0963   90.7911 C   0  0  0  0  0  0  0  0  0  0  0  0
   23.9944   56.2486   87.0498 C   0  0  0  0  0  0  0  0  0  0  0  0
   28.7452   61.2832   86.7498 C   0  0  0  0  0  0  0  0  0  0  0  0
   28.6944   55.2925   89.8139 O   0  0  0  0  0  0  0  0  0  0  0  0
   28.4328   57.8155   88.7020 C   0  0  0  0  0  0  0  0  0  0  0  0
   27.7540   59.0515   86.4482 C   0  0  0  0  0  0  0  0  0  0  0  0
  1  4  1  0
  1 19  1  0
  2 17  2  0
  2 27  1  0
  3  5  1  0
  3 20  1  0
  4 28  1  0
  4 31  2  0
  5 13  1  0
  6  8  2  0
  6 13  1  0
  6 27  1  0
  7 17  1  0
  7 19  1  0
  7 31  1  0
  8 25  2  0
  9 12  1  0
  9 22  2  0
 10 12  1  0
 10 16  2  0
 11 14  1  0
 11 28  1  0
 12 27  2  0
 14 30  1  0
 14 31  1  0
 15 21  1  0
 15 30  1  0
 16 17  1  0
 18 22  1  0
 18 25  1  0
 20 26  1  0
 21 24  1  0
 23 30  1  0
 24 26  1  0
 24 29  1  0
M  END
>  <ID>  (1) 
conformer_0

$$$$
