
     RDKit          3D

 21 21  0  0  0  0  0  0  0  0999 V2000
   27.9376   56.9601   91.6967 O   0  0  0  0  0  0  0  0  0  0  0  0
   26.7408   58.4623   85.9482 C   0  0  0  0  0  0  0  0  0  0  0  0
   24.4972   54.6957   91.3760 C   0  0  0  0  0  0  0  0  0  0  0  0
   28.1592   59.4575   88.8279 O   0  0  0  0  0  0  0  0  0  0  0  0
   27.7618   58.0394   89.3760 C   0  0  0  0  0  0  0  0  0  0  0  0
   27.7560   56.5330   90.4050 C   0  0  0  0  0  0  0  0  0  0  0  0
   25.6308   55.6719   91.5546 C   0  0  0  0  0  0  0  0  0  0  0  0
   24.8823   55.9629   88.0107 C   0  0  0  0  0  0  0  0  0  0  0  0
   28.8593   56.8738   87.5428 O   0  0  0  0  0  0  0  0  0  0  0  0
   24.4498   56.8793   85.8444 C   0  0  0  0  0  0  0  0  0  0  0  0
   25.3310   56.8361   86.9405 C   0  0  0  0  0  0  0  0  0  0  0  0
   23.4478   55.9085   85.7641 O   0  0  0  0  0  0  0  0  0  0  0  0
   24.5530   53.8117   90.4539 O   0  0  0  0  0  0  0  0  0  0  0  0
   23.6469   54.5373   92.3799 O   0  0  0  0  0  0  0  0  0  0  0  0
   27.5710   57.2441   87.9949 C   0  0  0  0  0  0  0  0  0  0  0  0
   28.5930   55.4616   89.8296 O   0  0  0  0  0  0  0  0  0  0  0  0
   26.5476   57.5464   86.9652 C   0  0  0  0  0  0  0  0  0  0  0  0
   25.8287   58.6214   84.8959 C   0  0  0  0  0  0  0  0  0  0  0  0
   26.2359   56.1756   90.2809 C   0  0  0  0  0  0  0  0  0  0  0  0
   24.6778   57.8246   84.8595 C   0  0  0  0  0  0  0  0  0  0  0  0
   22.1386   56.5673   85.7902 C   0  0  0  0  0  0  0  0  0  0  0  0
  1  6  1  0
  2 17  2  0
  2 18  1  0
  3  7  1  0
  3 13  2  0
  3 14  1  0
  4  5  1  0
  5  6  1  0
  5 15  1  0
  6 16  1  0
  6 19  1  0
  7 19  1  0
  8 11  1  0
  9 15  1  0
 10 11  1  0
 10 12  1  0
 10 20  2  0
 11 17  1  0
 12 21  1  0
 15 17  1  0
 18 20  1  0
M  END
>  <ID>  (1) 
conformer_0

$$$$
