
     RDKit          3D

 16 15  0  0  0  0  0  0  0  0999 V2000
   25.7368   57.5514   86.6423 O   0  0  0  0  0  0  0  0  0  0  0  0
   24.6636   55.5819   89.3095 N   0  0  0  0  0  0  0  0  0  0  0  0
   23.2340   56.3161   87.2934 C   0  0  0  0  0  0  0  0  0  0  0  0
   25.3411   55.9369   90.6191 C   0  0  0  0  0  0  0  0  0  0  0  0
   28.1847   56.6892   88.5929 C   0  0  0  0  0  0  0  0  0  0  0  0
   26.3995   57.0216   90.5287 C   0  0  0  0  0  0  0  0  0  0  0  0
   24.5213   56.7377   86.6286 C   0  0  0  0  0  0  0  0  0  0  0  0
   28.8233   57.0954   87.5575 O   0  0  0  0  0  0  0  0  0  0  0  0
   27.3250   59.0222   88.9648 N   0  0  0  0  0  0  0  0  0  0  0  0
   23.3604   55.8604   88.7607 C   0  0  0  0  0  0  0  0  0  0  0  0
   26.9453   57.5367   89.1722 C   0  0  0  0  0  0  0  0  0  0  0  0
   22.1582   54.9928   89.1627 C   0  0  0  0  0  0  0  0  0  0  0  0
   27.2675   57.0227   91.6439 O   0  0  0  0  0  0  0  0  0  0  0  0
   28.7357   59.4104   88.7268 O   0  0  0  0  0  0  0  0  0  0  0  0
   28.5479   55.7073   89.3693 O   0  0  0  0  0  0  0  0  0  0  0  0
   25.2577   55.1618   91.9346 C   0  0  0  0  0  0  0  0  0  0  0  0
  1  7  1  0
  2  4  1  0
  2 10  1  0
  3  7  1  0
  3 10  1  0
  4  6  1  0
  4 16  1  0
  5  8  2  0
  5 11  1  0
  5 15  1  0
  6 11  1  0
  6 13  1  0
  9 11  1  0
  9 14  1  0
 10 12  1  0
M  END
>  <ID>  (1) 
conformer_0

$$$$
