
     RDKit          3D

 30 33  0  0  0  0  0  0  0  0999 V2000
   21.8688   53.5216   92.5331 O   0  0  0  0  0  0  0  0  0  0  0  0
   23.9065   54.1273   91.2571 C   0  0  0  0  0  0  0  0  0  0  0  0
   24.7202   54.6066   90.1263 C   0  0  0  0  0  0  0  0  0  0  0  0
   28.1915   57.5194   90.5663 O   0  0  0  0  0  0  0  0  0  0  0  0
   28.3869   56.5698   87.4065 C   0  0  0  0  0  0  0  0  0  0  0  0
   28.0321   57.9753   87.0862 C   0  0  0  0  0  0  0  0  0  0  0  0
   25.8543   57.3204   86.9849 O   0  0  0  0  0  0  0  0  0  0  0  0
   27.5627   56.7726   89.6940 C   0  0  0  0  0  0  0  0  0  0  0  0
   21.2233   56.0943   86.9400 C   0  0  0  0  0  0  0  0  0  0  0  0
   24.6354   58.5469   84.3746 O   0  0  0  0  0  0  0  0  0  0  0  0
   26.7020   59.2854   85.5735 C   0  0  0  0  0  0  0  0  0  0  0  0
   28.9023   59.0270   87.2625 C   0  0  0  0  0  0  0  0  0  0  0  0
   26.7781   58.2151   86.4977 C   0  0  0  0  0  0  0  0  0  0  0  0
   23.8933   56.3539   87.7726 C   0  0  0  0  0  0  0  0  0  0  0  0
   25.5917   55.6199   92.0396 C   0  0  0  0  0  0  0  0  0  0  0  0
   25.3661   56.6098   88.0938 C   0  0  0  0  0  0  0  0  0  0  0  0
   25.7828   59.3249   84.4332 C   0  0  0  0  0  0  0  0  0  0  0  0
   26.1895   56.3631   89.2701 N   0  0  0  0  0  0  0  0  0  0  0  0
   28.5368   56.0223   88.8062 C   0  0  0  0  0  0  0  0  0  0  0  0
   21.5835   55.7463   88.2420 C   0  0  0  0  0  0  0  0  0  0  0  0
   28.6525   60.2205   86.5411 C   0  0  0  0  0  0  0  0  0  0  0  0
   26.6444   56.3019   92.6676 O   0  0  0  0  0  0  0  0  0  0  0  0
   24.2407   53.5720   93.5510 C   0  0  0  0  0  0  0  0  0  0  0  0
   22.1918   56.5951   86.0956 N   0  0  0  0  0  0  0  0  0  0  0  0
   24.4720   54.7018   92.5152 C   0  0  0  0  0  0  0  0  0  0  0  0
   23.4558   56.6776   86.5078 C   0  0  0  0  0  0  0  0  0  0  0  0
   27.6006   60.3104   85.6809 N   0  0  0  0  0  0  0  0  0  0  0  0
   25.4748   55.8449   90.5058 C   0  0  0  0  0  0  0  0  0  0  0  0
   22.7347   53.3482   93.6443 C   0  0  0  0  0  0  0  0  0  0  0  0
   22.8908   55.8819   88.6049 C   0  0  0  0  0  0  0  0  0  0  0  0
  1 29  1  0
  2  3  1  0
  2 25  1  0
  3 28  1  0
  4  8  2  0
  5  6  1  0
  5 19  1  0
  6 12  1  0
  6 13  1  0
  7 13  1  0
  7 16  1  0
  8 18  1  0
  8 19  1  0
  9 20  1  0
  9 24  1  0
 10 17  1  0
 11 13  1  0
 11 17  1  0
 11 27  1  0
 12 21  1  0
 14 16  2  3
 14 26  1  0
 14 30  1  0
 15 22  1  0
 15 25  1  0
 15 28  1  0
 16 18  1  0
 18 28  1  0
 20 30  2  0
 21 27  2  0
 23 25  1  0
 23 29  1  0
 24 26  2  0
M  END
>  <ID>  (1) 
conformer_0

$$$$
