
     RDKit          3D

 13 12  0  0  0  0  0  0  0  0999 V2000
   25.0301   56.5660   87.7555 C   0  0  0  0  0  0  0  0  0  0  0  0
   26.2143   54.5150   91.3290 O   0  0  0  0  0  0  0  0  0  0  0  0
   26.7740   57.3605   91.1399 O   0  0  0  0  0  0  0  0  0  0  0  0
   24.4904   55.7159   90.0622 C   0  0  0  0  0  0  0  0  0  0  0  0
   25.4364   56.4298   89.1978 C   0  0  0  0  0  0  0  0  0  0  0  0
   28.6104   55.8677   89.6901 O   0  0  0  0  0  1  0  0  0  0  0  0
   23.6656   56.5383   87.2181 N   0  0  0  0  0  0  0  0  0  0  0  0
   24.9506   55.1792   91.3963 C   0  0  0  0  0  0  0  0  0  0  0  0
   28.5372   56.8975   87.4768 O   0  0  0  0  0  0  0  0  0  0  0  0
   28.5697   58.7435   89.1135 O   0  0  0  0  0  0  0  0  0  0  0  0
   26.4614   57.3976   89.7599 C   0  0  0  0  0  0  0  0  0  0  0  0
   28.0940   57.1795   88.9393 P   0  0  0  0  0  4  0  0  0  0  0  0
   23.2259   55.3552   89.6446 O   0  0  0  0  0  0  0  0  0  0  0  0
  1  5  1  0
  1  7  1  0
  2  8  1  0
  3 11  1  0
  4  5  1  0
  4  8  1  0
  4 13  1  0
  5 11  1  0
  6 12  2  0
  9 12  1  0
 10 12  1  0
 11 12  1  0
M  END
>  <ID>  (1) 
conformer_0

$$$$
