
     RDKit          3D

 21 23  0  0  0  0  0  0  0  0999 V2000
   26.8389   56.8124   91.8709 O   0  0  0  0  0  0  0  0  0  0  0  0
   25.6482   58.5170   84.8703 C   0  0  0  0  0  0  0  0  0  0  0  0
   27.2268   58.0045   87.2420 C   0  0  0  0  0  0  0  0  0  0  0  0
   24.7446   55.8473   88.7868 C   0  0  0  0  0  0  0  0  0  0  0  0
   22.5299   55.0309   89.1696 C   0  0  0  0  0  0  0  0  0  0  0  0
   25.6439   56.1927   87.8576 N   0  0  0  0  0  0  0  0  0  0  0  0
   25.0468   55.7483   90.1536 C   0  0  0  0  0  0  0  0  0  0  0  0
   28.6368   55.6717   90.0093 O   0  0  0  0  0  0  0  0  0  0  0  0
   23.4754   55.5370   88.3324 C   0  0  0  0  0  0  0  0  0  0  0  0
   26.3186   56.3662   90.6020 C   0  0  0  0  0  0  0  0  0  0  0  0
   27.2120   58.6880   84.7936 C   0  0  0  0  0  0  0  0  0  0  0  0
   28.7349   58.5191   89.6878 N   0  0  0  0  0  0  0  0  0  0  0  0
   27.7792   57.7269   85.8496 N   0  0  0  0  0  0  0  0  0  0  0  0
   25.2992   57.2407   85.7113 C   0  0  0  0  0  0  0  0  0  0  0  0
   21.9679   54.1043   91.2347 O   0  0  0  0  0  0  0  0  0  0  0  0
   22.8600   54.7517   90.4690 C   0  0  0  0  0  0  0  0  0  0  0  0
   24.6124   54.5398   92.2335 C   0  0  0  0  0  0  0  0  0  0  0  0
   24.1429   55.0651   90.9671 C   0  0  0  0  0  0  0  0  0  0  0  0
   27.7596   57.7287   88.7711 C   0  0  0  0  0  0  0  0  0  0  0  0
   27.4640   56.4130   89.5809 C   0  0  0  0  0  0  0  0  0  0  0  0
   25.7701   57.4157   87.1739 C   0  0  0  0  0  0  0  0  0  0  0  0
  1 10  1  0
  2 11  1  0
  2 14  1  0
  3 13  1  0
  3 19  1  0
  3 21  1  0
  4  6  1  0
  4  7  1  0
  4  9  2  0
  5  9  1  0
  5 16  2  0
  6 21  1  0
  7 10  1  0
  7 18  1  0
  8 20  1  0
 10 20  1  0
 11 13  1  0
 12 19  1  0
 14 21  1  0
 15 16  1  0
 16 18  1  0
 17 18  1  0
 19 20  1  0
M  END
>  <ID>  (1) 
conformer_0

$$$$
