
     RDKit          3D

 19 20  0  0  0  0  0  0  0  0999 V2000
   25.1951   56.0647   89.4210 C   0  0  0  0  0  0  0  0  0  0  0  0
   26.8024   59.5822   85.2290 C   0  0  0  0  0  0  0  0  0  0  0  0
   26.3284   57.5489   86.9297 C   0  0  0  0  0  0  0  0  0  0  0  0
   28.7223   58.8103   87.2321 C   0  0  0  0  0  0  0  0  0  0  0  0
   28.6374   55.1396   90.1423 O   0  0  0  0  0  0  0  0  0  0  0  0
   22.4066   55.4618   89.3012 C   0  0  0  0  0  0  0  0  0  0  0  0
   23.0290   56.2016   88.3097 C   0  0  0  0  0  0  0  0  0  0  0  0
   22.2397   56.7204   87.1807 C   0  0  0  0  0  0  0  0  0  0  0  0
   28.3697   57.8313   90.5990 O   0  0  0  0  0  0  0  0  0  0  0  0
   27.0256   57.1690   90.7555 C   0  0  0  0  0  0  0  0  0  0  0  0
   28.5462   57.3981   87.9697 N   0  0  0  0  0  0  0  0  0  0  0  0
   23.1768   55.0574   90.3717 C   0  0  0  0  0  0  0  0  0  0  0  0
   27.1660   56.9540   88.1462 C   0  0  0  0  0  0  0  0  0  0  0  0
   24.5608   55.3515   90.4574 C   0  0  0  0  0  0  0  0  0  0  0  0
   26.6910   56.3932   89.4761 C   0  0  0  0  0  0  0  0  0  0  0  0
   24.3592   56.4403   88.3654 C   0  0  0  0  0  0  0  0  0  0  0  0
   28.0563   59.8448   86.1471 C   0  0  0  0  0  0  0  0  0  0  0  0
   27.3064   55.6331   90.7107 C   0  0  0  0  0  0  0  0  0  0  0  0
   26.2377   58.2165   85.4540 C   0  0  0  0  0  0  0  0  0  0  0  0
  1 14  1  0
  1 15  1  0
  1 16  2  0
  2 17  1  0
  2 19  1  0
  3 13  1  0
  3 19  1  0
  4 11  1  0
  4 17  2  0
  5 18  1  0
  6  7  2  0
  6 12  1  0
  7  8  1  0
  7 16  1  0
  9 10  1  0
 10 15  1  0
 10 18  1  0
 11 13  1  0
 12 14  2  0
 13 15  1  0
M  END
>  <ID>  (1) 
conformer_0

$$$$
