
     RDKit          3D

 15 15  0  0  0  0  0  0  0  0999 V2000
   26.7372   57.1160   90.4778 C   0  0  0  0  0  0  0  0  0  0  0  0
   28.6381   57.3277   87.4988 O   0  0  0  0  0  0  0  0  0  0  0  0
   26.9666   58.1066   89.1335 C   0  0  0  0  0  0  0  0  0  0  0  0
   22.8071   56.2347   87.4611 C   0  0  0  0  0  0  0  0  0  0  0  0
   22.1905   55.6339   88.5619 C   0  0  0  0  0  0  0  0  0  0  0  0
   24.1612   56.6020   87.5370 C   0  0  0  0  0  0  0  0  0  0  0  0
   28.0483   57.4128   91.2365 O   0  0  0  0  0  0  0  0  0  0  0  0
   27.7087   59.4472   88.6053 N   0  0  0  0  0  0  0  0  0  0  0  0
   26.3143   55.7003   91.0953 C   0  0  0  0  0  0  0  0  0  0  0  0
   22.8878   55.4131   89.7253 N   0  0  0  0  0  0  0  0  0  0  0  0
   24.2507   55.7544   89.7910 C   0  0  0  0  0  0  0  0  0  0  0  0
   24.8364   56.3397   88.7045 C   0  0  0  0  0  0  0  0  0  0  0  0
   24.9241   55.4210   90.9968 O   0  0  0  0  0  0  0  0  0  0  0  0
   28.5207   55.7471   89.1523 O   0  0  0  0  0  0  0  0  0  0  0  0
   28.0496   56.9295   88.6533 C   0  0  0  0  0  0  0  0  0  0  0  0
  1  3  1  0
  1  7  1  0
  1  9  1  0
  2 15  2  0
  3  8  1  0
  3 15  1  0
  4  5  2  0
  4  6  1  0
  5 10  1  0
  6 12  2  0
  9 13  1  0
 10 11  2  0
 11 12  1  0
 11 13  1  0
 14 15  1  0
M  END
>  <ID>  (1) 
conformer_0

$$$$
