
     RDKit          3D

 22 25  0  0  0  0  0  0  0  0999 V2000
   23.3596   55.5037   89.3545 C   0  0  0  0  0  0  0  0  0  0  0  0
   27.2552   57.8160   87.0003 C   0  0  0  0  0  0  0  0  0  0  0  0
   28.2201   60.2679   86.9303 O   0  0  0  0  0  0  0  0  0  0  0  0
   28.9044   54.8102   89.7410 O   0  0  0  0  0  0  0  0  0  0  0  0
   29.1847   56.5882   87.5926 O   0  0  0  0  0  0  0  0  0  0  0  0
   24.7236   55.3269   91.0079 C   0  0  0  0  0  0  0  0  0  0  0  0
   27.9094   56.7757   88.1057 C   0  0  0  0  0  0  0  0  0  0  0  0
   22.2640   55.5143   88.4412 C   0  0  0  0  0  0  0  0  0  0  0  0
   23.6393   56.5268   86.8383 C   0  0  0  0  0  0  0  0  0  0  0  0
   22.4655   56.0682   87.2178 N   0  0  0  0  0  0  0  0  0  0  0  0
   28.4396   55.9423   90.0983 C   0  0  0  0  0  0  0  0  0  0  0  0
   21.1061   54.9598   88.7350 N   0  0  0  0  0  0  0  0  0  0  0  0
   27.5273   57.6277   89.3752 C   0  0  0  0  0  0  0  0  0  0  0  0
   26.9543   56.4223   90.3241 C   0  0  0  0  0  0  0  0  0  0  0  0
   25.8986   57.1149   86.9365 C   0  0  0  0  0  0  0  0  0  0  0  0
   23.4522   55.0689   90.6657 N   0  0  0  0  0  0  0  0  0  0  0  0
   24.5939   56.0383   88.9081 C   0  0  0  0  0  0  0  0  0  0  0  0
   24.7514   56.5085   87.6343 N   0  0  0  0  0  0  0  0  0  0  0  0
   28.0280   59.0443   87.3956 C   0  0  0  0  0  0  0  0  0  0  0  0
   25.4726   55.9639   90.0406 N   0  0  0  0  0  0  0  0  0  0  0  0
   27.7506   59.0475   88.8706 O   0  0  0  0  0  0  0  0  0  0  0  0
   27.2003   57.0544   91.7354 O   0  0  0  0  0  0  0  0  0  0  0  0
  1  8  1  0
  1 16  1  0
  1 17  2  0
  2  7  1  0
  2 15  1  0
  2 19  1  0
  3 19  2  0
  4 11  2  0
  5  7  1  0
  6 16  1  0
  6 20  1  0
  7 13  1  0
  8 10  1  0
  8 12  2  0
  9 10  2  0
  9 18  1  0
 11 14  1  0
 13 14  1  0
 13 21  1  0
 14 20  1  0
 14 22  1  0
 15 18  1  0
 17 18  1  0
 17 20  1  0
 19 21  1  0
M  END
>  <ID>  (1) 
conformer_0

$$$$
