
     RDKit          3D

 28 29  0  0  0  0  0  0  0  0999 V2000
   21.3773   54.8184   89.1440 C   0  0  0  0  0  0  0  0  0  0  0  0
   27.1879   56.8678   93.0352 O   0  0  0  0  0  0  0  0  0  0  0  0
   25.7562   58.5764   84.7254 O   0  0  0  0  0  0  0  0  0  0  0  0
   25.9823   54.9511   91.6363 O   0  0  0  0  0  0  0  0  0  0  0  0
   24.0923   56.8544   85.6407 C   0  0  0  0  0  0  0  0  0  0  0  0
   22.9638   55.9639   87.7822 C   0  0  0  0  0  0  0  0  0  0  0  0
   26.3429   57.6682   85.4835 C   0  0  0  0  0  0  0  0  0  0  0  0
   24.6303   54.7245   91.1895 C   0  0  0  0  0  0  0  0  0  0  0  0
   28.8153   56.8336   87.8444 O   0  0  0  0  0  0  0  0  0  0  0  0
   23.6672   55.0486   90.0018 C   0  0  0  0  0  0  0  0  0  0  0  0
   27.6915   56.4208   90.7145 C   0  0  0  0  0  0  0  0  0  0  0  0
   22.3373   54.6550   90.1012 C   0  0  0  0  0  0  0  0  0  0  0  0
   28.4044   60.3494   88.5647 O   0  0  0  0  0  0  0  0  0  0  0  0
   23.0118   56.7916   86.5404 C   0  0  0  0  0  0  0  0  0  0  0  0
   23.9431   55.7188   88.7667 C   0  0  0  0  0  0  0  0  0  0  0  0
   27.1194   57.3615   89.6183 C   0  0  0  0  0  0  0  0  0  0  0  0
   21.6822   55.4212   88.0019 C   0  0  0  0  0  0  0  0  0  0  0  0
   27.7937   59.1850   87.9060 C   0  0  0  0  0  0  0  0  0  0  0  0
   28.4727   55.4074   90.0146 O   0  0  0  0  0  0  0  0  0  0  0  0
   27.8495   57.8920   85.5862 C   0  0  0  0  0  0  0  0  0  0  0  0
   29.7919   59.3248   86.5304 F   0  0  0  0  0  0  0  0  0  0  0  0
   23.8972   54.0797   92.3459 C   0  0  0  0  0  0  0  0  0  0  0  0
   24.7448   53.4781   93.1841 O   0  0  0  0  0  0  0  0  0  0  0  0
   28.2367   57.8430   88.6817 C   0  0  0  0  0  0  0  0  0  0  0  0
   28.3059   59.1546   86.3980 C   0  0  0  0  0  0  0  0  0  0  0  0
   25.4544   56.8326   86.2466 N   0  0  0  0  0  0  0  0  0  0  0  0
   22.6022   53.8047   92.5256 O   0  0  0  0  0  0  0  0  0  0  0  0
   26.5682   56.2697   91.8255 C   0  0  0  0  0  0  0  0  0  0  0  0
  1 12  2  0
  1 17  1  0
  2 28  1  0
  3  7  2  0
  4  8  1  0
  4 28  1  0
  5 14  1  0
  5 26  1  0
  6 14  1  0
  6 15  1  0
  6 17  2  0
  7 20  1  0
  7 26  1  0
  8 10  1  0
  8 22  1  0
  9 24  1  0
 10 12  1  0
 10 15  2  0
 11 16  1  0
 11 19  1  0
 11 28  1  0
 13 18  1  0
 16 24  1  0
 18 24  1  0
 18 25  1  0
 20 25  1  0
 21 25  1  0
 22 23  2  0
 22 27  1  0
M  END
>  <ID>  (1) 
conformer_0

$$$$
