
     RDKit          3D

 27 30  0  0  0  0  0  0  0  0999 V2000
   26.3258   60.1188   84.4523 O   0  0  0  0  0  0  0  0  0  0  0  0
   21.9079   54.5744   90.4043 C   0  0  0  0  0  0  0  0  0  0  0  0
   25.7940   58.9277   84.9071 C   0  0  0  0  0  0  0  0  0  0  0  0
   21.5975   55.4706   88.0008 C   0  0  0  0  0  0  0  0  0  0  0  0
   24.2469   58.0336   84.6870 S   0  0  0  0  0  0  0  0  0  0  0  0
   24.2226   54.9720   90.5606 C   0  0  0  0  0  0  0  0  0  0  0  0
   22.2870   55.1322   89.1607 C   0  0  0  0  0  0  0  0  0  0  0  0
   28.8437   56.5312   87.5310 N   0  0  0  0  0  0  0  0  0  0  0  0
   27.6893   56.1689   90.6619 C   0  0  0  0  0  0  0  0  0  0  0  0
   27.6005   57.5514   89.9325 C   0  0  0  0  0  0  0  0  0  0  0  0
   24.3018   55.8154   88.1725 C   0  0  0  0  0  0  0  0  0  0  0  0
   25.9179   57.1517   86.3638 C   0  0  0  0  0  0  0  0  0  0  0  0
   28.7932   58.3553   90.3960 O   0  0  0  0  0  0  0  0  0  0  0  0
   23.6752   56.2759   87.0063 C   0  0  0  0  0  0  0  0  0  0  0  0
   26.5693   58.3087   85.8842 C   0  0  0  0  0  0  0  0  0  0  0  0
   27.9686   57.4518   88.3472 C   0  0  0  0  0  0  0  0  0  0  0  0
   28.2446   58.8993   87.7614 C   0  0  0  0  0  0  0  0  0  0  0  0
   23.0948   54.4835   91.2599 C   0  0  0  0  0  0  0  0  0  0  0  0
   27.7764   59.1437   86.2899 C   0  0  0  0  0  0  0  0  0  0  0  0
   24.5655   56.9741   86.0875 C   0  0  0  0  0  0  0  0  0  0  0  0
   27.6234   60.3669   85.3562 O   0  0  0  0  0  0  0  0  0  0  0  0
   25.5222   54.9551   90.7770 N   0  0  0  0  0  0  0  0  0  0  0  0
   26.4560   55.7702   91.4415 C   0  0  0  0  0  0  0  0  0  0  0  0
   23.6861   55.3537   89.2427 C   0  0  0  0  0  0  0  0  0  0  0  0
   28.6472   55.3063   89.9795 O   0  0  0  0  0  0  0  0  0  0  0  0
   22.2760   56.0518   86.9265 C   0  0  0  0  0  0  0  0  0  0  0  0
   28.2423   60.0886   88.5003 O   0  0  0  0  0  0  0  0  0  0  0  0
  1  3  2  0
  2  7  1  0
  2 18  1  0
  3  5  1  0
  3 15  1  0
  4  7  1  0
  4 26  2  0
  5 20  1  0
  6 18  1  0
  6 22  1  0
  6 24  2  0
  7 24  1  0
  8 16  1  0
  9 10  1  0
  9 23  1  0
  9 25  1  0
 10 13  1  0
 10 16  1  0
 11 14  2  0
 11 24  1  0
 12 15  1  0
 12 20  1  0
 14 20  1  0
 14 26  1  0
 15 19  1  0
 16 17  1  0
 17 19  1  0
 17 27  1  0
 19 21  1  0
 22 23  1  0
M  END
>  <ID>  (1) 
conformer_0

$$$$
