
     RDKit          3D

 16 16  0  0  0  0  0  0  0  0999 V2000
   28.6225   59.3733   87.6980 C   0  0  0  0  0  0  0  0  0  0  0  0
   26.3885   56.9974   87.9639 C   0  0  0  0  0  0  0  0  0  0  0  0
   26.0163   55.8343   90.4744 C   0  0  0  0  0  0  0  0  0  0  0  0
   27.9089   58.5825   86.5701 C   0  0  0  0  0  0  0  0  0  0  0  0
   27.0399   56.9369   90.4356 C   0  0  0  0  0  0  0  0  0  0  0  0
   27.8515   56.8987   91.5841 O   0  0  0  0  0  0  0  0  0  0  0  0
   28.0810   59.1624   85.2471 N   0  0  0  0  0  0  0  0  0  0  0  0
   25.9067   57.5047   85.5612 O   0  0  0  0  0  0  0  0  0  0  0  0
   23.5982   55.1604   90.5006 C   0  0  0  0  0  0  0  0  0  0  0  0
   24.7046   55.9735   89.7421 C   0  0  0  0  0  0  0  0  0  0  0  0
   23.2794   56.1878   87.4762 C   0  0  0  0  0  0  0  0  0  0  0  0
   24.8918   56.5276   88.2359 C   0  0  0  0  0  0  0  0  0  0  0  0
   26.2316   54.7112   91.1716 O   0  0  0  0  0  0  0  0  0  0  0  0
   26.5674   57.8941   86.7151 C   0  0  0  0  0  0  0  0  0  0  0  0
   27.6147   57.1458   88.9855 C   0  0  0  0  0  0  0  0  0  0  0  0
   28.5630   56.0713   88.6600 O   0  0  0  0  0  0  0  0  0  0  0  0
  1  4  1  0
  2 12  1  0
  2 14  1  0
  2 15  1  0
  3  5  1  0
  3 10  1  0
  3 13  1  0
  4  7  1  0
  4 14  1  0
  5  6  1  0
  5 15  1  0
  8 14  1  0
  9 10  1  0
 10 12  2  0
 11 12  1  0
 15 16  1  0
M  END
>  <ID>  (1) 
conformer_0

$$$$
