
     RDKit          3D

 27 29  0  0  0  0  0  0  0  0999 V2000
   24.3947   55.5221   90.4020 C   0  0  0  0  0  0  0  0  0  0  0  0
   25.1545   55.3899   91.6892 C   0  0  0  0  0  0  0  0  0  0  0  0
   27.5883   58.5536   88.5199 C   0  0  0  0  0  0  0  0  0  0  0  0
   27.3077   61.3727   84.3562 C   0  0  0  0  0  0  0  0  0  0  0  0
   28.7704   55.7004   90.2065 O   0  0  0  0  0  0  0  0  0  0  0  0
   23.0958   55.0558   90.0361 C   0  0  0  0  0  0  0  0  0  0  0  0
   24.6671   56.5543   88.3436 N   0  0  0  0  0  0  0  0  0  0  0  0
   26.7126   59.0606   84.9222 C   0  0  0  0  0  0  0  0  0  0  0  0
   21.5291   53.2726   90.3112 O   0  0  0  0  0  0  0  0  0  0  0  0
   27.7387   59.5300   86.0285 C   0  0  0  0  0  0  0  0  0  0  0  0
   28.3761   58.1866   89.8719 N   0  0  0  0  0  0  0  0  0  0  0  0
   21.4386   55.0550   88.2358 O   0  0  0  0  0  0  0  0  0  0  0  0
   26.7234   57.0832   86.7850 O   0  0  0  0  0  0  0  0  0  0  0  0
   28.3296   60.8046   85.3343 C   0  0  0  0  0  0  0  0  0  0  0  0
   27.6631   57.1482   87.6800 C   0  0  0  0  0  0  0  0  0  0  0  0
   20.1648   55.2887   88.3956 C   0  0  0  0  0  0  0  0  0  0  0  0
   28.5093   59.4138   87.4850 C   0  0  0  0  0  0  0  0  0  0  0  0
   28.8890   56.5845   87.6204 O   0  0  0  0  0  0  0  0  0  0  0  0
   25.1869   56.2455   89.5729 C   0  0  0  0  0  0  0  0  0  0  0  0
   22.5457   54.0687   92.1490 O   0  0  0  0  0  0  0  0  0  0  0  0
   26.3288   56.2605   91.6074 C   0  0  0  0  0  0  0  0  0  0  0  0
   22.5932   55.4702   88.7748 C   0  0  0  0  0  0  0  0  0  0  0  0
   23.4112   56.2483   87.9777 C   0  0  0  0  0  0  0  0  0  0  0  0
   26.2506   60.2972   84.1521 C   0  0  0  0  0  0  0  0  0  0  0  0
   26.5389   56.6060   90.1584 N   0  0  0  0  0  0  0  0  0  0  0  0
   28.0622   56.8070   90.1057 C   0  0  0  0  0  0  0  0  0  0  0  0
   22.3482   54.1029   90.8538 C   0  0  0  0  0  0  0  0  0  0  0  0
  1  2  1  0
  1  6  1  0
  1 19  2  0
  2 21  1  0
  3 11  1  0
  3 15  1  0
  3 17  1  0
  4 14  1  0
  4 24  1  0
  5 26  2  0
  6 22  1  0
  6 27  1  0
  7 19  1  0
  7 23  1  0
  8 10  1  0
  8 24  1  0
  9 27  2  0
 10 14  1  0
 10 17  1  0
 11 26  1  0
 12 16  1  0
 12 22  1  0
 13 15  2  0
 15 18  1  0
 19 25  1  0
 20 27  1  0
 21 25  1  0
 22 23  2  0
 25 26  1  0
M  END
>  <ID>  (1) 
conformer_0

$$$$
