
     RDKit          3D

 16 17  0  0  0  0  0  0  0  0999 V2000
   24.9261   57.0779   86.0248 N   0  0  0  0  0  0  0  0  0  0  0  0
   26.0658   55.9763   90.5917 S   0  0  0  0  0  0  0  0  0  0  0  0
   23.0161   54.7036   90.6643 C   0  0  0  0  0  0  0  0  0  0  0  0
   24.1055   54.5964   89.7025 C   0  0  0  0  0  0  0  0  0  0  0  0
   24.3759   56.4276   87.0941 N   0  0  0  0  0  0  0  0  0  0  0  0
   28.5736   55.4767   89.7453 O   0  0  0  0  0  0  0  0  0  0  0  0
   27.7377   56.6961   90.0032 C   0  0  0  0  0  0  0  0  0  0  0  0
   27.6457   57.6292   88.5748 C   0  0  0  0  0  0  0  0  0  0  0  0
   23.0629   55.8121   86.8822 C   0  0  0  0  0  0  0  0  0  0  0  0
   26.0918   57.5845   86.4932 C   0  0  0  0  0  0  0  0  0  0  0  0
   24.8687   55.8439   89.4902 C   0  0  0  0  0  0  0  0  0  0  0  0
   28.1242   57.3693   91.2006 O   0  0  0  0  0  0  0  0  0  0  0  0
   26.2986   57.2667   87.8283 C   0  0  0  0  0  0  0  0  0  0  0  0
   25.1673   56.4922   88.2013 C   0  0  0  0  0  0  0  0  0  0  0  0
   28.7967   57.3588   87.4873 C   0  0  0  0  0  0  0  0  0  0  0  0
   27.8912   59.0979   88.9038 N   0  0  0  0  0  0  0  0  0  0  0  0
  1  5  1  0
  1 10  1  0
  2  7  1  0
  2 11  1  0
  3  4  1  0
  4 11  1  0
  5  9  1  0
  5 14  1  0
  6  7  1  0
  7  8  1  0
  7 12  1  0
  8 13  1  0
  8 15  1  0
  8 16  1  0
 10 13  1  0
 11 14  1  0
 13 14  2  0
M  END
>  <ID>  (1) 
conformer_0

$$$$
