
     RDKit          3D

 20 21  0  0  0  0  0  0  0  0999 V2000
   27.1776   57.9924   87.9343 C   0  0  0  0  0  0  0  0  0  0  0  0
   26.6419   56.2013   89.8598 C   0  0  0  0  0  0  0  0  0  0  0  0
   28.3375   58.9488   87.3099 C   0  0  0  0  0  0  0  0  0  0  0  0
   28.9128   59.7360   88.3440 O   0  0  0  0  0  0  0  0  0  0  0  0
   28.6242   56.0048   88.3740 O   0  0  0  0  0  0  0  0  0  0  0  0
   27.5348   59.2870   85.9905 C   0  0  0  0  0  0  0  0  0  0  0  0
   24.4478   55.2509   90.7389 C   0  0  0  0  0  0  0  0  0  0  0  0
   23.1117   54.9743   90.5639 N   0  0  0  0  0  0  0  0  0  0  0  0
   24.4309   56.3976   88.7227 C   0  0  0  0  0  0  0  0  0  0  0  0
   25.1638   55.9411   89.7879 N   0  0  0  0  0  0  0  0  0  0  0  0
   22.3366   56.8413   87.5423 F   0  0  0  0  0  0  0  0  0  0  0  0
   27.3175   56.5824   88.5545 C   0  0  0  0  0  0  0  0  0  0  0  0
   27.1647   56.5173   92.3184 O   0  0  0  0  0  0  0  0  0  0  0  0
   21.2294   54.9667   89.2701 O   0  0  0  0  0  0  0  0  0  0  0  0
   28.3975   57.6397   90.6650 O   0  0  0  0  0  0  0  0  0  0  0  0
   22.4028   55.3512   89.4565 C   0  0  0  0  0  0  0  0  0  0  0  0
   26.3572   57.9960   86.4148 S   0  0  0  0  0  0  0  0  0  0  0  0
   24.9789   54.8324   91.7860 O   0  0  0  0  0  0  0  0  0  0  0  0
   23.0765   56.2095   88.5334 C   0  0  0  0  0  0  0  0  0  0  0  0
   27.3270   56.8977   91.0703 C   0  0  0  0  0  0  0  0  0  0  0  0
  1  3  1  0
  1 12  1  0
  1 17  1  0
  2 10  1  0
  2 12  1  0
  2 20  1  0
  3  4  1  0
  3  6  1  0
  5 12  1  0
  6 17  1  0
  7  8  1  0
  7 10  1  0
  7 18  2  0
  8 16  1  0
  9 10  1  0
  9 19  2  0
 11 19  1  0
 13 20  2  0
 14 16  2  0
 15 20  1  0
 16 19  1  0
M  END
>  <ID>  (1) 
conformer_0

$$$$
