
     RDKit          3D

 26 28  0  0  0  0  0  0  0  0999 V2000
  -20.2283   19.7813   70.3254 O   0  0  0  0  0  0  0  0  0  0  0  0
  -19.1581   20.3194   70.1301 C   0  0  0  0  0  0  0  0  0  0  0  0
  -18.1513   20.3395   71.1004 N   0  0  0  0  0  0  0  0  0  0  0  0
  -18.4504   19.9353   72.4460 C   0  0  0  0  0  0  0  0  0  0  0  0
  -18.0500   20.9086   73.5091 C   0  0  0  0  0  0  0  0  0  0  0  0
  -16.8452   20.7917   70.8178 C   0  0  0  0  0  0  0  0  0  0  0  0
  -16.7033   21.4948   69.5653 C   0  0  0  0  0  0  0  0  0  0  0  0
  -19.0511   21.1765   68.9440 C   0  0  0  0  0  0  0  0  0  0  0  0
  -15.3866   21.8898   69.2178 N   0  0  0  0  0  0  0  0  0  0  0  0
  -17.4145   20.2465   74.6558 C   0  0  0  0  0  0  0  0  0  0  0  0
  -18.2313   22.1891   73.4630 C   0  0  0  0  0  0  0  0  0  0  0  0
  -17.7121   21.5465   68.6265 C   0  0  0  0  0  0  0  0  0  0  0  0
  -17.2449   22.1338   67.3044 C   0  0  0  0  0  0  0  0  0  0  0  0
  -14.5994   22.3241   70.1941 C   0  0  0  0  0  0  0  0  0  0  0  0
  -16.1254   22.5711   67.1390 N   0  0  0  0  0  0  0  0  0  0  0  0
  -14.8227   23.4993   70.9294 C   0  0  0  0  0  0  0  0  0  0  0  0
  -18.0324   21.7835   66.2896 O   0  0  0  0  0  0  0  0  0  0  0  0
  -17.8303   23.0561   74.4788 C   0  0  0  0  0  0  0  0  0  0  0  0
  -15.1113   22.3915   67.9201 C   0  0  0  0  0  0  0  0  0  0  0  0
  -17.2259   18.8211   74.7833 C   0  0  0  0  0  0  0  0  0  0  0  0
  -16.9887   20.9651   75.6985 C   0  0  0  0  0  0  0  0  0  0  0  0
  -16.0451   18.3842   75.1590 O   0  0  0  0  0  0  0  0  0  0  0  0
  -18.0893   17.9258   74.2546 N   0  0  0  0  0  0  0  0  0  0  0  0
  -17.1640   22.3365   75.4941 C   0  0  0  0  0  0  0  0  0  0  0  0
  -17.9241   16.5735   74.2318 C   0  0  0  0  0  0  0  0  0  0  0  0
  -13.7442   22.5859   67.5257 C   0  0  0  0  0  0  0  0  0  0  0  0
  1  2  2  0
  2  3  1  0
  3  4  1  0
  4  5  1  0
  3  6  1  0
  6  7  1  0
  2  8  1  0
  7  9  1  0
  5 10  1  0
  5 11  2  0
  7 12  2  0
  8 12  1  0
 12 13  1  0
  9 14  1  0
 13 15  1  0
 14 16  1  0
 13 17  2  0
 11 18  1  0
  9 19  1  0
 15 19  2  0
 10 20  1  0
 10 21  2  0
 20 22  2  0
 20 23  1  0
 18 24  2  0
 21 24  1  0
 23 25  1  0
 19 26  1  0
M  END
>  <ID>  (1) 
conformer_0

$$$$
