
     RDKit          3D

 18 19  0  0  0  0  0  0  0  0999 V2000
  -18.1424   22.5655   73.9954 C   0  0  0  0  0  0  0  0  0  0  0  0
  -17.4275   21.3857   73.9264 C   0  0  0  0  0  0  0  0  0  0  0  0
  -18.0499   20.3527   73.1949 N   0  0  0  0  0  0  0  0  0  0  0  0
  -16.1112   21.7175   73.2187 C   0  0  0  0  0  0  0  0  0  0  0  0
  -18.1698   19.0614   73.6445 C   0  0  0  0  0  0  0  0  0  0  0  0
  -17.8511   18.6280   74.8550 C   0  0  0  0  0  0  0  0  0  0  0  0
  -16.2502   22.1252   71.9924 O   0  0  0  0  0  0  0  0  0  0  0  0
  -15.1564   20.7654   73.3647 O   0  0  0  0  0  0  0  0  0  0  0  0
  -17.7714   17.1358   75.0357 C   0  0  0  0  0  0  0  0  0  0  0  0
  -18.6824   18.1358   72.6918 N   0  0  0  0  0  0  0  0  0  0  0  0
  -16.4194   21.2915   70.9671 C   0  0  0  0  0  0  0  0  0  0  0  0
  -18.7367   16.4353   74.2674 N   0  0  0  0  0  0  0  0  0  0  0  0
  -19.0939   20.8580   72.2912 C   0  0  0  0  0  0  0  0  0  0  0  0
  -15.5307   21.4870   69.8982 C   0  0  0  0  0  0  0  0  0  0  0  0
  -17.8722   21.4957   70.3505 C   0  0  0  0  0  0  0  0  0  0  0  0
  -18.9756   16.8771   73.0251 C   0  0  0  0  0  0  0  0  0  0  0  0
  -15.5209   20.4357   68.9350 O   0  0  0  0  0  0  0  0  0  0  0  0
  -18.8693   21.6886   71.1385 C   0  0  0  0  0  0  0  0  0  0  0  0
  1  2  1  0
  2  3  1  0
  2  4  1  0
  3  5  1  0
  5  6  2  0
  4  7  1  0
  4  8  1  0
  6  9  1  0
  5 10  1  0
  7 11  1  0
  9 12  2  0
  3 13  1  0
 11 14  1  0
 11 15  1  0
 10 16  2  0
 12 16  1  0
 14 17  1  0
 13 18  1  0
 15 18  1  0
M  END
>  <ID>  (1) 
conformer_0

$$$$
