
     RDKit          3D

 26 30  0  0  0  0  0  0  0  0999 V2000
  -19.6849   19.4508   71.7990 O   0  0  0  0  0  0  0  0  0  0  0  0
  -19.0022   20.1380   71.1527 C   0  0  0  0  0  0  0  0  0  0  0  0
  -17.8142   20.7714   71.4243 N   0  0  0  0  0  0  0  0  0  0  0  0
  -17.2449   20.4094   72.7478 C   0  0  0  0  0  0  0  0  0  0  0  0
  -17.8418   21.1472   73.8260 C   0  0  0  0  0  0  0  0  0  0  0  0
  -17.1780   21.5636   70.5131 C   0  0  0  0  0  0  0  0  0  0  0  0
  -15.9019   22.0432   70.8142 C   0  0  0  0  0  0  0  0  0  0  0  0
  -17.6562   21.8700   69.3290 N   0  0  0  0  0  0  0  0  0  0  0  0
  -17.2884   18.9802   73.1864 C   0  0  0  0  0  0  0  0  0  0  0  0
  -18.8235   21.2564   68.9697 C   0  0  0  0  0  0  0  0  0  0  0  0
  -18.3124   18.4334   73.7381 N   0  0  0  0  0  0  0  0  0  0  0  0
  -15.2640   21.7265   72.0390 C   0  0  0  0  0  0  0  0  0  0  0  0
  -15.6789   20.8115   72.8360 C   0  0  0  0  0  0  0  0  0  0  0  0
  -19.2996   21.5701   67.6570 C   0  0  0  0  0  0  0  0  0  0  0  0
  -18.1991   18.4704   75.1365 C   0  0  0  0  0  0  0  0  0  0  0  0
  -17.7274   17.0981   75.5100 C   0  0  0  0  0  0  0  0  0  0  0  0
  -15.3799   21.2211   74.2449 N   0  0  0  0  0  0  0  0  0  0  0  0
  -19.5949   20.4175   69.7130 C   0  0  0  0  0  0  0  0  0  0  0  0
  -18.4953   22.4611   66.7427 C   0  0  0  0  0  0  0  0  0  0  0  0
  -16.9245   22.7401   68.5323 C   0  0  0  0  0  0  0  0  0  0  0  0
  -17.4801   23.1181   67.2829 C   0  0  0  0  0  0  0  0  0  0  0  0
  -16.3933   17.0157   75.2238 O   0  0  0  0  0  0  0  0  0  0  0  0
  -16.6490   21.2880   75.0548 C   0  0  0  0  0  0  0  0  0  0  0  0
  -16.6725   23.9621   66.2969 C   0  0  0  0  0  0  0  0  0  0  0  0
  -15.5649   22.9711   69.6007 C   0  0  0  0  0  0  0  0  0  0  0  0
  -16.1869   23.3447   65.1758 O   0  0  0  0  0  0  0  0  0  0  0  0
  1  2  2  0
  2  3  1  0
  3  4  1  0
  4  5  1  0
  3  6  1  0
  6  7  2  0
  6  8  1  0
  4  9  1  0
  8 10  1  0
  9 11  1  0
  7 12  1  0
  4 13  1  0
 12 13  1  0
 10 14  2  0
 11 15  1  0
 15 16  1  0
 13 17  1  0
  2 18  1  0
 10 18  1  0
 14 19  1  0
  8 20  1  0
 19 21  2  0
 20 21  1  0
 16 22  1  0
  5 23  1  0
 17 23  1  0
 21 24  1  0
  7 25  1  0
 20 25  2  0
 24 26  1  0
M  END
>  <ID>  (1) 
conformer_0

$$$$
