
     RDKit          3D

 25 28  0  0  0  0  0  0  0  0999 V2000
  -19.6849   19.4508   71.7990 O   0  0  0  0  0  0  0  0  0  0  0  0
  -19.0022   20.1380   71.1527 C   0  0  0  0  0  0  0  0  0  0  0  0
  -17.8142   20.7714   71.4243 N   0  0  0  0  0  0  0  0  0  0  0  0
  -17.2449   20.4094   72.7478 C   0  0  0  0  0  0  0  0  0  0  0  0
  -17.8418   21.1472   73.8260 C   0  0  0  0  0  0  0  0  0  0  0  0
  -17.1780   21.5636   70.5131 C   0  0  0  0  0  0  0  0  0  0  0  0
  -15.9019   22.0432   70.8142 C   0  0  0  0  0  0  0  0  0  0  0  0
  -17.6562   21.8700   69.3290 N   0  0  0  0  0  0  0  0  0  0  0  0
  -17.2884   18.9802   73.1864 C   0  0  0  0  0  0  0  0  0  0  0  0
  -18.8235   21.2564   68.9697 C   0  0  0  0  0  0  0  0  0  0  0  0
  -18.3124   18.4334   73.7381 N   0  0  0  0  0  0  0  0  0  0  0  0
  -15.2640   21.7265   72.0390 C   0  0  0  0  0  0  0  0  0  0  0  0
  -15.6789   20.8115   72.8360 C   0  0  0  0  0  0  0  0  0  0  0  0
  -19.2996   21.5701   67.6570 C   0  0  0  0  0  0  0  0  0  0  0  0
  -18.1991   18.4704   75.1365 C   0  0  0  0  0  0  0  0  0  0  0  0
  -18.3533   22.4295   66.9590 C   0  0  0  0  0  0  0  0  0  0  0  0
  -15.4279   23.0157   69.8396 C   0  0  0  0  0  0  0  0  0  0  0  0
  -16.9678   22.6907   68.5813 C   0  0  0  0  0  0  0  0  0  0  0  0
  -17.7192   17.0983   75.5030 C   0  0  0  0  0  0  0  0  0  0  0  0
  -17.5556   23.0750   67.4501 N   0  0  0  0  0  0  0  0  0  0  0  0
  -18.4475   16.1106   75.4535 O   0  0  0  0  0  0  0  0  0  0  0  0
  -15.9072   23.2660   68.7625 C   0  0  0  0  0  0  0  0  0  0  0  0
  -16.4601   16.9347   74.6839 O   0  0  0  0  0  0  0  0  0  0  0  0
  -14.0551   23.2628   70.2965 O   0  0  0  0  0  0  0  0  0  0  0  0
  -19.6069   20.3609   69.8107 C   0  0  0  0  0  0  0  0  0  0  0  0
  1  2  2  0
  2  3  1  0
  3  4  1  0
  4  5  1  0
  3  6  1  0
  6  7  2  0
  6  8  1  0
  4  9  1  0
  8 10  1  0
  9 11  1  0
  7 12  1  0
  4 13  1  0
 12 13  1  0
 10 14  2  0
 11 15  1  0
 14 16  1  0
  7 17  1  0
  8 18  1  0
 15 19  1  0
 16 20  2  0
 18 20  1  0
 19 21  1  0
 17 22  1  0
 18 22  2  0
 19 23  1  0
 17 24  2  0
  2 25  1  0
 10 25  1  0
M  END
>  <ID>  (1) 
conformer_0

$$$$
