
     RDKit          3D

 13 14  0  0  0  0  0  0  0  0999 V2000
  -17.2949   21.8470   75.6805 C   0  0  0  0  0  0  0  0  0  0  0  0
  -16.8629   21.1171   74.6007 C   0  0  0  0  0  0  0  0  0  0  0  0
  -17.5988   21.0965   73.5787 N   0  0  0  0  0  0  0  0  0  0  0  0
  -17.9515   22.1490   72.9679 C   0  0  0  0  0  0  0  0  0  0  0  0
  -18.2097   20.1005   73.1017 C   0  0  0  0  0  0  0  0  0  0  0  0
  -16.3408   19.7513   75.1136 C   0  0  0  0  0  0  0  0  0  0  0  0
  -18.0807   18.6974   73.3681 C   0  0  0  0  0  0  0  0  0  0  0  0
  -19.0640   21.8430   72.0930 N   0  0  0  0  0  0  0  0  0  0  0  0
  -19.0895   20.5194   72.1277 C   0  0  0  0  0  0  0  0  0  0  0  0
  -17.3513   18.6422   74.8019 C   0  0  0  0  0  0  0  0  0  0  0  0
  -19.2830   17.9482   73.6156 O   0  0  0  0  0  0  0  0  0  0  0  0
  -16.7071   17.3055   74.9592 O   0  0  0  0  0  0  0  0  0  0  0  0
  -15.1696   19.5041   74.3549 O   0  0  0  0  0  0  0  0  0  0  0  0
  1  2  1  0
  2  3  1  0
  3  4  1  0
  3  5  1  0
  2  6  1  0
  5  7  1  0
  4  8  2  0
  5  9  2  0
  8  9  1  0
  6 10  1  0
  7 10  1  0
  7 11  1  0
 10 12  1  0
  6 13  1  0
M  END
>  <ID>  (1) 
conformer_0

$$$$
