
     RDKit          3D

 26 30  0  0  0  0  0  0  0  0999 V2000
  -19.6849   19.4508   71.7990 O   0  0  0  0  0  0  0  0  0  0  0  0
  -19.0022   20.1380   71.1527 C   0  0  0  0  0  0  0  0  0  0  0  0
  -17.8142   20.7714   71.4243 N   0  0  0  0  0  0  0  0  0  0  0  0
  -17.2449   20.4094   72.7478 C   0  0  0  0  0  0  0  0  0  0  0  0
  -17.8418   21.1472   73.8260 C   0  0  0  0  0  0  0  0  0  0  0  0
  -17.1780   21.5636   70.5131 C   0  0  0  0  0  0  0  0  0  0  0  0
  -15.9019   22.0432   70.8142 C   0  0  0  0  0  0  0  0  0  0  0  0
  -17.6562   21.8700   69.3290 N   0  0  0  0  0  0  0  0  0  0  0  0
  -17.2884   18.9802   73.1864 C   0  0  0  0  0  0  0  0  0  0  0  0
  -18.8235   21.2564   68.9697 C   0  0  0  0  0  0  0  0  0  0  0  0
  -18.3124   18.4334   73.7381 N   0  0  0  0  0  0  0  0  0  0  0  0
  -15.2640   21.7265   72.0390 C   0  0  0  0  0  0  0  0  0  0  0  0
  -15.6789   20.8115   72.8360 C   0  0  0  0  0  0  0  0  0  0  0  0
  -19.2996   21.5701   67.6570 C   0  0  0  0  0  0  0  0  0  0  0  0
  -18.1991   18.4704   75.1365 C   0  0  0  0  0  0  0  0  0  0  0  0
  -18.6141   17.0168   73.2624 C   0  0  0  0  0  0  0  0  0  0  0  0
  -15.3784   21.2235   74.2412 N   0  0  0  0  0  0  0  0  0  0  0  0
  -19.5236   20.4214   69.8456 C   0  0  0  0  0  0  0  0  0  0  0  0
  -20.4655   20.9904   67.2571 C   0  0  0  0  0  0  0  0  0  0  0  0
  -15.3869   22.8917   69.7766 C   0  0  0  0  0  0  0  0  0  0  0  0
  -20.6893   19.8941   69.3705 C   0  0  0  0  0  0  0  0  0  0  0  0
  -16.7278   21.4387   74.9370 C   0  0  0  0  0  0  0  0  0  0  0  0
  -14.3321   23.4079   69.5943 O   0  0  0  0  0  0  0  0  0  0  0  0
  -21.1840   20.2016   68.1135 C   0  0  0  0  0  0  0  0  0  0  0  0
  -16.6536   22.7545   68.7463 C   0  0  0  0  0  0  0  0  0  0  0  0
  -16.6483   23.1549   67.5563 O   0  0  0  0  0  0  0  0  0  0  0  0
  1  2  2  0
  2  3  1  0
  3  4  1  0
  4  5  1  0
  3  6  1  0
  6  7  2  0
  6  8  1  0
  4  9  1  0
  8 10  1  0
  9 11  1  0
  7 12  1  0
  4 13  1  0
 12 13  1  0
 10 14  2  0
 11 15  1  0
 11 16  1  0
 13 17  1  0
  2 18  1  0
 10 18  1  0
 14 19  1  0
  7 20  1  0
 18 21  2  0
  5 22  1  0
 17 22  1  0
 20 23  2  0
 19 24  2  0
 21 24  1  0
  8 25  1  0
 20 25  1  0
 25 26  2  0
M  END
>  <ID>  (1) 
conformer_0

$$$$
