
     RDKit          3D

 26 31  0  0  0  0  0  0  0  0999 V2000
  -19.6849   19.4508   71.7990 O   0  0  0  0  0  0  0  0  0  0  0  0
  -19.0022   20.1380   71.1527 C   0  0  0  0  0  0  0  0  0  0  0  0
  -17.8142   20.7714   71.4243 N   0  0  0  0  0  0  0  0  0  0  0  0
  -17.2449   20.4094   72.7478 C   0  0  0  0  0  0  0  0  0  0  0  0
  -17.8418   21.1472   73.8260 C   0  0  0  0  0  0  0  0  0  0  0  0
  -17.1780   21.5636   70.5131 C   0  0  0  0  0  0  0  0  0  0  0  0
  -15.9019   22.0432   70.8142 C   0  0  0  0  0  0  0  0  0  0  0  0
  -17.6562   21.8700   69.3290 N   0  0  0  0  0  0  0  0  0  0  0  0
  -17.2884   18.9802   73.1864 C   0  0  0  0  0  0  0  0  0  0  0  0
  -18.8235   21.2564   68.9697 C   0  0  0  0  0  0  0  0  0  0  0  0
  -18.3124   18.4334   73.7381 N   0  0  0  0  0  0  0  0  0  0  0  0
  -15.2640   21.7265   72.0390 C   0  0  0  0  0  0  0  0  0  0  0  0
  -15.6789   20.8115   72.8360 C   0  0  0  0  0  0  0  0  0  0  0  0
  -19.2996   21.5701   67.6570 C   0  0  0  0  0  0  0  0  0  0  0  0
  -18.1991   18.4704   75.1365 C   0  0  0  0  0  0  0  0  0  0  0  0
  -18.3533   22.4295   66.9590 C   0  0  0  0  0  0  0  0  0  0  0  0
  -17.1477   22.8884   68.5752 C   0  0  0  0  0  0  0  0  0  0  0  0
  -19.5047   20.3540   69.7437 C   0  0  0  0  0  0  0  0  0  0  0  0
  -15.4642   21.3365   74.2025 N   0  0  0  0  0  0  0  0  0  0  0  0
  -15.9704   23.5432   69.1713 C   0  0  0  0  0  0  0  0  0  0  0  0
  -15.3533   23.0884   70.1906 C   0  0  0  0  0  0  0  0  0  0  0  0
  -14.1817   23.2646   70.7072 N   0  0  0  0  0  0  0  0  0  0  0  0
  -13.9226   22.5299   71.7700 C   0  0  0  0  0  0  0  0  0  0  0  0
  -17.4397   23.1248   67.3614 C   0  0  0  0  0  0  0  0  0  0  0  0
  -18.5038   16.9629   73.2660 C   0  0  0  0  0  0  0  0  0  0  0  0
  -16.7927   21.4709   74.9355 C   0  0  0  0  0  0  0  0  0  0  0  0
  1  2  2  0
  2  3  1  0
  3  4  1  0
  4  5  1  0
  3  6  1  0
  6  7  2  0
  6  8  1  0
  4  9  1  0
  8 10  1  0
  9 11  1  0
  7 12  1  0
  4 13  1  0
 12 13  1  0
 10 14  2  0
 11 15  1  0
 14 16  1  0
  8 17  1  0
  2 18  1  0
 10 18  1  0
 13 19  1  0
 17 20  2  0
  7 21  1  0
 20 21  1  0
 21 22  2  0
 12 23  2  0
 22 23  1  0
 16 24  2  0
 17 24  1  0
 11 25  1  0
  5 26  1  0
 19 26  1  0
M  END
>  <ID>  (1) 
conformer_0

$$$$
