
     RDKit          3D

 22 24  0  0  0  0  0  0  0  0999 V2000
  -20.2283   19.7813   70.3254 O   0  0  0  0  0  0  0  0  0  0  0  0
  -19.1581   20.3194   70.1301 C   0  0  0  0  0  0  0  0  0  0  0  0
  -18.1513   20.3395   71.1004 N   0  0  0  0  0  0  0  0  0  0  0  0
  -18.4504   19.9353   72.4460 C   0  0  0  0  0  0  0  0  0  0  0  0
  -18.0500   20.9086   73.5091 C   0  0  0  0  0  0  0  0  0  0  0  0
  -16.8452   20.7917   70.8178 C   0  0  0  0  0  0  0  0  0  0  0  0
  -16.7033   21.4948   69.5653 C   0  0  0  0  0  0  0  0  0  0  0  0
  -19.0511   21.1765   68.9440 C   0  0  0  0  0  0  0  0  0  0  0  0
  -17.5960   21.2361   68.6399 N   0  0  0  0  0  0  0  0  0  0  0  0
  -15.6358   22.1914   69.3065 C   0  0  0  0  0  0  0  0  0  0  0  0
  -17.3723   22.1972   67.4680 C   0  0  0  0  0  0  0  0  0  0  0  0
  -18.3623   18.6540   72.6211 C   0  0  0  0  0  0  0  0  0  0  0  0
  -18.4370   22.1155   73.4748 C   0  0  0  0  0  0  0  0  0  0  0  0
  -18.5467   18.1399   74.0403 N   0  0  0  0  0  0  0  0  0  0  0  0
  -16.1180   22.6751   67.4463 C   0  0  0  0  0  0  0  0  0  0  0  0
  -17.6615   17.0970   74.4897 C   0  0  0  0  0  0  0  0  0  0  0  0
  -18.0090   23.0523   74.5438 C   0  0  0  0  0  0  0  0  0  0  0  0
  -17.6027   21.5107   66.1418 C   0  0  0  0  0  0  0  0  0  0  0  0
  -17.6912   16.9532   75.8418 C   0  0  0  0  0  0  0  0  0  0  0  0
  -17.2760   22.1657   75.4063 C   0  0  0  0  0  0  0  0  0  0  0  0
  -15.0848   21.9789   66.7754 O   0  0  0  0  0  0  0  0  0  0  0  0
  -17.2690   20.3871   74.6902 S   0  0  0  0  0  0  0  0  0  0  0  0
  1  2  2  0
  2  3  1  0
  3  4  1  0
  4  5  1  0
  3  6  1  0
  6  7  1  0
  2  8  1  0
  7  9  1  0
  8  9  1  0
  7 10  2  0
  9 11  1  0
  4 12  1  0
  5 13  2  0
 12 14  1  0
 10 15  1  0
 11 15  1  0
 14 16  1  0
 13 17  1  0
 11 18  1  0
 16 19  1  0
 17 20  2  0
 15 21  1  0
  5 22  1  0
 20 22  1  0
M  END
>  <ID>  (1) 
conformer_0

$$$$
