
     RDKit          3D

 25 27  0  0  0  0  0  0  0  0999 V2000
  -20.2283   19.7813   70.3254 O   0  0  0  0  0  0  0  0  0  0  0  0
  -19.1581   20.3194   70.1301 C   0  0  0  0  0  0  0  0  0  0  0  0
  -18.1513   20.3395   71.1004 N   0  0  0  0  0  0  0  0  0  0  0  0
  -18.4504   19.9353   72.4460 C   0  0  0  0  0  0  0  0  0  0  0  0
  -17.9594   18.5827   72.7935 C   0  0  0  0  0  0  0  0  0  0  0  0
  -18.8261   20.6221   68.8070 C   0  0  0  0  0  0  0  0  0  0  0  0
  -17.8914   21.7665   68.6298 C   0  0  0  0  0  0  0  0  0  0  0  0
  -19.9064   20.9383   67.8553 C   0  0  0  0  0  0  0  0  0  0  0  0
  -19.5807   22.0033   66.8988 C   0  0  0  0  0  0  0  0  0  0  0  0
  -16.4082   21.4176   68.5160 C   0  0  0  0  0  0  0  0  0  0  0  0
  -18.1096   22.1489   67.1147 N   0  0  0  0  0  0  0  0  0  0  0  0
  -18.3176   17.9683   74.0491 C   0  0  0  0  0  0  0  0  0  0  0  0
  -17.7776   21.0527   73.2532 C   0  0  0  0  0  0  0  0  0  0  0  0
  -17.1990   22.6754   66.3139 C   0  0  0  0  0  0  0  0  0  0  0  0
  -17.5412   23.1391   65.1992 O   0  0  0  0  0  0  0  0  0  0  0  0
  -15.8273   22.7596   66.7100 C   0  0  0  0  0  0  0  0  0  0  0  0
  -18.0248   22.3089   72.9889 C   0  0  0  0  0  0  0  0  0  0  0  0
  -18.2614   16.6099   74.1668 O   0  0  0  0  0  0  0  0  0  0  0  0
  -15.0162   23.7553   66.1378 C   0  0  0  0  0  0  0  0  0  0  0  0
  -16.8068   20.7402   74.3224 C   0  0  0  0  0  0  0  0  0  0  0  0
  -16.2854   21.7268   75.1567 C   0  0  0  0  0  0  0  0  0  0  0  0
  -17.2953   23.3794   73.8428 C   0  0  0  0  0  0  0  0  0  0  0  0
  -15.3502   21.2677   76.1307 O   0  0  0  0  0  0  0  0  0  0  0  0
  -15.5887   22.8524   68.2300 C   0  0  0  0  0  0  0  0  0  0  0  0
  -16.5530   22.8949   74.9940 C   0  0  0  0  0  0  0  0  0  0  0  0
  1  2  2  0
  2  3  1  0
  3  4  1  0
  4  5  1  0
  2  6  1  0
  6  7  1  0
  6  8  1  0
  8  9  1  0
  7 10  1  0
  7 11  1  0
  9 11  1  0
  5 12  1  0
  4 13  1  0
 11 14  1  0
 14 15  2  0
 14 16  1  0
 13 17  2  0
 12 18  1  0
 16 19  1  0
 13 20  1  0
 20 21  2  0
 17 22  1  0
 21 23  1  0
 10 24  1  0
 16 24  1  0
 21 25  1  0
 22 25  2  0
M  END
>  <ID>  (1) 
conformer_0

$$$$
