
     RDKit          3D

 25 28  0  0  0  0  0  0  0  0999 V2000
  -19.6849   19.4508   71.7990 O   0  0  0  0  0  0  0  0  0  0  0  0
  -19.0022   20.1380   71.1527 C   0  0  0  0  0  0  0  0  0  0  0  0
  -17.8142   20.7714   71.4243 N   0  0  0  0  0  0  0  0  0  0  0  0
  -17.2449   20.4094   72.7478 C   0  0  0  0  0  0  0  0  0  0  0  0
  -17.8418   21.1472   73.8260 C   0  0  0  0  0  0  0  0  0  0  0  0
  -17.1780   21.5636   70.5131 C   0  0  0  0  0  0  0  0  0  0  0  0
  -15.9019   22.0432   70.8142 C   0  0  0  0  0  0  0  0  0  0  0  0
  -17.6562   21.8700   69.3290 N   0  0  0  0  0  0  0  0  0  0  0  0
  -17.2884   18.9802   73.1864 C   0  0  0  0  0  0  0  0  0  0  0  0
  -18.8235   21.2564   68.9697 C   0  0  0  0  0  0  0  0  0  0  0  0
  -18.3124   18.4334   73.7381 N   0  0  0  0  0  0  0  0  0  0  0  0
  -15.2640   21.7265   72.0390 C   0  0  0  0  0  0  0  0  0  0  0  0
  -15.6789   20.8115   72.8360 C   0  0  0  0  0  0  0  0  0  0  0  0
  -19.2996   21.5701   67.6570 C   0  0  0  0  0  0  0  0  0  0  0  0
  -18.1991   18.4704   75.1365 C   0  0  0  0  0  0  0  0  0  0  0  0
  -18.6141   17.0168   73.2624 C   0  0  0  0  0  0  0  0  0  0  0  0
  -15.2023   22.7127   69.6881 C   0  0  0  0  0  0  0  0  0  0  0  0
  -14.3347   22.5854   72.3652 O   0  0  0  0  0  0  0  0  0  0  0  0
  -19.5737   20.4382   69.8556 C   0  0  0  0  0  0  0  0  0  0  0  0
  -17.7139   22.6087   73.9496 C   0  0  0  0  0  0  0  0  0  0  0  0
  -20.6558   19.8526   69.3793 C   0  0  0  0  0  0  0  0  0  0  0  0
  -20.4643   20.9761   67.2837 C   0  0  0  0  0  0  0  0  0  0  0  0
  -17.1025   22.8222   68.4487 C   0  0  0  0  0  0  0  0  0  0  0  0
  -21.1393   20.1791   68.1143 C   0  0  0  0  0  0  0  0  0  0  0  0
  -15.8515   23.1272   68.6255 C   0  0  0  0  0  0  0  0  0  0  0  0
  1  2  2  0
  2  3  1  0
  3  4  1  0
  4  5  1  0
  3  6  1  0
  6  7  2  0
  6  8  1  0
  4  9  1  0
  8 10  1  0
  9 11  1  0
  7 12  1  0
  4 13  1  0
 12 13  1  0
 10 14  2  0
 11 15  1  0
 11 16  1  0
  7 17  1  0
 12 18  2  0
  2 19  1  0
 10 19  1  0
  5 20  1  0
 19 21  2  0
 14 22  1  0
  8 23  1  0
 21 24  1  0
 22 24  2  0
 17 25  1  0
 23 25  2  0
M  END
>  <ID>  (1) 
conformer_0

$$$$
