
     RDKit          3D

 27 31  0  0  0  0  0  0  0  0999 V2000
  -18.0730   22.1552   74.0336 C   0  0  0  0  0  0  0  0  0  0  0  0
  -18.0871   21.7734   72.7546 C   0  0  0  0  0  0  0  0  0  0  0  0
  -17.0698   21.4572   72.0577 N   0  0  0  0  0  0  0  0  0  0  0  0
  -18.9988   20.5209   72.5592 C   0  0  0  0  0  0  0  0  0  0  0  0
  -17.1448   21.2187   70.7065 C   0  0  0  0  0  0  0  0  0  0  0  0
  -15.6758   21.6816   72.6278 C   0  0  0  0  0  0  0  0  0  0  0  0
  -19.0721   19.9983   71.2181 C   0  0  0  0  0  0  0  0  0  0  0  0
  -18.3362   19.2956   73.4602 C   0  0  0  0  0  0  0  0  0  0  0  0
  -14.9262   22.5338   72.2483 O   0  0  0  0  0  0  0  0  0  0  0  0
  -15.2458   20.7524   73.6127 C   0  0  0  0  0  0  0  0  0  0  0  0
  -17.2532   21.3479   75.0782 C   0  0  0  0  0  0  0  0  0  0  0  0
  -20.3061   19.7409   70.7249 O   0  0  0  0  0  0  0  0  0  0  0  0
  -16.1644   21.7656   69.7339 C   0  0  0  0  0  0  0  0  0  0  0  0
  -18.8753   18.7707   74.4083 N   0  0  0  0  0  0  0  0  0  0  0  0
  -16.3348   22.8788   69.0898 C   0  0  0  0  0  0  0  0  0  0  0  0
  -16.4249   20.2421   74.4088 C   0  0  0  0  0  0  0  0  0  0  0  0
  -18.2754   20.7768   70.0730 C   0  0  0  0  0  0  0  0  0  0  0  0
  -17.6914   22.9458   68.3555 C   0  0  0  0  0  0  0  0  0  0  0  0
  -19.1540   21.3820   69.1198 C   0  0  0  0  0  0  0  0  0  0  0  0
  -15.3349   23.6303   68.4099 C   0  0  0  0  0  0  0  0  0  0  0  0
  -17.5409   23.8396   67.2602 C   0  0  0  0  0  0  0  0  0  0  0  0
  -16.9125   19.3028   73.5801 C   0  0  0  0  0  0  0  0  0  0  0  0
  -18.7234   22.2483   68.4029 C   0  0  0  0  0  0  0  0  0  0  0  0
  -18.5588   24.0012   66.4301 O   0  0  0  0  0  0  0  0  0  0  0  0
  -16.3174   24.5397   67.3020 N   0  0  0  0  0  0  0  0  0  0  0  0
  -19.0501   17.3134   74.2276 C   0  0  0  0  0  0  0  0  0  0  0  0
  -19.9058   20.3943   68.4175 C   0  0  0  0  0  0  0  0  0  0  0  0
  1  2  1  0
  2  3  1  0
  2  4  1  0
  3  5  1  0
  3  6  1  0
  4  7  1  0
  4  8  1  0
  6  9  2  0
  6 10  1  0
  1 11  1  0
  7 12  1  0
  5 13  1  0
  8 14  2  3
 13 15  2  0
 10 16  1  0
 11 16  1  0
  5 17  2  0
  7 17  1  0
 15 18  1  0
 17 19  1  0
 15 20  1  0
 18 21  1  0
  8 22  1  0
 16 22  1  0
 18 23  1  0
 19 23  1  0
 21 24  2  0
 20 25  2  0
 21 25  1  0
 14 26  1  0
 19 27  2  0
M  END
>  <ID>  (1) 
conformer_0

$$$$
