
     RDKit          3D

 22 24  0  0  0  0  0  0  0  0999 V2000
  -15.8749   18.2474   75.2653 O   0  0  0  0  0  0  0  0  0  0  0  0
  -16.9974   18.5911   74.7471 C   0  0  0  0  0  0  0  0  0  0  0  0
  -17.1457   19.7489   74.1515 C   0  0  0  0  0  0  0  0  0  0  0  0
  -18.1723   19.9003   73.1854 N   0  0  0  0  0  0  0  0  0  0  0  0
  -18.3543   21.0363   72.4363 C   0  0  0  0  0  0  0  0  0  0  0  0
  -19.0562   20.8019   71.2116 C   0  0  0  0  0  0  0  0  0  0  0  0
  -17.9934   17.5787   74.6891 C   0  0  0  0  0  0  0  0  0  0  0  0
  -18.7728   21.6436   70.1214 C   0  0  0  0  0  0  0  0  0  0  0  0
  -17.7746   16.3575   75.3305 O   0  0  0  0  0  0  0  0  0  0  0  0
  -16.9896   20.9435   75.0378 C   0  0  0  0  0  0  0  0  0  0  0  0
  -19.0382   21.1206   68.8441 N   0  0  0  0  0  0  0  0  0  0  0  0
  -17.2383   21.8876   69.9292 C   0  0  0  0  0  0  0  0  0  0  0  0
  -18.9683   18.8872   72.7479 C   0  0  0  0  0  0  0  0  0  0  0  0
  -18.6201   21.8332   67.7156 C   0  0  0  0  0  0  0  0  0  0  0  0
  -16.8238   22.7525   68.8542 C   0  0  0  0  0  0  0  0  0  0  0  0
  -19.8652   19.0228   71.8565 C   0  0  0  0  0  0  0  0  0  0  0  0
  -19.5119   19.7477   70.8452 N   0  0  0  0  0  0  0  0  0  0  0  0
  -17.1920   22.0351   67.6706 C   0  0  0  0  0  0  0  0  0  0  0  0
  -15.4159   23.2260   68.9361 C   0  0  0  0  0  0  0  0  0  0  0  0
  -14.6851   23.0362   69.8457 O   0  0  0  0  0  0  0  0  0  0  0  0
  -15.1272   24.1546   68.0195 O   0  0  0  0  0  0  0  0  0  0  0  0
  -18.9486   17.5785   73.6191 C   0  0  0  0  0  0  0  0  0  0  0  0
  1  2  1  0
  2  3  1  0
  3  4  1  0
  4  5  1  0
  5  6  1  0
  2  7  2  0
  6  8  1  0
  7  9  1  0
  3 10  1  0
  8 11  1  0
  8 12  1  0
  4 13  1  0
 11 14  1  0
 12 15  1  0
 13 16  1  0
  6 17  1  0
 16 17  1  0
 14 18  1  0
 15 18  1  0
 15 19  1  0
 19 20  2  0
 19 21  1  0
  7 22  1  0
 13 22  2  0
M  END
>  <ID>  (1) 
conformer_0

$$$$
