
     RDKit          3D

 27 31  0  0  0  0  0  0  0  0999 V2000
  -20.2283   19.7813   70.3254 O   0  0  0  0  0  0  0  0  0  0  0  0
  -19.1581   20.3194   70.1301 C   0  0  0  0  0  0  0  0  0  0  0  0
  -18.1513   20.3395   71.1004 N   0  0  0  0  0  0  0  0  0  0  0  0
  -18.4504   19.9353   72.4460 C   0  0  0  0  0  0  0  0  0  0  0  0
  -18.0500   20.9086   73.5091 C   0  0  0  0  0  0  0  0  0  0  0  0
  -16.8452   20.7917   70.8178 C   0  0  0  0  0  0  0  0  0  0  0  0
  -16.7033   21.4948   69.5653 C   0  0  0  0  0  0  0  0  0  0  0  0
  -19.0511   21.1765   68.9440 C   0  0  0  0  0  0  0  0  0  0  0  0
  -17.5960   21.2361   68.6399 N   0  0  0  0  0  0  0  0  0  0  0  0
  -15.6358   22.1914   69.3065 C   0  0  0  0  0  0  0  0  0  0  0  0
  -17.3723   22.1972   67.4680 C   0  0  0  0  0  0  0  0  0  0  0  0
  -18.3623   18.6540   72.6211 C   0  0  0  0  0  0  0  0  0  0  0  0
  -18.4370   22.1155   73.4748 C   0  0  0  0  0  0  0  0  0  0  0  0
  -16.1281   22.7085   67.4360 C   0  0  0  0  0  0  0  0  0  0  0  0
  -17.8598   22.9447   74.6581 C   0  0  0  0  0  0  0  0  0  0  0  0
  -18.3181   21.8974   66.5775 C   0  0  0  0  0  0  0  0  0  0  0  0
  -18.0993   22.5635   65.4136 C   0  0  0  0  0  0  0  0  0  0  0  0
  -17.1689   20.4343   74.5023 C   0  0  0  0  0  0  0  0  0  0  0  0
  -15.9785   23.4164   66.0433 C   0  0  0  0  0  0  0  0  0  0  0  0
  -16.8963   21.1572   75.5914 C   0  0  0  0  0  0  0  0  0  0  0  0
  -15.4135   22.8459   68.1648 N   0  0  0  0  0  0  0  0  0  0  0  0
  -16.5903   19.0122   74.4503 C   0  0  0  0  0  0  0  0  0  0  0  0
  -14.0005   23.4231   68.1236 C   0  0  0  0  0  0  0  0  0  0  0  0
  -17.2366   22.3251   75.4769 C   0  0  0  0  0  0  0  0  0  0  0  0
  -16.9832   23.3110   65.0739 C   0  0  0  0  0  0  0  0  0  0  0  0
  -17.7176   18.0856   73.9059 C   0  0  0  0  0  0  0  0  0  0  0  0
  -17.2330   16.7023   73.8841 O   0  0  0  0  0  0  0  0  0  0  0  0
  1  2  2  0
  2  3  1  0
  3  4  1  0
  4  5  1  0
  3  6  1  0
  6  7  1  0
  2  8  1  0
  7  9  1  0
  8  9  1  0
  7 10  2  0
  9 11  1  0
  4 12  1  0
  5 13  2  0
 11 14  1  0
 13 15  1  0
 11 16  2  0
 16 17  1  0
  5 18  1  0
 14 19  2  0
 18 20  2  0
 10 21  1  0
 14 21  1  0
 18 22  1  0
 21 23  1  0
 15 24  2  0
 20 24  1  0
 17 25  2  0
 19 25  1  0
 12 26  1  0
 22 26  1  0
 26 27  1  0
M  END
>  <ID>  (1) 
conformer_0

$$$$
