
     RDKit          3D

 24 26  0  0  0  0  0  0  0  0999 V2000
  -19.6849   19.4508   71.7990 O   0  0  0  0  0  0  0  0  0  0  0  0
  -18.4707   19.6578   71.9728 C   0  0  0  0  0  0  0  0  0  0  0  0
  -17.6823   20.0022   70.9103 N   0  0  0  0  0  0  0  0  0  0  0  0
  -17.9191   19.8721   73.3652 C   0  0  0  0  0  0  0  0  0  0  0  0
  -17.8791   18.7386   74.1485 N   0  0  0  0  0  0  0  0  0  0  0  0
  -17.6690   21.0640   73.8486 C   0  0  0  0  0  0  0  0  0  0  0  0
  -18.2122   19.9554   69.6095 C   0  0  0  0  0  0  0  0  0  0  0  0
  -18.1921   17.2803   73.8058 C   0  0  0  0  0  0  0  0  0  0  0  0
  -17.5111   18.8990   75.4765 C   0  0  0  0  0  0  0  0  0  0  0  0
  -16.2411   20.2772   71.0089 C   0  0  0  0  0  0  0  0  0  0  0  0
  -17.0217   17.7152   76.0247 C   0  0  0  0  0  0  0  0  0  0  0  0
  -17.8889   22.2829   73.0272 C   0  0  0  0  0  0  0  0  0  0  0  0
  -17.8269   16.6077   75.1569 C   0  0  0  0  0  0  0  0  0  0  0  0
  -19.2785   20.8139   69.1499 C   0  0  0  0  0  0  0  0  0  0  0  0
  -16.8314   21.1197   75.0356 C   0  0  0  0  0  0  0  0  0  0  0  0
  -20.4070   20.2772   68.8771 O   0  0  0  0  0  0  0  0  0  0  0  0
  -16.5123   19.9661   75.7205 N   0  0  0  0  0  0  0  0  0  0  0  0
  -16.3324   22.2824   75.3890 O   0  0  0  0  0  0  0  0  0  0  0  0
  -15.7987   21.1257   69.8885 C   0  0  0  0  0  0  0  0  0  0  0  0
  -16.6768   20.6028   68.7520 C   0  0  0  0  0  0  0  0  0  0  0  0
  -15.9725   22.5184   70.1366 C   0  0  0  0  0  0  0  0  0  0  0  0
  -16.3229   23.1763   68.9479 O   0  0  0  0  0  0  0  0  0  0  0  0
  -14.8634   23.1228   70.7877 C   0  0  0  0  0  0  0  0  0  0  0  0
  -19.2908   22.0133   69.6651 O   0  0  0  0  0  0  0  0  0  0  0  0
  1  2  2  0
  2  3  1  0
  2  4  1  0
  4  5  1  0
  4  6  2  0
  3  7  1  0
  5  8  1  0
  5  9  1  0
  3 10  1  0
  9 11  1  0
  6 12  1  0
  8 13  1  0
 11 13  1  0
  7 14  1  0
  6 15  1  0
 14 16  1  0
  9 17  1  0
 15 17  1  0
 15 18  2  0
 10 19  1  0
  7 20  1  0
 19 20  1  0
 19 21  1  0
 21 22  1  0
 21 23  1  0
 14 24  2  0
M  END
>  <ID>  (1) 
conformer_0

$$$$
