
     RDKit          3D

  5  4  0  0  0  0  0  0  0  0999 V2000
  -16.4365   17.6265   74.9760 O   0  0  0  0  0  0  0  0  0  0  0  0
  -17.5470   18.0281   74.4342 C   0  0  0  0  0  0  0  0  0  0  0  0
  -18.2774   17.0510   73.8946 C   0  0  0  0  0  0  0  0  0  0  0  0
  -19.4781   17.6571   73.4528 N   0  0  0  0  0  0  0  0  0  0  0  0
  -18.0578   19.0164   75.2647 O   0  0  0  0  0  0  0  0  0  0  0  0
  1  2  1  0
  2  3  1  0
  3  4  1  0
  2  5  2  0
M  END
>  <ID>  (1) 
conformer_0

$$$$
