
     RDKit          3D

 28 32  0  0  0  0  0  0  0  0999 V2000
  -19.6849   19.4508   71.7990 O   0  0  0  0  0  0  0  0  0  0  0  0
  -19.0022   20.1380   71.1527 C   0  0  0  0  0  0  0  0  0  0  0  0
  -17.8142   20.7714   71.4243 N   0  0  0  0  0  0  0  0  0  0  0  0
  -17.2449   20.4094   72.7478 C   0  0  0  0  0  0  0  0  0  0  0  0
  -17.8418   21.1472   73.8260 C   0  0  0  0  0  0  0  0  0  0  0  0
  -17.1780   21.5636   70.5131 C   0  0  0  0  0  0  0  0  0  0  0  0
  -15.9019   22.0432   70.8142 C   0  0  0  0  0  0  0  0  0  0  0  0
  -17.6562   21.8700   69.3290 N   0  0  0  0  0  0  0  0  0  0  0  0
  -17.2884   18.9802   73.1864 C   0  0  0  0  0  0  0  0  0  0  0  0
  -18.8235   21.2564   68.9697 C   0  0  0  0  0  0  0  0  0  0  0  0
  -18.3124   18.4334   73.7381 N   0  0  0  0  0  0  0  0  0  0  0  0
  -15.2640   21.7265   72.0390 C   0  0  0  0  0  0  0  0  0  0  0  0
  -16.9650   22.7926   68.4568 C   0  0  0  0  0  0  0  0  0  0  0  0
  -14.0776   22.1856   72.2879 O   0  0  0  0  0  0  0  0  0  0  0  0
  -17.2835   22.7201   67.1943 O   0  0  0  0  0  0  0  0  0  0  0  0
  -18.2742   18.3234   75.1199 C   0  0  0  0  0  0  0  0  0  0  0  0
  -15.4934   22.8755   68.5431 C   0  0  0  0  0  0  0  0  0  0  0  0
  -17.9170   16.9123   75.4462 C   0  0  0  0  0  0  0  0  0  0  0  0
  -14.8245   23.6948   67.7593 C   0  0  0  0  0  0  0  0  0  0  0  0
  -19.6517   20.5043   69.8127 C   0  0  0  0  0  0  0  0  0  0  0  0
  -18.6668   17.1468   73.1976 C   0  0  0  0  0  0  0  0  0  0  0  0
  -18.5657   16.2276   74.4693 C   0  0  0  0  0  0  0  0  0  0  0  0
  -14.8513   23.2521   66.3204 O   0  0  0  0  0  0  0  0  0  0  0  0
  -15.9700   21.0492   72.9790 N   0  0  0  0  0  0  0  0  0  0  0  0
  -15.0508   22.9932   69.8720 N   0  0  0  0  0  0  0  0  0  0  0  0
  -15.4211   20.8908   74.3435 C   0  0  0  0  0  0  0  0  0  0  0  0
  -16.7607   21.3261   75.1897 C   0  0  0  0  0  0  0  0  0  0  0  0
  -18.0821   23.7356   66.7208 C   0  0  0  0  0  0  0  0  0  0  0  0
  1  2  2  0
  2  3  1  0
  3  4  1  0
  4  5  1  0
  3  6  1  0
  6  7  2  0
  6  8  1  0
  4  9  1  0
  8 10  1  0
  9 11  1  0
  7 12  1  0
  8 13  1  0
 12 14  2  0
 13 15  1  0
 11 16  1  0
 13 17  1  0
 16 18  1  0
 17 19  1  0
  2 20  1  0
 10 20  2  0
 11 21  1  0
 18 22  1  0
 21 22  1  0
 19 23  1  0
  4 24  1  0
 12 24  1  0
  7 25  1  0
 17 25  1  0
 24 26  1  0
  5 27  1  0
 26 27  1  0
 15 28  1  0
M  END
>  <ID>  (1) 
conformer_0

$$$$
