
     RDKit          3D

 28 32  0  0  0  0  0  0  0  0999 V2000
  -19.6849   19.4508   71.7990 O   0  0  0  0  0  0  0  0  0  0  0  0
  -19.0022   20.1380   71.1527 C   0  0  0  0  0  0  0  0  0  0  0  0
  -17.8142   20.7714   71.4243 N   0  0  0  0  0  0  0  0  0  0  0  0
  -17.2449   20.4094   72.7478 C   0  0  0  0  0  0  0  0  0  0  0  0
  -17.8418   21.1472   73.8260 C   0  0  0  0  0  0  0  0  0  0  0  0
  -17.1780   21.5636   70.5131 C   0  0  0  0  0  0  0  0  0  0  0  0
  -15.9019   22.0432   70.8142 C   0  0  0  0  0  0  0  0  0  0  0  0
  -17.6562   21.8700   69.3290 N   0  0  0  0  0  0  0  0  0  0  0  0
  -17.2884   18.9802   73.1864 C   0  0  0  0  0  0  0  0  0  0  0  0
  -18.8235   21.2564   68.9697 C   0  0  0  0  0  0  0  0  0  0  0  0
  -18.3124   18.4334   73.7381 N   0  0  0  0  0  0  0  0  0  0  0  0
  -15.2640   21.7265   72.0390 C   0  0  0  0  0  0  0  0  0  0  0  0
  -16.9650   22.7926   68.4568 C   0  0  0  0  0  0  0  0  0  0  0  0
  -14.0776   22.1856   72.2879 O   0  0  0  0  0  0  0  0  0  0  0  0
  -17.2835   22.7201   67.1943 O   0  0  0  0  0  0  0  0  0  0  0  0
  -18.2742   18.3234   75.1199 C   0  0  0  0  0  0  0  0  0  0  0  0
  -15.4934   22.8755   68.5431 C   0  0  0  0  0  0  0  0  0  0  0  0
  -17.9170   16.9123   75.4462 C   0  0  0  0  0  0  0  0  0  0  0  0
  -14.8245   23.6948   67.7593 O   0  0  0  0  0  0  0  0  0  0  0  0
  -19.5479   20.4422   69.7135 C   0  0  0  0  0  0  0  0  0  0  0  0
  -16.8746   21.5040   75.0045 C   0  0  0  0  0  0  0  0  0  0  0  0
  -15.9420   20.9020   72.8632 N   0  0  0  0  0  0  0  0  0  0  0  0
  -15.6000   21.2701   74.3212 C   0  0  0  0  0  0  0  0  0  0  0  0
  -20.6813   19.9280   69.4255 C   0  0  0  0  0  0  0  0  0  0  0  0
  -18.2105   23.6282   66.8365 C   0  0  0  0  0  0  0  0  0  0  0  0
  -14.9976   22.7829   69.9741 C   0  0  0  0  0  0  0  0  0  0  0  0
  -20.9211   20.3648   67.9961 C   0  0  0  0  0  0  0  0  0  0  0  0
  -19.5525   21.3139   67.6873 C   0  0  0  0  0  0  0  0  0  0  0  0
  1  2  2  0
  2  3  1  0
  3  4  1  0
  4  5  1  0
  3  6  1  0
  6  7  2  0
  6  8  1  0
  4  9  1  0
  8 10  1  0
  9 11  1  0
  7 12  1  0
  8 13  1  0
 12 14  2  0
 13 15  1  0
 11 16  1  0
 13 17  1  0
 16 18  1  0
 17 19  1  0
  2 20  1  0
 10 20  1  0
  5 21  1  0
  4 22  1  0
 12 22  1  0
 21 23  1  0
 22 23  1  0
 20 24  2  0
 15 25  1  0
  7 26  1  0
 17 26  1  0
 24 27  1  0
 10 28  2  0
 27 28  1  0
M  END
>  <ID>  (1) 
conformer_0

$$$$
