
     RDKit          3D

 26 29  0  0  0  0  0  0  0  0999 V2000
  -20.2283   19.7813   70.3254 O   0  0  0  0  0  0  0  0  0  0  0  0
  -19.1581   20.3194   70.1301 C   0  0  0  0  0  0  0  0  0  0  0  0
  -18.1513   20.3395   71.1004 N   0  0  0  0  0  0  0  0  0  0  0  0
  -18.4504   19.9353   72.4460 C   0  0  0  0  0  0  0  0  0  0  0  0
  -17.9594   18.5827   72.7935 C   0  0  0  0  0  0  0  0  0  0  0  0
  -18.8261   20.6221   68.8070 C   0  0  0  0  0  0  0  0  0  0  0  0
  -17.8914   21.7665   68.6298 C   0  0  0  0  0  0  0  0  0  0  0  0
  -19.9064   20.9383   67.8553 C   0  0  0  0  0  0  0  0  0  0  0  0
  -19.5807   22.0033   66.8988 C   0  0  0  0  0  0  0  0  0  0  0  0
  -16.4082   21.4176   68.5160 C   0  0  0  0  0  0  0  0  0  0  0  0
  -18.1096   22.1489   67.1147 N   0  0  0  0  0  0  0  0  0  0  0  0
  -18.3176   17.9683   74.0491 C   0  0  0  0  0  0  0  0  0  0  0  0
  -17.7776   21.0527   73.2532 C   0  0  0  0  0  0  0  0  0  0  0  0
  -17.1990   22.6754   66.3139 C   0  0  0  0  0  0  0  0  0  0  0  0
  -18.0107   22.3159   72.9763 C   0  0  0  0  0  0  0  0  0  0  0  0
  -18.8068   16.9441   74.2183 O   0  0  0  0  0  0  0  0  0  0  0  0
  -17.1586   20.6830   74.5148 C   0  0  0  0  0  0  0  0  0  0  0  0
  -15.4732   22.4028   67.9819 C   0  0  0  0  0  0  0  0  0  0  0  0
  -17.9428   18.5737   75.2823 N   0  0  0  0  0  0  0  0  0  0  0  0
  -17.2010   19.4933   75.2469 N   0  0  0  0  0  0  0  0  0  0  0  0
  -14.0693   22.1307   68.2215 O   0  0  0  0  0  0  0  0  0  0  0  0
  -15.8666   19.5759   75.7151 C   0  0  0  0  0  0  0  0  0  0  0  0
  -17.6794   23.0284   65.0994 C   0  0  0  0  0  0  0  0  0  0  0  0
  -17.2586   22.9936   74.0975 C   0  0  0  0  0  0  0  0  0  0  0  0
  -15.7192   22.4136   66.5008 C   0  0  0  0  0  0  0  0  0  0  0  0
  -16.7850   22.0298   75.0861 C   0  0  0  0  0  0  0  0  0  0  0  0
  1  2  2  0
  2  3  1  0
  3  4  1  0
  4  5  1  0
  2  6  1  0
  6  7  1  0
  6  8  1  0
  8  9  1  0
  7 10  1  0
  7 11  1  0
  9 11  1  0
  5 12  1  0
  4 13  1  0
 11 14  1  0
 13 15  1  0
 12 16  2  0
 13 17  2  0
 10 18  1  0
 12 19  1  0
 17 20  1  0
 19 20  1  0
 18 21  1  0
 20 22  1  0
 14 23  2  0
 15 24  2  0
 14 25  1  0
 18 25  1  0
 17 26  1  0
 24 26  1  0
M  END
>  <ID>  (1) 
conformer_0

$$$$
