
     RDKit          3D

 23 26  0  0  0  0  0  0  0  0999 V2000
  -19.6849   19.4508   71.7990 O   0  0  0  0  0  0  0  0  0  0  0  0
  -19.0022   20.1380   71.1527 C   0  0  0  0  0  0  0  0  0  0  0  0
  -17.8142   20.7714   71.4243 N   0  0  0  0  0  0  0  0  0  0  0  0
  -17.2449   20.4094   72.7478 C   0  0  0  0  0  0  0  0  0  0  0  0
  -17.8418   21.1472   73.8260 C   0  0  0  0  0  0  0  0  0  0  0  0
  -17.1780   21.5636   70.5131 C   0  0  0  0  0  0  0  0  0  0  0  0
  -15.9019   22.0432   70.8142 C   0  0  0  0  0  0  0  0  0  0  0  0
  -17.6562   21.8700   69.3290 N   0  0  0  0  0  0  0  0  0  0  0  0
  -17.2884   18.9802   73.1864 C   0  0  0  0  0  0  0  0  0  0  0  0
  -18.8235   21.2564   68.9697 C   0  0  0  0  0  0  0  0  0  0  0  0
  -18.3124   18.4334   73.7381 N   0  0  0  0  0  0  0  0  0  0  0  0
  -15.2640   21.7265   72.0390 C   0  0  0  0  0  0  0  0  0  0  0  0
  -15.6789   20.8115   72.8360 C   0  0  0  0  0  0  0  0  0  0  0  0
  -16.7011   22.4079   68.4070 C   0  0  0  0  0  0  0  0  0  0  0  0
  -18.5674   17.0485   73.6653 C   0  0  0  0  0  0  0  0  0  0  0  0
  -15.1488   22.9739   72.7221 O   0  0  0  0  0  0  0  0  0  0  0  0
  -19.5398   20.4735   69.7655 C   0  0  0  0  0  0  0  0  0  0  0  0
  -20.7950   20.0040   69.1888 C   0  0  0  0  0  0  0  0  0  0  0  0
  -19.3092   21.5867   67.6944 C   0  0  0  0  0  0  0  0  0  0  0  0
  -21.1948   20.2592   68.0700 C   0  0  0  0  0  0  0  0  0  0  0  0
  -20.4627   21.1035   67.1909 C   0  0  0  0  0  0  0  0  0  0  0  0
  -15.4098   22.6937   69.5426 C   0  0  0  0  0  0  0  0  0  0  0  0
  -16.1763   21.4880   67.3754 C   0  0  0  0  0  0  0  0  0  0  0  0
  1  2  2  0
  2  3  1  0
  3  4  1  0
  4  5  1  0
  3  6  1  0
  6  7  2  0
  6  8  1  0
  4  9  1  0
  8 10  1  0
  9 11  1  0
  7 12  1  0
  4 13  1  0
 12 13  1  0
  8 14  1  0
 11 15  1  0
 12 16  1  0
  2 17  1  0
 10 17  2  0
 17 18  1  0
 10 19  1  0
 18 20  2  0
 19 21  2  0
 20 21  1  0
  7 22  1  0
 14 22  1  0
 14 23  1  0
M  END
>  <ID>  (1) 
conformer_0

$$$$
