
     RDKit          3D

 27 30  0  0  0  0  0  0  0  0999 V2000
  -20.2283   19.7813   70.3254 O   0  0  0  0  0  0  0  0  0  0  0  0
  -19.1581   20.3194   70.1301 C   0  0  0  0  0  0  0  0  0  0  0  0
  -18.1513   20.3395   71.1004 N   0  0  0  0  0  0  0  0  0  0  0  0
  -18.4504   19.9353   72.4460 C   0  0  0  0  0  0  0  0  0  0  0  0
  -18.0500   20.9086   73.5091 C   0  0  0  0  0  0  0  0  0  0  0  0
  -16.8452   20.7917   70.8178 C   0  0  0  0  0  0  0  0  0  0  0  0
  -16.7033   21.4948   69.5653 C   0  0  0  0  0  0  0  0  0  0  0  0
  -19.0511   21.1765   68.9440 C   0  0  0  0  0  0  0  0  0  0  0  0
  -17.5960   21.2361   68.6399 N   0  0  0  0  0  0  0  0  0  0  0  0
  -15.6358   22.1914   69.3065 C   0  0  0  0  0  0  0  0  0  0  0  0
  -17.3723   22.1972   67.4680 C   0  0  0  0  0  0  0  0  0  0  0  0
  -18.3623   18.6540   72.6211 C   0  0  0  0  0  0  0  0  0  0  0  0
  -18.4370   22.1155   73.4748 C   0  0  0  0  0  0  0  0  0  0  0  0
  -16.1281   22.7085   67.4360 C   0  0  0  0  0  0  0  0  0  0  0  0
  -18.5188   18.1549   74.0503 N   0  0  0  0  0  0  0  0  0  0  0  0
  -15.4398   23.0342   68.2804 N   0  0  0  0  0  0  0  0  0  0  0  0
  -17.8706   22.9315   74.6664 C   0  0  0  0  0  0  0  0  0  0  0  0
  -17.1841   20.3846   74.5345 C   0  0  0  0  0  0  0  0  0  0  0  0
  -14.6129   22.3666   70.4992 C   0  0  0  0  0  0  0  0  0  0  0  0
  -17.1673   22.2828   75.4117 C   0  0  0  0  0  0  0  0  0  0  0  0
  -17.3722   18.7320   74.8291 C   0  0  0  0  0  0  0  0  0  0  0  0
  -16.8736   21.0507   75.5487 C   0  0  0  0  0  0  0  0  0  0  0  0
  -14.2867   23.7857   68.1843 C   0  0  0  0  0  0  0  0  0  0  0  0
  -14.2190   24.4549   67.0006 O   0  0  0  0  0  0  0  0  0  0  0  0
  -18.6598   16.7312   74.2647 C   0  0  0  0  0  0  0  0  0  0  0  0
  -14.4696   23.6546   70.8662 O   0  0  0  0  0  0  0  0  0  0  0  0
  -13.8309   23.8027   72.1177 C   0  0  0  0  0  0  0  0  0  0  0  0
  1  2  2  0
  2  3  1  0
  3  4  1  0
  4  5  1  0
  3  6  1  0
  6  7  1  0
  2  8  1  0
  7  9  1  0
  8  9  1  0
  7 10  2  0
  9 11  1  0
  4 12  1  0
  5 13  2  0
 11 14  1  0
 12 15  1  0
 10 16  1  0
 14 16  1  0
 13 17  1  0
  5 18  1  0
 10 19  1  0
 17 20  2  0
 15 21  1  0
 18 21  1  0
 18 22  2  0
 20 22  1  0
 16 23  1  0
 23 24  1  0
 15 25  1  0
 19 26  1  0
 26 27  1  0
M  END
>  <ID>  (1) 
conformer_0

$$$$
