
     RDKit          3D

 28 30  0  0  0  0  0  0  0  0999 V2000
  -20.2283   19.7813   70.3254 O   0  0  0  0  0  0  0  0  0  0  0  0
  -19.1581   20.3194   70.1301 C   0  0  0  0  0  0  0  0  0  0  0  0
  -18.1513   20.3395   71.1004 N   0  0  0  0  0  0  0  0  0  0  0  0
  -18.4504   19.9353   72.4460 C   0  0  0  0  0  0  0  0  0  0  0  0
  -16.7355   20.2376   70.7994 C   0  0  0  0  0  0  0  0  0  0  0  0
  -17.7965   18.7563   73.0059 C   0  0  0  0  0  0  0  0  0  0  0  0
  -19.1413   21.3236   69.0949 C   0  0  0  0  0  0  0  0  0  0  0  0
  -16.1350   21.3972   71.1817 C   0  0  0  0  0  0  0  0  0  0  0  0
  -16.4982   19.8700   69.3805 C   0  0  0  0  0  0  0  0  0  0  0  0
  -16.9633   19.0619   74.2199 C   0  0  0  0  0  0  0  0  0  0  0  0
  -16.6991   20.9679   68.3040 C   0  0  0  0  0  0  0  0  0  0  0  0
  -18.8210   17.6721   73.4476 C   0  0  0  0  0  0  0  0  0  0  0  0
  -15.6091   21.3125   67.5380 C   0  0  0  0  0  0  0  0  0  0  0  0
  -20.2265   21.8337   68.5821 O   0  0  0  0  0  0  0  0  0  0  0  0
  -17.1899   20.0877   74.8729 O   0  0  0  0  0  0  0  0  0  0  0  0
  -15.1797   21.4707   72.1108 N   0  0  0  0  0  0  0  0  0  0  0  0
  -17.8634   21.8422   68.3471 C   0  0  0  0  0  0  0  0  0  0  0  0
  -15.7369   22.4316   66.7065 C   0  0  0  0  0  0  0  0  0  0  0  0
  -16.4550   22.7184   70.8217 N   0  0  0  0  0  0  0  0  0  0  0  0
  -14.5280   22.7169   65.9229 O   0  0  0  0  0  0  0  0  0  0  0  0
  -14.4941   22.4859   72.5926 C   0  0  0  0  0  0  0  0  0  0  0  0
  -16.1159   18.2535   74.6239 O   0  0  0  0  0  0  0  0  0  0  0  0
  -18.2345   16.5004   74.0918 C   0  0  0  0  0  0  0  0  0  0  0  0
  -16.4091   21.1645   75.1157 C   0  0  0  0  0  0  0  0  0  0  0  0
  -18.1317   22.6953   67.4258 C   0  0  0  0  0  0  0  0  0  0  0  0
  -16.9274   23.1511   66.6490 C   0  0  0  0  0  0  0  0  0  0  0  0
  -13.3713   22.7597   66.6652 C   0  0  0  0  0  0  0  0  0  0  0  0
  -15.5139   23.5483   71.5748 C   0  0  0  0  0  0  0  0  0  0  0  0
  1  2  2  0
  2  3  1  0
  3  4  1  0
  3  5  1  0
  4  6  1  0
  2  7  1  0
  5  8  1  0
  5  9  1  0
  6 10  1  0
  9 11  1  0
  6 12  1  0
 11 13  2  0
  7 14  2  0
 10 15  1  0
  8 16  2  0
  7 17  1  0
 11 17  1  0
 13 18  1  0
  8 19  1  0
 18 20  1  0
 16 21  1  0
 10 22  2  0
 12 23  1  0
 15 24  1  0
 17 25  2  0
 18 26  2  0
 25 26  1  0
 20 27  1  0
 19 28  1  0
 21 28  2  0
M  END
>  <ID>  (1) 
conformer_0

$$$$
