
     RDKit          3D

 12 12  0  0  0  0  0  0  0  0999 V2000
  -14.7631   20.9428   67.7800 O   0  0  0  0  0  0  0  0  0  0  0  0
  -15.8735   21.1397   68.4893 C   0  0  0  0  0  0  0  0  0  0  0  0
  -17.0196   20.8722   67.8833 N   0  0  0  0  0  0  0  0  0  0  0  0
  -15.7644   21.4827   69.8498 C   0  0  0  0  0  0  0  0  0  0  0  0
  -18.1797   20.7263   68.5478 C   0  0  0  0  0  0  0  0  0  0  0  0
  -14.6398   21.8675   70.3710 N   0  0  0  0  0  0  0  0  0  0  0  0
  -18.2372   20.9709   69.9389 C   0  0  0  0  0  0  0  0  0  0  0  0
  -14.3259   23.1742   70.5566 C   0  0  0  0  0  0  0  0  0  0  0  0
  -19.4422   20.5073   67.7340 C   0  0  0  0  0  0  0  0  0  0  0  0
  -17.0130   21.3024   70.6330 C   0  0  0  0  0  0  0  0  0  0  0  0
  -20.5180   20.8052   68.3158 O   0  0  0  0  0  0  0  0  0  0  0  0
  -13.1080   23.4214   71.3850 C   0  0  0  0  0  0  0  0  0  0  0  0
  1  2  2  0
  2  3  1  0
  2  4  1  0
  3  5  1  0
  4  6  1  0
  5  7  2  0
  6  8  1  0
  5  9  1  0
  4 10  2  0
  7 10  1  0
  9 11  1  0
  8 12  1  0
M  END
>  <ID>  (1) 
conformer_0

$$$$
