
     RDKit          3D

 28 32  0  0  0  0  0  0  0  0999 V2000
  -19.6849   19.4508   71.7990 O   0  0  0  0  0  0  0  0  0  0  0  0
  -19.0022   20.1380   71.1527 C   0  0  0  0  0  0  0  0  0  0  0  0
  -17.8142   20.7714   71.4243 N   0  0  0  0  0  0  0  0  0  0  0  0
  -17.2449   20.4094   72.7478 C   0  0  0  0  0  0  0  0  0  0  0  0
  -17.8418   21.1472   73.8260 C   0  0  0  0  0  0  0  0  0  0  0  0
  -17.1780   21.5636   70.5131 C   0  0  0  0  0  0  0  0  0  0  0  0
  -15.9019   22.0432   70.8142 C   0  0  0  0  0  0  0  0  0  0  0  0
  -17.6562   21.8700   69.3290 N   0  0  0  0  0  0  0  0  0  0  0  0
  -17.2884   18.9802   73.1864 C   0  0  0  0  0  0  0  0  0  0  0  0
  -18.8235   21.2564   68.9697 C   0  0  0  0  0  0  0  0  0  0  0  0
  -18.3124   18.4334   73.7381 N   0  0  0  0  0  0  0  0  0  0  0  0
  -15.2640   21.7265   72.0390 C   0  0  0  0  0  0  0  0  0  0  0  0
  -15.6789   20.8115   72.8360 C   0  0  0  0  0  0  0  0  0  0  0  0
  -19.2996   21.5701   67.6570 C   0  0  0  0  0  0  0  0  0  0  0  0
  -18.1991   18.4704   75.1365 C   0  0  0  0  0  0  0  0  0  0  0  0
  -18.3533   22.4295   66.9590 C   0  0  0  0  0  0  0  0  0  0  0  0
  -15.4279   23.0157   69.8396 C   0  0  0  0  0  0  0  0  0  0  0  0
  -17.1261   22.8872   68.5730 C   0  0  0  0  0  0  0  0  0  0  0  0
  -15.4594   21.0850   74.1432 N   0  0  0  0  0  0  0  0  0  0  0  0
  -17.7821   23.2189   67.5663 N   0  0  0  0  0  0  0  0  0  0  0  0
  -18.7461   22.5574   65.6828 O   0  0  0  0  0  0  0  0  0  0  0  0
  -15.9931   23.3684   68.7944 N   0  0  0  0  0  0  0  0  0  0  0  0
  -17.3825   17.2567   75.6002 C   0  0  0  0  0  0  0  0  0  0  0  0
  -17.9850   16.1973   75.6184 O   0  0  0  0  0  0  0  0  0  0  0  0
  -16.1817   17.4043   75.6797 O   0  0  0  0  0  0  0  0  0  0  0  0
  -19.5381   20.2845   69.7880 C   0  0  0  0  0  0  0  0  0  0  0  0
  -14.1845   23.5139   70.2121 O   0  0  0  0  0  0  0  0  0  0  0  0
  -16.8085   21.8276   74.6827 C   0  0  0  0  0  0  0  0  0  0  0  0
  1  2  2  0
  2  3  1  0
  3  4  1  0
  4  5  1  0
  3  6  1  0
  6  7  2  0
  6  8  1  0
  4  9  1  0
  8 10  1  0
  9 11  1  0
  7 12  1  0
  4 13  1  0
 12 13  1  0
 10 14  2  0
 11 15  1  0
 14 16  1  0
  7 17  1  0
  8 18  1  0
 13 19  1  0
 16 20  1  0
 18 20  1  0
 16 21  2  0
 17 22  1  0
 18 22  2  0
 15 23  1  0
 23 24  2  0
 23 25  1  0
  2 26  1  0
 10 26  1  0
 17 27  2  0
  5 28  1  0
 19 28  1  0
M  END
>  <ID>  (1) 
conformer_0

$$$$
