
     RDKit          3D

 27 31  0  0  0  0  0  0  0  0999 V2000
  -20.2283   19.7813   70.3254 O   0  0  0  0  0  0  0  0  0  0  0  0
  -19.3387   20.3471   70.9653 C   0  0  0  0  0  0  0  0  0  0  0  0
  -18.1479   20.6811   70.2395 N   0  0  0  0  0  0  0  0  0  0  0  0
  -17.0572   21.2177   70.7414 C   0  0  0  0  0  0  0  0  0  0  0  0
  -19.0934   20.2798   72.3465 C   0  0  0  0  0  0  0  0  0  0  0  0
  -18.2698   20.6121   68.6727 C   0  0  0  0  0  0  0  0  0  0  0  0
  -19.6595   19.1897   72.9656 N   0  0  0  0  0  0  0  0  0  0  0  0
  -17.6184   20.2660   72.8511 C   0  0  0  0  0  0  0  0  0  0  0  0
  -17.4869   20.6107   74.3392 C   0  0  0  0  0  0  0  0  0  0  0  0
  -16.1298   21.9570   69.8516 C   0  0  0  0  0  0  0  0  0  0  0  0
  -16.4023   20.8218   72.0289 C   0  0  0  0  0  0  0  0  0  0  0  0
  -16.2999   21.9796   68.5412 N   0  0  0  0  0  0  0  0  0  0  0  0
  -15.3508   22.9549   70.4323 O   0  0  0  0  0  0  0  0  0  0  0  0
  -17.1808   18.8392   73.0245 C   0  0  0  0  0  0  0  0  0  0  0  0
  -15.3363   22.7455   67.7268 C   0  0  0  0  0  0  0  0  0  0  0  0
  -16.1029   18.4860   73.8361 O   0  0  0  0  0  0  0  0  0  0  0  0
  -14.1009   22.2073   67.6593 C   0  0  0  0  0  0  0  0  0  0  0  0
  -15.3082   24.1272   68.1013 C   0  0  0  0  0  0  0  0  0  0  0  0
  -18.6424   18.1616   73.2574 C   0  0  0  0  0  0  0  0  0  0  0  0
  -16.2516   19.5849   74.8343 C   0  0  0  0  0  0  0  0  0  0  0  0
  -16.2843   19.2380   76.1085 O   0  0  0  0  0  0  0  0  0  0  0  0
  -17.2285   21.1395   67.9258 C   0  0  0  0  0  0  0  0  0  0  0  0
  -13.1354   22.8871   66.9155 C   0  0  0  0  0  0  0  0  0  0  0  0
  -18.6826   16.8319   73.0478 O   0  0  0  0  0  0  0  0  0  0  0  0
  -17.2612   22.0132   74.6070 C   0  0  0  0  0  0  0  0  0  0  0  0
  -14.3928   24.8775   67.2169 C   0  0  0  0  0  0  0  0  0  0  0  0
  -12.9935   24.2738   67.4048 N   0  0  0  0  0  0  0  0  0  0  0  0
  1  2  2  0
  2  3  1  0
  3  4  1  0
  2  5  1  0
  3  6  1  0
  5  7  1  0
  5  8  1  0
  8  9  1  0
  4 10  1  0
  4 11  2  0
  8 11  1  0
 10 12  1  0
 10 13  2  0
  8 14  1  0
 12 15  1  0
 14 16  1  0
 15 17  1  0
 15 18  1  0
  7 19  1  0
 14 19  1  0
  9 20  1  0
 16 20  1  0
 20 21  1  0
  6 22  2  0
 12 22  1  0
 17 23  1  0
 19 24  1  0
  9 25  1  0
 18 26  1  0
 23 27  1  0
 26 27  1  0
M  END
>  <ID>  (1) 
conformer_0

$$$$
