
     RDKit          3D

 25 30  0  0  0  0  0  0  0  0999 V2000
  -19.6849   19.4508   71.7990 O   0  0  0  0  0  0  0  0  0  0  0  0
  -19.0022   20.1380   71.1527 C   0  0  0  0  0  0  0  0  0  0  0  0
  -17.8142   20.7714   71.4243 N   0  0  0  0  0  0  0  0  0  0  0  0
  -17.2449   20.4094   72.7478 C   0  0  0  0  0  0  0  0  0  0  0  0
  -17.8418   21.1472   73.8260 C   0  0  0  0  0  0  0  0  0  0  0  0
  -17.1780   21.5636   70.5131 C   0  0  0  0  0  0  0  0  0  0  0  0
  -15.9019   22.0432   70.8142 C   0  0  0  0  0  0  0  0  0  0  0  0
  -17.6562   21.8700   69.3290 N   0  0  0  0  0  0  0  0  0  0  0  0
  -17.2884   18.9802   73.1864 C   0  0  0  0  0  0  0  0  0  0  0  0
  -18.8235   21.2564   68.9697 C   0  0  0  0  0  0  0  0  0  0  0  0
  -18.3124   18.4334   73.7381 N   0  0  0  0  0  0  0  0  0  0  0  0
  -15.2640   21.7265   72.0390 C   0  0  0  0  0  0  0  0  0  0  0  0
  -15.6789   20.8115   72.8360 C   0  0  0  0  0  0  0  0  0  0  0  0
  -19.2996   21.5701   67.6570 C   0  0  0  0  0  0  0  0  0  0  0  0
  -18.1991   18.4704   75.1365 C   0  0  0  0  0  0  0  0  0  0  0  0
  -19.5740   20.3486   69.8721 C   0  0  0  0  0  0  0  0  0  0  0  0
  -16.9299   22.6996   68.5507 C   0  0  0  0  0  0  0  0  0  0  0  0
  -15.4232   21.3046   74.2351 N   0  0  0  0  0  0  0  0  0  0  0  0
  -16.9073   21.9178   74.6805 C   0  0  0  0  0  0  0  0  0  0  0  0
  -20.5273   19.7993   69.0718 C   0  0  0  0  0  0  0  0  0  0  0  0
  -20.5987   20.5266   67.5924 S   0  0  0  0  0  0  0  0  0  0  0  0
  -18.5337   16.9735   73.3140 C   0  0  0  0  0  0  0  0  0  0  0  0
  -17.0662   23.1358   67.2916 C   0  0  0  0  0  0  0  0  0  0  0  0
  -15.6686   22.9070   69.5870 C   0  0  0  0  0  0  0  0  0  0  0  0
  -18.5369   22.5007   66.7264 C   0  0  0  0  0  0  0  0  0  0  0  0
  1  2  2  0
  2  3  1  0
  3  4  1  0
  4  5  1  0
  3  6  1  0
  6  7  2  0
  6  8  1  0
  4  9  1  0
  8 10  1  0
  9 11  1  0
  7 12  1  0
  4 13  1  0
 12 13  1  0
 10 14  2  0
 11 15  1  0
  2 16  1  0
 10 16  1  0
  8 17  1  0
 13 18  1  0
  5 19  1  0
 18 19  1  0
 16 20  2  0
 14 21  1  0
 20 21  1  0
 11 22  1  0
 17 23  1  0
  7 24  1  0
 17 24  2  0
 14 25  1  0
 23 25  2  0
M  END
>  <ID>  (1) 
conformer_0

$$$$
