
     RDKit          3D

 27 30  0  0  0  0  0  0  0  0999 V2000
  -19.6849   19.4508   71.7990 O   0  0  0  0  0  0  0  0  0  0  0  0
  -19.0022   20.1380   71.1527 C   0  0  0  0  0  0  0  0  0  0  0  0
  -17.8142   20.7714   71.4243 N   0  0  0  0  0  0  0  0  0  0  0  0
  -17.2449   20.4094   72.7478 C   0  0  0  0  0  0  0  0  0  0  0  0
  -17.8418   21.1472   73.8260 C   0  0  0  0  0  0  0  0  0  0  0  0
  -17.1780   21.5636   70.5131 C   0  0  0  0  0  0  0  0  0  0  0  0
  -15.9019   22.0432   70.8142 C   0  0  0  0  0  0  0  0  0  0  0  0
  -17.6562   21.8700   69.3290 N   0  0  0  0  0  0  0  0  0  0  0  0
  -17.2884   18.9802   73.1864 C   0  0  0  0  0  0  0  0  0  0  0  0
  -18.8235   21.2564   68.9697 C   0  0  0  0  0  0  0  0  0  0  0  0
  -18.3124   18.4334   73.7381 N   0  0  0  0  0  0  0  0  0  0  0  0
  -15.2640   21.7265   72.0390 C   0  0  0  0  0  0  0  0  0  0  0  0
  -16.9650   22.7926   68.4568 C   0  0  0  0  0  0  0  0  0  0  0  0
  -14.0776   22.1856   72.2879 O   0  0  0  0  0  0  0  0  0  0  0  0
  -17.2835   22.7201   67.1943 O   0  0  0  0  0  0  0  0  0  0  0  0
  -19.5677   20.3880   69.7266 C   0  0  0  0  0  0  0  0  0  0  0  0
  -19.7235   19.2837   68.8238 C   0  0  0  0  0  0  0  0  0  0  0  0
  -18.2666   18.2772   75.0924 C   0  0  0  0  0  0  0  0  0  0  0  0
  -16.8730   23.7940   66.4739 C   0  0  0  0  0  0  0  0  0  0  0  0
  -15.8147   23.3123   69.0472 C   0  0  0  0  0  0  0  0  0  0  0  0
  -17.0424   18.2496   75.6635 C   0  0  0  0  0  0  0  0  0  0  0  0
  -19.3758   21.7045   67.9053 O   0  0  0  0  0  0  0  0  0  0  0  0
  -15.2436   22.8232   69.9411 N   0  0  0  0  0  0  0  0  0  0  0  0
  -16.2080   18.5532   74.1595 C   0  0  0  0  0  0  0  0  0  0  0  0
  -15.8416   20.9565   72.7888 N   0  0  0  0  0  0  0  0  0  0  0  0
  -16.3120   19.2083   76.2741 O   0  0  0  0  0  0  0  0  0  0  0  0
  -15.3666   24.2474   68.5052 O   0  0  0  0  0  0  0  0  0  0  0  0
  1  2  2  0
  2  3  1  0
  3  4  1  0
  4  5  1  0
  3  6  1  0
  6  7  2  0
  6  8  1  0
  4  9  1  0
  8 10  1  0
  9 11  1  0
  7 12  1  0
  8 13  1  0
 12 14  2  0
 13 15  1  0
  2 16  1  0
 10 16  1  0
 16 17  1  0
 11 18  1  0
 15 19  1  0
 13 20  1  0
 18 21  1  0
 10 22  2  0
  7 23  1  0
 20 23  1  0
  9 24  1  0
 21 24  1  0
  4 25  1  0
 12 25  1  0
 21 26  1  0
 20 27  2  0
M  END
>  <ID>  (1) 
conformer_0

$$$$
