
     RDKit          3D

 27 32  0  0  0  0  0  0  0  0999 V2000
  -19.6849   19.4508   71.7990 O   0  0  0  0  0  0  0  0  0  0  0  0
  -19.0022   20.1380   71.1527 C   0  0  0  0  0  0  0  0  0  0  0  0
  -17.8142   20.7714   71.4243 N   0  0  0  0  0  0  0  0  0  0  0  0
  -17.2449   20.4094   72.7478 C   0  0  0  0  0  0  0  0  0  0  0  0
  -17.8418   21.1472   73.8260 C   0  0  0  0  0  0  0  0  0  0  0  0
  -17.1780   21.5636   70.5131 C   0  0  0  0  0  0  0  0  0  0  0  0
  -15.9019   22.0432   70.8142 C   0  0  0  0  0  0  0  0  0  0  0  0
  -17.6562   21.8700   69.3290 N   0  0  0  0  0  0  0  0  0  0  0  0
  -17.2884   18.9802   73.1864 C   0  0  0  0  0  0  0  0  0  0  0  0
  -18.8235   21.2564   68.9697 C   0  0  0  0  0  0  0  0  0  0  0  0
  -18.3124   18.4334   73.7381 N   0  0  0  0  0  0  0  0  0  0  0  0
  -15.2640   21.7265   72.0390 C   0  0  0  0  0  0  0  0  0  0  0  0
  -15.6789   20.8115   72.8360 C   0  0  0  0  0  0  0  0  0  0  0  0
  -19.2996   21.5701   67.6570 C   0  0  0  0  0  0  0  0  0  0  0  0
  -18.1991   18.4704   75.1365 C   0  0  0  0  0  0  0  0  0  0  0  0
  -18.3533   22.4295   66.9590 C   0  0  0  0  0  0  0  0  0  0  0  0
  -15.4279   23.0157   69.8396 C   0  0  0  0  0  0  0  0  0  0  0  0
  -16.9267   18.3571   75.5959 C   0  0  0  0  0  0  0  0  0  0  0  0
  -17.0187   21.5784   75.0174 C   0  0  0  0  0  0  0  0  0  0  0  0
  -13.9114   22.0946   71.9436 O   0  0  0  0  0  0  0  0  0  0  0  0
  -16.9624   22.7083   68.5798 C   0  0  0  0  0  0  0  0  0  0  0  0
  -15.6408   21.0856   74.4833 N   0  0  0  0  0  0  0  0  0  0  0  0
  -14.1209   23.5258   70.1831 N   0  0  0  0  0  0  0  0  0  0  0  0
  -15.8606   23.2014   68.9177 C   0  0  0  0  0  0  0  0  0  0  0  0
  -19.5602   20.4273   69.7703 C   0  0  0  0  0  0  0  0  0  0  0  0
  -17.3495   22.9828   67.2851 N   0  0  0  0  0  0  0  0  0  0  0  0
  -16.1774   18.6340   74.2869 O   0  0  0  0  0  0  0  0  0  0  0  0
  1  2  2  0
  2  3  1  0
  3  4  1  0
  4  5  1  0
  3  6  1  0
  6  7  2  0
  6  8  1  0
  4  9  1  0
  8 10  1  0
  9 11  1  0
  7 12  1  0
  4 13  1  0
 12 13  1  0
 10 14  2  0
 11 15  1  0
 14 16  1  0
  7 17  1  0
 15 18  1  0
  5 19  1  0
 12 20  2  0
  8 21  1  0
 13 22  1  0
 19 22  1  0
 17 23  2  0
 17 24  1  0
 21 24  2  0
  2 25  1  0
 10 25  1  0
 16 26  2  0
 21 26  1  0
  9 27  1  0
 18 27  1  0
M  END
>  <ID>  (1) 
conformer_0

$$$$
