
     RDKit          3D

 13 14  0  0  0  0  0  0  0  0999 V2000
  -17.2949   21.8470   75.6805 C   0  0  0  0  0  0  0  0  0  0  0  0
  -16.8629   21.1171   74.6007 C   0  0  0  0  0  0  0  0  0  0  0  0
  -17.5988   21.0965   73.5787 N   0  0  0  0  0  0  0  0  0  0  0  0
  -17.9515   22.1490   72.9679 C   0  0  0  0  0  0  0  0  0  0  0  0
  -18.2097   20.1005   73.1017 C   0  0  0  0  0  0  0  0  0  0  0  0
  -18.1218   18.6667   73.5254 C   0  0  0  0  0  0  0  0  0  0  0  0
  -16.3897   19.6569   75.1297 C   0  0  0  0  0  0  0  0  0  0  0  0
  -17.3438   18.5831   74.7106 C   0  0  0  0  0  0  0  0  0  0  0  0
  -15.1947   19.3711   74.8033 O   0  0  0  0  0  0  0  0  0  0  0  0
  -18.7924   20.2981   71.9730 N   0  0  0  0  0  0  0  0  0  0  0  0
  -16.9702   17.2763   75.0871 O   0  0  0  0  0  0  0  0  0  0  0  0
  -19.1451   17.9371   73.3429 O   0  0  0  0  0  0  0  0  0  0  0  0
  -18.7591   21.6868   71.8730 C   0  0  0  0  0  0  0  0  0  0  0  0
  1  2  1  0
  2  3  1  0
  3  4  1  0
  3  5  1  0
  5  6  1  0
  2  7  1  0
  6  8  1  0
  7  8  1  0
  7  9  1  0
  5 10  2  0
  8 11  1  0
  6 12  1  0
  4 13  2  0
 10 13  1  0
M  END
>  <ID>  (1) 
conformer_0

$$$$
