
     RDKit          3D

 25 28  0  0  0  0  0  0  0  0999 V2000
  -20.2283   19.7813   70.3254 O   0  0  0  0  0  0  0  0  0  0  0  0
  -19.1581   20.3194   70.1301 C   0  0  0  0  0  0  0  0  0  0  0  0
  -18.1513   20.3395   71.1004 N   0  0  0  0  0  0  0  0  0  0  0  0
  -18.4504   19.9353   72.4460 C   0  0  0  0  0  0  0  0  0  0  0  0
  -18.0500   20.9086   73.5091 C   0  0  0  0  0  0  0  0  0  0  0  0
  -16.8452   20.7917   70.8178 C   0  0  0  0  0  0  0  0  0  0  0  0
  -16.7033   21.4948   69.5653 C   0  0  0  0  0  0  0  0  0  0  0  0
  -19.0511   21.1765   68.9440 C   0  0  0  0  0  0  0  0  0  0  0  0
  -17.5960   21.2361   68.6399 N   0  0  0  0  0  0  0  0  0  0  0  0
  -15.6358   22.1914   69.3065 C   0  0  0  0  0  0  0  0  0  0  0  0
  -17.3723   22.1972   67.4680 C   0  0  0  0  0  0  0  0  0  0  0  0
  -18.3623   18.6540   72.6211 C   0  0  0  0  0  0  0  0  0  0  0  0
  -18.4370   22.1155   73.4748 C   0  0  0  0  0  0  0  0  0  0  0  0
  -16.1281   22.7085   67.4360 C   0  0  0  0  0  0  0  0  0  0  0  0
  -18.5188   18.1549   74.0503 N   0  0  0  0  0  0  0  0  0  0  0  0
  -17.3799   20.5729   74.7576 C   0  0  0  0  0  0  0  0  0  0  0  0
  -15.3031   22.6735   68.2306 N   0  0  0  0  0  0  0  0  0  0  0  0
  -16.9676   21.5838   75.5272 C   0  0  0  0  0  0  0  0  0  0  0  0
  -16.9539   19.1311   74.9013 C   0  0  0  0  0  0  0  0  0  0  0  0
  -18.0319   21.8293   66.2967 O   0  0  0  0  0  0  0  0  0  0  0  0
  -17.4809   17.9594   74.7810 C   0  0  0  0  0  0  0  0  0  0  0  0
  -15.8183   23.3523   66.0150 C   0  0  0  0  0  0  0  0  0  0  0  0
  -15.6001   19.0199   74.9508 O   0  0  0  0  0  0  0  0  0  0  0  0
  -18.0548   23.1743   74.2710 C   0  0  0  0  0  0  0  0  0  0  0  0
  -17.3084   22.6555   75.3185 C   0  0  0  0  0  0  0  0  0  0  0  0
  1  2  2  0
  2  3  1  0
  3  4  1  0
  4  5  1  0
  3  6  1  0
  6  7  1  0
  2  8  1  0
  7  9  1  0
  8  9  1  0
  7 10  2  0
  9 11  1  0
  4 12  1  0
  5 13  2  0
 11 14  1  0
 12 15  1  0
  5 16  1  0
 10 17  1  0
 14 17  2  0
 16 18  2  0
 16 19  1  0
 11 20  2  0
 15 21  1  0
 19 21  1  0
 14 22  1  0
 19 23  2  0
 13 24  1  0
 18 25  1  0
 24 25  2  0
M  END
>  <ID>  (1) 
conformer_0

$$$$
