
     RDKit          3D

 24 26  0  0  0  0  0  0  0  0999 V2000
  -20.2283   19.7813   70.3254 O   0  0  0  0  0  0  0  0  0  0  0  0
  -19.1581   20.3194   70.1301 C   0  0  0  0  0  0  0  0  0  0  0  0
  -18.1513   20.3395   71.1004 N   0  0  0  0  0  0  0  0  0  0  0  0
  -18.4504   19.9353   72.4460 C   0  0  0  0  0  0  0  0  0  0  0  0
  -17.9594   18.5827   72.7935 C   0  0  0  0  0  0  0  0  0  0  0  0
  -18.8261   20.6221   68.8070 C   0  0  0  0  0  0  0  0  0  0  0  0
  -17.8914   21.7665   68.6298 C   0  0  0  0  0  0  0  0  0  0  0  0
  -19.9064   20.9383   67.8553 C   0  0  0  0  0  0  0  0  0  0  0  0
  -19.5807   22.0033   66.8988 C   0  0  0  0  0  0  0  0  0  0  0  0
  -16.4082   21.4176   68.5160 C   0  0  0  0  0  0  0  0  0  0  0  0
  -18.1096   22.1489   67.1147 N   0  0  0  0  0  0  0  0  0  0  0  0
  -18.3176   17.9683   74.0491 C   0  0  0  0  0  0  0  0  0  0  0  0
  -17.7776   21.0527   73.2532 C   0  0  0  0  0  0  0  0  0  0  0  0
  -17.4827   23.4633   66.8468 C   0  0  0  0  0  0  0  0  0  0  0  0
  -17.8858   20.8036   74.7513 N   0  0  0  0  0  0  0  0  0  0  0  0
  -18.3488   16.5399   74.0030 O   0  0  0  0  0  0  0  0  0  0  0  0
  -16.9335   19.6501   75.2450 C   0  0  0  0  0  0  0  0  0  0  0  0
  -17.3629   18.3354   75.1401 C   0  0  0  0  0  0  0  0  0  0  0  0
  -15.9699   23.3114   66.9704 C   0  0  0  0  0  0  0  0  0  0  0  0
  -15.5795   22.6682   68.2908 C   0  0  0  0  0  0  0  0  0  0  0  0
  -16.6341   17.3453   75.5677 O   0  0  0  0  0  0  0  0  0  0  0  0
  -14.1727   22.4220   68.3562 O   0  0  0  0  0  0  0  0  0  0  0  0
  -15.2018   24.2768   66.5770 O   0  0  0  0  0  0  0  0  0  0  0  0
  -17.6580   22.0587   75.4149 C   0  0  0  0  0  0  0  0  0  0  0  0
  1  2  2  0
  2  3  1  0
  3  4  1  0
  4  5  1  0
  2  6  1  0
  6  7  1  0
  6  8  1  0
  8  9  1  0
  7 10  1  0
  7 11  1  0
  9 11  1  0
  5 12  1  0
  4 13  1  0
 11 14  1  0
 13 15  1  0
 12 16  1  0
 15 17  1  0
 12 18  1  0
 17 18  1  0
 14 19  1  0
 10 20  1  0
 19 20  1  0
 18 21  1  0
 20 22  1  0
 19 23  1  0
 15 24  1  0
M  END
>  <ID>  (1) 
conformer_0

$$$$
