
     RDKit          3D

 21 24  0  0  0  0  0  0  0  0999 V2000
  -17.8954   22.2014   74.3756 C   0  0  0  0  0  0  0  0  0  0  0  0
  -16.9732   21.4512   74.9919 C   0  0  0  0  0  0  0  0  0  0  0  0
  -17.6787   22.2796   72.9761 O   0  0  0  0  0  0  0  0  0  0  0  0
  -18.3017   21.1535   72.4395 C   0  0  0  0  0  0  0  0  0  0  0  0
  -18.2506   21.2578   70.9645 C   0  0  0  0  0  0  0  0  0  0  0  0
  -17.1153   19.9632   74.5521 N   0  0  0  0  0  0  0  0  0  0  0  0
  -17.3357   19.9245   72.8865 C   0  0  0  0  0  0  0  0  0  0  0  0
  -17.1527   21.4910   70.3692 N   0  0  0  0  0  0  0  0  0  0  0  0
  -19.3903   21.8092   70.4046 C   0  0  0  0  0  0  0  0  0  0  0  0
  -17.0313   21.9100   69.0315 C   0  0  0  0  0  0  0  0  0  0  0  0
  -18.3612   22.1713   68.5386 C   0  0  0  0  0  0  0  0  0  0  0  0
  -15.7077   22.1103   68.3606 C   0  0  0  0  0  0  0  0  0  0  0  0
  -18.2020   22.6428   67.0530 C   0  0  0  0  0  0  0  0  0  0  0  0
  -16.9379   22.8607   66.5119 N   0  0  0  0  0  0  0  0  0  0  0  0
  -18.0385   18.5703   72.7481 C   0  0  0  0  0  0  0  0  0  0  0  0
  -16.2652   19.1075   74.9879 C   0  0  0  0  0  0  0  0  0  0  0  0
  -16.7681   17.7181   74.8247 C   0  0  0  0  0  0  0  0  0  0  0  0
  -19.3970   22.1466   69.0891 N   0  0  0  0  0  0  0  0  0  0  0  0
  -14.5276   21.7744   68.9460 O   0  0  0  0  0  0  0  0  0  0  0  0
  -15.8034   22.4296   67.0452 C   0  0  0  0  0  0  0  0  0  0  0  0
  -17.2516   17.4894   73.4320 C   0  0  0  0  0  0  0  0  0  0  0  0
  1  2  1  0
  1  3  1  0
  3  4  1  0
  4  5  1  0
  2  6  1  0
  4  7  1  0
  6  7  1  0
  5  8  1  0
  5  9  2  0
  8 10  2  0
 10 11  1  0
 10 12  1  0
 11 13  1  0
 13 14  2  0
  7 15  1  0
  6 16  1  0
 16 17  1  0
  9 18  1  0
 11 18  2  0
 12 19  1  0
 12 20  2  0
 14 20  1  0
 15 21  1  0
 17 21  1  0
M  END
>  <ID>  (1) 
conformer_0

$$$$
