
     RDKit          3D

 22 24  0  0  0  0  0  0  0  0999 V2000
  -18.0730   22.1552   74.0336 C   0  0  0  0  0  0  0  0  0  0  0  0
  -18.0871   21.7734   72.7546 C   0  0  0  0  0  0  0  0  0  0  0  0
  -17.0698   21.4572   72.0577 N   0  0  0  0  0  0  0  0  0  0  0  0
  -18.9988   20.5209   72.5592 C   0  0  0  0  0  0  0  0  0  0  0  0
  -17.1448   21.2187   70.7065 C   0  0  0  0  0  0  0  0  0  0  0  0
  -15.6758   21.6816   72.6278 C   0  0  0  0  0  0  0  0  0  0  0  0
  -19.0721   19.9983   71.2181 C   0  0  0  0  0  0  0  0  0  0  0  0
  -18.3362   19.2956   73.4602 C   0  0  0  0  0  0  0  0  0  0  0  0
  -14.9262   22.5338   72.2483 O   0  0  0  0  0  0  0  0  0  0  0  0
  -19.0209   18.0268   73.3372 N   0  0  0  0  0  0  0  0  0  0  0  0
  -18.3068   16.8764   73.6729 C   0  0  0  0  0  0  0  0  0  0  0  0
  -16.1996   21.6050   69.7727 C   0  0  0  0  0  0  0  0  0  0  0  0
  -16.2418   22.6399   69.0649 N   0  0  0  0  0  0  0  0  0  0  0  0
  -15.7109   20.5081   69.0350 C   0  0  0  0  0  0  0  0  0  0  0  0
  -17.9497   20.3031   70.3796 C   0  0  0  0  0  0  0  0  0  0  0  0
  -15.4968   22.9923   68.0485 C   0  0  0  0  0  0  0  0  0  0  0  0
  -15.3468   20.8812   73.7551 C   0  0  0  0  0  0  0  0  0  0  0  0
  -14.7804   21.9647   67.5051 C   0  0  0  0  0  0  0  0  0  0  0  0
  -15.8633   21.3744   75.0611 C   0  0  0  0  0  0  0  0  0  0  0  0
  -17.0737   21.9973   74.9624 C   0  0  0  0  0  0  0  0  0  0  0  0
  -14.9512   20.7285   67.8777 C   0  0  0  0  0  0  0  0  0  0  0  0
  -18.2900   16.6380   75.0290 N   0  0  0  0  0  0  0  0  0  0  0  0
  1  2  1  0
  2  3  1  0
  2  4  1  0
  3  5  1  0
  3  6  1  0
  4  7  1  0
  4  8  1  0
  6  9  2  0
  8 10  1  0
 10 11  1  0
  5 12  1  0
 12 13  1  0
 12 14  2  0
  5 15  1  0
  7 15  1  0
 13 16  2  0
  6 17  1  0
 16 18  1  0
 17 19  1  0
  1 20  2  0
 19 20  1  0
 14 21  1  0
 18 21  2  0
 11 22  1  0
M  END
>  <ID>  (1) 
conformer_0

$$$$
