
     RDKit          3D

 27 32  0  0  0  0  0  0  0  0999 V2000
  -19.6849   19.4508   71.7990 O   0  0  0  0  0  0  0  0  0  0  0  0
  -19.0022   20.1380   71.1527 C   0  0  0  0  0  0  0  0  0  0  0  0
  -17.8142   20.7714   71.4243 N   0  0  0  0  0  0  0  0  0  0  0  0
  -17.2449   20.4094   72.7478 C   0  0  0  0  0  0  0  0  0  0  0  0
  -17.8418   21.1472   73.8260 C   0  0  0  0  0  0  0  0  0  0  0  0
  -17.1780   21.5636   70.5131 C   0  0  0  0  0  0  0  0  0  0  0  0
  -15.9019   22.0432   70.8142 C   0  0  0  0  0  0  0  0  0  0  0  0
  -17.6562   21.8700   69.3290 N   0  0  0  0  0  0  0  0  0  0  0  0
  -17.2884   18.9802   73.1864 C   0  0  0  0  0  0  0  0  0  0  0  0
  -18.8235   21.2564   68.9697 C   0  0  0  0  0  0  0  0  0  0  0  0
  -18.3124   18.4334   73.7381 N   0  0  0  0  0  0  0  0  0  0  0  0
  -15.2640   21.7265   72.0390 C   0  0  0  0  0  0  0  0  0  0  0  0
  -15.6789   20.8115   72.8360 C   0  0  0  0  0  0  0  0  0  0  0  0
  -19.2996   21.5701   67.6570 C   0  0  0  0  0  0  0  0  0  0  0  0
  -18.1991   18.4704   75.1365 C   0  0  0  0  0  0  0  0  0  0  0  0
  -19.5740   20.3486   69.8721 C   0  0  0  0  0  0  0  0  0  0  0  0
  -16.9299   22.6996   68.5507 C   0  0  0  0  0  0  0  0  0  0  0  0
  -15.4232   21.3046   74.2351 N   0  0  0  0  0  0  0  0  0  0  0  0
  -15.6757   22.9280   69.6070 C   0  0  0  0  0  0  0  0  0  0  0  0
  -16.7583   21.4432   74.9206 C   0  0  0  0  0  0  0  0  0  0  0  0
  -18.6217   22.3871   66.6946 C   0  0  0  0  0  0  0  0  0  0  0  0
  -14.3422   22.6098   69.0039 N   0  0  0  0  0  0  0  0  0  0  0  0
  -17.2380   23.0819   67.3537 C   0  0  0  0  0  0  0  0  0  0  0  0
  -20.4938   20.8848   67.3289 C   0  0  0  0  0  0  0  0  0  0  0  0
  -21.1796   20.3938   68.1206 C   0  0  0  0  0  0  0  0  0  0  0  0
  -20.7567   19.9672   69.4528 C   0  0  0  0  0  0  0  0  0  0  0  0
  -18.7707   17.1066   73.3365 C   0  0  0  0  0  0  0  0  0  0  0  0
  1  2  2  0
  2  3  1  0
  3  4  1  0
  4  5  1  0
  3  6  1  0
  6  7  2  0
  6  8  1  0
  4  9  1  0
  8 10  1  0
  9 11  1  0
  7 12  1  0
  4 13  1  0
 12 13  1  0
 10 14  2  0
 11 15  1  0
  2 16  1  0
 10 16  1  0
  8 17  1  0
 13 18  1  0
  7 19  1  0
 17 19  1  0
  5 20  1  0
 18 20  1  0
 14 21  1  0
 19 22  1  0
 17 23  1  0
 21 23  1  0
 14 24  1  0
 24 25  2  0
 16 26  2  0
 25 26  1  0
 11 27  1  0
M  END
>  <ID>  (1) 
conformer_0

$$$$
