
     RDKit          3D

 27 30  0  0  0  0  0  0  0  0999 V2000
  -19.6849   19.4508   71.7990 O   0  0  0  0  0  0  0  0  0  0  0  0
  -19.0022   20.1380   71.1527 C   0  0  0  0  0  0  0  0  0  0  0  0
  -17.8142   20.7714   71.4243 N   0  0  0  0  0  0  0  0  0  0  0  0
  -17.2449   20.4094   72.7478 C   0  0  0  0  0  0  0  0  0  0  0  0
  -17.8418   21.1472   73.8260 C   0  0  0  0  0  0  0  0  0  0  0  0
  -17.1780   21.5636   70.5131 C   0  0  0  0  0  0  0  0  0  0  0  0
  -15.9019   22.0432   70.8142 C   0  0  0  0  0  0  0  0  0  0  0  0
  -17.6562   21.8700   69.3290 N   0  0  0  0  0  0  0  0  0  0  0  0
  -17.2884   18.9802   73.1864 C   0  0  0  0  0  0  0  0  0  0  0  0
  -18.8235   21.2564   68.9697 C   0  0  0  0  0  0  0  0  0  0  0  0
  -18.3124   18.4334   73.7381 N   0  0  0  0  0  0  0  0  0  0  0  0
  -15.2640   21.7265   72.0390 C   0  0  0  0  0  0  0  0  0  0  0  0
  -15.6789   20.8115   72.8360 C   0  0  0  0  0  0  0  0  0  0  0  0
  -19.2996   21.5701   67.6570 C   0  0  0  0  0  0  0  0  0  0  0  0
  -19.5682   20.3095   69.8269 C   0  0  0  0  0  0  0  0  0  0  0  0
  -18.2452   17.0702   74.1665 C   0  0  0  0  0  0  0  0  0  0  0  0
  -15.0936   22.9866   72.6642 O   0  0  0  0  0  0  0  0  0  0  0  0
  -15.3059   22.5662   69.6354 N   0  0  0  0  0  0  0  0  0  0  0  0
  -20.4569   20.9388   67.2486 C   0  0  0  0  0  0  0  0  0  0  0  0
  -20.8879   21.4013   65.9417 O   0  0  0  0  0  0  0  0  0  0  0  0
  -21.1868   20.1156   68.0637 C   0  0  0  0  0  0  0  0  0  0  0  0
  -15.1077   19.4593   72.5929 O   0  0  0  0  0  0  0  0  0  0  0  0
  -17.1864   21.6514   74.8978 O   0  0  0  0  0  0  0  0  0  0  0  0
  -17.9962   16.2460   73.3603 O   0  0  0  0  0  0  0  0  0  0  0  0
  -18.7861   16.7767   75.4715 N   0  0  0  0  0  0  0  0  0  0  0  0
  -16.5251   22.5879   68.7603 C   0  0  0  0  0  0  0  0  0  0  0  0
  -20.6068   19.7978   69.3550 C   0  0  0  0  0  0  0  0  0  0  0  0
  1  2  2  0
  2  3  1  0
  3  4  1  0
  4  5  1  0
  3  6  1  0
  6  7  2  0
  6  8  1  0
  4  9  1  0
  8 10  1  0
  9 11  1  0
  7 12  1  0
  4 13  1  0
 12 13  1  0
 10 14  2  0
  2 15  1  0
 10 15  1  0
 11 16  1  0
 12 17  1  0
  7 18  1  0
 14 19  1  0
 19 20  1  0
 19 21  2  0
 13 22  1  0
  5 23  1  0
 16 24  2  0
 16 25  1  0
  8 26  1  0
 18 26  2  0
 15 27  2  0
 21 27  1  0
M  END
>  <ID>  (1) 
conformer_0

$$$$
