
     RDKit          3D

 13 14  0  0  0  0  0  0  0  0999 V2000
  -16.4813   20.5977   76.0491 O   0  0  0  0  0  0  0  0  0  0  0  0
  -16.8153   21.0636   74.9103 C   0  0  0  0  0  0  0  0  0  0  0  0
  -17.6341   20.2274   74.0876 C   0  0  0  0  0  0  0  0  0  0  0  0
  -16.3250   22.2201   74.3097 C   0  0  0  0  0  0  0  0  0  0  0  0
  -17.3551   22.6726   73.4579 O   0  0  0  0  0  0  0  0  0  0  0  0
  -17.5735   22.1069   72.2666 C   0  0  0  0  0  0  0  0  0  0  0  0
  -18.1848   20.6975   72.7952 C   0  0  0  0  0  0  0  0  0  0  0  0
  -18.6816   19.5400   74.8292 O   0  0  0  0  0  0  0  0  0  0  0  0
  -18.6295   22.3977   71.2865 C   0  0  0  0  0  0  0  0  0  0  0  0
  -19.3709   21.3658   70.9243 O   0  0  0  0  0  0  0  0  0  0  0  0
  -19.0849   20.1364   71.7994 C   0  0  0  0  0  0  0  0  0  0  0  0
  -15.2786   22.7273   74.2287 O   0  0  0  0  0  0  0  0  0  0  0  0
  -18.4981   19.1648   71.0574 O   0  0  0  0  0  0  0  0  0  0  0  0
  1  2  1  0
  2  3  1  0
  2  4  1  0
  4  5  1  0
  5  6  1  0
  3  7  1  0
  6  7  1  0
  3  8  1  0
  6  9  1  0
  9 10  1  0
  7 11  1  0
 10 11  1  0
  4 12  2  0
 11 13  1  0
M  END
>  <ID>  (1) 
conformer_0

$$$$
