
     RDKit          3D

 26 29  0  0  0  0  0  0  0  0999 V2000
  -19.6849   19.4508   71.7990 O   0  0  0  0  0  0  0  0  0  0  0  0
  -19.0022   20.1380   71.1527 C   0  0  0  0  0  0  0  0  0  0  0  0
  -17.8142   20.7714   71.4243 N   0  0  0  0  0  0  0  0  0  0  0  0
  -17.2449   20.4094   72.7478 C   0  0  0  0  0  0  0  0  0  0  0  0
  -17.8418   21.1472   73.8260 C   0  0  0  0  0  0  0  0  0  0  0  0
  -17.1780   21.5636   70.5131 C   0  0  0  0  0  0  0  0  0  0  0  0
  -15.9019   22.0432   70.8142 C   0  0  0  0  0  0  0  0  0  0  0  0
  -17.6562   21.8700   69.3290 N   0  0  0  0  0  0  0  0  0  0  0  0
  -17.2884   18.9802   73.1864 C   0  0  0  0  0  0  0  0  0  0  0  0
  -18.8235   21.2564   68.9697 C   0  0  0  0  0  0  0  0  0  0  0  0
  -18.3124   18.4334   73.7381 N   0  0  0  0  0  0  0  0  0  0  0  0
  -15.2640   21.7265   72.0390 C   0  0  0  0  0  0  0  0  0  0  0  0
  -15.6789   20.8115   72.8360 C   0  0  0  0  0  0  0  0  0  0  0  0
  -17.2710   21.0407   75.1229 O   0  0  0  0  0  0  0  0  0  0  0  0
  -19.5216   20.3652   69.6575 C   0  0  0  0  0  0  0  0  0  0  0  0
  -18.9193   21.1721   67.4658 C   0  0  0  0  0  0  0  0  0  0  0  0
  -15.2696   22.8525   69.8655 C   0  0  0  0  0  0  0  0  0  0  0  0
  -20.2741   21.1107   66.9853 C   0  0  0  0  0  0  0  0  0  0  0  0
  -20.4989   21.6464   65.8429 O   0  0  0  0  0  0  0  0  0  0  0  0
  -21.2068   20.7336   68.0517 C   0  0  0  0  0  0  0  0  0  0  0  0
  -18.2861   18.0056   75.0574 C   0  0  0  0  0  0  0  0  0  0  0  0
  -14.2683   22.5472   72.3396 O   0  0  0  0  0  0  0  0  0  0  0  0
  -20.8142   20.3017   69.2722 C   0  0  0  0  0  0  0  0  0  0  0  0
  -16.9761   22.6646   68.3961 C   0  0  0  0  0  0  0  0  0  0  0  0
  -17.7489   16.5965   75.0406 C   0  0  0  0  0  0  0  0  0  0  0  0
  -15.8343   23.2095   68.7463 C   0  0  0  0  0  0  0  0  0  0  0  0
  1  2  2  0
  2  3  1  0
  3  4  1  0
  4  5  1  0
  3  6  1  0
  6  7  2  0
  6  8  1  0
  4  9  1  0
  8 10  1  0
  9 11  1  0
  7 12  1  0
  4 13  1  0
 12 13  1  0
  5 14  1  0
  2 15  1  0
 10 15  1  0
 10 16  2  0
  7 17  1  0
 16 18  1  0
 18 19  1  0
 18 20  2  0
 11 21  1  0
 12 22  2  0
 15 23  2  0
 20 23  1  0
  8 24  1  0
 21 25  1  0
 17 26  2  0
 24 26  1  0
M  END
>  <ID>  (1) 
conformer_0

$$$$
