
     RDKit          3D

 11 12  0  0  0  0  0  0  0  0999 V2000
  -17.1595   17.0488   75.2722 C   0  0  0  0  0  0  0  0  0  0  0  0
  -16.3917   18.0975   75.2254 N   0  0  0  0  0  0  0  0  0  0  0  0
  -18.3029   16.9859   74.3740 C   0  0  0  0  0  0  0  0  0  0  0  0
  -16.6599   19.1547   74.6018 C   0  0  0  0  0  0  0  0  0  0  0  0
  -18.6121   18.2016   73.7424 C   0  0  0  0  0  0  0  0  0  0  0  0
  -19.6769   18.2396   72.9798 O   0  0  0  0  0  0  0  0  0  0  0  0
  -17.7344   19.1751   73.8809 C   0  0  0  0  0  0  0  0  0  0  0  0
  -15.8223   20.3613   74.8367 N   0  0  0  0  0  0  0  0  0  0  0  0
  -18.0289   20.5791   73.2460 C   0  0  0  0  0  0  0  0  0  0  0  0
  -16.0038   21.4580   74.2023 C   0  0  0  0  0  0  0  0  0  0  0  0
  -17.1722   21.6013   73.4118 N   0  0  0  0  0  0  0  0  0  0  0  0
  1  2  2  0
  1  3  1  0
  2  4  1  0
  3  5  2  0
  5  6  1  0
  4  7  2  0
  5  7  1  0
  4  8  1  0
  7  9  1  0
  8 10  2  0
  9 11  2  0
 10 11  1  0
M  END
>  <ID>  (1) 
conformer_0

$$$$
