
     RDKit          3D

 24 26  0  0  0  0  0  0  0  0999 V2000
  -20.2283   19.7813   70.3254 O   0  0  0  0  0  0  0  0  0  0  0  0
  -19.1581   20.3194   70.1301 C   0  0  0  0  0  0  0  0  0  0  0  0
  -18.1513   20.3395   71.1004 N   0  0  0  0  0  0  0  0  0  0  0  0
  -18.4504   19.9353   72.4460 C   0  0  0  0  0  0  0  0  0  0  0  0
  -18.0500   20.9086   73.5091 C   0  0  0  0  0  0  0  0  0  0  0  0
  -16.8452   20.7917   70.8178 C   0  0  0  0  0  0  0  0  0  0  0  0
  -16.7033   21.4948   69.5653 C   0  0  0  0  0  0  0  0  0  0  0  0
  -19.0511   21.1765   68.9440 C   0  0  0  0  0  0  0  0  0  0  0  0
  -15.3866   21.8898   69.2178 N   0  0  0  0  0  0  0  0  0  0  0  0
  -17.4145   20.2465   74.6558 C   0  0  0  0  0  0  0  0  0  0  0  0
  -18.2313   22.1891   73.4630 C   0  0  0  0  0  0  0  0  0  0  0  0
  -17.7121   21.5465   68.6265 C   0  0  0  0  0  0  0  0  0  0  0  0
  -17.2449   22.1338   67.3044 C   0  0  0  0  0  0  0  0  0  0  0  0
  -14.5994   22.3241   70.1941 C   0  0  0  0  0  0  0  0  0  0  0  0
  -16.1254   22.5711   67.1390 N   0  0  0  0  0  0  0  0  0  0  0  0
  -15.0251   21.9666   67.8992 C   0  0  0  0  0  0  0  0  0  0  0  0
  -17.2632   18.8543   74.7942 C   0  0  0  0  0  0  0  0  0  0  0  0
  -17.6150   22.7761   74.6937 C   0  0  0  0  0  0  0  0  0  0  0  0
  -13.7744   22.4484   67.6274 O   0  0  0  0  0  0  0  0  0  0  0  0
  -13.0037   22.1169   66.7471 C   0  0  0  0  0  0  0  0  0  0  0  0
  -18.4908   18.0705   74.5743 N   0  0  0  0  0  0  0  0  0  0  0  0
  -17.0276   21.7346   75.5279 C   0  0  0  0  0  0  0  0  0  0  0  0
  -18.0950   22.3131   66.3633 O   0  0  0  0  0  0  0  0  0  0  0  0
  -16.1416   18.3643   74.4462 O   0  0  0  0  0  0  0  0  0  0  0  0
  1  2  2  0
  2  3  1  0
  3  4  1  0
  4  5  1  0
  3  6  1  0
  6  7  1  0
  2  8  1  0
  7  9  1  0
  5 10  1  0
  5 11  2  0
  7 12  2  0
  8 12  1  0
 12 13  1  0
  9 14  1  0
 13 15  1  0
  9 16  1  0
 15 16  1  0
 10 17  1  0
 11 18  1  0
 16 19  1  0
 19 20  1  0
 17 21  1  0
 10 22  1  0
 18 22  1  0
 13 23  2  0
 17 24  2  0
M  END
>  <ID>  (1) 
conformer_0

$$$$
