
     RDKit          3D

 21 23  0  0  0  0  0  0  0  0999 V2000
  -17.3826   21.8359   75.6023 C   0  0  0  0  0  0  0  0  0  0  0  0
  -16.3417   21.0182   75.5637 N   0  0  0  0  0  0  0  0  0  0  0  0
  -16.3526   20.1645   74.4889 C   0  0  0  0  0  0  0  0  0  0  0  0
  -17.2490   20.3646   73.5974 C   0  0  0  0  0  0  0  0  0  0  0  0
  -17.3296   19.8499   72.3512 C   0  0  0  0  0  0  0  0  0  0  0  0
  -16.8480   20.5632   71.3667 N   0  0  0  0  0  0  0  0  0  0  0  0
  -18.0688   21.4719   74.1147 C   0  0  0  0  0  0  0  0  0  0  0  0
  -17.5096   20.8317   70.2598 C   0  0  0  0  0  0  0  0  0  0  0  0
  -15.6023   21.0877   71.3515 C   0  0  0  0  0  0  0  0  0  0  0  0
  -16.7926   21.6219   69.4180 C   0  0  0  0  0  0  0  0  0  0  0  0
  -19.0268   21.0033   70.3422 C   0  0  0  0  0  0  0  0  0  0  0  0
  -14.9671   21.4416   72.4109 O   0  0  0  0  0  0  0  0  0  0  0  0
  -18.8388   19.4277   72.1117 N   0  0  0  0  0  0  0  0  0  0  0  0
  -19.7039   21.1162   69.0624 N   0  0  0  0  0  0  0  0  0  0  0  0
  -16.7858   21.4331   67.9286 C   0  0  0  0  0  0  0  0  0  0  0  0
  -17.8151   21.8865   67.2153 O   0  0  0  0  0  0  0  0  0  0  0  0
  -15.3275   21.4910   69.9857 N   0  0  0  0  0  0  0  0  0  0  0  0
  -20.6866   22.0060   68.9505 C   0  0  0  0  0  0  0  0  0  0  0  0
  -19.6764   20.1664   71.3324 C   0  0  0  0  0  0  0  0  0  0  0  0
  -15.8153   20.8001   67.3951 O   0  0  0  0  0  0  0  0  0  0  0  0
  -19.3162   18.3356   72.8738 C   0  0  0  0  0  0  0  0  0  0  0  0
  1  2  1  0
  2  3  1  0
  3  4  1  0
  4  5  1  0
  5  6  1  0
  1  7  1  0
  4  7  1  0
  6  8  1  0
  6  9  1  0
  8 10  1  0
  8 11  1  0
  9 12  2  0
  5 13  1  0
 11 14  1  0
 10 15  1  0
 15 16  2  0
  9 17  1  0
 10 17  1  0
 14 18  1  0
 11 19  1  0
 13 19  1  0
 15 20  1  0
 13 21  1  0
M  END
>  <ID>  (1) 
conformer_0

$$$$
