
     RDKit          3D

 26 30  0  0  0  0  0  0  0  0999 V2000
  -19.6849   19.4508   71.7990 O   0  0  0  0  0  0  0  0  0  0  0  0
  -19.0022   20.1380   71.1527 C   0  0  0  0  0  0  0  0  0  0  0  0
  -17.8142   20.7714   71.4243 N   0  0  0  0  0  0  0  0  0  0  0  0
  -17.2449   20.4094   72.7478 C   0  0  0  0  0  0  0  0  0  0  0  0
  -17.8418   21.1472   73.8260 C   0  0  0  0  0  0  0  0  0  0  0  0
  -17.1780   21.5636   70.5131 C   0  0  0  0  0  0  0  0  0  0  0  0
  -15.9019   22.0432   70.8142 C   0  0  0  0  0  0  0  0  0  0  0  0
  -17.6562   21.8700   69.3290 N   0  0  0  0  0  0  0  0  0  0  0  0
  -17.2884   18.9802   73.1864 C   0  0  0  0  0  0  0  0  0  0  0  0
  -18.8235   21.2564   68.9697 C   0  0  0  0  0  0  0  0  0  0  0  0
  -18.3124   18.4334   73.7381 N   0  0  0  0  0  0  0  0  0  0  0  0
  -18.2193   18.5393   75.1402 C   0  0  0  0  0  0  0  0  0  0  0  0
  -16.8881   18.0315   75.5969 C   0  0  0  0  0  0  0  0  0  0  0  0
  -17.0788   21.3863   75.0683 C   0  0  0  0  0  0  0  0  0  0  0  0
  -19.5438   20.4116   69.7561 C   0  0  0  0  0  0  0  0  0  0  0  0
  -16.0363   20.5226   75.1901 O   0  0  0  0  0  0  0  0  0  0  0  0
  -15.2396   22.9283   69.9026 C   0  0  0  0  0  0  0  0  0  0  0  0
  -19.3538   21.5790   67.6206 N   0  0  0  0  0  0  0  0  0  0  0  0
  -16.0216   18.3863   73.6000 O   0  0  0  0  0  0  0  0  0  0  0  0
  -15.8866   18.9755   75.0259 C   0  0  0  0  0  0  0  0  0  0  0  0
  -13.9952   23.4318   70.2106 N   0  0  0  0  0  0  0  0  0  0  0  0
  -15.8073   23.0283   68.6306 N   0  0  0  0  0  0  0  0  0  0  0  0
  -16.8903   22.7058   68.4154 C   0  0  0  0  0  0  0  0  0  0  0  0
  -16.6226   16.7782   75.0137 O   0  0  0  0  0  0  0  0  0  0  0  0
  -17.3038   22.6837   67.0054 C   0  0  0  0  0  0  0  0  0  0  0  0
  -18.5914   22.2238   66.7538 C   0  0  0  0  0  0  0  0  0  0  0  0
  1  2  2  0
  2  3  1  0
  3  4  1  0
  4  5  1  0
  3  6  1  0
  6  7  2  0
  6  8  1  0
  4  9  1  0
  8 10  1  0
  9 11  1  0
 11 12  1  0
 12 13  1  0
  5 14  1  0
  2 15  1  0
 10 15  2  0
 14 16  1  0
  7 17  1  0
 10 18  1  0
  9 19  1  0
 13 20  1  0
 16 20  1  0
 19 20  1  0
 17 21  1  0
 17 22  2  0
  8 23  1  0
 22 23  1  0
 13 24  1  0
 23 25  2  0
 18 26  2  0
 25 26  1  0
M  END
>  <ID>  (1) 
conformer_0

$$$$
