
     RDKit          3D

 27 30  0  0  0  0  0  0  0  0999 V2000
  -20.2283   19.7813   70.3254 O   0  0  0  0  0  0  0  0  0  0  0  0
  -19.1581   20.3194   70.1301 C   0  0  0  0  0  0  0  0  0  0  0  0
  -18.1513   20.3395   71.1004 N   0  0  0  0  0  0  0  0  0  0  0  0
  -18.4504   19.9353   72.4460 C   0  0  0  0  0  0  0  0  0  0  0  0
  -18.0500   20.9086   73.5091 C   0  0  0  0  0  0  0  0  0  0  0  0
  -16.8452   20.7917   70.8178 C   0  0  0  0  0  0  0  0  0  0  0  0
  -16.7033   21.4948   69.5653 C   0  0  0  0  0  0  0  0  0  0  0  0
  -19.0511   21.1765   68.9440 C   0  0  0  0  0  0  0  0  0  0  0  0
  -17.5960   21.2361   68.6399 N   0  0  0  0  0  0  0  0  0  0  0  0
  -15.6358   22.1914   69.3065 C   0  0  0  0  0  0  0  0  0  0  0  0
  -17.3723   22.1972   67.4680 C   0  0  0  0  0  0  0  0  0  0  0  0
  -18.3623   18.6540   72.6211 C   0  0  0  0  0  0  0  0  0  0  0  0
  -18.4370   22.1155   73.4748 C   0  0  0  0  0  0  0  0  0  0  0  0
  -16.1281   22.7085   67.4360 C   0  0  0  0  0  0  0  0  0  0  0  0
  -14.6095   22.2620   70.3490 O   0  0  0  0  0  0  0  0  0  0  0  0
  -18.5008   18.1564   74.0507 C   0  0  0  0  0  0  0  0  0  0  0  0
  -15.3072   22.8150   68.1312 C   0  0  0  0  0  0  0  0  0  0  0  0
  -14.0610   23.4939   68.0302 C   0  0  0  0  0  0  0  0  0  0  0  0
  -17.5373   20.4395   74.7967 C   0  0  0  0  0  0  0  0  0  0  0  0
  -16.4507   21.2103   75.2692 C   0  0  0  0  0  0  0  0  0  0  0  0
  -18.2849   22.0144   66.5099 O   0  0  0  0  0  0  0  0  0  0  0  0
  -15.8829   23.4054   65.9750 C   0  0  0  0  0  0  0  0  0  0  0  0
  -18.2197   16.7130   74.3077 C   0  0  0  0  0  0  0  0  0  0  0  0
  -14.6828   24.0847   65.8189 C   0  0  0  0  0  0  0  0  0  0  0  0
  -17.0166   16.5333   74.8217 O   0  0  0  0  0  0  0  0  0  0  0  0
  -17.3885   18.9261   74.8555 C   0  0  0  0  0  0  0  0  0  0  0  0
  -13.7798   24.1297   66.8445 C   0  0  0  0  0  0  0  0  0  0  0  0
  1  2  2  0
  2  3  1  0
  3  4  1  0
  4  5  1  0
  3  6  1  0
  6  7  1  0
  2  8  1  0
  7  9  1  0
  8  9  1  0
  7 10  2  0
  9 11  1  0
  4 12  1  0
  5 13  2  0
 11 14  1  0
 10 15  1  0
 12 16  1  0
 10 17  1  0
 14 17  2  0
 17 18  1  0
  5 19  1  0
 19 20  1  0
 11 21  2  0
 14 22  1  0
 16 23  1  0
 22 24  2  0
 23 25  1  0
 16 26  1  0
 19 26  1  0
 18 27  2  0
 24 27  1  0
M  END
>  <ID>  (1) 
conformer_0

$$$$
