
     RDKit          3D

 28 33  0  0  0  0  0  0  0  0999 V2000
  -19.6849   19.4508   71.7990 O   0  0  0  0  0  0  0  0  0  0  0  0
  -19.0022   20.1380   71.1527 C   0  0  0  0  0  0  0  0  0  0  0  0
  -17.8142   20.7714   71.4243 N   0  0  0  0  0  0  0  0  0  0  0  0
  -17.2449   20.4094   72.7478 C   0  0  0  0  0  0  0  0  0  0  0  0
  -17.8418   21.1472   73.8260 C   0  0  0  0  0  0  0  0  0  0  0  0
  -17.1780   21.5636   70.5131 C   0  0  0  0  0  0  0  0  0  0  0  0
  -15.9019   22.0432   70.8142 C   0  0  0  0  0  0  0  0  0  0  0  0
  -17.6562   21.8700   69.3290 N   0  0  0  0  0  0  0  0  0  0  0  0
  -17.2884   18.9802   73.1864 C   0  0  0  0  0  0  0  0  0  0  0  0
  -18.8235   21.2564   68.9697 C   0  0  0  0  0  0  0  0  0  0  0  0
  -18.3124   18.4334   73.7381 N   0  0  0  0  0  0  0  0  0  0  0  0
  -15.2640   21.7265   72.0390 C   0  0  0  0  0  0  0  0  0  0  0  0
  -15.6789   20.8115   72.8360 C   0  0  0  0  0  0  0  0  0  0  0  0
  -19.2996   21.5701   67.6570 C   0  0  0  0  0  0  0  0  0  0  0  0
  -18.1991   18.4704   75.1365 C   0  0  0  0  0  0  0  0  0  0  0  0
  -18.3533   22.4295   66.9590 C   0  0  0  0  0  0  0  0  0  0  0  0
  -15.4279   23.0157   69.8396 C   0  0  0  0  0  0  0  0  0  0  0  0
  -16.9678   22.6907   68.5813 C   0  0  0  0  0  0  0  0  0  0  0  0
  -17.7192   17.0983   75.5030 C   0  0  0  0  0  0  0  0  0  0  0  0
  -17.3967   23.0509   67.3611 C   0  0  0  0  0  0  0  0  0  0  0  0
  -19.5846   20.3684   69.7876 C   0  0  0  0  0  0  0  0  0  0  0  0
  -16.9763   21.5298   75.0542 C   0  0  0  0  0  0  0  0  0  0  0  0
  -15.8628   23.2350   68.7596 N   0  0  0  0  0  0  0  0  0  0  0  0
  -16.3919   17.0386   75.2368 O   0  0  0  0  0  0  0  0  0  0  0  0
  -15.5803   21.1679   74.5245 N   0  0  0  0  0  0  0  0  0  0  0  0
  -14.2326   23.5311   70.1505 O   0  0  0  0  0  0  0  0  0  0  0  0
  -15.1944   24.1289   67.8462 C   0  0  0  0  0  0  0  0  0  0  0  0
  -16.6143   24.1409   66.6636 C   0  0  0  0  0  0  0  0  0  0  0  0
  1  2  2  0
  2  3  1  0
  3  4  1  0
  4  5  1  0
  3  6  1  0
  6  7  2  0
  6  8  1  0
  4  9  1  0
  8 10  1  0
  9 11  1  0
  7 12  1  0
  4 13  1  0
 12 13  1  0
 10 14  2  0
 11 15  1  0
 14 16  1  0
  7 17  1  0
  8 18  1  0
 15 19  1  0
 16 20  2  0
 18 20  1  0
  2 21  1  0
 10 21  1  0
  5 22  1  0
 17 23  1  0
 18 23  1  0
 19 24  1  0
 13 25  1  0
 22 25  1  0
 17 26  2  0
 23 27  1  0
 20 28  1  0
 27 28  1  0
M  END
>  <ID>  (1) 
conformer_0

$$$$
