
     RDKit          3D

 24 27  0  0  0  0  0  0  0  0999 V2000
  -19.6849   19.4508   71.7990 O   0  0  0  0  0  0  0  0  0  0  0  0
  -18.4707   19.6578   71.9728 C   0  0  0  0  0  0  0  0  0  0  0  0
  -17.6823   20.0022   70.9103 N   0  0  0  0  0  0  0  0  0  0  0  0
  -17.9191   19.8721   73.3652 C   0  0  0  0  0  0  0  0  0  0  0  0
  -17.8791   18.7386   74.1485 N   0  0  0  0  0  0  0  0  0  0  0  0
  -17.6690   21.0640   73.8486 C   0  0  0  0  0  0  0  0  0  0  0  0
  -18.2122   19.9554   69.6095 C   0  0  0  0  0  0  0  0  0  0  0  0
  -17.4072   18.8412   75.4421 C   0  0  0  0  0  0  0  0  0  0  0  0
  -16.6182   21.0724   70.8999 C   0  0  0  0  0  0  0  0  0  0  0  0
  -17.0669   17.6240   76.0555 C   0  0  0  0  0  0  0  0  0  0  0  0
  -16.8899   20.0331   75.8367 C   0  0  0  0  0  0  0  0  0  0  0  0
  -18.2904   17.3781   73.7114 C   0  0  0  0  0  0  0  0  0  0  0  0
  -17.9731   16.5323   75.3614 C   0  0  0  0  0  0  0  0  0  0  0  0
  -16.6230   21.9052   69.8059 C   0  0  0  0  0  0  0  0  0  0  0  0
  -17.8532   16.3209   74.1518 C   0  0  0  0  0  0  0  0  0  0  0  0
  -16.3295   20.1242   77.0682 O   0  0  0  0  0  0  0  0  0  0  0  0
  -17.5496   21.2491   68.8814 C   0  0  0  0  0  0  0  0  0  0  0  0
  -15.8197   22.9127   69.4472 C   0  0  0  0  0  0  0  0  0  0  0  0
  -17.6473   21.6651   67.5615 C   0  0  0  0  0  0  0  0  0  0  0  0
  -15.9914   23.4388   68.0912 C   0  0  0  0  0  0  0  0  0  0  0  0
  -16.8196   22.7691   67.1317 C   0  0  0  0  0  0  0  0  0  0  0  0
  -16.9884   23.2020   65.8297 O   0  0  0  0  0  0  0  0  0  0  0  0
  -17.8769   22.5535   65.0717 C   0  0  0  0  0  0  0  0  0  0  0  0
  -17.1306   21.1622   75.1524 C   0  0  0  0  0  0  0  0  0  0  0  0
  1  2  2  0
  2  3  1  0
  2  4  1  0
  4  5  1  0
  4  6  2  0
  3  7  1  0
  5  8  1  0
  3  9  1  0
  8 10  1  0
  8 11  2  0
  5 12  1  0
 10 13  1  0
  9 14  1  0
 12 15  1  0
 13 15  1  0
 11 16  1  0
  7 17  1  0
 14 17  2  0
 14 18  1  0
 17 19  1  0
 18 20  2  0
 19 21  2  0
 20 21  1  0
 21 22  1  0
 22 23  1  0
  6 24  1  0
 11 24  1  0
M  END
>  <ID>  (1) 
conformer_0

$$$$
