
     RDKit          3D

 27 30  0  0  0  0  0  0  0  0999 V2000
  -19.6849   19.4508   71.7990 O   0  0  0  0  0  0  0  0  0  0  0  0
  -19.0022   20.1380   71.1527 C   0  0  0  0  0  0  0  0  0  0  0  0
  -17.8142   20.7714   71.4243 N   0  0  0  0  0  0  0  0  0  0  0  0
  -17.2449   20.4094   72.7478 C   0  0  0  0  0  0  0  0  0  0  0  0
  -17.8418   21.1472   73.8260 C   0  0  0  0  0  0  0  0  0  0  0  0
  -17.1780   21.5636   70.5131 C   0  0  0  0  0  0  0  0  0  0  0  0
  -15.9019   22.0432   70.8142 C   0  0  0  0  0  0  0  0  0  0  0  0
  -17.6562   21.8700   69.3290 N   0  0  0  0  0  0  0  0  0  0  0  0
  -17.2884   18.9802   73.1864 C   0  0  0  0  0  0  0  0  0  0  0  0
  -18.8235   21.2564   68.9697 C   0  0  0  0  0  0  0  0  0  0  0  0
  -18.3124   18.4334   73.7381 N   0  0  0  0  0  0  0  0  0  0  0  0
  -15.2640   21.7265   72.0390 C   0  0  0  0  0  0  0  0  0  0  0  0
  -16.9650   22.7926   68.4568 C   0  0  0  0  0  0  0  0  0  0  0  0
  -14.0776   22.1856   72.2879 O   0  0  0  0  0  0  0  0  0  0  0  0
  -17.2835   22.7201   67.1943 O   0  0  0  0  0  0  0  0  0  0  0  0
  -19.5677   20.3880   69.7266 C   0  0  0  0  0  0  0  0  0  0  0  0
  -15.5025   22.8043   68.6416 C   0  0  0  0  0  0  0  0  0  0  0  0
  -20.9394   20.7332   69.8439 O   0  0  0  0  0  0  0  0  0  0  0  0
  -19.1587   21.4556   67.6971 C   0  0  0  0  0  0  0  0  0  0  0  0
  -18.5428   22.2251   66.7952 C   0  0  0  0  0  0  0  0  0  0  0  0
  -14.6947   23.4152   67.7737 O   0  0  0  0  0  0  0  0  0  0  0  0
  -14.9208   22.7378   69.9064 C   0  0  0  0  0  0  0  0  0  0  0  0
  -15.9179   21.0102   72.8686 N   0  0  0  0  0  0  0  0  0  0  0  0
  -19.1847   23.1882   66.1587 O   0  0  0  0  0  0  0  0  0  0  0  0
  -18.3703   18.6187   75.0755 C   0  0  0  0  0  0  0  0  0  0  0  0
  -17.7148   22.6133   74.1435 C   0  0  0  0  0  0  0  0  0  0  0  0
  -18.3884   17.0025   73.3043 C   0  0  0  0  0  0  0  0  0  0  0  0
  1  2  2  0
  2  3  1  0
  3  4  1  0
  4  5  1  0
  3  6  1  0
  6  7  2  0
  6  8  1  0
  4  9  1  0
  8 10  1  0
  9 11  1  0
  7 12  1  0
  8 13  1  0
 12 14  2  0
 13 15  1  0
  2 16  1  0
 10 16  1  0
 13 17  1  0
 16 18  1  0
 10 19  2  0
 15 20  1  0
 19 20  1  0
 17 21  1  0
  7 22  1  0
 17 22  1  0
  4 23  1  0
 12 23  1  0
 20 24  1  0
 11 25  1  0
  5 26  1  0
 11 27  1  0
M  END
>  <ID>  (1) 
conformer_0

$$$$
