
     RDKit          3D

 25 28  0  0  0  0  0  0  0  0999 V2000
  -20.2283   19.7813   70.3254 O   0  0  0  0  0  0  0  0  0  0  0  0
  -19.1581   20.3194   70.1301 C   0  0  0  0  0  0  0  0  0  0  0  0
  -18.1513   20.3395   71.1004 N   0  0  0  0  0  0  0  0  0  0  0  0
  -18.4504   19.9353   72.4460 C   0  0  0  0  0  0  0  0  0  0  0  0
  -17.9594   18.5827   72.7935 C   0  0  0  0  0  0  0  0  0  0  0  0
  -18.8261   20.6221   68.8070 C   0  0  0  0  0  0  0  0  0  0  0  0
  -17.8914   21.7665   68.6298 C   0  0  0  0  0  0  0  0  0  0  0  0
  -19.9064   20.9383   67.8553 C   0  0  0  0  0  0  0  0  0  0  0  0
  -19.5807   22.0033   66.8988 C   0  0  0  0  0  0  0  0  0  0  0  0
  -16.4082   21.4176   68.5160 C   0  0  0  0  0  0  0  0  0  0  0  0
  -18.1096   22.1489   67.1147 N   0  0  0  0  0  0  0  0  0  0  0  0
  -18.3176   17.9683   74.0491 C   0  0  0  0  0  0  0  0  0  0  0  0
  -17.7776   21.0527   73.2532 C   0  0  0  0  0  0  0  0  0  0  0  0
  -17.4827   23.4633   66.8468 C   0  0  0  0  0  0  0  0  0  0  0  0
  -17.7303   23.8656   65.6347 O   0  0  0  0  0  0  0  0  0  0  0  0
  -18.3111   16.5600   74.1530 O   0  0  0  0  0  0  0  0  0  0  0  0
  -18.0093   22.3262   73.0060 C   0  0  0  0  0  0  0  0  0  0  0  0
  -15.4969   22.5854   68.4044 N   0  0  0  0  0  0  0  0  0  0  0  0
  -17.6303   18.5492   75.1852 C   0  0  0  0  0  0  0  0  0  0  0  0
  -15.8448   23.1555   67.0277 C   0  0  0  0  0  0  0  0  0  0  0  0
  -17.2998   23.2015   74.1166 C   0  0  0  0  0  0  0  0  0  0  0  0
  -14.1291   22.0897   68.3734 C   0  0  0  0  0  0  0  0  0  0  0  0
  -17.1292   20.7574   74.5726 N   0  0  0  0  0  0  0  0  0  0  0  0
  -16.7668   19.5952   75.0361 C   0  0  0  0  0  0  0  0  0  0  0  0
  -17.0186   22.1162   75.0678 C   0  0  0  0  0  0  0  0  0  0  0  0
  1  2  2  0
  2  3  1  0
  3  4  1  0
  4  5  1  0
  2  6  1  0
  6  7  1  0
  6  8  1  0
  8  9  1  0
  7 10  1  0
  7 11  1  0
  9 11  1  0
  5 12  1  0
  4 13  1  0
 11 14  1  0
 14 15  1  0
 12 16  1  0
 13 17  2  0
 10 18  1  0
 12 19  1  0
 14 20  1  0
 18 20  1  0
 17 21  1  0
 18 22  1  0
 13 23  1  0
 19 24  1  0
 23 24  1  0
 21 25  2  0
 23 25  1  0
M  END
>  <ID>  (1) 
conformer_0

$$$$
