
     RDKit          3D

 13 14  0  0  0  0  0  0  0  0999 V2000
  -19.0159   17.8144   73.6582 N   0  0  0  0  0  0  0  0  0  0  0  0
  -18.5161   18.8485   73.2958 C   0  0  0  0  0  0  0  0  0  0  0  0
  -17.4580   19.4239   74.1433 C   0  0  0  0  0  0  0  0  0  0  0  0
  -16.8751   20.7942   73.9540 N   0  0  0  0  0  0  0  0  0  0  0  0
  -18.7214   19.5228   72.0635 C   0  0  0  0  0  0  0  0  0  0  0  0
  -18.1940   20.7690   71.8082 N   0  0  0  0  0  0  0  0  0  0  0  0
  -18.2497   17.4622   74.8622 C   0  0  0  0  0  0  0  0  0  0  0  0
  -17.1676   18.6184   75.1238 N   0  0  0  0  0  0  0  0  0  0  0  0
  -16.1848   18.4810   76.0885 C   0  0  0  0  0  0  0  0  0  0  0  0
  -17.3045   21.3190   72.7596 C   0  0  0  0  0  0  0  0  0  0  0  0
  -16.5436   22.6853   72.3609 C   0  0  0  0  0  0  0  0  0  0  0  0
  -15.2833   22.7327   73.0453 C   0  0  0  0  0  0  0  0  0  0  0  0
  -14.3919   21.8215   73.0218 C   0  0  0  0  0  0  0  0  0  0  0  0
  1  2  1  0
  2  3  2  0
  3  4  1  0
  2  5  1  0
  5  6  2  0
  1  7  2  0
  3  8  1  0
  7  8  1  0
  8  9  1  0
  4 10  2  0
  6 10  1  0
 10 11  1  0
 11 12  1  0
 12 13  1  0
M  END
>  <ID>  (1) 
conformer_0

$$$$
