
     RDKit          3D

 13 14  0  0  0  0  0  0  0  0999 V2000
  -18.1424   22.5655   73.9954 C   0  0  0  0  0  0  0  0  0  0  0  0
  -17.4275   21.3857   73.9264 C   0  0  0  0  0  0  0  0  0  0  0  0
  -18.0499   20.3527   73.1949 N   0  0  0  0  0  0  0  0  0  0  0  0
  -16.1112   21.7175   73.2187 C   0  0  0  0  0  0  0  0  0  0  0  0
  -18.1698   19.0614   73.6445 C   0  0  0  0  0  0  0  0  0  0  0  0
  -17.8511   18.6280   74.8550 C   0  0  0  0  0  0  0  0  0  0  0  0
  -18.8791   18.1203   72.6958 C   0  0  0  0  0  0  0  0  0  0  0  0
  -17.1117   21.0710   75.3932 C   0  0  0  0  0  0  0  0  0  0  0  0
  -16.9044   19.5793   75.5933 O   0  0  0  0  0  0  0  0  0  0  0  0
  -19.1459   18.6531   71.4698 C   0  0  0  0  0  0  0  0  0  0  0  0
  -18.3155   20.5541   71.8110 C   0  0  0  0  0  0  0  0  0  0  0  0
  -18.8760   19.8576   71.0735 C   0  0  0  0  0  0  0  0  0  0  0  0
  -19.0806   16.9830   73.2212 O   0  0  0  0  0  0  0  0  0  0  0  0
  1  2  1  0
  2  3  1  0
  2  4  1  0
  3  5  1  0
  5  6  2  0
  5  7  1  0
  2  8  1  0
  6  9  1  0
  8  9  1  0
  7 10  1  0
  3 11  1  0
 10 12  2  0
 11 12  2  0
  7 13  2  0
M  END
>  <ID>  (1) 
conformer_0

$$$$
