
     RDKit          3D

 25 27  0  0  0  0  0  0  0  0999 V2000
  -20.2283   19.7813   70.3254 O   0  0  0  0  0  0  0  0  0  0  0  0
  -19.1581   20.3194   70.1301 C   0  0  0  0  0  0  0  0  0  0  0  0
  -18.1513   20.3395   71.1004 N   0  0  0  0  0  0  0  0  0  0  0  0
  -18.4504   19.9353   72.4460 C   0  0  0  0  0  0  0  0  0  0  0  0
  -18.0500   20.9086   73.5091 C   0  0  0  0  0  0  0  0  0  0  0  0
  -16.8452   20.7917   70.8178 C   0  0  0  0  0  0  0  0  0  0  0  0
  -16.7033   21.4948   69.5653 C   0  0  0  0  0  0  0  0  0  0  0  0
  -19.0511   21.1765   68.9440 C   0  0  0  0  0  0  0  0  0  0  0  0
  -15.3866   21.8898   69.2178 N   0  0  0  0  0  0  0  0  0  0  0  0
  -17.4145   20.2465   74.6558 C   0  0  0  0  0  0  0  0  0  0  0  0
  -16.4232   21.0459   75.3305 N   0  0  0  0  0  0  0  0  0  0  0  0
  -17.6846   18.9621   74.9255 C   0  0  0  0  0  0  0  0  0  0  0  0
  -16.6307   22.1110   75.9438 O   0  0  0  0  0  0  0  0  0  0  0  0
  -18.7594   18.9033   72.7617 N   0  0  0  0  0  0  0  0  0  0  0  0
  -15.0181   23.1972   69.4708 C   0  0  0  0  0  0  0  0  0  0  0  0
  -17.6088   21.2150   68.4455 C   0  0  0  0  0  0  0  0  0  0  0  0
  -17.2461   18.3175   76.0961 C   0  0  0  0  0  0  0  0  0  0  0  0
  -15.2464   20.5969   74.9449 O   0  0  0  0  0  0  0  0  0  0  0  0
  -18.4695   18.2354   73.9325 C   0  0  0  0  0  0  0  0  0  0  0  0
  -13.7163   23.5747   69.1244 C   0  0  0  0  0  0  0  0  0  0  0  0
  -17.5220   16.8724   75.8586 C   0  0  0  0  0  0  0  0  0  0  0  0
  -17.2233   21.4708   67.1126 C   0  0  0  0  0  0  0  0  0  0  0  0
  -12.8848   24.1553   69.9969 O   0  0  0  0  0  0  0  0  0  0  0  0
  -13.2582   23.3728   67.8979 O   0  0  0  0  0  0  0  0  0  0  0  0
  -18.0775   16.7486   74.1674 C   0  0  0  0  0  0  0  0  0  0  0  0
  1  2  2  0
  2  3  1  0
  3  4  1  0
  4  5  1  0
  3  6  1  0
  6  7  1  0
  2  8  1  0
  7  9  1  0
  5 10  1  0
 10 11  1  0
 10 12  2  0
 11 13  1  0
  4 14  2  0
  9 15  1  0
  7 16  2  0
  8 16  1  0
 12 17  1  0
 11 18  2  0
 12 19  1  0
 14 19  1  0
 15 20  1  0
 17 21  1  0
 16 22  1  0
 20 23  1  0
 20 24  2  0
 19 25  1  0
 21 25  1  0
M  CHG  2  11   1  13  -1
M  END
>  <ID>  (1) 
conformer_0

$$$$
