
     RDKit          3D

 16 17  0  0  0  0  0  0  0  0999 V2000
   -3.6207  -16.2576   -9.4083 C   0  0  0  0  0  0  0  0  0  0  0  0
   -1.6789  -18.3595  -12.4775 C   0  0  0  0  0  0  0  0  0  0  0  0
   -5.5060  -16.0029   -8.7018 C   0  0  0  0  0  0  0  0  0  0  0  0
   -0.9982  -18.5427  -12.9949 C   0  0  0  0  0  0  0  0  0  0  0  0
   -2.7425  -18.2113  -11.4122 C   0  0  0  0  0  0  0  0  0  0  0  0
   -3.1175  -16.0858  -12.7359 O   0  0  0  0  0  0  0  0  0  0  0  0
   -0.6348  -20.9777  -10.1380 O   0  0  0  0  0  0  0  0  0  0  0  0
    0.0839  -18.3913  -14.2168 O   0  0  0  0  0  0  0  0  0  0  0  0
   -6.7249  -16.5688   -8.9613 C   0  0  0  0  0  0  0  0  0  0  0  0
   -2.2051  -17.5320  -14.4298 O   0  0  0  0  0  0  0  0  0  0  0  0
   -1.0542  -19.9586  -11.1725 C   0  0  0  0  0  0  0  0  0  0  0  0
   -3.0037  -16.9338  -12.9128 C   0  0  0  0  0  0  0  0  0  0  0  0
   -0.2940  -20.0210  -12.3594 C   0  0  0  0  0  0  0  0  0  0  0  0
   -4.9361  -16.8712   -9.8745 C   0  0  0  0  0  0  0  0  0  0  0  0
   -3.5182  -17.4250  -10.6999 C   0  0  0  0  0  0  0  0  0  0  0  0
   -1.9943  -19.3587  -10.7660 C   0  0  0  0  0  3  0  0  0  0  0  0
  4  2  2  0
  5  2  1  0
  8  4  1  0
  9  3  1  0
 11  7  1  0
 12  5  1  0
 12  6  2  0
 12 10  1  0
 13  4  1  0
 13 11  2  0
 14  1  1  0
 14  3  1  0
 15  1  1  0
 15  5  1  0
 15 14  1  0
 16  5  1  0
 16 11  1  0
M  RAD  1  16   2
M  END
>  <ID>  (1) 
conformer_0

$$$$
