
     RDKit          3D

 15 15  0  0  0  0  0  0  0  0999 V2000
   -5.4477  -16.4566   -9.1433 C   0  0  0  0  0  0  0  0  0  0  0  0
   -2.3295  -18.2552  -11.0599 C   0  0  0  0  0  0  0  0  0  0  0  0
   -6.5145  -16.6982   -9.0431 C   0  0  0  0  0  0  0  0  0  0  0  0
   -1.5741  -19.1824  -10.3694 C   0  0  0  0  0  0  0  0  0  0  0  0
   -2.5825  -17.0665  -13.4713 C   0  0  0  0  0  0  0  0  0  0  0  0
   -0.5271  -19.9079  -11.0145 C   0  0  0  0  0  0  0  0  0  0  0  0
   -3.1721  -16.3185  -13.2641 O   0  0  0  0  0  0  0  0  0  0  0  0
   -4.3546  -17.2744  -10.0596 C   0  0  0  0  0  0  0  0  0  0  0  0
    0.1703  -20.7041  -10.2670 O   0  0  0  0  0  0  0  0  0  0  0  0
   -0.1177  -18.5776  -14.1605 O   0  0  0  0  0  0  0  0  0  0  0  0
   -0.3014  -19.4448  -12.2654 C   0  0  0  0  0  0  0  0  0  0  0  0
   -2.3512  -17.5213  -14.5494 O   0  0  0  0  0  0  0  0  0  0  0  0
   -3.4048  -17.2575   -9.9121 C   0  0  0  0  0  0  0  0  0  0  0  0
   -0.9233  -18.6453  -12.8442 C   0  0  0  0  0  0  0  0  0  0  0  0
   -2.0683  -18.0448  -12.4595 C   0  0  0  0  0  0  0  0  0  0  0  0
  3  1  2  3
  4  2  2  0
  6  4  1  0
  7  5  2  0
  8  1  1  0
  9  6  1  0
 11  6  2  0
 12  5  1  0
 13  2  1  0
 13  8  2  3
 14 10  1  0
 14 11  1  0
 15  2  1  0
 15  5  1  0
 15 14  2  0
M  END
>  <ID>  (1) 
conformer_0

$$$$
