
     RDKit          3D

 14 14  0  0  0  0  0  0  0  0999 V2000
   -6.4841  -16.4632   -8.9638 C   0  0  0  0  0  0  0  0  0  0  0  0
   -2.5749  -18.1788  -11.3865 C   0  0  0  0  0  0  0  0  0  0  0  0
   -5.4601  -16.2828   -8.9281 C   0  0  0  0  0  0  0  0  0  0  0  0
   -0.6660  -19.7889  -11.0344 C   0  0  0  0  0  0  0  0  0  0  0  0
   -1.9163  -19.0508  -10.6451 C   0  0  0  0  0  0  0  0  0  0  0  0
   -3.0438  -15.8641  -12.7013 O   0  0  0  0  0  0  0  0  0  0  0  0
   -2.6940  -17.3762  -14.6033 O   0  0  0  0  0  0  0  0  0  0  0  0
   -4.2010  -16.8429   -9.5918 C   0  0  0  0  0  0  0  0  0  0  0  0
   -2.7668  -16.9300  -13.1556 C   0  0  0  0  0  0  0  0  0  0  0  0
    0.0008  -20.7052  -10.4742 O   0  0  0  0  0  0  0  0  0  0  0  0
   -0.3940  -19.1822  -12.5738 C   0  0  0  0  0  0  0  0  0  0  0  0
   -0.8880  -18.8430  -12.8662 C   0  0  0  0  0  0  0  0  0  0  0  0
   -3.8832  -17.3721  -10.4969 C   0  0  0  0  0  0  0  0  0  0  0  0
   -2.0607  -17.9963  -12.7517 C   0  0  0  0  0  0  0  0  0  0  0  0
  3  1  2  3
  5  2  2  0
  5  4  1  0
  8  3  1  0
  9  6  2  0
  9  7  1  0
 10  4  1  0
 11  4  2  0
 12 11  1  0
 13  2  1  0
 13  8  2  3
 14  2  1  0
 14  9  1  0
 14 12  2  0
M  END
>  <ID>  (1) 
conformer_0

$$$$
