
     RDKit          3D

 14 14  0  0  0  0  0  0  0  0999 V2000
   -5.3622  -16.4368   -9.1014 C   0  0  0  0  0  0  0  0  0  0  0  0
   -2.5965  -18.3092  -11.3691 C   0  0  0  0  0  0  0  0  0  0  0  0
   -6.5230  -16.1491   -8.7986 C   0  0  0  0  0  0  0  0  0  0  0  0
   -0.8253  -19.8314  -10.7348 C   0  0  0  0  0  0  0  0  0  0  0  0
   -1.9374  -18.8259  -10.3472 C   0  0  0  0  0  0  0  0  0  0  0  0
    0.1104  -18.6500  -14.1920 O   0  0  0  0  0  0  0  0  0  0  0  0
   -4.1836  -16.7626   -9.8157 C   0  0  0  0  0  0  0  0  0  0  0  0
   -0.2898  -20.5747   -9.7137 O   0  0  0  0  0  0  0  0  0  0  0  0
   -3.2420  -16.1657  -12.9775 O   0  0  0  0  0  0  0  0  0  0  0  0
   -0.6642  -18.8500  -12.8114 C   0  0  0  0  0  0  0  0  0  0  0  0
   -2.8917  -17.0964  -13.0661 C   0  0  0  0  0  0  0  0  0  0  0  0
   -0.4413  -19.5213  -12.0680 C   0  0  0  0  0  0  0  0  0  0  0  0
   -4.0622  -17.5096  -10.8459 C   0  0  0  0  0  0  0  0  0  0  0  0
   -1.9832  -18.2445  -12.6058 C   0  0  0  0  0  0  0  0  0  0  0  0
  3  1  3  0
  5  2  2  0
  5  4  1  0
  7  1  1  0
  8  4  1  0
 10  6  1  0
 11  9  2  0
 12  4  2  0
 12 10  1  0
 13  2  1  0
 13  7  1  0
 14  2  1  0
 14 10  2  0
 14 11  1  0
M  END
>  <ID>  (1) 
conformer_0

$$$$
