
     RDKit          3D

 16 17  0  0  0  0  0  0  0  0999 V2000
   -4.0683  -17.1730  -11.1891 C   0  0  0  0  0  0  0  0  0  0  0  0
   -0.3536  -19.7098  -12.2268 C   0  0  0  0  0  0  0  0  0  0  0  0
   -4.1669  -16.1171   -9.0876 C   0  0  0  0  0  0  0  0  0  0  0  0
   -2.0913  -18.2668  -12.3372 C   0  0  0  0  0  3  0  0  0  0  0  0
   -1.0327  -18.7046  -12.9212 C   0  0  0  0  0  0  0  0  0  0  0  0
   -3.2994  -15.8246  -12.6284 O   0  0  0  0  0  0  0  0  0  0  0  0
    0.0574  -20.8978  -10.3834 O   0  0  0  0  0  0  0  0  0  0  0  0
   -2.7669  -17.4143  -14.3969 O   0  0  0  0  0  0  0  0  0  0  0  0
   -5.3987  -16.8099   -9.5474 C   0  0  0  0  0  0  0  0  0  0  0  0
   -2.8732  -16.9246  -13.1397 C   0  0  0  0  0  0  0  0  0  0  0  0
   -0.2422  -18.6043  -13.9853 O   0  0  0  0  0  0  0  0  0  0  0  0
   -2.5448  -18.3301  -11.0658 C   0  0  0  0  0  0  0  0  0  0  0  0
   -0.7163  -20.0420  -11.1428 C   0  0  0  0  0  0  0  0  0  0  0  0
   -6.2397  -16.0940   -8.6750 C   0  0  0  0  0  0  0  0  0  0  0  0
   -1.7595  -19.3003  -10.4590 C   0  0  0  0  0  0  0  0  0  0  0  0
   -3.2863  -17.2741   -9.8069 C   0  0  0  0  0  0  0  0  0  0  0  0
  5  2  2  0
  5  4  1  0
  9  3  1  0
 10  4  1  0
 10  6  2  0
 10  8  1  0
 11  5  1  0
 12  1  1  0
 12  4  1  0
 13  2  1  0
 13  7  1  0
 14  9  1  0
 15 12  1  0
 15 13  2  0
 16  1  1  0
 16  3  1  0
 16 12  1  0
M  RAD  1   4   2
M  END
>  <ID>  (1) 
conformer_0

$$$$
