
     RDKit          3D

 15 15  0  0  0  0  0  0  0  0999 V2000
   -0.1662  -19.4378  -12.0525 C   0  0  0  0  0  0  0  0  0  0  0  0
   -6.8651  -15.6690   -8.6874 C   0  0  0  0  0  0  0  0  0  0  0  0
   -5.7229  -16.3397   -8.9139 C   0  0  0  0  0  0  0  0  0  0  0  0
   -2.6349  -18.4888  -11.3015 C   0  0  0  0  0  0  0  0  0  0  0  0
   -0.6203  -19.7700  -10.9380 C   0  0  0  0  0  0  0  0  0  0  0  0
    0.2124  -20.6063  -10.1658 O   0  0  0  0  0  0  0  0  0  0  0  0
   -3.0584  -16.1428  -12.9826 O   0  0  0  0  0  0  0  0  0  0  0  0
   -0.0911  -18.4194  -14.0807 O   0  0  0  0  0  0  0  0  0  0  0  0
   -2.8058  -17.1359  -13.1846 C   0  0  0  0  0  0  0  0  0  0  0  0
   -2.5036  -17.6090  -14.7359 O   0  0  0  0  0  0  0  0  0  0  0  0
   -4.3490  -16.7365   -9.5173 C   0  0  0  0  0  0  0  0  0  0  0  0
   -2.0021  -18.3057  -12.4420 C   0  0  0  0  0  0  0  0  0  0  0  0
   -0.8523  -18.6717  -12.8820 C   0  0  0  0  0  0  0  0  0  0  0  0
   -3.8016  -17.4869  -10.6984 C   0  0  0  0  0  0  0  0  0  0  0  0
   -1.8517  -19.3441  -10.4929 C   0  0  0  0  0  0  0  0  0  0  0  0
  3  2  1  0
  5  1  2  0
  6  5  1  0
  9  7  2  0
 10  9  1  0
 11  3  1  0
 12  4  1  0
 12  9  1  0
 13  1  1  0
 13  8  1  0
 13 12  2  0
 14  4  1  0
 14 11  1  0
 15  4  2  0
 15  5  1  0
M  END
>  <ID>  (1) 
conformer_0

$$$$
