
     RDKit          3D

 15 15  0  0  0  0  0  0  0  0999 V2000
   -3.5310  -17.5185  -10.2082 C   0  0  0  0  0  0  0  0  0  0  0  0
   -2.5484  -18.0129  -11.5426 C   0  0  0  0  0  0  0  0  0  0  0  0
   -3.8447  -16.7681   -9.5331 C   0  0  0  0  0  0  0  0  0  0  0  0
   -0.6856  -18.8803  -12.6725 C   0  0  0  0  0  0  0  0  0  0  0  0
   -2.0235  -18.7542  -10.5168 C   0  0  0  0  0  0  0  0  0  0  0  0
   -2.8252  -16.9902  -13.4315 C   0  0  0  0  0  0  0  0  0  0  0  0
   -2.8924  -17.5790  -14.6568 O   0  0  0  0  0  0  0  0  0  0  0  0
   -5.3813  -16.5873   -9.2346 C   0  0  0  0  0  0  0  0  0  0  0  0
   -0.5903  -20.7243   -9.9861 O   0  0  0  0  0  0  0  0  0  0  0  0
   -2.8256  -15.9785  -13.2255 O   0  0  0  0  0  0  0  0  0  0  0  0
    0.4633  -19.2252  -13.5856 O   0  0  0  0  0  0  0  0  0  0  0  0
   -0.5880  -19.4452  -11.9321 C   0  0  0  0  0  0  0  0  0  0  0  0
   -0.9432  -19.8983  -11.0675 C   0  0  0  0  0  0  0  0  0  0  0  0
   -6.4814  -16.0727   -8.8408 C   0  0  0  0  0  0  0  0  0  0  0  0
   -1.7097  -18.0429  -13.0074 C   0  0  0  0  0  0  0  0  0  0  0  0
  2  1  1  0
  3  1  1  0
  5  2  2  0
  7  6  1  0
  8  3  1  0
 10  6  1  0
 11  4  1  0
 12  4  1  0
 13  5  1  0
 13  9  1  0
 13 12  2  0
 14  8  3  0
 15  2  1  0
 15  4  2  0
 15  6  1  0
M  END
>  <ID>  (1) 
conformer_0

$$$$
