
     RDKit          3D

 16 18  0  0  0  0  0  0  0  0999 V2000
   -4.8605  -17.1254  -10.0376 C   0  0  0  0  0  0  0  0  0  0  0  0
   -0.2422  -19.6004  -12.0665 C   0  0  0  0  0  0  0  0  0  0  0  0
   -3.2601  -17.2260   -9.7373 C   0  0  0  0  0  0  0  0  0  0  0  0
   -2.5285  -18.2260  -11.2100 C   0  0  0  0  0  0  0  0  0  0  0  0
   -0.7258  -19.8258  -10.8428 C   0  0  0  0  0  0  0  0  0  0  0  0
   -3.0781  -15.9035  -13.0055 O   0  0  0  0  0  0  0  0  0  0  0  0
   -0.1813  -18.4858  -14.0490 O   0  0  0  0  0  0  0  0  0  0  0  0
   -0.0451  -20.7190   -9.9098 O   0  0  0  0  0  0  0  0  0  0  0  0
   -5.1766  -16.2041   -9.0794 C   0  0  0  0  0  0  0  0  0  0  0  0
   -2.8747  -16.9349  -13.2412 C   0  0  0  0  0  0  0  0  0  0  0  0
   -2.7005  -17.5933  -14.5672 O   0  0  0  0  0  0  0  0  0  0  0  0
   -1.7769  -19.1439  -10.4468 C   0  0  0  0  0  3  0  0  0  0  0  0
   -0.9429  -18.6703  -12.9027 C   0  0  0  0  0  0  0  0  0  0  0  0
   -6.7149  -16.2475   -8.8658 C   0  0  0  0  0  0  0  0  0  0  0  0
   -2.0231  -18.1923  -12.4438 C   0  0  0  0  0  0  0  0  0  0  0  0
   -3.8326  -17.2386  -11.4038 C   0  0  0  0  0  0  0  0  0  0  0  0
  3  1  1  0
  4  3  1  0
  5  2  2  0
  8  5  1  0
  9  1  1  0
 10  6  2  0
 11 10  1  0
 12  4  1  0
 12  5  1  0
 13  2  1  0
 13  7  1  0
 14  9  1  0
 15  4  1  0
 15 10  1  0
 15 13  2  0
 16  1  1  0
 16  3  1  0
 16  4  1  0
M  RAD  1  12   2
M  END
>  <ID>  (1) 
conformer_0

$$$$
