
     RDKit          3D

 14 14  0  0  0  0  0  0  0  0999 V2000
   -5.2866  -16.2653   -9.0068 C   0  0  0  0  0  0  0  0  0  0  0  0
   -2.1384  -18.9469  -10.7942 C   0  0  0  0  0  0  0  0  0  0  0  0
   -3.8194  -16.6714   -9.5159 C   0  0  0  0  0  0  0  0  0  0  0  0
   -1.0348  -18.5603  -12.9062 C   0  0  0  0  0  0  0  0  0  0  0  0
   -2.3356  -18.3437  -11.8669 C   0  0  0  0  0  0  0  0  0  0  0  0
   -2.7085  -17.0610  -13.4656 C   0  0  0  0  0  0  0  0  0  0  0  0
   -2.9335  -17.6620  -14.5676 O   0  0  0  0  0  0  0  0  0  0  0  0
   -3.5660  -17.4651  -10.2711 C   0  0  0  0  0  0  0  0  0  0  0  0
   -0.0367  -20.7416  -10.0024 O   0  0  0  0  0  0  0  0  0  0  0  0
   -2.7661  -16.0769  -13.1602 O   0  0  0  0  0  0  0  0  0  0  0  0
    0.1060  -18.5245  -13.9735 O   0  0  0  0  0  0  0  0  0  0  0  0
   -0.4850  -19.4379  -12.0097 C   0  0  0  0  0  0  0  0  0  0  0  0
   -0.6108  -19.8638  -11.0594 C   0  0  2  0  0  0  0  0  0  0  0  0
   -6.4303  -16.8823   -8.9450 C   0  0  0  0  0  0  0  0  0  0  0  0
  3  1  1  0
  5  2  2  0
  5  4  1  0
  6  5  1  0
  7  6  1  0
  8  2  1  0
  8  3  1  0
 10  6  2  0
 11  4  1  0
 12  4  2  0
 13  2  1  0
 13  9  1  1
 13 12  1  0
 14  1  2  3
M  END
>  <ID>  (1) 
conformer_0

$$$$
