
     RDKit          3D

 16 17  0  0  0  0  0  0  0  0999 V2000
   -3.4525  -16.8367   -9.6928 C   0  0  0  0  0  0  0  0  0  0  0  0
   -0.6428  -19.2752  -12.4096 C   0  0  0  0  0  3  0  0  0  0  0  0
   -4.2646  -17.4708  -10.4911 C   0  0  0  0  0  0  0  0  0  0  0  0
   -1.5559  -18.1721  -12.8626 C   0  0  0  0  0  0  0  0  0  0  0  0
   -2.3688  -17.9319  -12.0369 C   0  0  0  0  0  0  0  0  0  0  0  0
   -0.0136  -20.7995  -10.4753 O   0  0  0  0  0  0  0  0  0  0  0  0
   -2.7031  -17.4434  -14.7199 O   0  0  0  0  0  0  0  0  0  0  0  0
   -5.8467  -17.1010   -9.1887 C   0  0  0  0  0  0  0  0  0  0  0  0
   -0.4292  -18.4189  -14.1927 O   0  0  0  0  0  0  0  0  0  0  0  0
   -2.5581  -15.9118  -13.3444 O   0  0  0  0  0  0  0  0  0  0  0  0
   -0.7584  -19.7516  -11.2922 C   0  0  0  0  0  0  0  0  0  0  0  0
   -2.6893  -18.1552  -10.7430 C   0  0  0  0  0  0  0  0  0  0  0  0
   -2.5280  -16.8970  -13.6488 C   0  0  0  0  0  0  0  0  0  0  0  0
   -6.6042  -15.7998   -8.6774 C   0  0  0  0  0  0  0  0  0  0  0  0
   -1.6887  -19.1829  -10.3924 C   0  0  0  0  0  0  0  0  0  0  0  0
   -4.7744  -15.9155   -9.1564 C   0  0  0  0  0  0  0  0  0  0  0  0
  3  1  1  0
  4  2  1  0
  5  4  1  0
  9  4  1  0
 11  2  1  0
 11  6  1  0
 12  3  1  0
 12  5  2  0
 13  4  1  0
 13  7  1  0
 13 10  2  0
 14  8  1  0
 15 11  2  0
 15 12  1  0
 16  1  1  0
 16  8  1  0
 16 14  1  0
M  RAD  1   2   2
M  END
>  <ID>  (1) 
conformer_0

$$$$
