
     RDKit          3D

 15 15  0  0  0  0  0  0  0  0999 V2000
   -2.0082  -18.1428  -12.6276 C   0  0  0  0  0  0  0  0  0  0  0  0
   -6.4943  -15.9407   -8.7372 C   0  0  0  0  0  0  0  0  0  0  0  0
   -5.6658  -16.5253   -9.0206 C   0  0  0  0  0  0  0  0  0  0  0  0
   -2.3651  -18.1961  -11.3541 C   0  0  0  0  0  0  0  0  0  0  0  0
   -0.3251  -20.7063  -10.2090 O   0  0  0  0  0  0  0  0  0  0  0  0
   -0.7409  -19.8821  -11.0236 C   0  0  0  0  0  0  0  0  0  0  0  0
   -2.6706  -17.3088  -13.3948 C   0  0  0  0  0  0  0  0  0  0  0  0
    0.0525  -18.6306  -14.1235 O   0  0  0  0  0  0  0  0  0  0  0  0
   -4.3743  -16.9416   -9.6743 C   0  0  0  0  0  0  0  0  0  0  0  0
   -0.3401  -19.5069  -12.2262 C   0  0  0  0  0  0  0  0  0  0  0  0
   -2.9682  -16.3858  -13.2069 O   0  0  0  0  0  0  0  0  0  0  0  0
   -2.8527  -17.6521  -14.4570 O   0  0  0  0  0  0  0  0  0  0  0  0
   -3.2138  -17.3804   -9.9096 C   0  0  0  0  0  0  0  0  0  0  0  0
   -0.6921  -18.7267  -13.0362 C   0  0  0  0  0  0  0  0  0  0  0  0
   -1.6969  -18.8107  -10.4505 C   0  0  0  0  0  0  0  0  0  0  0  0
  3  2  3  0
  4  1  2  0
  6  5  1  0
  7  1  1  0
  9  3  1  0
 10  6  1  0
 11  7  2  0
 12  7  1  0
 13  4  1  0
 13  9  1  0
 14  1  1  0
 14  8  1  0
 14 10  2  0
 15  4  1  0
 15  6  2  0
M  END
>  <ID>  (1) 
conformer_0

$$$$
