
     RDKit          3D

 15 15  0  0  0  0  0  0  0  0999 V2000
   -4.3111  -17.5272  -10.2938 C   0  0  2  0  0  0  0  0  0  0  0  0
   -2.5775  -18.2829  -11.2538 C   0  0  0  0  0  0  0  0  0  0  0  0
   -5.4054  -16.5485   -9.1957 C   0  0  0  0  0  0  0  0  0  0  0  0
   -0.8790  -18.6000  -12.9505 C   0  0  0  0  0  0  0  0  0  0  0  0
   -1.8501  -18.8460  -10.3814 C   0  0  0  0  0  0  0  0  0  0  0  0
   -0.3128  -20.5173   -9.6593 O   0  0  0  0  0  0  0  0  0  0  0  0
    0.0555  -18.5222  -13.9921 O   0  0  0  0  0  0  0  0  0  0  0  0
   -3.3540  -15.8797  -12.7306 O   0  0  0  0  0  0  0  0  0  0  0  0
   -0.3545  -19.5995  -11.8831 C   0  0  0  0  0  0  0  0  0  0  0  0
   -3.4558  -17.0267   -9.6989 C   0  0  0  0  0  0  0  0  0  0  0  0
   -2.9851  -16.8717  -13.1379 C   0  0  0  0  0  0  0  0  0  0  0  0
   -0.7877  -19.6684  -10.8399 C   0  0  0  0  0  0  0  0  0  0  0  0
   -2.8491  -17.3803  -14.1479 O   0  0  0  0  0  0  0  0  0  0  0  0
   -6.5652  -16.5997   -8.9559 C   0  0  0  0  0  0  0  0  0  0  0  0
   -2.0565  -18.1229  -12.5930 C   0  0  0  0  0  0  0  0  0  0  0  0
  2  1  1  0
  3  1  1  0
  5  2  2  0
  7  4  1  0
  9  4  1  0
  1 10  1  1
 11  8  2  0
 12  5  1  0
 12  6  1  0
 12  9  2  0
 13 11  1  0
 14  3  2  3
 15  2  1  0
 15  4  2  0
 15 11  1  0
M  END
>  <ID>  (1) 
conformer_0

$$$$
