
     RDKit          3D

 16 16  0  0  0  0  0  0  0  0999 V2000
   -4.7522  -16.1548   -9.1459 C   0  0  0  0  0  0  0  0  0  0  0  0
   -0.2158  -19.6064  -12.4753 C   0  0  0  0  0  3  0  0  0  0  0  0
   -5.8291  -16.6844   -9.0691 C   0  0  0  0  0  0  0  0  0  0  0  0
   -6.9204  -15.6559   -8.6615 C   0  0  0  0  0  0  0  0  0  0  0  0
   -1.7666  -18.0920  -13.0007 C   0  0  0  0  0  3  0  0  0  0  0  0
   -1.2236  -18.2847  -13.3652 C   0  0  0  0  0  0  0  0  0  0  0  0
   -3.6744  -16.3953  -12.7058 O   0  0  0  0  0  0  0  0  0  0  0  0
   -0.4894  -20.5610  -10.0795 O   0  0  0  0  0  0  0  0  0  0  0  0
   -2.2150  -17.5663  -14.6834 O   0  0  0  0  0  0  0  0  0  0  0  0
   -3.3347  -16.9447  -12.6631 C   0  0  0  0  0  0  0  0  0  0  0  0
    0.0275  -18.6793  -14.5729 O   0  0  0  0  0  0  0  0  0  0  0  0
   -1.7051  -18.9269  -10.8877 C   0  0  0  0  0  0  0  0  0  0  0  0
   -0.8117  -19.5633  -11.4296 C   0  0  0  0  0  0  0  0  0  0  0  0
   -3.3712  -16.8947   -9.7128 C   0  0  0  0  0  0  0  0  0  0  0  0
   -3.7967  -17.7474  -10.5720 C   0  0  0  0  0  0  0  0  0  0  0  0
   -2.5917  -18.0736  -11.5435 C   0  0  0  0  0  0  0  0  0  0  0  0
  3  1  1  0
  4  3  1  0
  6  2  1  0
  6  5  1  0
  9  6  1  0
 10  7  2  0
 11  6  1  0
 13  2  1  0
 13  8  1  0
 13 12  2  0
 14  1  1  0
 15 14  1  0
 16  5  1  0
 16 10  1  0
 16 12  1  0
 16 15  1  0
M  RAD  2   2   2   5   2
M  END
>  <ID>  (1) 
conformer_0

$$$$
