
     RDKit          3D

 16 17  0  0  0  0  0  0  0  0999 V2000
   -4.6713  -16.0839   -9.0042 C   0  0  0  0  0  0  0  0  0  0  0  0
   -1.6161  -19.1652  -10.5881 C   0  0  0  0  0  0  0  0  0  0  0  0
   -6.5543  -15.9153   -8.6385 C   0  0  0  0  0  0  0  0  0  0  0  0
   -0.5285  -19.8622  -11.3040 C   0  0  0  0  0  0  0  0  0  0  0  0
   -2.5317  -18.3978  -11.2049 C   0  0  0  0  0  0  0  0  0  0  0  0
   -3.2548  -15.8798  -12.7098 O   0  0  0  0  0  0  0  0  0  0  0  0
   -3.6308  -17.0367   -9.7262 C   0  0  0  0  0  0  0  0  0  0  0  0
   -3.0777  -16.8044  -12.8239 C   0  0  0  0  0  0  0  0  0  0  0  0
   -2.4698  -17.6610  -14.3727 O   0  0  0  0  0  0  0  0  0  0  0  0
    0.0891  -20.7039  -10.5557 O   0  0  0  0  0  0  0  0  0  0  0  0
   -0.5685  -19.2439  -12.6649 C   0  0  0  0  0  0  0  0  0  0  0  0
   -0.1181  -18.4925  -14.2526 O   0  0  0  0  0  0  0  0  0  0  0  0
   -1.0202  -18.6849  -12.8831 C   0  0  0  0  0  0  0  0  0  0  0  0
   -3.9266  -17.4843  -10.9640 C   0  0  0  0  0  0  0  0  0  0  0  0
   -2.2409  -18.0092  -12.5182 C   0  0  0  0  0  0  0  0  0  0  0  0
   -5.7686  -17.1012   -9.3704 C   0  0  0  0  0  0  0  0  0  0  0  0
  3  1  1  0
  4  2  2  0
  5  2  1  0
  7  1  1  0
  8  6  1  0
  9  8  1  0
 10  4  1  0
 11  4  1  0
 13 11  2  0
 13 12  1  0
 14  5  1  0
 14  7  1  0
 15  5  2  0
 15  8  1  0
 15 13  1  0
 16  1  1  0
 16  3  1  0
M  END
>  <ID>  (1) 
conformer_0

$$$$
