
     RDKit          3D

 16 16  0  0  0  0  0  0  0  0999 V2000
   -3.7455  -16.9426   -9.8409 C   0  0  0  0  0  0  0  0  0  0  0  0
   -2.3310  -18.4023  -11.1287 C   0  0  0  0  0  0  0  0  0  0  0  0
   -5.0441  -16.5072   -9.2410 C   0  0  0  0  0  0  0  0  0  0  0  0
   -1.4846  -18.9011  -10.1967 C   0  0  0  0  0  0  0  0  0  0  0  0
   -6.1560  -16.0562   -8.7433 C   0  0  0  0  0  0  0  0  0  0  0  0
   -0.5432  -19.9227  -10.7130 C   0  0  0  0  0  0  0  0  0  0  0  0
    0.0913  -20.7326   -9.8833 O   0  0  0  0  0  0  0  0  0  0  0  0
   -2.7456  -16.8938  -13.3610 C   0  0  0  0  0  0  0  0  0  0  0  0
   -0.2700  -18.4710  -14.0004 O   0  0  0  0  0  0  0  0  0  0  0  0
   -0.2165  -19.5898  -11.9715 C   0  0  0  0  0  0  0  0  0  0  0  0
   -2.8632  -15.7266  -12.9331 O   0  0  0  0  0  0  0  0  0  0  0  0
   -3.1100  -17.0287  -14.1429 O   0  0  0  0  0  0  0  0  0  0  0  0
   -0.8605  -18.7978  -12.8267 C   0  0  0  0  0  0  0  0  0  0  0  0
   -3.8836  -17.5260  -10.9942 C   0  0  0  0  0  0  0  0  0  0  0  0
   -1.8313  -17.7839  -14.4648 O   0  0  0  0  0  0  0  0  0  0  0  0
   -1.9629  -18.4495  -12.3583 C   0  0  0  0  0  0  0  0  0  0  0  0
  3  1  1  0
  4  2  2  0
  5  3  3  0
  6  4  1  0
  7  6  1  0
 10  6  2  0
 11  8  1  0
 12  8  1  0
 13  9  1  0
 13 10  1  0
 14  1  1  0
 14  2  1  0
 15  8  1  0
 16  2  1  0
 16  8  1  0
 16 13  2  0
M  END
>  <ID>  (1) 
conformer_0

$$$$
