
     RDKit          3D

 16 17  0  0  0  0  0  0  0  0999 V2000
   -5.8000  -17.1362   -9.4064 C   0  0  0  0  0  0  0  0  0  0  0  0
   -2.3695  -17.9742  -12.4519 C   0  0  0  0  0  0  0  0  0  0  0  0
   -3.8365  -16.9312   -9.8443 C   0  0  0  0  0  0  0  0  0  0  0  0
   -0.6442  -19.9021  -11.2838 C   0  0  0  0  0  0  0  0  0  0  0  0
   -2.7505  -18.3902  -11.1452 C   0  0  0  0  0  0  0  0  0  0  0  0
   -2.9333  -16.1774  -13.0424 O   0  0  0  0  0  0  0  0  0  0  0  0
   -4.1976  -17.6596  -10.8386 C   0  0  0  0  0  0  0  0  0  0  0  0
    0.0571  -20.9265  -10.4592 O   0  0  0  0  0  0  0  0  0  0  0  0
    0.1816  -18.4871  -14.0059 O   0  0  0  0  0  0  0  0  0  0  0  0
   -2.6031  -16.9989  -13.2765 C   0  0  0  0  0  0  0  0  0  0  0  0
   -1.9934  -19.3181  -10.4269 C   0  0  0  0  0  0  0  0  0  0  0  0
   -0.8832  -18.6821  -12.7853 C   0  0  0  0  0  0  0  0  0  0  0  0
   -1.8838  -17.8055  -14.5995 O   0  0  0  0  0  0  0  0  0  0  0  0
   -0.7635  -19.3777  -12.3106 C   0  0  0  0  0  0  0  0  0  0  0  0
   -5.0646  -15.9691   -9.0084 C   0  0  0  0  0  0  0  0  0  0  0  0
   -6.8662  -15.8261   -8.7214 C   0  0  0  0  0  0  0  0  0  0  0  0
  5  2  2  0
  7  3  1  0
  7  5  1  0
  8  4  1  0
 10  2  1  0
 10  6  2  0
 11  4  2  0
 11  5  1  0
 12  2  1  0
 12  9  1  0
 13 10  1  0
 14  4  1  0
 14 12  2  0
 15  1  1  0
 15  3  1  0
 16  1  1  0
 16 15  1  0
M  END
>  <ID>  (1) 
conformer_0

$$$$
