
     RDKit          3D

 15 15  0  0  0  0  0  0  0  0999 V2000
   -2.6750  -18.2188  -11.3806 C   0  0  0  0  0  0  0  0  0  0  0  0
   -6.5022  -15.8357   -8.7785 C   0  0  0  0  0  0  0  0  0  0  0  0
   -5.5294  -16.5902   -9.1042 C   0  0  0  0  0  0  0  0  0  0  0  0
   -2.2695  -19.1742  -10.5717 C   0  0  0  0  0  0  0  0  0  0  0  0
   -0.9114  -20.0063  -10.8701 C   0  0  0  0  0  0  0  0  0  0  0  0
   -2.5681  -17.3561  -14.5964 O   0  0  0  0  0  0  0  0  0  0  0  0
   -2.7831  -16.9762  -13.0362 C   0  0  0  0  0  0  0  0  0  0  0  0
   -3.0579  -15.9535  -12.7724 O   0  0  0  0  0  0  0  0  0  0  0  0
   -0.1578  -20.8832  -10.1904 O   0  0  0  0  0  0  0  0  0  0  0  0
    0.1930  -18.5465  -13.8748 O   0  0  0  0  0  0  0  0  0  0  0  0
   -4.1468  -16.5823   -9.4295 C   0  0  0  0  0  0  0  0  0  0  0  0
   -0.5788  -19.5459  -12.0181 C   0  0  0  0  0  0  0  0  0  0  0  0
   -0.6605  -18.8374  -12.6716 C   0  0  0  0  0  0  0  0  0  0  0  0
   -1.9339  -18.1380  -12.6779 C   0  0  0  0  0  0  0  0  0  0  0  0
   -3.7949  -17.5466  -10.2474 C   0  0  0  0  0  0  0  0  0  0  0  0
  3  2  2  3
  4  1  2  0
  5  4  1  0
  7  6  1  0
  8  7  2  0
  9  5  1  0
 11  3  1  0
 12  5  2  0
 13 10  1  0
 13 12  1  0
 14  1  1  0
 14  7  1  0
 14 13  2  0
 15  1  1  0
 15 11  1  0
M  END
>  <ID>  (1) 
conformer_0

$$$$
