
     RDKit          3D

 17 17  0  0  0  0  0  0  0  0999 V2000
   -2.6787  -18.2063  -10.8656 C   0  0  0  0  0  0  0  0  0  0  0  0
   -3.3540  -17.0447   -9.5751 C   0  0  0  0  0  0  0  0  0  0  0  0
   -4.1868  -17.6679  -10.2825 C   0  0  0  0  0  0  0  0  0  0  0  0
   -1.7865  -18.1111  -13.0062 C   0  0  0  0  0  0  0  0  0  0  0  0
   -2.7536  -17.5226  -14.8788 O   0  0  0  0  0  0  0  0  0  0  0  0
   -2.6281  -18.1263  -12.2100 C   0  0  0  0  0  0  0  0  0  0  0  0
   -2.7808  -15.8603  -13.1328 O   0  0  0  0  0  0  0  0  0  0  0  0
   -6.0522  -16.8352   -9.0058 C   0  0  0  0  0  0  0  0  0  0  0  0
   -0.3236  -18.5530  -13.9333 O   0  0  0  0  0  0  0  0  0  0  0  0
    0.1315  -20.6098  -10.2217 O   0  0  0  0  0  0  0  0  0  0  0  0
   -2.6462  -16.9081  -13.6890 C   0  0  0  0  0  0  0  0  0  0  0  0
   -0.7529  -19.8432  -10.6445 C   0  0  0  0  0  0  0  0  0  0  0  0
   -0.6601  -19.4943  -12.0043 C   0  0  0  0  0  0  0  0  0  0  0  0
   -6.9601  -15.4816   -8.5012 C   0  0  0  0  0  0  0  0  0  0  0  0
   -4.9059  -16.1782   -8.9655 C   0  0  0  0  0  0  0  0  0  0  0  0
   -1.8698  -19.1433  -10.1700 C   0  0  0  0  0  0  0  0  0  0  0  0
   -0.6304  -19.0691  -12.4212 C   0  0  0  0  0  0  0  0  0  0  0  0
  3  1  1  0
  3  2  1  0
  6  1  2  0
  6  4  1  0
 11  4  1  0
 11  5  1  0
 11  7  2  0
 12 10  1  0
 13 12  2  0
 14  8  1  0
 15  2  1  0
 15  8  1  0
 16  1  1  0
 16 12  1  0
 17  4  2  0
 17  9  1  0
 17 13  1  0
M  END
>  <ID>  (1) 
conformer_0

$$$$
