
     RDKit          3D

 15 15  0  0  0  0  0  0  0  0999 V2000
   -2.6149  -18.4512  -10.7454 C   0  0  0  0  0  0  0  0  0  0  0  0
   -4.2577  -17.7115  -10.8539 C   0  0  0  0  0  0  0  0  0  0  0  0
   -5.9173  -17.0902   -9.5529 C   0  0  0  0  0  0  0  0  0  0  0  0
   -1.2012  -18.3951  -12.7957 C   0  0  0  0  0  0  0  0  0  0  0  0
   -2.3885  -18.2194  -12.0249 C   0  0  0  0  0  0  0  0  0  0  0  0
   -6.7326  -16.0806   -8.7957 C   0  0  0  0  0  0  0  0  0  0  0  0
    0.2546  -20.6146  -10.1263 O   0  0  0  0  0  0  0  0  0  0  0  0
   -0.6811  -19.6062  -11.1889 C   0  0  0  0  0  0  0  0  0  0  0  0
   -1.9901  -16.9545  -13.9645 C   0  0  0  0  0  0  0  0  0  0  0  0
   -0.1126  -18.3967  -14.0102 O   0  0  0  0  0  0  0  0  0  0  0  0
   -0.0086  -19.5283  -12.0801 C   0  0  0  0  0  3  0  0  0  0  0  0
   -2.0061  -17.0385  -13.5754 O   0  0  0  0  0  0  0  0  0  0  0  0
   -3.4734  -16.9907   -9.9855 C   0  0  0  0  0  0  0  0  0  0  0  0
   -4.7249  -16.0695   -9.2670 C   0  0  0  0  0  0  0  0  0  0  0  0
   -1.7791  -19.8280  -10.5739 C   0  0  0  0  0  0  0  0  0  0  0  0
  2  1  1  0
  5  1  2  0
  5  4  1  0
  6  3  1  0
  8  7  1  0
 10  4  1  0
 11  4  1  0
 11  8  1  0
 12  4  1  0
 12  9  1  0
 13  2  1  0
 14  3  1  0
 14 13  1  0
 15  1  1  0
 15  8  2  0
M  RAD  1  11   2
M  END
>  <ID>  (1) 
conformer_0

$$$$
