
     RDKit          3D

 15 15  0  0  0  0  0  0  0  0999 V2000
   -2.5967  -18.3983  -11.2853 C   0  0  0  0  0  0  0  0  0  0  0  0
   -5.0837  -16.4477   -9.2655 C   0  0  0  0  0  0  0  0  0  0  0  0
   -6.1862  -16.3821   -8.9391 C   0  0  0  0  0  0  0  0  0  0  0  0
   -2.1406  -18.2705  -12.4953 C   0  0  0  0  0  0  0  0  0  0  0  0
   -0.5767  -19.6408  -10.9685 C   0  0  0  0  0  0  0  0  0  0  0  0
   -4.0035  -15.9942  -12.5569 O   0  0  0  0  0  0  0  0  0  0  0  0
   -0.0685  -18.5994  -14.0585 O   0  0  0  0  0  0  0  0  0  0  0  0
    0.1743  -20.2791   -9.9525 O   0  0  0  0  0  0  0  0  0  0  0  0
   -0.2451  -19.4117  -12.0240 C   0  0  0  0  0  0  0  0  0  0  0  0
   -3.8825  -16.8950   -9.7568 C   0  0  0  0  0  0  0  0  0  0  0  0
   -2.6445  -17.6786  -14.4646 O   0  0  0  0  0  0  0  0  0  0  0  0
   -3.1233  -17.0579  -13.1344 C   0  0  0  0  0  0  0  0  0  0  0  0
   -0.9801  -18.6504  -12.9477 C   0  0  0  0  0  0  0  0  0  0  0  0
   -1.8243  -19.1654  -10.4187 C   0  0  0  0  0  0  0  0  0  0  0  0
   -3.8211  -17.4744  -10.9025 C   0  0  0  0  0  0  0  0  0  0  0  0
  3  2  3  0
  4  1  2  0
  8  5  1  0
  9  5  1  0
 10  2  1  0
 12  4  1  0
 12  6  2  0
 12 11  1  0
 13  4  1  0
 13  7  1  0
 13  9  2  0
 14  1  1  0
 14  5  2  0
 15  1  1  0
 15 10  1  0
M  END
>  <ID>  (1) 
conformer_0

$$$$
