
     RDKit          3D

 14 14  0  0  0  0  0  0  0  0999 V2000
   -2.3951  -18.9017  -10.7138 C   0  0  0  0  0  0  0  0  0  0  0  0
   -3.7731  -16.9128   -9.6967 C   0  0  0  0  0  0  0  0  0  0  0  0
   -1.1713  -18.4056  -13.0917 C   0  0  0  0  0  0  0  0  0  0  0  0
   -5.0965  -16.3076   -9.2537 C   0  0  0  0  0  0  0  0  0  0  0  0
   -2.3936  -18.1596  -11.9593 C   0  0  0  0  0  0  0  0  0  0  0  0
    0.2849  -18.7267  -13.7841 O   0  0  0  0  0  0  0  0  0  0  0  0
   -3.9737  -16.2461  -12.5167 O   0  0  0  0  0  0  0  0  0  0  0  0
   -2.3280  -17.5681  -14.2182 O   0  0  0  0  0  0  0  0  0  0  0  0
   -6.1997  -16.4029   -8.8468 C   0  0  0  0  0  0  0  0  0  0  0  0
    0.2914  -20.4718  -10.5861 O   0  0  0  0  0  0  0  0  0  0  0  0
   -0.6328  -19.4889  -11.8877 C   0  0  0  0  0  3  0  0  0  0  0  0
   -3.4200  -16.9673  -12.6977 C   0  0  0  0  0  0  0  0  0  0  0  0
   -1.1656  -19.7344  -11.3828 C   0  0  2  0  0  0  0  0  0  0  0  0
   -3.6837  -17.3942  -10.6363 C   0  0  0  0  0  0  0  0  0  0  0  0
  4  2  1  0
  5  1  2  0
  5  3  1  0
  6  3  1  0
  8  3  1  0
  9  4  2  3
 11  3  1  0
 12  5  1  0
 12  7  2  0
 13  1  1  0
 13 10  1  1
 13 11  1  0
 14  1  1  0
 14  2  1  0
M  RAD  1  11   2
M  END
>  <ID>  (1) 
conformer_0

$$$$
