
     RDKit          3D

 15 15  0  0  0  0  0  0  0  0999 V2000
   -2.2792  -18.2128  -11.3301 C   0  0  0  0  0  0  0  0  0  0  0  0
   -6.6665  -16.6878   -8.9297 C   0  0  0  0  0  0  0  0  0  0  0  0
   -5.4233  -16.3631   -8.9986 C   0  0  0  0  0  0  0  0  0  0  0  0
   -1.6916  -19.0143  -10.4681 C   0  0  0  0  0  0  0  0  0  0  0  0
   -0.2047  -20.9717  -10.2279 O   0  0  0  0  0  0  0  0  0  0  0  0
   -0.7145  -20.0496  -10.8442 C   0  0  0  0  0  0  0  0  0  0  0  0
   -2.9546  -17.4918  -14.4819 O   0  0  0  0  0  0  0  0  0  0  0  0
   -2.6051  -17.0475  -13.2647 C   0  0  0  0  0  0  0  0  0  0  0  0
   -2.9358  -15.9366  -12.7804 O   0  0  0  0  0  0  0  0  0  0  0  0
   -4.3693  -16.8980   -9.7756 C   0  0  0  0  0  0  0  0  0  0  0  0
   -0.2627  -19.5453  -12.1058 C   0  0  0  0  0  0  0  0  0  0  0  0
    0.0257  -18.5348  -13.8712 O   0  0  0  0  0  0  0  0  0  0  0  0
   -0.5112  -18.8850  -12.7282 C   0  0  0  0  0  0  0  0  0  0  0  0
   -1.6900  -18.1581  -12.6754 C   0  0  0  0  0  0  0  0  0  0  0  0
   -3.6543  -17.4603  -10.5860 C   0  0  0  0  0  0  0  0  0  0  0  0
  3  2  2  3
  4  1  2  0
  6  4  1  0
  6  5  1  0
  8  7  1  0
  9  8  2  0
 10  3  1  0
 11  6  2  0
 13 11  1  0
 13 12  1  0
 14  1  1  0
 14  8  1  0
 14 13  2  0
 15  1  1  0
 15 10  3  0
M  END
>  <ID>  (1) 
conformer_0

$$$$
