
     RDKit          3D

 15 15  0  0  0  0  0  0  0  0999 V2000
   -2.7157  -18.3320  -11.2797 C   0  0  0  0  0  0  0  0  0  0  0  0
   -5.8896  -16.7726   -9.0567 C   0  0  0  0  0  0  0  0  0  0  0  0
   -6.8028  -15.8954   -8.7422 C   0  0  0  0  0  0  0  0  0  0  0  0
   -1.8915  -19.1758  -10.5308 C   0  0  0  0  0  0  0  0  0  0  0  0
   -1.0159  -18.4560  -12.7586 C   0  0  0  0  0  0  0  0  0  0  0  0
   -2.7144  -17.0449  -13.6448 C   0  0  0  0  0  0  0  0  0  0  0  0
   -4.5177  -16.9150   -9.6548 C   0  0  0  0  0  0  0  0  0  0  0  0
    0.0437  -18.3294  -13.9705 O   0  0  0  0  0  0  0  0  0  0  0  0
    0.0244  -20.4734   -9.8568 O   0  0  0  0  0  0  0  0  0  0  0  0
   -2.8058  -17.4982  -14.7767 O   0  0  0  0  0  0  0  0  0  0  0  0
   -2.7234  -16.0598  -13.3751 O   0  0  0  0  0  0  0  0  0  0  0  0
   -0.3013  -19.2089  -12.0431 C   0  0  0  0  0  0  0  0  0  0  0  0
   -0.5472  -19.6586  -10.8725 C   0  0  0  0  0  0  0  0  0  0  0  0
   -4.0696  -17.7381  -10.5379 C   0  0  0  0  0  0  0  0  0  0  0  0
   -2.0349  -18.1022  -12.6708 C   0  0  0  0  0  0  0  0  0  0  0  0
  3  2  2  3
  4  1  2  0
  7  2  1  0
  8  5  1  0
 10  6  1  0
 11  6  2  0
 12  5  1  0
 13  4  1  0
 13  9  1  0
 13 12  2  0
 14  1  1  0
 14  7  2  3
 15  1  1  0
 15  5  2  0
 15  6  1  0
M  END
>  <ID>  (1) 
conformer_0

$$$$
