
     RDKit          3D

 15 16  0  0  0  0  0  0  0  0999 V2000
   -3.9961  -17.5690  -10.3639 C   0  0  0  0  0  0  0  0  0  0  0  0
   -1.7806  -19.1521  -10.2397 C   0  0  0  0  0  0  0  0  0  0  0  0
   -5.4509  -17.0614   -9.5944 C   0  0  0  0  0  0  0  0  0  0  0  0
   -6.1213  -16.1697   -8.9561 C   0  0  0  0  0  0  0  0  0  0  0  0
   -2.7504  -18.3242  -10.9700 C   0  0  0  0  0  0  0  0  0  0  0  0
   -1.3043  -18.3975  -12.8314 C   0  0  0  0  0  0  0  0  0  0  0  0
    0.0738  -20.4604   -9.8532 O   0  0  0  0  0  0  0  0  0  0  0  0
   -0.2860  -18.3648  -14.0777 O   0  0  0  0  0  0  0  0  0  0  0  0
   -2.9563  -15.9525  -12.9590 O   0  0  0  0  0  0  0  0  0  0  0  0
   -2.5184  -17.5778  -14.5216 O   0  0  0  0  0  0  0  0  0  0  0  0
   -0.3394  -19.3607  -12.0359 C   0  0  0  0  0  0  0  0  0  0  0  0
   -2.8022  -16.9509  -13.2263 C   0  0  0  0  0  0  0  0  0  0  0  0
   -0.7497  -19.6619  -10.7885 C   0  0  0  0  0  0  0  0  0  0  0  0
   -3.8064  -16.4506   -9.5075 C   0  0  0  0  0  0  0  0  0  0  0  0
   -2.2090  -18.2349  -12.1510 C   0  0  0  0  0  0  0  0  0  0  0  0
  3  1  1  0
  4  3  1  0
  5  1  1  0
  5  2  2  0
  8  6  1  0
 11  6  1  0
 12  9  2  0
 12 10  1  0
 13  2  1  0
 13  7  1  0
 13 11  2  0
 14  1  1  0
 14  3  1  0
 15  5  1  0
 15  6  2  0
 15 12  1  0
M  END
>  <ID>  (1) 
conformer_0

$$$$
