
     RDKit          3D

 16 18  0  0  0  0  0  0  0  0999 V2000
   -5.5883  -17.3520   -9.5800 C   0  0  0  0  0  0  0  0  0  0  0  0
   -1.7776  -19.2046  -10.3466 C   0  0  0  0  0  3  0  0  0  0  0  0
   -4.0509  -17.5799  -10.7618 C   0  0  0  0  0  0  0  0  0  0  0  0
   -2.5422  -18.1424  -10.9705 C   0  0  0  0  0  0  0  0  0  0  0  0
   -0.9626  -18.4996  -12.7789 C   0  0  0  0  0  0  0  0  0  0  0  0
   -0.4027  -20.9756   -9.8382 O   0  0  0  0  0  0  0  0  0  0  0  0
   -2.4179  -17.0040  -13.4675 C   0  0  0  0  0  0  0  0  0  0  0  0
   -2.5557  -15.8838  -13.0809 O   0  0  0  0  0  0  0  0  0  0  0  0
   -2.7356  -17.3788  -14.4198 O   0  0  0  0  0  0  0  0  0  0  0  0
   -6.6167  -16.3628   -8.7348 C   0  0  0  0  0  0  0  0  0  0  0  0
   -0.2242  -18.2104  -13.8934 O   0  0  0  0  0  0  0  0  0  0  0  0
   -0.8227  -19.9371  -10.7317 C   0  0  0  0  0  0  0  0  0  0  0  0
   -0.0645  -19.6394  -11.9064 C   0  0  0  0  0  0  0  0  0  0  0  0
   -4.8574  -16.1688   -9.0789 C   0  0  0  0  0  0  0  0  0  0  0  0
   -1.8272  -18.2765  -12.1764 C   0  0  0  0  0  0  0  0  0  0  0  0
   -3.2589  -17.2166   -9.6379 C   0  0  0  0  0  0  0  0  0  0  0  0
  3  1  1  0
  4  2  1  0
  4  3  1  0
  8  7  2  0
  9  7  1  0
 10  1  1  0
 11  5  1  0
 12  2  1  0
 12  6  1  0
 13  5  1  0
 13 12  2  0
 14  1  1  0
 14 10  1  0
 15  4  1  0
 15  5  2  0
 15  7  1  0
 16  3  1  0
 16  4  1  0
M  RAD  1   2   2
M  END
>  <ID>  (1) 
conformer_0

$$$$
