
     RDKit          3D

 16 17  0  0  0  0  0  0  0  0999 V2000
   -5.8374  -16.7588   -9.0928 C   0  0  0  0  0  0  0  0  0  0  0  0
   -6.6793  -15.6305   -8.5663 C   0  0  0  0  0  0  0  0  0  0  0  0
   -2.3188  -18.3029  -11.3821 C   0  0  0  0  0  0  0  0  0  0  0  0
   -1.8823  -18.2413  -12.6368 C   0  0  0  0  0  3  0  0  0  0  0  0
   -0.8156  -18.7999  -13.0857 C   0  0  0  0  0  0  0  0  0  0  0  0
   -3.4229  -15.6870  -12.3864 O   0  0  0  0  0  0  0  0  0  0  0  0
   -0.0633  -18.6742  -14.1482 O   0  0  0  0  0  0  0  0  0  0  0  0
   -2.7527  -17.2247  -14.2727 O   0  0  0  0  0  0  0  0  0  0  0  0
   -4.7135  -16.3997   -9.4228 C   0  0  0  0  0  0  0  0  0  0  0  0
   -0.3697  -20.8963  -10.0283 O   0  0  0  0  0  0  0  0  0  0  0  0
   -0.1565  -19.7464  -12.0157 C   0  0  0  0  0  0  0  0  0  0  0  0
   -3.2539  -16.6362  -12.7119 C   0  0  0  0  0  0  0  0  0  0  0  0
   -0.6646  -19.8599  -10.9789 C   0  0  0  0  0  0  0  0  0  0  0  0
   -3.7307  -17.4055  -11.3189 C   0  0  0  0  0  0  0  0  0  0  0  0
   -1.5353  -19.0000  -10.4208 C   0  0  0  0  0  0  0  0  0  0  0  0
   -3.3722  -17.6050   -9.9728 C   0  0  0  0  0  0  0  0  0  0  0  0
  2  1  1  0
  4  3  1  0
  5  4  1  0
  7  5  1  0
  9  1  1  0
 11  5  2  0
 12  6  2  0
 12  8  1  0
 13 10  1  0
 13 11  1  0
 14  3  1  0
 14 12  1  0
 15  3  1  0
 15 13  2  0
 16  3  1  0
 16  9  1  0
 16 14  1  0
M  RAD  1   4   2
M  END
>  <ID>  (1) 
conformer_0

$$$$
