
     RDKit          3D

 17 17  0  0  0  0  0  0  0  0999 V2000
   -7.0410  -16.5661   -8.9068 C   0  0  0  0  0  0  0  0  0  0  0  0
   -0.3219  -19.5252  -12.1992 C   0  0  0  0  0  0  0  0  0  0  0  0
   -2.0426  -18.1758  -12.5843 C   0  0  0  0  0  0  0  0  0  0  0  0
   -5.7533  -15.8904   -8.6478 C   0  0  0  0  0  0  0  0  0  0  0  0
   -2.4478  -18.1092  -11.1967 C   0  0  0  0  0  0  0  0  0  0  0  0
   -3.1517  -15.7985  -12.6201 O   0  0  0  0  0  0  0  0  0  0  0  0
   -2.9605  -16.9070  -13.0326 C   0  0  0  0  0  0  0  0  0  0  0  0
   -5.1257  -16.8577   -9.3784 C   0  0  0  0  0  0  0  0  0  0  0  0
   -3.0210  -17.1905  -14.2858 O   0  0  0  0  0  0  0  0  0  0  0  0
   -0.5581  -19.6204  -10.8055 C   0  0  0  0  0  0  0  0  0  0  0  0
   -0.3711  -18.5536  -14.2624 O   0  0  0  0  0  0  0  0  0  0  0  0
    0.1540  -20.3942  -10.1176 O   0  0  0  0  0  0  0  0  0  0  0  0
   -1.6309  -18.8258  -10.4503 C   0  0  0  0  0  0  0  0  0  0  0  0
   -3.5450  -16.6500   -9.2441 C   0  0  0  0  0  0  0  0  0  0  0  0
    0.6602  -20.0344  -13.0410 O   0  0  0  0  0  0  0  0  0  0  0  0
   -1.0818  -18.6331  -13.0125 C   0  0  0  0  0  0  0  0  0  0  0  0
   -3.4485  -17.3472  -10.4917 C   0  0  0  0  0  0  0  0  0  0  0  0
  4  1  1  0
  5  3  1  0
  7  3  1  0
  7  6  2  0
  8  4  1  0
  9  7  1  0
 10  2  2  0
 12 10  1  0
 13  5  2  0
 13 10  1  0
 14  8  1  0
 15  2  1  0
 16  2  1  0
 16  3  2  0
 16 11  1  0
 17  5  1  0
 17 14  1  0
M  END
>  <ID>  (1) 
conformer_0

$$$$
