
     RDKit          3D

 16 17  0  0  0  0  0  0  0  0999 V2000
   -3.6396  -16.9760   -9.6740 C   0  0  0  0  0  0  0  0  0  0  0  0
   -2.1347  -18.1179  -12.4292 C   0  0  0  0  0  0  0  0  0  0  0  0
   -4.8813  -15.9639   -9.2749 C   0  0  0  0  0  0  0  0  0  0  0  0
   -2.7336  -18.1796  -11.1163 C   0  0  0  0  0  0  0  0  0  0  0  0
   -0.7429  -19.6762  -10.7999 C   0  0  0  0  0  0  0  0  0  0  0  0
   -3.0633  -16.2217  -13.0980 O   0  0  0  0  0  0  0  0  0  0  0  0
   -0.1079  -18.6601  -14.0652 O   0  0  0  0  0  0  0  0  0  0  0  0
   -6.7614  -16.2060   -8.8127 C   0  0  0  0  0  0  0  0  0  0  0  0
   -0.0016  -20.5479   -9.9673 O   0  0  0  0  0  0  0  0  0  0  0  0
   -2.5334  -17.1435  -13.5906 C   0  0  0  0  0  0  0  0  0  0  0  0
   -0.4242  -19.4519  -12.0875 C   0  0  0  0  0  0  0  0  0  0  0  0
   -2.1291  -17.7350  -14.6779 O   0  0  0  0  0  0  0  0  0  0  0  0
   -1.0992  -18.5488  -12.8263 C   0  0  0  0  0  0  0  0  0  0  0  0
   -4.0133  -17.4846  -10.6985 C   0  0  0  0  0  0  0  0  0  0  0  0
   -1.9135  -19.0388  -10.3371 C   0  0  0  0  0  0  0  0  0  0  0  0
   -5.8390  -17.2446   -9.3414 C   0  0  0  0  0  0  0  0  0  0  0  0
  3  1  1  0
  4  2  2  0
  8  3  1  0
  9  5  1  0
 10  2  1  0
 10  6  2  0
 11  5  1  0
 12 10  1  0
 13  2  1  0
 13  7  1  0
 13 11  2  0
 14  1  1  0
 14  4  1  0
 15  4  1  0
 15  5  2  0
 16  3  1  0
 16  8  1  0
M  END
>  <ID>  (1) 
conformer_0

$$$$
