
     RDKit          3D

 15 15  0  0  0  0  0  0  0  0999 V2000
   -1.9889  -18.1627  -12.5348 C   0  0  0  0  0  0  0  0  0  0  0  0
   -6.7938  -16.1456   -8.8395 C   0  0  0  0  0  0  0  0  0  0  0  0
   -5.5261  -16.3447   -9.0508 C   0  0  0  0  0  0  0  0  0  0  0  0
   -2.5410  -18.3956  -11.2802 C   0  0  0  0  0  0  0  0  0  0  0  0
   -0.6858  -18.8621  -12.8000 C   0  0  0  0  0  0  0  0  0  0  0  0
   -3.3758  -15.7646  -12.4169 O   0  0  0  0  0  0  0  0  0  0  0  0
    0.1737  -18.7342  -13.9325 O   0  0  0  0  0  0  0  0  0  0  0  0
   -0.0627  -20.9822  -10.1491 O   0  0  0  0  0  0  0  0  0  0  0  0
   -3.9027  -17.5287  -10.8399 C   0  0  0  0  0  0  0  0  0  0  0  0
   -2.2346  -17.5319  -14.6771 O   0  0  0  0  0  0  0  0  0  0  0  0
   -0.4307  -19.5656  -11.8685 C   0  0  0  0  0  0  0  0  0  0  0  0
   -3.1647  -16.6206  -12.5292 C   0  0  0  0  0  3  0  0  0  0  0  0
   -0.6270  -19.9934  -10.9344 C   0  0  0  0  0  0  0  0  0  0  0  0
   -4.3948  -16.7979   -9.7644 C   0  0  0  0  0  0  0  0  0  0  0  0
   -1.9488  -19.1760  -10.3952 C   0  0  0  0  0  0  0  0  0  0  0  0
  3  2  1  0
  4  1  1  0
  5  1  1  0
  7  5  1  0
  9  4  1  0
 10  1  1  0
 11  5  1  0
 12  1  1  0
 12  6  2  0
 13  8  1  0
 13 11  2  0
 14  3  1  0
 14  9  1  0
 15  4  2  0
 15 13  1  0
M  RAD  1  12   2
M  END
>  <ID>  (1) 
conformer_0

$$$$
