
     RDKit          3D

 16 16  0  0  0  0  0  0  0  0999 V2000
   -1.8353  -18.2491  -12.6561 C   0  0  0  0  0  0  0  0  0  0  0  0
   -6.0749  -16.2072   -8.7915 C   0  0  0  0  0  0  0  0  0  0  0  0
   -4.7630  -16.0410   -9.2597 C   0  0  0  0  0  0  0  0  0  0  0  0
   -2.5455  -18.2487  -11.4485 C   0  0  0  0  0  0  0  0  0  0  0  0
   -0.8744  -19.8731  -10.6457 C   0  0  0  0  0  0  0  0  0  0  0  0
   -2.7835  -16.0708  -12.9821 O   0  0  0  0  0  0  0  0  0  0  0  0
   -0.2010  -20.5931   -9.7892 O   0  0  0  0  0  0  0  0  0  0  0  0
   -4.2056  -17.1117   -9.7050 C   0  0  0  0  0  0  0  0  0  0  0  0
   -3.1462  -16.6948  -12.6216 C   0  0  0  0  0  0  0  0  0  0  0  0
   -0.0886  -19.3663  -13.8136 O   0  0  0  0  0  0  0  0  0  0  0  0
   -4.0778  -15.3346  -12.0742 O   0  0  0  0  0  0  0  0  0  0  0  0
   -0.6691  -19.7056  -11.7652 C   0  0  0  0  0  0  0  0  0  0  0  0
   -2.1946  -17.8302  -14.8637 O   0  0  0  0  0  0  0  0  0  0  0  0
   -0.8203  -19.1614  -12.7600 C   0  0  0  0  0  0  0  0  0  0  0  0
   -2.1085  -18.8662  -10.3776 C   0  0  0  0  0  0  0  0  0  0  0  0
   -3.7785  -17.4044  -10.9285 C   0  0  0  0  0  0  0  0  0  0  0  0
  3  2  1  0
  4  1  2  0
  7  5  1  0
  8  3  1  0
  9  6  1  0
 11  9  1  0
 12  5  1  0
 13  1  1  0
 14  1  1  0
 14 10  1  0
 14 12  2  0
 15  4  1  0
 15  5  2  0
 16  4  1  0
 16  8  1  0
 16  9  1  0
M  END
>  <ID>  (1) 
conformer_0

$$$$
