
     RDKit          3D

 16 17  0  0  0  0  0  0  0  0999 V2000
   -2.4867  -18.3229  -11.0109 C   0  0  0  0  0  0  0  0  0  0  0  0
   -6.6499  -15.9873   -8.6857 C   0  0  0  0  0  0  0  0  0  0  0  0
   -4.9853  -15.8870   -8.9228 C   0  0  0  0  0  0  0  0  0  0  0  0
   -0.5020  -19.8393  -11.0342 C   0  0  0  0  0  0  0  0  0  0  0  0
   -1.4949  -19.0898  -10.3460 C   0  0  0  0  0  0  0  0  0  0  0  0
   -3.1381  -16.0128  -12.8784 O   0  0  0  0  0  0  0  0  0  0  0  0
   -3.6461  -16.9213   -9.9251 C   0  0  0  0  0  0  0  0  0  0  0  0
    0.2727  -20.6903  -10.2767 O   0  0  0  0  0  0  0  0  0  0  0  0
   -2.9215  -16.8934  -13.1744 C   0  0  0  0  0  0  0  0  0  0  0  0
   -2.5411  -17.3763  -14.7310 O   0  0  0  0  0  0  0  0  0  0  0  0
   -0.5697  -19.4701  -12.4925 C   0  0  0  0  0  0  0  0  0  0  0  0
   -0.3910  -18.8351  -14.2433 O   0  0  0  0  0  0  0  0  0  0  0  0
   -1.2118  -18.7276  -12.8002 C   0  0  0  0  0  0  0  0  0  0  0  0
   -5.4936  -17.0023   -9.6771 C   0  0  0  0  0  0  0  0  0  0  0  0
   -2.2214  -18.0613  -12.3747 C   0  0  0  0  0  0  0  0  0  0  0  0
   -4.1361  -17.4752  -11.0736 C   0  0  0  0  0  0  0  0  0  0  0  0
  3  2  1  0
  5  1  1  0
  5  4  2  0
  8  4  1  0
  9  6  2  0
 10  9  1  0
 11  4  1  0
 13 11  2  0
 13 12  1  0
 14  2  1  0
 14  3  1  0
 14  7  1  0
 15  1  2  0
 15  9  1  0
 15 13  1  0
 16  1  1  0
 16  7  1  0
M  END
>  <ID>  (1) 
conformer_0

$$$$
