
     RDKit          3D

 16 16  0  0  0  0  0  0  0  0999 V2000
   -3.5673  -16.8384   -9.5654 C   0  0  0  0  0  0  0  0  0  0  0  0
   -2.2829  -18.3420  -11.3601 C   0  0  0  0  0  0  0  0  0  0  0  0
   -5.4798  -16.1319   -8.6611 C   0  0  0  0  0  0  0  0  0  0  0  0
   -1.8410  -19.2633  -10.4973 C   0  0  0  0  0  0  0  0  0  0  0  0
   -2.4521  -17.6975  -14.7264 O   0  0  0  0  0  0  0  0  0  0  0  0
   -0.5176  -18.8240  -12.9811 C   0  0  0  0  0  0  0  0  0  0  0  0
   -3.3384  -16.1436  -12.7627 O   0  0  0  0  0  0  0  0  0  0  0  0
   -6.8006  -15.6745   -8.6943 C   0  0  0  0  0  0  0  0  0  0  0  0
    0.3011  -18.7816  -14.0274 O   0  0  0  0  0  0  0  0  0  0  0  0
    0.3416  -20.6563  -10.2069 O   0  0  0  0  0  0  0  0  0  0  0  0
   -2.7019  -17.1949  -13.2453 C   0  0  0  0  0  0  0  0  0  0  0  0
   -0.1857  -19.5491  -12.0684 C   0  0  0  0  0  0  0  0  0  0  0  0
   -0.5419  -19.9062  -10.9360 C   0  0  0  0  0  0  0  0  0  0  0  0
   -3.6399  -17.5917  -10.6523 C   0  0  0  0  0  0  0  0  0  0  0  0
   -1.8312  -18.1988  -12.5903 C   0  0  0  0  0  0  0  0  0  0  0  0
   -5.3591  -16.9004   -9.6942 C   0  0  0  0  0  0  0  0  0  0  0  0
  4  2  2  0
  8  3  1  0
  9  6  1  0
 11  5  1  0
 11  7  2  0
 12  6  1  0
 13  4  1  0
 13 10  1  0
 13 12  2  0
 14  1  1  0
 14  2  1  0
 15  2  1  0
 15  6  2  0
 15 11  1  0
 16  1  1  0
 16  3  1  0
M  END
>  <ID>  (1) 
conformer_0

$$$$
