
     RDKit          3D

 16 16  0  0  0  0  0  0  0  0999 V2000
   -3.7630  -17.1640  -11.0078 C   0  0  0  0  0  0  0  0  0  0  0  0
   -2.4037  -18.3718  -11.1080 C   0  0  0  0  0  0  0  0  0  0  0  0
   -4.3476  -16.0854   -9.2319 C   0  0  0  0  0  0  0  0  0  0  0  0
   -2.1556  -18.1144  -12.4302 C   0  0  0  0  0  0  0  0  0  0  0  0
   -0.3924  -19.7695  -11.3748 C   0  0  0  0  0  0  0  0  0  0  0  0
   -5.5625  -16.7151   -9.2586 C   0  0  0  0  0  0  0  0  0  0  0  0
    0.3433  -20.7488  -10.4918 O   0  0  0  0  0  0  0  0  0  0  0  0
   -2.8016  -17.6897  -14.7071 O   0  0  0  0  0  0  0  0  0  0  0  0
   -3.1822  -15.9814  -13.0353 O   0  0  0  0  0  0  0  0  0  0  0  0
   -2.7734  -16.9789  -13.4750 C   0  0  0  0  0  0  0  0  0  0  0  0
   -0.1778  -19.3785  -12.6517 C   0  0  0  0  0  0  0  0  0  0  0  0
   -1.3777  -18.4987  -13.1317 C   0  0  0  0  0  0  0  0  0  0  0  0
   -0.2729  -18.6011  -14.2108 O   0  0  0  0  0  0  0  0  0  0  0  0
   -6.3906  -15.8386   -8.7105 C   0  0  0  0  0  0  0  0  0  0  0  0
   -1.5444  -19.3360  -10.6667 C   0  0  0  0  0  0  0  0  0  0  0  0
   -3.2527  -17.3873   -9.7892 C   0  0  0  0  0  0  0  0  0  0  0  0
  2  1  1  0
  4  2  2  0
  6  3  1  0
  7  5  1  0
 10  4  1  0
 10  8  1  0
 10  9  2  0
 11  5  1  0
 12  4  1  0
 12 11  2  0
 13 12  1  0
 14  6  1  0
 15  2  1  0
 15  5  2  0
 16  1  1  0
 16  3  1  0
M  END
>  <ID>  (1) 
conformer_0

$$$$
