
     RDKit          3D

 15 15  0  0  0  0  0  0  0  0999 V2000
   -6.8943  -16.2650   -8.8553 C   0  0  0  0  0  0  0  0  0  0  0  0
   -1.8911  -18.2021  -12.4903 C   0  0  0  0  0  0  0  0  0  0  0  0
   -5.4446  -16.1886   -8.7838 C   0  0  0  0  0  0  0  0  0  0  0  0
   -2.4311  -18.3096  -11.1268 C   0  0  0  0  0  0  0  0  0  0  0  0
   -0.5883  -18.6796  -13.1073 C   0  0  0  0  0  0  0  0  0  0  0  0
   -2.4763  -17.1371  -13.2238 C   0  0  0  0  0  0  0  0  0  0  0  0
   -4.8651  -17.1434   -9.5638 C   0  0  0  0  0  0  0  0  0  0  0  0
   -2.7227  -16.1351  -13.0366 O   0  0  0  0  0  0  0  0  0  0  0  0
   -2.4338  -17.3847  -14.2958 O   0  0  0  0  0  0  0  0  0  0  0  0
   -1.5558  -19.0247  -10.2048 C   0  0  0  0  0  0  0  0  0  0  0  0
    0.0971  -18.8299  -13.9372 O   0  0  0  0  0  0  0  0  0  0  0  0
   -0.1931  -20.8161  -10.4001 O   0  0  0  0  0  0  0  0  0  0  0  0
   -0.3766  -19.5249  -11.7595 C   0  0  0  0  0  0  0  0  0  0  0  0
   -3.6485  -17.4317  -10.0740 C   0  0  0  0  0  0  0  0  0  0  0  0
   -0.7211  -19.8601  -11.3346 C   0  0  0  0  0  0  0  0  0  0  0  0
  3  1  1  0
  4  2  1  0
  5  2  1  0
  6  2  1  0
  7  3  1  0
  8  6  2  0
  9  6  1  0
 10  4  1  0
 11  5  1  0
 13  5  1  0
 14  4  2  0
 14  7  2  0
 15 10  1  0
 15 12  1  0
 15 13  1  0
M  END
>  <ID>  (1) 
conformer_0

$$$$
