
     RDKit          3D

 16 18  0  0  0  0  0  0  0  0999 V2000
   -2.6695  -18.4060  -11.1964 C   0  0  0  0  0  0  0  0  0  0  0  0
   -5.1325  -15.9570   -9.0864 C   0  0  0  0  0  0  0  0  0  0  0  0
   -6.7304  -16.3788   -8.8460 C   0  0  0  0  0  0  0  0  0  0  0  0
   -0.9082  -18.5845  -12.8272 C   0  0  0  0  0  0  0  0  0  0  0  0
   -1.9423  -18.3217  -12.3513 C   0  0  0  0  0  0  0  0  0  0  0  0
   -0.2847  -20.7609   -9.7981 O   0  0  0  0  0  0  0  0  0  0  0  0
   -3.4094  -16.0414  -12.6442 O   0  0  0  0  0  0  0  0  0  0  0  0
   -0.1014  -18.4232  -14.0963 O   0  0  0  0  0  0  0  0  0  0  0  0
   -2.8356  -16.9271  -13.2636 C   0  0  0  0  0  0  0  0  0  0  0  0
   -3.6301  -17.0022   -9.5736 C   0  0  0  0  0  0  0  0  0  0  0  0
   -2.6639  -17.5172  -14.5290 O   0  0  0  0  0  0  0  0  0  0  0  0
   -0.7723  -19.8639  -10.7628 C   0  0  0  0  0  0  0  0  0  0  0  0
    0.0850  -19.4353  -11.8904 C   0  0  0  0  0  0  0  0  0  0  0  0
   -1.7462  -19.2810  -10.5875 C   0  0  0  0  0  0  0  0  0  0  0  0
   -3.6443  -17.7168  -10.8137 C   0  0  0  0  0  0  0  0  0  0  0  0
   -5.4059  -17.3541   -9.8066 C   0  0  0  0  0  0  0  0  0  0  0  0
  3  2  1  0
  5  1  1  0
  5  4  2  0
  8  4  1  0
  9  5  1  0
  9  7  2  0
 10  2  1  0
 11  9  1  0
 12  6  1  0
 13  4  1  0
 13 12  2  0
 14  1  2  0
 14 12  1  0
 15  1  1  0
 15 10  1  0
 16  2  1  0
 16  3  1  0
 16 10  1  0
M  END
>  <ID>  (1) 
conformer_0

$$$$
