
     RDKit          3D

 16 16  0  0  0  0  0  0  0  0999 V2000
   -0.2594  -19.3937  -11.9093 C   0  0  0  0  0  0  0  0  0  0  0  0
   -6.4725  -15.9466   -8.6799 C   0  0  0  0  0  0  0  0  0  0  0  0
   -4.5383  -16.1631   -9.2841 C   0  0  0  0  0  0  0  0  0  0  0  0
   -2.6090  -18.4922  -11.2090 C   0  0  0  0  0  0  0  0  0  0  0  0
   -3.0515  -16.1107  -13.1418 O   0  0  0  0  0  0  0  0  0  0  0  0
   -0.6088  -19.9709  -10.9047 C   0  0  0  0  0  0  0  0  0  0  0  0
    0.1160  -20.8834  -10.2626 O   0  0  0  0  0  0  0  0  0  0  0  0
   -2.4304  -17.5924  -14.8748 O   0  0  0  0  0  0  0  0  0  0  0  0
   -2.6047  -17.1429  -13.5322 C   0  0  0  0  0  0  0  0  0  0  0  0
   -4.0179  -17.4296   -9.8426 C   0  0  0  0  0  0  0  0  0  0  0  0
   -0.1154  -18.2363  -13.8694 O   0  0  0  0  0  0  0  0  0  0  0  0
   -1.9320  -19.4744  -10.5032 C   0  0  0  0  0  0  0  0  0  0  0  0
   -0.7749  -18.6803  -12.7761 C   0  0  0  0  0  0  0  0  0  0  0  0
   -3.8620  -17.5479  -11.1210 C   0  0  0  0  0  0  0  0  0  0  0  0
   -2.0423  -18.2630  -12.3729 C   0  0  0  0  0  0  0  0  0  0  0  0
   -5.9889  -17.1923   -9.2024 C   0  0  0  0  0  0  0  0  0  0  0  0
  6  1  2  0
  7  6  1  0
  9  5  2  0
  9  8  1  0
 10  3  1  0
 12  4  2  0
 12  6  1  0
 13  1  1  0
 13 11  1  0
 14  4  1  0
 14 10  1  0
 15  4  1  0
 15  9  1  0
 15 13  2  0
 16  2  1  0
 16  3  1  0
M  END
>  <ID>  (1) 
conformer_0

$$$$
