
     RDKit          3D

 16 16  0  0  0  0  0  0  0  0999 V2000
   -3.9439  -16.6503   -9.8536 C   0  0  0  0  0  0  0  0  0  0  0  0
   -2.4327  -18.3174  -11.2248 C   0  0  0  0  0  0  0  0  0  0  0  0
   -5.1310  -16.4029   -8.9757 C   0  0  0  0  0  0  0  0  0  0  0  0
   -6.3277  -16.3256   -8.7700 C   0  0  0  0  0  0  0  0  0  0  0  0
   -0.9670  -18.4865  -12.9019 C   0  0  0  0  0  0  0  0  0  0  0  0
   -3.4906  -15.5633  -12.6069 O   0  0  0  0  0  0  0  0  0  0  0  0
   -0.3808  -21.0114  -10.0438 O   0  0  0  0  0  0  0  0  0  0  0  0
   -1.9232  -18.2016  -12.5103 C   0  0  0  0  0  0  0  0  0  0  0  0
   -0.0831  -18.3885  -13.9777 O   0  0  0  0  0  0  0  0  0  0  0  0
   -2.3466  -17.6617  -14.8423 O   0  0  0  0  0  0  0  0  0  0  0  0
   -0.6818  -19.9807  -10.9842 C   0  0  0  0  0  0  0  0  0  0  0  0
    0.0126  -19.6046  -12.1105 C   0  0  0  0  0  0  0  0  0  0  0  0
   -2.9165  -16.5782  -13.3974 C   0  0  0  0  0  0  0  0  0  0  0  0
   -3.3817  -17.2905  -12.5997 C   0  0  0  0  0  0  0  0  0  0  0  0
   -3.6205  -17.5069  -10.3128 C   0  0  0  0  0  0  0  0  0  0  0  0
   -1.7084  -19.2816  -10.5685 C   0  0  0  0  0  0  0  0  0  0  0  0
  3  1  1  0
  4  3  2  3
  8  2  2  0
  8  5  1  0
  9  5  1  0
 11  7  1  0
 12  5  2  0
 12 11  1  0
 13  6  2  0
 13 10  1  0
 14  8  1  0
 14 13  1  0
 15  1  2  3
 15  2  1  0
 16  2  1  0
 16 11  2  0
M  END
>  <ID>  (1) 
conformer_0

$$$$
