
     RDKit          3D

 17 18  0  0  0  0  0  0  0  0999 V2000
   -2.1690  -18.1450  -12.5116 C   0  0  0  0  0  0  0  0  0  0  0  0
   -7.0413  -16.1570   -8.8031 C   0  0  0  0  0  0  0  0  0  0  0  0
   -5.4678  -15.9925   -9.0177 C   0  0  0  0  0  0  0  0  0  0  0  0
   -2.6736  -18.2913  -11.1920 C   0  0  0  0  0  0  0  0  0  0  0  0
   -0.9717  -18.5677  -12.9952 C   0  0  0  0  0  0  0  0  0  0  0  0
    0.0467  -20.4714  -10.0688 O   0  0  0  0  0  0  0  0  0  0  0  0
    0.2626  -18.6111  -14.0816 O   0  0  0  0  0  0  0  0  0  0  0  0
   -3.6452  -16.5247   -9.8854 C   0  0  0  0  0  0  0  0  0  0  0  0
   -3.4154  -15.8754  -12.5442 O   0  0  0  0  0  0  0  0  0  0  0  0
   -3.0819  -17.0389  -12.8778 C   0  0  0  0  0  0  0  0  0  0  0  0
   -0.4533  -19.3377  -12.0706 C   0  0  0  0  0  3  0  0  0  0  0  0
   -2.0074  -17.7341  -14.4523 O   0  0  0  0  0  0  0  0  0  0  0  0
   -3.2486  -16.4132  -13.2353 O   0  0  0  0  0  0  0  0  0  0  0  0
   -0.6924  -19.5952  -11.0199 C   0  0  0  0  0  0  0  0  0  0  0  0
   -1.7903  -18.8990  -10.3695 C   0  0  0  0  0  0  0  0  0  0  0  0
   -3.8491  -17.5912  -10.8730 C   0  0  0  0  0  0  0  0  0  0  0  0
   -5.2214  -17.2317   -9.7112 C   0  0  0  0  0  0  0  0  0  0  0  0
  3  2  1  0
  4  1  2  0
  5  1  1  0
  7  5  1  0
 10  1  1  0
 11  5  1  0
 12  5  1  0
 13  9  1  0
 13 10  1  0
 14  6  1  0
 14 11  1  0
 15  4  1  0
 15 14  2  0
 16  4  1  0
 16  8  1  0
 17  3  1  0
 17  8  1  0
 17 16  1  0
M  RAD  1  11   2
M  END
>  <ID>  (1) 
conformer_0

$$$$
