
     RDKit          3D

 16 16  0  0  0  0  0  0  0  0999 V2000
   -4.0698  -17.2352  -10.8578 C   0  0  0  0  0  0  0  0  0  0  0  0
   -3.1065  -17.3912   -9.8476 C   0  0  0  0  0  0  0  0  0  0  0  0
   -2.2954  -18.2361  -11.3848 C   0  0  0  0  0  0  0  0  0  0  0  0
   -1.7377  -19.1973  -10.6208 C   0  0  0  0  0  0  0  0  0  0  0  0
   -0.6368  -19.8587  -11.0077 C   0  0  0  0  0  0  0  0  0  0  0  0
   -0.0016  -18.5527  -14.2982 O   0  0  0  0  0  0  0  0  0  0  0  0
   -6.3885  -16.1377   -8.8703 C   0  0  0  0  0  0  0  0  0  0  0  0
    0.0803  -20.6694  -10.1134 O   0  0  0  0  0  0  0  0  0  0  0  0
   -3.1821  -15.9255  -12.6778 O   0  0  0  0  0  0  0  0  0  0  0  0
   -2.9431  -16.8961  -12.9611 C   0  0  0  0  0  0  0  0  0  0  0  0
   -0.1387  -19.6423  -12.2381 C   0  0  0  0  0  0  0  0  0  0  0  0
   -2.7097  -17.2875  -14.2711 O   0  0  0  0  0  0  0  0  0  0  0  0
   -0.7124  -18.6962  -12.9862 C   0  0  0  0  0  0  0  0  0  0  0  0
   -5.7203  -16.9677   -9.5089 C   0  0  0  0  0  0  0  0  0  0  0  0
   -1.7860  -18.1716  -12.6346 C   0  0  0  0  0  0  0  0  0  0  0  0
   -4.3559  -16.1081   -9.3710 C   0  0  0  0  0  0  0  0  0  0  0  0
  2  1  1  0
  3  2  1  0
  4  3  2  0
  5  4  1  0
  8  5  1  0
 10  9  2  0
 11  5  2  0
 12 10  1  0
 13  6  1  0
 13 11  1  0
 14  7  1  0
 15  3  1  0
 15 10  1  0
 15 13  2  0
 16  2  1  0
 16 14  1  0
M  END
>  <ID>  (1) 
conformer_0

$$$$
