
     RDKit          3D

 16 16  0  0  0  0  0  0  0  0999 V2000
   -4.5777  -16.2658   -9.4011 C   0  0  0  0  0  0  0  0  0  0  0  0
   -5.6026  -16.6507   -9.0584 C   0  0  0  0  0  0  0  0  0  0  0  0
   -2.2652  -18.2415  -11.3077 C   0  0  0  0  0  0  0  0  0  0  0  0
   -0.7751  -20.0570  -11.0456 C   0  0  0  0  0  0  0  0  0  0  0  0
   -1.6339  -19.1836  -10.5482 C   0  0  0  0  0  0  0  0  0  0  0  0
   -6.7155  -16.0253   -8.9114 C   0  0  0  0  0  0  0  0  0  0  0  0
   -0.4350  -20.9198   -9.9789 O   0  0  0  0  0  0  0  0  0  0  0  0
   -2.8758  -16.9498  -13.1156 C   0  0  0  0  0  0  0  0  0  0  0  0
   -3.0468  -17.2561  -14.2235 O   0  0  0  0  0  0  0  0  0  0  0  0
   -2.5229  -16.2466  -13.4305 O   0  0  0  0  0  0  0  0  0  0  0  0
   -0.0770  -18.8517  -14.2467 O   0  0  0  0  0  0  0  0  0  0  0  0
   -0.1692  -19.9830  -12.3053 C   0  0  0  0  0  0  0  0  0  0  0  0
   -0.8434  -18.7954  -13.0618 C   0  0  0  0  0  0  0  0  0  0  0  0
   -3.3029  -17.4150   -9.8379 C   0  0  0  0  0  0  0  0  0  0  0  0
   -3.5976  -17.3994  -11.0345 C   0  0  0  0  0  0  0  0  0  0  0  0
   -1.7573  -18.3291  -12.6163 C   0  0  0  0  0  0  0  0  0  0  0  0
  2  1  2  3
  5  3  2  0
  5  4  1  0
  6  2  1  0
  7  4  1  0
  9  8  1  0
 10  8  1  0
 12  4  2  0
 13 11  1  0
 13 12  1  0
 14  1  1  0
 15  3  1  0
 15 14  1  0
 16  3  1  0
 16  8  1  0
 16 13  2  0
M  END
>  <ID>  (1) 
conformer_0

$$$$
