
     RDKit          3D

 15 15  0  0  0  0  0  0  0  0999 V2000
   -1.6564  -18.3246  -12.4514 C   0  0  0  0  0  0  0  0  0  0  0  0
   -5.4076  -16.2753   -9.0224 C   0  0  0  0  0  0  0  0  0  0  0  0
   -6.6283  -15.6508   -8.7547 C   0  0  0  0  0  0  0  0  0  0  0  0
   -2.3762  -18.3282  -11.3358 C   0  0  0  0  0  0  0  0  0  0  0  0
   -0.6475  -18.7862  -12.8399 C   0  0  0  0  0  0  0  0  0  0  0  0
   -3.5606  -16.1789  -12.5244 O   0  0  0  0  0  0  0  0  0  0  0  0
   -2.9707  -17.0006  -12.9008 C   0  0  0  0  0  0  0  0  0  0  0  0
    0.0986  -18.4908  -13.9834 O   0  0  0  0  0  0  0  0  0  0  0  0
   -0.4820  -21.1335  -10.1388 O   0  0  0  0  0  0  0  0  0  0  0  0
   -4.1917  -16.7427   -9.5190 C   0  0  0  0  0  0  0  0  0  0  0  0
   -2.5933  -17.4122  -14.2505 O   0  0  0  0  0  0  0  0  0  0  0  0
   -0.1280  -19.8924  -12.0531 C   0  0  0  0  0  0  0  0  0  0  0  0
   -0.9028  -20.1872  -10.9815 C   0  0  0  0  0  0  0  0  0  0  0  0
   -3.5997  -17.7245  -10.4084 C   0  0  0  0  0  0  0  0  0  0  0  0
   -2.0152  -19.5283  -10.7177 C   0  0  0  0  0  0  0  0  0  0  0  0
  3  2  1  0
  4  1  2  0
  5  1  1  0
  7  1  1  0
  7  6  2  0
  8  5  1  0
 10  2  1  0
 11  7  1  0
 12  5  2  0
 13  9  1  0
 13 12  1  0
 14  4  1  0
 14 10  2  3
 15  4  1  0
 15 13  2  0
M  END
>  <ID>  (1) 
conformer_0

$$$$
