
     RDKit          3D

 15 15  0  0  0  0  0  0  0  0999 V2000
   -2.4747  -18.2908  -11.1145 C   0  0  0  0  0  0  0  0  0  0  0  0
   -6.3626  -16.7905   -9.0393 C   0  0  0  0  0  0  0  0  0  0  0  0
   -5.3254  -16.1915   -9.1036 C   0  0  0  0  0  0  0  0  0  0  0  0
   -1.6117  -19.0885  -10.4152 C   0  0  0  0  0  0  0  0  0  0  0  0
   -0.0079  -20.9272  -10.2587 O   0  0  0  0  0  0  0  0  0  0  0  0
   -0.6623  -19.9433  -10.9668 C   0  0  0  0  0  0  0  0  0  0  0  0
   -3.1329  -15.9328  -12.7754 O   0  0  0  0  0  0  0  0  0  0  0  0
   -0.3704  -18.2960  -14.1091 O   0  0  0  0  0  0  0  0  0  0  0  0
   -3.9324  -16.9355   -9.6568 C   0  0  0  0  0  0  0  0  0  0  0  0
   -0.3005  -19.4651  -12.2660 C   0  0  0  0  0  0  0  0  0  0  0  0
   -2.7326  -16.9751  -13.1832 C   0  0  0  0  0  0  0  0  0  0  0  0
   -2.5976  -17.4566  -14.4272 O   0  0  0  0  0  0  0  0  0  0  0  0
   -0.9697  -18.5765  -12.8741 C   0  0  0  0  0  0  0  0  0  0  0  0
   -3.9979  -17.6527  -10.4914 C   0  0  0  0  0  0  0  0  0  0  0  0
   -2.0596  -18.1472  -12.4187 C   0  0  0  0  0  0  0  0  0  0  0  0
  3  2  2  3
  4  1  2  0
  6  4  1  0
  6  5  1  0
  9  3  1  0
 10  6  2  0
 11  7  2  0
 12 11  1  0
 13  8  1  0
 13 10  1  0
 14  1  1  0
 14  9  2  3
 15  1  1  0
 15 11  1  0
 15 13  2  0
M  END
>  <ID>  (1) 
conformer_0

$$$$
