
     RDKit          3D

 16 16  0  0  0  0  0  0  0  0999 V2000
   -4.3323  -16.4861   -9.2147 C   0  0  0  0  0  0  0  0  0  0  0  0
   -0.1274  -19.3928  -12.3229 C   0  0  0  0  0  0  0  0  0  0  0  0
   -6.0049  -16.2061   -8.8096 C   0  0  0  0  0  0  0  0  0  0  0  0
   -1.0425  -18.4999  -13.1998 C   0  0  0  0  0  0  0  0  0  0  0  0
   -2.5385  -18.2452  -11.3671 C   0  0  0  0  0  0  0  0  0  0  0  0
    0.0261  -20.4401   -9.9657 O   0  0  0  0  0  0  0  0  0  0  0  0
   -6.2779  -17.2508   -9.0999 C   0  0  0  0  0  0  0  0  0  0  0  0
   -3.1955  -15.9422  -12.9136 O   0  0  0  0  0  0  0  0  0  0  0  0
   -0.0248  -18.6577  -14.4583 O   0  0  0  0  0  0  0  0  0  0  0  0
   -2.4981  -17.6130  -14.6208 O   0  0  0  0  0  0  0  0  0  0  0  0
   -2.0132  -18.1099  -12.6369 C   0  0  0  0  0  0  0  0  0  0  0  0
   -3.0136  -16.8974  -13.0047 C   0  0  0  0  0  0  0  0  0  0  0  0
   -0.5728  -19.6143  -11.1099 C   0  0  0  0  0  0  0  0  0  0  0  0
   -4.4530  -17.3850  -10.6566 C   0  0  0  0  0  0  0  0  0  0  0  0
   -3.2520  -17.5143  -10.2225 C   0  0  0  0  0  0  0  0  0  0  0  0
   -1.6108  -18.9727  -10.6460 C   0  0  0  0  0  0  0  0  0  0  0  0
  3  1  1  0
  4  2  2  0
  7  3  1  0
  9  4  1  0
 11  4  1  0
 11  5  2  0
 12  8  1  0
 12 10  1  0
 12 11  1  0
 13  2  1  0
 13  6  1  0
 14  1  1  0
 15  5  1  0
 15 14  1  0
 16  5  1  0
 16 13  2  0
M  END
>  <ID>  (1) 
conformer_0

$$$$
