
     RDKit          3D

 16 19  0  0  0  0  0  0  0  0999 V2000
   -5.3208  -16.0937   -8.7815 C   0  0  0  0  0  0  0  0  0  0  0  0
   -2.5018  -18.2518  -11.4072 C   0  0  0  0  0  0  0  0  0  0  0  0
   -3.7296  -16.9857   -9.4389 C   0  0  0  0  0  0  0  0  0  0  0  0
   -1.9506  -18.9710  -10.5819 C   0  0  0  0  0  0  0  0  0  0  0  0
   -2.8733  -16.8643  -13.3550 C   0  0  0  0  0  0  0  0  0  0  0  0
   -0.7092  -18.6589  -12.9348 C   0  0  0  0  0  0  0  0  0  0  0  0
   -0.2877  -20.6366   -9.8340 O   0  0  0  0  0  0  0  0  0  0  0  0
   -3.7044  -17.6486  -10.7517 C   0  0  0  0  0  0  0  0  0  0  0  0
   -2.5007  -17.4472  -14.7595 O   0  0  0  0  0  0  0  0  0  0  0  0
    0.0980  -18.4338  -14.0436 O   0  0  0  0  0  0  0  0  0  0  0  0
   -3.1210  -15.9341  -13.0170 O   0  0  0  0  0  0  0  0  0  0  0  0
   -0.3318  -19.4503  -12.0914 C   0  0  0  0  0  0  0  0  0  0  0  0
   -0.7607  -19.8209  -10.8404 C   0  0  0  0  0  0  0  0  0  0  0  0
   -6.6691  -16.7324   -8.8447 C   0  0  0  0  0  0  0  0  0  0  0  0
   -1.9528  -18.0868  -12.6608 C   0  0  0  0  0  0  0  0  0  0  0  0
   -5.3390  -17.3691   -9.8481 C   0  0  0  0  0  0  0  0  0  0  0  0
  3  1  1  0
  4  2  2  0
  8  2  1  0
  8  3  1  0
  9  5  1  0
 10  6  1  0
 11  5  2  0
 12  6  1  0
 13  4  1  0
 13  7  1  0
 13 12  2  0
 14  1  1  0
 15  2  1  0
 15  5  1  0
 15  6  2  0
 16  1  1  0
 16  3  1  0
 16  8  1  0
 16 14  1  0
M  END
>  <ID>  (1) 
conformer_0

$$$$
