
     RDKit          3D

 15 15  0  0  0  0  0  0  0  0999 V2000
   -6.5547  -16.7512   -8.9419 C   0  0  0  0  0  0  0  0  0  0  0  0
   -2.6976  -18.0631  -11.1340 C   0  0  0  0  0  0  0  0  0  0  0  0
   -5.4097  -16.1696   -8.9888 C   0  0  0  0  0  0  0  0  0  0  0  0
   -2.0845  -18.0274  -12.4344 C   0  0  0  0  0  0  0  0  0  0  0  0
   -0.8088  -18.6030  -12.8684 C   0  0  0  0  0  0  0  0  0  0  0  0
   -3.0048  -16.0765  -13.1690 O   0  0  0  0  0  0  0  0  0  0  0  0
   -0.4527  -19.2694  -11.7928 C   0  0  0  0  0  0  0  0  0  0  0  0
   -2.7893  -17.1402  -13.2607 C   0  0  0  0  0  0  0  0  0  0  0  0
   -2.8656  -17.6641  -14.5532 O   0  0  0  0  0  0  0  0  0  0  0  0
    0.1800  -20.1087   -9.9349 O   0  0  0  0  0  0  0  0  0  0  0  0
   -4.0241  -16.7883   -9.4264 C   0  0  0  0  0  0  0  0  0  0  0  0
   -0.1771  -18.4367  -13.9589 O   0  0  0  0  0  0  0  0  0  0  0  0
   -2.0019  -19.0988  -10.3628 C   0  0  0  0  0  0  0  0  0  0  0  0
   -0.6830  -19.3702  -10.8799 C   0  0  0  0  0  0  0  0  0  0  0  0
   -3.9350  -17.4650  -10.2720 C   0  0  0  0  0  0  0  0  0  0  0  0
  3  1  2  3
  4  2  2  0
  5  4  1  0
  7  5  2  0
  8  4  1  0
  8  6  2  0
  9  8  1  0
 11  3  1  0
 12  5  1  0
 13  2  1  0
 14  7  1  0
 14 10  1  0
 14 13  2  0
 15  2  1  0
 15 11  2  3
M  END
>  <ID>  (1) 
conformer_0

$$$$
