
     RDKit          3D

 15 15  0  0  0  0  0  0  0  0999 V2000
   -6.6453  -15.9267   -8.7864 C   0  0  0  0  0  0  0  0  0  0  0  0
   -0.0072  -19.7563  -12.2937 C   0  0  0  0  0  0  0  0  0  0  0  0
   -5.7343  -16.6277   -9.0522 C   0  0  0  0  0  0  0  0  0  0  0  0
   -0.7175  -19.8592  -10.9087 C   0  0  0  0  0  0  0  0  0  0  0  0
   -2.4434  -18.1374  -11.1730 C   0  0  0  0  0  0  0  0  0  0  0  0
   -3.0418  -16.7926  -12.9329 C   0  0  0  0  0  0  0  0  0  0  0  0
   -4.3223  -16.9057   -9.7018 C   0  0  0  0  0  0  0  0  0  0  0  0
   -3.5924  -16.2736  -12.9718 O   0  0  0  0  0  0  0  0  0  0  0  0
   -0.2031  -20.8497  -10.0160 O   0  0  0  0  0  0  0  0  0  0  0  0
   -2.4168  -17.6077  -14.7268 O   0  0  0  0  0  0  0  0  0  0  0  0
   -0.8973  -18.6371  -12.8437 C   0  0  0  0  0  0  0  0  0  0  0  0
   -1.6191  -19.2820  -10.5197 C   0  0  0  0  0  0  0  0  0  0  0  0
   -3.4475  -17.4966  -10.6078 C   0  0  0  0  0  0  0  0  0  0  0  0
   -0.3045  -18.4343  -14.1041 O   0  0  0  0  0  0  0  0  0  0  0  0
   -1.7293  -18.3027  -12.4413 C   0  0  1  0  0  0  0  0  0  0  0  0
  3  1  2  3
  4  2  1  0
  7  3  1  0
  8  6  2  0
  9  4  1  0
 10  6  1  0
 11  2  2  0
 12  4  2  0
 12  5  1  0
 13  5  2  0
 13  7  2  0
 14 11  1  0
 15  5  1  0
 15  6  1  1
 15 11  1  0
M  END
>  <ID>  (1) 
conformer_0

$$$$
