
     RDKit          3D

 16 16  0  0  0  0  0  0  0  0999 V2000
   -4.7545  -16.3928   -9.1954 C   0  0  0  0  0  0  0  0  0  0  0  0
   -2.4708  -18.2993  -11.2316 C   0  0  0  0  0  0  0  0  0  0  0  0
   -5.8997  -16.6965   -9.1188 C   0  0  0  0  0  0  0  0  0  0  0  0
   -1.0442  -18.5525  -12.9826 C   0  0  0  0  0  0  0  0  0  0  0  0
   -2.2405  -18.0998  -12.4647 C   0  0  0  0  0  0  0  0  0  0  0  0
   -6.9499  -15.9535   -8.7220 C   0  0  0  0  0  0  0  0  0  0  0  0
   -0.0688  -18.5951  -14.1584 O   0  0  0  0  0  0  0  0  0  0  0  0
    0.1161  -20.7140  -10.1664 O   0  0  0  0  0  0  0  0  0  0  0  0
   -2.8281  -15.8802  -12.9947 O   0  0  0  0  0  0  0  0  0  0  0  0
   -2.4253  -17.5557  -14.6382 O   0  0  0  0  0  0  0  0  0  0  0  0
   -0.3157  -19.4056  -12.0979 C   0  0  0  0  0  0  0  0  0  0  0  0
   -2.5086  -16.9944  -13.5598 C   0  0  0  0  0  0  0  0  0  0  0  0
   -0.5588  -19.6913  -11.1309 C   0  0  0  0  0  0  0  0  0  0  0  0
   -4.0886  -17.5448  -10.6915 C   0  0  0  0  0  0  0  0  0  0  0  0
   -1.6162  -18.9965  -10.3404 C   0  0  0  0  0  0  0  0  0  0  0  0
   -3.2672  -17.3229   -9.7620 C   0  0  0  0  0  0  0  0  0  0  0  0
  3  1  2  3
  5  2  2  0
  5  4  1  0
  6  3  1  0
  7  4  1  0
 11  4  2  0
 12  5  1  0
 12  9  2  0
 12 10  1  0
 13  8  1  0
 13 11  1  0
 14  2  1  0
 15  2  1  0
 15 13  2  0
 16  1  1  0
 16 14  1  0
M  END
>  <ID>  (1) 
conformer_0

$$$$
