
     RDKit          3D

 15 15  0  0  0  0  0  0  0  0999 V2000
   -4.0717  -16.7163   -9.4345 C   0  0  0  0  0  0  0  0  0  0  0  0
   -2.2762  -18.3083  -11.3030 C   0  0  0  0  0  0  0  0  0  0  0  0
   -3.3362  -17.4639  -10.3132 C   0  0  0  0  0  0  0  0  0  0  0  0
   -1.6274  -19.1076  -10.4594 C   0  0  0  0  0  0  0  0  0  0  0  0
   -2.8097  -17.0825  -13.1489 C   0  0  0  0  0  0  0  0  0  0  0  0
   -0.7287  -20.0639  -10.8645 C   0  0  0  0  0  0  0  0  0  0  0  0
   -3.2460  -16.1687  -12.5224 O   0  0  0  0  0  0  0  0  0  0  0  0
   -3.0331  -17.2829  -14.5321 O   0  0  0  0  0  0  0  0  0  0  0  0
   -0.1254  -20.8726  -10.2214 O   0  0  0  0  0  0  0  0  0  0  0  0
   -5.3122  -16.2837   -8.9561 C   0  0  0  0  0  0  0  0  0  0  0  0
   -0.3671  -19.7942  -12.3055 C   0  0  0  0  0  0  0  0  0  0  0  0
   -0.3220  -18.4403  -14.1375 O   0  0  0  0  0  0  0  0  0  0  0  0
   -0.7792  -18.8920  -12.8494 C   0  0  0  0  0  0  0  0  0  0  0  0
   -6.4217  -15.7953   -8.6229 C   0  0  0  0  0  0  0  0  0  0  0  0
   -1.8419  -18.3286  -12.6433 C   0  0  0  0  0  0  0  0  0  0  0  0
  3  1  2  0
  3  2  2  0
  4  2  1  0
  6  4  1  0
  7  5  2  0
  8  5  1  0
  9  6  1  0
 10  1  1  0
 11  6  2  0
 13 11  1  0
 13 12  1  0
 14 10  3  0
 15  2  1  0
 15  5  1  0
 15 13  1  0
M  END
>  <ID>  (1) 
conformer_0

$$$$
