
     RDKit          3D

 13 13  0  0  0  0  0  0  0  0999 V2000
   -5.2722  -16.2323   -9.0241 C   0  0  0  0  0  0  0  0  0  0  0  0
   -0.5502  -19.2677  -12.0788 C   0  0  0  0  0  0  0  0  0  0  0  0
   -4.2456  -16.8624   -9.7658 C   0  0  0  0  0  0  0  0  0  0  0  0
   -0.5515  -19.6999  -11.1654 C   0  0  0  0  0  0  0  0  0  0  0  0
   -3.9365  -17.6647  -10.6442 C   0  0  0  0  0  0  0  0  0  0  0  0
   -2.4122  -18.3133  -11.6891 C   0  0  0  0  0  0  0  0  0  0  0  0
   -0.0967  -18.4608  -14.1177 O   0  0  0  0  0  0  0  0  0  0  0  0
   -3.3787  -16.5433  -12.9193 O   0  0  0  0  0  0  0  0  0  0  0  0
    0.1328  -20.7545  -10.3183 O   0  0  0  0  0  0  0  0  0  0  0  0
   -2.5395  -17.6644  -14.6225 O   0  0  0  0  0  0  0  0  0  0  0  0
   -1.2710  -18.3916  -12.8454 C   0  0  0  0  0  0  0  0  0  0  0  0
   -2.0191  -18.9850  -10.5563 C   0  0  0  0  0  0  0  0  0  0  0  0
   -6.5226  -15.7381   -8.6507 C   0  0  0  0  0  0  0  0  0  0  0  0
  3  1  1  0
  4  2  2  0
  5  3  1  0
  6  5  1  0
  8  5  1  0
  9  4  1  0
 11  2  1  0
 11  6  1  0
 11  7  1  0
 11 10  1  0
 12  4  1  0
 12  6  2  0
 13  1  1  0
M  END
>  <ID>  (1) 
conformer_0

$$$$
