
     RDKit          3D

 16 17  0  0  0  0  0  0  0  0999 V2000
   -5.3135  -15.6888   -9.0114 C   0  0  0  0  0  0  0  0  0  0  0  0
   -1.8440  -19.4880  -10.4746 C   0  0  0  0  0  0  0  0  0  0  0  0
   -6.4552  -16.7379   -8.9489 C   0  0  0  0  0  0  0  0  0  0  0  0
   -2.6371  -18.4665  -11.1246 C   0  0  0  0  0  0  0  0  0  0  0  0
   -3.3773  -16.1951  -12.7189 O   0  0  0  0  0  0  0  0  0  0  0  0
   -0.6439  -19.9328  -10.8329 C   0  0  0  0  0  0  0  0  0  0  0  0
   -2.6401  -17.6103  -14.6927 O   0  0  0  0  0  0  0  0  0  0  0  0
   -3.4364  -16.3100   -9.3874 C   0  0  0  0  0  0  0  0  0  0  0  0
   -2.9077  -17.2410  -13.3824 C   0  0  0  0  0  0  0  0  0  0  0  0
    0.2261  -20.6200  -10.1135 O   0  0  0  0  0  0  0  0  0  0  0  0
   -0.4290  -18.4334  -13.9310 O   0  0  0  0  0  0  0  0  0  0  0  0
   -0.2737  -19.5442  -12.0948 C   0  0  0  0  0  0  0  0  0  0  0  0
   -1.1620  -18.6863  -12.7579 C   0  0  0  0  0  0  0  0  0  0  0  0
   -4.5967  -17.0934   -9.6813 C   0  0  0  0  0  0  0  0  0  0  0  0
   -3.6322  -17.5885  -10.8070 C   0  0  0  0  0  0  0  0  0  0  0  0
   -2.1012  -18.3709  -12.2962 C   0  0  0  0  0  0  0  0  0  0  0  0
  3  1  1  0
  4  2  2  0
  6  2  1  0
  9  5  2  0
  9  7  1  0
 10  6  1  0
 12  6  2  0
 13 11  1  0
 13 12  1  0
 14  1  1  0
 14  8  1  0
 15  4  1  0
 15  8  1  0
 15 14  1  0
 16  4  1  0
 16  9  1  0
 16 13  2  0
M  END
>  <ID>  (1) 
conformer_0

$$$$
