
     RDKit          3D

 14 14  0  0  0  0  0  0  0  0999 V2000
   -2.5377  -18.3740  -11.2047 C   0  0  0  0  0  0  0  0  0  0  0  0
   -3.8439  -17.5787  -10.7788 C   0  0  0  0  0  0  0  0  0  0  0  0
   -4.1480  -16.9127   -9.7534 C   0  0  0  0  0  0  0  0  0  0  0  0
   -1.8645  -19.4614  -10.5931 C   0  0  0  0  0  0  0  0  0  0  0  0
   -0.7561  -20.2031  -10.8912 C   0  0  0  0  0  0  0  0  0  0  0  0
   -2.6118  -17.6498  -14.5431 O   0  0  0  0  0  0  0  0  0  0  0  0
   -0.0353  -21.0387  -10.4425 O   0  0  0  0  0  0  0  0  0  0  0  0
   -3.0701  -16.0169  -12.8130 O   0  0  0  0  0  0  0  0  0  0  0  0
   -5.3784  -16.4397   -9.0300 C   0  0  0  0  0  0  0  0  0  0  0  0
   -2.8954  -16.9862  -13.0296 C   0  0  0  0  0  0  0  0  0  0  0  0
   -0.2452  -19.6188  -12.3772 C   0  0  0  0  0  0  0  0  0  0  0  0
   -6.5372  -15.8607   -8.7034 C   0  0  0  0  0  0  0  0  0  0  0  0
   -0.8909  -18.8793  -12.6482 C   0  0  0  0  0  0  0  0  0  0  0  0
   -1.7902  -18.2964  -12.5172 C   0  0  0  0  0  0  0  0  0  0  0  0
  2  1  1  0
  3  2  1  0
  4  1  2  0
  5  4  1  0
  7  5  1  0
  9  3  1  0
 10  6  1  0
 10  8  2  0
 11  5  2  0
 12  9  1  0
 13 11  1  0
 14  1  1  0
 14 10  1  0
 14 13  2  0
M  END
>  <ID>  (1) 
conformer_0

$$$$
