
     RDKit          3D

 15 15  0  0  0  0  0  0  0  0999 V2000
   -4.2459  -16.9370   -9.6326 C   0  0  0  0  0  0  0  0  0  0  0  0
   -2.6570  -18.1824  -11.2803 C   0  0  0  0  0  0  0  0  0  0  0  0
   -5.6032  -16.5147   -9.0709 C   0  0  0  0  0  0  0  0  0  0  0  0
   -0.9001  -18.5995  -12.8081 C   0  0  0  0  0  0  0  0  0  0  0  0
   -1.9939  -18.1151  -12.4619 C   0  0  0  0  0  0  0  0  0  0  0  0
   -0.3891  -20.7230   -9.6857 O   0  0  0  0  0  0  0  0  0  0  0  0
    0.0720  -18.5501  -13.9830 O   0  0  0  0  0  0  0  0  0  0  0  0
   -2.8915  -16.0651  -13.2299 O   0  0  0  0  0  0  0  0  0  0  0  0
   -6.7079  -15.9518   -8.7205 C   0  0  0  0  0  0  0  0  0  0  0  0
   -2.6124  -16.9550  -13.4705 C   0  0  0  0  0  0  0  0  0  0  0  0
   -2.2858  -17.7293  -14.7486 O   0  0  0  0  0  0  0  0  0  0  0  0
   -0.2447  -19.5003  -11.8361 C   0  0  0  0  0  0  0  0  0  0  0  0
   -0.8672  -19.7437  -10.7722 C   0  0  0  0  0  0  0  0  0  0  0  0
   -3.7672  -17.5271  -10.4066 C   0  0  0  0  0  0  0  0  0  0  0  0
   -1.9568  -19.1001  -10.4322 C   0  0  0  0  0  0  0  0  0  0  0  0
  3  1  1  0
  5  2  1  0
  5  4  2  0
  7  4  1  0
  9  3  3  0
 10  5  1  0
 10  8  2  0
 11 10  1  0
 12  4  1  0
 13  6  1  0
 13 12  2  0
 14  1  2  0
 14  2  2  0
 15  2  1  0
 15 13  1  0
M  END
>  <ID>  (1) 
conformer_0

$$$$
