
     RDKit          3D

 17 16  0  0  0  0  0  0  0  0999 V2000
   -0.2395  -19.3489  -12.3910 C   0  0  0  0  0  0  0  0  0  0  0  0
   -3.8878  -17.3330  -10.8066 C   0  0  0  0  0  0  0  0  0  0  0  0
   -3.9368  -16.8343   -9.7886 C   0  0  0  0  0  0  0  0  0  0  0  0
   -0.4290  -19.3044  -11.9036 C   0  0  0  0  0  0  0  0  0  0  0  0
   -3.0186  -16.0014  -13.0085 O   0  0  0  0  0  0  0  0  0  0  0  0
   -2.7323  -18.1827  -11.3148 C   0  0  0  0  0  0  0  0  0  0  0  0
   -0.2065  -20.7239  -10.1225 O   0  0  0  0  0  0  0  0  0  0  0  0
   -5.2502  -16.3178   -9.1458 C   0  0  0  0  0  0  0  0  0  0  0  0
   -1.4264  -18.1903  -13.3276 C   0  0  1  0  0  0  0  0  0  0  0  0
   -2.8041  -17.5747  -14.9278 O   0  0  0  0  0  0  0  0  0  0  0  0
    0.0609  -18.4422  -14.1342 O   0  0  0  0  0  0  0  0  0  0  0  0
   -2.7892  -16.9548  -13.4260 C   0  0  0  0  0  0  0  0  0  0  0  0
   -2.1451  -18.1030  -12.4840 C   0  0  0  0  0  0  0  0  0  0  0  0
   -1.7226  -17.7079  -14.2269 N   0  0  0  0  0  0  0  0  0  0  0  0
   -6.2341  -16.0721   -8.8095 C   0  0  0  0  0  0  0  0  0  0  0  0
   -1.9068  -19.2199  -10.5548 C   0  0  0  0  0  0  0  0  0  0  0  0
   -1.0237  -20.0004  -10.5808 C   0  0  1  0  0  0  0  0  0  0  0  0
  3  2  2  3
  4  1  2  3
  6  2  1  0
  8  3  1  0
  9 11  1  1
 12  5  2  0
 13  6  2  3
 13  9  1  0
 13 12  1  0
 14  9  1  0
 14 10  1  0
 15  8  3  0
 16  6  1  0
 17  4  1  0
 17  7  1  1
 17 16  1  0
M  END
>  <ID>  (1) 
conformer_0

$$$$
