
     RDKit          3D

 15 16  0  0  0  0  0  0  0  0999 V2000
   -2.5409  -18.1622  -10.8431 C   0  0  0  0  0  0  0  0  0  0  0  0
   -5.3537  -16.5970   -9.1502 C   0  0  0  0  0  0  0  0  0  0  0  0
   -3.8606  -16.6715   -9.2837 C   0  0  0  0  0  0  0  0  0  0  0  0
   -1.7877  -19.2321  -10.5150 C   0  0  0  0  0  0  0  0  0  0  0  0
   -0.6787  -19.8742  -10.9140 C   0  0  0  0  0  0  0  0  0  0  0  0
   -3.3079  -15.8267  -12.7624 O   0  0  0  0  0  0  0  0  0  0  0  0
   -3.1088  -16.8320  -13.1150 C   0  0  0  0  0  0  0  0  0  0  0  0
   -0.0632  -20.5334  -10.2257 O   0  0  0  0  0  0  0  0  0  0  0  0
   -6.3723  -16.0436   -8.7365 C   0  0  0  0  0  0  0  0  0  0  0  0
   -2.8527  -18.0399  -12.1632 C   0  0  1  0  0  0  0  0  0  0  0  0
   -3.1453  -17.2455  -14.4244 O   0  0  0  0  0  0  0  0  0  0  0  0
   -0.5822  -19.4759  -12.4750 C   0  0  0  0  0  0  0  0  0  0  0  0
   -3.7480  -17.5072  -10.2043 C   0  0  0  0  0  0  0  0  0  0  0  0
   -1.2644  -18.6963  -12.5346 C   0  0  0  0  0  0  0  0  0  0  0  0
   -1.7132  -18.1875  -13.3823 C   0  0  0  0  0  0  0  0  0  0  0  0
  3  2  1  0
  4  1  2  0
  5  4  1  0
  7  6  1  0
  8  5  1  0
  9  2  2  3
 10  1  1  0
 10  7  1  1
 11  7  1  0
 12  5  2  0
 13  1  1  0
 13  3  1  0
 14 12  1  0
 15  7  1  0
 15 10  1  0
 15 14  2  0
M  END
>  <ID>  (1) 
conformer_0

$$$$
