
     RDKit          3D

 16 16  0  0  0  0  0  0  0  0999 V2000
   -6.0667  -17.1302   -9.0883 C   0  0  0  0  0  0  0  0  0  0  0  0
   -0.3398  -19.1402  -12.5252 C   0  0  0  0  0  0  0  0  0  0  0  0
   -6.4773  -16.0416   -8.7349 C   0  0  0  0  0  0  0  0  0  0  0  0
   -1.3594  -18.2367  -13.0365 C   0  0  0  0  0  0  0  0  0  0  0  0
   -2.3095  -18.0764  -12.2401 C   0  0  0  0  0  0  0  0  0  0  0  0
    0.5282  -20.6066  -10.6580 O   0  0  0  0  0  0  0  0  0  0  0  0
   -3.4170  -15.6057  -11.8707 O   0  0  0  0  0  0  0  0  0  0  0  0
   -3.2553  -16.6132  -12.6257 C   0  0  0  0  0  0  0  0  0  0  0  0
   -2.2437  -17.6473  -14.3537 O   0  0  0  0  0  0  0  0  0  0  0  0
   -4.6061  -16.6355   -9.6035 C   0  0  0  0  0  0  0  0  0  0  0  0
   -3.2933  -16.2542  -13.2894 O   0  0  0  0  0  0  0  0  0  0  0  0
   -2.5276  -18.4974  -11.0527 C   0  0  0  0  0  0  0  0  0  0  0  0
   -0.5114  -19.7120  -11.4313 C   0  0  0  0  0  0  0  0  0  0  0  0
   -0.2164  -18.3174  -14.1677 O   0  0  0  0  0  0  0  0  0  0  0  0
   -3.8755  -17.4454  -10.4750 C   0  0  0  0  0  0  0  0  0  0  0  0
   -1.5741  -19.5048  -10.6272 C   0  0  0  0  0  0  0  0  0  0  0  0
  3  1  1  0
  4  2  1  0
  5  4  1  0
  8  5  1  0
  8  7  1  0
  9  4  1  0
 10  1  1  0
 11  8  2  0
 12  5  1  0
 13  2  2  0
 13  6  1  0
 14  4  1  0
 15 10  2  0
 15 12  2  0
 16 12  1  0
 16 13  1  0
M  END
>  <ID>  (1) 
conformer_0

$$$$
