
     RDKit          3D

 16 18  0  0  0  0  0  0  0  0999 V2000
   -1.5872  -19.1496  -10.1622 C   0  0  0  0  0  0  0  0  0  0  0  0
   -6.8651  -15.8609   -8.7050 C   0  0  0  0  0  0  0  0  0  0  0  0
   -5.2157  -15.9825   -8.8848 C   0  0  0  0  0  0  0  0  0  0  0  0
   -5.8676  -17.2846   -9.4954 C   0  0  0  0  0  0  0  0  0  0  0  0
   -1.0166  -18.6789  -12.7596 C   0  0  0  0  0  0  0  0  0  0  0  0
   -2.4384  -18.3530  -10.9971 C   0  0  0  0  0  0  0  0  0  0  0  0
   -0.3399  -18.4973  -14.0524 O   0  0  0  0  0  0  0  0  0  0  0  0
   -2.8410  -16.8924  -12.9707 C   0  0  0  0  0  0  0  0  0  0  0  0
    0.1125  -20.8491  -10.0362 O   0  0  0  0  0  0  0  0  0  0  0  0
   -3.1224  -15.9359  -12.5606 O   0  0  0  0  0  0  0  0  0  0  0  0
   -2.8612  -17.3304  -14.2501 O   0  0  0  0  0  0  0  0  0  0  0  0
   -0.2029  -19.4851  -11.9798 C   0  0  0  0  0  0  0  0  0  0  0  0
   -0.5364  -19.8814  -10.9026 C   0  0  0  0  0  0  0  0  0  0  0  0
   -4.0098  -16.8717   -9.8592 C   0  0  0  0  0  0  0  0  0  0  0  0
   -4.0035  -17.6650  -10.8572 C   0  0  0  0  0  0  0  0  0  0  0  0
   -2.0388  -18.2148  -12.2047 C   0  0  0  0  0  0  0  0  0  0  0  0
  3  2  1  0
  4  2  1  0
  4  3  1  0
  6  1  2  0
  7  5  1  0
 10  8  2  0
 11  8  1  0
 12  5  1  0
 13  1  1  0
 13  9  1  0
 13 12  2  0
 14  3  1  0
 14  4  1  0
 15  6  1  0
 15 14  1  0
 16  5  2  0
 16  6  1  0
 16  8  1  0
M  END
>  <ID>  (1) 
conformer_0

$$$$
