
     RDKit          3D

 15 15  0  0  0  0  0  0  0  0999 V2000
   -6.7381  -16.1440   -8.8360 C   0  0  0  0  0  0  0  0  0  0  0  0
   -2.4016  -18.5256  -11.2585 C   0  0  0  0  0  0  0  0  0  0  0  0
   -5.5626  -16.5437   -9.0431 C   0  0  0  0  0  0  0  0  0  0  0  0
   -0.6252  -18.7285  -12.9208 C   0  0  0  0  0  0  0  0  0  0  0  0
   -1.6672  -19.3438  -10.4453 C   0  0  0  0  0  0  0  0  0  0  0  0
   -4.2956  -16.7773   -9.6852 C   0  0  0  0  0  0  0  0  0  0  0  0
    0.2898  -20.8224  -10.4057 O   0  0  0  0  0  0  0  0  0  0  0  0
   -2.7912  -17.0822  -13.1359 C   0  0  0  0  0  0  0  0  0  0  0  0
   -3.1980  -17.1141  -14.0904 O   0  0  0  0  0  0  0  0  0  0  0  0
    0.2043  -18.5453  -14.0715 O   0  0  0  0  0  0  0  0  0  0  0  0
   -2.9611  -16.0930  -12.6115 O   0  0  0  0  0  0  0  0  0  0  0  0
   -0.4230  -19.8770  -11.2010 C   0  0  0  0  0  0  0  0  0  0  0  0
   -0.2250  -19.4137  -12.2363 C   0  0  0  0  0  0  0  0  0  0  0  0
   -3.7392  -17.5072  -10.5020 C   0  0  0  0  0  0  0  0  0  0  0  0
   -2.0000  -18.2473  -12.5720 C   0  0  0  0  0  0  0  0  0  0  0  0
  3  1  3  0
  5  2  1  0
  6  3  1  0
  9  8  1  0
 10  4  1  0
 11  8  2  0
 12  5  2  0
 12  7  1  0
 13  4  2  0
 13 12  1  0
 14  2  2  0
 14  6  2  0
 15  2  1  0
 15  4  1  0
 15  8  1  0
M  END
>  <ID>  (1) 
conformer_0

$$$$
