
     RDKit          3D

 15 17  0  0  0  0  0  0  0  0999 V2000
   -3.5298  -16.5648   -9.3965 C   0  0  0  0  0  0  0  0  0  0  0  0
   -0.5051  -19.3319  -12.0465 C   0  0  0  0  0  0  0  0  0  0  0  0
   -3.7997  -17.5386  -10.8717 C   0  0  0  0  0  0  0  0  0  0  0  0
   -1.1231  -18.3744  -12.8263 C   0  0  0  0  0  0  0  0  0  0  0  0
   -2.2187  -18.0148  -12.1502 C   0  0  0  0  0  0  0  0  0  0  0  0
    0.0639  -20.8035  -10.3266 O   0  0  0  0  0  0  0  0  0  0  0  0
   -2.3701  -16.5457  -13.8051 O   0  0  0  0  0  0  0  0  0  0  0  0
   -4.9676  -17.2617   -9.8001 C   0  0  0  0  0  0  0  0  0  0  0  0
   -0.0336  -18.3978  -13.8661 O   0  0  0  0  0  0  0  0  0  0  0  0
   -2.5617  -16.8654  -13.7092 C   0  0  0  0  0  0  0  0  0  0  0  0
   -2.6783  -18.2625  -10.9488 C   0  0  0  0  0  0  0  0  0  0  0  0
   -0.7180  -19.8235  -11.1313 C   0  0  0  0  0  0  0  0  0  0  0  0
   -5.3226  -16.0774   -8.9112 C   0  0  0  0  0  0  0  0  0  0  0  0
   -6.7469  -16.4509   -8.8345 C   0  0  0  0  0  0  0  0  0  0  0  0
   -1.9266  -19.4303  -10.3624 C   0  0  0  0  0  0  0  0  0  0  0  0
  3  1  1  0
  4  2  2  0
  5  4  1  0
  8  1  1  0
  8  3  1  0
  9  4  1  0
 10  5  1  0
 10  7  2  0
 11  3  1  0
 11  5  2  0
 12  2  1  0
 12  6  1  0
 13  1  1  0
 13  8  1  0
 14 13  1  0
 15 11  1  0
 15 12  2  0
M  END
>  <ID>  (1) 
conformer_0

$$$$
