
     RDKit          3D

 15 15  0  0  0  0  0  0  0  0999 V2000
   -5.6863  -16.4939   -8.9441 C   0  0  0  0  0  0  0  0  0  0  0  0
   -1.4352  -18.2925  -13.0222 C   0  0  0  0  0  0  0  0  0  0  0  0
   -2.5287  -18.7366  -10.6311 C   0  0  0  0  0  0  0  0  0  0  0  0
   -6.7132  -15.7651   -8.6328 C   0  0  0  0  0  0  0  0  0  0  0  0
   -3.3281  -16.1123  -12.9295 O   0  0  0  0  0  0  0  0  0  0  0  0
   -2.5310  -18.0997  -12.0132 C   0  0  0  0  0  0  0  0  0  0  0  0
    0.4058  -19.0176  -13.7819 O   0  0  0  0  0  0  0  0  0  0  0  0
   -0.1936  -20.7054  -10.0027 O   0  0  0  0  0  0  0  0  0  0  0  0
   -4.4417  -16.9849   -9.6503 C   0  0  0  0  0  0  0  0  0  0  0  0
   -0.5195  -19.1115  -12.7953 C   0  0  0  0  0  0  0  0  0  0  0  0
   -2.9432  -16.9349  -12.9867 C   0  0  0  0  0  0  0  0  0  0  0  0
   -1.3467  -17.7534  -14.1347 O   0  0  0  0  0  0  0  0  0  0  0  0
   -3.7880  -17.5688  -10.4647 C   0  0  0  0  0  0  0  0  0  0  0  0
   -1.2311  -19.5430  -11.2392 C   0  0  0  0  0  0  0  0  0  0  0  0
   -0.8062  -19.9531  -11.0336 C   0  0  0  0  0  0  0  0  0  0  0  0
  4  1  1  0
  6  2  2  0
  6  3  1  0
  9  1  3  0
 10  2  1  0
 10  7  1  0
 11  5  2  0
 11  6  1  0
 12  2  1  0
 13  3  1  0
 13  9  1  0
 14  3  2  0
 14 10  1  0
 15  8  1  0
 15 14  1  0
M  END
>  <ID>  (1) 
conformer_0

$$$$
