
     RDKit          3D

 14 14  0  0  0  0  0  0  0  0999 V2000
   -4.0147  -16.6395   -9.7390 C   0  0  0  0  0  0  0  0  0  0  0  0
   -0.5988  -19.7401  -11.5653 C   0  0  0  0  0  0  0  0  0  0  0  0
   -5.5114  -16.3399   -9.2954 C   0  0  0  0  0  0  0  0  0  0  0  0
   -2.4969  -18.5034  -10.8570 C   0  0  0  0  0  0  0  0  0  0  0  0
   -2.1342  -18.1668  -12.2970 C   0  0  0  0  0  0  0  0  0  0  0  0
   -3.2082  -16.1338  -12.7847 O   0  0  0  0  0  0  0  0  0  0  0  0
    0.2208  -18.8594  -13.8281 O   0  0  0  0  0  0  0  0  0  0  0  0
   -6.6201  -16.1823   -8.8764 C   0  0  0  0  0  0  0  0  0  0  0  0
    0.0005  -21.0612  -10.4594 O   0  0  0  0  0  0  0  0  0  0  0  0
   -2.1265  -17.5357  -14.4598 O   0  0  0  0  0  0  0  0  0  0  0  0
   -2.7506  -17.0570  -13.1892 C   0  0  0  0  0  0  0  0  0  0  0  0
   -0.8745  -18.7235  -12.8843 C   0  0  0  0  0  0  0  0  0  0  0  0
   -3.6902  -17.3920  -10.3271 C   0  0  0  0  0  0  0  0  0  0  0  0
   -1.2880  -19.4046  -10.8221 C   0  0  0  0  0  0  0  0  0  0  0  0
  3  1  1  0
  5  4  2  0
  8  3  3  0
  9  2  1  0
 11  5  1  0
 11  6  2  0
 11 10  1  0
 12  2  2  0
 12  5  1  0
 12  7  1  0
 13  1  1  0
 13  4  1  0
 14  2  1  0
 14  4  1  0
M  END
>  <ID>  (1) 
conformer_0

$$$$
