
     RDKit          3D

 17 18  0  0  0  0  0  0  0  0999 V2000
   -2.2534  -17.8979  -11.0420 C   0  0  0  0  0  0  0  0  0  0  0  0
   -3.7220  -16.5948   -9.1369 C   0  0  2  0  0  0  0  0  0  0  0  0
   -5.3578  -15.9626   -8.9545 C   0  0  0  0  0  0  0  0  0  0  0  0
   -2.8278  -18.9358  -11.0710 C   0  0  0  0  0  0  0  0  0  0  0  0
   -0.5941  -19.9309  -11.1536 C   0  0  0  0  0  0  0  0  0  0  0  0
   -2.5491  -17.1133  -13.6742 C   0  0  0  0  0  0  0  0  0  0  0  0
   -2.7267  -17.4628  -14.6451 O   0  0  0  0  0  0  0  0  0  0  0  0
    0.4529  -20.7162  -10.5990 O   0  0  0  0  0  0  0  0  0  0  0  0
   -2.7683  -15.8988  -13.2199 O   0  0  0  0  0  0  0  0  0  0  0  0
   -6.2681  -16.8192   -8.9889 C   0  0  0  0  0  0  0  0  0  0  0  0
   -0.2347  -18.3875  -13.8774 O   0  0  0  0  0  0  0  0  0  0  0  0
   -0.3508  -19.3362  -12.1643 C   0  0  0  0  0  0  0  0  0  0  0  0
   -1.6467  -19.9410  -10.4885 C   0  0  0  0  0  0  0  0  0  0  0  0
   -4.8814  -17.2393  -10.4730 C   0  0  0  0  0  0  0  0  0  0  0  0
   -1.0475  -18.5862  -12.8071 C   0  0  0  0  0  0  0  0  0  0  0  0
   -3.2989  -17.5032  -10.0946 C   0  0  1  0  0  0  0  0  0  0  0  0
   -2.1265  -18.0333  -12.7036 C   0  0  1  0  0  0  0  0  0  0  0  0
  3  2  1  0
  4  1  2  0
  7  6  1  0
  8  5  1  0
  9  6  2  0
 10  3  2  3
 12  5  1  0
 13  4  1  0
 13  5  2  0
  2 14  1  6
 15 11  1  0
 15 12  2  0
 16  1  1  0
 16  2  1  0
 16 14  1  6
 17  1  1  0
 17  6  1  6
 17 15  1  0
M  END
>  <ID>  (1) 
conformer_0

$$$$
