
     RDKit          3D

 15 15  0  0  0  0  0  0  0  0999 V2000
   -2.5852  -18.2125  -11.5382 C   0  0  0  0  0  0  0  0  0  0  0  0
   -3.7805  -17.5581  -10.1725 C   0  0  0  0  0  0  0  0  0  0  0  0
   -3.5859  -16.6370   -9.5013 C   0  0  0  0  0  0  0  0  0  0  0  0
   -2.0978  -18.9822  -10.5932 C   0  0  0  0  0  0  0  0  0  0  0  0
   -0.8183  -18.6585  -12.9600 C   0  0  0  0  0  0  0  0  0  0  0  0
   -0.3707  -20.7473  -10.0723 O   0  0  0  0  0  0  0  0  0  0  0  0
   -0.0070  -18.4985  -14.0901 O   0  0  0  0  0  0  0  0  0  0  0  0
   -6.3000  -16.6509   -8.9395 C   0  0  0  0  0  0  0  0  0  0  0  0
   -3.2984  -16.8177  -12.8606 C   0  0  0  0  0  0  0  0  0  0  0  0
   -3.1215  -15.7492  -12.7796 O   0  0  0  0  0  0  0  0  0  0  0  0
   -3.0138  -17.3649  -14.5315 O   0  0  0  0  0  0  0  0  0  0  0  0
   -0.4163  -19.2788  -12.1623 C   0  0  0  0  0  0  0  0  0  0  0  0
   -0.8578  -19.8115  -11.0818 C   0  0  0  0  0  0  0  0  0  0  0  0
   -2.1689  -18.1122  -12.8355 C   0  0  0  0  0  0  0  0  0  0  0  0
   -5.1451  -16.3932   -9.0868 C   0  0  0  0  0  0  0  0  0  0  0  0
  2  1  1  0
  3  2  1  0
  4  1  2  0
  7  5  1  0
 10  9  1  0
 11  9  1  0
 12  5  1  0
 13  4  1  0
 13  6  1  0
 13 12  2  0
 14  1  1  0
 14  5  2  0
 14  9  1  0
 15  3  1  0
 15  8  3  0
M  END
>  <ID>  (1) 
conformer_0

$$$$
