
     RDKit          3D

 15 15  0  0  0  0  0  0  0  0999 V2000
   -4.1061  -17.5096  -10.9898 C   0  0  0  0  0  0  0  0  0  0  0  0
   -2.7013  -18.3714  -11.2534 C   0  0  0  0  0  0  0  0  0  0  0  0
   -3.5905  -17.3342   -9.9957 C   0  0  0  0  0  0  0  0  0  0  0  0
   -4.3654  -16.0652   -9.3408 C   0  0  0  0  0  0  0  0  0  0  0  0
   -0.1609  -19.1085  -12.7484 C   0  0  0  0  0  0  0  0  0  0  0  0
   -0.6638  -19.8826  -11.4272 C   0  0  0  0  0  0  0  0  0  0  0  0
   -3.0327  -15.8659  -13.0677 O   0  0  0  0  0  0  0  0  0  0  0  0
   -0.0485  -20.9329  -10.6421 O   0  0  0  0  0  0  0  0  0  0  0  0
   -2.0216  -17.6548  -14.4165 O   0  0  0  0  0  0  0  0  0  0  0  0
   -2.0354  -18.1286  -12.4813 C   0  0  0  0  0  0  0  0  0  0  0  0
   -1.4763  -18.2514  -13.1081 C   0  0  0  0  0  0  0  0  0  0  0  0
   -2.9188  -16.7570  -13.1935 C   0  0  0  0  0  0  0  0  0  0  0  0
   -5.7272  -17.0347   -9.4305 C   0  0  0  0  0  0  0  0  0  0  0  0
   -6.3044  -16.1543   -8.6884 C   0  0  0  0  0  0  0  0  0  0  0  0
   -1.6515  -19.4174  -10.7873 C   0  0  0  0  0  0  0  0  0  0  0  0
  2  1  1  0
  3  1  1  0
  4  3  1  0
  6  5  1  0
  8  6  1  0
 10  2  2  0
 11  5  2  0
 11  9  1  0
 11 10  1  0
 12  7  2  0
 12 10  1  0
 13  4  1  0
 14 13  1  0
 15  2  1  0
 15  6  2  0
M  END
>  <ID>  (1) 
conformer_0

$$$$
