
     RDKit          3D

 16 16  0  0  0  0  0  0  0  0999 V2000
   -5.3450  -15.9927   -8.9186 C   0  0  0  0  0  0  0  0  0  0  0  0
   -6.8173  -16.3534   -8.7912 C   0  0  0  0  0  0  0  0  0  0  0  0
   -2.4468  -18.2826  -11.2595 C   0  0  0  0  0  0  0  0  0  0  0  0
   -1.7816  -19.3595  -10.6716 C   0  0  0  0  0  0  0  0  0  0  0  0
   -0.7195  -18.6493  -12.9082 C   0  0  0  0  0  0  0  0  0  0  0  0
   -0.2871  -21.0091  -10.1848 O   0  0  0  0  0  0  0  0  0  0  0  0
   -2.7510  -16.9375  -13.2635 C   0  0  0  0  0  0  0  0  0  0  0  0
   -5.1367  -17.0514   -9.6933 C   0  0  0  0  0  0  0  0  0  0  0  0
   -0.1276  -18.3584  -14.0516 O   0  0  0  0  0  0  0  0  0  0  0  0
   -2.8519  -17.3727  -14.4666 O   0  0  0  0  0  0  0  0  0  0  0  0
   -2.5529  -15.9391  -13.2500 O   0  0  0  0  0  0  0  0  0  0  0  0
   -0.7257  -20.0500  -11.0478 C   0  0  0  0  0  0  0  0  0  0  0  0
   -0.1293  -19.6122  -12.2124 C   0  0  0  0  0  0  0  0  0  0  0  0
   -3.5185  -17.0932   -9.8363 C   0  0  0  0  0  0  0  0  0  0  0  0
   -3.7005  -17.5995  -11.1049 C   0  0  0  0  0  0  0  0  0  0  0  0
   -1.7517  -18.1834  -12.4931 C   0  0  0  0  0  0  0  0  0  0  0  0
  2  1  1  0
  4  3  2  0
  8  1  1  0
  9  5  1  0
 10  7  1  0
 11  7  1  0
 12  4  1  0
 12  6  1  0
 13  5  1  0
 13 12  2  0
 14  8  1  0
 15  3  1  0
 15 14  1  0
 16  3  1  0
 16  5  2  0
 16  7  1  0
M  END
>  <ID>  (1) 
conformer_0

$$$$
