
     RDKit          3D

 15 15  0  0  0  0  0  0  0  0999 V2000
   -3.6901  -17.4178  -10.2598 C   0  0  0  0  0  0  0  0  0  0  0  0
   -2.6082  -18.2009  -11.4554 C   0  0  0  0  0  0  0  0  0  0  0  0
   -4.0762  -16.7995   -9.6301 C   0  0  0  0  0  0  0  0  0  0  0  0
   -1.8861  -18.9320  -10.6117 C   0  0  0  0  0  0  0  0  0  0  0  0
   -0.6699  -19.6551  -10.8791 C   0  0  0  0  0  0  0  0  0  0  0  0
   -3.0141  -16.0627  -13.2504 O   0  0  0  0  0  0  0  0  0  0  0  0
   -0.1167  -18.5499  -14.2273 O   0  0  0  0  0  0  0  0  0  0  0  0
   -2.7182  -17.6853  -15.0071 O   0  0  0  0  0  0  0  0  0  0  0  0
   -2.6466  -17.1709  -13.8062 C   0  0  0  0  0  0  0  0  0  0  0  0
   -5.4292  -16.3224   -9.0751 C   0  0  0  0  0  0  0  0  0  0  0  0
   -0.0930  -20.4744   -9.8397 O   0  0  0  0  0  0  0  0  0  0  0  0
   -0.3073  -19.4239  -12.1343 C   0  0  0  0  0  0  0  0  0  0  0  0
   -0.9330  -18.6410  -12.9355 C   0  0  0  0  0  0  0  0  0  0  0  0
   -6.5207  -15.9097   -8.7044 C   0  0  0  0  0  0  0  0  0  0  0  0
   -2.0703  -18.1278  -12.6817 C   0  0  0  0  0  0  0  0  0  0  0  0
  2  1  2  0
  3  1  2  0
  4  2  1  0
  5  4  1  0
  9  6  2  0
  9  8  1  0
 10  3  1  0
 11  5  1  0
 12  5  2  0
 13  7  1  0
 13 12  1  0
 14 10  3  0
 15  2  1  0
 15  9  1  0
 15 13  2  0
M  END
>  <ID>  (1) 
conformer_0

$$$$
