
     RDKit          3D

 15 15  0  0  0  0  0  0  0  0999 V2000
   -6.4809  -15.7669   -8.8079 C   0  0  0  0  0  0  0  0  0  0  0  0
   -1.9018  -18.3742  -12.4141 C   0  0  0  0  0  0  0  0  0  0  0  0
   -5.5373  -16.5035   -9.1781 C   0  0  0  0  0  0  0  0  0  0  0  0
   -2.5751  -18.4040  -11.3284 C   0  0  0  0  0  0  0  0  0  0  0  0
   -3.2458  -15.9973  -12.5052 O   0  0  0  0  0  0  0  0  0  0  0  0
   -0.8114  -19.9281  -10.6402 C   0  0  0  0  0  0  0  0  0  0  0  0
   -2.8802  -17.0737  -13.2295 C   0  0  0  0  0  0  0  0  0  0  0  0
   -2.6393  -17.5262  -14.7285 O   0  0  0  0  0  0  0  0  0  0  0  0
   -0.3313  -20.9053   -9.7068 O   0  0  0  0  0  0  0  0  0  0  0  0
   -0.3201  -18.4255  -14.0134 O   0  0  0  0  0  0  0  0  0  0  0  0
   -4.3510  -16.7460   -9.6969 C   0  0  0  0  0  0  0  0  0  0  0  0
   -0.2031  -19.5713  -11.7635 C   0  0  0  0  0  0  0  0  0  0  0  0
   -0.7867  -18.8321  -12.7833 C   0  0  0  0  0  0  0  0  0  0  0  0
   -3.9745  -17.5367  -10.8424 C   0  0  0  0  0  0  0  0  0  0  0  0
   -1.8669  -19.0473  -10.3617 C   0  0  0  0  0  0  0  0  0  0  0  0
  3  1  2  3
  4  2  2  0
  7  2  1  0
  7  5  2  0
  8  7  1  0
  9  6  1  0
 11  3  1  0
 12  6  1  0
 13  2  1  0
 13 10  1  0
 13 12  2  0
 14  4  1  0
 14 11  1  0
 15  4  1  0
 15  6  2  0
M  END
>  <ID>  (1) 
conformer_0

$$$$
