
     RDKit          3D

 12 12  0  0  0  0  0  0  0  0999 V2000
   -4.8058  -16.7894   -9.3192 C   0  0  0  0  0  0  0  0  0  0  0  0
   -2.4950  -18.1074  -11.5163 C   0  0  0  0  0  3  0  0  0  0  0  0
   -3.7306  -17.2882   -9.9660 C   0  0  0  0  0  0  0  0  0  0  0  0
   -1.3929  -18.1177  -12.9424 C   0  0  0  0  0  0  0  0  0  0  0  0
   -2.2317  -18.8773  -10.5944 C   0  0  0  0  0  0  0  0  0  0  0  0
   -0.3723  -20.7977  -10.1181 O   0  0  0  0  0  0  0  0  0  0  0  0
   -0.2044  -18.2570  -14.1302 O   0  0  0  0  0  0  0  0  0  0  0  0
   -2.7543  -16.1214  -12.9993 O   0  0  0  0  0  0  0  0  0  0  0  0
   -0.8244  -19.7186  -11.3275 C   0  0  0  0  0  0  0  0  0  0  0  0
   -6.1961  -16.6078   -8.9101 C   0  0  0  0  0  0  0  0  0  0  0  0
   -3.0321  -16.7037  -13.3588 C   0  0  0  0  0  0  0  0  0  0  0  0
   -0.7695  -19.3435  -12.1428 C   0  0  0  0  0  0  0  0  0  0  0  0
  3  1  3  0
  3  2  1  0
  4  2  1  0
  5  2  1  0
  7  4  1  0
  9  5  1  0
  9  6  1  0
 10  1  1  0
 11  4  1  0
 11  8  1  0
 12  4  1  0
 12  9  2  0
M  RAD  1   2   2
M  END
>  <ID>  (1) 
conformer_0

$$$$
