
     RDKit          3D

 16 16  0  0  0  0  0  0  0  0999 V2000
   -4.1572  -16.7532   -9.8041 C   0  0  0  0  0  0  0  0  0  0  0  0
   -2.0939  -18.8285  -10.5142 C   0  0  0  0  0  3  0  0  0  0  0  0
   -5.4229  -16.4198   -9.0828 C   0  0  0  0  0  0  0  0  0  0  0  0
   -0.4246  -19.5196  -12.7631 C   0  0  0  0  0  0  0  0  0  0  0  0
   -2.1647  -18.1076  -11.8490 C   0  0  0  0  0  0  0  0  0  0  0  0
   -3.4301  -15.7000  -12.5445 O   0  0  0  0  0  0  0  0  0  0  0  0
   -6.7144  -16.1083   -8.8518 C   0  0  0  0  0  0  0  0  0  0  0  0
   -2.7174  -17.4886  -14.0716 O   0  0  0  0  0  0  0  0  0  0  0  0
    0.0928  -20.6330  -10.0504 O   0  0  0  0  0  0  0  0  0  0  0  0
   -3.1138  -16.6469  -12.6943 C   0  0  0  0  0  0  0  0  0  0  0  0
   -0.6470  -18.3159  -14.2093 O   0  0  0  0  0  0  0  0  0  0  0  0
   -1.4538  -18.3695  -12.9737 C   0  0  0  0  0  0  0  0  0  0  0  0
   -0.8188  -19.7728  -11.3291 C   0  0  0  0  0  0  0  0  0  0  0  0
   -3.3720  -17.3194  -10.6367 C   0  0  0  0  0  0  0  0  0  0  0  0
    0.5011  -19.9732  -13.3813 O   0  0  0  0  0  0  0  0  0  0  0  0
   -0.5996  -20.0003  -10.8415 C   0  0  0  0  0  0  0  0  0  0  0  0
  3  1  1  0
  5  2  1  0
  7  3  1  0
 10  5  1  0
 10  6  2  0
 10  8  1  0
 12  4  2  0
 12  5  1  0
 12 11  1  0
 13  2  1  0
 13  4  1  0
 14  1  3  0
 14  5  1  0
 15  4  1  0
 16  9  1  0
 16 13  1  0
M  RAD  1   2   2
M  END
>  <ID>  (1) 
conformer_0

$$$$
