
     RDKit          3D

 13 14  0  0  0  0  0  0  0  0999 V2000
   -4.1334  -17.5789  -10.1867 C   0  0  1  0  0  0  0  0  0  0  0  0
   -0.6711  -19.1320  -11.9150 C   0  0  0  0  0  0  0  0  0  0  0  0
   -5.4544  -16.5975   -9.1905 C   0  0  0  0  0  0  0  0  0  0  0  0
   -1.3461  -18.3382  -12.6535 C   0  0  0  0  0  0  0  0  0  0  0  0
   -2.8418  -17.2755  -13.7222 C   0  0  0  0  0  0  0  0  0  0  0  0
   -2.7508  -18.2387  -11.7510 C   0  0  2  0  0  0  0  0  0  0  0  0
    0.2980  -20.4303  -10.1958 O   0  0  0  0  0  0  0  0  0  0  0  0
   -6.4432  -16.0342   -8.8239 C   0  0  0  0  0  0  0  0  0  0  0  0
   -0.5766  -19.5023  -11.0805 C   0  0  2  0  0  0  0  0  0  0  0  0
   -0.0467  -18.4198  -13.9027 O   0  0  0  0  0  0  0  0  0  0  0  0
   -2.6724  -17.5737  -14.6157 O   0  0  0  0  0  0  0  0  0  0  0  0
   -2.3118  -19.0111  -10.5253 C   0  0  0  0  0  3  0  0  0  0  0  0
   -3.9423  -16.3127   -9.2360 C   0  0  0  0  0  0  0  0  0  0  0  0
  3  1  1  0
  4  2  2  0
  6  1  1  0
  6  4  1  0
  6  5  1  6
  8  3  2  3
  9  2  1  0
  9  7  1  6
 10  4  1  0
 11  5  1  0
 12  6  1  0
 12  9  1  0
  1 13  1  1
 13  3  1  0
M  RAD  1  12   2
M  END
>  <ID>  (1) 
conformer_0

$$$$
