
     RDKit          3D

 15 16  0  0  0  0  0  0  0  0999 V2000
   -0.3259  -19.5091  -12.2391 C   0  0  0  0  0  0  0  0  0  0  0  0
   -3.9391  -17.4908  -10.6660 C   0  0  0  0  0  0  0  0  0  0  0  0
   -3.8256  -16.4780   -9.5603 C   0  0  0  0  0  0  0  0  0  0  0  0
   -1.1647  -18.3603  -12.9281 C   0  0  0  0  0  0  0  0  0  0  0  0
   -1.7897  -19.1744  -10.4145 C   0  0  0  0  0  0  0  0  0  0  0  0
   -3.3715  -16.1850  -12.8343 O   0  0  0  0  0  0  0  0  0  0  0  0
   -0.0440  -18.3240  -14.0765 O   0  0  0  0  0  0  0  0  0  0  0  0
   -0.1403  -20.6242  -10.0526 O   0  0  0  0  0  0  0  0  0  0  0  0
   -5.9069  -16.0585   -8.6814 C   0  0  0  0  0  0  0  0  0  0  0  0
   -3.0818  -17.0421  -12.8823 C   0  0  0  0  0  0  0  0  0  0  0  0
   -2.2974  -18.1064  -12.3797 C   0  0  0  0  0  0  0  0  0  0  0  0
   -0.8163  -19.6413  -11.1556 C   0  0  0  0  0  0  0  0  0  0  0  0
   -2.2305  -17.7181  -14.4173 O   0  0  0  0  0  0  0  0  0  0  0  0
   -5.3984  -17.0614   -9.4928 C   0  0  0  0  0  0  0  0  0  0  0  0
   -2.6634  -18.2185  -11.0292 C   0  0  0  0  0  0  0  0  0  0  0  0
  3  2  1  0
  4  1  2  0
  7  4  1  0
 10  6  2  0
 11  4  1  0
 11 10  1  0
 12  1  1  0
 12  5  2  0
 12  8  1  0
 13 10  1  0
 14  2  1  0
 14  3  1  0
 14  9  1  0
 15  2  1  0
 15  5  1  0
 15 11  2  0
M  END
>  <ID>  (1) 
conformer_0

$$$$
