
     RDKit          3D

 16 16  0  0  0  0  0  0  0  0999 V2000
   -2.1015  -17.9901  -12.7266 C   0  0  0  0  0  0  0  0  0  0  0  0
   -5.7940  -17.2422   -9.5156 C   0  0  0  0  0  0  0  0  0  0  0  0
   -6.4854  -16.2102   -8.6892 C   0  0  0  0  0  0  0  0  0  0  0  0
   -1.0737  -18.4546  -12.9428 C   0  0  0  0  0  0  0  0  0  0  0  0
   -2.6307  -18.1795  -11.4575 C   0  0  0  0  0  0  0  0  0  0  0  0
   -0.1849  -18.4564  -14.1376 O   0  0  0  0  0  0  0  0  0  0  0  0
   -3.5539  -15.7295  -12.8123 O   0  0  0  0  0  0  0  0  0  0  0  0
   -2.6856  -17.4326  -14.6710 O   0  0  0  0  0  0  0  0  0  0  0  0
   -0.0103  -20.2600   -9.7793 O   0  0  0  0  0  0  0  0  0  0  0  0
   -4.1044  -17.5891  -11.0065 C   0  0  0  0  0  0  0  0  0  0  0  0
   -2.9110  -16.7789  -13.3946 C   0  0  0  0  0  0  0  0  0  0  0  0
   -0.2565  -19.2201  -12.1748 C   0  0  0  0  0  0  0  0  0  0  0  0
   -0.6379  -19.4593  -10.9183 C   0  0  0  0  0  0  0  0  0  0  0  0
   -3.5049  -17.2510   -9.9200 C   0  0  0  0  0  0  0  0  0  0  0  0
   -1.8708  -19.0067  -10.6047 C   0  0  0  0  0  0  0  0  0  0  0  0
   -4.5520  -16.2549   -9.1977 C   0  0  0  0  0  0  0  0  0  0  0  0
  3  2  1  0
  4  1  2  0
  5  1  1  0
  6  4  1  0
 10  5  1  0
 11  1  1  0
 11  7  2  0
 11  8  1  0
 12  4  1  0
 13  9  1  0
 13 12  2  0
 14 10  1  0
 15  5  2  0
 15 13  1  0
 16  2  1  0
 16 14  1  0
M  END
>  <ID>  (1) 
conformer_0

$$$$
