
     RDKit          3D

 15 15  0  0  0  0  0  0  0  0999 V2000
   -6.0137  -16.4305   -9.0554 C   0  0  0  0  0  0  0  0  0  0  0  0
   -1.7536  -18.8564  -10.5396 C   0  0  0  0  0  0  0  0  0  0  0  0
   -4.9161  -16.2783   -9.1893 C   0  0  0  0  0  0  0  0  0  0  0  0
   -0.7319  -18.7317  -12.8652 C   0  0  0  0  0  0  0  0  0  0  0  0
   -7.0322  -15.4454   -8.6178 C   0  0  0  0  0  0  0  0  0  0  0  0
   -1.9807  -18.2970  -11.7535 C   0  0  0  0  0  0  0  0  0  0  0  0
   -3.1275  -15.7202  -12.6029 O   0  0  0  0  0  0  0  0  0  0  0  0
   -3.1399  -16.8343  -12.7770 C   0  0  0  0  0  0  0  0  0  0  0  0
    0.0376  -20.9705   -9.9769 O   0  0  0  0  0  0  0  0  0  0  0  0
   -2.9330  -17.1629  -14.2639 O   0  0  0  0  0  0  0  0  0  0  0  0
   -0.1026  -18.4227  -13.9676 O   0  0  0  0  0  0  0  0  0  0  0  0
   -0.3066  -19.6550  -11.9698 C   0  0  0  0  0  0  0  0  0  0  0  0
   -0.4809  -20.0173  -10.8749 C   0  0  0  0  0  0  0  0  0  0  0  0
   -3.4862  -17.1844   -9.9342 C   0  0  0  0  0  0  0  0  0  0  0  0
   -4.1234  -17.2104  -11.0537 C   0  0  0  0  0  0  0  0  0  0  0  0
  3  1  2  3
  5  1  1  0
  6  2  2  0
  6  4  1  0
  8  6  1  0
  8  7  1  0
 10  8  1  0
 11  4  1  0
 12  4  2  0
 13  2  1  0
 13  9  1  0
 13 12  1  0
 14  3  1  0
 15  8  1  0
 15 14  1  0
M  END
>  <ID>  (1) 
conformer_0

$$$$
