
     RDKit          3D

 16 17  0  0  0  0  0  0  0  0999 V2000
   -6.3796  -17.0978   -9.1093 C   0  0  0  0  0  0  0  0  0  0  0  0
   -0.2939  -19.3440  -12.2516 C   0  0  0  0  0  0  0  0  0  0  0  0
   -4.6883  -17.6571  -10.1664 C   0  0  0  0  0  0  0  0  0  0  0  0
   -1.1837  -18.4415  -13.0085 C   0  0  0  0  0  0  0  0  0  0  0  0
   -2.5690  -18.2521  -11.1432 C   0  0  0  0  0  0  0  0  0  0  0  0
    0.2248  -20.2792  -10.0935 O   0  0  0  0  0  0  0  0  0  0  0  0
   -0.3073  -18.5163  -14.2008 O   0  0  0  0  0  0  0  0  0  0  0  0
   -3.9232  -17.2311  -11.2935 C   0  0  0  0  0  0  0  0  0  0  0  0
   -2.6953  -16.0796  -13.2846 O   0  0  0  0  0  0  0  0  0  0  0  0
   -2.7063  -17.6916  -14.6834 O   0  0  0  0  0  0  0  0  0  0  0  0
   -2.2291  -18.1154  -12.3474 C   0  0  0  0  0  0  0  0  0  0  0  0
   -0.5837  -19.4599  -11.0491 C   0  0  0  0  0  0  0  0  0  0  0  0
   -2.8555  -17.0721  -13.2656 C   0  0  0  0  0  0  0  0  0  0  0  0
   -5.6665  -16.0880   -8.7763 C   0  0  0  0  0  0  0  0  0  0  0  0
   -1.6491  -18.9857  -10.3388 C   0  0  0  0  0  0  0  0  0  0  0  0
   -4.0897  -16.3991   -9.6187 C   0  0  0  0  0  0  0  0  0  0  0  0
  4  2  2  0
  7  4  1  0
  8  3  1  0
  8  5  1  0
 11  4  1  0
 11  5  2  0
 12  2  1  0
 12  6  1  0
 13  9  1  0
 13 10  1  0
 13 11  1  0
 14  1  1  0
 15  5  1  0
 15 12  2  0
 16  3  1  0
 16  8  1  0
 16 14  1  0
M  END
>  <ID>  (1) 
conformer_0

$$$$
