
     RDKit          3D

 16 16  0  0  0  0  0  0  0  0999 V2000
   -2.4697  -18.1565  -11.8162 C   0  0  0  0  0  0  0  0  0  0  0  0
   -5.2608  -16.2388   -8.9223 C   0  0  0  0  0  0  0  0  0  0  0  0
   -6.4697  -16.6501   -8.9132 C   0  0  0  0  0  0  0  0  0  0  0  0
   -2.0408  -18.9092  -10.9335 C   0  0  0  0  0  0  0  0  0  0  0  0
   -3.0019  -16.8890  -13.3176 C   0  0  1  0  0  0  0  0  0  0  0  0
   -0.9597  -19.6423  -10.8343 C   0  0  0  0  0  0  0  0  0  0  0  0
   -0.4989  -20.1772   -9.7325 O   0  0  0  0  0  0  0  0  0  0  0  0
   -2.8621  -17.4006  -14.7068 O   0  0  0  0  0  0  0  0  0  0  0  0
   -0.1187  -19.4933  -12.2619 C   0  0  0  0  0  0  0  0  0  0  0  0
    0.1155  -18.3944  -14.0673 O   0  0  0  0  0  0  0  0  0  0  0  0
   -4.0569  -16.9629   -9.3301 C   0  0  0  0  0  0  0  0  0  0  0  0
   -3.0650  -15.7477  -12.7927 O   0  0  0  0  0  0  0  0  0  0  0  0
   -3.7089  -16.3386  -13.0667 O   0  0  0  0  0  0  0  0  0  0  0  0
   -0.6582  -18.5358  -12.8858 C   0  0  1  0  0  0  0  0  0  0  0  0
   -1.6216  -18.1825  -13.1141 C   0  0  1  0  0  0  0  0  0  0  0  0
   -3.3722  -17.7466  -10.2842 C   0  0  0  0  0  0  0  0  0  0  0  0
  3  2  2  3
  4  1  1  0
  6  4  2  0
  7  6  1  0
  5  8  1  6
  9  6  1  0
 11  2  1  0
 13  5  1  0
 13 12  1  0
 14  9  1  0
 14 10  1  6
 15  1  1  1
 15  5  1  0
 15 14  1  0
 16  1  2  0
 16 11  2  0
M  END
>  <ID>  (1) 
conformer_0

$$$$
