
     RDKit          3D

 15 15  0  0  0  0  0  0  0  0999 V2000
   -3.7045  -17.2068  -10.7709 C   0  0  0  0  0  0  0  0  0  0  0  0
   -2.5884  -18.2711  -11.2775 C   0  0  0  0  0  0  0  0  0  0  0  0
   -3.7693  -17.3602   -9.6772 C   0  0  0  0  0  0  0  0  0  0  0  0
   -0.8770  -18.7293  -12.8149 C   0  0  0  0  0  0  0  0  0  0  0  0
   -2.0606  -18.1612  -12.5302 C   0  0  0  0  0  0  0  0  0  0  0  0
   -0.0728  -20.6234   -9.9649 O   0  0  0  0  0  0  0  0  0  0  0  0
   -3.2044  -15.7309  -12.8411 O   0  0  0  0  0  0  0  0  0  0  0  0
   -0.1047  -18.5698  -13.8682 O   0  0  0  0  0  0  0  0  0  0  0  0
   -2.8366  -17.4289  -14.2960 O   0  0  0  0  0  0  0  0  0  0  0  0
   -6.2414  -16.2183   -8.9339 C   0  0  0  0  0  0  0  0  0  0  0  0
   -3.0942  -16.6288  -12.8519 C   0  0  0  0  0  0  0  0  0  0  0  0
   -0.4896  -19.6363  -11.7882 C   0  0  0  0  0  0  0  0  0  0  0  0
   -0.7266  -19.8131  -11.0765 C   0  0  0  0  0  0  0  0  0  0  0  0
   -2.0248  -19.1940  -10.3474 C   0  0  0  0  0  0  0  0  0  0  0  0
   -4.9631  -16.3183   -9.3693 C   0  0  0  0  0  0  0  0  0  0  0  0
  2  1  1  0
  3  1  1  0
  5  2  2  0
  5  4  1  0
  8  4  1  0
 11  5  1  0
 11  7  1  0
 11  9  1  0
 12  4  2  0
 13  6  1  0
 13 12  1  0
 14  2  1  0
 14 13  2  0
 15  3  1  0
 15 10  2  3
M  END
>  <ID>  (1) 
conformer_0

$$$$
