
     RDKit          3D

 16 17  0  0  0  0  0  0  0  0999 V2000
   -5.0000  -15.9930   -9.0939 C   0  0  0  0  0  0  0  0  0  0  0  0
   -1.8639  -19.5033  -10.3711 C   0  0  0  0  0  0  0  0  0  0  0  0
   -6.7769  -15.7272   -8.6099 C   0  0  0  0  0  0  0  0  0  0  0  0
   -2.5897  -18.3438  -10.9542 C   0  0  0  0  0  0  0  0  0  0  0  0
   -0.5735  -19.9733  -10.9339 C   0  0  0  0  0  0  0  0  0  0  0  0
   -2.8711  -16.7657  -13.2075 C   0  0  0  0  0  0  0  0  0  0  0  0
    0.3581  -20.9477  -10.5094 O   0  0  0  0  0  0  0  0  0  0  0  0
   -0.5483  -18.3028  -13.9843 O   0  0  0  0  0  0  0  0  0  0  0  0
   -2.9320  -15.7103  -12.9434 O   0  0  0  0  0  0  0  0  0  0  0  0
   -3.7350  -17.2620   -9.3336 C   0  0  0  0  0  0  0  0  0  0  0  0
   -0.4176  -19.3729  -12.1057 C   0  0  0  0  0  0  0  0  0  0  0  0
   -1.0954  -18.6385  -12.7084 C   0  0  0  0  0  0  0  0  0  0  0  0
   -2.5571  -17.3589  -14.4732 O   0  0  0  0  0  0  0  0  0  0  0  0
   -2.1835  -18.1077  -12.0775 C   0  0  0  0  0  0  0  0  0  0  0  0
   -3.6792  -17.4032  -10.6522 C   0  0  0  0  0  0  0  0  0  0  0  0
   -5.8965  -17.1122   -9.1332 C   0  0  0  0  0  0  0  0  0  0  0  0
  3  1  1  0
  4  2  2  0
  5  2  1  0
  7  5  1  0
  9  6  2  0
 10  1  1  0
 11  5  2  0
 12  8  1  0
 12 11  1  0
 13  6  1  0
 14  4  1  0
 14  6  1  0
 14 12  2  0
 15  4  1  0
 15 10  1  0
 16  1  1  0
 16  3  1  0
M  END
>  <ID>  (1) 
conformer_0

$$$$
