
     RDKit          3D

 16 17  0  0  0  0  0  0  0  0999 V2000
   -6.8063  -15.7726   -8.5361 C   0  0  0  0  0  0  0  0  0  0  0  0
   -1.6249  -18.3514  -12.4099 C   0  0  0  0  0  0  0  0  0  0  0  0
   -6.1027  -17.2226   -9.1673 C   0  0  0  0  0  0  0  0  0  0  0  0
   -2.5259  -18.3407  -11.2725 C   0  0  0  0  0  0  0  0  0  0  0  0
   -0.7059  -18.5832  -12.9213 C   0  0  0  0  0  0  0  0  0  0  0  0
    0.0712  -18.2813  -14.0483 O   0  0  0  0  0  0  0  0  0  0  0  0
   -3.2186  -15.9905  -12.6875 O   0  0  0  0  0  0  0  0  0  0  0  0
   -0.3720  -21.0305   -9.9821 O   0  0  0  0  0  0  0  0  0  0  0  0
   -2.8546  -17.0178  -13.1234 C   0  0  0  0  0  0  0  0  0  0  0  0
   -2.6014  -17.4407  -14.5713 O   0  0  0  0  0  0  0  0  0  0  0  0
   -5.0100  -16.1568   -9.0963 C   0  0  0  0  0  0  0  0  0  0  0  0
   -0.1421  -19.9765  -12.2010 C   0  0  0  0  0  0  0  0  0  0  0  0
   -0.9110  -20.1065  -10.9501 C   0  0  0  0  0  0  0  0  0  0  0  0
   -3.9428  -16.9299   -9.9915 C   0  0  0  0  0  0  0  0  0  0  0  0
   -3.8982  -17.6983  -10.8571 C   0  0  0  0  0  0  0  0  0  0  0  0
   -1.8033  -19.4226  -10.6492 C   0  0  0  0  0  0  0  0  0  0  0  0
  3  1  1  0
  4  2  2  0
  5  2  1  0
  6  5  1  0
  9  2  1  0
  9  7  2  0
 10  9  1  0
 11  1  1  0
 11  3  1  0
 12  5  2  0
 13  8  1  0
 13 12  1  0
 14 11  1  0
 15  4  1  0
 15 14  2  3
 16  4  1  0
 16 13  2  0
M  END
>  <ID>  (1) 
conformer_0

$$$$
