
     RDKit          3D

 16 16  0  0  0  0  0  0  0  0999 V2000
   -6.7255  -15.8639   -8.5929 C   0  0  0  0  0  0  0  0  0  0  0  0
   -4.8642  -16.2243   -9.0207 C   0  0  0  0  0  0  0  0  0  0  0  0
   -2.4951  -18.1757  -11.3315 C   0  0  0  0  0  0  0  0  0  0  0  0
   -1.8281  -18.1426  -12.5920 C   0  0  0  0  0  0  0  0  0  0  0  0
   -2.8558  -17.4312  -14.5356 O   0  0  0  0  0  0  0  0  0  0  0  0
   -0.7146  -19.7541  -10.7615 C   0  0  0  0  0  0  0  0  0  0  0  0
   -3.3288  -15.8607  -12.7078 O   0  0  0  0  0  0  0  0  0  0  0  0
   -0.1820  -20.6712   -9.8435 O   0  0  0  0  0  0  0  0  0  0  0  0
   -2.9153  -16.8661  -13.1695 C   0  0  0  0  0  0  0  0  0  0  0  0
    0.1917  -18.4857  -13.8632 O   0  0  0  0  0  0  0  0  0  0  0  0
   -5.8836  -17.0772   -9.3505 C   0  0  0  0  0  0  0  0  0  0  0  0
   -0.1534  -19.4026  -11.8474 C   0  0  0  0  0  0  0  0  0  0  0  0
   -0.6525  -18.6629  -12.7243 C   0  0  0  0  0  0  0  0  0  0  0  0
   -1.8947  -18.9813  -10.4405 C   0  0  0  0  0  0  0  0  0  0  0  0
   -3.6487  -17.4400   -9.7368 C   0  0  0  0  0  0  0  0  0  0  0  0
   -4.1164  -17.5682  -10.8795 C   0  0  0  0  0  0  0  0  0  0  0  0
  4  3  2  0
  8  6  1  0
  9  4  1  0
  9  5  1  0
  9  7  2  0
 11  1  1  0
 11  2  1  0
 12  6  1  0
 13  4  1  0
 13 10  1  0
 13 12  2  0
 14  3  1  0
 14  6  2  0
 15  2  1  0
 16  3  1  0
 16 15  1  0
M  END
>  <ID>  (1) 
conformer_0

$$$$
