
     RDKit          3D

 15 15  0  0  0  0  0  0  0  0999 V2000
   -2.6735  -18.3180  -11.0117 C   0  0  0  0  0  0  0  0  0  0  0  0
   -4.2674  -17.2726  -10.3980 C   0  0  0  0  0  0  0  0  0  0  0  0
   -5.2804  -16.3246   -9.1096 C   0  0  0  0  0  0  0  0  0  0  0  0
   -0.8540  -18.8484  -12.5778 C   0  0  0  0  0  0  0  0  0  0  0  0
   -2.6455  -17.9924  -12.3811 C   0  0  0  0  0  0  0  0  0  0  0  0
   -2.6815  -17.2078  -13.6286 C   0  0  0  0  0  0  0  0  0  0  0  0
   -6.2285  -16.9323   -9.0797 C   0  0  0  0  0  0  0  0  0  0  0  0
    0.2451  -20.6131  -10.9287 O   0  0  0  0  0  0  0  0  0  0  0  0
   -2.6813  -17.5697  -14.8231 O   0  0  0  0  0  0  0  0  0  0  0  0
   -0.0134  -18.5636  -14.0878 O   0  0  0  0  0  0  0  0  0  0  0  0
   -3.4285  -16.0600  -13.0145 O   0  0  0  0  0  0  0  0  0  0  0  0
   -1.8595  -19.3056  -10.5141 C   0  0  0  0  0  0  0  0  0  0  0  0
   -0.7156  -19.9709  -11.2396 C   0  0  0  0  0  0  0  0  0  0  0  0
   -3.4059  -17.0589   -9.7148 C   0  0  0  0  0  0  0  0  0  0  0  0
   -1.1499  -18.7648  -12.8142 C   0  0  0  0  0  0  0  0  0  0  0  0
  3  2  1  0
  5  1  2  0
  6  5  1  0
  7  3  1  0
  9  6  1  0
 11  6  1  0
 12  1  1  0
 13  4  1  0
 13  8  1  0
 13 12  2  0
 14  1  1  0
 14  2  1  0
 15  4  2  0
 15  5  1  0
 15 10  1  0
M  END
>  <ID>  (1) 
conformer_0

$$$$
