
     RDKit          3D

 15 15  0  0  0  0  0  0  0  0999 V2000
   -2.5067  -18.0751  -11.0143 C   0  0  0  0  0  0  0  0  0  0  0  0
   -3.8248  -16.6984   -9.3601 C   0  0  0  0  0  0  0  0  0  0  0  0
   -5.4444  -16.6462   -9.1610 C   0  0  0  0  0  0  0  0  0  0  0  0
   -1.0716  -18.3496  -12.9882 C   0  0  0  0  0  0  0  0  0  0  0  0
   -3.4834  -16.0294  -12.7904 O   0  0  0  0  0  0  0  0  0  0  0  0
   -2.0907  -19.3548  -10.6825 C   0  0  0  0  0  0  0  0  0  0  0  0
   -0.6516  -20.7992  -10.0169 O   0  0  0  0  0  0  0  0  0  0  0  0
   -0.0411  -18.4053  -13.9115 O   0  0  0  0  0  0  0  0  0  0  0  0
   -6.4229  -16.3098   -8.7804 C   0  0  0  0  0  0  0  0  0  0  0  0
   -2.5362  -17.6336  -14.5679 O   0  0  0  0  0  0  0  0  0  0  0  0
   -0.9880  -19.7571  -11.2375 C   0  0  0  0  0  0  0  0  0  0  0  0
   -0.4685  -19.7828  -12.1614 C   0  0  0  0  0  0  0  0  0  0  0  0
   -2.9432  -16.9076  -13.3260 C   0  0  0  0  0  0  0  0  0  0  0  0
   -3.7321  -17.4421  -10.3711 C   0  0  0  0  0  0  0  0  0  0  0  0
   -2.3047  -17.9639  -12.3908 C   0  0  0  0  0  0  0  0  0  0  0  0
  3  2  1  0
  6  1  2  0
  8  4  1  0
  9  3  3  0
 11  6  1  0
 11  7  1  0
 12  4  1  0
 12 11  2  0
 13  5  2  0
 13 10  1  0
 14  1  1  0
 14  2  1  0
 15  1  1  0
 15  4  2  0
 15 13  1  0
M  END
>  <ID>  (1) 
conformer_0

$$$$
