
     RDKit          3D

 12 12  0  0  0  0  0  0  0  0999 V2000
   -2.1304  -18.2510  -12.1533 C   0  0  0  0  0  0  0  0  0  0  0  0
   -5.5039  -16.6161   -9.0993 C   0  0  0  0  0  0  0  0  0  0  0  0
   -6.6027  -16.3955   -8.8231 C   0  0  0  0  0  0  0  0  0  0  0  0
   -1.8641  -18.9786  -10.9449 C   0  0  0  0  0  0  0  0  0  0  0  0
   -0.6748  -19.4610  -11.9195 C   0  0  0  0  0  0  0  0  0  0  0  0
   -4.1061  -16.8175   -9.7855 C   0  0  0  0  0  0  0  0  0  0  0  0
   -2.6117  -16.8598  -13.3144 C   0  0  0  0  0  0  0  0  0  0  0  0
   -0.0681  -20.7382  -10.3038 O   0  0  0  0  0  0  0  0  0  0  0  0
   -3.3068  -15.9378  -12.6268 O   0  0  0  0  0  0  0  0  0  0  0  0
   -2.1773  -16.0426  -13.4802 O   0  0  0  0  0  0  0  0  0  0  0  0
   -0.4782  -19.0835  -12.8111 C   0  0  0  0  0  0  0  0  0  0  0  0
   -3.4760  -17.5220  -10.6237 C   0  0  0  0  0  0  0  0  0  0  0  0
  3  2  3  0
  4  1  1  0
  5  1  1  0
  5  4  1  0
  6  2  1  0
  7  1  1  0
  8  5  1  0
  9  7  1  0
 10  7  1  0
 11  5  1  0
 12  4  1  0
 12  6  1  0
M  END
>  <ID>  (1) 
conformer_0

$$$$
