
     RDKit          3D

 16 16  0  0  0  0  0  0  0  0999 V2000
   -6.8225  -16.0819   -8.8103 C   0  0  0  0  0  0  0  0  0  0  0  0
   -1.3141  -19.3087  -10.9026 C   0  0  0  0  0  3  0  0  0  0  0  0
   -5.8739  -16.6679   -8.9578 C   0  0  0  0  0  0  0  0  0  0  0  0
   -1.8114  -18.1987  -12.4865 C   0  0  2  0  0  0  0  0  0  0  0  0
   -0.7694  -18.5990  -12.9726 C   0  0  0  0  0  0  0  0  0  0  0  0
   -0.4486  -20.3116   -9.1151 O   0  0  0  0  0  0  0  0  0  0  0  0
   -4.5804  -16.8075   -9.4994 C   0  0  0  0  0  0  0  0  0  0  0  0
   -2.7702  -17.0321  -13.0605 C   0  0  0  0  0  0  0  0  0  0  0  0
    0.1786  -18.6089  -14.1648 O   0  0  0  0  0  0  0  0  0  0  0  0
   -2.3738  -17.7881  -14.9412 O   0  0  0  0  0  0  0  0  0  0  0  0
   -0.8736  -19.6542  -10.6251 C   0  0  0  0  0  0  0  0  0  0  0  0
   -3.1531  -16.1939  -12.2553 O   0  0  0  0  0  0  0  0  0  0  0  0
   -2.5282  -18.3136  -11.0003 C   0  0  0  0  0  0  0  0  0  0  0  0
   -3.6567  -17.5479  -10.2857 C   0  0  0  0  0  0  0  0  0  0  0  0
   -3.6312  -16.7299  -13.5544 O   0  0  0  0  0  0  0  0  0  0  0  0
    0.1158  -19.8689  -12.0935 C   0  0  0  0  0  0  0  0  0  0  0  0
  3  1  2  3
  5  4  1  0
  7  3  1  0
  4  8  1  1
  9  5  1  0
 10  8  1  0
 11  2  2  0
 11  6  1  0
 12  8  1  0
 13  2  1  0
 13  4  1  0
 14  7  2  0
 14 13  2  0
 15  8  1  0
 16  5  2  0
 16 11  1  0
M  RAD  1   2   2
M  END
>  <ID>  (1) 
conformer_0

$$$$
