
     RDKit          3D

 15 15  0  0  0  0  0  0  0  0999 V2000
    0.2601  -19.5045  -12.1374 C   0  0  0  0  0  0  0  0  0  0  0  0
   -6.3201  -16.2848   -8.8037 C   0  0  0  0  0  0  0  0  0  0  0  0
   -5.2086  -16.3935   -9.0812 C   0  0  0  0  0  0  0  0  0  0  0  0
   -3.9771  -16.9254   -9.7354 C   0  0  0  0  0  0  0  0  0  0  0  0
   -2.3424  -18.3608  -11.6010 C   0  0  0  0  0  0  0  0  0  0  0  0
   -0.4999  -19.6412  -10.9871 C   0  0  0  0  0  0  0  0  0  0  0  0
    0.0781  -18.5413  -14.2454 O   0  0  0  0  0  0  0  0  0  0  0  0
   -3.3143  -15.9819  -12.5323 O   0  0  0  0  0  0  0  0  0  0  0  0
    0.0834  -20.3947   -9.8181 O   0  0  0  0  0  0  0  0  0  0  0  0
   -3.2126  -16.8710  -12.7723 C   0  0  0  0  0  0  0  0  0  0  0  0
   -2.6424  -17.5884  -14.4951 O   0  0  0  0  0  0  0  0  0  0  0  0
   -1.5815  -19.2328  -10.7021 C   0  0  0  0  0  0  0  0  0  0  0  0
   -0.6750  -18.6497  -13.0448 C   0  0  0  0  0  0  0  0  0  0  0  0
   -3.4504  -17.7882  -10.5893 C   0  0  0  0  0  3  0  0  0  0  0  0
   -1.5646  -18.3666  -12.7531 C   0  0  0  0  0  0  0  0  0  0  0  0
  3  2  3  0
  4  3  1  0
  6  1  1  0
  9  6  1  0
 10  5  1  0
 10  8  2  0
 11 10  1  0
 12  5  1  0
 12  6  2  0
 13  1  1  0
 13  7  1  0
 14  4  2  3
 14  5  1  0
 15  5  1  0
 15 13  2  0
M  RAD  1  14   2
M  END
>  <ID>  (1) 
conformer_0

$$$$
