
     RDKit          3D

 14 14  0  0  0  0  0  0  0  0999 V2000
   -6.5546  -16.1319   -8.7382 C   0  0  0  0  0  0  0  0  0  0  0  0
   -1.5699  -19.1386  -10.6725 C   0  0  0  0  0  0  0  0  0  0  0  0
   -5.4144  -16.2212   -8.9136 C   0  0  0  0  0  0  0  0  0  0  0  0
   -0.5557  -18.9529  -12.8531 C   0  0  0  0  0  0  0  0  0  0  0  0
   -2.4981  -18.2861  -11.2570 C   0  0  0  0  0  0  0  0  0  0  0  0
    0.0005  -18.4611  -14.2016 O   0  0  0  0  0  0  0  0  0  0  0  0
   -2.9919  -16.0627  -12.5804 O   0  0  0  0  0  0  0  0  0  0  0  0
   -4.3937  -16.7416   -9.7700 C   0  0  0  0  0  0  0  0  0  0  0  0
   -0.1534  -20.7069  -10.2382 O   0  0  0  0  0  0  0  0  0  0  0  0
   -3.1322  -16.9262  -12.6313 C   0  0  0  0  0  0  0  0  0  0  0  0
   -0.7387  -19.8256  -11.3270 C   0  0  1  0  0  0  0  0  0  0  0  0
    0.5759  -20.2394  -12.9877 O   0  0  0  0  0  0  0  0  0  0  0  0
   -1.8265  -18.2862  -12.6085 C   0  0  0  0  0  3  0  0  0  0  0  0
   -3.9510  -17.4099  -10.7808 C   0  0  0  0  0  0  0  0  0  0  0  0
  3  1  2  3
  5  2  2  0
  6  4  1  0
  8  3  1  0
 10  7  2  0
 11  2  1  0
 11  4  1  0
 11  9  1  1
 12  4  1  0
 13  4  1  0
 13  5  1  0
 13 10  1  0
 14  5  1  0
 14  8  1  0
M  RAD  1  13   2
M  END
>  <ID>  (1) 
conformer_0

$$$$
