
     RDKit          3D

 16 17  0  0  0  0  0  0  0  0999 V2000
   -3.2468  -16.7584   -9.4715 C   0  0  0  0  0  0  0  0  0  0  0  0
   -2.4040  -18.1266  -11.3199 C   0  0  0  0  0  0  0  0  0  0  0  0
   -4.7952  -16.0564   -9.0287 C   0  0  0  0  0  0  0  0  0  0  0  0
   -0.9884  -19.9701  -10.9889 C   0  0  0  0  0  0  0  0  0  0  0  0
   -2.6436  -17.1288  -13.3736 C   0  0  0  0  0  0  0  0  0  0  0  0
   -1.9641  -19.0525  -10.4623 C   0  0  0  0  0  0  0  0  0  0  0  0
   -3.2974  -16.4185  -13.0259 O   0  0  0  0  0  0  0  0  0  0  0  0
   -0.4523  -20.7504  -10.0522 O   0  0  0  0  0  0  0  0  0  0  0  0
   -2.1258  -17.5359  -14.7905 O   0  0  0  0  0  0  0  0  0  0  0  0
   -6.6940  -15.8772   -8.6427 C   0  0  0  0  0  0  0  0  0  0  0  0
   -0.3177  -19.8575  -12.2167 C   0  0  0  0  0  0  0  0  0  0  0  0
   -0.0792  -18.4647  -13.9612 O   0  0  0  0  0  0  0  0  0  0  0  0
   -0.8414  -18.8178  -12.7559 C   0  0  0  0  0  0  0  0  0  0  0  0
   -3.5713  -17.6151  -10.4162 C   0  0  0  0  0  0  0  0  0  0  0  0
   -1.9689  -18.2771  -12.6643 C   0  0  0  0  0  0  0  0  0  0  0  0
   -5.7605  -17.1423   -9.2574 C   0  0  0  0  0  0  0  0  0  0  0  0
  3  1  1  0
  6  2  1  0
  6  4  2  0
  7  5  2  0
  8  4  1  0
  9  5  1  0
 10  3  1  0
 11  4  1  0
 13 11  2  0
 13 12  1  0
 14  1  1  0
 14  2  1  0
 15  2  2  0
 15  5  1  0
 15 13  1  0
 16  3  1  0
 16 10  1  0
M  END
>  <ID>  (1) 
conformer_0

$$$$
