
     RDKit          3D

 16 16  0  0  0  0  0  0  0  0999 V2000
   -4.4746  -15.9549   -9.2632 C   0  0  0  0  0  0  0  0  0  0  0  0
   -1.8881  -18.1486  -12.5731 C   0  0  0  0  0  0  0  0  0  0  0  0
   -6.4847  -15.8999   -8.8463 C   0  0  0  0  0  0  0  0  0  0  0  0
   -1.7464  -19.0048  -10.3972 C   0  0  0  0  0  0  0  0  0  0  0  0
   -0.7490  -20.0300  -10.7500 C   0  0  0  0  0  0  0  0  0  0  0  0
   -0.2776  -21.0841  -10.1020 O   0  0  0  0  0  0  0  0  0  0  0  0
   -3.9981  -16.9798  -10.4739 C   0  0  0  0  0  0  0  0  0  0  0  0
   -2.9548  -16.0142  -12.9849 O   0  0  0  0  0  0  0  0  0  0  0  0
   -2.8200  -17.4649  -14.9376 O   0  0  0  0  0  0  0  0  0  0  0  0
   -2.6871  -17.0935  -13.4048 C   0  0  0  0  0  0  0  0  0  0  0  0
   -0.3139  -18.3492  -14.0874 O   0  0  0  0  0  0  0  0  0  0  0  0
   -0.3199  -19.5649  -12.1283 C   0  0  0  0  0  0  0  0  0  0  0  0
   -0.8752  -18.7322  -12.7965 C   0  0  0  0  0  0  0  0  0  0  0  0
   -3.1457  -17.4674   -9.9668 C   0  0  0  0  0  0  0  0  0  0  0  0
   -2.3578  -18.1672  -11.3232 C   0  0  0  0  0  0  0  0  0  0  0  0
   -5.7495  -16.9516   -9.1198 C   0  0  0  0  0  0  0  0  0  0  0  0
  5  4  1  0
  6  5  1  0
  7  1  1  0
 10  2  1  0
 10  8  2  0
 10  9  1  0
 12  5  2  0
 13  2  2  0
 13 11  1  0
 13 12  1  0
 14  7  1  0
 15  2  1  0
 15  4  2  0
 15 14  1  0
 16  1  1  0
 16  3  1  0
M  END
>  <ID>  (1) 
conformer_0

$$$$
