
     RDKit          3D

  9  8  0  0  0  0  0  0  0  0999 V2000
   -2.2267  -18.1974  -12.1944 C   0  0  0  0  0  0  0  0  0  0  0  0
   -5.7479  -16.5100   -9.0939 C   0  0  0  0  0  0  0  0  0  0  0  0
   -4.4566  -16.6192   -9.5357 C   0  0  0  0  0  0  0  0  0  0  0  0
   -0.7848  -19.2583  -12.1705 C   0  0  0  0  0  0  0  0  0  0  0  0
   -2.1890  -18.7998  -10.7371 C   0  0  0  0  0  0  0  0  0  0  0  0
   -3.2915  -16.0530  -12.8203 O   0  0  0  0  0  0  0  0  0  0  0  0
   -3.2074  -16.8849  -12.7350 C   0  0  0  0  0  0  0  0  0  0  0  0
   -0.4853  -19.1501  -11.8728 C   0  0  0  0  0  0  0  0  0  0  0  0
   -4.0613  -17.2894  -10.4245 C   0  0  0  0  0  0  0  0  0  0  0  0
  3  2  2  3
  4  1  1  0
  5  1  2  3
  7  1  1  0
  7  6  2  0
  8  4  2  3
  9  3  1  0
  9  5  1  0
M  END
>  <ID>  (1) 
conformer_0

$$$$
