
     RDKit          3D

 16 16  0  0  0  0  0  0  0  0999 V2000
   -3.3699  -17.0119   -9.5204 C   0  0  0  0  0  0  0  0  0  0  0  0
   -2.5648  -18.4203  -11.0853 C   0  0  0  0  0  0  0  0  0  0  0  0
   -4.7311  -15.9762   -9.1835 C   0  0  0  0  0  0  0  0  0  0  0  0
   -1.6658  -19.1249  -10.3473 C   0  0  0  0  0  0  0  0  0  0  0  0
   -0.8100  -20.0528  -11.0414 C   0  0  0  0  0  0  0  0  0  0  0  0
   -0.1207  -20.9666  -10.4416 O   0  0  0  0  0  0  0  0  0  0  0  0
   -2.9363  -15.9562  -12.8624 O   0  0  0  0  0  0  0  0  0  0  0  0
   -2.7209  -17.3441  -14.6069 O   0  0  0  0  0  0  0  0  0  0  0  0
   -2.6118  -16.9523  -13.4443 C   0  0  0  0  0  0  0  0  0  0  0  0
   -3.7087  -17.4893  -10.7472 C   0  0  0  0  0  0  0  0  0  0  0  0
   -0.4748  -19.5917  -12.3917 C   0  0  0  0  0  0  0  0  0  0  0  0
   -0.6455  -18.1608  -13.9992 O   0  0  0  0  0  0  0  0  0  0  0  0
   -1.1171  -18.6519  -12.8793 C   0  0  0  0  0  0  0  0  0  0  0  0
   -5.8410  -16.8390   -9.1774 C   0  0  0  0  0  0  0  0  0  0  0  0
   -2.2700  -18.2939  -12.3701 C   0  0  0  0  0  0  0  0  0  0  0  0
   -6.7832  -15.7319   -8.6878 C   0  0  0  0  0  0  0  0  0  0  0  0
  3  1  1  0
  4  2  2  0
  5  4  1  0
  6  5  1  0
  9  7  2  0
  9  8  1  0
 10  1  1  0
 10  2  1  0
 11  5  2  0
 13 11  1  0
 13 12  1  0
 14  3  1  0
 15  2  1  0
 15  9  1  0
 15 13  2  0
 16 14  1  0
M  END
>  <ID>  (1) 
conformer_0

$$$$
