
     RDKit          3D

 16 17  0  0  0  0  0  0  0  0999 V2000
   -1.4689  -19.1125  -10.2512 C   0  0  0  0  0  3  0  0  0  0  0  0
   -5.9117  -17.0686   -9.2830 C   0  0  0  0  0  0  0  0  0  0  0  0
   -4.8319  -16.3570   -9.2625 C   0  0  0  0  0  0  0  0  0  0  0  0
   -2.4244  -18.1751  -10.9184 C   0  0  0  0  0  0  0  0  0  0  0  0
   -0.7054  -19.9378  -10.9085 C   0  0  0  0  0  0  0  0  0  0  0  0
   -2.9725  -15.9933  -12.9495 O   0  0  0  0  0  0  0  0  0  0  0  0
   -2.6223  -17.4825  -14.7386 O   0  0  0  0  0  0  0  0  0  0  0  0
   -6.8710  -16.0029   -8.7299 C   0  0  0  0  0  0  0  0  0  0  0  0
   -0.1586  -20.9881  -10.2490 O   0  0  0  0  0  0  0  0  0  0  0  0
   -2.7391  -16.9271  -13.2165 C   0  0  0  0  0  0  0  0  0  0  0  0
   -0.3139  -19.5377  -12.3883 C   0  0  0  0  0  0  0  0  0  0  0  0
   -0.4415  -18.2710  -14.1597 O   0  0  0  0  0  0  0  0  0  0  0  0
   -1.1613  -18.4924  -12.8535 C   0  0  0  0  0  0  0  0  0  0  0  0
   -3.9098  -17.3443  -10.8172 C   0  0  0  0  0  0  0  0  0  0  0  0
   -2.0008  -18.2070  -12.2547 C   0  0  0  0  0  0  0  0  0  0  0  0
   -3.1249  -17.2235   -9.7069 C   0  0  0  0  0  0  0  0  0  0  0  0
  3  2  1  0
  4  1  1  0
  5  1  1  0
  8  2  1  0
  9  5  1  0
 10  6  2  0
 10  7  1  0
 11  5  2  0
 13 11  1  0
 13 12  1  0
 14  4  1  0
 15  4  1  0
 15 10  1  0
 15 13  2  0
 16  3  1  0
 16  4  1  0
 16 14  1  0
M  RAD  1   1   2
M  END
>  <ID>  (1) 
conformer_0

$$$$
