
     RDKit          3D

 16 16  0  0  0  0  0  0  0  0999 V2000
   -2.5180  -18.3196  -11.2650 C   0  0  0  0  0  0  0  0  0  0  0  0
   -3.6771  -17.1388   -9.7177 C   0  0  0  0  0  0  0  0  0  0  0  0
   -3.6940  -17.4819  -11.0430 C   0  0  0  0  0  0  0  0  0  0  0  0
   -1.8803  -19.2138  -10.4803 C   0  0  0  0  0  0  0  0  0  0  0  0
   -0.7348  -18.7736  -12.8252 C   0  0  0  0  0  0  0  0  0  0  0  0
   -0.3151  -20.8812   -9.9224 O   0  0  0  0  0  0  0  0  0  0  0  0
   -2.7176  -15.8154  -13.0221 O   0  0  0  0  0  0  0  0  0  0  0  0
    0.1273  -18.6231  -13.9583 O   0  0  0  0  0  0  0  0  0  0  0  0
   -4.7880  -16.2682   -9.3705 C   0  0  0  0  0  0  0  0  0  0  0  0
   -2.3758  -17.6076  -14.4722 O   0  0  0  0  0  0  0  0  0  0  0  0
   -2.5122  -16.9969  -13.4039 C   0  0  0  0  0  0  0  0  0  0  0  0
   -0.2149  -19.8657  -11.9784 C   0  0  0  0  0  0  0  0  0  0  0  0
   -0.8622  -20.0219  -10.9043 C   0  0  0  0  0  0  0  0  0  0  0  0
   -6.0591  -16.5212   -9.0294 C   0  0  0  0  0  0  0  0  0  0  0  0
   -7.0991  -15.5899   -8.8180 C   0  0  0  0  0  0  0  0  0  0  0  0
   -1.8393  -18.3373  -12.4520 C   0  0  0  0  0  0  0  0  0  0  0  0
  3  1  1  0
  3  2  1  0
  4  1  2  0
  8  5  1  0
  9  2  1  0
 11  7  2  0
 11 10  1  0
 12  5  1  0
 13  4  1  0
 13  6  1  0
 13 12  2  0
 14  9  2  3
 15 14  1  0
 16  1  1  0
 16  5  2  0
 16 11  1  0
M  END
>  <ID>  (1) 
conformer_0

$$$$
