
     RDKit          3D

 16 16  0  0  0  0  0  0  0  0999 V2000
   -2.5594  -18.2667  -11.4017 C   0  0  0  0  0  0  0  0  0  0  0  0
   -6.0992  -17.0558   -9.1974 C   0  0  0  0  0  0  0  0  0  0  0  0
   -6.7927  -15.7555   -8.6551 C   0  0  0  0  0  0  0  0  0  0  0  0
   -1.9297  -18.9289  -10.4706 C   0  0  0  0  0  0  0  0  0  0  0  0
   -0.7601  -19.7742  -10.7573 C   0  0  0  0  0  0  0  0  0  0  0  0
   -2.8809  -16.2664  -13.2812 O   0  0  0  0  0  0  0  0  0  0  0  0
   -0.1393  -20.6402   -9.9312 O   0  0  0  0  0  0  0  0  0  0  0  0
   -0.0035  -18.6428  -14.1071 O   0  0  0  0  0  0  0  0  0  0  0  0
   -0.2733  -19.4918  -11.9280 C   0  0  0  0  0  0  0  0  0  0  0  0
   -2.5532  -17.2750  -13.4822 C   0  0  0  0  0  0  0  0  0  0  0  0
   -4.8802  -16.3735   -9.2535 C   0  0  0  0  0  0  0  0  0  0  0  0
   -2.5094  -17.8266  -14.7439 O   0  0  0  0  0  0  0  0  0  0  0  0
   -4.3049  -17.5483  -10.7071 C   0  0  0  0  0  0  0  0  0  0  0  0
   -1.9155  -18.2441  -12.6085 C   0  0  0  0  0  0  0  0  0  0  0  0
   -0.7077  -18.8060  -12.8435 C   0  0  0  0  0  0  0  0  0  0  0  0
   -3.3032  -17.3589   -9.8018 C   0  0  0  0  0  0  0  0  0  0  0  0
  3  2  1  0
  4  1  2  0
  5  4  1  0
  7  5  1  0
  9  5  2  0
 10  6  2  0
 11  2  1  0
 12 10  1  0
 14  1  1  0
 14 10  1  0
 15  8  1  0
 15  9  1  0
 15 14  2  0
 16  1  1  0
 16 11  1  0
 16 13  1  0
M  END
>  <ID>  (1) 
conformer_0

$$$$
