
     RDKit          3D

 16 16  0  0  0  0  0  0  0  0999 V2000
   -3.9935  -17.0053   -9.6448 C   0  0  0  0  0  0  0  0  0  0  0  0
    0.0606  -19.4286  -11.8041 C   0  0  0  0  0  0  0  0  0  0  0  0
   -6.2887  -16.0066   -8.8678 C   0  0  0  0  0  0  0  0  0  0  0  0
   -0.5423  -19.1447  -12.7413 C   0  0  0  0  0  0  0  0  0  0  0  0
   -3.6024  -16.0062  -12.7350 O   0  0  0  0  0  0  0  0  0  0  0  0
   -1.9973  -18.3210  -12.1523 C   0  0  0  0  0  0  0  0  0  0  0  0
   -0.1179  -20.5612   -9.7533 O   0  0  0  0  0  0  0  0  0  0  0  0
   -4.1004  -17.4872  -10.7292 C   0  0  0  0  0  0  0  0  0  0  0  0
   -2.6137  -17.4252  -14.4970 O   0  0  0  0  0  0  0  0  0  0  0  0
   -0.8030  -19.7055  -10.5411 C   0  0  0  0  0  0  0  0  0  0  0  0
   -0.4576  -18.3130  -14.0310 O   0  0  0  0  0  0  0  0  0  0  0  0
   -3.2445  -16.7298  -12.9779 C   0  0  0  0  0  0  0  0  0  0  0  0
   -2.8104  -18.2301  -11.1209 C   0  0  0  0  0  0  0  0  0  0  0  0
   -5.3933  -16.6604   -9.2326 C   0  0  0  0  0  0  0  0  0  0  0  0
   -1.8162  -19.2472  -10.3366 C   0  0  0  0  0  0  0  0  0  0  0  0
   -1.7491  -18.0621  -12.9378 C   0  0  0  0  0  0  0  0  0  0  0  0
  4  2  2  0
  8  1  1  0
 10  2  1  0
 10  7  1  0
 11  4  1  0
 12  5  2  0
 12  9  1  0
 13  6  1  0
 13  8  1  0
 14  1  1  0
 14  3  3  0
 15 10  1  0
 15 13  2  0
 16  4  1  0
 16  6  2  0
 16 12  1  0
M  END
>  <ID>  (1) 
conformer_0

$$$$
