
     RDKit          3D

 16 16  0  0  0  0  0  0  0  0999 V2000
   -2.2169  -18.4038  -11.4207 C   0  0  0  0  0  0  0  0  0  0  0  0
   -6.6022  -15.8164   -8.7829 C   0  0  0  0  0  0  0  0  0  0  0  0
   -5.9151  -16.7634   -9.1927 C   0  0  0  0  0  0  0  0  0  0  0  0
   -4.2797  -17.2685  -10.3845 C   0  0  0  0  0  0  0  0  0  0  0  0
   -1.8455  -19.5697  -10.6642 C   0  0  0  0  0  0  0  0  0  0  0  0
   -2.7336  -17.0218  -13.2462 C   0  0  0  0  0  0  0  0  0  0  0  0
   -0.2923  -18.9381  -12.9056 C   0  0  0  0  0  0  0  0  0  0  0  0
   -2.9359  -15.9848  -12.8091 O   0  0  0  0  0  0  0  0  0  0  0  0
   -2.7878  -17.5540  -14.5803 O   0  0  0  0  0  0  0  0  0  0  0  0
   -0.1632  -19.7214  -12.1543 C   0  0  0  0  0  0  0  0  0  0  0  0
    0.2429  -20.9494  -10.4519 O   0  0  0  0  0  0  0  0  0  0  0  0
    0.9351  -19.2513  -14.1451 Cl  0  0  0  0  0  0  0  0  0  0  0  0
   -3.2851  -17.6869  -10.5134 C   0  0  0  0  0  0  0  0  0  0  0  0
   -0.6341  -20.1425  -11.1652 C   0  0  0  0  0  0  0  0  0  0  0  0
   -1.5804  -18.3140  -12.7997 C   0  0  0  0  0  0  0  0  0  0  0  0
   -4.3226  -16.1156   -9.2964 C   0  0  0  0  0  0  0  0  0  0  0  0
  3  2  1  0
  5  1  2  0
  8  6  2  0
  9  6  1  0
 10  7  1  0
 12  7  1  0
 13  1  1  0
 13  4  1  0
 14  5  1  0
 14 10  2  0
 14 11  1  0
 15  1  1  0
 15  6  1  0
 15  7  2  0
 16  3  1  0
 16  4  1  0
M  END
>  <ID>  (1) 
conformer_0

$$$$
