
     RDKit          3D

 19 21  0  0  0  0  0  0  0  0999 V2000
   43.8585   40.8346   82.3352 C   0  0  0  0  0  0  0  0  0  0  0  0
   43.8188   40.0180   83.2265 C   0  0  0  0  0  0  0  0  0  0  0  0
   44.2513   38.7045   82.9969 C   0  0  0  0  0  0  0  0  0  0  0  0
   44.1297   40.4473   80.9167 C   0  0  0  0  0  0  0  0  0  0  0  0
   44.3421   37.6800   84.0339 N   0  0  0  0  0  0  0  0  0  0  0  0
   44.9581   36.4999   83.8343 C   0  0  0  0  0  0  0  0  0  0  0  0
   44.2051   38.0519   85.3793 C   0  0  0  0  0  0  0  0  0  0  0  0
   44.1020   41.4737   80.0076 C   0  0  0  0  0  0  0  0  0  0  0  0
   44.4376   36.9436   86.1658 C   0  0  0  0  0  0  0  0  0  0  0  0
   45.0234   35.8357   85.1247 C   0  0  0  0  0  0  0  0  0  0  0  0
   45.2657   35.8855   82.7071 C   0  0  0  0  0  0  0  0  0  0  0  0
   45.5722   37.1326   87.2239 C   0  0  0  0  0  0  0  0  0  0  0  0
   44.5689   38.3491   81.6772 C   0  0  0  0  0  0  0  0  0  0  0  0
   45.0473   36.8752   81.4468 C   0  0  0  0  0  0  0  0  0  0  0  0
   45.7324   36.1960   88.1292 O   0  0  0  0  0  0  0  0  0  0  0  0
   44.4998   39.1904   80.6795 C   0  0  0  0  0  0  0  0  0  0  0  0
   46.2029   38.1052   87.1720 O   0  0  0  0  0  0  0  0  0  0  0  0
   45.8854   36.6537   80.4959 O   0  0  0  0  0  0  0  0  0  0  0  0
   43.2676   36.2752   86.7823 C   0  0  0  0  0  0  0  0  0  0  0  0
  1  2  2  0
  2  3  1  0
  1  4  1  0
  3  5  1  0
  5  6  1  0
  5  7  1  0
  4  8  1  0
  7  9  1  0
  6 10  1  0
  9 10  1  0
  6 11  2  0
  9 12  1  0
  3 13  2  0
 11 14  1  0
 13 14  1  0
 12 15  2  0
  4 16  2  0
 13 16  1  0
 12 17  1  0
 14 18  2  0
  9 19  1  0
M  END
>  <ID>  (1) 
conformer_0

$$$$
