
     RDKit          3D

 19 21  0  0  0  0  0  0  0  0999 V2000
   46.4398   35.8014   80.4678 N   0  0  0  0  0  0  0  0  0  0  0  0
   45.9973   36.1691   81.5459 C   0  0  0  0  0  0  0  0  0  0  0  0
   45.1075   37.3080   81.5982 C   0  0  0  0  0  0  0  0  0  0  0  0
   44.5920   37.8434   82.7735 C   0  0  0  0  0  0  0  0  0  0  0  0
   43.7047   39.0374   82.6005 C   0  0  0  0  0  0  0  0  0  0  0  0
   44.6148   37.1561   83.9155 N   0  0  0  0  0  0  0  0  0  0  0  0
   46.0362   35.4716   82.8415 N   0  0  0  0  0  0  0  0  0  0  0  0
   45.4396   36.0262   83.9110 C   0  0  0  0  0  0  0  0  0  0  0  0
   43.0454   39.5530   83.6847 C   0  0  0  0  0  0  0  0  0  0  0  0
   42.4694   40.8955   83.2690 C   0  0  0  0  0  0  0  0  0  0  0  0
   45.5417   35.3274   85.2262 C   0  0  0  0  0  0  0  0  0  0  0  0
   46.3826   35.8086   86.1908 O   0  0  0  0  0  0  0  0  0  0  0  0
   43.9919   39.7635   81.4315 C   0  0  0  0  0  0  0  0  0  0  0  0
   45.8634   36.5314   79.5330 C   0  0  0  0  0  0  0  0  0  0  0  0
   43.4292   40.9622   81.3935 C   0  0  0  0  0  0  0  0  0  0  0  0
   43.7039   41.6869   80.1132 C   0  0  0  0  0  0  0  0  0  0  0  0
   42.6924   41.5467   82.2776 N   0  0  0  0  0  0  0  0  0  0  0  0
   46.1335   36.4369   78.1264 C   0  0  0  0  0  0  0  0  0  0  0  0
   45.2261   37.6167   80.1256 N   0  0  0  0  0  0  0  0  0  0  0  0
  1  2  1  0
  2  3  2  0
  3  4  1  0
  4  5  1  0
  4  6  2  0
  2  7  1  0
  6  8  1  0
  7  8  2  0
  5  9  2  0
  9 10  1  0
  8 11  1  0
 11 12  1  0
  5 13  1  0
  1 14  2  0
 13 15  2  0
 15 16  1  0
 10 17  2  0
 15 17  1  0
 14 18  1  0
  3 19  1  0
 14 19  1  0
M  END
>  <ID>  (1) 
conformer_0

$$$$
