
     RDKit          3D

 18 20  0  0  0  0  0  0  0  0999 V2000
   43.8585   40.8346   82.3352 C   0  0  0  0  0  0  0  0  0  0  0  0
   44.2278   39.7364   81.6341 C   0  0  0  0  0  0  0  0  0  0  0  0
   44.3960   38.5812   82.3361 C   0  0  0  0  0  0  0  0  0  0  0  0
   44.3057   38.6637   83.7369 C   0  0  0  0  0  0  0  0  0  0  0  0
   44.5727   37.3278   84.4104 N   0  0  0  0  0  0  0  0  0  0  0  0
   44.9115   37.4043   81.7174 C   0  0  0  0  0  0  0  0  0  0  0  0
   45.3982   36.4543   83.7488 C   0  0  0  0  0  0  0  0  0  0  0  0
   43.7459   37.0113   85.5302 C   0  0  0  0  0  0  0  0  0  0  0  0
   45.3535   36.3345   82.4367 C   0  0  0  0  0  0  0  0  0  0  0  0
   45.1332   35.0883   84.4542 C   0  0  0  0  0  0  0  0  0  0  0  0
   44.3920   35.4840   85.7719 C   0  0  0  0  0  0  0  0  0  0  0  0
   42.8834   37.5195   86.0146 O   0  0  0  0  0  0  0  0  0  0  0  0
   45.2508   35.6356   86.9946 C   0  0  0  0  0  0  0  0  0  0  0  0
   44.3987   39.7341   80.2496 C   0  0  0  0  0  0  0  0  0  0  0  0
   44.2054   40.8636   79.5784 O   0  0  0  0  0  0  0  0  0  0  0  0
   44.8368   37.4424   80.3283 C   0  0  0  0  0  0  0  0  0  0  0  0
   44.6184   38.5548   79.6727 N   0  0  0  0  0  0  0  0  0  0  0  0
   46.2791   35.5764   81.7764 O   0  0  0  0  0  0  0  0  0  0  0  0
  1  2  1  0
  2  3  2  0
  3  4  1  0
  4  5  1  0
  3  6  1  0
  5  7  1  0
  5  8  1  0
  6  9  1  0
  7  9  1  0
  7 10  1  0
  8 11  1  0
 10 11  1  0
  8 12  2  0
 11 13  1  0
  2 14  1  0
 14 15  2  0
  6 16  2  0
 14 17  1  0
 16 17  1  0
  9 18  1  0
M  END
>  <ID>  (1) 
conformer_0

$$$$
