
     RDKit          3D

 23 27  0  0  0  0  0  0  0  0999 V2000
   46.4398   35.8014   80.4678 N   0  0  0  0  0  0  0  0  0  0  0  0
   45.9973   36.1691   81.5459 C   0  0  0  0  0  0  0  0  0  0  0  0
   46.2792   35.6102   82.7913 N   0  0  0  0  0  0  0  0  0  0  0  0
   44.8453   37.1880   81.6392 C   0  0  0  0  0  0  0  0  0  0  0  0
   45.5855   36.0263   83.8100 C   0  0  0  0  0  0  0  0  0  0  0  0
   46.0173   36.3218   79.2820 C   0  0  0  0  0  0  0  0  0  0  0  0
   44.2481   37.5760   82.6942 C   0  0  0  0  0  0  0  0  0  0  0  0
   44.6873   37.8216   80.4895 C   0  0  0  0  0  0  0  0  0  0  0  0
   43.2475   38.5605   82.7800 C   0  0  0  0  0  0  0  0  0  0  0  0
   44.6185   36.8902   83.9073 C   0  0  0  0  0  0  0  0  0  0  0  0
   46.1769   35.3177   85.0517 N   0  0  0  0  0  0  0  0  0  0  0  0
   44.0327   37.1321   85.2303 C   0  0  0  0  0  0  0  0  0  0  0  0
   43.7824   38.9745   80.4158 C   0  0  0  0  0  0  0  0  0  0  0  0
   45.4181   35.3909   86.1595 C   0  0  0  0  0  0  0  0  0  0  0  0
   42.9085   37.9194   85.3507 C   0  0  0  0  0  0  0  0  0  0  0  0
   42.6941   38.7816   84.0845 C   0  0  0  0  0  0  0  0  0  0  0  0
   44.4878   36.3072   86.3276 C   0  0  0  0  0  0  0  0  0  0  0  0
   43.2182   39.3885   81.7512 C   0  0  0  0  0  0  0  0  0  0  0  0
   45.1738   37.3684   79.2294 C   0  0  0  0  0  0  0  0  0  0  0  0
   46.0640   34.8110   87.1184 O   0  0  0  0  0  0  0  0  0  0  0  0
   42.6155   40.0769   84.3537 O   0  0  0  0  0  0  0  0  0  0  0  0
   42.9833   38.6660   86.5299 O   0  0  0  0  0  0  0  0  0  0  0  0
   46.6578   35.7660   78.0972 O   0  0  0  0  0  0  0  0  0  0  0  0
  1  2  2  0
  2  3  1  0
  2  4  1  0
  3  5  2  0
  1  6  1  0
  4  7  1  0
  4  8  2  0
  7  9  1  0
  5 10  1  0
  7 10  2  0
  5 11  1  0
 10 12  1  0
  8 13  1  0
 11 14  1  0
 12 15  1  0
  9 16  1  0
 15 16  1  0
 12 17  2  0
 14 17  1  0
  9 18  2  0
 13 18  1  0
  6 19  2  0
  8 19  1  0
 14 20  2  0
 16 21  1  0
 15 22  1  0
  6 23  1  0
M  END
>  <ID>  (1) 
conformer_0

$$$$
