
     RDKit          3D

 22 24  0  0  0  0  0  0  0  0999 V2000
   47.0551   35.8325   84.6668 O   0  0  0  0  0  0  0  0  0  0  0  0
   46.0188   36.0231   84.0866 C   0  0  0  0  0  0  0  0  0  0  0  0
   45.2974   37.1838   84.0031 N   0  0  0  0  0  0  0  0  0  0  0  0
   44.2109   37.3399   83.1320 C   0  0  0  0  0  0  0  0  0  0  0  0
   45.3522   34.8769   83.3132 C   0  0  0  0  0  0  0  0  0  0  0  0
   44.0607   38.5818   82.5099 C   0  0  0  0  0  0  0  0  0  0  0  0
   43.0648   37.0883   83.8550 C   0  0  0  0  0  0  0  0  0  0  0  0
   45.1339   35.3174   81.8688 C   0  0  0  0  0  0  0  0  0  0  0  0
   43.5648   39.6006   83.1705 C   0  0  0  0  0  0  0  0  0  0  0  0
   42.1519   38.0490   84.2488 C   0  0  0  0  0  0  0  0  0  0  0  0
   44.4461   36.4792   81.8799 C   0  0  0  0  0  0  0  0  0  0  0  0
   44.4294   37.2552   80.6730 C   0  0  0  0  0  0  0  0  0  0  0  0
   44.7380   36.9331   79.4143 C   0  0  0  0  0  0  0  0  0  0  0  0
   45.6856   36.1532   78.9792 C   0  0  0  0  0  0  0  0  0  0  0  0
   40.9761   37.8069   85.0468 C   0  0  0  0  0  0  0  0  0  0  0  0
   40.9230   38.3464   86.1927 O   0  0  0  0  0  0  0  0  0  0  0  0
   46.7131   35.7906   79.8142 O   0  0  0  0  0  0  0  0  0  0  0  0
   42.5690   39.4539   84.0242 C   0  0  0  0  0  0  0  0  0  0  0  0
   43.7940   40.9342   82.5343 C   0  0  0  0  0  0  0  0  0  0  0  0
   41.6679   40.4419   84.1677 O   0  0  0  0  0  0  0  0  0  0  0  0
   46.0143   35.5470   77.7197 C   0  0  0  0  0  0  0  0  0  0  0  0
   44.4909   38.5183   81.2061 C   0  0  0  0  0  0  0  0  0  0  0  0
  1  2  2  0
  2  3  1  0
  3  4  1  0
  2  5  1  0
  4  6  1  0
  4  7  1  0
  5  8  1  0
  6  9  2  0
  7 10  2  0
  4 11  1  0
  8 11  1  0
 11 12  1  0
 12 13  1  0
 13 14  2  3
 10 15  1  0
 15 16  1  0
 14 17  1  0
  9 18  1  0
 10 18  1  0
  9 19  1  0
 18 20  2  0
 14 21  1  0
  6 22  1  0
 12 22  2  0
M  END
>  <ID>  (1) 
conformer_0

$$$$
