
     RDKit          3D

 16 17  0  0  0  0  0  0  0  0999 V2000
   46.4398   35.8014   80.4678 N   0  0  0  0  0  0  0  0  0  0  0  0
   45.9973   36.1691   81.5459 C   0  0  0  0  0  0  0  0  0  0  0  0
   45.8805   36.2272   79.2888 C   0  0  0  0  0  0  0  0  0  0  0  0
   46.3460   35.6994   82.8124 N   0  0  0  0  0  0  0  0  0  0  0  0
   46.3257   35.7806   78.0588 N   0  0  0  0  0  0  0  0  0  0  0  0
   44.9027   37.1216   81.6825 C   0  0  0  0  0  0  0  0  0  0  0  0
   44.5425   37.4233   82.9717 C   0  0  0  0  0  0  0  0  0  0  0  0
   44.8456   37.1614   79.2594 N   0  0  0  0  0  0  0  0  0  0  0  0
   44.9607   36.9396   84.0861 N   0  0  0  0  0  0  0  0  0  0  0  0
   44.3770   37.6531   80.4810 C   0  0  0  0  0  0  0  0  0  0  0  0
   45.9289   36.0471   83.9406 C   0  0  0  0  0  0  0  0  0  0  0  0
   43.4364   38.4955   83.0546 N   0  0  0  0  0  0  0  0  0  0  0  0
   44.4596   38.9895   80.6491 O   0  0  0  0  0  0  0  0  0  0  0  0
   42.3648   38.1298   83.9560 C   0  0  0  0  0  0  0  0  0  0  0  0
   43.4835   39.6822   82.4212 C   0  0  0  0  0  0  0  0  0  0  0  0
   46.4803   35.4793   85.2345 N   0  0  0  0  0  0  0  0  0  0  0  0
  1  2  1  0
  1  3  2  0
  2  4  1  0
  3  5  1  0
  2  6  2  0
  6  7  1  0
  3  8  1  0
  7  9  2  0
  6 10  1  0
  8 10  1  0
  4 11  2  0
  9 11  1  0
  7 12  1  0
 10 13  2  0
 12 14  1  0
 12 15  1  0
 11 16  1  0
M  END
>  <ID>  (1) 
conformer_0

$$$$
