
     RDKit          3D

 23 26  0  0  0  0  0  0  0  0999 V2000
   46.9379   35.7251   85.7813 O   0  0  0  0  0  0  0  0  0  0  0  0
   45.7531   36.0013   85.9568 C   0  0  0  0  0  0  0  0  0  0  0  0
   44.8952   36.2137   84.9694 N   0  0  0  0  0  0  0  0  0  0  0  0
   45.3439   36.2225   83.6398 C   0  0  0  0  0  0  0  0  0  0  0  0
   43.7020   36.8314   85.3784 C   0  0  0  0  0  0  0  0  0  0  0  0
   42.8213   37.3464   84.3333 C   0  0  0  0  0  0  0  0  0  0  0  0
   43.4260   37.5934   83.0423 C   0  0  0  0  0  0  0  0  0  0  0  0
   44.8112   37.3656   82.8828 C   0  0  0  0  0  0  0  0  0  0  0  0
   42.1034   38.5932   84.7729 C   0  0  0  0  0  0  0  0  0  0  0  0
   43.2475   39.0737   82.7360 N   0  0  0  0  0  0  0  0  0  0  0  0
   43.9056   39.7189   81.7303 C   0  0  0  0  0  0  0  0  0  0  0  0
   41.2362   38.6655   85.7070 O   0  0  0  0  0  0  0  0  0  0  0  0
   45.0955   37.3804   81.3447 C   0  0  0  0  0  0  0  0  0  0  0  0
   45.6929   36.3840   80.7948 C   0  0  0  0  0  0  0  0  0  0  0  0
   42.4577   39.5796   83.8368 N   0  0  0  0  0  0  0  0  0  0  0  0
   46.3560   35.3675   81.4641 O   0  0  0  0  0  0  0  0  0  0  0  0
   44.5140   38.5648   80.7950 C   0  0  0  0  0  0  0  0  0  0  0  0
   45.9098   36.3095   79.3882 C   0  0  0  0  0  0  0  0  0  0  0  0
   43.3320   40.6836   81.2520 O   0  0  0  0  0  0  0  0  0  0  0  0
   45.8476   34.9886   82.7421 C   0  0  0  0  0  0  0  0  0  0  0  0
   45.1597   36.8889   78.4493 O   0  0  0  0  0  0  0  0  0  0  0  0
   46.7063   35.4612   78.9079 O   0  0  0  0  0  0  0  0  0  0  0  0
   45.4196   36.1513   87.3053 C   0  0  0  0  0  0  0  0  0  0  0  0
  1  2  2  0
  2  3  1  0
  3  4  1  0
  3  5  1  0
  5  6  1  0
  6  7  1  0
  4  8  1  0
  7  8  1  0
  6  9  1  0
  7 10  1  0
 10 11  1  0
  9 12  2  0
  8 13  1  0
 13 14  2  0
  9 15  1  0
 10 15  1  0
 14 16  1  0
 11 17  1  0
 13 17  1  0
 14 18  1  0
 11 19  1  0
  4 20  1  0
 16 20  1  0
 18 21  1  0
 18 22  2  0
  2 23  1  0
M  END
>  <ID>  (1) 
conformer_0

$$$$
