
     RDKit          3D

 15 17  0  0  0  0  0  0  0  0999 V2000
   46.4398   35.8014   80.4678 N   0  0  0  0  0  0  0  0  0  0  0  0
   45.5377   36.6654   80.1001 C   0  0  0  0  0  0  0  0  0  0  0  0
   44.9948   37.3869   81.0714 C   0  0  0  0  0  0  0  0  0  0  0  0
   45.1244   37.0155   82.3953 C   0  0  0  0  0  0  0  0  0  0  0  0
   44.5205   37.6058   83.5331 C   0  0  0  0  0  0  0  0  0  0  0  0
   44.0459   38.5071   80.7988 C   0  0  0  0  0  0  0  0  0  0  0  0
   46.2794   36.0666   82.5427 N   0  0  0  0  0  0  0  0  0  0  0  0
   46.4420   35.6686   84.0221 C   0  0  0  0  0  0  0  0  0  0  0  0
   45.4362   35.7616   84.9180 C   0  0  0  0  0  0  0  0  0  0  0  0
   45.6787   35.4941   86.2663 C   0  0  0  0  0  0  0  0  0  0  0  0
   45.3913   36.7500   78.6319 N   0  0  0  0  0  0  0  0  0  0  0  0
   43.8100   38.7275   83.2761 C   0  0  0  0  0  0  0  0  0  0  0  0
   43.6095   39.1856   81.9301 C   0  0  0  0  0  0  0  0  0  0  0  0
   44.8795   37.0859   84.9547 C   0  0  0  0  0  0  0  0  0  0  0  0
   46.7410   35.4398   81.6074 N   0  0  0  0  0  0  0  0  0  0  0  0
  1  2  2  0
  2  3  1  0
  3  4  2  0
  4  5  1  0
  3  6  1  0
  4  7  1  0
  7  8  1  0
  8  9  1  0
  9 10  1  0
  2 11  1  0
  5 12  2  0
  6 13  2  0
 12 13  1  0
  5 14  1  0
  9 14  1  0
  1 15  1  0
  7 15  1  0
M  END
>  <ID>  (1) 
conformer_0

$$$$
