
     RDKit          3D

 24 26  0  0  0  0  0  0  0  0999 V2000
   46.0222   35.2962   82.2874 O   0  0  0  0  0  0  0  0  0  0  0  0
   45.6384   36.3555   81.6968 C   0  0  0  0  0  0  0  0  0  0  0  0
   45.6628   36.4603   80.2816 N   0  0  0  0  0  0  0  0  0  0  0  0
   45.1465   37.4971   79.7029 C   0  0  0  0  0  0  0  0  0  0  0  0
   44.4721   38.4649   80.3501 N   0  0  0  0  0  0  0  0  0  0  0  0
   44.5249   38.2813   81.7802 C   0  0  0  0  0  0  0  0  0  0  0  0
   44.9809   37.3424   82.4028 C   0  0  0  0  0  0  0  0  0  0  0  0
   44.9876   37.2518   83.8680 C   0  0  0  0  0  0  0  0  0  0  0  0
   46.4853   35.5950   79.4987 C   0  0  0  0  0  0  0  0  0  0  0  0
   46.0479   35.5182   78.1115 C   0  0  0  0  0  0  0  0  0  0  0  0
   43.9558   37.5800   84.5127 O   0  0  0  0  0  0  0  0  0  0  0  0
   43.5326   36.7309   85.5955 C   0  0  0  0  0  0  0  0  0  0  0  0
   42.3051   36.3923   85.6221 C   0  0  0  0  0  0  0  0  0  0  0  0
   45.8888   36.7369   77.5576 C   0  0  0  0  0  0  0  0  0  0  0  0
   43.7891   39.4672   82.4548 N   0  0  0  0  0  0  0  0  0  0  0  0
   43.9705   37.3048   86.8695 C   0  0  0  0  0  0  0  0  0  0  0  0
   45.7990   37.0064   76.2495 O   0  0  0  0  0  0  0  0  0  0  0  0
   46.0542   36.8690   84.6150 C   0  0  0  0  0  0  0  0  0  0  0  0
   45.5555   37.7576   78.4443 N   0  0  0  0  0  0  0  0  0  0  0  0
   47.3736   37.2148   84.3944 O   0  0  0  0  0  0  0  0  0  0  0  0
   43.0734   37.2453   87.8913 C   0  0  0  0  0  0  0  0  0  0  0  0
   44.4180   35.4274   85.5284 C   0  0  0  0  0  0  0  0  0  0  0  0
   41.9309   36.6390   87.7094 O   0  0  0  0  0  0  0  0  0  0  0  0
   45.8455   36.0025   85.7194 C   0  0  0  0  0  0  0  0  0  0  0  0
  1  2  2  0
  2  3  1  0
  3  4  1  0
  4  5  2  0
  5  6  1  0
  2  7  1  0
  6  7  2  0
  7  8  1  0
  3  9  1  0
  9 10  1  0
  8 11  1  0
 11 12  1  0
 12 13  1  0
 10 14  1  0
  6 15  1  0
 12 16  1  0
 14 17  2  0
  8 18  2  0
  4 19  1  0
 14 19  1  0
 18 20  1  0
 16 21  1  0
 12 22  1  0
 21 23  2  0
 18 24  1  0
 22 24  1  0
M  END
>  <ID>  (1) 
conformer_0

$$$$
