
     RDKit          3D

 23 24  0  0  0  0  0  0  0  0999 V2000
   47.0878   35.8486   84.6109 O   0  0  0  0  0  0  0  0  0  0  0  0
   45.9766   36.2623   85.1498 C   0  0  0  0  0  0  0  0  0  0  0  0
   45.6802   36.0060   86.3553 N   0  0  0  0  0  0  0  0  0  0  0  0
   45.1174   36.9057   84.2540 C   0  0  0  0  0  0  0  0  0  0  0  0
   44.9269   36.4675   82.9915 C   0  0  0  0  0  0  0  0  0  0  0  0
   44.6348   37.4316   81.9519 C   0  0  0  0  0  0  0  0  0  0  0  0
   44.4797   35.6706   86.7508 C   0  0  0  0  0  0  0  0  0  0  0  0
   45.0772   35.1590   82.5386 C   0  0  0  0  0  0  0  0  0  0  0  0
   44.6555   37.1087   80.6114 C   0  0  0  0  0  0  0  0  0  0  0  0
   44.1217   38.7462   82.3368 C   0  0  0  0  0  0  0  0  0  0  0  0
   45.4734   34.1563   83.4198 F   0  0  0  0  0  0  0  0  0  0  0  0
   45.0138   35.8472   80.2110 C   0  0  0  0  0  0  0  0  0  0  0  0
   45.2174   35.5567   78.8713 N   0  0  0  0  0  0  0  0  0  0  0  0
   43.6427   39.0327   83.5529 C   0  0  0  0  0  0  0  0  0  0  0  0
   43.4787   36.0521   86.1757 O   0  0  0  0  0  0  0  0  0  0  0  0
   43.2900   40.3319   83.9628 C   0  0  0  0  0  0  0  0  0  0  0  0
   43.3233   41.2165   82.7933 C   0  0  0  0  0  0  0  0  0  0  0  0
   44.2373   39.6940   81.3651 C   0  0  0  0  0  0  0  0  0  0  0  0
   45.4123   34.7864   81.0957 C   0  0  0  0  0  0  0  0  0  0  0  0
   44.6951   39.4337   80.0927 O   0  0  0  0  0  0  0  0  0  0  0  0
   44.3554   35.4700   88.2147 C   0  0  0  0  0  0  0  0  0  0  0  0
   43.8009   41.0388   81.6075 C   0  0  0  0  0  0  0  0  0  0  0  0
   46.4350   35.6572   78.2132 O   0  0  0  0  0  0  0  0  0  0  0  0
  1  2  2  0
  2  3  1  0
  2  4  1  0
  4  5  1  0
  5  6  1  0
  3  7  1  0
  5  8  2  0
  6  9  2  0
  6 10  1  0
  8 11  1  0
  9 12  1  0
 12 13  1  0
 10 14  1  0
  7 15  2  0
 14 16  2  0
 16 17  1  0
 10 18  2  0
  8 19  1  0
 12 19  2  0
 18 20  1  0
  7 21  1  0
 17 22  2  0
 18 22  1  0
 13 23  1  0
M  END
>  <ID>  (1) 
conformer_0

$$$$
