
     RDKit          3D

 24 26  0  0  0  0  0  0  0  0999 V2000
   46.4398   35.8014   80.4678 N   0  0  0  0  0  0  0  0  0  0  0  0
   45.9973   36.1691   81.5459 C   0  0  0  0  0  0  0  0  0  0  0  0
   46.2792   35.6102   82.7913 N   0  0  0  0  0  0  0  0  0  0  0  0
   44.8453   37.1880   81.6392 C   0  0  0  0  0  0  0  0  0  0  0  0
   45.5855   36.0263   83.8100 C   0  0  0  0  0  0  0  0  0  0  0  0
   46.0173   36.3218   79.2820 C   0  0  0  0  0  0  0  0  0  0  0  0
   44.2481   37.5760   82.6942 C   0  0  0  0  0  0  0  0  0  0  0  0
   44.6873   37.8216   80.4895 C   0  0  0  0  0  0  0  0  0  0  0  0
   43.2475   38.5605   82.7800 N   0  0  0  0  0  0  0  0  0  0  0  0
   46.0147   35.3093   85.1267 N   0  0  0  0  0  0  0  0  0  0  0  0
   44.6285   36.9101   83.9163 C   0  0  0  0  0  0  0  0  0  0  0  0
   43.6428   39.8713   82.7051 C   0  0  0  0  0  0  0  0  0  0  0  0
   43.9773   37.0202   85.2881 C   0  0  0  0  0  0  0  0  0  0  0  0
   44.2235   40.3412   81.6752 O   0  0  0  0  0  0  0  0  0  0  0  0
   42.7689   37.8250   85.3015 O   0  0  0  0  0  0  0  0  0  0  0  0
   43.4219   40.7143   83.7932 C   0  0  0  0  0  0  0  0  0  0  0  0
   44.2680   36.3680   86.3936 C   0  0  0  0  0  0  0  0  0  0  0  0
   46.5900   35.8845   78.0671 O   0  0  0  0  0  0  0  0  0  0  0  0
   45.1649   37.4481   79.1585 C   0  0  0  0  0  0  0  0  0  0  0  0
   43.5600   36.4969   87.6445 C   0  0  0  0  0  0  0  0  0  0  0  0
   45.4436   35.4865   86.2608 C   0  0  0  0  0  0  0  0  0  0  0  0
   42.8526   35.5539   88.1085 O   0  0  0  0  0  0  0  0  0  0  0  0
   45.8675   35.7626   77.0030 C   0  0  0  0  0  0  0  0  0  0  0  0
   45.8827   34.7444   87.2300 O   0  0  0  0  0  0  0  0  0  0  0  0
  1  2  2  0
  2  3  1  0
  2  4  1  0
  3  5  2  0
  1  6  1  0
  4  7  1  0
  4  8  2  0
  7  9  1  0
  5 10  1  0
  5 11  1  0
  7 11  2  0
  9 12  1  0
 11 13  1  0
 12 14  2  0
 13 15  1  0
 12 16  1  0
 13 17  2  0
  6 18  1  0
  6 19  2  0
  8 19  1  0
 17 20  1  0
 10 21  1  0
 17 21  1  0
 20 22  1  0
 18 23  1  0
 21 24  2  0
M  END
>  <ID>  (1) 
conformer_0

$$$$
