
     RDKit          3D

 19 21  0  0  0  0  0  0  0  0999 V2000
   46.4398   35.8014   80.4678 N   0  0  0  0  0  0  0  0  0  0  0  0
   45.5377   36.6654   80.1001 C   0  0  0  0  0  0  0  0  0  0  0  0
   44.9948   37.3869   81.0714 C   0  0  0  0  0  0  0  0  0  0  0  0
   45.1244   37.0155   82.3953 C   0  0  0  0  0  0  0  0  0  0  0  0
   44.5205   37.6058   83.5331 C   0  0  0  0  0  0  0  0  0  0  0  0
   44.0459   38.5071   80.7988 C   0  0  0  0  0  0  0  0  0  0  0  0
   46.2794   36.0666   82.5427 N   0  0  0  0  0  0  0  0  0  0  0  0
   46.4420   35.6686   84.0221 C   0  0  0  0  0  0  0  0  0  0  0  0
   45.4362   35.7616   84.9180 C   0  0  0  0  0  0  0  0  0  0  0  0
   45.6787   35.4941   86.2663 C   0  0  0  0  0  0  0  0  0  0  0  0
   43.9565   39.5390   81.8096 C   0  0  0  0  0  0  0  0  0  0  0  0
   43.7608   38.9330   83.1771 C   0  0  0  0  0  0  0  0  0  0  0  0
   44.7950   34.9971   87.1032 O   0  0  0  0  0  0  0  0  0  0  0  0
   45.3872   36.9291   78.7475 N   0  0  0  0  0  0  0  0  0  0  0  0
   44.6928   37.1074   84.8909 C   0  0  0  0  0  0  0  0  0  0  0  0
   46.8538   35.6754   86.8109 O   0  0  0  0  0  0  0  0  0  0  0  0
   46.7131   35.4211   81.6564 C   0  0  0  0  0  0  0  0  0  0  0  0
   45.0292   40.3044   81.7068 C   0  0  0  0  0  0  0  0  0  0  0  0
   42.8873   40.3365   81.7133 N   0  0  0  0  0  0  0  0  0  0  0  0
  1  2  2  0
  2  3  1  0
  3  4  2  0
  4  5  1  0
  3  6  1  0
  4  7  1  0
  7  8  1  0
  8  9  1  0
  9 10  1  0
  6 11  1  0
  5 12  1  0
 11 12  1  0
 10 13  2  0
  2 14  1  0
  5 15  1  0
  9 15  1  0
 10 16  1  0
  1 17  1  0
  7 17  1  0
 11 18  1  0
 11 19  1  0
M  END
>  <ID>  (1) 
conformer_0

$$$$
