
     RDKit          3D

 16 17  0  0  0  0  0  0  0  0999 V2000
   44.8344   38.0818   79.7399 C   0  0  0  0  0  0  0  0  0  0  0  0
   45.1284   36.9853   80.5446 C   0  0  0  0  0  0  0  0  0  0  0  0
   45.6151   35.8575   80.1340 O   0  0  0  0  0  0  0  0  0  0  0  0
   44.7305   36.8768   81.9499 C   0  0  0  0  0  0  0  0  0  0  0  0
   44.1706   38.0291   82.5560 C   0  0  0  0  0  0  0  0  0  0  0  0
   45.1077   35.7896   82.8779 C   0  0  0  0  0  0  0  0  0  0  0  0
   45.2581   37.9758   78.5118 O   0  0  0  0  0  0  0  0  0  0  0  0
   46.2013   35.6389   83.4181 O   0  0  0  0  0  0  0  0  0  0  0  0
   44.3135   39.2484   80.3902 C   0  0  0  0  0  0  0  0  0  0  0  0
   46.4495   35.9700   78.8824 C   0  0  0  0  0  0  0  0  0  0  0  0
   45.6963   36.8033   77.9355 C   0  0  0  0  0  0  0  0  0  0  0  0
   44.0268   35.2740   83.4195 O   0  0  0  0  0  0  0  0  0  0  0  0
   43.9779   39.1968   81.7908 C   0  0  0  0  0  0  0  0  0  0  0  0
   43.6436   40.5481   82.3219 C   0  0  0  0  0  0  0  0  0  0  0  0
   42.7787   41.0448   82.2529 O   0  0  0  0  0  0  0  0  0  0  0  0
   44.4328   40.9064   83.4218 O   0  0  0  0  0  0  0  0  0  0  0  0
  1  2  2  0
  2  3  1  0
  2  4  1  0
  4  5  2  0
  4  6  1  0
  1  7  1  0
  6  8  2  0
  1  9  1  0
  3 10  1  0
  7 11  1  0
 10 11  1  0
  6 12  1  0
  5 13  1  0
  9 13  2  0
 13 14  1  0
 14 15  2  0
 14 16  1  0
M  END
>  <ID>  (1) 
conformer_0

$$$$
