
     RDKit          3D

 18 20  0  0  0  0  0  0  0  0999 V2000
   46.9379   35.7251   85.7813 O   0  0  0  0  0  0  0  0  0  0  0  0
   45.7531   36.0013   85.9568 C   0  0  0  0  0  0  0  0  0  0  0  0
   44.8952   36.2137   84.9694 N   0  0  0  0  0  0  0  0  0  0  0  0
   45.3439   36.2225   83.6398 C   0  0  0  0  0  0  0  0  0  0  0  0
   43.7020   36.8314   85.3784 C   0  0  0  0  0  0  0  0  0  0  0  0
   42.8213   37.3464   84.3333 C   0  0  0  0  0  0  0  0  0  0  0  0
   43.4260   37.5934   83.0423 C   0  0  0  0  0  0  0  0  0  0  0  0
   43.8642   37.8575   86.3811 C   0  0  0  0  0  0  0  0  0  0  0  0
   44.7628   37.3123   82.8680 C   0  0  0  0  0  0  0  0  0  0  0  0
   43.1762   39.0726   82.7499 C   0  0  0  0  0  0  0  0  0  0  0  0
   46.7144   36.0837   83.3100 O   0  0  0  0  0  0  0  0  0  0  0  0
   43.8827   39.5759   81.6995 C   0  0  0  0  0  0  0  0  0  0  0  0
   44.7511   38.7514   81.0454 C   0  0  0  0  0  0  0  0  0  0  0  0
   43.7908   40.8216   81.3705 O   0  0  0  0  0  0  0  0  0  0  0  0
   42.5599   38.5703   86.6485 O   0  0  0  0  0  0  0  0  0  0  0  0
   44.5192   37.5136   87.6863 C   0  0  0  0  0  0  0  0  0  0  0  0
   45.4326   35.9911   87.4063 C   0  0  0  0  0  0  0  0  0  0  0  0
   45.0928   37.6441   81.5829 C   0  0  0  0  0  0  0  0  0  0  0  0
  1  2  2  0
  2  3  1  0
  3  4  1  0
  3  5  1  0
  5  6  1  0
  6  7  1  0
  5  8  1  0
  4  9  1  0
  7  9  1  0
  7 10  1  0
  4 11  1  0
 10 12  1  0
 12 13  1  0
 12 14  2  0
  8 15  1  0
  8 16  1  0
  2 17  1  0
 16 17  1  0
  9 18  1  0
 13 18  2  0
M  END
>  <ID>  (1) 
conformer_0

$$$$
