
     RDKit          3D

 23 26  0  0  0  0  0  0  0  0999 V2000
   46.4398   35.8014   80.4678 N   0  0  0  0  0  0  0  0  0  0  0  0
   45.5377   36.6654   80.1001 C   0  0  0  0  0  0  0  0  0  0  0  0
   44.9948   37.3869   81.0714 C   0  0  0  0  0  0  0  0  0  0  0  0
   45.1244   37.0155   82.3953 C   0  0  0  0  0  0  0  0  0  0  0  0
   44.5205   37.6058   83.5331 C   0  0  0  0  0  0  0  0  0  0  0  0
   44.0459   38.5071   80.7988 C   0  0  0  0  0  0  0  0  0  0  0  0
   46.2794   36.0666   82.5427 N   0  0  0  0  0  0  0  0  0  0  0  0
   46.4420   35.6686   84.0221 C   0  0  0  0  0  0  0  0  0  0  0  0
   45.4362   35.7616   84.9180 C   0  0  0  0  0  0  0  0  0  0  0  0
   45.6787   35.4941   86.2663 C   0  0  0  0  0  0  0  0  0  0  0  0
   43.9565   39.5390   81.8096 C   0  0  0  0  0  0  0  0  0  0  0  0
   43.3647   40.7967   81.6021 C   0  0  0  0  0  0  0  0  0  0  0  0
   46.6818   35.5757   81.7350 N   0  0  0  0  0  0  0  0  0  0  0  0
   43.5304   37.1013   84.1270 C   0  0  0  0  0  0  0  0  0  0  0  0
   44.8415   35.0737   87.1775 C   0  0  0  0  0  0  0  0  0  0  0  0
   45.3822   36.8545   78.6269 C   0  0  0  0  0  0  0  0  0  0  0  0
   43.5553   35.1600   86.7003 C   0  0  0  0  0  0  0  0  0  0  0  0
   42.2935   37.5939   84.3328 C   0  0  0  0  0  0  0  0  0  0  0  0
   44.1703   39.0540   83.0911 C   0  0  0  0  0  0  0  0  0  0  0  0
   43.2798   36.4344   86.0301 C   0  0  0  0  0  0  0  0  0  0  0  0
   41.2804   37.1374   85.1421 C   0  0  0  0  0  0  0  0  0  0  0  0
   39.9294   37.5405   85.1776 O   0  0  0  0  0  0  0  0  0  0  0  0
   41.7191   36.3620   86.1396 C   0  0  0  0  0  0  0  0  0  0  0  0
  1  2  2  0
  2  3  1  0
  3  4  2  0
  4  5  1  0
  3  6  1  0
  4  7  1  0
  7  8  1  0
  8  9  1  0
  9 10  1  0
  6 11  1  0
 11 12  1  0
  1 13  1  0
  7 13  1  0
  5 14  1  0
 10 15  1  0
  2 16  1  0
 15 17  1  0
 14 18  2  0
  5 19  1  0
 11 19  1  0
 14 20  1  0
 17 20  1  0
 18 21  1  0
 21 22  1  0
 20 23  1  0
 21 23  2  0
M  END
>  <ID>  (1) 
conformer_0

$$$$
