
     RDKit          3D

 22 25  0  0  0  0  0  0  0  0999 V2000
   46.4398   35.8014   80.4678 N   0  0  0  0  0  0  0  0  0  0  0  0
   45.9973   36.1691   81.5459 C   0  0  0  0  0  0  0  0  0  0  0  0
   45.1075   37.3080   81.5982 C   0  0  0  0  0  0  0  0  0  0  0  0
   44.5920   37.8434   82.7735 C   0  0  0  0  0  0  0  0  0  0  0  0
   43.7047   39.0374   82.6005 C   0  0  0  0  0  0  0  0  0  0  0  0
   44.6148   37.1561   83.9155 N   0  0  0  0  0  0  0  0  0  0  0  0
   43.9674   39.9672   81.6557 C   0  0  0  0  0  0  0  0  0  0  0  0
   44.5222   39.7193   80.4842 N   0  0  0  0  0  0  0  0  0  0  0  0
   45.4156   35.9553   83.7283 C   0  0  0  0  0  0  0  0  0  0  0  0
   46.0232   35.5679   82.8430 N   0  0  0  0  0  0  0  0  0  0  0  0
   45.4029   35.2412   85.1023 C   0  0  0  0  0  0  0  0  0  0  0  0
   44.1995   35.3902   85.9866 C   0  0  0  0  0  0  0  0  0  0  0  0
   46.1930   36.1926   79.3188 C   0  0  0  0  0  0  0  0  0  0  0  0
   43.3822   41.2184   81.6303 N   0  0  0  0  0  0  0  0  0  0  0  0
   42.9813   35.4496   85.4841 C   0  0  0  0  0  0  0  0  0  0  0  0
   44.3893   34.9742   87.3621 C   0  0  0  0  0  0  0  0  0  0  0  0
   45.3243   37.3283   79.1757 N   0  0  0  0  0  0  0  0  0  0  0  0
   41.8726   35.4818   86.3762 C   0  0  0  0  0  0  0  0  0  0  0  0
   43.3449   35.0450   88.2306 C   0  0  0  0  0  0  0  0  0  0  0  0
   46.5765   35.4582   78.2388 O   0  0  0  0  0  0  0  0  0  0  0  0
   44.9583   38.1322   80.4400 C   0  0  0  0  0  0  0  0  0  0  0  0
   42.0989   35.3019   87.7331 C   0  0  0  0  0  0  0  0  0  0  0  0
  1  2  1  0
  2  3  2  0
  3  4  1  0
  4  5  1  0
  4  6  2  0
  5  7  1  0
  7  8  2  0
  6  9  1  0
  2 10  1  0
  9 10  2  0
  9 11  1  0
 11 12  1  0
  1 13  1  0
  7 14  1  0
 12 15  2  0
 12 16  1  0
 13 17  1  0
 15 18  1  0
 16 19  2  0
 13 20  2  0
  3 21  1  0
  8 21  1  0
 17 21  2  0
 18 22  2  0
 19 22  1  0
M  END
>  <ID>  (1) 
conformer_0

$$$$
