
     RDKit          3D

 22 24  0  0  0  0  0  0  0  0999 V2000
   46.0222   35.2962   82.2874 O   0  0  0  0  0  0  0  0  0  0  0  0
   45.6384   36.3555   81.6968 C   0  0  0  0  0  0  0  0  0  0  0  0
   45.6628   36.4603   80.2816 N   0  0  0  0  0  0  0  0  0  0  0  0
   45.1465   37.4971   79.7029 C   0  0  0  0  0  0  0  0  0  0  0  0
   45.1943   37.4715   82.4170 C   0  0  0  0  0  0  0  0  0  0  0  0
   45.1628   37.4326   78.4170 O   0  0  0  0  0  0  0  0  0  0  0  0
   45.1483   37.3533   83.8892 N   0  0  0  0  0  0  0  0  0  0  0  0
   45.8073   36.1259   77.8546 C   0  0  0  0  0  0  0  0  0  0  0  0
   44.5840   38.5170   81.8104 C   0  0  0  0  0  0  0  0  0  0  0  0
   44.5951   38.5407   80.4169 C   0  0  0  0  0  0  0  0  0  0  0  0
   44.0431   39.6910   82.4967 C   0  0  0  0  0  0  0  0  0  0  0  0
   44.6613   36.3590   84.7018 C   0  0  0  0  0  0  0  0  0  0  0  0
   46.2060   35.4993   79.3380 C   0  0  0  0  0  0  0  0  0  0  0  0
   45.2999   35.4503   77.0402 O   0  0  0  0  0  0  0  0  0  0  0  0
   43.2702   36.1830   84.6139 C   0  0  0  0  0  0  0  0  0  0  0  0
   45.0773   36.6045   86.1705 C   0  0  0  0  0  0  0  0  0  0  0  0
   44.4631   35.5333   87.0075 C   0  0  0  0  0  0  0  0  0  0  0  0
   44.7502   35.7655   88.4316 C   0  0  0  0  0  0  0  0  0  0  0  0
   43.8277   39.6519   83.7112 O   0  0  0  0  0  0  0  0  0  0  0  0
   42.6239   35.3541   85.5856 C   0  0  0  0  0  0  0  0  0  0  0  0
   43.6616   40.7174   81.7878 O   0  0  0  0  0  0  0  0  0  0  0  0
   43.0223   35.5830   86.9284 C   0  0  0  0  0  0  0  0  0  0  0  0
  1  2  2  0
  2  3  1  0
  3  4  1  0
  2  5  1  0
  4  6  1  0
  5  7  1  0
  6  8  1  0
  5  9  2  0
  4 10  2  0
  9 10  1  0
  9 11  1  0
  7 12  1  0
  3 13  1  0
  8 13  1  0
  8 14  2  0
 12 15  1  0
 12 16  1  0
 16 17  1  0
 17 18  1  0
 11 19  1  0
 15 20  1  0
 11 21  2  0
 17 22  1  0
 20 22  1  0
M  END
>  <ID>  (1) 
conformer_0

$$$$
