
     RDKit          3D

 19 21  0  0  0  0  0  0  0  0999 V2000
   46.5680   36.2058   85.8453 O   0  0  0  0  0  0  0  0  0  0  0  0
   45.3405   35.9938   85.8902 C   0  0  0  0  0  0  0  0  0  0  0  0
   44.3857   36.1823   84.9209 C   0  0  0  0  0  0  0  0  0  0  0  0
   44.8382   36.7385   83.7310 N   0  0  0  0  0  0  0  0  0  0  0  0
   44.5197   38.0248   83.4004 C   0  0  0  0  0  0  0  0  0  0  0  0
   43.3545   36.9883   85.5949 C   0  0  0  0  0  0  0  0  0  0  0  0
   44.5402   38.4115   82.0380 C   0  0  0  0  0  0  0  0  0  0  0  0
   44.9951   35.6349   87.1511 N   0  0  0  0  0  0  0  0  0  0  0  0
   44.3045   39.6675   81.5284 C   0  0  0  0  0  0  0  0  0  0  0  0
   46.0974   36.4147   83.0456 C   0  0  0  0  0  0  0  0  0  0  0  0
   43.7733   35.5813   87.6624 C   0  0  0  0  0  0  0  0  0  0  0  0
   43.4713   35.2044   88.8173 O   0  0  0  0  0  0  0  0  0  0  0  0
   43.8213   40.7730   82.3867 C   0  0  0  0  0  0  0  0  0  0  0  0
   43.6115   41.9316   81.9332 O   0  0  0  0  0  0  0  0  0  0  0  0
   45.9447   35.0728   82.2408 C   0  0  0  0  0  0  0  0  0  0  0  0
   42.7940   36.2735   86.7817 C   0  0  0  0  0  0  0  0  0  0  0  0
   43.5820   40.3558   83.6862 C   0  0  0  0  0  0  0  0  0  0  0  0
   43.6441   38.3128   85.8178 O   0  0  0  0  0  0  0  0  0  0  0  0
   43.9786   38.8371   84.3997 C   0  0  0  0  0  0  0  0  0  0  0  0
  1  2  2  0
  2  3  1  0
  3  4  1  0
  4  5  1  0
  3  6  1  0
  5  7  1  0
  2  8  1  0
  7  9  2  0
  4 10  1  0
  8 11  1  0
 11 12  2  0
  9 13  1  0
 13 14  1  0
 10 15  1  0
  6 16  1  0
 11 16  1  0
 13 17  2  0
  6 18  1  0
  5 19  2  0
 17 19  1  0
 18 19  1  0
M  END
>  <ID>  (1) 
conformer_0

$$$$
