
     RDKit          3D

 21 22  0  0  0  0  0  0  0  0999 V2000
   46.0222   35.2962   82.2874 O   0  0  0  0  0  0  0  0  0  0  0  0
   45.6384   36.3555   81.6968 C   0  0  0  0  0  0  0  0  0  0  0  0
   45.6628   36.4603   80.2816 N   0  0  0  0  0  0  0  0  0  0  0  0
   45.1465   37.4971   79.7029 C   0  0  0  0  0  0  0  0  0  0  0  0
   44.4721   38.4649   80.3501 N   0  0  0  0  0  0  0  0  0  0  0  0
   44.5249   38.2813   81.7802 C   0  0  0  0  0  0  0  0  0  0  0  0
   44.9809   37.3424   82.4028 C   0  0  0  0  0  0  0  0  0  0  0  0
   44.9876   37.2518   83.8680 C   0  0  0  0  0  0  0  0  0  0  0  0
   46.4853   35.5950   79.4987 C   0  0  0  0  0  0  0  0  0  0  0  0
   46.0479   35.5182   78.1115 C   0  0  0  0  0  0  0  0  0  0  0  0
   43.9558   37.5800   84.5127 O   0  0  0  0  0  0  0  0  0  0  0  0
   43.5326   36.7309   85.5955 C   0  0  0  0  0  0  0  0  0  0  0  0
   42.3051   36.3923   85.6221 C   0  0  0  0  0  0  0  0  0  0  0  0
   45.9867   34.5963   77.4886 O   0  0  0  0  0  0  0  0  0  0  0  0
   43.9406   37.3139   86.8892 C   0  0  0  0  0  0  0  0  0  0  0  0
   43.8067   39.4854   82.4208 C   0  0  0  0  0  0  0  0  0  0  0  0
   44.4401   35.5132   85.1917 C   0  0  0  0  0  0  0  0  0  0  0  0
   46.1015   36.7630   77.5419 O   0  0  0  0  0  0  0  0  0  0  0  0
   45.4710   35.9295   84.2991 C   0  0  0  0  0  0  0  0  0  0  0  0
   43.6833   36.5500   88.0536 O   0  0  0  0  0  0  0  0  0  0  0  0
   46.6678   35.6911   84.6996 O   0  0  0  0  0  0  0  0  0  0  0  0
  1  2  2  0
  2  3  1  0
  3  4  1  0
  4  5  2  0
  5  6  1  0
  2  7  1  0
  6  7  2  0
  7  8  1  0
  3  9  1  0
  9 10  1  0
  8 11  1  0
 11 12  1  0
 12 13  1  0
 10 14  2  0
 12 15  1  0
  6 16  1  0
 12 17  1  0
 10 18  1  0
  8 19  1  0
 17 19  1  0
 15 20  1  0
 19 21  1  0
M  END
>  <ID>  (1) 
conformer_0

$$$$
