
     RDKit          3D

 21 24  0  0  0  0  0  0  0  0999 V2000
   43.8585   40.8346   82.3352 C   0  0  0  0  0  0  0  0  0  0  0  0
   43.8188   40.0180   83.2265 C   0  0  0  0  0  0  0  0  0  0  0  0
   44.2513   38.7045   82.9969 C   0  0  0  0  0  0  0  0  0  0  0  0
   44.1297   40.4473   80.9167 C   0  0  0  0  0  0  0  0  0  0  0  0
   44.3421   37.6800   84.0339 N   0  0  0  0  0  0  0  0  0  0  0  0
   44.9581   36.4999   83.8343 C   0  0  0  0  0  0  0  0  0  0  0  0
   44.2051   38.0519   85.3793 C   0  0  0  0  0  0  0  0  0  0  0  0
   44.1020   41.4737   80.0076 C   0  0  0  0  0  0  0  0  0  0  0  0
   44.4376   36.9436   86.1658 C   0  0  0  0  0  0  0  0  0  0  0  0
   45.0234   35.8357   85.1247 C   0  0  0  0  0  0  0  0  0  0  0  0
   45.2657   35.8855   82.7071 C   0  0  0  0  0  0  0  0  0  0  0  0
   45.5722   37.1326   87.2239 C   0  0  0  0  0  0  0  0  0  0  0  0
   43.4435   36.1197   87.0326 C   0  0  0  0  0  0  0  0  0  0  0  0
   44.5622   38.3516   81.6576 C   0  0  0  0  0  0  0  0  0  0  0  0
   44.5030   39.2281   80.6757 C   0  0  0  0  0  0  0  0  0  0  0  0
   44.9491   36.7785   81.3412 C   0  0  0  0  0  0  0  0  0  0  0  0
   43.7881   36.0971   88.3119 C   0  0  0  0  0  0  0  0  0  0  0  0
   45.7842   34.7189   82.4497 O   0  0  0  0  0  0  0  0  0  0  0  0
   45.9254   36.7050   80.4087 O   0  0  0  0  0  0  0  0  0  0  0  0
   43.0162   35.4076   89.1567 O   0  0  0  0  0  0  0  0  0  0  0  0
   44.8352   36.8151   88.6258 N   0  0  0  0  0  0  0  0  0  0  0  0
  1  2  2  0
  2  3  1  0
  1  4  1  0
  3  5  1  0
  5  6  1  0
  5  7  1  0
  4  8  1  0
  7  9  1  0
  6 10  1  0
  9 10  1  0
  6 11  2  0
  9 12  1  0
  9 13  1  0
  3 14  2  0
  4 15  2  0
 14 15  1  0
 11 16  1  0
 14 16  1  0
 13 17  1  0
 11 18  1  0
 16 19  1  0
 17 20  2  0
 12 21  1  0
 17 21  1  0
M  END
>  <ID>  (1) 
conformer_0

$$$$
