
     RDKit          3D

 24 27  0  0  0  0  0  0  0  0999 V2000
   46.0222   35.2962   82.2874 O   0  0  0  0  0  0  0  0  0  0  0  0
   45.6384   36.3555   81.6968 C   0  0  0  0  0  0  0  0  0  0  0  0
   45.0448   37.4638   82.3177 C   0  0  0  0  0  0  0  0  0  0  0  0
   45.5738   36.3086   80.3115 N   0  0  0  0  0  0  0  0  0  0  0  0
   45.0931   37.4622   79.7770 C   0  0  0  0  0  0  0  0  0  0  0  0
   44.5447   38.3868   80.4262 N   0  0  0  0  0  0  0  0  0  0  0  0
   46.2744   35.3216   79.6007 N   0  0  0  0  0  0  0  0  0  0  0  0
   44.0446   39.6233   79.7197 C   0  0  0  0  0  0  0  0  0  0  0  0
   44.6094   38.4915   81.7422 C   0  0  0  0  0  0  0  0  0  0  0  0
   45.3063   37.0312   78.4006 C   0  0  0  0  0  0  0  0  0  0  0  0
   44.7760   37.6049   77.2146 C   0  0  0  0  0  0  0  0  0  0  0  0
   44.0261   39.7625   82.0473 C   0  0  0  0  0  0  0  0  0  0  0  0
   45.9377   35.7367   78.3442 C   0  0  0  0  0  0  0  0  0  0  0  0
   45.0451   37.4770   83.8637 C   0  0  0  0  0  0  0  0  0  0  0  0
   44.8085   36.2368   84.5851 C   0  0  0  0  0  0  0  0  0  0  0  0
   43.7627   40.4107   80.9235 C   0  0  0  0  0  0  0  0  0  0  0  0
   45.7724   35.9734   85.6491 C   0  0  0  0  0  0  0  0  0  0  0  0
   46.3648   35.2101   77.0983 C   0  0  0  0  0  0  0  0  0  0  0  0
   45.1473   37.0227   76.0066 C   0  0  0  0  0  0  0  0  0  0  0  0
   46.9697   36.2005   85.4487 O   0  0  0  0  0  0  0  0  0  0  0  0
   43.4289   36.4317   85.0735 C   0  0  0  0  0  0  0  0  0  0  0  0
   44.7853   37.5888   74.8207 F   0  0  0  0  0  0  0  0  0  0  0  0
   45.9096   35.8457   76.0175 C   0  0  0  0  0  0  0  0  0  0  0  0
   45.3281   35.2237   86.6322 O   0  0  0  0  0  0  0  0  0  0  0  0
  1  2  2  0
  2  3  1  0
  2  4  1  0
  4  5  1  0
  5  6  1  0
  4  7  1  0
  6  8  1  0
  3  9  2  0
  6  9  1  0
  5 10  2  0
 10 11  1  0
  9 12  1  0
  7 13  2  0
 10 13  1  0
  3 14  1  0
 14 15  1  0
  8 16  2  0
 12 16  1  0
 15 17  1  0
 13 18  1  0
 11 19  2  0
 17 20  2  0
 15 21  1  0
 19 22  1  0
 18 23  2  0
 19 23  1  0
 17 24  1  0
M  END
>  <ID>  (1) 
conformer_0

$$$$
