
     RDKit          3D

 21 24  0  0  0  0  0  0  0  0999 V2000
   46.9379   35.7251   85.7813 O   0  0  0  0  0  0  0  0  0  0  0  0
   45.7531   36.0013   85.9568 C   0  0  0  0  0  0  0  0  0  0  0  0
   44.8952   36.2137   84.9694 N   0  0  0  0  0  0  0  0  0  0  0  0
   45.3439   36.2225   83.6398 C   0  0  0  0  0  0  0  0  0  0  0  0
   43.7020   36.8314   85.3784 C   0  0  0  0  0  0  0  0  0  0  0  0
   42.8213   37.3464   84.3333 C   0  0  0  0  0  0  0  0  0  0  0  0
   43.4260   37.5934   83.0423 C   0  0  0  0  0  0  0  0  0  0  0  0
   44.8112   37.3656   82.8828 C   0  0  0  0  0  0  0  0  0  0  0  0
   42.1034   38.5932   84.7729 C   0  0  0  0  0  0  0  0  0  0  0  0
   43.2475   39.0737   82.7360 N   0  0  0  0  0  0  0  0  0  0  0  0
   43.9056   39.7189   81.7303 C   0  0  0  0  0  0  0  0  0  0  0  0
   41.2362   38.6655   85.7070 O   0  0  0  0  0  0  0  0  0  0  0  0
   45.0955   37.3804   81.3447 C   0  0  0  0  0  0  0  0  0  0  0  0
   43.9263   40.9400   81.5042 O   0  0  0  0  0  0  0  0  0  0  0  0
   45.2799   35.5386   87.1677 N   0  0  0  0  0  0  0  0  0  0  0  0
   44.7882   38.7418   80.8168 C   0  0  0  0  0  0  0  0  0  0  0  0
   43.8938   35.3466   87.2428 C   0  0  0  0  0  0  0  0  0  0  0  0
   42.4375   39.5756   83.7887 C   0  0  0  0  0  0  0  0  0  0  0  0
   43.4391   35.0475   88.5184 O   0  0  0  0  0  0  0  0  0  0  0  0
   46.4336   36.8381   81.1609 O   0  0  0  0  0  0  0  0  0  0  0  0
   43.0562   36.3178   86.6492 C   0  0  0  0  0  0  0  0  0  0  0  0
  1  2  2  0
  2  3  1  0
  3  4  1  0
  3  5  1  0
  5  6  1  0
  6  7  1  0
  4  8  1  0
  7  8  1  0
  6  9  1  0
  7 10  1  0
 10 11  1  0
  9 12  2  0
  8 13  1  0
 11 14  2  0
  2 15  1  0
 11 16  1  0
 13 16  1  0
 15 17  1  0
  9 18  1  0
 10 18  1  0
 17 19  1  0
 13 20  1  0
  5 21  1  0
 17 21  1  0
M  END
>  <ID>  (1) 
conformer_0

$$$$
