
     RDKit          3D

 15 16  0  0  0  0  0  0  0  0999 V2000
   46.4398   35.8014   80.4678 N   0  0  0  0  0  0  0  0  0  0  0  0
   45.9973   36.1691   81.5459 C   0  0  0  0  0  0  0  0  0  0  0  0
   45.1075   37.3080   81.5982 C   0  0  0  0  0  0  0  0  0  0  0  0
   45.8726   36.2972   79.3483 C   0  0  0  0  0  0  0  0  0  0  0  0
   44.5231   37.8545   80.5013 C   0  0  0  0  0  0  0  0  0  0  0  0
   44.8583   37.3568   79.4682 N   0  0  0  0  0  0  0  0  0  0  0  0
   46.4465   35.6940   82.7332 N   0  0  0  0  0  0  0  0  0  0  0  0
   44.6711   37.7651   82.9399 C   0  0  0  0  0  0  0  0  0  0  0  0
   46.0627   36.1282   83.9171 C   0  0  0  0  0  0  0  0  0  0  0  0
   46.5524   35.4813   85.0934 O   0  0  0  0  0  0  0  0  0  0  0  0
   43.7336   38.8933   80.5413 O   0  0  0  0  0  0  0  0  0  0  0  0
   44.1070   40.0622   81.2454 C   0  0  0  0  0  0  0  0  0  0  0  0
   46.3035   35.7659   77.9777 N   0  0  0  0  0  0  0  0  0  0  0  0
   45.1349   37.1670   84.1218 C   0  0  0  0  0  0  0  0  0  0  0  0
   45.7590   35.6561   86.2508 C   0  0  0  0  0  0  0  0  0  0  0  0
  1  2  1  0
  2  3  1  0
  1  4  2  0
  3  5  1  0
  4  6  1  0
  5  6  2  0
  2  7  2  0
  3  8  2  0
  7  9  1  0
  9 10  1  0
  5 11  1  0
 11 12  1  0
  4 13  1  0
  8 14  1  0
  9 14  2  0
 10 15  1  0
M  END
>  <ID>  (1) 
conformer_0

$$$$
