
     RDKit          3D

 21 24  0  0  0  0  0  0  0  0999 V2000
   46.4181   35.8108   85.7240 O   0  0  0  0  0  0  0  0  0  0  0  0
   46.0967   36.0999   84.6855 C   0  0  0  0  0  0  0  0  0  0  0  0
   44.9756   36.8062   84.3070 C   0  0  0  0  0  0  0  0  0  0  0  0
   44.8249   37.1621   82.8994 C   0  0  0  0  0  0  0  0  0  0  0  0
   44.8380   38.1086   85.0091 C   0  0  0  0  0  0  0  0  0  0  0  0
   43.8117   35.8582   84.5938 C   0  0  0  0  0  0  0  0  0  0  0  0
   42.6310   36.2908   85.3139 C   0  0  0  0  0  0  0  0  0  0  0  0
   44.5607   38.4529   82.4782 C   0  0  0  0  0  0  0  0  0  0  0  0
   44.3791   38.9698   81.2034 C   0  0  0  0  0  0  0  0  0  0  0  0
   44.4433   39.4754   83.4663 C   0  0  0  0  0  0  0  0  0  0  0  0
   44.1259   40.7349   82.9683 C   0  0  0  0  0  0  0  0  0  0  0  0
   44.5789   37.7985   86.3982 C   0  0  0  0  0  0  0  0  0  0  0  0
   44.1233   40.1596   80.8121 C   0  0  0  0  0  0  0  0  0  0  0  0
   44.4204   39.2136   84.7723 N   0  0  0  0  0  0  0  0  0  0  0  0
   44.1482   36.1287   82.0989 C   0  0  0  0  0  0  0  0  0  0  0  0
   43.6265   35.2004   83.1000 O   0  0  0  0  0  0  0  0  0  0  0  0
   43.1761   36.9235   86.6692 C   0  0  0  0  0  0  0  0  0  0  0  0
   43.9664   41.1327   81.7227 C   0  0  0  0  0  0  0  0  0  0  0  0
   42.7302   36.5117   87.6999 C   0  0  0  0  0  0  0  0  0  0  0  0
   47.1991   36.1561   83.8347 O   0  0  0  0  0  0  0  0  0  0  0  0
   41.8457   35.4868   88.0868 C   0  0  0  0  0  0  0  0  0  0  0  0
  1  2  2  0
  2  3  1  0
  3  4  1  0
  3  5  1  0
  3  6  1  0
  6  7  1  0
  4  8  1  0
  8  9  2  0
  8 10  1  0
 10 11  2  0
  5 12  1  0
  9 13  1  0
  5 14  2  0
 10 14  1  0
  4 15  1  0
  6 16  1  0
 15 16  1  0
  7 17  1  0
 12 17  1  0
 11 18  1  0
 13 18  2  0
 17 19  2  3
  2 20  1  0
 19 21  1  0
M  END
>  <ID>  (1) 
conformer_0

$$$$
