
     RDKit          3D

 23 26  0  0  0  0  0  0  0  0999 V2000
   46.4181   35.8108   85.7240 O   0  0  0  0  0  0  0  0  0  0  0  0
   46.0967   36.0999   84.6855 C   0  0  0  0  0  0  0  0  0  0  0  0
   44.9756   36.8062   84.3070 C   0  0  0  0  0  0  0  0  0  0  0  0
   44.8249   37.1621   82.8994 C   0  0  0  0  0  0  0  0  0  0  0  0
   44.8380   38.1086   85.0091 C   0  0  0  0  0  0  0  0  0  0  0  0
   43.8117   35.8582   84.5938 C   0  0  0  0  0  0  0  0  0  0  0  0
   42.6310   36.2908   85.3139 C   0  0  0  0  0  0  0  0  0  0  0  0
   44.5607   38.4529   82.4782 C   0  0  0  0  0  0  0  0  0  0  0  0
   44.3791   38.9698   81.2034 C   0  0  0  0  0  0  0  0  0  0  0  0
   44.4433   39.4754   83.4663 C   0  0  0  0  0  0  0  0  0  0  0  0
   44.1259   40.7349   82.9683 C   0  0  0  0  0  0  0  0  0  0  0  0
   44.5717   37.9464   80.1247 C   0  0  0  0  0  0  0  0  0  0  0  0
   44.0095   40.5547   81.3528 S   0  0  0  0  0  0  0  0  0  0  0  0
   44.9771   36.6705   80.4811 C   0  0  0  0  0  0  0  0  0  0  0  0
   44.5636   37.7191   86.3949 O   0  0  0  0  0  0  0  0  0  0  0  0
   45.2405   35.7459   79.3673 C   0  0  0  0  0  0  0  0  0  0  0  0
   44.5142   39.2997   84.7729 C   0  0  0  0  0  0  0  0  0  0  0  0
   47.0124   35.8510   83.6992 O   0  0  0  0  0  0  0  0  0  0  0  0
   43.4282   36.7498   86.6163 C   0  0  0  0  0  0  0  0  0  0  0  0
   45.0968   36.2954   81.8402 C   0  0  0  0  0  0  0  0  0  0  0  0
   43.9040   35.4803   87.2578 C   0  0  0  0  0  0  0  0  0  0  0  0
   46.4197   35.2731   79.2327 O   0  0  0  0  0  0  0  0  0  0  0  0
   42.4827   37.3762   87.7097 C   0  0  0  0  0  0  0  0  0  0  0  0
  1  2  2  0
  2  3  1  0
  3  4  1  0
  3  5  1  0
  3  6  1  0
  6  7  1  0
  4  8  1  0
  8  9  2  0
  8 10  1  0
 10 11  2  0
  9 12  1  0
  9 13  1  0
 11 13  1  0
 12 14  2  0
  5 15  1  0
 14 16  1  0
  5 17  2  0
 10 17  1  0
  2 18  1  0
  7 19  1  0
 15 19  1  0
  4 20  2  0
 14 20  1  0
 19 21  1  0
 16 22  2  0
 19 23  1  0
M  END
>  <ID>  (1) 
conformer_0

$$$$
