
     RDKit          3D

 23 26  0  0  0  0  0  0  0  0999 V2000
   46.0222   35.2962   82.2874 O   0  0  0  0  0  0  0  0  0  0  0  0
   45.6384   36.3555   81.6968 C   0  0  0  0  0  0  0  0  0  0  0  0
   45.0448   37.4638   82.3177 C   0  0  0  0  0  0  0  0  0  0  0  0
   44.7982   38.5900   81.6252 C   0  0  0  0  0  0  0  0  0  0  0  0
   44.9260   37.4376   83.7250 C   0  0  0  0  0  0  0  0  0  0  0  0
   45.5685   36.3224   80.3058 N   0  0  0  0  0  0  0  0  0  0  0  0
   44.7847   38.6174   80.2539 N   0  0  0  0  0  0  0  0  0  0  0  0
   44.5351   38.5784   84.3148 C   0  0  0  0  0  0  0  0  0  0  0  0
   45.1469   37.5436   79.6983 C   0  0  0  0  0  0  0  0  0  0  0  0
   45.1068   36.1408   84.6233 C   0  0  0  0  0  0  0  0  0  0  0  0
   44.3401   38.6381   85.7442 O   0  0  0  0  0  0  0  0  0  0  0  0
   44.2908   39.8341   83.6997 C   0  0  0  0  0  0  0  0  0  0  0  0
   43.7877   35.6451   84.9550 O   0  0  0  0  0  0  0  0  0  0  0  0
   44.4612   39.6836   82.2658 C   0  0  0  0  0  0  0  0  0  0  0  0
   46.1913   35.4363   79.4136 C   0  0  0  0  0  0  0  0  0  0  0  0
   45.8396   36.2456   85.9070 C   0  0  0  0  0  0  0  0  0  0  0  0
   47.0793   36.2190   85.8065 O   0  0  0  0  0  0  0  0  0  0  0  0
   45.3303   37.1329   78.3521 N   0  0  0  0  0  0  0  0  0  0  0  0
   45.2399   35.9524   86.9347 N   0  0  0  0  0  0  0  0  0  0  0  0
   44.0241   35.3081   87.0057 C   0  0  0  0  0  0  0  0  0  0  0  0
   45.9005   35.9319   78.1866 C   0  0  0  0  0  0  0  0  0  0  0  0
   43.1367   35.6903   86.0183 C   0  0  0  0  0  0  0  0  0  0  0  0
   46.3252   35.4632   76.9754 O   0  0  0  0  0  0  0  0  0  0  0  0
  1  2  2  0
  2  3  1  0
  3  4  2  0
  3  5  1  0
  2  6  1  0
  4  7  1  0
  5  8  2  0
  6  9  1  0
  7  9  1  0
  5 10  1  0
  8 11  1  0
  8 12  1  0
 10 13  1  0
  4 14  1  0
 12 14  2  0
  6 15  1  0
 10 16  1  0
 16 17  2  0
  9 18  2  0
 16 19  1  0
 19 20  1  0
 15 21  1  0
 18 21  1  0
 13 22  1  0
 20 22  1  0
 21 23  2  0
M  END
>  <ID>  (1) 
conformer_0

$$$$
