
     RDKit          3D

 23 26  0  0  0  0  0  0  0  0999 V2000
   46.9379   35.7251   85.7813 O   0  0  0  0  0  0  0  0  0  0  0  0
   45.7531   36.0013   85.9568 C   0  0  0  0  0  0  0  0  0  0  0  0
   44.8952   36.2137   84.9694 N   0  0  0  0  0  0  0  0  0  0  0  0
   45.3439   36.2225   83.6398 C   0  0  0  0  0  0  0  0  0  0  0  0
   43.7020   36.8314   85.3784 C   0  0  0  0  0  0  0  0  0  0  0  0
   42.8213   37.3464   84.3333 C   0  0  0  0  0  0  0  0  0  0  0  0
   46.2664   35.9806   83.2115 O   0  0  0  0  0  0  0  0  0  0  0  0
   43.2152   36.7657   86.6927 C   0  0  0  0  0  0  0  0  0  0  0  0
   44.3277   36.8154   82.6623 C   0  0  0  0  0  0  0  0  0  0  0  0
   45.2841   35.8604   87.3455 C   0  0  0  0  0  0  0  0  0  0  0  0
   43.2383   37.4505   83.0505 C   0  0  0  0  0  0  0  0  0  0  0  0
   44.0780   36.3619   87.6572 C   0  0  0  0  0  0  0  0  0  0  0  0
   44.8163   36.6717   81.3870 C   0  0  0  0  0  0  0  0  0  0  0  0
   43.7714   36.4003   89.0735 O   0  0  0  0  0  0  0  0  0  0  0  0
   41.3993   36.7785   84.4173 C   0  0  0  0  0  0  0  0  0  0  0  0
   44.0110   37.3767   80.3646 C   0  0  0  0  0  0  0  0  0  0  0  0
   44.5760   37.3072   79.0407 C   0  0  0  0  0  0  0  0  0  0  0  0
   42.5246   38.0446   82.1374 N   0  0  0  0  0  0  0  0  0  0  0  0
   42.9732   38.0284   80.8748 C   0  0  0  0  0  0  0  0  0  0  0  0
   45.6142   36.3990   78.6932 C   0  0  0  0  0  0  0  0  0  0  0  0
   45.9524   35.9293   81.0512 C   0  0  0  0  0  0  0  0  0  0  0  0
   46.0307   36.3538   77.3461 O   0  0  0  0  0  0  0  0  0  0  0  0
   46.3801   35.8748   79.7080 C   0  0  0  0  0  0  0  0  0  0  0  0
  1  2  2  0
  2  3  1  0
  3  4  1  0
  3  5  1  0
  5  6  1  0
  4  7  2  0
  5  8  2  0
  4  9  1  0
  2 10  1  0
  6 11  1  0
  9 11  1  0
  8 12  1  0
 10 12  2  0
  9 13  2  0
 12 14  1  0
  6 15  1  0
 13 16  1  0
 16 17  1  0
 11 18  2  0
 16 19  2  0
 18 19  1  0
 17 20  2  0
 13 21  1  0
 20 22  1  0
 20 23  1  0
 21 23  2  0
M  END
>  <ID>  (1) 
conformer_0

$$$$
