
     RDKit          3D

 20 22  0  0  0  0  0  0  0  0999 V2000
   46.4181   35.8108   85.7240 O   0  0  0  0  0  0  0  0  0  0  0  0
   46.0967   36.0999   84.6855 C   0  0  0  0  0  0  0  0  0  0  0  0
   44.9756   36.8062   84.3070 C   0  0  0  0  0  0  0  0  0  0  0  0
   44.8249   37.1621   82.8994 C   0  0  0  0  0  0  0  0  0  0  0  0
   44.8380   38.1086   85.0091 C   0  0  0  0  0  0  0  0  0  0  0  0
   43.8117   35.8582   84.5938 C   0  0  0  0  0  0  0  0  0  0  0  0
   42.6310   36.2908   85.3139 C   0  0  0  0  0  0  0  0  0  0  0  0
   44.5607   38.4529   82.4782 C   0  0  0  0  0  0  0  0  0  0  0  0
   44.3791   38.9698   81.2034 C   0  0  0  0  0  0  0  0  0  0  0  0
   44.4433   39.4754   83.4663 C   0  0  0  0  0  0  0  0  0  0  0  0
   44.1259   40.7349   82.9683 C   0  0  0  0  0  0  0  0  0  0  0  0
   44.5789   37.7985   86.3982 C   0  0  0  0  0  0  0  0  0  0  0  0
   43.8625   39.0521   84.5850 O   0  0  0  0  0  0  0  0  0  0  0  0
   47.0647   35.9456   83.7771 O   0  0  0  0  0  0  0  0  0  0  0  0
   43.7398   41.7563   83.9660 C   0  0  0  0  0  0  0  0  0  0  0  0
   44.1683   40.5153   81.2843 C   0  0  0  0  0  0  0  0  0  0  0  0
   43.8591   41.2835   80.4861 O   0  0  0  0  0  0  0  0  0  0  0  0
   43.4521   36.7804   86.6103 C   0  0  0  0  0  0  0  0  0  0  0  0
   43.9594   36.2637   82.0689 O   0  0  0  0  0  0  0  0  0  0  0  0
   42.3085   37.3552   87.4394 O   0  0  0  0  0  0  0  0  0  0  0  0
  1  2  2  0
  2  3  1  0
  3  4  1  0
  3  5  1  0
  3  6  1  0
  6  7  1  0
  4  8  1  0
  8  9  2  0
  8 10  1  0
 10 11  2  0
  5 12  1  0
  5 13  1  0
 10 13  1  0
  2 14  1  0
 11 15  1  0
  9 16  1  0
 11 16  1  0
 16 17  2  0
  7 18  1  0
 12 18  1  0
  4 19  1  0
 18 20  1  0
M  END
>  <ID>  (1) 
conformer_0

$$$$
