
     RDKit          3D

 24 26  0  0  0  0  0  0  0  0999 V2000
   47.0878   35.8486   84.6109 O   0  0  0  0  0  0  0  0  0  0  0  0
   45.9766   36.2623   85.1498 C   0  0  0  0  0  0  0  0  0  0  0  0
   45.6802   36.0060   86.3553 N   0  0  0  0  0  0  0  0  0  0  0  0
   45.1174   36.9057   84.2540 C   0  0  0  0  0  0  0  0  0  0  0  0
   44.9269   36.4675   82.9915 C   0  0  0  0  0  0  0  0  0  0  0  0
   44.6348   37.4316   81.9519 C   0  0  0  0  0  0  0  0  0  0  0  0
   44.4797   35.6706   86.7508 C   0  0  0  0  0  0  0  0  0  0  0  0
   45.0772   35.1590   82.5386 C   0  0  0  0  0  0  0  0  0  0  0  0
   44.6555   37.1087   80.6114 C   0  0  0  0  0  0  0  0  0  0  0  0
   44.1217   38.7462   82.3368 C   0  0  0  0  0  0  0  0  0  0  0  0
   45.4734   34.1563   83.4198 F   0  0  0  0  0  0  0  0  0  0  0  0
   45.0138   35.8472   80.2110 C   0  0  0  0  0  0  0  0  0  0  0  0
   45.2174   35.5567   78.8713 N   0  0  0  0  0  0  0  0  0  0  0  0
   43.6427   39.0327   83.5529 C   0  0  0  0  0  0  0  0  0  0  0  0
   43.4787   36.0521   86.1757 O   0  0  0  0  0  0  0  0  0  0  0  0
   43.2900   40.3319   83.9628 C   0  0  0  0  0  0  0  0  0  0  0  0
   45.4184   34.8039   81.1124 C   0  0  0  0  0  0  0  0  0  0  0  0
   43.9649   37.8953   84.5340 C   0  0  0  0  0  0  0  0  0  0  0  0
   43.1367   41.2357   83.0275 C   0  0  0  0  0  0  0  0  0  0  0  0
   42.7662   42.4489   83.3848 O   0  0  0  0  0  0  0  0  0  0  0  0
   44.4269   35.3677   88.1862 N   0  0  0  0  0  0  0  0  0  0  0  0
   43.5274   40.9936   81.7363 C   0  0  0  0  0  0  0  0  0  0  0  0
   44.0393   39.7279   81.3469 C   0  0  0  0  0  0  0  0  0  0  0  0
   46.4102   35.6974   78.1614 O   0  0  0  0  0  0  0  0  0  0  0  0
  1  2  2  0
  2  3  1  0
  2  4  1  0
  4  5  1  0
  5  6  1  0
  3  7  1  0
  5  8  2  0
  6  9  2  0
  6 10  1  0
  8 11  1  0
  9 12  1  0
 12 13  1  0
 10 14  1  0
  7 15  2  0
 14 16  2  0
  8 17  1  0
 12 17  2  0
  4 18  2  0
 14 18  1  0
 16 19  1  0
 19 20  1  0
  7 21  1  0
 19 22  2  0
 10 23  2  0
 22 23  1  0
 13 24  1  0
M  END
>  <ID>  (1) 
conformer_0

$$$$
