
     RDKit          3D

 24 27  0  0  0  0  0  0  0  0999 V2000
   46.4398   35.8014   80.4678 N   0  0  0  0  0  0  0  0  0  0  0  0
   45.9973   36.1691   81.5459 C   0  0  0  0  0  0  0  0  0  0  0  0
   45.1075   37.3080   81.5982 C   0  0  0  0  0  0  0  0  0  0  0  0
   44.5920   37.8434   82.7735 C   0  0  0  0  0  0  0  0  0  0  0  0
   43.7047   39.0374   82.6005 C   0  0  0  0  0  0  0  0  0  0  0  0
   44.6148   37.1561   83.9155 N   0  0  0  0  0  0  0  0  0  0  0  0
   46.0362   35.4716   82.8415 N   0  0  0  0  0  0  0  0  0  0  0  0
   45.4396   36.0262   83.9110 C   0  0  0  0  0  0  0  0  0  0  0  0
   43.9434   39.8832   81.6036 C   0  0  0  0  0  0  0  0  0  0  0  0
   43.5110   41.1720   81.6024 C   0  0  0  0  0  0  0  0  0  0  0  0
   45.5499   35.3748   85.2374 C   0  0  0  0  0  0  0  0  0  0  0  0
   45.7590   36.0133   79.3491 C   0  0  0  0  0  0  0  0  0  0  0  0
   44.5503   35.6431   86.2896 C   0  0  0  0  0  0  0  0  0  0  0  0
   42.9465   39.3631   83.7338 C   0  0  0  0  0  0  0  0  0  0  0  0
   43.3576   35.6297   85.9978 C   0  0  0  0  0  0  0  0  0  0  0  0
   45.0451   37.1453   79.1991 N   0  0  0  0  0  0  0  0  0  0  0  0
   46.2873   35.3625   78.1518 O   0  0  0  0  0  0  0  0  0  0  0  0
   44.5779   37.6948   80.2347 C   0  0  0  0  0  0  0  0  0  0  0  0
   42.6211   41.5314   82.8428 C   0  0  0  0  0  0  0  0  0  0  0  0
   44.9912   35.6394   87.5826 C   0  0  0  0  0  0  0  0  0  0  0  0
   42.3393   40.6663   83.8041 C   0  0  0  0  0  0  0  0  0  0  0  0
   44.1413   35.6805   88.5944 C   0  0  0  0  0  0  0  0  0  0  0  0
   42.7668   35.8008   88.2729 C   0  0  0  0  0  0  0  0  0  0  0  0
   42.3440   35.7555   86.9821 C   0  0  0  0  0  0  0  0  0  0  0  0
  1  2  1  0
  2  3  2  0
  3  4  1  0
  4  5  1  0
  4  6  2  0
  2  7  1  0
  6  8  1  0
  7  8  2  0
  5  9  1  0
  9 10  2  0
  8 11  1  0
  1 12  1  0
 11 13  1  0
  5 14  2  0
 13 15  2  0
 12 16  1  0
 12 17  2  0
  3 18  1  0
 16 18  1  0
 10 19  1  0
 13 20  1  0
 14 21  1  0
 19 21  2  0
 20 22  2  0
 22 23  1  0
 15 24  1  0
 23 24  2  0
M  END
>  <ID>  (1) 
conformer_0

$$$$
