
     RDKit          3D

 22 25  0  0  0  0  0  0  0  0999 V2000
   46.4398   35.8014   80.4678 N   0  0  0  0  0  0  0  0  0  0  0  0
   45.9973   36.1691   81.5459 C   0  0  0  0  0  0  0  0  0  0  0  0
   46.2792   35.6102   82.7913 N   0  0  0  0  0  0  0  0  0  0  0  0
   44.8453   37.1880   81.6392 C   0  0  0  0  0  0  0  0  0  0  0  0
   45.5855   36.0263   83.8100 C   0  0  0  0  0  0  0  0  0  0  0  0
   46.0173   36.3218   79.2820 C   0  0  0  0  0  0  0  0  0  0  0  0
   44.2481   37.5760   82.6942 C   0  0  0  0  0  0  0  0  0  0  0  0
   44.6873   37.8216   80.4895 C   0  0  0  0  0  0  0  0  0  0  0  0
   43.2475   38.5605   82.7800 C   0  0  0  0  0  0  0  0  0  0  0  0
   44.6185   36.8902   83.9073 C   0  0  0  0  0  0  0  0  0  0  0  0
   46.1769   35.3177   85.0517 N   0  0  0  0  0  0  0  0  0  0  0  0
   44.0327   37.1321   85.2303 C   0  0  0  0  0  0  0  0  0  0  0  0
   43.7824   38.9745   80.4158 C   0  0  0  0  0  0  0  0  0  0  0  0
   45.4181   35.3909   86.1595 C   0  0  0  0  0  0  0  0  0  0  0  0
   45.9345   34.8495   87.1103 O   0  0  0  0  0  0  0  0  0  0  0  0
   44.3811   36.3497   86.2773 C   0  0  0  0  0  0  0  0  0  0  0  0
   43.6517   36.2892   87.4800 C   0  0  0  0  0  0  0  0  0  0  0  0
   43.8729   37.2312   88.2656 O   0  0  0  0  0  0  0  0  0  0  0  0
   42.2047   36.0802   87.3494 C   0  0  0  0  0  0  0  0  0  0  0  0
   45.1868   37.3104   79.2303 N   0  0  0  0  0  0  0  0  0  0  0  0
   46.5264   35.8036   78.1004 O   0  0  0  0  0  0  0  0  0  0  0  0
   43.3479   39.3443   81.6062 C   0  0  0  0  0  0  0  0  0  0  0  0
  1  2  2  0
  2  3  1  0
  2  4  1  0
  3  5  2  0
  1  6  1  0
  4  7  1  0
  4  8  2  0
  7  9  1  0
  5 10  1  0
  7 10  2  0
  5 11  1  0
 10 12  1  0
  8 13  1  0
 11 14  1  0
 14 15  2  0
 12 16  2  0
 14 16  1  0
 16 17  1  0
 17 18  1  0
 17 19  1  0
  6 20  1  0
  8 20  1  0
  6 21  2  0
  9 22  1  0
 13 22  2  0
M  END
>  <ID>  (1) 
conformer_0

$$$$
