
     RDKit          3D

 15 15  0  0  0  0  0  0  0  0999 V2000
   46.9379   35.7251   85.7813 O   0  0  0  0  0  0  0  0  0  0  0  0
   45.7531   36.0013   85.9568 C   0  0  0  0  0  0  0  0  0  0  0  0
   44.8952   36.2137   84.9694 N   0  0  0  0  0  0  0  0  0  0  0  0
   45.3439   36.2225   83.6398 C   0  0  0  0  0  0  0  0  0  0  0  0
   44.7554   37.2767   82.8909 C   0  0  0  0  0  0  0  0  0  0  0  0
   44.9292   37.1974   81.4473 C   0  0  0  0  0  0  0  0  0  0  0  0
   45.2346   35.5360   87.2869 C   0  0  0  0  0  0  0  0  0  0  0  0
   44.2916   38.4828   83.2790 C   0  0  0  0  0  0  0  0  0  0  0  0
   44.0085   39.3289   82.1508 C   0  0  0  0  0  0  0  0  0  0  0  0
   44.2870   39.0844   80.8587 C   0  0  0  0  0  0  0  0  0  0  0  0
   44.7001   37.9103   80.6757 C   0  0  0  0  0  0  0  0  0  0  0  0
   43.7639   35.4899   87.4439 C   0  0  0  0  0  0  0  0  0  0  0  0
   46.6327   36.1088   83.4389 O   0  0  0  0  0  0  0  0  0  0  0  0
   42.9353   35.7488   86.6724 O   0  0  0  0  0  0  0  0  0  0  0  0
   43.3511   34.9191   88.6187 O   0  0  0  0  0  0  0  0  0  0  0  0
  1  2  2  0
  2  3  1  0
  3  4  1  0
  4  5  1  0
  5  6  1  0
  2  7  1  0
  5  8  2  0
  8  9  1  0
  9 10  2  0
  6 11  2  0
 10 11  1  0
  7 12  1  0
  4 13  1  0
 12 14  2  0
 12 15  1  0
M  END
>  <ID>  (1) 
conformer_0

$$$$
