
     RDKit          3D

 14 14  0  0  0  0  0  0  0  0999 V2000
   44.8344   38.0818   79.7399 C   0  0  0  0  0  0  0  0  0  0  0  0
   45.1284   36.9853   80.5446 C   0  0  0  0  0  0  0  0  0  0  0  0
   45.6151   35.8575   80.1340 O   0  0  0  0  0  0  0  0  0  0  0  0
   44.7305   36.8768   81.9499 C   0  0  0  0  0  0  0  0  0  0  0  0
   44.1706   38.0291   82.5560 C   0  0  0  0  0  0  0  0  0  0  0  0
   45.1077   35.7896   82.8779 C   0  0  0  0  0  0  0  0  0  0  0  0
   44.3250   39.2395   80.4159 C   0  0  0  0  0  0  0  0  0  0  0  0
   46.8893   35.8742   79.4064 C   0  0  0  0  0  0  0  0  0  0  0  0
   43.9780   39.1861   81.8136 C   0  0  0  0  0  0  0  0  0  0  0  0
   43.5394   40.5528   82.3388 C   0  0  0  0  0  0  0  0  0  0  0  0
   46.2183   35.6878   83.3800 O   0  0  0  0  0  0  0  0  0  0  0  0
   42.7749   40.5625   83.1807 O   0  0  0  0  0  0  0  0  0  0  0  0
   43.8521   41.6054   81.7606 O   0  0  0  0  0  0  0  0  0  0  0  0
   44.0238   35.2766   83.4611 O   0  0  0  0  0  0  0  0  0  0  0  0
  1  2  2  0
  2  3  1  0
  2  4  1  0
  4  5  2  0
  4  6  1  0
  1  7  1  0
  3  8  1  0
  5  9  1  0
  7  9  2  0
  9 10  1  0
  6 11  1  0
 10 12  1  0
 10 13  2  0
  6 14  2  0
M  END
>  <ID>  (1) 
conformer_0

$$$$
