
     RDKit          3D

 12 12  0  0  0  0  0  0  0  0999 V2000
   43.1169   35.9256   84.1970 C   0  0  0  0  0  0  0  0  0  0  0  0
   43.5219   35.6537   85.3286 C   0  0  0  0  0  0  0  0  0  0  0  0
   43.8942   36.3191   83.1752 C   0  0  0  0  0  0  0  0  0  0  0  0
   42.5786   35.2110   86.4461 C   0  0  0  0  0  0  0  0  0  0  0  0
   43.5134   36.7401   81.8619 O   0  0  0  0  0  0  0  0  0  0  0  0
   44.8909   35.6998   85.8317 C   0  0  0  0  0  0  0  0  0  0  0  0
   45.3916   36.3794   83.4203 C   0  0  0  0  0  0  0  0  0  0  0  0
   45.2959   35.3592   87.0830 O   0  0  0  0  0  0  0  0  0  0  0  0
   46.2415   36.7264   82.3323 C   0  0  0  0  0  0  0  0  0  0  0  0
   46.6140   35.7389   81.6245 O   0  0  0  0  0  0  0  0  0  0  0  0
   45.8256   36.0155   84.6382 C   0  0  0  0  0  0  0  0  0  0  0  0
   46.7711   37.8750   82.3875 O   0  0  0  0  0  0  0  0  0  0  0  0
  1  2  2  0
  1  3  1  0
  2  4  1  0
  3  5  2  0
  2  6  1  0
  3  7  1  0
  6  8  1  0
  7  9  1  0
  9 10  1  0
  6 11  2  0
  7 11  1  0
  9 12  2  0
M  END
>  <ID>  (1) 
conformer_0

$$$$
