
     RDKit          3D

 20 23  0  0  0  0  0  0  0  0999 V2000
   46.4398   35.8014   80.4678 N   0  0  0  0  0  0  0  0  0  0  0  0
   45.5377   36.6654   80.1001 C   0  0  0  0  0  0  0  0  0  0  0  0
   44.9948   37.3869   81.0714 C   0  0  0  0  0  0  0  0  0  0  0  0
   45.1244   37.0155   82.3953 C   0  0  0  0  0  0  0  0  0  0  0  0
   44.5205   37.6058   83.5331 C   0  0  0  0  0  0  0  0  0  0  0  0
   44.0459   38.5071   80.7988 C   0  0  0  0  0  0  0  0  0  0  0  0
   46.2794   36.0666   82.5427 N   0  0  0  0  0  0  0  0  0  0  0  0
   46.4420   35.6686   84.0221 C   0  0  0  0  0  0  0  0  0  0  0  0
   46.6997   35.4383   81.5750 N   0  0  0  0  0  0  0  0  0  0  0  0
   43.6070   39.1794   82.0137 C   0  0  0  0  0  0  0  0  0  0  0  0
   45.4209   36.8577   78.5701 C   0  0  0  0  0  0  0  0  0  0  0  0
   44.6814   36.9927   84.8324 C   0  0  0  0  0  0  0  0  0  0  0  0
   45.9275   35.8956   77.7484 N   0  0  0  0  0  0  0  0  0  0  0  0
   43.7401   38.6981   83.2614 C   0  0  0  0  0  0  0  0  0  0  0  0
   43.7937   37.2624   85.8321 C   0  0  0  0  0  0  0  0  0  0  0  0
   43.7725   36.4175   86.9523 C   0  0  0  0  0  0  0  0  0  0  0  0
   45.6272   36.0306   84.9679 C   0  0  0  0  0  0  0  0  0  0  0  0
   42.8479   36.7324   88.0438 O   0  0  0  0  0  0  0  0  0  0  0  0
   45.6435   35.2566   86.1724 C   0  0  0  0  0  0  0  0  0  0  0  0
   44.7772   35.5560   87.2534 C   0  0  0  0  0  0  0  0  0  0  0  0
  1  2  2  0
  2  3  1  0
  3  4  2  0
  4  5  1  0
  3  6  1  0
  4  7  1  0
  7  8  1  0
  1  9  1  0
  7  9  1  0
  6 10  2  0
  2 11  1  0
  5 12  1  0
 11 13  1  0
  5 14  2  0
 10 14  1  0
 12 15  1  0
 15 16  2  0
  8 17  1  0
 12 17  2  0
 16 18  1  0
 17 19  1  0
 16 20  1  0
 19 20  2  0
M  END
>  <ID>  (1) 
conformer_0

$$$$
