
     RDKit          3D

 24 26  0  0  0  0  0  0  0  0999 V2000
   46.0222   35.2962   82.2874 O   0  0  0  0  0  0  0  0  0  0  0  0
   45.6384   36.3555   81.6968 C   0  0  0  0  0  0  0  0  0  0  0  0
   45.0448   37.4638   82.3177 C   0  0  0  0  0  0  0  0  0  0  0  0
   45.5738   36.3086   80.3115 N   0  0  0  0  0  0  0  0  0  0  0  0
   45.0931   37.4622   79.7770 C   0  0  0  0  0  0  0  0  0  0  0  0
   44.5447   38.3868   80.4262 N   0  0  0  0  0  0  0  0  0  0  0  0
   44.9216   37.3887   83.8116 C   0  0  0  0  0  0  0  0  0  0  0  0
   44.4956   38.4498   81.7219 C   0  0  0  0  0  0  0  0  0  0  0  0
   43.7043   37.3990   84.3641 O   0  0  0  0  0  0  0  0  0  0  0  0
   45.5440   36.2705   84.7108 C   0  0  0  0  0  0  0  0  0  0  0  0
   46.1798   35.3954   79.5202 N   0  0  0  0  0  0  0  0  0  0  0  0
   43.5200   36.8097   85.6058 C   0  0  0  0  0  0  0  0  0  0  0  0
   42.2316   36.1045   85.7192 C   0  0  0  0  0  0  0  0  0  0  0  0
   45.3334   37.1168   78.4088 N   0  0  0  0  0  0  0  0  0  0  0  0
   43.9485   39.6058   82.3540 C   0  0  0  0  0  0  0  0  0  0  0  0
   43.5169   39.8405   83.3847 O   0  0  0  0  0  0  0  0  0  0  0  0
   45.9443   35.9375   78.2847 C   0  0  0  0  0  0  0  0  0  0  0  0
   41.0941   36.9079   85.6153 F   0  0  0  0  0  0  0  0  0  0  0  0
   42.1029   35.1082   84.8594 F   0  0  0  0  0  0  0  0  0  0  0  0
   44.7335   36.0943   85.7815 N   0  0  0  0  0  0  0  0  0  0  0  0
   45.3710   36.1305   87.0171 C   0  0  0  0  0  0  0  0  0  0  0  0
   46.3811   35.3779   76.9746 C   0  0  0  0  0  0  0  0  0  0  0  0
   42.0448   35.4624   86.9877 F   0  0  0  0  0  0  0  0  0  0  0  0
   44.2172   40.7499   81.4806 N   0  0  0  0  0  0  0  0  0  0  0  0
  1  2  2  0
  2  3  1  0
  2  4  1  0
  4  5  1  0
  5  6  1  0
  3  7  1  0
  3  8  2  0
  6  8  1  0
  7  9  1  0
  7 10  1  0
  4 11  1  0
  9 12  1  0
 12 13  1  0
  5 14  2  0
  8 15  1  0
 15 16  2  0
 11 17  2  0
 14 17  1  0
 13 18  1  0
 13 19  1  0
 10 20  1  0
 12 20  1  0
 20 21  1  0
 17 22  1  0
 13 23  1  0
 15 24  1  0
M  END
>  <ID>  (1) 
conformer_0

$$$$
