
     RDKit          3D

 20 22  0  0  0  0  0  0  0  0999 V2000
   46.2840   35.1899   82.7394 O   0  0  0  0  0  0  0  0  0  0  0  0
   45.5997   36.2846   83.0013 C   0  0  0  0  0  0  0  0  0  0  0  0
   45.1520   36.9981   81.9976 C   0  0  0  0  0  0  0  0  0  0  0  0
   45.1267   36.5692   80.5564 C   0  0  0  0  0  0  0  0  0  0  0  0
   44.5962   37.4645   79.6378 C   0  0  0  0  0  0  0  0  0  0  0  0
   45.6341   36.7588   84.2323 N   0  0  0  0  0  0  0  0  0  0  0  0
   44.7410   37.9014   84.5644 C   0  0  0  0  0  0  0  0  0  0  0  0
   44.7590   38.3734   82.1028 C   0  0  0  0  0  0  0  0  0  0  0  0
   46.1063   35.8411   85.2964 C   0  0  0  0  0  0  0  0  0  0  0  0
   44.3500   39.1210   81.2514 C   0  0  0  0  0  0  0  0  0  0  0  0
   44.3477   38.7029   79.8995 C   0  0  0  0  0  0  0  0  0  0  0  0
   45.0987   35.2916   86.1780 C   0  0  0  0  0  0  0  0  0  0  0  0
   44.6148   38.7596   83.5363 C   0  0  0  0  0  0  0  0  0  0  0  0
   45.1049   35.3570   87.5615 C   0  0  0  0  0  0  0  0  0  0  0  0
   43.7285   39.8559   83.7143 C   0  0  0  0  0  0  0  0  0  0  0  0
   43.9719   34.9470   88.3279 C   0  0  0  0  0  0  0  0  0  0  0  0
   43.6011   40.4426   85.0195 O   0  0  0  0  0  0  0  0  0  0  0  0
   43.6838   40.8628   82.7132 C   0  0  0  0  0  0  0  0  0  0  0  0
   42.7678   35.2552   87.7417 C   0  0  0  0  0  0  0  0  0  0  0  0
   43.9502   40.4464   81.4379 C   0  0  0  0  0  0  0  0  0  0  0  0
  1  2  2  0
  2  3  1  0
  3  4  2  0
  4  5  1  0
  2  6  1  0
  6  7  1  0
  3  8  1  0
  6  9  1  0
  8 10  2  0
  5 11  2  0
 10 11  1  0
  9 12  1  0
  7 13  1  0
  8 13  1  0
 12 14  1  0
 13 15  2  0
 14 16  1  0
 15 17  1  0
 15 18  1  0
 16 19  1  0
 10 20  1  0
 18 20  2  0
M  END
>  <ID>  (1) 
conformer_0

$$$$
