
     RDKit          3D

 19 21  0  0  0  0  0  0  0  0999 V2000
   46.2840   35.1899   82.7394 O   0  0  0  0  0  0  0  0  0  0  0  0
   45.5997   36.2846   83.0013 C   0  0  0  0  0  0  0  0  0  0  0  0
   45.1520   36.9981   81.9976 C   0  0  0  0  0  0  0  0  0  0  0  0
   45.1267   36.5692   80.5564 C   0  0  0  0  0  0  0  0  0  0  0  0
   44.5962   37.4645   79.6378 C   0  0  0  0  0  0  0  0  0  0  0  0
   45.6341   36.7588   84.2323 N   0  0  0  0  0  0  0  0  0  0  0  0
   44.7410   37.9014   84.5644 C   0  0  0  0  0  0  0  0  0  0  0  0
   44.7590   38.3734   82.1028 C   0  0  0  0  0  0  0  0  0  0  0  0
   44.3327   39.1205   81.3687 C   0  0  0  0  0  0  0  0  0  0  0  0
   46.1615   35.9543   85.3024 C   0  0  0  0  0  0  0  0  0  0  0  0
   45.2749   35.3191   86.2364 C   0  0  0  0  0  0  0  0  0  0  0  0
   43.8928   40.4926   81.6278 C   0  0  0  0  0  0  0  0  0  0  0  0
   44.2885   38.6880   79.9490 C   0  0  0  0  0  0  0  0  0  0  0  0
   44.2811   36.1235   86.9154 C   0  0  0  0  0  0  0  0  0  0  0  0
   44.8160   38.7421   83.5501 C   0  0  0  0  0  0  0  0  0  0  0  0
   44.2713   36.2260   88.2222 O   0  0  0  0  0  0  0  0  0  0  0  0
   43.8033   40.7376   82.7220 C   0  0  0  0  0  0  0  0  0  0  0  0
   44.2224   39.9753   83.8749 C   0  0  0  0  0  0  0  0  0  0  0  0
   43.3703   36.7773   86.3162 O   0  0  0  0  0  0  0  0  0  0  0  0
  1  2  2  0
  2  3  1  0
  3  4  2  0
  4  5  1  0
  2  6  1  0
  6  7  1  0
  3  8  1  0
  8  9  2  0
  6 10  1  0
 10 11  1  0
  9 12  1  0
  5 13  2  0
  9 13  1  0
 11 14  1  0
  7 15  1  0
  8 15  1  0
 14 16  1  0
 12 17  2  0
 15 18  2  0
 17 18  1  0
 14 19  2  0
M  END
>  <ID>  (1) 
conformer_0

$$$$
