
     RDKit          3D

 22 25  0  0  0  0  0  0  0  0999 V2000
   46.5680   36.2058   85.8453 O   0  0  0  0  0  0  0  0  0  0  0  0
   45.3405   35.9938   85.8902 C   0  0  0  0  0  0  0  0  0  0  0  0
   44.3857   36.1823   84.9209 C   0  0  0  0  0  0  0  0  0  0  0  0
   44.8382   36.7385   83.7310 N   0  0  0  0  0  0  0  0  0  0  0  0
   44.5197   38.0248   83.4004 C   0  0  0  0  0  0  0  0  0  0  0  0
   43.3545   36.9883   85.5949 C   0  0  0  0  0  0  0  0  0  0  0  0
   44.5402   38.4115   82.0380 C   0  0  0  0  0  0  0  0  0  0  0  0
   44.9951   35.6349   87.1511 N   0  0  0  0  0  0  0  0  0  0  0  0
   44.3045   39.6675   81.5284 C   0  0  0  0  0  0  0  0  0  0  0  0
   46.0974   36.4147   83.0456 C   0  0  0  0  0  0  0  0  0  0  0  0
   43.7733   35.5813   87.6624 C   0  0  0  0  0  0  0  0  0  0  0  0
   44.6423   37.4676   80.9212 C   0  0  0  0  0  0  0  0  0  0  0  0
   42.2104   37.1953   84.6249 C   0  0  0  0  0  0  0  0  0  0  0  0
   41.1036   36.9226   84.9398 O   0  0  0  0  0  0  0  0  0  0  0  0
   42.6122   38.1517   83.6748 C   0  0  0  0  0  0  0  0  0  0  0  0
   43.4775   35.1873   88.7789 O   0  0  0  0  0  0  0  0  0  0  0  0
   42.6554   36.1076   86.7955 C   0  0  0  0  0  0  0  0  0  0  0  0
   44.5709   38.2487   79.7664 N   0  0  0  0  0  0  0  0  0  0  0  0
   45.8374   35.4096   81.9972 C   0  0  0  0  0  0  0  0  0  0  0  0
   44.4230   39.6021   80.1498 N   0  0  0  0  0  0  0  0  0  0  0  0
   45.2223   36.0070   80.9349 C   0  0  0  0  0  0  0  0  0  0  0  0
   44.1377   40.9766   82.1601 C   0  0  0  0  0  0  0  0  0  0  0  0
  1  2  2  0
  2  3  1  0
  3  4  1  0
  4  5  1  0
  3  6  1  0
  5  7  1  0
  2  8  1  0
  7  9  2  0
  4 10  1  0
  8 11  1  0
  7 12  1  0
  6 13  1  0
 13 14  2  0
  5 15  1  0
 13 15  1  0
 11 16  2  0
  6 17  1  0
 11 17  1  0
 12 18  2  0
 10 19  1  0
  9 20  1  0
 18 20  1  0
 12 21  1  0
 19 21  2  0
  9 22  1  0
M  END
>  <ID>  (1) 
conformer_0

$$$$
