
     RDKit          3D

 20 23  0  0  0  0  0  0  0  0999 V2000
   46.9379   35.7251   85.7813 O   0  0  0  0  0  0  0  0  0  0  0  0
   45.7531   36.0013   85.9568 C   0  0  0  0  0  0  0  0  0  0  0  0
   44.8952   36.2137   84.9694 N   0  0  0  0  0  0  0  0  0  0  0  0
   45.3439   36.2225   83.6398 C   0  0  0  0  0  0  0  0  0  0  0  0
   43.7020   36.8314   85.3784 C   0  0  0  0  0  0  0  0  0  0  0  0
   42.8213   37.3464   84.3333 C   0  0  0  0  0  0  0  0  0  0  0  0
   46.2664   35.9806   83.2115 O   0  0  0  0  0  0  0  0  0  0  0  0
   43.2152   36.7657   86.6927 C   0  0  0  0  0  0  0  0  0  0  0  0
   44.3277   36.8154   82.6623 C   0  0  0  0  0  0  0  0  0  0  0  0
   45.2841   35.8604   87.3455 C   0  0  0  0  0  0  0  0  0  0  0  0
   43.2383   37.4505   83.0505 C   0  0  0  0  0  0  0  0  0  0  0  0
   44.0780   36.3619   87.6572 C   0  0  0  0  0  0  0  0  0  0  0  0
   44.8163   36.6717   81.3870 C   0  0  0  0  0  0  0  0  0  0  0  0
   41.9638   38.3776   84.8722 C   0  0  0  0  0  0  0  0  0  0  0  0
   43.7276   36.3504   89.0571 O   0  0  0  0  0  0  0  0  0  0  0  0
   44.0026   37.3808   80.3713 C   0  0  0  0  0  0  0  0  0  0  0  0
   42.5366   38.0744   82.1473 C   0  0  0  0  0  0  0  0  0  0  0  0
   41.3984   38.7367   82.5887 O   0  0  0  0  0  0  0  0  0  0  0  0
   42.8682   38.1110   80.8037 C   0  0  0  0  0  0  0  0  0  0  0  0
   41.5608   39.1959   83.6973 C   0  0  0  0  0  0  0  0  0  0  0  0
  1  2  2  0
  2  3  1  0
  3  4  1  0
  3  5  1  0
  5  6  1  0
  4  7  2  0
  5  8  2  0
  4  9  1  0
  2 10  1  0
  6 11  1  0
  9 11  1  0
  8 12  1  0
 10 12  2  0
  9 13  2  0
  6 14  1  0
 12 15  1  0
 13 16  1  0
 11 17  2  0
 17 18  1  0
 16 19  2  0
 17 19  1  0
 14 20  1  0
 18 20  1  0
M  END
>  <ID>  (1) 
conformer_0

$$$$
