
     RDKit          3D

 22 25  0  0  0  0  0  0  0  0999 V2000
   47.0551   35.8325   84.6668 O   0  0  0  0  0  0  0  0  0  0  0  0
   46.0188   36.0231   84.0866 C   0  0  0  0  0  0  0  0  0  0  0  0
   45.2974   37.1838   84.0031 N   0  0  0  0  0  0  0  0  0  0  0  0
   44.2109   37.3399   83.1320 C   0  0  0  0  0  0  0  0  0  0  0  0
   45.3522   34.8769   83.3132 C   0  0  0  0  0  0  0  0  0  0  0  0
   44.0607   38.5818   82.5099 C   0  0  0  0  0  0  0  0  0  0  0  0
   43.0648   37.0883   83.8550 C   0  0  0  0  0  0  0  0  0  0  0  0
   45.1339   35.3174   81.8688 C   0  0  0  0  0  0  0  0  0  0  0  0
   43.5648   39.6006   83.1705 C   0  0  0  0  0  0  0  0  0  0  0  0
   42.1519   38.0490   84.2488 C   0  0  0  0  0  0  0  0  0  0  0  0
   44.4461   36.4792   81.8799 C   0  0  0  0  0  0  0  0  0  0  0  0
   44.4294   37.2552   80.6730 C   0  0  0  0  0  0  0  0  0  0  0  0
   44.5396   38.8367   81.3025 C   0  0  0  0  0  0  0  0  0  0  0  0
   42.4867   39.4535   83.8200 C   0  0  0  0  0  0  0  0  0  0  0  0
   45.6794   36.7775   79.9851 C   0  0  0  0  0  0  0  0  0  0  0  0
   41.0001   37.7785   84.9935 C   0  0  0  0  0  0  0  0  0  0  0  0
   45.6723   36.7072   78.6633 C   0  0  0  0  0  0  0  0  0  0  0  0
   44.8118   39.7674   80.6980 O   0  0  0  0  0  0  0  0  0  0  0  0
   46.4042   35.6883   78.0997 O   0  0  0  0  0  0  0  0  0  0  0  0
   41.7645   40.4343   84.3585 O   0  0  0  0  0  0  0  0  0  0  0  0
   45.4404   37.5392   77.8617 O   0  0  0  0  0  0  0  0  0  0  0  0
   45.7661   35.7016   80.8960 C   0  0  0  0  0  0  0  0  0  0  0  0
  1  2  2  0
  2  3  1  0
  3  4  1  0
  2  5  1  0
  4  6  1  0
  4  7  1  0
  5  8  1  0
  6  9  2  0
  7 10  2  0
  4 11  1  0
  8 11  1  0
 11 12  1  0
  6 13  1  0
 12 13  1  0
  9 14  1  0
 10 14  1  0
 12 15  1  0
 10 16  1  0
 15 17  1  0
 13 18  2  0
 17 19  1  0
 14 20  2  0
 17 21  2  0
  8 22  1  0
 15 22  1  0
M  END
>  <ID>  (1) 
conformer_0

$$$$
