
     RDKit          3D

 18 20  0  0  0  0  0  0  0  0999 V2000
   47.0551   35.8325   84.6668 O   0  0  0  0  0  0  0  0  0  0  0  0
   46.0188   36.0231   84.0866 C   0  0  0  0  0  0  0  0  0  0  0  0
   45.2974   37.1838   84.0031 N   0  0  0  0  0  0  0  0  0  0  0  0
   44.2109   37.3399   83.1320 C   0  0  0  0  0  0  0  0  0  0  0  0
   45.3522   34.8769   83.3132 C   0  0  0  0  0  0  0  0  0  0  0  0
   44.0607   38.5818   82.5099 C   0  0  0  0  0  0  0  0  0  0  0  0
   43.0648   37.0883   83.8550 C   0  0  0  0  0  0  0  0  0  0  0  0
   45.1339   35.3174   81.8688 C   0  0  0  0  0  0  0  0  0  0  0  0
   43.5648   39.6006   83.1705 C   0  0  0  0  0  0  0  0  0  0  0  0
   42.1519   38.0490   84.2488 C   0  0  0  0  0  0  0  0  0  0  0  0
   40.9591   37.7813   85.0271 C   0  0  0  0  0  0  0  0  0  0  0  0
   44.5067   36.4083   81.9662 N   0  0  0  0  0  0  0  0  0  0  0  0
   42.3914   39.3926   83.8244 C   0  0  0  0  0  0  0  0  0  0  0  0
   41.6664   40.3345   84.3303 O   0  0  0  0  0  0  0  0  0  0  0  0
   43.5991   41.0732   82.8261 C   0  0  0  0  0  0  0  0  0  0  0  0
   44.6472   37.3178   80.8085 C   0  0  0  0  0  0  0  0  0  0  0  0
   45.6070   34.7758   81.0154 O   0  0  0  0  0  0  0  0  0  0  0  0
   44.6731   38.6421   81.1624 C   0  0  0  0  0  0  0  0  0  0  0  0
  1  2  2  0
  2  3  1  0
  3  4  1  0
  2  5  1  0
  4  6  1  0
  4  7  1  0
  5  8  1  0
  6  9  2  0
  7 10  2  0
 10 11  1  0
  4 12  1  0
  8 12  1  0
  9 13  1  0
 10 13  1  0
 13 14  2  0
  9 15  1  0
 12 16  1  0
  8 17  2  0
  6 18  1  0
 16 18  1  0
M  END
>  <ID>  (1) 
conformer_0

$$$$
