
     RDKit          3D

 21 24  0  0  0  0  0  0  0  0999 V2000
   46.4398   35.8014   80.4678 N   0  0  0  0  0  0  0  0  0  0  0  0
   45.9973   36.1691   81.5459 C   0  0  0  0  0  0  0  0  0  0  0  0
   45.1551   37.2113   81.6135 N   0  0  0  0  0  0  0  0  0  0  0  0
   46.2401   35.5322   82.8262 N   0  0  0  0  0  0  0  0  0  0  0  0
   44.4888   37.6556   82.7291 C   0  0  0  0  0  0  0  0  0  0  0  0
   45.6535   36.0549   83.9216 C   0  0  0  0  0  0  0  0  0  0  0  0
   44.8055   37.0003   83.8698 N   0  0  0  0  0  0  0  0  0  0  0  0
   44.2521   37.4774   85.0936 C   0  0  0  0  0  0  0  0  0  0  0  0
   42.8944   37.5775   85.0420 O   0  0  0  0  0  0  0  0  0  0  0  0
   44.9766   37.5957   80.2986 C   0  0  0  0  0  0  0  0  0  0  0  0
   43.7111   38.7318   82.7039 O   0  0  0  0  0  0  0  0  0  0  0  0
   45.8014   36.6953   79.5573 C   0  0  0  0  0  0  0  0  0  0  0  0
   46.0478   36.5476   78.0713 C   0  0  0  0  0  0  0  0  0  0  0  0
   44.5836   36.3999   86.1708 C   0  0  0  0  0  0  0  0  0  0  0  0
   45.7660   35.6370   85.4814 C   0  0  0  0  0  0  0  0  0  0  0  0
   43.7615   35.8009   86.8243 C   0  0  0  0  0  0  0  0  0  0  0  0
   46.3503   35.4234   77.5577 O   0  0  0  0  0  0  0  0  0  0  0  0
   45.6796   37.5291   77.3347 O   0  0  0  0  0  0  0  0  0  0  0  0
   42.5250   36.4946   87.1344 C   0  0  0  0  0  0  0  0  0  0  0  0
   42.1007   37.3924   86.1589 C   0  0  0  0  0  0  0  0  0  0  0  0
   41.7838   36.2058   88.0995 O   0  0  0  0  0  0  0  0  0  0  0  0
  1  2  2  0
  2  3  1  0
  2  4  1  0
  3  5  1  0
  4  6  2  0
  5  7  1  0
  6  7  1  0
  7  8  1  0
  8  9  1  0
  3 10  1  0
  5 11  2  0
  1 12  1  0
 10 12  2  0
 12 13  1  0
  8 14  1  0
  6 15  1  0
 14 15  1  0
 14 16  1  0
 13 17  2  0
 13 18  1  0
 16 19  1  0
  9 20  1  0
 19 20  1  0
 19 21  2  0
M  END
>  <ID>  (1) 
conformer_0

$$$$
