
     RDKit          3D

 24 28  0  0  0  0  0  0  0  0999 V2000
   43.8585   40.8346   82.3352 C   0  0  0  0  0  0  0  0  0  0  0  0
   44.2278   39.7364   81.6341 C   0  0  0  0  0  0  0  0  0  0  0  0
   44.3960   38.5812   82.3361 C   0  0  0  0  0  0  0  0  0  0  0  0
   44.3057   38.6637   83.7369 C   0  0  0  0  0  0  0  0  0  0  0  0
   44.5727   37.3278   84.4104 N   0  0  0  0  0  0  0  0  0  0  0  0
   44.9115   37.4043   81.7174 C   0  0  0  0  0  0  0  0  0  0  0  0
   45.3982   36.4543   83.7488 C   0  0  0  0  0  0  0  0  0  0  0  0
   43.7459   37.0113   85.5302 C   0  0  0  0  0  0  0  0  0  0  0  0
   45.3535   36.3345   82.4367 C   0  0  0  0  0  0  0  0  0  0  0  0
   45.1332   35.0883   84.4542 C   0  0  0  0  0  0  0  0  0  0  0  0
   44.3920   35.4840   85.7719 C   0  0  0  0  0  0  0  0  0  0  0  0
   43.8298   37.8783   86.6105 C   0  0  0  0  0  0  0  0  0  0  0  0
   46.7700   36.8022   84.1615 C   0  0  0  0  0  0  0  0  0  0  0  0
   44.8924   37.2875   80.3325 C   0  0  0  0  0  0  0  0  0  0  0  0
   44.6521   38.1724   79.5226 O   0  0  0  0  0  0  0  0  0  0  0  0
   45.6038   35.2693   81.5589 N   0  0  0  0  0  0  0  0  0  0  0  0
   45.3864   35.9109   80.2696 C   0  0  0  0  0  0  0  0  0  0  0  0
   43.6336   40.8828   83.4968 C   0  0  0  0  0  0  0  0  0  0  0  0
   43.8470   39.7376   84.3258 C   0  0  0  0  0  0  0  0  0  0  0  0
   44.3686   37.2453   87.7310 C   0  0  0  0  0  0  0  0  0  0  0  0
   44.9467   35.8327   87.2602 C   0  0  0  0  0  0  0  0  0  0  0  0
   46.0456   35.6694   79.0836 C   0  0  0  0  0  0  0  0  0  0  0  0
   47.1113   35.4690   78.8670 O   0  0  0  0  0  0  0  0  0  0  0  0
   45.2572   35.4737   77.9146 O   0  0  0  0  0  0  0  0  0  0  0  0
  1  2  1  0
  2  3  2  0
  3  4  1  0
  4  5  1  0
  3  6  1  0
  5  7  1  0
  5  8  1  0
  6  9  1  0
  7  9  1  0
  7 10  1  0
  8 11  1  0
 10 11  1  0
  8 12  1  0
  7 13  1  0
  6 14  2  0
 14 15  1  0
  9 16  2  0
 14 17  1  0
 16 17  1  0
  1 18  2  0
  4 19  2  0
 18 19  1  0
 12 20  1  0
 11 21  1  0
 20 21  1  0
 17 22  1  0
 22 23  2  0
 22 24  1  0
M  END
>  <ID>  (1) 
conformer_0

$$$$
