
     RDKit          3D

 21 23  0  0  0  0  0  0  0  0999 V2000
   46.4398   35.8014   80.4678 N   0  0  0  0  0  0  0  0  0  0  0  0
   45.9973   36.1691   81.5459 C   0  0  0  0  0  0  0  0  0  0  0  0
   45.1075   37.3080   81.5982 C   0  0  0  0  0  0  0  0  0  0  0  0
   44.5920   37.8434   82.7735 C   0  0  0  0  0  0  0  0  0  0  0  0
   43.7047   39.0374   82.6005 C   0  0  0  0  0  0  0  0  0  0  0  0
   44.6148   37.1561   83.9155 N   0  0  0  0  0  0  0  0  0  0  0  0
   46.0362   35.4716   82.8415 N   0  0  0  0  0  0  0  0  0  0  0  0
   45.4396   36.0262   83.9110 C   0  0  0  0  0  0  0  0  0  0  0  0
   43.9434   39.8832   81.6036 C   0  0  0  0  0  0  0  0  0  0  0  0
   43.5110   41.1720   81.6024 C   0  0  0  0  0  0  0  0  0  0  0  0
   45.5499   35.3748   85.2374 C   0  0  0  0  0  0  0  0  0  0  0  0
   45.9709   36.1277   79.3302 C   0  0  0  0  0  0  0  0  0  0  0  0
   42.9609   39.3817   83.7375 C   0  0  0  0  0  0  0  0  0  0  0  0
   42.6762   38.4827   84.7570 O   0  0  0  0  0  0  0  0  0  0  0  0
   42.3410   40.6917   83.6574 C   0  0  0  0  0  0  0  0  0  0  0  0
   41.4855   41.0784   84.7151 O   0  0  0  0  0  0  0  0  0  0  0  0
   45.2406   36.9389   79.1721 N   0  0  0  0  0  0  0  0  0  0  0  0
   44.7155   37.5993   80.2509 C   0  0  0  0  0  0  0  0  0  0  0  0
   46.7708   35.4457   78.1939 O   0  0  0  0  0  0  0  0  0  0  0  0
   42.6091   41.6065   82.6553 C   0  0  0  0  0  0  0  0  0  0  0  0
   46.4084   36.0584   77.0403 C   0  0  0  0  0  0  0  0  0  0  0  0
  1  2  1  0
  2  3  2  0
  3  4  1  0
  4  5  1  0
  4  6  2  0
  2  7  1  0
  6  8  1  0
  7  8  2  0
  5  9  1  0
  9 10  2  0
  8 11  1  0
  1 12  1  0
  5 13  2  0
 13 14  1  0
 13 15  1  0
 15 16  1  0
 12 17  2  0
  3 18  1  0
 17 18  1  0
 12 19  1  0
 10 20  1  0
 15 20  2  0
 19 21  1  0
M  END
>  <ID>  (1) 
conformer_0

$$$$
