
     RDKit          3D

 22 24  0  0  0  0  0  0  0  0999 V2000
   46.4181   35.8108   85.7240 O   0  0  0  0  0  0  0  0  0  0  0  0
   46.0967   36.0999   84.6855 C   0  0  0  0  0  0  0  0  0  0  0  0
   44.9756   36.8062   84.3070 C   0  0  0  0  0  0  0  0  0  0  0  0
   44.8249   37.1621   82.8994 C   0  0  0  0  0  0  0  0  0  0  0  0
   44.8380   38.1086   85.0091 C   0  0  0  0  0  0  0  0  0  0  0  0
   43.8117   35.8582   84.5938 C   0  0  0  0  0  0  0  0  0  0  0  0
   42.6310   36.2908   85.3139 C   0  0  0  0  0  0  0  0  0  0  0  0
   47.0111   35.8126   83.7897 O   0  0  0  0  0  0  0  0  0  0  0  0
   44.8781   36.4071   81.7997 C   0  0  0  0  0  0  0  0  0  0  0  0
   44.5491   38.5290   82.6520 C   0  0  0  0  0  0  0  0  0  0  0  0
   43.9486   38.2320   86.1199 C   0  0  0  0  0  0  0  0  0  0  0  0
   44.2312   39.1138   84.0077 C   0  0  0  0  0  0  0  0  0  0  0  0
   42.7747   37.4833   85.8587 N   0  0  0  0  0  0  0  0  0  0  0  0
   43.7892   39.4339   86.6337 O   0  0  0  0  0  0  0  0  0  0  0  0
   45.3182   34.9661   81.8870 C   0  0  0  0  0  0  0  0  0  0  0  0
   44.5262   36.9799   80.6414 C   0  0  0  0  0  0  0  0  0  0  0  0
   44.2934   38.2516   80.4185 C   0  0  0  0  0  0  0  0  0  0  0  0
   44.0351   38.8175   79.1948 O   0  0  0  0  0  0  0  0  0  0  0  0
   41.6741   35.5959   85.3624 O   0  0  0  0  0  0  0  0  0  0  0  0
   44.2429   39.0597   81.5488 C   0  0  0  0  0  0  0  0  0  0  0  0
   41.4942   37.9555   86.5556 C   0  0  0  0  0  0  0  0  0  0  0  0
   43.9941   40.4638   81.5021 O   0  0  0  0  0  0  0  0  0  0  0  0
  1  2  2  0
  2  3  1  0
  3  4  1  0
  3  5  1  0
  3  6  1  0
  6  7  1  0
  2  8  1  0
  4  9  2  0
  4 10  1  0
  5 11  1  0
  5 12  1  0
 10 12  1  0
  7 13  1  0
 11 13  1  0
 11 14  1  0
  9 15  1  0
  9 16  1  0
 16 17  2  0
 17 18  1  0
  7 19  2  0
 10 20  2  0
 17 20  1  0
 13 21  1  0
 20 22  1  0
M  END
>  <ID>  (1) 
conformer_0

$$$$
