
     RDKit          3D

 22 25  0  0  0  0  0  0  0  0999 V2000
   46.5680   36.2058   85.8453 O   0  0  0  0  0  0  0  0  0  0  0  0
   45.3405   35.9938   85.8902 C   0  0  0  0  0  0  0  0  0  0  0  0
   44.3857   36.1823   84.9209 C   0  0  0  0  0  0  0  0  0  0  0  0
   44.8382   36.7385   83.7310 N   0  0  0  0  0  0  0  0  0  0  0  0
   44.5197   38.0248   83.4004 C   0  0  0  0  0  0  0  0  0  0  0  0
   43.3545   36.9883   85.5949 C   0  0  0  0  0  0  0  0  0  0  0  0
   44.5402   38.4115   82.0380 C   0  0  0  0  0  0  0  0  0  0  0  0
   44.9951   35.6349   87.1511 N   0  0  0  0  0  0  0  0  0  0  0  0
   44.3045   39.6675   81.5284 C   0  0  0  0  0  0  0  0  0  0  0  0
   46.0974   36.4147   83.0456 C   0  0  0  0  0  0  0  0  0  0  0  0
   43.7733   35.5813   87.6624 C   0  0  0  0  0  0  0  0  0  0  0  0
   44.6423   37.4676   80.9212 C   0  0  0  0  0  0  0  0  0  0  0  0
   42.2104   37.1953   84.6249 C   0  0  0  0  0  0  0  0  0  0  0  0
   41.1036   36.9226   84.9398 O   0  0  0  0  0  0  0  0  0  0  0  0
   42.6122   38.1517   83.6748 C   0  0  0  0  0  0  0  0  0  0  0  0
   43.4775   35.1873   88.7789 O   0  0  0  0  0  0  0  0  0  0  0  0
   45.7461   35.4834   81.9001 C   0  0  0  0  0  0  0  0  0  0  0  0
   42.7244   36.2422   86.8043 C   0  0  0  0  0  0  0  0  0  0  0  0
   44.3356   39.9900   80.2040 C   0  0  0  0  0  0  0  0  0  0  0  0
   44.7710   37.7823   79.6759 C   0  0  0  0  0  0  0  0  0  0  0  0
   44.7680   36.1257   81.1357 O   0  0  0  0  0  0  0  0  0  0  0  0
   44.6069   39.1023   79.2844 C   0  0  0  0  0  0  0  0  0  0  0  0
  1  2  2  0
  2  3  1  0
  3  4  1  0
  4  5  1  0
  3  6  1  0
  5  7  1  0
  2  8  1  0
  7  9  2  0
  4 10  1  0
  8 11  1  0
  7 12  1  0
  6 13  1  0
 13 14  2  0
  5 15  1  0
 13 15  1  0
 11 16  2  0
 10 17  1  0
  6 18  1  0
 11 18  1  0
  9 19  1  0
 12 20  2  0
 12 21  1  0
 17 21  1  0
 19 22  2  0
 20 22  1  0
M  END
>  <ID>  (1) 
conformer_0

$$$$
