
     RDKit          3D

 24 27  0  0  0  0  0  0  0  0999 V2000
   46.9379   35.7251   85.7813 O   0  0  0  0  0  0  0  0  0  0  0  0
   45.7531   36.0013   85.9568 C   0  0  0  0  0  0  0  0  0  0  0  0
   44.8952   36.2137   84.9694 N   0  0  0  0  0  0  0  0  0  0  0  0
   45.3439   36.2225   83.6398 C   0  0  0  0  0  0  0  0  0  0  0  0
   43.7020   36.8314   85.3784 C   0  0  0  0  0  0  0  0  0  0  0  0
   42.8213   37.3464   84.3333 C   0  0  0  0  0  0  0  0  0  0  0  0
   43.4260   37.5934   83.0423 C   0  0  0  0  0  0  0  0  0  0  0  0
   44.8112   37.3656   82.8828 C   0  0  0  0  0  0  0  0  0  0  0  0
   42.1034   38.5932   84.7729 C   0  0  0  0  0  0  0  0  0  0  0  0
   43.2475   39.0737   82.7360 N   0  0  0  0  0  0  0  0  0  0  0  0
   43.9056   39.7189   81.7303 C   0  0  0  0  0  0  0  0  0  0  0  0
   41.2362   38.6655   85.7070 O   0  0  0  0  0  0  0  0  0  0  0  0
   45.0955   37.3804   81.3447 C   0  0  0  0  0  0  0  0  0  0  0  0
   43.9263   40.9400   81.5042 O   0  0  0  0  0  0  0  0  0  0  0  0
   45.3537   35.8081   87.2464 O   0  0  0  0  0  0  0  0  0  0  0  0
   42.4167   39.5599   83.7912 N   0  0  0  0  0  0  0  0  0  0  0  0
   45.9722   36.6533   80.7355 C   0  0  0  0  0  0  0  0  0  0  0  0
   44.8908   38.8464   81.0326 C   0  0  0  0  0  0  0  0  0  0  0  0
   46.8710   36.0539   81.3441 O   0  0  0  0  0  0  0  0  0  0  0  0
   45.7871   36.3807   79.4569 N   0  0  0  0  0  0  0  0  0  0  0  0
   44.2336   35.8168   87.5912 C   0  0  0  0  0  0  0  0  0  0  0  0
   43.8119   35.5456   88.8613 C   0  0  0  0  0  0  0  0  0  0  0  0
   46.4933   35.4393   78.6010 O   0  0  0  0  0  0  0  0  0  0  0  0
   43.2032   36.3827   86.6643 C   0  0  0  0  0  0  0  0  0  0  0  0
  1  2  2  0
  2  3  1  0
  3  4  1  0
  3  5  1  0
  5  6  1  0
  6  7  1  0
  4  8  1  0
  7  8  1  0
  6  9  1  0
  7 10  1  0
 10 11  1  0
  9 12  2  0
  8 13  1  0
 11 14  2  0
  2 15  1  0
  9 16  1  0
 10 16  1  0
 13 17  1  0
 11 18  1  0
 13 18  1  0
 17 19  2  0
 17 20  1  0
 15 21  1  0
 21 22  1  0
 20 23  1  0
  5 24  1  0
 21 24  2  0
M  END
>  <ID>  (1) 
conformer_0

$$$$
