
     RDKit          3D

 24 26  0  0  0  0  0  0  0  0999 V2000
   46.2840   35.1899   82.7394 O   0  0  0  0  0  0  0  0  0  0  0  0
   45.5997   36.2846   83.0013 C   0  0  0  0  0  0  0  0  0  0  0  0
   45.1520   36.9981   81.9976 C   0  0  0  0  0  0  0  0  0  0  0  0
   45.1267   36.5692   80.5564 C   0  0  0  0  0  0  0  0  0  0  0  0
   44.5962   37.4645   79.6378 C   0  0  0  0  0  0  0  0  0  0  0  0
   45.6341   36.7588   84.2323 N   0  0  0  0  0  0  0  0  0  0  0  0
   44.7410   37.9014   84.5644 C   0  0  0  0  0  0  0  0  0  0  0  0
   44.7590   38.3734   82.1028 C   0  0  0  0  0  0  0  0  0  0  0  0
   44.3327   39.1205   81.3687 C   0  0  0  0  0  0  0  0  0  0  0  0
   46.1615   35.9543   85.3024 C   0  0  0  0  0  0  0  0  0  0  0  0
   45.2749   35.3191   86.2364 C   0  0  0  0  0  0  0  0  0  0  0  0
   43.8928   40.4926   81.6278 C   0  0  0  0  0  0  0  0  0  0  0  0
   43.7622   41.4162   80.7810 O   0  0  0  0  0  0  0  0  0  0  0  0
   44.2529   36.1426   86.8814 C   0  0  0  0  0  0  0  0  0  0  0  0
   43.5752   40.7185   82.9446 N   0  0  0  0  0  0  0  0  0  0  0  0
   44.1546   36.0740   88.2109 C   0  0  0  0  0  0  0  0  0  0  0  0
   44.7286   36.9981   78.2759 C   0  0  0  0  0  0  0  0  0  0  0  0
   44.3104   38.7452   79.9572 C   0  0  0  0  0  0  0  0  0  0  0  0
   45.8461   36.1255   77.9409 C   0  0  0  0  0  0  0  0  0  0  0  0
   42.8679   35.8810   86.3032 C   0  0  0  0  0  0  0  0  0  0  0  0
   46.5329   35.6197   78.7646 O   0  0  0  0  0  0  0  0  0  0  0  0
   44.5477   38.7099   83.6106 C   0  0  0  0  0  0  0  0  0  0  0  0
   46.0776   35.7457   76.7212 O   0  0  0  0  0  0  0  0  0  0  0  0
   44.0425   39.9330   83.8934 C   0  0  0  0  0  0  0  0  0  0  0  0
  1  2  2  0
  2  3  1  0
  3  4  2  0
  4  5  1  0
  2  6  1  0
  6  7  1  0
  3  8  1  0
  8  9  2  0
  6 10  1  0
 10 11  1  0
  9 12  1  0
 12 13  2  0
 11 14  1  0
 12 15  1  0
 14 16  1  0
  5 17  1  0
  5 18  2  0
  9 18  1  0
 17 19  1  0
 14 20  1  0
 19 21  1  0
  7 22  1  0
  8 22  1  0
 19 23  2  0
 15 24  1  0
 22 24  2  0
M  END
>  <ID>  (1) 
conformer_0

$$$$
