
     RDKit          3D

 24 27  0  0  0  0  0  0  0  0999 V2000
   46.2840   35.1899   82.7394 O   0  0  0  0  0  0  0  0  0  0  0  0
   45.5997   36.2846   83.0013 C   0  0  0  0  0  0  0  0  0  0  0  0
   45.6078   36.6837   84.1871 N   0  0  0  0  0  0  0  0  0  0  0  0
   45.3713   37.1278   81.8173 C   0  0  0  0  0  0  0  0  0  0  0  0
   45.3422   36.6270   80.5190 C   0  0  0  0  0  0  0  0  0  0  0  0
   44.7992   38.3882   82.1048 C   0  0  0  0  0  0  0  0  0  0  0  0
   44.7443   37.7929   79.6916 N   0  0  0  0  0  0  0  0  0  0  0  0
   45.8701   35.4433   79.9545 C   0  0  0  0  0  0  0  0  0  0  0  0
   44.4833   39.2411   83.0509 C   0  0  0  0  0  0  0  0  0  0  0  0
   44.7855   38.8679   84.2926 C   0  0  0  0  0  0  0  0  0  0  0  0
   46.3435   35.6177   78.6200 C   0  0  0  0  0  0  0  0  0  0  0  0
   43.6306   40.2290   82.8887 N   0  0  0  0  0  0  0  0  0  0  0  0
   44.4553   38.7538   80.6567 N   0  0  0  0  0  0  0  0  0  0  0  0
   46.0966   35.6904   85.2304 C   0  0  0  0  0  0  0  0  0  0  0  0
   44.8263   37.6155   84.8748 C   0  0  0  0  0  0  0  0  0  0  0  0
   44.4713   39.8030   85.2485 C   0  0  0  0  0  0  0  0  0  0  0  0
   45.1634   37.5867   86.2479 O   0  0  0  0  0  0  0  0  0  0  0  0
   45.6238   36.1510   86.4261 C   0  0  0  0  0  0  0  0  0  0  0  0
   44.5748   35.3381   87.0350 C   0  0  0  0  0  0  0  0  0  0  0  0
   43.4192   35.5338   86.3839 O   0  0  0  0  0  0  0  0  0  0  0  0
   46.4165   34.7139   77.7389 O   0  0  0  0  0  0  0  0  0  0  0  0
   46.7277   36.8655   78.1785 O   0  0  0  0  0  0  0  0  0  0  0  0
   43.9252   41.0799   84.9556 C   0  0  0  0  0  0  0  0  0  0  0  0
   43.5071   41.2056   83.8461 C   0  0  0  0  0  0  0  0  0  0  0  0
  1  2  2  0
  2  3  1  0
  2  4  1  0
  4  5  2  0
  4  6  1  0
  5  7  1  0
  5  8  1  0
  6  9  1  0
  9 10  1  0
  8 11  1  0
  9 12  2  0
  6 13  1  0
  7 13  2  0
  3 14  1  0
  3 15  1  0
 10 15  1  0
 10 16  2  0
 15 17  1  0
 14 18  1  0
 17 18  1  0
 18 19  1  0
 19 20  1  0
 11 21  2  0
 11 22  1  0
 16 23  1  0
 12 24  1  0
 23 24  2  0
M  END
>  <ID>  (1) 
conformer_0

$$$$
