
     RDKit          3D

 24 28  0  0  0  0  0  0  0  0999 V2000
   46.9379   35.7251   85.7813 O   0  0  0  0  0  0  0  0  0  0  0  0
   45.7531   36.0013   85.9568 C   0  0  0  0  0  0  0  0  0  0  0  0
   44.8952   36.2137   84.9694 N   0  0  0  0  0  0  0  0  0  0  0  0
   45.3439   36.2225   83.6398 C   0  0  0  0  0  0  0  0  0  0  0  0
   43.7020   36.8314   85.3784 C   0  0  0  0  0  0  0  0  0  0  0  0
   42.8213   37.3464   84.3333 C   0  0  0  0  0  0  0  0  0  0  0  0
   43.4260   37.5934   83.0423 C   0  0  0  0  0  0  0  0  0  0  0  0
   44.8112   37.3656   82.8828 C   0  0  0  0  0  0  0  0  0  0  0  0
   42.1034   38.5932   84.7729 C   0  0  0  0  0  0  0  0  0  0  0  0
   45.1947   37.1931   81.4096 C   0  0  0  0  0  0  0  0  0  0  0  0
   45.1861   35.5225   87.1973 C   0  0  0  0  0  0  0  0  0  0  0  0
   43.1882   39.1132   82.7917 C   0  0  0  0  0  0  0  0  0  0  0  0
   43.7865   39.8227   81.7900 N   0  0  0  0  0  0  0  0  0  0  0  0
   42.4516   39.7057   83.8446 C   0  0  0  0  0  0  0  0  0  0  0  0
   43.0890   36.6678   86.5571 C   0  0  0  0  0  0  0  0  0  0  0  0
   46.4014   36.4170   81.1055 C   0  0  0  0  0  0  0  0  0  0  0  0
   42.2202   41.0441   83.6782 C   0  0  0  0  0  0  0  0  0  0  0  0
   41.7786   37.0835   86.9323 C   0  0  0  0  0  0  0  0  0  0  0  0
   46.9149   35.8908   82.0689 O   0  0  0  0  0  0  0  0  0  0  0  0
   44.0775   36.0181   87.5813 C   0  0  0  0  0  0  0  0  0  0  0  0
   43.4402   41.1960   81.8594 C   0  0  0  0  0  0  0  0  0  0  0  0
   41.2444   38.5875   85.9295 C   0  0  0  0  0  0  0  0  0  0  0  0
   42.7354   41.7765   82.7728 C   0  0  0  0  0  0  0  0  0  0  0  0
   46.7309   36.2491   79.9395 O   0  0  0  0  0  0  0  0  0  0  0  0
  1  2  2  0
  2  3  1  0
  3  4  1  0
  3  5  1  0
  5  6  1  0
  6  7  1  0
  4  8  1  0
  7  8  1  0
  6  9  1  0
  8 10  1  0
  2 11  1  0
  7 12  1  0
 12 13  2  0
  9 14  2  0
 12 14  1  0
  5 15  2  0
 10 16  1  0
 14 17  1  0
 15 18  1  0
 16 19  1  0
 11 20  2  0
 15 20  1  0
 13 21  1  0
  9 22  1  0
 18 22  1  0
 17 23  1  0
 21 23  1  0
 16 24  2  0
M  END
>  <ID>  (1) 
conformer_0

$$$$
