
     RDKit          3D

 22 25  0  0  0  0  0  0  0  0999 V2000
   46.4398   35.8014   80.4678 N   0  0  0  0  0  0  0  0  0  0  0  0
   45.9973   36.1691   81.5459 C   0  0  0  0  0  0  0  0  0  0  0  0
   45.1075   37.3080   81.5982 C   0  0  0  0  0  0  0  0  0  0  0  0
   44.5920   37.8434   82.7735 C   0  0  0  0  0  0  0  0  0  0  0  0
   43.7047   39.0374   82.6005 C   0  0  0  0  0  0  0  0  0  0  0  0
   44.6148   37.1561   83.9155 N   0  0  0  0  0  0  0  0  0  0  0  0
   46.0362   35.4716   82.8415 N   0  0  0  0  0  0  0  0  0  0  0  0
   44.8353   37.8638   80.2888 C   0  0  0  0  0  0  0  0  0  0  0  0
   43.0827   39.5538   83.7153 C   0  0  0  0  0  0  0  0  0  0  0  0
   44.0604   39.9760   81.5918 C   0  0  0  0  0  0  0  0  0  0  0  0
   42.7740   38.8477   84.8696 C   0  0  0  0  0  0  0  0  0  0  0  0
   46.1604   36.2553   79.3393 C   0  0  0  0  0  0  0  0  0  0  0  0
   45.4993   35.9920   83.9862 C   0  0  0  0  0  0  0  0  0  0  0  0
   41.8491   37.9814   84.8443 O   0  0  0  0  0  0  0  0  0  0  0  0
   42.6604   40.9164   83.3302 C   0  0  0  0  0  0  0  0  0  0  0  0
   43.1547   39.1364   86.0631 O   0  0  0  0  0  0  0  0  0  0  0  0
   46.7395   35.6734   78.1490 O   0  0  0  0  0  0  0  0  0  0  0  0
   43.3000   41.1700   82.0700 C   0  0  0  0  0  0  0  0  0  0  0  0
   45.6818   35.3304   85.2832 C   0  0  0  0  0  0  0  0  0  0  0  0
   44.1474   39.1058   80.3034 C   0  0  0  0  0  0  0  0  0  0  0  0
   45.2338   37.3322   79.2191 C   0  0  0  0  0  0  0  0  0  0  0  0
   46.5075   35.8559   86.1202 O   0  0  0  0  0  0  0  0  0  0  0  0
  1  2  1  0
  2  3  2  0
  3  4  1  0
  4  5  1  0
  4  6  2  0
  2  7  1  0
  3  8  1  0
  5  9  2  0
  5 10  1  0
  9 11  1  0
  1 12  2  0
  6 13  1  0
  7 13  2  0
 11 14  1  0
  9 15  1  0
 11 16  2  0
 12 17  1  0
 10 18  1  0
 15 18  2  0
 13 19  1  0
  8 20  1  0
 10 20  1  0
  8 21  2  0
 12 21  1  0
 19 22  1  0
M  END
>  <ID>  (1) 
conformer_0

$$$$
