
     RDKit          3D

 24 26  0  0  0  0  0  0  0  0999 V2000
   46.5680   36.2058   85.8453 O   0  0  0  0  0  0  0  0  0  0  0  0
   45.3405   35.9938   85.8902 C   0  0  0  0  0  0  0  0  0  0  0  0
   44.3857   36.1823   84.9209 C   0  0  0  0  0  0  0  0  0  0  0  0
   44.8382   36.7385   83.7310 N   0  0  0  0  0  0  0  0  0  0  0  0
   44.5197   38.0248   83.4004 C   0  0  0  0  0  0  0  0  0  0  0  0
   43.3545   36.9883   85.5949 C   0  0  0  0  0  0  0  0  0  0  0  0
   44.5402   38.4115   82.0380 C   0  0  0  0  0  0  0  0  0  0  0  0
   44.8917   37.4416   81.0401 C   0  0  0  0  0  0  0  0  0  0  0  0
   44.2079   38.9615   84.1854 O   0  0  0  0  0  0  0  0  0  0  0  0
   45.9035   36.1583   82.9141 C   0  0  0  0  0  0  0  0  0  0  0  0
   45.0302   35.3317   87.0809 N   0  0  0  0  0  0  0  0  0  0  0  0
   44.2246   39.7151   81.5033 C   0  0  0  0  0  0  0  0  0  0  0  0
   45.4074   36.1913   81.4206 C   0  0  0  0  0  0  0  0  0  0  0  0
   43.8437   35.4111   87.6609 C   0  0  0  0  0  0  0  0  0  0  0  0
   46.1177   35.3594   80.7201 C   0  0  0  0  0  0  0  0  0  0  0  0
   44.7278   37.5712   79.6299 C   0  0  0  0  0  0  0  0  0  0  0  0
   42.1706   37.1877   84.7672 O   0  0  0  0  0  0  0  0  0  0  0  0
   45.3186   36.5449   78.8296 C   0  0  0  0  0  0  0  0  0  0  0  0
   46.0321   35.4709   79.3420 C   0  0  0  0  0  0  0  0  0  0  0  0
   45.3736   36.6006   77.3262 C   0  0  0  0  0  0  0  0  0  0  0  0
   42.7385   36.0361   86.8178 C   0  0  0  0  0  0  0  0  0  0  0  0
   45.6891   35.8310   76.6769 O   0  0  0  0  0  0  0  0  0  0  0  0
   43.5907   34.9838   88.7432 O   0  0  0  0  0  0  0  0  0  0  0  0
   45.4292   37.7987   76.7853 O   0  0  0  0  0  0  0  0  0  0  0  0
  1  2  2  0
  2  3  1  0
  3  4  1  0
  4  5  1  0
  3  6  1  0
  5  7  1  0
  7  8  2  0
  5  9  2  0
  4 10  1  0
  2 11  1  0
  7 12  1  0
  8 13  1  0
 10 13  1  0
 11 14  1  0
 13 15  2  0
  8 16  1  0
  6 17  1  0
 16 18  1  0
 15 19  1  0
 18 19  2  0
 18 20  1  0
  6 21  1  0
 14 21  1  0
 20 22  2  0
 14 23  2  0
 20 24  1  0
M  END
>  <ID>  (1) 
conformer_0

$$$$
