
     RDKit          3D

 22 25  0  0  0  0  0  0  0  0999 V2000
   46.4181   35.8108   85.7240 O   0  0  0  0  0  0  0  0  0  0  0  0
   46.0967   36.0999   84.6855 C   0  0  0  0  0  0  0  0  0  0  0  0
   44.9756   36.8062   84.3070 C   0  0  0  0  0  0  0  0  0  0  0  0
   44.8249   37.1621   82.8994 C   0  0  0  0  0  0  0  0  0  0  0  0
   44.8380   38.1086   85.0091 C   0  0  0  0  0  0  0  0  0  0  0  0
   43.8117   35.8582   84.5938 C   0  0  0  0  0  0  0  0  0  0  0  0
   42.6310   36.2908   85.3139 C   0  0  0  0  0  0  0  0  0  0  0  0
   44.5607   38.4529   82.4782 C   0  0  0  0  0  0  0  0  0  0  0  0
   44.3791   38.9698   81.2034 C   0  0  0  0  0  0  0  0  0  0  0  0
   44.4433   39.4754   83.4663 C   0  0  0  0  0  0  0  0  0  0  0  0
   44.1259   40.7349   82.9683 C   0  0  0  0  0  0  0  0  0  0  0  0
   44.5717   37.9464   80.1247 C   0  0  0  0  0  0  0  0  0  0  0  0
   44.0095   40.5547   81.3528 S   0  0  0  0  0  0  0  0  0  0  0  0
   44.9771   36.6705   80.4811 C   0  0  0  0  0  0  0  0  0  0  0  0
   44.5636   37.7191   86.3949 O   0  0  0  0  0  0  0  0  0  0  0  0
   47.1531   36.0335   83.8006 O   0  0  0  0  0  0  0  0  0  0  0  0
   43.3302   36.8450   86.5998 C   0  0  0  0  0  0  0  0  0  0  0  0
   45.1073   36.2815   81.7957 C   0  0  0  0  0  0  0  0  0  0  0  0
   44.4640   39.2642   84.8467 C   0  0  0  0  0  0  0  0  0  0  0  0
   45.1516   35.7870   79.3887 C   0  0  0  0  0  0  0  0  0  0  0  0
   46.3666   35.2963   79.1382 O   0  0  0  0  0  0  0  0  0  0  0  0
   43.6958   35.6149   87.4364 C   0  0  0  0  0  0  0  0  0  0  0  0
  1  2  2  0
  2  3  1  0
  3  4  1  0
  3  5  1  0
  3  6  1  0
  6  7  1  0
  4  8  1  0
  8  9  2  0
  8 10  1  0
 10 11  2  0
  9 12  1  0
  9 13  1  0
 11 13  1  0
 12 14  2  0
  5 15  1  0
  2 16  1  0
  7 17  1  0
 15 17  1  0
  4 18  2  0
 14 18  1  0
  5 19  2  0
 10 19  1  0
 14 20  1  0
 20 21  2  0
 17 22  1  0
M  END
>  <ID>  (1) 
conformer_0

$$$$
