
     RDKit          3D

  9  9  0  0  0  0  0  0  0  0999 V2000
   46.9379   35.7251   85.7813 O   0  0  0  0  0  0  0  0  0  0  0  0
   45.7531   36.0013   85.9568 C   0  0  0  0  0  0  0  0  0  0  0  0
   45.2930   35.7798   87.1925 O   0  0  0  0  0  0  0  0  0  0  0  0
   44.9574   36.6428   85.0322 C   0  0  0  0  0  0  0  0  0  0  0  0
   44.8804   35.8985   83.8338 C   0  0  0  0  0  0  0  0  0  0  0  0
   44.3287   37.8063   85.1917 C   0  0  0  0  0  0  0  0  0  0  0  0
   44.1089   36.4999   82.6892 C   0  0  0  0  0  0  0  0  0  0  0  0
   43.4899   37.7314   82.8562 C   0  0  0  0  0  0  0  0  0  0  0  0
   43.6233   38.4135   84.1310 C   0  0  0  0  0  0  0  0  0  0  0  0
  1  2  2  0
  2  3  1  0
  2  4  1  0
  4  5  1  0
  4  6  2  0
  5  7  2  0
  7  8  1  0
  6  9  1  0
  8  9  2  0
M  END
>  <ID>  (1) 
conformer_0

$$$$
