
     RDKit          3D

 12 13  0  0  0  0  0  0  0  0999 V2000
   46.4398   35.8014   80.4678 N   0  0  0  0  0  0  0  0  0  0  0  0
   45.9973   36.1691   81.5459 C   0  0  0  0  0  0  0  0  0  0  0  0
   45.1075   37.3080   81.5982 C   0  0  0  0  0  0  0  0  0  0  0  0
   45.8726   36.2972   79.3483 C   0  0  0  0  0  0  0  0  0  0  0  0
   44.5231   37.8545   80.5013 C   0  0  0  0  0  0  0  0  0  0  0  0
   44.8583   37.3568   79.4682 N   0  0  0  0  0  0  0  0  0  0  0  0
   46.2665   35.8289   77.9312 C   0  0  0  0  0  0  0  0  0  0  0  0
   44.9061   37.9377   82.7942 C   0  0  0  0  0  0  0  0  0  0  0  0
   43.7634   38.8825   80.5338 N   0  0  0  0  0  0  0  0  0  0  0  0
   46.4696   35.6615   82.6832 O   0  0  0  0  0  0  0  0  0  0  0  0
   44.0489   39.0639   82.8561 C   0  0  0  0  0  0  0  0  0  0  0  0
   43.5829   39.5673   81.6299 C   0  0  0  0  0  0  0  0  0  0  0  0
  1  2  1  0
  2  3  1  0
  1  4  2  0
  3  5  1  0
  4  6  1  0
  5  6  2  0
  4  7  1  0
  3  8  1  0
  5  9  1  0
  2 10  2  0
  8 11  2  0
  9 12  2  0
 11 12  1  0
M  END
>  <ID>  (1) 
conformer_0

$$$$
