
     RDKit          3D

 21 22  0  0  0  0  0  0  0  0999 V2000
   46.0222   35.2962   82.2874 O   0  0  0  0  0  0  0  0  0  0  0  0
   45.6384   36.3555   81.6968 C   0  0  0  0  0  0  0  0  0  0  0  0
   45.6628   36.4603   80.2816 N   0  0  0  0  0  0  0  0  0  0  0  0
   45.1465   37.4971   79.7029 C   0  0  0  0  0  0  0  0  0  0  0  0
   44.4721   38.4649   80.3501 N   0  0  0  0  0  0  0  0  0  0  0  0
   44.5249   38.2813   81.7802 C   0  0  0  0  0  0  0  0  0  0  0  0
   44.9809   37.3424   82.4028 C   0  0  0  0  0  0  0  0  0  0  0  0
   44.9876   37.2518   83.8680 C   0  0  0  0  0  0  0  0  0  0  0  0
   46.4853   35.5950   79.4987 C   0  0  0  0  0  0  0  0  0  0  0  0
   46.0479   35.5182   78.1115 C   0  0  0  0  0  0  0  0  0  0  0  0
   43.9558   37.5800   84.5127 O   0  0  0  0  0  0  0  0  0  0  0  0
   43.5326   36.7309   85.5955 C   0  0  0  0  0  0  0  0  0  0  0  0
   42.3051   36.3923   85.6221 C   0  0  0  0  0  0  0  0  0  0  0  0
   45.9867   34.5963   77.4886 O   0  0  0  0  0  0  0  0  0  0  0  0
   43.9406   37.3139   86.8892 C   0  0  0  0  0  0  0  0  0  0  0  0
   45.9035   36.8714   77.6496 N   0  0  0  0  0  0  0  0  0  0  0  0
   43.6327   36.5119   88.0120 C   0  0  0  0  0  0  0  0  0  0  0  0
   43.9529   39.5168   82.4152 N   0  0  0  0  0  0  0  0  0  0  0  0
   45.1926   37.6592   78.2983 C   0  0  0  0  0  0  0  0  0  0  0  0
   44.0913   36.9719   89.2492 O   0  0  0  0  0  0  0  0  0  0  0  0
   41.8525   35.7748   84.3451 C   0  0  0  0  0  0  0  0  0  0  0  0
  1  2  2  0
  2  3  1  0
  3  4  1  0
  4  5  2  0
  5  6  1  0
  2  7  1  0
  6  7  2  0
  7  8  1  0
  3  9  1  0
  9 10  1  0
  8 11  1  0
 11 12  1  0
 12 13  1  0
 10 14  2  0
 12 15  1  0
 10 16  1  0
 15 17  1  0
  6 18  1  0
  4 19  1  0
 16 19  1  0
 17 20  1  0
 13 21  1  0
M  END
>  <ID>  (1) 
conformer_0

$$$$
