
     RDKit          3D

 24 27  0  0  0  0  0  0  0  0999 V2000
   46.4181   35.8108   85.7240 O   0  0  0  0  0  0  0  0  0  0  0  0
   46.0967   36.0999   84.6855 C   0  0  0  0  0  0  0  0  0  0  0  0
   44.9756   36.8062   84.3070 C   0  0  0  0  0  0  0  0  0  0  0  0
   44.8249   37.1621   82.8994 C   0  0  0  0  0  0  0  0  0  0  0  0
   44.8380   38.1086   85.0091 C   0  0  0  0  0  0  0  0  0  0  0  0
   43.8117   35.8582   84.5938 C   0  0  0  0  0  0  0  0  0  0  0  0
   42.6310   36.2908   85.3139 C   0  0  0  0  0  0  0  0  0  0  0  0
   44.5607   38.4529   82.4782 C   0  0  0  0  0  0  0  0  0  0  0  0
   44.3791   38.9698   81.2034 C   0  0  0  0  0  0  0  0  0  0  0  0
   44.4433   39.4754   83.4663 C   0  0  0  0  0  0  0  0  0  0  0  0
   44.1259   40.7349   82.9683 C   0  0  0  0  0  0  0  0  0  0  0  0
   44.5789   37.7985   86.3982 C   0  0  0  0  0  0  0  0  0  0  0  0
   43.8625   39.0521   84.5850 O   0  0  0  0  0  0  0  0  0  0  0  0
   47.0647   35.9456   83.7771 O   0  0  0  0  0  0  0  0  0  0  0  0
   45.1135   36.2432   81.8656 C   0  0  0  0  0  0  0  0  0  0  0  0
   43.2981   36.8730   86.7142 C   0  0  0  0  0  0  0  0  0  0  0  0
   44.9903   36.7490   80.5046 C   0  0  0  0  0  0  0  0  0  0  0  0
   45.3107   35.7891   79.3737 C   0  0  0  0  0  0  0  0  0  0  0  0
   44.7268   38.0156   80.1764 C   0  0  0  0  0  0  0  0  0  0  0  0
   46.2816   35.1512   79.3912 O   0  0  0  0  0  0  0  0  0  0  0  0
   44.0568   40.2699   80.8199 C   0  0  0  0  0  0  0  0  0  0  0  0
   42.8163   36.7022   87.7802 O   0  0  0  0  0  0  0  0  0  0  0  0
   43.9907   41.1487   81.7614 C   0  0  0  0  0  0  0  0  0  0  0  0
   44.9360   36.3026   78.2063 O   0  0  0  0  0  0  0  0  0  0  0  0
  1  2  2  0
  2  3  1  0
  3  4  1  0
  3  5  1  0
  3  6  1  0
  6  7  1  0
  4  8  1  0
  8  9  2  0
  8 10  1  0
 10 11  2  0
  5 12  1  0
  5 13  1  0
 10 13  1  0
  2 14  1  0
  4 15  2  0
  7 16  1  0
 12 16  1  0
 15 17  1  0
 17 18  1  0
  9 19  1  0
 17 19  2  0
 18 20  2  0
  9 21  1  0
 16 22  2  0
 11 23  1  0
 21 23  2  0
 18 24  1  0
M  END
>  <ID>  (1) 
conformer_0

$$$$
