
     RDKit          3D

 16 17  0  0  0  0  0  0  0  0999 V2000
   46.6271   35.4025   77.9677 O   0  0  0  0  0  0  0  0  0  0  0  0
   45.7277   36.2555   78.1374 C   0  0  0  0  0  0  0  0  0  0  0  0
   45.0181   36.7682   77.1859 O   0  0  0  0  0  0  0  0  0  0  0  0
   45.3573   36.6606   79.5313 C   0  0  0  0  0  0  0  0  0  0  0  0
   44.5889   37.5427   79.9139 C   0  0  0  0  0  0  0  0  0  0  0  0
   45.8088   35.7169   80.6624 C   0  0  0  0  0  0  0  0  0  0  0  0
   45.4129   36.3058   81.8707 C   0  0  0  0  0  0  0  0  0  0  0  0
   45.8753   35.5589   83.1111 C   0  0  0  0  0  0  0  0  0  0  0  0
   45.6741   36.1372   84.2367 C   0  0  0  0  0  0  0  0  0  0  0  0
   45.0185   37.3561   84.3193 C   0  0  0  0  0  0  0  0  0  0  0  0
   44.7510   37.4453   82.1057 C   0  0  0  0  0  0  0  0  0  0  0  0
   44.2981   38.0882   81.0267 C   0  0  0  0  0  0  0  0  0  0  0  0
   44.4439   37.9188   83.2266 C   0  0  0  0  0  0  0  0  0  0  0  0
   46.1785   35.4242   85.5289 C   0  0  0  0  0  0  0  0  0  0  0  0
   45.3998   35.1879   86.4911 O   0  0  0  0  0  0  0  0  0  0  0  0
   47.3244   35.2813   85.6845 O   0  0  0  0  0  0  0  0  0  0  0  0
  1  2  2  0
  2  3  1  0
  2  4  1  0
  4  5  2  0
  4  6  1  0
  6  7  2  0
  7  8  1  0
  8  9  2  0
  9 10  1  0
  7 11  1  0
  5 12  1  0
 11 12  2  0
 10 13  2  0
 11 13  1  0
  9 14  1  0
 14 15  1  0
 14 16  2  0
M  END
>  <ID>  (1) 
conformer_0

$$$$
