
     RDKit          3D

 22 25  0  0  0  0  0  0  0  0999 V2000
   46.4398   35.8014   80.4678 N   0  0  0  0  0  0  0  0  0  0  0  0
   45.9973   36.1691   81.5459 C   0  0  0  0  0  0  0  0  0  0  0  0
   45.1551   37.2113   81.6135 N   0  0  0  0  0  0  0  0  0  0  0  0
   46.2401   35.5322   82.8262 N   0  0  0  0  0  0  0  0  0  0  0  0
   44.4888   37.6556   82.7291 C   0  0  0  0  0  0  0  0  0  0  0  0
   45.6535   36.0549   83.9216 C   0  0  0  0  0  0  0  0  0  0  0  0
   45.7529   36.6295   79.5342 C   0  0  0  0  0  0  0  0  0  0  0  0
   44.7968   37.0472   83.9188 C   0  0  0  0  0  0  0  0  0  0  0  0
   43.6546   38.8564   82.6291 N   0  0  0  0  0  0  0  0  0  0  0  0
   44.0070   40.0012   81.8578 C   0  0  0  0  0  0  0  0  0  0  0  0
   44.1834   37.4425   85.1541 C   0  0  0  0  0  0  0  0  0  0  0  0
   45.9349   36.5497   78.1122 C   0  0  0  0  0  0  0  0  0  0  0  0
   44.1828   39.9230   80.5814 C   0  0  0  0  0  0  0  0  0  0  0  0
   44.5162   36.5649   86.2112 C   0  0  0  0  0  0  0  0  0  0  0  0
   43.9579   36.9408   87.5386 C   0  0  0  0  0  0  0  0  0  0  0  0
   44.0105   41.0855   82.4399 O   0  0  0  0  0  0  0  0  0  0  0  0
   43.3819   35.9341   88.2627 O   0  0  0  0  0  0  0  0  0  0  0  0
   46.1967   35.4523   85.0858 N   0  0  0  0  0  0  0  0  0  0  0  0
   44.9786   37.4543   80.2632 C   0  0  0  0  0  0  0  0  0  0  0  0
   44.3647   38.6539   79.8030 C   0  0  0  0  0  0  0  0  0  0  0  0
   42.9538   36.0588   89.3954 C   0  0  0  0  0  0  0  0  0  0  0  0
   45.6176   35.8224   86.2151 C   0  0  0  0  0  0  0  0  0  0  0  0
  1  2  2  0
  2  3  1  0
  2  4  1  0
  3  5  1  0
  4  6  2  0
  1  7  1  0
  5  8  2  0
  6  8  1  0
  5  9  1  0
  9 10  1  0
  8 11  1  0
  7 12  1  0
 10 13  1  0
 11 14  2  0
 14 15  1  0
 10 16  2  0
 15 17  1  0
  6 18  1  0
  3 19  1  0
  7 19  2  0
 13 20  2  0
 19 20  1  0
 17 21  1  0
 14 22  1  0
 18 22  2  0
M  END
>  <ID>  (1) 
conformer_0

$$$$
