
     RDKit          3D

 24 27  0  0  0  0  0  0  0  0999 V2000
   46.4398   35.8014   80.4678 N   0  0  0  0  0  0  0  0  0  0  0  0
   45.9973   36.1691   81.5459 C   0  0  0  0  0  0  0  0  0  0  0  0
   45.1075   37.3080   81.5982 C   0  0  0  0  0  0  0  0  0  0  0  0
   44.5920   37.8434   82.7735 C   0  0  0  0  0  0  0  0  0  0  0  0
   43.7047   39.0374   82.6005 C   0  0  0  0  0  0  0  0  0  0  0  0
   44.6148   37.1561   83.9155 N   0  0  0  0  0  0  0  0  0  0  0  0
   46.0362   35.4716   82.8415 N   0  0  0  0  0  0  0  0  0  0  0  0
   45.4396   36.0262   83.9110 C   0  0  0  0  0  0  0  0  0  0  0  0
   43.9434   39.8832   81.6036 C   0  0  0  0  0  0  0  0  0  0  0  0
   43.5110   41.1720   81.6024 C   0  0  0  0  0  0  0  0  0  0  0  0
   45.5499   35.3748   85.2374 C   0  0  0  0  0  0  0  0  0  0  0  0
   45.7590   36.0133   79.3491 C   0  0  0  0  0  0  0  0  0  0  0  0
   44.5503   35.6431   86.2896 C   0  0  0  0  0  0  0  0  0  0  0  0
   42.9465   39.3631   83.7338 C   0  0  0  0  0  0  0  0  0  0  0  0
   43.3576   35.6297   85.9978 C   0  0  0  0  0  0  0  0  0  0  0  0
   45.0451   37.1453   79.1991 N   0  0  0  0  0  0  0  0  0  0  0  0
   42.6098   41.5284   82.6195 C   0  0  0  0  0  0  0  0  0  0  0  0
   44.9706   35.8233   87.5935 C   0  0  0  0  0  0  0  0  0  0  0  0
   44.2560   35.9991   88.4616 C   0  0  0  0  0  0  0  0  0  0  0  0
   42.3171   35.8846   87.0657 C   0  0  0  0  0  0  0  0  0  0  0  0
   44.6197   37.6644   80.2801 C   0  0  0  0  0  0  0  0  0  0  0  0
   42.3455   40.6189   83.6909 C   0  0  0  0  0  0  0  0  0  0  0  0
   46.4590   35.5595   78.2648 O   0  0  0  0  0  0  0  0  0  0  0  0
   42.8381   36.0477   88.3562 C   0  0  0  0  0  0  0  0  0  0  0  0
  1  2  1  0
  2  3  2  0
  3  4  1  0
  4  5  1  0
  4  6  2  0
  2  7  1  0
  6  8  1  0
  7  8  2  0
  5  9  1  0
  9 10  2  0
  8 11  1  0
  1 12  1  0
 11 13  1  0
  5 14  2  0
 13 15  2  0
 12 16  1  0
 10 17  1  0
 13 18  1  0
 18 19  2  0
 15 20  1  0
  3 21  1  0
 16 21  2  0
 14 22  1  0
 17 22  2  0
 12 23  2  0
 19 24  1  0
 20 24  2  0
M  END
>  <ID>  (1) 
conformer_0

$$$$
