
     RDKit          3D

 16 18  0  0  0  0  0  0  0  0999 V2000
   46.0222   35.2962   82.2874 O   0  0  0  0  0  0  0  0  0  0  0  0
   45.6384   36.3555   81.6968 C   0  0  0  0  0  0  0  0  0  0  0  0
   45.0448   37.4638   82.3177 C   0  0  0  0  0  0  0  0  0  0  0  0
   45.5738   36.3086   80.3115 N   0  0  0  0  0  0  0  0  0  0  0  0
   45.0931   37.4622   79.7770 C   0  0  0  0  0  0  0  0  0  0  0  0
   44.5447   38.3868   80.4262 N   0  0  0  0  0  0  0  0  0  0  0  0
   46.2744   35.3216   79.6007 N   0  0  0  0  0  0  0  0  0  0  0  0
   44.0446   39.6233   79.7197 C   0  0  0  0  0  0  0  0  0  0  0  0
   44.6094   38.4915   81.7422 C   0  0  0  0  0  0  0  0  0  0  0  0
   43.9969   39.6931   82.0637 C   0  0  0  0  0  0  0  0  0  0  0  0
   43.7341   40.1543   83.2897 C   0  0  0  0  0  0  0  0  0  0  0  0
   43.1960   41.4654   83.4138 C   0  0  0  0  0  0  0  0  0  0  0  0
   43.6692   40.5231   80.8704 C   0  0  0  0  0  0  0  0  0  0  0  0
   46.0029   35.6815   78.3477 C   0  0  0  0  0  0  0  0  0  0  0  0
   45.2891   37.1033   78.2782 C   0  0  0  0  0  0  0  0  0  0  0  0
   46.4478   35.0432   77.1365 N   0  0  0  0  0  0  0  0  0  0  0  0
  1  2  2  0
  2  3  1  0
  2  4  1  0
  4  5  1  0
  5  6  1  0
  4  7  1  0
  6  8  1  0
  3  9  2  0
  6  9  1  0
  9 10  1  0
 10 11  2  3
 11 12  1  0
  8 13  2  0
 10 13  1  0
  7 14  2  0
  5 15  2  0
 14 15  1  0
 14 16  1  0
M  END
>  <ID>  (1) 
conformer_0

$$$$
