
     RDKit          3D

 13 15  0  0  0  0  0  0  0  0999 V2000
   46.0222   35.2962   82.2874 O   0  0  0  0  0  0  0  0  0  0  0  0
   45.6384   36.3555   81.6968 C   0  0  0  0  0  0  0  0  0  0  0  0
   45.0448   37.4638   82.3177 C   0  0  0  0  0  0  0  0  0  0  0  0
   45.5738   36.3086   80.3115 N   0  0  0  0  0  0  0  0  0  0  0  0
   45.0931   37.4622   79.7770 C   0  0  0  0  0  0  0  0  0  0  0  0
   44.5447   38.3868   80.4262 N   0  0  0  0  0  0  0  0  0  0  0  0
   46.2744   35.3216   79.6007 N   0  0  0  0  0  0  0  0  0  0  0  0
   44.0446   39.6233   79.7197 C   0  0  0  0  0  0  0  0  0  0  0  0
   44.6094   38.4915   81.7422 C   0  0  0  0  0  0  0  0  0  0  0  0
   46.0815   35.6067   78.3751 C   0  0  0  0  0  0  0  0  0  0  0  0
   43.8444   40.4518   80.8482 N   0  0  0  0  0  0  0  0  0  0  0  0
   44.1225   39.8470   82.0409 C   0  0  0  0  0  0  0  0  0  0  0  0
   45.3709   36.9819   78.3616 C   0  0  0  0  0  0  0  0  0  0  0  0
  1  2  2  0
  2  3  1  0
  2  4  1  0
  4  5  1  0
  5  6  1  0
  4  7  1  0
  6  8  1  0
  3  9  1  0
  6  9  1  0
  7 10  2  0
  8 11  2  0
  9 12  2  0
 11 12  1  0
  5 13  2  0
 10 13  1  0
M  END
>  <ID>  (1) 
conformer_0

$$$$
