
     RDKit          3D

 13 13  0  0  0  0  0  0  0  0999 V2000
   46.7076   35.7870   80.5911 O   0  0  0  0  0  0  0  0  0  0  0  0
   45.7555   36.4149   80.5924 C   0  0  0  0  0  0  0  0  0  0  0  0
   45.1937   36.8850   79.3869 N   0  0  0  0  0  0  0  0  0  0  0  0
   44.3014   37.8278   79.5521 C   0  0  0  0  0  0  0  0  0  0  0  0
   45.3137   37.0337   81.7920 C   0  0  0  0  0  0  0  0  0  0  0  0
   45.5949   36.2076   78.1114 C   0  0  0  0  0  0  0  0  0  0  0  0
   44.4013   38.0782   81.6283 C   0  0  0  0  0  0  0  0  0  0  0  0
   45.9719   36.7135   83.0151 C   0  0  0  0  0  0  0  0  0  0  0  0
   43.8120   38.1975   78.2547 O   0  0  0  0  0  0  0  0  0  0  0  0
   45.6706   35.4909   83.6324 C   0  0  0  0  0  0  0  0  0  0  0  0
   46.1634   35.3750   84.9026 N   0  0  0  0  0  0  0  0  0  0  0  0
   43.9283   38.4697   80.5120 C   0  0  0  0  0  0  0  0  0  0  0  0
   45.0375   34.5901   83.1110 O   0  0  0  0  0  0  0  0  0  0  0  0
  1  2  2  0
  2  3  1  0
  3  4  1  0
  2  5  1  0
  3  6  1  0
  5  7  2  0
  5  8  1  0
  4  9  1  0
  8 10  1  0
 10 11  1  0
  4 12  2  0
  7 12  1  0
 10 13  2  0
M  END
>  <ID>  (1) 
conformer_0

$$$$
