
     RDKit          3D

 21 22  0  0  0  0  0  0  0  0999 V2000
   46.2840   35.1899   82.7394 O   0  0  0  0  0  0  0  0  0  0  0  0
   45.5997   36.2846   83.0013 C   0  0  0  0  0  0  0  0  0  0  0  0
   45.1520   36.9981   81.9976 C   0  0  0  0  0  0  0  0  0  0  0  0
   45.1267   36.5692   80.5564 C   0  0  0  0  0  0  0  0  0  0  0  0
   44.5962   37.4645   79.6378 C   0  0  0  0  0  0  0  0  0  0  0  0
   45.6341   36.7588   84.2323 N   0  0  0  0  0  0  0  0  0  0  0  0
   44.7410   37.9014   84.5644 C   0  0  0  0  0  0  0  0  0  0  0  0
   44.7590   38.3734   82.1028 C   0  0  0  0  0  0  0  0  0  0  0  0
   44.3327   39.1205   81.3687 C   0  0  0  0  0  0  0  0  0  0  0  0
   46.1615   35.9543   85.3024 C   0  0  0  0  0  0  0  0  0  0  0  0
   45.4310   35.7645   86.5502 C   0  0  0  0  0  0  0  0  0  0  0  0
   45.8596   36.1394   87.7135 O   0  0  0  0  0  0  0  0  0  0  0  0
   44.7584   36.9737   78.3089 N   0  0  0  0  0  0  0  0  0  0  0  0
   45.7793   36.0787   77.9430 C   0  0  0  0  0  0  0  0  0  0  0  0
   46.5276   35.4907   78.6445 O   0  0  0  0  0  0  0  0  0  0  0  0
   44.1962   35.2360   86.4613 O   0  0  0  0  0  0  0  0  0  0  0  0
   44.5922   38.8290   83.5386 C   0  0  0  0  0  0  0  0  0  0  0  0
   43.2382   35.2454   87.5046 C   0  0  0  0  0  0  0  0  0  0  0  0
   45.7637   35.7252   76.5258 O   0  0  0  0  0  0  0  0  0  0  0  0
   45.2694   36.6576   75.6898 C   0  0  0  0  0  0  0  0  0  0  0  0
   44.3635   38.7813   79.8907 C   0  0  0  0  0  0  0  0  0  0  0  0
  1  2  2  0
  2  3  1  0
  3  4  2  0
  4  5  1  0
  2  6  1  0
  6  7  1  0
  3  8  1  0
  8  9  2  0
  6 10  1  0
 10 11  1  0
 11 12  2  0
  5 13  1  0
 13 14  1  0
 14 15  2  0
 11 16  1  0
  7 17  1  0
  8 17  1  0
 16 18  1  0
 14 19  1  0
 19 20  1  0
  5 21  2  0
  9 21  1  0
M  END
>  <ID>  (1) 
conformer_0

$$$$
