
     RDKit          3D

 18 20  0  0  0  0  0  0  0  0999 V2000
   43.8585   40.8346   82.3352 C   0  0  0  0  0  0  0  0  0  0  0  0
   44.2278   39.7364   81.6341 C   0  0  0  0  0  0  0  0  0  0  0  0
   44.3960   38.5812   82.3361 C   0  0  0  0  0  0  0  0  0  0  0  0
   44.3057   38.6637   83.7369 C   0  0  0  0  0  0  0  0  0  0  0  0
   44.5727   37.3278   84.4104 N   0  0  0  0  0  0  0  0  0  0  0  0
   44.9115   37.4043   81.7174 C   0  0  0  0  0  0  0  0  0  0  0  0
   45.3982   36.4543   83.7488 C   0  0  0  0  0  0  0  0  0  0  0  0
   43.7459   37.0113   85.5302 C   0  0  0  0  0  0  0  0  0  0  0  0
   45.3535   36.3345   82.4367 C   0  0  0  0  0  0  0  0  0  0  0  0
   45.1332   35.0883   84.4542 C   0  0  0  0  0  0  0  0  0  0  0  0
   44.3920   35.4840   85.7719 C   0  0  0  0  0  0  0  0  0  0  0  0
   42.8834   37.5195   86.0146 O   0  0  0  0  0  0  0  0  0  0  0  0
   46.7570   36.7907   84.1667 C   0  0  0  0  0  0  0  0  0  0  0  0
   45.3045   35.5892   86.9558 C   0  0  0  0  0  0  0  0  0  0  0  0
   45.8270   35.3373   81.7317 O   0  0  0  0  0  0  0  0  0  0  0  0
   44.1706   39.6879   80.1656 C   0  0  0  0  0  0  0  0  0  0  0  0
   44.8310   37.4502   80.3061 C   0  0  0  0  0  0  0  0  0  0  0  0
   44.4947   38.4761   79.5792 C   0  0  0  0  0  0  0  0  0  0  0  0
  1  2  1  0
  2  3  2  0
  3  4  1  0
  4  5  1  0
  3  6  1  0
  5  7  1  0
  5  8  1  0
  6  9  1  0
  7  9  1  0
  7 10  1  0
  8 11  1  0
 10 11  1  0
  8 12  2  0
  7 13  1  0
 11 14  1  0
  9 15  2  0
  2 16  1  0
  6 17  2  0
 16 18  2  0
 17 18  1  0
M  END
>  <ID>  (1) 
conformer_0

$$$$
