
     RDKit          3D

 28 28  0  0  0  0  0  0  0  0999 V2000
  -15.4854    4.6834  -21.4137 C   0  0  1  0  0  0  0  0  0  0  0  0
  -15.1897   -1.4236  -23.4267 C   0  0  0  0  0  0  0  0  0  0  0  0
  -14.4144    5.2112  -22.1252 C   0  0  0  0  0  0  0  0  0  0  0  0
  -17.1343    0.3090  -24.0709 N   0  0  0  0  0  0  0  0  0  0  0  0
  -15.7595    0.1526  -23.4081 C   0  0  0  0  0  0  0  0  0  0  0  0
  -15.5419    1.8286  -23.0176 N   0  0  0  0  0  0  0  0  0  0  0  0
  -14.0258    0.0954  -22.9794 N   0  0  0  0  0  0  0  0  0  0  0  0
   -8.4616    5.8350  -18.6047 P   0  0  1  0  0  4  0  0  0  0  0  0
  -15.4404    4.0128  -23.5565 O   0  0  0  0  0  0  0  0  0  0  0  0
  -14.4187   -2.5782  -23.2707 N   0  0  0  0  0  0  0  0  0  0  0  0
   -8.4090    4.3356  -21.4971 O   0  0  0  0  0  0  0  0  0  0  0  0
  -11.6800    2.9240  -20.3749 O   0  0  0  0  0  0  0  0  0  0  0  0
  -16.5928   -1.9079  -24.0762 N   0  0  0  0  0  0  0  0  0  0  0  0
  -11.9484    4.2435  -20.8320 P   0  0  0  0  0  5  0  0  0  0  0  0
   -8.9362    5.0166  -18.1463 O   0  0  0  0  0  0  0  0  0  0  0  0
  -16.5100    5.0106  -20.3163 O   0  0  0  0  0  0  0  0  0  0  0  0
  -16.2034    3.1423  -23.1822 C   0  0  2  0  0  0  0  0  0  0  0  0
   -9.3398    6.1515  -22.4745 O   0  0  0  0  0  0  0  0  0  0  0  0
   -7.4965    6.3537  -18.3322 O   0  0  0  0  0  1  0  0  0  0  0  0
  -17.1914   -0.9934  -24.2073 C   0  0  0  0  0  0  0  0  0  0  0  0
  -12.0485    5.2430  -19.4391 O   0  0  0  0  0  0  0  0  0  0  0  0
  -13.0542    4.4430  -21.6629 O   0  0  0  0  0  0  0  0  0  0  0  0
   -8.9751    5.8095  -19.9454 N   0  0  0  0  0  0  0  0  0  0  0  0
   -9.5159    5.3223  -21.3781 P   0  0  0  0  0  0  0  0  0  0  0  0
  -17.8279    3.6816  -21.4294 O   0  0  0  0  0  0  0  0  0  0  0  0
  -14.7012    1.1476  -22.9140 C   0  0  0  0  0  0  0  0  0  0  0  0
  -16.4598    3.8031  -21.7341 C   0  0  2  0  0  0  0  0  0  0  0  0
  -10.8951    4.7207  -21.8687 O   0  0  0  0  0  0  0  0  0  0  0  0
  3  1  1  0
  5  2  2  0
  5  4  1  0
 10  2  1  0
 13  2  1  0
 14 12  1  0
  8 15  1  6
  1 16  1  6
 17  6  1  0
 17  9  1  6
 18 14  1  0
 19  8  1  0
 20  4  2  0
 20 13  1  0
 21 14  1  0
 22  3  1  0
 22 14  1  0
 23  8  1  0
 24 11  1  0
 24 18  1  0
 24 23  1  0
 26  5  1  0
 26  6  1  0
 26  7  2  3
 27  1  1  0
 27 17  1  0
 27 25  1  6
 28 14  1  0
M  RAD  2   8   2  19   2
M  END
>  <ID>  (1) 
conformer_0

$$$$
