
     RDKit          3D

 30 32  0  0  0  0  0  0  0  0999 V2000
  -17.2374   -1.3190  -24.3633 C   0  0  0  0  0  0  0  0  0  0  0  0
  -16.3243    2.7319  -23.4281 C   0  0  0  0  0  0  0  0  0  0  0  0
  -17.0885    3.4342  -22.4026 C   0  0  0  0  0  0  0  0  0  0  0  0
  -13.6291    0.2222  -22.8737 N   0  0  0  0  0  0  0  0  0  0  0  0
  -17.0610   -0.0149  -24.1499 N   0  0  0  0  0  0  0  0  0  0  0  0
  -14.2562    1.3560  -22.7698 C   0  0  0  0  0  0  0  0  0  0  0  0
   -8.5588    5.7952  -18.4524 P   0  0  0  0  0  4  0  0  0  0  0  0
  -15.4208    3.8341  -23.6084 O   0  0  0  0  0  0  0  0  0  0  0  0
  -13.9539   -2.6625  -23.0543 N   0  0  0  0  0  0  0  0  0  0  0  0
   -9.4947    6.3760  -19.7238 N   0  0  0  0  0  0  0  0  0  0  0  0
  -11.8770    4.2655  -20.8323 P   0  0  0  0  0  5  0  0  0  0  0  0
  -15.4822    4.9373  -22.3288 C   0  0  0  0  0  0  0  0  0  0  0  0
  -12.8882    4.6864  -21.6353 O   0  0  0  0  0  0  0  0  0  0  0  0
   -8.5531    4.4857  -21.1864 O   0  0  0  0  0  0  0  0  0  0  0  0
  -15.5217    1.6335  -23.1664 N   0  0  0  0  0  0  0  0  0  0  0  0
   -9.4279    5.4502  -17.7564 O   0  0  0  0  0  0  0  0  0  0  0  0
  -11.3158    2.7703  -20.5402 O   0  0  0  0  0  0  0  0  0  0  0  0
  -12.5007    4.4466  -19.4274 O   0  0  0  0  0  0  0  0  0  0  0  0
   -7.4633    5.6216  -18.3499 O   0  0  0  0  0  1  0  0  0  0  0  0
  -15.1185   -1.7213  -23.5560 C   0  0  0  0  0  0  0  0  0  0  0  0
   -9.0562    6.3467  -22.1350 O   0  0  0  0  0  0  0  0  0  0  0  0
  -16.3197   -2.1095  -24.0501 N   0  0  0  0  0  0  0  0  0  0  0  0
  -16.9794    5.2811  -20.9467 O   0  0  0  0  0  0  0  0  0  0  0  0
  -18.2059    4.1332  -22.4924 O   0  0  0  0  0  0  0  0  0  0  0  0
   -9.4015    5.6262  -20.9544 P   0  0  0  0  0  0  0  0  0  0  0  0
  -14.0104    5.1604  -21.8750 C   0  0  0  0  0  0  0  0  0  0  0  0
  -14.5581   -0.6271  -23.1467 C   0  0  0  0  0  0  0  0  0  0  0  0
  -15.9484    0.3384  -23.5789 C   0  0  0  0  0  0  0  0  0  0  0  0
  -10.9320    4.9021  -21.6878 O   0  0  0  0  0  0  0  0  0  0  0  0
  -16.0716    4.1503  -21.3562 C   0  0  0  0  0  0  0  0  0  0  0  0
  3  2  1  0
  5  1  2  0
  6  4  2  0
  8  2  1  0
 10  7  1  0
 12  8  1  0
 13 11  1  0
 15  2  1  0
 15  6  1  0
 16  7  1  0
 17 11  1  0
 18 11  1  0
 19  7  1  0
 20  9  1  0
 21 11  1  0
 22  1  1  0
 22 20  2  0
 24  3  1  0
 25 10  1  0
 25 14  1  0
 25 21  1  0
 26 12  1  0
 26 13  1  0
 27  4  1  0
 27 20  1  0
 28  5  1  0
 28 15  1  0
 28 27  2  0
 29 11  1  0
 30  3  1  0
 30 12  1  0
 30 23  1  0
M  RAD  2   7   2  19   2
M  END
>  <ID>  (1) 
conformer_0

$$$$
