
     RDKit          3D

 30 31  0  0  0  0  0  0  0  0999 V2000
  -14.9769   -0.5498  -23.3478 C   0  0  0  0  0  0  0  0  0  0  0  0
  -15.4171    4.7866  -21.5042 C   0  0  0  0  0  0  0  0  0  0  0  0
  -16.7113    3.9135  -21.6855 C   0  0  0  0  0  0  0  0  0  0  0  0
  -17.2429    0.2624  -24.0134 N   0  0  0  0  0  0  0  0  0  0  0  0
  -14.5141    1.3548  -22.8691 C   0  0  0  0  0  0  0  0  0  0  0  0
  -13.9239    0.0523  -23.0283 N   0  0  0  0  0  0  0  0  0  0  0  0
   -8.2148    4.4267  -21.6002 O   0  0  0  0  0  0  0  0  0  0  0  0
   -8.9725    6.1637  -18.6209 P   0  0  0  0  0  5  0  0  0  0  0  0
  -15.5355    4.1329  -23.4478 O   0  0  0  0  0  0  0  0  0  0  0  0
  -15.5800    1.7231  -23.0090 N   0  0  0  0  0  0  0  0  0  0  0  0
  -14.4078   -2.6295  -23.3156 N   0  0  0  0  0  0  0  0  0  0  0  0
   -8.7534    5.4357  -19.6275 N   0  0  0  0  0  0  0  0  0  0  0  0
  -11.6673    4.1362  -20.7305 P   0  0  0  0  0  0  0  0  0  0  0  0
  -16.7069   -1.9816  -24.2358 N   0  0  0  0  0  0  0  0  0  0  0  0
  -12.8126    4.2426  -21.6530 O   0  0  0  0  0  0  0  0  0  0  0  0
  -14.2583    5.1009  -22.0964 C   0  0  0  0  0  0  0  0  0  0  0  0
   -8.8461    6.6205  -21.8163 O   0  0  0  0  0  0  0  0  0  0  0  0
  -12.6714    4.3783  -19.4388 O   0  0  0  0  0  0  0  0  0  0  0  0
  -16.2620    0.3929  -23.6040 C   0  0  0  0  0  0  0  0  0  0  0  0
  -16.6941    4.9636  -20.2372 O   0  0  0  0  0  0  0  0  0  0  0  0
  -10.4516    6.7382  -18.8168 O   0  0  0  0  0  0  0  0  0  0  0  0
   -8.1742    6.4080  -17.7648 O   0  0  0  0  0  0  0  0  0  0  0  0
   -9.0492    5.4278  -21.1590 P   0  0  0  0  0  4  0  0  0  0  0  0
   -9.4125    4.4144  -18.3528 O   0  0  0  0  0  0  0  0  0  0  0  0
  -11.2989    2.6148  -20.5209 O   0  0  0  0  0  1  0  0  0  0  0  0
  -18.2319    4.1506  -21.8356 O   0  0  0  0  0  0  0  0  0  0  0  0
  -16.4765    3.1121  -22.8655 C   0  0  0  0  0  0  0  0  0  0  0  0
  -10.7457    4.6425  -21.5125 O   0  0  0  0  0  0  0  0  0  0  0  0
  -15.6039   -1.7223  -23.7655 C   0  0  0  0  0  0  0  0  0  0  0  0
  -17.7272   -1.0800  -24.4891 C   0  0  0  0  0  0  0  0  0  0  0  0
  3  2  1  0
  6  1  1  0
  6  5  2  0
 10  5  1  0
 12  8  1  0
 15 13  1  0
 16  2  1  0
 16 15  1  0
 17  8  1  0
 18 13  1  0
 19  1  1  0
 19  4  2  0
 19 10  1  0
 20  3  1  0
 21  8  1  0
 22  8  1  0
 23  7  1  0
 23 17  1  0
 24  8  1  0
 25 23  1  0
 26  3  1  0
 27  3  1  0
 27  9  1  0
 27 10  1  0
 28 13  1  0
 28 23  1  0
 29  1  2  0
 29 11  1  0
 29 14  1  0
 30  4  1  0
 30 14  2  0
M  RAD  2  23   2  25   2
M  END
>  <ID>  (1) 
conformer_0

$$$$
