
     RDKit          3D

 29 29  0  0  0  0  0  0  0  0999 V2000
  -15.1712   -1.6610  -23.6118 C   0  0  0  0  0  0  0  0  0  0  0  0
  -16.3677    2.9923  -23.0188 C   0  0  1  0  0  0  0  0  0  0  0  0
  -16.6936    3.6002  -22.0222 C   0  0  1  0  0  0  0  0  0  0  0  0
  -17.2577    0.2505  -24.0986 N   0  0  0  0  0  0  0  0  0  0  0  0
  -15.8903   -0.2414  -23.5746 C   0  0  0  0  0  0  0  0  0  0  0  0
   -8.3581    4.2642  -21.5765 O   0  0  0  0  0  0  0  0  0  0  0  0
  -15.3628    4.0231  -23.5413 O   0  0  0  0  0  0  0  0  0  0  0  0
  -14.1938   -0.0361  -23.0152 N   0  0  0  0  0  0  0  0  0  0  0  0
  -15.6233    1.5885  -23.1200 N   0  0  0  0  0  0  0  0  0  0  0  0
  -14.2647   -2.6407  -23.3972 N   0  0  0  0  0  0  0  0  0  0  0  0
   -8.9069    5.9788  -18.6919 P   0  0  1  0  0  4  0  0  0  0  0  0
  -12.0899    4.0635  -20.5771 P   0  0  2  0  0  4  0  0  0  0  0  0
  -11.7478    2.7599  -20.3518 O   0  0  0  0  0  1  0  0  0  0  0  0
  -15.5556    4.5482  -21.6162 C   0  0  2  0  0  0  0  0  0  0  0  0
  -18.2189    3.6846  -22.5383 O   0  0  0  0  0  0  0  0  0  0  0  0
   -8.8208    6.3961  -21.9720 O   0  0  0  0  0  0  0  0  0  0  0  0
  -17.4018   -1.1080  -24.3604 C   0  0  0  0  0  0  0  0  0  0  0  0
  -16.5660   -2.0810  -24.2332 N   0  0  0  0  0  0  0  0  0  0  0  0
  -16.7718    4.6586  -20.5252 O   0  0  0  0  0  0  0  0  0  0  0  0
   -8.0412    5.3616  -18.3684 O   0  0  0  0  0  1  0  0  0  0  0  0
  -12.5896    4.9830  -19.2326 O   0  0  0  0  0  0  0  0  0  0  0  0
  -10.0388    7.2055  -19.4097 O   0  0  0  0  0  0  0  0  0  0  0  0
  -13.2689    4.0916  -21.4129 O   0  0  0  0  0  0  0  0  0  0  0  0
  -11.1103    4.6719  -21.4428 O   0  0  0  0  0  0  0  0  0  0  0  0
   -9.2364    5.3762  -21.1815 P   0  0  0  0  0  0  0  0  0  0  0  0
   -9.4635    6.3654  -19.6264 N   0  0  0  0  0  0  0  0  0  0  0  0
  -14.3991    5.1227  -21.9231 C   0  0  0  0  0  0  0  0  0  0  0  0
   -9.8334    5.6778  -17.5528 O   0  0  0  0  0  0  0  0  0  0  0  0
  -14.9099    0.9582  -23.1527 C   0  0  0  0  0  0  0  0  0  0  0  0
  3  2  1  0
  5  1  2  0
  5  4  1  0
  2  7  1  1
  9  2  1  0
 10  1  1  0
 12 13  1  1
 14  3  1  0
  3 15  1  6
 16 11  1  0
 17  4  2  0
 18  1  1  0
 18 17  1  0
 14 19  1  6
 11 20  1  6
 21 12  1  0
 23 12  1  0
 24 12  1  0
 25  6  1  0
 25 16  1  0
 25 24  1  0
 26 11  1  0
 26 22  1  0
 27 14  1  0
 27 23  1  0
 28 11  1  0
 29  5  1  0
 29  8  2  3
 29  9  1  0
M  RAD  4  11   2  12   2  13   2  20   2
M  END
>  <ID>  (1) 
conformer_0

$$$$
