
     RDKit          3D

 28 28  0  0  0  0  0  0  0  0999 V2000
  -16.6395    3.6988  -21.8851 C   0  0  1  0  0  0  0  0  0  0  0  0
  -14.9542   -1.4036  -23.3391 C   0  0  0  0  0  0  0  0  0  0  0  0
  -15.4901    4.6154  -21.5804 C   0  0  1  0  0  0  0  0  0  0  0  0
  -17.1327    0.2553  -24.0792 N   0  0  0  0  0  0  0  0  0  0  0  0
  -14.5308    1.1100  -22.8922 C   0  0  0  0  0  0  0  0  0  0  0  0
  -13.8107    0.0824  -22.9178 N   0  0  0  0  0  0  0  0  0  0  0  0
  -15.3224    3.9954  -23.7242 O   0  0  0  0  0  0  0  0  0  0  0  0
  -14.2390   -2.6409  -23.1894 N   0  0  0  0  0  0  0  0  0  0  0  0
   -8.8735    5.9164  -18.9412 P   0  0  2  0  0  4  0  0  0  0  0  0
   -7.8766    4.6284  -21.4614 O   0  0  0  0  0  0  0  0  0  0  0  0
  -16.5589   -1.9547  -24.1036 N   0  0  0  0  0  0  0  0  0  0  0  0
  -15.4447    1.6991  -22.9959 N   0  0  0  0  0  0  0  0  0  0  0  0
  -11.1482    3.0914  -20.3803 O   0  0  0  0  0  1  0  0  0  0  0  0
  -14.3496    5.3046  -22.2459 C   0  0  0  0  0  0  0  0  0  0  0  0
   -7.6626    6.0655  -18.5429 O   0  0  0  0  0  1  0  0  0  0  0  0
   -9.0203    6.3700  -22.2005 O   0  0  0  0  0  0  0  0  0  0  0  0
  -11.8118    4.2783  -20.4643 P   0  0  1  0  0  4  0  0  0  0  0  0
  -18.1723    4.1859  -22.4818 O   0  0  0  0  0  0  0  0  0  0  0  0
   -9.7132    6.1542  -20.2508 N   0  0  0  0  0  0  0  0  0  0  0  0
  -15.5985   -0.0292  -23.3750 C   0  0  2  0  0  0  0  0  0  0  0  0
  -16.7328    5.1200  -20.5872 O   0  0  0  0  0  0  0  0  0  0  0  0
   -9.5572    5.1622  -18.1502 O   0  0  0  0  0  0  0  0  0  0  0  0
  -12.5383    4.5012  -21.2240 O   0  0  0  0  0  0  0  0  0  0  0  0
  -10.1817    4.4537  -22.4904 O   0  0  0  0  0  0  0  0  0  0  0  0
  -12.3225    5.0331  -19.1096 O   0  0  0  0  0  0  0  0  0  0  0  0
  -16.4047    3.2160  -23.1664 C   0  0  1  0  0  0  0  0  0  0  0  0
  -17.0943   -1.0813  -24.2176 C   0  0  0  0  0  0  0  0  0  0  0  0
   -9.0517    5.3942  -21.2975 P   0  0  0  0  0  5  0  0  0  0  0  0
  3  1  1  0
  6  5  2  3
  8  2  1  0
 11  2  2  0
 12  5  1  0
 14  3  1  0
 15  9  1  0
 16  9  1  0
 17 13  1  1
  1 18  1  6
  9 19  1  1
 20  2  1  0
 20  4  1  0
 20  5  1  6
  3 21  1  6
 22  9  1  0
 23 14  1  0
 23 17  1  0
 25 17  1  0
 26  1  1  0
 26  7  1  6
 26 12  1  0
 27  4  2  0
 27 11  1  0
 28 10  1  0
 28 16  1  0
 28 17  1  0
 28 24  1  0
M  RAD  4   9   2  13   2  15   2  17   2
M  END
>  <ID>  (1) 
conformer_0

$$$$
