
     RDKit          3D

 29 29  0  0  0  0  0  0  0  0999 V2000
  -14.9926   -1.4120  -23.5887 C   0  0  0  0  0  0  0  0  0  0  0  0
  -16.5578    3.7245  -21.6753 C   0  0  1  0  0  0  0  0  0  0  0  0
  -16.4359    3.0488  -22.8568 C   0  0  1  0  0  0  0  0  0  0  0  0
  -13.7673    0.1864  -22.9790 N   0  0  0  0  0  0  0  0  0  0  0  0
  -16.6834   -1.9022  -24.2175 N   0  0  0  0  0  0  0  0  0  0  0  0
  -14.5095    1.1522  -22.9071 C   0  0  0  0  0  0  0  0  0  0  0  0
   -8.5804    5.7662  -18.4813 P   0  0  0  0  0  5  0  0  0  0  0  0
  -15.5451    4.0958  -23.4543 O   0  0  0  0  0  0  0  0  0  0  0  0
  -14.5322   -2.7275  -23.4446 N   0  0  0  0  0  0  0  0  0  0  0  0
  -15.4333    1.7674  -22.9964 N   0  0  0  0  0  0  0  0  0  0  0  0
  -12.0226    4.1738  -20.5688 P   0  0  2  0  0  4  0  0  0  0  0  0
  -11.4791    2.8137  -20.4855 O   0  0  0  0  0  1  0  0  0  0  0  0
   -8.5009    4.2352  -18.5034 O   0  0  0  0  0  0  0  0  0  0  0  0
  -15.3274    4.7471  -21.4888 C   0  0  2  0  0  0  0  0  0  0  0  0
   -8.3259    4.6369  -21.3669 O   0  0  0  0  0  0  0  0  0  0  0  0
   -9.0009    6.5140  -21.7234 O   0  0  0  0  0  0  0  0  0  0  0  0
  -16.6773    4.9752  -20.3372 O   0  0  0  0  0  0  0  0  0  0  0  0
  -12.4842    4.7866  -19.3776 O   0  0  0  0  0  0  0  0  0  0  0  0
  -15.5567   -0.0012  -23.5114 C   0  0  0  0  0  0  0  0  0  0  0  0
  -17.1200    0.2665  -23.9784 N   0  0  0  0  0  0  0  0  0  0  0  0
   -7.4992    6.2344  -18.5348 O   0  0  0  0  0  0  0  0  0  0  0  0
  -13.0080    4.3319  -21.5250 O   0  0  0  0  0  0  0  0  0  0  0  0
   -9.6560    6.6077  -19.3697 N   0  0  0  0  0  0  0  0  0  0  0  0
   -9.3189    5.5354  -20.9576 P   0  0  0  0  0  0  0  0  0  0  0  0
  -10.7753    4.8968  -21.4086 O   0  0  0  0  0  0  0  0  0  0  0  0
  -17.2494   -1.0074  -24.2578 C   0  0  0  0  0  0  0  0  0  0  0  0
  -14.3405    5.3243  -22.1127 C   0  0  0  0  0  0  0  0  0  0  0  0
  -17.9669    3.5977  -21.2571 O   0  0  0  0  0  0  0  0  0  0  0  0
   -9.2610    5.6382  -17.4349 O   0  0  0  0  0  0  0  0  0  0  0  0
  3  2  1  0
  5  1  2  0
  6  4  2  3
  3  8  1  6
  9  1  1  0
 10  3  1  0
 10  6  1  0
 11 12  1  1
 13  7  1  0
 14  2  1  0
 16  7  1  0
 14 17  1  6
 18 11  1  0
 19  1  1  0
 19  6  1  0
 20 19  1  0
 21  7  1  0
 22 11  1  0
 23  7  1  0
 24 15  1  0
 24 16  1  0
 25 11  1  0
 25 24  1  0
 26  5  1  0
 26 20  2  0
 27 14  1  0
 27 22  1  0
  2 28  1  6
 29  7  1  0
M  RAD  2  11   2  12   2
M  END
>  <ID>  (1) 
conformer_0

$$$$
