
     RDKit          3D

 28 28  0  0  0  0  0  0  0  0999 V2000
  -16.7776   -1.1232  -24.0917 C   0  0  0  0  0  0  0  0  0  0  0  0
  -15.7537    4.7614  -21.2959 C   0  0  2  0  0  0  0  0  0  0  0  0
  -14.7370    5.3651  -21.9560 C   0  0  2  0  0  0  0  0  0  0  0  0
  -17.0514    0.0201  -24.0178 N   0  0  0  0  0  0  0  0  0  0  0  0
  -14.5607    1.2937  -22.7471 C   0  0  0  0  0  0  0  0  0  0  0  0
  -13.7238    0.4085  -22.7812 N   0  0  0  0  0  0  0  0  0  0  0  0
   -8.0915    4.3552  -21.6808 O   0  0  0  0  0  0  0  0  0  0  0  0
  -15.5366    4.1590  -23.4639 O   0  0  0  0  0  0  0  0  0  0  0  0
   -8.9370    5.9335  -18.7933 P   0  0  0  0  0  4  0  0  0  0  0  0
  -15.6171    1.8701  -22.9984 N   0  0  0  0  0  0  0  0  0  0  0  0
  -13.7596   -2.5606  -23.1081 N   0  0  0  0  0  0  0  0  0  0  0  0
  -13.2698    4.8556  -21.6684 O   0  0  0  0  0  0  0  0  0  0  0  0
  -12.1217    4.4946  -20.9558 P   0  0  0  0  0  0  0  0  0  0  0  0
   -9.5285    6.3650  -20.0731 N   0  0  0  0  0  0  0  0  0  0  0  0
   -9.5962    5.7213  -17.7280 O   0  0  0  0  0  0  0  0  0  0  0  0
   -7.6939    6.4170  -18.3393 O   0  0  0  0  0  1  0  0  0  0  0  0
  -14.6706   -1.3477  -23.2430 C   0  0  0  0  0  0  0  0  0  0  0  0
  -16.6966    3.7496  -21.9155 C   0  0  1  0  0  0  0  0  0  0  0  0
  -17.1250    4.7047  -20.4880 O   0  0  0  0  0  0  0  0  0  0  0  0
   -9.4351    5.8356  -22.6707 O   0  0  0  0  0  0  0  0  0  0  0  0
   -9.1692    5.0820  -21.5102 P   0  0  0  0  0  0  0  0  0  0  0  0
  -16.1669   -1.9916  -23.9303 N   0  0  0  0  0  0  0  0  0  0  0  0
  -18.3072    3.3198  -22.6451 O   0  0  0  0  0  0  0  0  0  0  0  0
  -12.4178    3.2725  -20.2492 O   0  0  0  0  0  0  0  0  0  0  0  0
  -10.9760    4.4040  -21.7448 O   0  0  0  0  0  0  0  0  0  0  0  0
   -9.2027    4.0346  -19.1245 O   0  0  0  0  0  0  0  0  0  0  0  0
  -15.4647    0.0912  -23.3033 C   0  0  0  0  0  0  0  0  0  0  0  0
  -16.4618    2.9683  -23.1284 C   0  0  1  0  0  0  0  0  0  0  0  0
  3  2  1  0
  4  1  2  0
  6  5  2  3
 10  5  1  0
 12  3  1  0
 13 12  1  0
 14  9  1  0
 15  9  1  0
 16  9  1  0
 17 11  1  0
 18  2  1  0
  2 19  1  6
 20 13  1  0
 21  7  1  0
 21 14  1  0
 21 20  1  0
 22  1  1  0
 22 17  1  0
 18 23  1  6
  3 24  1  1
 25 13  1  0
 26  9  1  0
 27  4  1  0
 27  5  1  0
 27 17  2  0
 28  8  1  6
 28 10  1  0
 28 18  1  0
M  RAD  2   9   2  16   2
M  END
>  <ID>  (1) 
conformer_0

$$$$
