
     RDKit          3D

 28 28  0  0  0  0  0  0  0  0999 V2000
  -15.5303    0.2026  -23.4372 C   0  0  0  0  0  0  0  0  0  0  0  0
  -16.6665    3.9679  -21.6384 C   0  0  0  0  0  0  0  0  0  0  0  0
  -15.4472    4.8707  -21.6385 C   0  0  0  0  0  0  0  0  0  0  0  0
  -16.9922    0.3589  -23.9745 N   0  0  0  0  0  0  0  0  0  0  0  0
  -13.6989    0.3552  -22.9220 N   0  0  0  0  0  0  0  0  0  0  0  0
  -14.5641    1.2854  -22.8497 C   0  0  0  0  0  0  0  0  0  0  0  0
  -15.2449    4.2854  -23.6188 O   0  0  0  0  0  0  0  0  0  0  0  0
  -11.8539    4.3417  -20.6671 P   0  0  0  0  0  0  0  0  0  0  0  0
  -15.4590    1.9024  -22.9598 N   0  0  0  0  0  0  0  0  0  0  0  0
  -14.0075   -2.5159  -23.3018 N   0  0  0  0  0  0  0  0  0  0  0  0
  -16.3524   -1.8916  -24.0491 N   0  0  0  0  0  0  0  0  0  0  0  0
   -7.4332    5.9646  -18.3311 O   0  0  0  0  0  1  0  0  0  0  0  0
  -14.1525    5.2958  -22.2134 C   0  0  0  0  0  0  0  0  0  0  0  0
  -16.7618    5.0655  -20.3748 O   0  0  0  0  0  0  0  0  0  0  0  0
   -8.7059    5.5203  -18.8078 P   0  0  0  0  0  4  0  0  0  0  0  0
  -10.7418    4.5554  -21.5191 O   0  0  0  0  0  0  0  0  0  0  0  0
   -8.7660    3.8535  -18.3988 O   0  0  0  0  0  0  0  0  0  0  0  0
   -9.3787    5.9756  -22.7047 O   0  0  0  0  0  1  0  0  0  0  0  0
  -14.8239   -1.2526  -23.4721 C   0  0  1  0  0  0  0  0  0  0  0  0
   -8.7839    5.9114  -20.1651 N   0  0  0  0  0  0  0  0  0  0  0  0
  -18.0576    4.2821  -22.4378 O   0  0  0  0  0  0  0  0  0  0  0  0
   -8.3776    4.1532  -21.5646 O   0  0  0  0  0  0  0  0  0  0  0  0
  -12.8997    4.6853  -21.6318 O   0  0  0  0  0  0  0  0  0  0  0  0
  -11.9483    3.3103  -19.9318 O   0  0  0  0  0  0  0  0  0  0  0  0
   -9.9789    6.0427  -18.4082 O   0  0  0  0  0  0  0  0  0  0  0  0
   -9.5411    5.3448  -21.4960 P   0  0  1  0  0  4  0  0  0  0  0  0
  -16.3024    3.3180  -22.8911 C   0  0  1  0  0  0  0  0  0  0  0  0
  -16.9226   -0.9701  -24.1832 C   0  0  0  0  0  0  0  0  0  0  0  0
  3  2  1  0
  4  1  2  0
  6  1  1  0
  6  5  2  3
  9  6  1  0
 13  3  1  0
 14  2  1  0
 15 12  1  0
 16  8  1  0
 17 15  1  0
 19  1  1  0
 19 10  1  1
 19 11  1  0
 20 15  1  0
 21  2  1  0
 23  8  1  0
 23 13  1  0
 24  8  1  0
 25 15  1  0
 26 16  1  0
 26 18  1  6
 26 20  1  0
 26 22  1  0
 27  2  1  0
 27  7  1  6
 27  9  1  0
 28  4  1  0
 28 11  2  0
M  RAD  4  12   2  15   2  18   2  26   2
M  END
>  <ID>  (1) 
conformer_0

$$$$
