
     RDKit          3D

 29 31  0  0  0  0  0  0  0  0999 V2000
  -16.7192    3.5803  -21.9150 C   0  0  1  0  0  0  0  0  0  0  0  0
  -16.7965   -1.2170  -24.1013 C   0  0  0  0  0  0  0  0  0  0  0  0
  -15.5904    4.5832  -22.0057 C   0  0  2  0  0  0  0  0  0  0  0  0
  -13.4983    0.2651  -22.9133 N   0  0  0  0  0  0  0  0  0  0  0  0
  -16.9840    0.0354  -24.0415 N   0  0  0  0  0  0  0  0  0  0  0  0
  -14.3473    1.0585  -22.9117 C   0  0  0  0  0  0  0  0  0  0  0  0
  -15.5015    3.9113  -23.7101 O   0  0  0  0  0  0  0  0  0  0  0  0
   -8.3412    4.4249  -21.6812 O   0  0  0  0  0  0  0  0  0  0  0  0
  -14.2575    5.2241  -22.2179 C   0  0  0  0  0  0  0  0  0  0  0  0
  -11.8343    4.2016  -20.8749 P   0  0  2  0  0  4  0  0  0  0  0  0
  -11.7577    3.0126  -20.4145 O   0  0  0  0  0  1  0  0  0  0  0  0
  -15.5713    1.5790  -23.1288 N   0  0  0  0  0  0  0  0  0  0  0  0
   -8.7299    5.9820  -18.5348 P   0  0  0  0  0  5  0  0  0  0  0  0
   -9.3091    6.0319  -17.4646 O   0  0  0  0  0  0  0  0  0  0  0  0
  -13.9969   -2.7847  -23.3570 N   0  0  0  0  0  0  0  0  0  0  0  0
  -16.5681    4.9389  -20.5105 O   0  0  0  0  0  0  0  0  0  0  0  0
   -7.5016    6.0064  -18.6577 O   0  0  0  0  0  0  0  0  0  0  0  0
   -8.8558    6.5249  -21.5164 O   0  0  0  0  0  0  0  0  0  0  0  0
  -14.5256   -1.3557  -23.3705 C   0  0  0  0  0  3  0  0  0  0  0  0
  -16.1829   -1.9086  -23.9378 N   0  0  0  0  0  0  0  0  0  0  0  0
   -9.1975    5.3018  -21.3730 P   0  0  0  0  0  0  0  0  0  0  0  0
  -10.7053    4.7692  -21.4938 O   0  0  0  0  0  0  0  0  0  0  0  0
  -12.6395    4.8056  -19.4976 O   0  0  0  0  0  0  0  0  0  0  0  0
  -18.1652    3.5916  -21.7036 O   0  0  0  0  0  0  0  0  0  0  0  0
   -9.7024    6.0207  -19.6503 N   0  0  0  0  0  0  0  0  0  0  0  0
  -12.8530    4.5066  -21.8741 O   0  0  0  0  0  0  0  0  0  0  0  0
  -16.5476    2.8694  -22.9585 C   0  0  1  0  0  0  0  0  0  0  0  0
  -15.4800    0.0113  -23.4018 C   0  0  1  0  0  0  0  0  0  0  0  0
   -9.0129    4.2427  -18.5532 O   0  0  0  0  0  0  0  0  0  0  0  0
  3  1  1  0
  5  2  2  0
  6  4  2  3
  7  3  1  0
  9  3  1  0
 10 11  1  1
 12  6  1  0
 14 13  1  0
  3 16  1  6
 17 13  1  0
 18 13  1  0
 19 15  1  0
 20  2  1  0
 20 19  1  0
 21  8  1  0
 21 18  1  0
 22 10  1  0
 22 21  1  0
 23 10  1  0
  1 24  1  6
 25 13  1  0
 26  9  1  0
 26 10  1  0
 27  1  1  0
 27  7  1  0
 27 12  1  1
 28  5  1  0
 28  6  1  0
 28 12  1  0
 28 19  1  1
 29 13  1  0
M  RAD  3  10   2  11   2  19   2
M  END
>  <ID>  (1) 
conformer_0

$$$$
