
     RDKit          3D

 28 29  0  0  0  0  0  0  0  0999 V2000
  -16.9815   -0.9949  -24.2206 C   0  0  0  0  0  0  0  0  0  0  0  0
  -16.6121    3.7658  -21.8360 C   0  0  0  0  0  0  0  0  0  0  0  0
  -15.2808    4.6072  -21.5593 C   0  0  0  0  0  0  0  0  0  0  0  0
  -13.7808    0.0263  -22.7994 N   0  0  0  0  0  0  0  0  0  0  0  0
  -17.2066    0.4052  -24.1772 N   0  0  0  0  0  0  0  0  0  0  0  0
  -14.4684    0.7927  -22.8652 C   0  0  0  0  0  0  0  0  0  0  0  0
  -15.2250    4.0539  -23.4076 O   0  0  0  0  0  0  0  0  0  0  0  0
  -10.1232    6.4283  -19.9391 N   0  0  0  0  0  0  0  0  0  0  0  0
  -11.9204    4.1165  -20.4598 P   0  0  0  0  0  0  0  0  0  0  0  0
  -14.2995   -2.7342  -23.3176 N   0  0  0  0  0  0  0  0  0  0  0  0
  -13.9815    5.0819  -22.3459 C   0  0  0  0  0  0  0  0  0  0  0  0
  -17.1081    4.4852  -20.6171 O   0  0  0  0  0  0  0  0  0  0  0  0
  -14.8597   -1.4559  -23.3665 C   0  0  0  0  0  0  0  0  0  0  0  0
   -8.8334    5.8411  -18.9577 P   0  0  0  0  0  4  0  0  0  0  0  0
   -8.6808    4.7736  -21.6027 O   0  0  0  0  0  0  0  0  0  0  0  0
   -7.8250    5.6939  -18.4547 O   0  0  0  0  0  1  0  0  0  0  0  0
  -11.3269    2.9267  -20.2864 O   0  0  0  0  0  0  0  0  0  0  0  0
  -16.5890   -1.8510  -24.1198 N   0  0  0  0  0  0  0  0  0  0  0  0
  -11.6185    4.7840  -22.0501 O   0  0  0  0  0  0  0  0  0  0  0  0
  -15.5918    1.6105  -23.0510 N   0  0  0  0  0  0  0  0  0  0  0  0
   -9.1629    3.6546  -19.2533 O   0  0  0  0  0  0  0  0  0  0  0  0
  -18.3118    3.6937  -22.6278 O   0  0  0  0  0  0  0  0  0  0  0  0
   -9.8698    5.5032  -21.6874 P   0  0  1  0  0  4  0  0  0  0  0  0
   -9.8302    5.8926  -23.1254 O   0  0  0  0  0  1  0  0  0  0  0  0
   -9.4937    5.7722  -17.5079 O   0  0  0  0  0  0  0  0  0  0  0  0
  -13.0607    4.0007  -20.4330 O   0  0  0  0  0  0  0  0  0  0  0  0
  -16.3858    3.0679  -22.9436 C   0  0  1  0  0  0  0  0  0  0  0  0
  -15.7833    0.0892  -23.4461 C   0  0  2  0  0  0  0  0  0  0  0  0
  3  2  1  0
  5  1  1  0
  6  4  2  3
 11  3  1  0
 11  9  1  0
 12  2  1  0
 13  4  1  0
 13 10  1  0
 14  8  1  0
 16 14  1  0
 18  1  2  3
 19  9  1  0
 20  6  1  0
 21 14  1  0
 22  2  1  0
 23  8  1  0
 23 15  1  1
 23 19  1  0
 24 23  1  0
 25 14  1  0
 26  9  1  0
 26 17  1  0
 27  2  1  0
 27  7  1  6
 27 20  1  0
 28  1  1  0
 28  5  1  6
 28  6  1  0
 28 20  1  0
M  RAD  4  14   2  16   2  23   2  24   2
M  END
>  <ID>  (1) 
conformer_0

$$$$
