
     RDKit          3D

 28 27  0  0  0  0  0  0  0  0999 V2000
  -15.3028   -1.2412  -23.5961 C   0  0  0  0  0  0  0  0  0  0  0  0
  -16.5486    3.6920  -21.7795 C   0  0  0  0  0  0  0  0  0  0  0  0
  -16.5795    2.9393  -23.0676 C   0  0  1  0  0  0  0  0  0  0  0  0
  -14.2221   -0.0249  -22.9666 N   0  0  0  0  0  0  0  0  0  0  0  0
  -15.2167    0.7063  -23.2634 C   0  0  0  0  0  0  0  0  0  0  0  0
  -17.2890    0.1606  -24.2297 N   0  0  0  0  0  0  0  0  0  0  0  0
   -8.5856    4.5417  -21.5722 O   0  0  0  0  0  0  0  0  0  0  0  0
  -15.4702    4.6413  -21.7780 C   0  0  0  0  0  0  0  0  0  0  0  0
  -15.4058    3.9579  -23.5653 O   0  0  0  0  0  0  0  0  0  0  0  0
  -14.4189   -2.7537  -23.3556 N   0  0  0  0  0  0  0  0  0  0  0  0
   -8.6688    5.8196  -18.7468 P   0  0  0  0  0  5  0  0  0  0  0  0
  -11.9100    4.0357  -20.6652 P   0  0  1  0  0  4  0  0  0  0  0  0
  -15.7651    1.5803  -23.1772 N   0  0  0  0  0  0  0  0  0  0  0  0
   -8.5197    4.9445  -17.8132 O   0  0  0  0  0  0  0  0  0  0  0  0
  -12.8228    4.0914  -21.4964 O   0  0  0  0  0  0  0  0  0  0  0  0
  -16.4626    4.6699  -20.2569 O   0  0  0  0  0  0  0  0  0  0  0  0
  -12.7923    4.4068  -19.3901 O   0  0  0  0  0  0  0  0  0  0  0  0
  -16.8692   -0.8177  -24.1758 C   0  0  0  0  0  0  0  0  0  0  0  0
   -9.1954    5.7013  -19.8317 N   0  0  0  0  0  0  0  0  0  0  0  0
   -9.0063    6.5578  -22.1683 O   0  0  0  0  0  0  0  0  0  0  0  0
  -11.1790    3.0545  -20.1825 O   0  0  0  0  0  1  0  0  0  0  0  0
  -16.5725   -2.0668  -24.2387 N   0  0  0  0  0  0  0  0  0  0  0  0
   -7.7692    6.8410  -18.8037 O   0  0  0  0  0  0  0  0  0  0  0  0
   -9.4170    5.5735  -21.3151 P   0  0  0  0  0  0  0  0  0  0  0  0
  -18.1353    3.6766  -21.5546 O   0  0  0  0  0  0  0  0  0  0  0  0
  -14.2530    5.2447  -22.1520 C   0  0  0  0  0  0  0  0  0  0  0  0
  -10.3491    6.0494  -18.3783 O   0  0  0  0  0  0  0  0  0  0  0  0
  -11.0961    5.0752  -22.2032 O   0  0  0  0  0  0  0  0  0  0  0  0
  3  2  1  0
  4  1  1  0
  5  4  2  3
  8  2  1  0
  3  9  1  6
 10  1  2  3
 13  3  1  0
 13  5  1  0
 14 11  1  0
 15 12  1  0
 16  2  1  0
 12 17  1  1
 18  6  3  0
 19 11  1  0
 20 11  1  0
 21 12  1  0
 22  1  1  0
 22 18  1  0
 23 11  1  0
 24  7  1  0
 24 20  1  0
 25  2  1  0
 26  8  1  0
 26 15  1  0
 27 11  1  0
 28 12  1  0
 28 24  1  0
M  RAD  2  12   2  21   2
M  END
>  <ID>  (1) 
conformer_0

$$$$
