
     RDKit          3D

 29 31  0  0  0  0  0  0  0  0999 V2000
  -14.9379   -1.3007  -23.3994 C   0  0  0  0  0  0  0  0  0  0  0  0
  -15.8938    4.3523  -21.5741 C   0  0  0  0  0  0  0  0  0  0  0  0
  -16.9120    3.5663  -21.8937 C   0  0  0  0  0  0  0  0  0  0  0  0
  -17.0900    0.2675  -24.1336 N   0  0  0  0  0  0  0  0  0  0  0  0
  -14.5398    1.1182  -22.8862 C   0  0  0  0  0  0  0  0  0  0  0  0
   -8.5840    5.7294  -18.4405 P   0  0  0  0  0  4  0  0  0  0  0  0
  -15.3704    3.9056  -23.6353 O   0  0  0  0  0  0  0  0  0  0  0  0
  -13.9592    0.1935  -22.8800 N   0  0  0  0  0  0  0  0  0  0  0  0
  -15.5437    1.7850  -23.1722 N   0  0  0  0  0  0  0  0  0  0  0  0
  -14.3394   -2.5858  -23.3117 N   0  0  0  0  0  0  0  0  0  0  0  0
   -7.1849    5.6273  -18.3142 O   0  0  0  0  0  1  0  0  0  0  0  0
  -12.0367    4.3881  -20.9288 P   0  0  0  0  0  5  0  0  0  0  0  0
   -9.2073    5.9327  -17.4341 O   0  0  0  0  0  0  0  0  0  0  0  0
  -11.9519    2.7484  -20.7247 O   0  0  0  0  0  0  0  0  0  0  0  0
  -14.5067    5.0394  -22.2051 C   0  0  0  0  0  0  0  0  0  0  0  0
  -16.4632   -1.8502  -24.0431 N   0  0  0  0  0  2  0  0  0  0  0  0
   -8.5124    4.2188  -21.2673 O   0  0  0  0  0  0  0  0  0  0  0  0
  -17.0088   -1.0661  -24.2507 C   0  0  0  0  0  0  0  0  0  0  0  0
   -9.8840    5.3507  -22.7160 O   0  0  0  0  0  0  0  0  0  0  0  0
   -9.0681    6.1835  -20.0172 N   0  0  0  0  0  0  0  0  0  0  0  0
  -18.1079    4.3116  -22.6048 O   0  0  0  0  0  0  0  0  0  0  0  0
  -13.1517    4.5379  -21.9102 O   0  0  0  0  0  0  0  0  0  0  0  0
   -9.4441    5.3364  -21.1334 P   0  0  0  0  0  0  0  0  0  0  0  0
  -12.4844    5.0012  -19.3405 O   0  0  0  0  0  0  0  0  0  0  0  0
   -9.1435    4.1555  -18.6877 O   0  0  0  0  0  0  0  0  0  0  0  0
  -17.2377    4.2231  -20.4979 O   0  0  0  0  0  0  0  0  0  0  0  0
  -16.3142    3.1104  -23.3062 C   0  0  0  0  0  0  0  0  0  0  0  0
  -15.6918    0.2543  -23.4646 C   0  0  0  0  0  0  0  0  0  0  0  0
  -11.2319    4.7779  -21.2035 O   0  0  0  0  0  0  0  0  0  0  0  0
  3  2  1  0
  8  1  1  0
  8  5  2  0
  9  5  1  0
 10  1  1  0
 11  6  1  0
 13  6  1  0
 14 12  1  0
 15  2  1  0
 16  1  1  0
 18  4  2  0
 18 16  1  0
 19 12  1  0
 20  6  1  0
 21  3  1  0
 22 12  1  0
 22 15  1  0
 23 17  1  0
 23 19  1  0
 23 20  1  0
 24 12  1  0
 25  6  1  0
 26  3  1  0
 27  3  1  0
 27  7  1  0
 27  9  1  0
 28  1  1  0
 28  4  1  0
 28  5  1  0
 28  9  1  0
 29 12  1  0
M  RAD  3   6   2  11   2  16   2
M  END
>  <ID>  (1) 
conformer_0

$$$$
