
     RDKit          3D

 20 19  0  0  0  0  0  0  0  0999 V2000
  -15.8625    4.2419  -21.7726 C   0  0  1  0  0  0  0  0  0  0  0  0
  -16.6462   -0.7868  -23.9764 C   0  0  0  0  0  0  0  0  0  0  0  0
  -16.3942    3.3620  -22.6579 C   0  0  1  0  0  0  0  0  0  0  0  0
  -17.0769    0.2284  -24.0158 N   0  0  0  0  0  0  0  0  0  0  0  0
  -15.1263    0.7670  -23.0955 C   0  0  0  0  0  0  0  0  0  0  0  0
  -14.0067   -0.0530  -22.9813 N   0  0  0  0  0  0  0  0  0  0  0  0
  -14.2583   -2.7224  -23.3458 N   0  0  0  0  0  0  0  0  0  0  0  0
   -8.7796    4.2635  -21.1672 O   0  0  0  0  0  0  0  0  0  0  0  0
   -9.0517    5.8327  -19.2146 P   0  0  0  0  0  4  0  0  0  0  0  0
  -15.2243    4.0035  -23.6524 O   0  0  0  0  0  0  0  0  0  0  0  0
  -15.6543    1.7051  -22.9862 N   0  0  0  0  0  0  0  0  0  0  0  0
   -9.0921    5.2396  -18.1014 O   0  0  0  0  0  0  0  0  0  0  0  0
   -8.8120    6.5132  -21.0271 O   0  0  0  0  0  1  0  0  0  0  0  0
  -12.0207    4.8358  -21.5122 O   0  0  0  0  0  0  0  0  0  0  0  0
  -16.5191   -1.9771  -24.1125 N   0  0  0  0  0  0  0  0  0  0  0  0
  -14.5458    5.0244  -22.0964 C   0  0  0  0  0  0  0  0  0  0  0  0
  -11.3560    4.5175  -20.8440 P   0  0  0  0  0  0  0  0  0  0  0  0
  -15.1376   -1.2057  -23.4119 C   0  0  0  0  0  0  0  0  0  0  0  0
  -17.3987    4.3569  -21.2666 O   0  0  0  0  0  0  0  0  0  0  0  0
  -11.3104    3.0524  -20.3992 O   0  0  0  0  0  0  0  0  0  0  0  0
  3  1  1  0
  4  2  2  3
  6  5  2  3
  9  8  1  0
  3 10  1  6
 11  3  1  0
 11  5  1  0
 12  9  1  0
 13  9  1  0
 15  2  1  0
 16  1  1  0
 17  9  1  0
 17 14  1  0
 17 16  1  0
 18  2  1  0
 18  6  1  0
 18  7  2  3
  1 19  1  6
 20 14  1  0
M  RAD  2   9   2  13   2
M  END
>  <ID>  (1) 
conformer_0

$$$$
