
     RDKit          3D

 27 27  0  0  0  0  0  0  0  0999 V2000
  -16.5734    3.6323  -21.8159 C   0  0  1  0  0  0  0  0  0  0  0  0
  -17.4864   -1.0419  -24.3707 C   0  0  0  0  0  0  0  0  0  0  0  0
  -15.5071    4.5088  -21.6341 C   0  0  1  0  0  0  0  0  0  0  0  0
  -17.3753    0.1943  -24.1150 N   0  0  0  0  0  0  0  0  0  0  0  0
   -8.5197    4.3039  -21.5682 O   0  0  0  0  0  0  0  0  0  0  0  0
  -15.9540   -0.1755  -23.4561 C   0  0  0  0  0  0  0  0  0  0  0  0
  -14.0997   -0.1571  -22.8723 N   0  0  0  0  0  0  0  0  0  0  0  0
  -14.2635   -2.6531  -23.4006 N   0  0  0  0  0  0  0  0  0  0  0  0
  -15.4873    3.8423  -23.4445 O   0  0  0  0  0  0  0  0  0  0  0  0
   -8.8668    6.0632  -18.4550 P   0  0  1  0  0  4  0  0  0  0  0  0
  -15.5946    1.4861  -22.9457 N   0  0  0  0  0  0  0  0  0  0  0  0
  -11.8915    3.9137  -20.8825 P   0  0  2  0  0  4  0  0  0  0  0  0
   -8.9750    6.4084  -21.9325 O   0  0  0  0  0  0  0  0  0  0  0  0
  -14.4494    5.1578  -22.0688 C   0  0  0  0  0  0  0  0  0  0  0  0
  -13.1113    4.1915  -21.5038 O   0  0  0  0  0  0  0  0  0  0  0  0
   -9.4329    5.1972  -17.8984 O   0  0  0  0  0  0  0  0  0  0  0  0
  -16.6162    4.9995  -20.5104 O   0  0  0  0  0  0  0  0  0  0  0  0
   -7.6220    6.4648  -17.9455 O   0  0  0  0  0  1  0  0  0  0  0  0
  -16.6724   -2.0718  -24.1789 N   0  0  0  0  0  0  0  0  0  0  0  0
  -15.2525   -1.6810  -23.5538 C   0  0  0  0  0  0  0  0  0  0  0  0
  -11.4432    3.0336  -20.0201 O   0  0  0  0  0  1  0  0  0  0  0  0
  -18.1452    3.9172  -22.3508 O   0  0  0  0  0  0  0  0  0  0  0  0
   -9.7448    6.7227  -19.5522 N   0  0  0  0  0  0  0  0  0  0  0  0
   -9.3244    5.4756  -21.1484 P   0  0  0  0  0  0  0  0  0  0  0  0
  -11.0168    4.9824  -21.0689 O   0  0  0  0  0  0  0  0  0  0  0  0
  -16.3798    2.8262  -22.8045 C   0  0  1  0  0  0  0  0  0  0  0  0
  -14.7616    0.8137  -22.8902 C   0  0  0  0  0  0  0  0  0  0  0  0
  3  1  1  0
  4  2  2  0
  6  4  1  0
 13 10  1  0
 14  3  1  0
 15 12  1  0
 15 14  1  0
 16 10  1  0
  3 17  1  6
 18 10  1  0
 19  2  1  0
 20  6  2  0
 20  8  1  0
 20 19  1  0
 12 21  1  1
  1 22  1  6
 10 23  1  1
 24  5  1  0
 24 13  1  0
 25 12  1  0
 25 24  1  0
 26  1  1  0
 26  9  1  6
 26 11  1  0
 27  6  1  0
 27  7  2  3
 27 11  1  0
M  RAD  4  10   2  12   2  18   2  21   2
M  END
>  <ID>  (1) 
conformer_0

$$$$
