
     RDKit          3D

 28 29  0  0  0  0  0  0  0  0999 V2000
  -15.6455    4.4515  -21.4863 C   0  0  0  0  0  0  0  0  0  0  0  0
  -15.5997   -0.0803  -23.4755 C   0  0  0  0  0  0  0  0  0  0  0  0
  -16.6314    3.6570  -21.7341 C   0  0  0  0  0  0  0  0  0  0  0  0
  -13.8023    0.0305  -22.9169 N   0  0  0  0  0  0  0  0  0  0  0  0
  -14.5943    1.0342  -22.9988 C   0  0  0  0  0  0  0  0  0  0  0  0
  -16.9537    0.1416  -24.1206 N   0  0  0  0  0  0  0  0  0  0  0  0
   -8.7200    6.0122  -18.5688 P   0  0  0  0  0  4  0  0  0  0  0  0
  -15.4167    4.0269  -23.5998 O   0  0  0  0  0  0  0  0  0  0  0  0
  -15.5171    1.6353  -23.0746 N   0  0  0  0  0  0  0  0  0  0  0  0
  -14.1166   -2.6681  -23.2446 N   0  0  0  0  0  0  0  0  0  0  0  0
  -14.7150    5.2128  -22.1916 C   0  0  0  0  0  0  0  0  0  0  0  0
   -8.8802    4.1758  -18.7159 O   0  0  0  0  0  0  0  0  0  0  0  0
  -12.1021    4.4701  -20.7486 P   0  0  0  0  0  5  0  0  0  0  0  0
  -11.0281    4.3664  -21.3118 O   0  0  0  0  0  0  0  0  0  0  0  0
   -8.5144    4.3586  -21.4816 O   0  0  0  0  0  0  0  0  0  0  0  0
  -16.4216   -2.0566  -24.1129 N   0  0  0  0  0  0  0  0  0  0  0  0
  -14.8211   -1.5092  -23.4315 C   0  0  0  0  0  0  0  0  0  0  0  0
  -17.4160    4.2339  -20.7255 O   0  0  0  0  0  0  0  0  0  0  0  0
   -7.7617    6.6229  -18.1594 O   0  0  0  0  0  1  0  0  0  0  0  0
  -12.3028    5.6129  -19.3676 O   0  0  0  0  0  0  0  0  0  0  0  0
  -10.0730    5.5901  -22.8038 O   0  0  0  0  0  0  0  0  0  0  0  0
  -13.1505    4.6610  -21.7037 O   0  0  0  0  0  0  0  0  0  0  0  0
   -9.3660    6.4616  -20.1025 N   0  0  0  0  0  0  0  0  0  0  0  0
   -9.5149    5.3747  -21.2071 P   0  0  0  0  0  0  0  0  0  0  0  0
   -9.6774    5.9276  -17.8105 O   0  0  0  0  0  0  0  0  0  0  0  0
  -16.3055    2.9993  -22.9915 C   0  0  0  0  0  0  0  0  0  0  0  0
  -12.2894    3.0140  -20.1124 O   0  0  0  0  0  0  0  0  0  0  0  0
  -16.9272   -1.1397  -24.2269 C   0  0  0  0  0  0  0  0  0  0  0  0
  3  1  1  0
  5  2  1  0
  5  4  2  0
  6  2  2  0
  9  5  1  0
 11  1  1  0
 12  7  1  0
 14 13  1  0
 17  2  1  0
 17  4  1  0
 17 10  1  0
 17 16  1  0
 18  3  1  0
 19  7  1  0
 20 13  1  0
 21 13  1  0
 22 11  1  0
 22 13  1  0
 23  7  1  0
 24 15  1  0
 24 21  1  0
 24 23  1  0
 25  7  1  0
 26  3  1  0
 26  8  1  0
 26  9  1  0
 27 13  1  0
 28  6  1  0
 28 16  2  0
M  RAD  2   7   2  19   2
M  END
>  <ID>  (1) 
conformer_0

$$$$
