
     RDKit          3D

 29 30  0  0  0  0  0  0  0  0999 V2000
  -16.9126   -1.0687  -24.1092 C   0  0  0  0  0  0  0  0  0  0  0  0
  -15.4797    4.5330  -21.4343 C   0  0  1  0  0  0  0  0  0  0  0  0
  -16.5672    3.8648  -21.8808 C   0  0  1  0  0  0  0  0  0  0  0  0
  -14.6680    1.0424  -22.8872 C   0  0  0  0  0  0  0  0  0  0  0  0
  -17.0291    0.2831  -24.0847 N   0  0  0  0  0  0  0  0  0  0  0  0
  -13.8720    0.1849  -22.8423 N   0  0  0  0  0  0  0  0  0  0  0  0
   -8.5647    6.1779  -19.0024 P   0  0  1  0  0  4  0  0  0  0  0  0
  -15.5529    1.7718  -23.0744 N   0  0  0  0  0  0  0  0  0  0  0  0
  -15.3460    3.9558  -23.5996 O   0  0  0  0  0  0  0  0  0  0  0  0
  -13.8831   -2.5118  -23.1197 N   0  0  0  0  0  0  0  0  0  0  0  0
   -8.1223    4.6100  -21.6749 O   0  0  0  0  0  0  0  0  0  0  0  0
  -11.9785    4.1655  -20.7860 P   0  0  0  0  0  5  0  0  0  0  0  0
  -16.2952   -2.0987  -23.9187 N   0  0  0  0  0  0  0  0  0  0  0  0
  -11.2950    3.0545  -20.6699 O   0  0  0  0  0  0  0  0  0  0  0  0
  -14.4242    5.1793  -22.2577 C   0  0  0  0  0  0  0  0  0  0  0  0
  -16.8576    4.8464  -20.5190 O   0  0  0  0  0  0  0  0  0  0  0  0
  -14.8313   -1.4913  -23.2566 C   0  0  0  0  0  0  0  0  0  0  0  0
  -10.6968    4.8594  -22.1278 O   0  0  0  0  0  0  0  0  0  0  0  0
   -8.9196    5.4510  -18.2016 O   0  0  0  0  0  0  0  0  0  0  0  0
   -8.9038    6.5402  -21.9067 O   0  0  0  0  0  0  0  0  0  0  0  0
  -18.0891    4.0569  -22.7966 O   0  0  0  0  0  0  0  0  0  0  0  0
  -13.0366    4.5013  -21.7472 O   0  0  0  0  0  0  0  0  0  0  0  0
   -9.1894    6.0638  -20.0577 N   0  0  0  0  0  0  0  0  0  0  0  0
  -11.6272    5.7887  -19.4794 O   0  0  0  0  0  0  0  0  0  0  0  0
   -9.3105    5.3677  -21.4078 P   0  0  0  0  0  0  0  0  0  0  0  0
  -16.3474    3.2737  -23.0791 C   0  0  2  0  0  0  0  0  0  0  0  0
  -15.6485   -0.0405  -23.3835 C   0  0  1  0  0  0  0  0  0  0  0  0
  -12.8750    3.5193  -19.5234 O   0  0  0  0  0  0  0  0  0  0  0  0
   -7.8427    6.9264  -19.2276 O   0  0  0  0  0  1  0  0  0  0  0  0
  3  2  1  0
  5  1  2  0
  6  4  2  3
  8  4  1  0
 13  1  1  0
 14 12  1  0
 15  2  1  0
  2 16  1  6
 17 10  1  0
 17 13  2  0
 18 12  1  0
 19  7  1  0
 20  7  1  0
  3 21  1  6
 22 12  1  0
 22 15  1  0
  7 23  1  1
 24 12  1  0
 25 11  1  0
 25 18  1  0
 25 20  1  0
 26  3  1  0
 26  8  1  0
 26  9  1  6
 27  1  1  0
 27  4  1  6
 27  5  1  0
 27 17  1  0
 28 14  1  0
 29  7  1  0
M  RAD  2   7   2  29   2
M  END
>  <ID>  (1) 
conformer_0

$$$$
