
     RDKit          3D

 27 28  0  0  0  0  0  0  0  0999 V2000
  -16.4851    3.9821  -21.3917 C   0  0  0  0  0  0  0  0  0  0  0  0
  -17.3383   -1.0334  -24.3293 C   0  0  0  0  0  0  0  0  0  0  0  0
  -15.2751    4.7818  -21.4461 C   0  0  0  0  0  0  0  0  0  0  0  0
  -14.9490    1.0452  -22.9187 C   0  0  0  0  0  0  0  0  0  0  0  0
  -17.2929    0.2709  -24.0823 N   0  0  0  0  0  0  0  0  0  0  0  0
  -14.1997    0.1029  -22.8522 N   0  0  0  0  0  0  0  0  0  0  0  0
  -14.1484   -2.5335  -23.2180 N   0  0  0  0  0  0  0  0  0  0  0  0
   -8.1754    4.5596  -21.5737 O   0  0  0  0  0  0  0  0  0  0  0  0
  -15.2563    4.1114  -23.3348 O   0  0  0  0  0  0  0  0  0  0  0  0
  -16.5025   -2.0371  -24.1959 N   0  0  0  0  0  0  0  0  0  0  0  0
  -15.7929    1.8665  -23.0744 N   0  0  0  0  0  0  0  0  0  0  0  0
   -8.3866    5.8465  -19.2315 P   0  0  0  0  0  4  0  0  0  0  0  0
  -13.9694    5.2156  -21.9976 C   0  0  0  0  0  0  0  0  0  0  0  0
  -11.9753    3.1311  -20.2095 O   0  0  0  0  0  0  0  0  0  0  0  0
  -11.7571    4.0634  -20.3678 P   0  0  0  0  0  0  0  0  0  0  0  0
   -9.4367    5.8916  -20.1219 N   0  0  0  0  0  0  0  0  0  0  0  0
  -15.1501   -1.3799  -23.4479 C   0  0  0  0  0  0  0  0  0  0  0  0
   -9.5275    6.0845  -22.6296 O   0  0  0  0  0  0  0  0  0  0  0  0
   -7.5089    5.9028  -18.9472 O   0  0  0  0  0  1  0  0  0  0  0  0
  -17.9364    4.1513  -21.3731 O   0  0  0  0  0  0  0  0  0  0  0  0
  -15.9972    5.5384  -20.1742 O   0  0  0  0  0  0  0  0  0  0  0  0
   -9.3446    4.6751  -18.5260 O   0  0  0  0  0  0  0  0  0  0  0  0
  -12.1750    5.3560  -19.1318 O   0  0  0  0  0  0  0  0  0  0  0  0
  -16.4134    3.3348  -22.8238 C   0  0  0  0  0  0  0  0  0  0  0  0
  -11.7312    4.6167  -21.6064 O   0  0  0  0  0  1  0  0  0  0  0  0
  -15.9724    0.1335  -23.5580 C   0  0  0  0  0  3  0  0  0  0  0  0
   -9.4182    5.4311  -21.4918 P   0  0  0  0  0  4  0  0  0  0  0  0
  3  1  1  0
  5  2  2  0
  6  4  2  0
 10  2  1  0
 11  4  1  0
 13  3  1  0
 15 13  1  0
 15 14  1  0
 16 12  1  0
 17  6  1  0
 17  7  1  0
 17 10  1  0
 18 12  1  0
 19 12  1  0
 20  1  1  0
 21  3  1  0
 22 12  1  0
 23 15  1  0
 24  1  1  0
 24  9  1  0
 24 11  1  0
 26  4  1  0
 26  5  1  0
 26 17  1  0
 27  8  1  0
 27 14  1  0
 27 18  1  0
 27 25  1  0
M  RAD  5  12   2  19   2  25   2  26   2  27   2
M  END
>  <ID>  (1) 
conformer_0

$$$$
