
     RDKit          3D

 31 32  0  0  0  0  0  0  0  0999 V2000
  -16.3594    3.1260  -23.1106 C   0  0  0  0  0  0  0  0  0  0  0  0
  -14.8424   -0.5225  -23.2306 C   0  0  0  0  0  0  0  0  0  0  0  0
  -15.6868    4.7189  -21.4858 C   0  0  0  0  0  0  0  0  0  0  0  0
  -17.0516    0.3403  -24.0751 N   0  0  0  0  0  0  0  0  0  0  0  0
  -14.4102    1.4246  -22.7282 C   0  0  0  0  0  0  0  0  0  0  0  0
  -13.8047    0.2148  -22.8972 N   0  0  0  0  0  0  0  0  0  0  0  0
  -12.0392    4.1907  -20.6891 P   0  0  0  0  0  4  0  0  0  0  0  0
  -15.4373    4.1058  -23.5321 O   0  0  0  0  0  0  0  0  0  0  0  0
   -9.7056    6.6212  -19.7566 N   0  0  0  0  0  0  0  0  0  0  0  0
   -8.6238    5.8935  -18.4707 P   0  0  0  0  0  7  0  0  0  0  0  0
  -14.2991   -2.6791  -23.3088 N   0  0  0  0  0  0  0  0  0  0  0  0
  -15.5244    1.8245  -23.0591 N   0  0  0  0  0  0  0  0  0  0  0  0
  -16.5885   -1.9305  -24.1262 N   0  0  0  0  0  0  0  0  0  0  0  0
  -13.0854    4.3097  -21.5716 O   0  0  0  0  0  0  0  0  0  0  0  0
   -8.5149    4.1904  -21.5867 O   0  0  0  0  0  0  0  0  0  0  0  0
   -9.0215    6.3544  -22.1880 O   0  0  0  0  0  0  0  0  0  0  0  0
  -14.4919    5.1178  -22.1113 C   0  0  0  0  0  0  0  0  0  0  0  0
  -12.5344    4.8860  -19.5404 O   0  0  0  0  0  0  0  0  0  0  0  0
  -15.2869   -1.7400  -23.6528 C   0  0  0  0  0  0  0  0  0  0  0  0
   -8.9278    4.2572  -18.3687 O   0  0  0  0  0  0  0  0  0  0  0  0
  -18.3210    3.6323  -22.2132 O   0  0  0  0  0  0  0  0  0  0  0  0
   -9.4604    5.4962  -21.2305 P   0  0  0  0  0  0  0  0  0  0  0  0
  -11.4564    2.8338  -20.4184 O   0  0  0  0  0  1  0  0  0  0  0  0
   -7.7059    5.8152  -17.7837 O   0  0  0  0  0  0  0  0  0  0  0  0
   -9.0766    7.0725  -18.3923 O   0  0  0  0  0  0  0  0  0  0  0  0
  -10.8844    4.8324  -21.7934 O   0  0  0  0  0  0  0  0  0  0  0  0
  -17.0970    5.0974  -20.6369 O   0  0  0  0  0  0  0  0  0  0  0  0
  -16.8156    3.8017  -21.7922 C   0  0  0  0  0  0  0  0  0  0  0  0
  -17.4518   -1.0532  -24.4161 C   0  0  0  0  0  0  0  0  0  0  0  0
   -8.6573    5.1207  -19.7133 N   0  0  0  0  0  0  0  0  0  0  0  0
  -16.0487    0.4845  -23.5723 C   0  0  0  0  0  0  0  0  0  0  0  0
  6  2  1  0
  6  5  2  0
  8  1  1  0
 10  9  1  0
 12  1  1  0
 12  5  1  0
 14  7  1  0
 16 10  1  0
 17  3  1  0
 17 14  1  0
 18  7  1  0
 19  2  1  0
 19 11  1  0
 19 13  2  0
 20 10  1  0
 22 15  1  0
 22 16  1  0
 23  7  1  0
 24 10  1  0
 25 10  1  0
 26  7  1  0
 26 22  1  0
 27  3  1  0
 28  1  1  0
 28  3  1  0
 28 21  1  0
 29  4  2  0
 29 13  1  0
 30 10  1  0
 31  2  2  0
 31  4  1  0
 31 12  1  0
M  RAD  2   7   2  23   2
M  END
>  <ID>  (1) 
conformer_0

$$$$
