
     RDKit          3D

 30 31  0  0  0  0  0  0  0  0999 V2000
  -16.6563    3.7225  -21.8446 C   0  0  0  0  0  0  0  0  0  0  0  0
  -17.2972   -1.2933  -24.4099 C   0  0  0  0  0  0  0  0  0  0  0  0
  -15.5960    4.6902  -21.4383 C   0  0  0  0  0  0  0  0  0  0  0  0
  -17.0282    0.2666  -24.0989 N   0  0  0  0  0  0  0  0  0  0  0  0
  -15.2353   -1.7546  -23.5459 C   0  0  0  0  0  0  0  0  0  0  0  0
  -13.9244    0.2187  -22.7915 N   0  0  0  0  0  0  0  0  0  0  0  0
   -8.2187    4.3040  -21.5651 O   0  0  0  0  0  0  0  0  0  0  0  0
   -8.7478    6.0099  -18.5166 P   0  0  0  0  0  5  0  0  0  0  0  0
  -15.5077    4.0183  -23.6289 O   0  0  0  0  0  0  0  0  0  0  0  0
  -16.2984   -2.0230  -24.0409 N   0  0  0  0  0  0  0  0  0  0  0  0
  -13.9382   -2.5634  -23.2032 N   0  0  0  0  0  0  0  0  0  0  0  0
  -14.3853    5.2783  -22.0621 C   0  0  0  0  0  0  0  0  0  0  0  0
  -11.9878    4.1687  -20.9498 P   0  0  0  0  0  4  0  0  0  0  0  0
  -15.5442    1.7650  -23.0419 N   0  0  0  0  0  0  0  0  0  0  0  0
   -9.4177    5.7870  -17.3682 O   0  0  0  0  0  0  0  0  0  0  0  0
  -11.7188    2.9013  -20.5220 O   0  0  0  0  0  1  0  0  0  0  0  0
  -16.7597    4.8506  -20.3134 O   0  0  0  0  0  0  0  0  0  0  0  0
  -14.7577   -0.5668  -23.0780 C   0  0  0  0  0  0  0  0  0  0  0  0
  -12.4695    4.8058  -19.5077 O   0  0  0  0  0  0  0  0  0  0  0  0
  -10.6836    4.6760  -22.1126 O   0  0  0  0  0  0  0  0  0  0  0  0
   -7.8718    6.5803  -18.4461 O   0  0  0  0  0  0  0  0  0  0  0  0
   -8.9436    6.4630  -21.6030 O   0  0  0  0  0  0  0  0  0  0  0  0
  -12.8954    4.3383  -21.8337 O   0  0  0  0  0  0  0  0  0  0  0  0
   -9.9315    6.1366  -20.0285 N   0  0  0  0  0  0  0  0  0  0  0  0
   -9.2507    5.2538  -20.9945 P   0  0  0  0  0  0  0  0  0  0  0  0
  -18.1396    4.0243  -21.9191 O   0  0  0  0  0  0  0  0  0  0  0  0
  -16.3934    3.1264  -23.0816 C   0  0  0  0  0  0  0  0  0  0  0  0
   -9.0446    4.2843  -18.7432 O   0  0  0  0  0  0  0  0  0  0  0  0
  -16.1568    0.2970  -23.6103 C   0  0  0  0  0  0  0  0  0  0  0  0
  -14.6028    1.4484  -22.8045 C   0  0  0  0  0  0  0  0  0  0  0  0
  3  1  1  0
  4  2  2  0
 10  2  1  0
 10  5  2  0
 11  5  1  0
 12  3  1  0
 15  8  1  0
 16 13  1  0
 17  3  1  0
 18  5  1  0
 18  6  1  0
 19 13  1  0
 20 13  1  0
 21  8  1  0
 22  8  1  0
 23 12  1  0
 23 13  1  0
 24  8  1  0
 25  7  1  0
 25 20  1  0
 25 22  1  0
 26  1  1  0
 27  1  1  0
 27  9  1  0
 27 14  1  0
 28  8  1  0
 29  4  1  0
 29 14  1  0
 29 18  2  0
 30  6  2  0
 30 14  1  0
M  RAD  2  13   2  16   2
M  END
>  <ID>  (1) 
conformer_0

$$$$
