
     RDKit          3D

 31 32  0  0  0  0  0  0  0  0999 V2000
  -17.6605   -1.0026  -24.4207 C   0  0  0  0  0  0  0  0  0  0  0  0
  -16.4417    3.2035  -22.8120 C   0  0  0  0  0  0  0  0  0  0  0  0
  -16.4512    3.8265  -21.6351 C   0  0  0  0  0  0  0  0  0  0  0  0
  -17.2368    0.3614  -24.0632 N   0  0  0  0  0  0  0  0  0  0  0  0
  -14.0341    0.0846  -22.9679 N   0  0  0  0  0  0  0  0  0  0  0  0
  -15.1384   -0.4575  -23.3474 C   0  0  0  0  0  0  0  0  0  0  0  0
  -11.8191    4.0430  -20.8053 P   0  0  0  0  0  5  0  0  0  0  0  0
  -15.4373    4.2247  -23.5292 O   0  0  0  0  0  0  0  0  0  0  0  0
  -16.7012   -1.9644  -24.2336 N   0  0  0  0  0  0  0  0  0  0  0  0
  -14.3287   -2.6365  -23.5093 N   0  0  0  0  0  0  0  0  0  0  0  0
  -15.6507    1.8613  -22.9873 N   0  0  0  0  0  0  0  0  0  0  0  0
   -8.9160    5.9396  -18.3886 P   0  0  0  0  0  5  0  0  0  0  0  0
   -9.8454    6.4385  -19.8500 N   0  0  0  0  0  0  0  0  0  0  0  0
  -11.8132    3.0760  -20.2806 O   0  0  0  0  0  0  0  0  0  0  0  0
  -15.3093    4.7649  -21.6660 C   0  0  0  0  0  0  0  0  0  0  0  0
  -16.4796    4.9646  -20.3503 O   0  0  0  0  0  0  0  0  0  0  0  0
   -9.0947    3.8382  -18.6918 O   0  0  0  0  0  0  0  0  0  0  0  0
  -15.5382   -1.6143  -23.7893 C   0  0  0  0  0  0  0  0  0  0  0  0
   -9.2856    5.9257  -22.6076 O   0  0  0  0  0  0  0  0  0  0  0  0
   -8.3347    4.4351  -21.3876 O   0  0  0  0  0  0  0  0  0  0  0  0
   -9.3507    5.4391  -21.1966 P   0  0  0  0  0  0  0  0  0  0  0  0
   -8.4468    6.0817  -17.2194 O   0  0  0  0  0  0  0  0  0  0  0  0
  -12.9174    4.5317  -21.7399 O   0  0  0  0  0  0  0  0  0  0  0  0
  -18.0533    3.7860  -21.5749 O   0  0  0  0  0  0  0  0  0  0  0  0
  -12.4601    4.8923  -19.3748 O   0  0  0  0  0  0  0  0  0  0  0  0
  -14.5185    1.5140  -22.7709 C   0  0  0  0  0  0  0  0  0  0  0  0
  -14.1196    5.3037  -22.1045 C   0  0  0  0  0  0  0  0  0  0  0  0
   -7.6971    5.6996  -19.1872 O   0  0  0  0  0  0  0  0  0  0  0  0
  -10.7181    4.5468  -21.6202 O   0  0  0  0  0  0  0  0  0  0  0  0
   -9.8390    5.8621  -17.7495 O   0  0  0  0  0  0  0  0  0  0  0  0
  -16.2442    0.6268  -23.6079 C   0  0  0  0  0  0  0  0  0  0  0  0
  3  2  1  0
  4  1  2  0
  6  5  1  0
  8  2  1  0
  9  1  1  0
 11  2  1  0
 13 12  1  0
 14  7  1  0
 15  3  1  0
 16  3  1  0
 17 12  1  0
 18  6  1  0
 18  9  2  0
 18 10  1  0
 19  7  1  0
 21 13  1  0
 21 19  1  0
 21 20  1  0
 22 12  1  0
 23  7  1  0
 24  3  1  0
 25  7  1  0
 26  5  2  0
 26 11  1  0
 27 15  1  0
 27 23  1  0
 28 12  1  0
 29  7  1  0
 30 12  1  0
 31  4  1  0
 31  6  2  0
 31 11  1  0
M  END
>  <ID>  (1) 
conformer_0

$$$$
