
     RDKit          3D

 31 33  0  0  0  0  0  0  0  0999 V2000
  -16.8985    3.4438  -21.8281 C   0  0  0  0  0  0  0  0  0  0  0  0
  -15.3196   -1.8242  -23.6800 C   0  0  0  0  0  0  0  0  0  0  0  0
  -15.8620    4.0709  -21.1932 C   0  0  0  0  0  0  0  0  0  0  0  0
  -17.1259    0.2891  -23.9919 N   0  0  0  0  0  0  0  0  0  0  0  0
  -14.4149    1.5036  -22.7620 C   0  0  0  0  0  0  0  0  0  0  0  0
  -13.6764    5.4543  -22.3509 C   0  0  0  0  0  0  0  0  0  0  0  0
  -13.9899    0.1253  -22.9500 N   0  0  0  0  0  0  0  0  0  0  0  0
  -15.4677    4.0861  -23.5106 O   0  0  0  0  0  0  0  0  0  0  0  0
  -11.8131    4.2347  -20.8051 P   0  0  0  0  0  5  0  0  0  0  0  0
  -14.3354   -2.7336  -23.4082 N   0  0  0  0  0  0  0  0  0  0  0  0
   -8.3396    4.5911  -21.5302 O   0  0  0  0  0  0  0  0  0  0  0  0
   -8.5859    5.7274  -18.4157 P   0  0  0  0  0  4  0  0  0  0  0  0
  -15.4887    1.7215  -22.9589 N   0  0  0  0  0  0  0  0  0  0  0  0
   -7.2782    5.8706  -18.3606 O   0  0  0  0  0  1  0  0  0  0  0  0
  -12.6881    4.1529  -19.5917 O   0  0  0  0  0  0  0  0  0  0  0  0
  -12.9755    4.6542  -21.7748 O   0  0  0  0  0  0  0  0  0  0  0  0
  -16.5253   -1.9412  -24.1760 N   0  0  0  0  0  0  0  0  0  0  0  0
  -11.1008    2.9432  -20.3659 O   0  0  0  0  0  0  0  0  0  0  0  0
  -16.8299    4.5089  -20.2629 O   0  0  0  0  0  0  0  0  0  0  0  0
  -17.4682   -1.1281  -24.3993 C   0  0  0  0  0  0  0  0  0  0  0  0
   -9.2297    5.7513  -19.7414 N   0  0  0  0  0  0  0  0  0  0  0  0
   -9.2437    6.3452  -22.4256 O   0  0  0  0  0  0  0  0  0  0  0  0
   -9.3078    6.2471  -17.7298 O   0  0  0  0  0  0  0  0  0  0  0  0
   -9.3397    5.3765  -21.2485 P   0  0  0  0  0  0  0  0  0  0  0  0
  -15.0852    4.9077  -22.0306 C   0  0  0  0  0  0  0  0  0  0  0  0
   -8.6091    4.0518  -17.9717 O   0  0  0  0  0  0  0  0  0  0  0  0
  -18.1213    3.8120  -21.8604 O   0  0  0  0  0  0  0  0  0  0  0  0
  -14.9219   -0.4615  -23.2420 C   0  0  0  0  0  0  0  0  0  0  0  0
  -10.8845    4.7722  -21.7965 O   0  0  0  0  0  0  0  0  0  0  0  0
  -16.0789    0.4245  -23.5300 C   0  0  0  0  0  0  0  0  0  0  0  0
  -16.1910    2.9551  -23.0289 C   0  0  0  0  0  0  0  0  0  0  0  0
  3  1  1  0
  7  5  2  0
 10  2  1  0
 13  5  1  0
 14 12  1  0
 15  9  1  0
 16  6  1  0
 16  9  1  0
 17  2  2  0
 18  9  1  0
 19  3  1  0
 20  4  2  0
 20 17  1  0
 21 12  1  0
 22  9  1  0
 23 12  1  0
 24 11  1  0
 24 21  1  0
 24 22  1  0
 25  3  1  0
 25  6  1  0
 25  8  1  0
 26 12  1  0
 27  1  1  0
 28  2  1  0
 28  7  1  0
 29  9  1  0
 30  4  1  0
 30 13  1  0
 30 28  2  0
 31  1  1  0
 31  8  1  0
 31 13  1  0
M  RAD  2  12   2  14   2
M  END
>  <ID>  (1) 
conformer_0

$$$$
