
     RDKit          3D

 30 32  0  0  0  0  0  0  0  0999 V2000
  -16.5046    3.6001  -21.8322 C   0  0  0  0  0  0  0  0  0  0  0  0
  -14.7734   -0.6276  -23.1993 C   0  0  0  0  0  0  0  0  0  0  0  0
  -15.5855    4.6548  -21.7057 C   0  0  0  0  0  0  0  0  0  0  0  0
  -14.5247    1.2697  -22.9114 C   0  0  0  0  0  0  0  0  0  0  0  0
  -17.1874    0.0054  -24.1553 N   0  0  0  0  0  0  0  0  0  0  0  0
  -11.9417    4.5499  -20.9034 P   0  0  0  0  0  0  0  0  0  0  0  0
  -13.8775   -2.6611  -23.2173 N   0  0  0  0  0  0  0  0  0  0  0  0
  -13.9917   -0.0432  -22.9352 N   0  0  0  0  0  0  0  0  0  0  0  0
   -8.8141    5.8021  -18.4671 P   0  0  0  0  0  4  0  0  0  0  0  0
  -15.6835    1.4725  -23.0952 N   0  0  0  0  0  0  0  0  0  0  0  0
  -15.3435    3.6677  -23.2583 O   0  0  0  0  0  0  0  0  0  0  0  0
  -14.3375    5.3173  -22.0063 C   0  0  0  0  0  0  0  0  0  0  0  0
  -16.6196    4.8209  -20.3410 O   0  0  0  0  0  0  0  0  0  0  0  0
   -8.4697    4.4304  -21.2916 O   0  0  0  0  0  0  0  0  0  0  0  0
  -15.0359   -1.9282  -23.6046 C   0  0  0  0  0  0  0  0  0  0  0  0
   -7.5303    5.9475  -18.3609 O   0  0  0  0  0  1  0  0  0  0  0  0
   -9.8443    6.4184  -19.5216 N   0  0  0  0  0  0  0  0  0  0  0  0
  -12.0457    3.2394  -20.2471 O   0  0  0  0  0  0  0  0  0  0  0  0
   -9.3000    5.5999  -17.2430 O   0  0  0  0  0  0  0  0  0  0  0  0
   -9.1521    6.2005  -22.4193 O   0  0  0  0  0  0  0  0  0  0  0  0
  -16.2654   -2.2069  -24.0665 N   0  0  0  0  0  0  0  0  0  0  0  0
  -18.0422    3.9087  -22.1364 O   0  0  0  0  0  0  0  0  0  0  0  0
  -12.5380    5.5525  -19.4858 O   0  0  0  0  0  0  0  0  0  0  0  0
   -9.4719    5.4749  -21.2547 P   0  0  0  0  0  5  0  0  0  0  0  0
  -10.8219    4.8291  -21.7286 O   0  0  0  0  0  0  0  0  0  0  0  0
  -16.5584    2.7284  -22.8489 C   0  0  0  0  0  0  0  0  0  0  0  0
   -9.1272    4.0807  -18.9305 O   0  0  0  0  0  0  0  0  0  0  0  0
  -17.3177   -1.4301  -24.4167 C   0  0  0  0  0  0  0  0  0  0  0  0
  -12.8844    4.8111  -21.7286 O   0  0  0  0  0  0  0  0  0  0  0  0
  -16.1496    0.0997  -23.6594 C   0  0  0  0  0  0  0  0  0  0  0  0
  3  1  1  0
  8  2  1  0
  8  4  2  0
 10  4  1  0
 11  1  1  0
 12  3  1  0
 13  3  1  0
 15  2  2  0
 15  7  1  0
 16  9  1  0
 17  9  1  0
 19  9  1  0
 21 15  1  0
 22  1  1  0
 23  6  1  0
 24 14  1  0
 24 17  1  0
 24 18  1  0
 24 20  1  0
 25  6  1  0
 25 24  1  0
 26  1  1  0
 26 10  1  0
 26 11  1  0
 27  9  1  0
 28  5  1  0
 28 21  2  0
 29  6  1  0
 29 12  1  0
 30  2  1  0
 30  5  2  0
 30 10  1  0
M  RAD  2   9   2  16   2
M  END
>  <ID>  (1) 
conformer_0

$$$$
