
     RDKit          3D

 29 30  0  0  0  0  0  0  0  0999 V2000
  -15.8122    0.2373  -23.5500 C   0  0  2  0  0  0  0  0  0  0  0  0
  -16.4566    3.8343  -21.7237 C   0  0  1  0  0  0  0  0  0  0  0  0
  -15.3781    4.7541  -21.6321 C   0  0  1  0  0  0  0  0  0  0  0  0
  -17.2026    0.4611  -24.2004 N   0  0  0  0  0  0  0  0  0  0  0  0
  -13.9367    0.0522  -22.8095 N   0  0  0  0  0  0  0  0  0  0  0  0
  -14.6072    0.9379  -22.8883 C   0  0  0  0  0  0  0  0  0  0  0  0
  -15.3171    4.0741  -23.5533 O   0  0  0  0  0  0  0  0  0  0  0  0
  -11.9862    4.3734  -20.6106 P   0  0  0  0  0  5  0  0  0  0  0  0
  -14.3951   -2.6787  -23.5968 N   0  0  0  0  0  0  0  0  0  0  0  0
   -8.6225    5.9326  -18.7602 P   0  0  0  0  0  4  0  0  0  0  0  0
   -8.4017    4.5217  -21.6927 O   0  0  0  0  0  0  0  0  0  0  0  0
  -15.7237    1.7825  -23.0921 N   0  0  0  0  0  0  0  0  0  0  0  0
  -11.8900    3.1429  -20.0549 O   0  0  0  0  0  0  0  0  0  0  0  0
  -14.2695    5.3390  -22.2401 C   0  0  0  0  0  0  0  0  0  0  0  0
  -16.5180    5.0222  -20.3884 O   0  0  0  0  0  0  0  0  0  0  0  0
   -7.4233    5.9077  -18.7796 O   0  0  0  0  0  1  0  0  0  0  0  0
  -12.5973    5.2666  -19.3771 O   0  0  0  0  0  0  0  0  0  0  0  0
  -15.0377   -1.4035  -23.5567 C   0  0  0  0  0  0  0  0  0  0  0  0
   -9.4851    6.0155  -22.7899 O   0  0  0  0  0  0  0  0  0  0  0  0
  -16.7188   -1.6989  -24.2582 N   0  0  0  0  0  0  0  0  0  0  0  0
   -9.2554    6.2684  -17.6532 O   0  0  0  0  0  0  0  0  0  0  0  0
   -9.7210    6.4096  -19.6342 N   0  0  0  0  0  0  0  0  0  0  0  0
  -13.0183    4.6297  -21.6585 O   0  0  0  0  0  0  0  0  0  0  0  0
   -9.5262    5.4162  -21.4991 P   0  0  0  0  0  0  0  0  0  0  0  0
  -18.0411    3.9217  -21.6183 O   0  0  0  0  0  0  0  0  0  0  0  0
  -10.8832    4.7301  -21.6530 O   0  0  0  0  0  0  0  0  0  0  0  0
  -16.3403    3.1561  -22.9992 C   0  0  1  0  0  0  0  0  0  0  0  0
  -17.0333   -0.8688  -24.2453 C   0  0  0  0  0  0  0  0  0  0  0  0
   -8.9141    4.2813  -18.4190 O   0  0  0  0  0  0  0  0  0  0  0  0
  3  2  1  0
  4  1  1  0
  6  1  1  0
  6  5  2  3
  1 12  1  1
 12  6  1  0
 13  8  1  0
 14  3  1  0
  3 15  1  6
 16 10  1  0
 17  8  1  0
 18  9  1  0
 19  8  1  0
 20 18  2  3
 21 10  1  0
 22 10  1  0
 23  8  1  0
 23 14  1  0
 24 11  1  0
 24 19  1  0
 24 22  1  0
  2 25  1  6
 26  8  1  0
 27  2  1  0
 27  7  1  6
 27 12  1  0
 28  1  1  0
 28  4  2  0
 28 20  1  0
 29 10  1  0
M  RAD  2  10   2  16   2
M  END
>  <ID>  (1) 
conformer_0

$$$$
