
     RDKit          3D

 28 28  0  0  0  0  0  0  0  0999 V2000
  -15.8365    4.4451  -21.4389 C   0  0  2  0  0  0  0  0  0  0  0  0
  -17.1020   -0.9807  -24.1688 C   0  0  0  0  0  0  0  0  0  0  0  0
  -14.7358    4.9903  -22.1478 C   0  0  0  0  0  0  0  0  0  0  0  0
  -13.9853    0.2657  -22.9009 N   0  0  0  0  0  0  0  0  0  0  0  0
  -15.8062   -0.0024  -23.5869 C   0  0  0  0  0  0  0  0  0  0  0  0
  -17.2711   -0.0260  -24.1378 N   0  0  0  0  0  0  0  0  0  0  0  0
   -8.3563    4.4744  -21.6100 O   0  0  0  0  0  0  0  0  0  0  0  0
  -15.5648    3.8895  -23.6775 O   0  0  0  0  0  0  0  0  0  0  0  0
  -16.0128    1.6755  -23.2860 N   0  0  0  0  0  0  0  0  0  0  0  0
  -14.0373   -2.4904  -23.2478 N   0  0  0  0  0  0  0  0  0  0  0  0
   -8.6594    5.8451  -18.5720 P   0  0  0  0  0  0  0  0  0  0  0  0
  -12.0755    4.3630  -20.9393 P   0  0  0  0  0  0  0  0  0  0  0  0
  -14.8621   -1.4493  -23.4266 C   0  0  0  0  0  0  0  0  0  0  0  0
   -7.2146    5.8533  -18.1727 O   0  0  0  0  0  0  0  0  0  0  0  0
  -12.1715    3.2249  -20.3628 O   0  0  0  0  0  0  0  0  0  0  0  0
   -9.1757    5.6744  -17.3410 O   0  0  0  0  0  0  0  0  0  0  0  0
   -9.2564    6.1160  -22.6144 O   0  0  0  0  0  0  0  0  0  0  0  0
  -16.8556    3.7083  -21.7706 C   0  0  1  0  0  0  0  0  0  0  0  0
  -18.1810    4.1303  -21.8228 O   0  0  0  0  0  0  0  0  0  0  0  0
   -9.2673    5.3859  -21.3215 P   0  0  0  0  0  0  0  0  0  0  0  0
  -16.3574   -2.1119  -24.1412 N   0  0  0  0  0  0  0  0  0  0  0  0
  -13.2833    4.5975  -21.8370 O   0  0  0  0  0  0  0  0  0  0  0  0
   -9.3693    6.6428  -19.9223 C   0  0  0  0  0  0  0  0  0  0  0  0
   -9.1493    4.0681  -18.8694 O   0  0  0  0  0  0  0  0  0  0  0  0
  -16.9295    5.2102  -20.5077 O   0  0  0  0  0  0  0  0  0  0  0  0
  -16.5712    3.0792  -23.1828 C   0  0  1  0  0  0  0  0  0  0  0  0
  -11.0778    4.8389  -21.7014 O   0  0  0  0  0  0  0  0  0  0  0  0
  -14.8324    1.0629  -22.9699 C   0  0  0  0  0  0  0  0  0  0  0  0
  3  1  1  0
  6  2  1  0
  6  5  1  0
 13  5  2  0
 13 10  1  0
 14 11  1  0
 15 12  1  0
 16 11  1  0
 18  1  1  0
 18 19  1  6
 20  7  1  0
 20 17  1  0
 21  2  1  0
 21 13  1  0
 22  3  1  0
 22 12  1  0
 23 14  1  0
 23 17  1  0
 24 11  1  0
  1 25  1  6
 26  8  1  1
 26  9  1  0
 26 18  1  0
 27 12  1  0
 27 20  1  0
 28  4  2  3
 28  5  1  0
 28  9  1  0
M  END
>  <ID>  (1) 
conformer_0

$$$$
