
     RDKit          3D

 28 30  0  0  0  0  0  0  0  0999 V2000
  -16.8969   -1.1442  -24.2367 C   0  0  0  0  0  0  0  0  0  0  0  0
  -16.7094    3.7486  -21.9441 C   0  0  0  0  0  0  0  0  0  0  0  0
  -15.4375    4.3292  -21.7672 C   0  0  0  0  0  0  0  0  0  0  0  0
  -17.0515    0.3046  -24.0809 N   0  0  0  0  0  0  0  0  0  0  0  0
  -13.7918    0.1584  -22.9834 N   0  0  0  0  0  0  0  0  0  0  0  0
  -14.5017    0.8744  -23.0171 C   0  0  0  0  0  0  0  0  0  0  0  0
   -8.7057    6.1771  -18.4380 P   0  0  0  0  0  5  0  0  0  0  0  0
  -14.1147   -2.7382  -23.2594 N   0  0  0  0  0  0  0  0  0  0  0  0
  -15.2649    3.9255  -23.5601 O   0  0  0  0  0  0  0  0  0  0  0  0
  -12.0602    4.1401  -21.0091 P   0  0  0  0  0  0  0  0  0  0  0  0
   -9.8503    6.6716  -19.6340 N   0  0  0  0  0  0  0  0  0  0  0  0
  -16.3297   -1.9179  -24.0759 N   0  0  0  0  0  0  0  0  0  0  0  0
  -15.5921    1.6922  -23.0777 N   0  0  0  0  0  0  0  0  0  0  0  0
  -14.3554    5.0052  -22.3799 C   0  0  2  0  0  0  0  0  0  0  0  0
  -12.9760    4.3327  -21.8294 O   0  0  0  0  0  0  0  0  0  0  0  0
   -8.8953    6.3900  -21.6482 O   0  0  0  0  0  0  0  0  0  0  0  0
  -14.7422   -1.4524  -23.4494 C   0  0  0  0  0  3  0  0  0  0  0  0
  -16.9519    4.1781  -20.5095 O   0  0  0  0  0  0  0  0  0  0  0  0
   -9.3836    5.9015  -17.2245 O   0  0  0  0  0  0  0  0  0  0  0  0
   -8.4556    4.4946  -20.9226 O   0  0  0  0  0  0  0  0  0  0  0  0
   -7.5283    6.4713  -18.1918 O   0  0  0  0  0  0  0  0  0  0  0  0
  -18.2031    4.1085  -22.6002 O   0  0  0  0  0  0  0  0  0  0  0  0
  -11.5588    3.0179  -20.3702 O   0  0  0  0  0  0  0  0  0  0  0  0
  -10.8718    4.7825  -21.7924 O   0  0  0  0  0  0  0  0  0  0  0  0
  -16.4610    3.0541  -22.8894 C   0  0  1  0  0  0  0  0  0  0  0  0
  -15.6918    0.1269  -23.5272 C   0  0  1  0  0  0  0  0  0  0  0  0
   -9.5998    5.3284  -20.8094 P   0  0  0  0  0  0  0  0  0  0  0  0
   -9.0761    4.3438  -18.7797 O   0  0  0  0  0  0  0  0  0  0  0  0
  3  2  1  0
  4  1  2  0
  6  5  2  3
 11  7  1  0
 12  1  1  0
 13  6  1  0
 14  3  1  0
 14  9  1  0
 15 10  1  0
 14 15  1  1
 16  7  1  0
 17  8  1  0
 17 12  1  0
 18  2  1  0
 19  7  1  0
 21  7  1  0
 22  2  1  0
 23 10  1  0
 24 10  1  0
 25  2  1  0
 25  9  1  0
 25 13  1  1
 26  4  1  0
 26  6  1  0
 26 13  1  0
 26 17  1  1
 27 16  1  0
 27 20  1  0
 27 24  1  0
 28  7  1  0
M  RAD  1  17   2
M  END
>  <ID>  (1) 
conformer_0

$$$$
