
     RDKit          3D

 29 30  0  0  0  0  0  0  0  0999 V2000
  -15.2439    4.6779  -21.4374 C   0  0  2  0  0  0  0  0  0  0  0  0
  -15.8747    0.0879  -23.5193 C   0  0  0  0  0  0  0  0  0  0  0  0
  -16.4398    3.9277  -21.7538 C   0  0  1  0  0  0  0  0  0  0  0  0
  -14.0632    0.1522  -22.9790 N   0  0  0  0  0  0  0  0  0  0  0  0
  -17.2726    0.2661  -24.0446 N   0  0  0  0  0  0  0  0  0  0  0  0
  -14.7144    1.0764  -22.9412 C   0  0  0  0  0  0  0  0  0  0  0  0
  -15.6750    1.8018  -23.0402 N   0  0  0  0  0  0  0  0  0  0  0  0
   -8.2553    4.3956  -21.6389 O   0  0  0  0  0  0  0  0  0  0  0  0
  -14.3934   -2.6771  -23.3513 N   0  0  0  0  0  0  0  0  0  0  0  0
  -11.9611    4.3337  -20.7176 P   0  0  0  0  0  0  0  0  0  0  0  0
   -9.8884    5.8587  -19.4713 N   0  0  0  0  0  0  0  0  0  0  0  0
  -15.4094    4.0331  -23.2235 O   0  0  0  0  0  0  0  0  0  0  0  0
   -8.8091    5.6960  -18.5965 P   0  0  2  0  0  4  0  0  0  0  0  0
  -11.7205    2.7533  -20.5636 O   0  0  0  0  0  0  0  0  0  0  0  0
  -16.4756    4.8319  -20.1599 O   0  0  0  0  0  0  0  0  0  0  0  0
  -12.5622    4.7994  -19.4010 O   0  0  0  0  0  0  0  0  0  0  0  0
  -16.5132    3.0619  -22.7870 C   0  0  2  0  0  0  0  0  0  0  0  0
   -9.2193    5.1048  -17.9105 O   0  0  0  0  0  0  0  0  0  0  0  0
  -16.6601   -1.9625  -24.1272 N   0  0  0  0  0  0  0  0  0  0  0  0
   -7.5639    5.7808  -18.3355 O   0  0  0  0  0  1  0  0  0  0  0  0
  -15.1682   -1.3863  -23.4964 C   0  0  1  0  0  0  0  0  0  0  0  0
  -10.7931    4.5908  -21.6287 O   0  0  0  0  0  0  0  0  0  0  0  0
   -9.4228    5.2965  -21.5515 P   0  0  0  0  0  5  0  0  0  0  0  0
   -8.7319    6.5548  -21.1099 O   0  0  0  0  0  0  0  0  0  0  0  0
  -12.8791    4.6387  -21.7487 O   0  0  0  0  0  0  0  0  0  0  0  0
  -17.9092    3.9116  -21.3247 O   0  0  0  0  0  0  0  0  0  0  0  0
  -14.2177    5.2112  -22.1272 C   0  0  0  0  0  0  0  0  0  0  0  0
  -17.2946   -1.0148  -24.2274 C   0  0  0  0  0  0  0  0  0  0  0  0
   -9.6565    5.8225  -23.1288 O   0  0  0  0  0  0  0  0  0  0  0  0
  3  1  1  0
  5  2  2  0
  6  2  1  0
  6  4  2  3
  7  6  1  0
 12  3  1  0
 13 11  1  6
  1 15  1  6
 16 10  1  0
 17  3  1  0
 17  7  1  1
 17 12  1  0
 18 13  1  0
 20 13  1  0
 21  2  1  0
 21  9  1  1
 21 19  1  0
 22 10  1  0
 23  8  1  0
 23 14  1  0
 23 22  1  0
 24 13  1  0
 24 23  1  0
 25 10  1  0
  3 26  1  6
 27  1  1  0
 27 25  1  0
 28  5  1  0
 28 19  2  0
 29 23  1  0
M  RAD  2  13   2  20   2
M  END
>  <ID>  (1) 
conformer_0

$$$$
