
     RDKit          3D

 28 29  0  0  0  0  0  0  0  0999 V2000
  -16.6471    3.7073  -21.9335 C   0  0  1  0  0  0  0  0  0  0  0  0
  -15.4947   -0.0383  -23.3978 C   0  0  0  0  0  0  0  0  0  0  0  0
  -15.3414    4.6209  -21.9814 C   0  0  2  0  0  0  0  0  0  0  0  0
  -13.6035    0.2038  -22.8598 N   0  0  0  0  0  0  0  0  0  0  0  0
  -14.4466    1.0985  -22.8424 C   0  0  0  0  0  0  0  0  0  0  0  0
  -16.9913    0.0657  -24.0731 N   0  0  0  0  0  0  0  0  0  0  0  0
   -8.4151    4.3652  -21.4422 O   0  0  0  0  0  0  0  0  0  0  0  0
  -15.4409    1.7774  -23.0734 N   0  0  0  0  0  0  0  0  0  0  0  0
   -8.7763    5.9760  -18.5644 P   0  0  2  0  0  4  0  0  0  0  0  0
   -9.6108    6.7995  -19.6070 N   0  0  0  0  0  0  0  0  0  0  0  0
  -15.3316    4.0612  -23.6750 O   0  0  0  0  0  0  0  0  0  0  0  0
  -13.9388   -2.6277  -23.0917 N   0  0  0  0  0  0  0  0  0  0  0  0
  -13.9188    5.2000  -22.1915 C   0  0  0  0  0  0  0  0  0  0  0  0
  -10.7352    4.9190  -21.6176 O   0  0  0  0  0  1  0  0  0  0  0  0
   -9.1456    5.3243  -17.8664 O   0  0  0  0  0  0  0  0  0  0  0  0
  -11.8042    4.1764  -20.6913 P   0  0  0  0  0  0  0  0  0  0  0  0
  -14.7273   -1.3669  -23.2995 C   0  0  1  0  0  0  0  0  0  0  0  0
   -7.4573    5.8682  -18.9315 O   0  0  0  0  0  1  0  0  0  0  0  0
  -17.1496    4.6152  -20.8908 O   0  0  0  0  0  0  0  0  0  0  0  0
   -8.8762    6.3335  -22.1675 O   0  0  0  0  0  0  0  0  0  0  0  0
  -16.3157   -2.1034  -23.9838 N   0  0  0  0  0  0  0  0  0  0  0  0
  -18.1003    3.7504  -23.1646 O   0  0  0  0  0  0  0  0  0  0  0  0
  -12.5156    4.4796  -19.2424 O   0  0  0  0  0  0  0  0  0  0  0  0
   -9.1674    5.4818  -21.3156 P   0  0  2  0  0  4  0  0  0  0  0  0
  -11.6358    2.8501  -20.5051 O   0  0  0  0  0  0  0  0  0  0  0  0
  -16.9309   -1.1109  -24.1960 C   0  0  0  0  0  0  0  0  0  0  0  0
  -16.4039    3.1512  -23.1806 C   0  0  2  0  0  0  0  0  0  0  0  0
  -12.8440    4.4089  -21.5009 O   0  0  0  0  0  0  0  0  0  0  0  0
  3  1  1  0
  5  2  1  0
  5  4  2  3
  6  2  2  0
  8  5  1  0
  9 10  1  6
 11  3  1  0
  3 13  1  1
 15  9  1  0
 17  2  1  0
 17 12  1  1
 18  9  1  0
  1 19  1  6
 20  9  1  0
 21 17  1  0
 23 16  1  0
 24  7  1  6
 24 14  1  0
 24 20  1  0
 25 16  1  0
 25 24  1  0
 26  6  1  0
 26 21  2  0
 27  1  1  0
 27  8  1  0
 27 11  1  0
 27 22  1  6
 28 13  1  0
 28 16  1  0
M  RAD  4   9   2  14   2  18   2  24   2
M  END
>  <ID>  (1) 
conformer_0

$$$$
