
     RDKit          3D

 30 31  0  0  0  0  0  0  0  0999 V2000
  -16.5346    3.1359  -22.8620 C   0  0  0  0  0  0  0  0  0  0  0  0
  -17.5157   -1.1009  -24.3799 C   0  0  0  0  0  0  0  0  0  0  0  0
  -16.7085    3.7982  -21.7805 C   0  0  0  0  0  0  0  0  0  0  0  0
  -17.2836    0.3324  -24.0581 N   0  0  0  0  0  0  0  0  0  0  0  0
  -14.4104    1.3404  -22.8067 C   0  0  0  0  0  0  0  0  0  0  0  0
  -13.9680    0.0284  -22.8854 N   0  0  0  0  0  0  0  0  0  0  0  0
  -14.2452   -2.5988  -23.2621 N   0  0  0  0  0  0  0  0  0  0  0  0
   -8.8752    6.0208  -18.5694 P   0  0  0  0  0  5  0  0  0  0  0  0
  -15.3500    3.9345  -23.5330 O   0  0  0  0  0  0  0  0  0  0  0  0
   -8.2806    4.3783  -21.5258 O   0  0  0  0  0  0  0  0  0  0  0  0
  -15.6630    1.6959  -23.0538 N   0  0  0  0  0  0  0  0  0  0  0  0
  -15.4375    4.5367  -21.6879 C   0  0  0  0  0  0  0  0  0  0  0  0
  -16.6203   -1.9312  -24.0423 N   0  0  0  0  0  0  0  0  0  0  0  0
  -11.8716    4.2733  -20.9260 P   0  0  0  0  0  4  0  0  0  0  0  0
  -11.8603    2.8661  -20.4193 O   0  0  0  0  0  1  0  0  0  0  0  0
   -8.8180    6.4978  -21.4888 O   0  0  0  0  0  0  0  0  0  0  0  0
   -9.9275    6.0539  -19.7279 N   0  0  0  0  0  0  0  0  0  0  0  0
  -15.4366   -1.7176  -23.6940 C   0  0  0  0  0  0  0  0  0  0  0  0
  -18.2173    4.0732  -22.6238 O   0  0  0  0  0  0  0  0  0  0  0  0
   -9.4562    5.4399  -17.4216 O   0  0  0  0  0  0  0  0  0  0  0  0
   -8.0129    6.9191  -18.1926 O   0  0  0  0  0  0  0  0  0  0  0  0
  -16.9545    4.6419  -20.5043 O   0  0  0  0  0  0  0  0  0  0  0  0
  -12.3264    5.3125  -19.4204 O   0  0  0  0  0  0  0  0  0  0  0  0
  -12.8511    4.4723  -21.7499 O   0  0  0  0  0  0  0  0  0  0  0  0
   -9.2847    5.3819  -21.0642 P   0  0  0  0  0  0  0  0  0  0  0  0
  -10.7443    4.6095  -21.5727 O   0  0  0  0  0  0  0  0  0  0  0  0
  -14.2035    5.0879  -22.2435 C   0  0  0  0  0  0  0  0  0  0  0  0
  -14.9878   -0.5858  -23.1387 C   0  0  0  0  0  0  0  0  0  0  0  0
   -8.9782    4.0976  -19.0267 O   0  0  0  0  0  0  0  0  0  0  0  0
  -16.2303    0.5078  -23.5962 C   0  0  0  0  0  0  0  0  0  0  0  0
  3  1  1  0
  4  2  2  0
  6  5  2  0
  9  1  1  0
 11  1  1  0
 11  5  1  0
 12  3  1  0
 13  2  1  0
 15 14  1  0
 16  8  1  0
 17  8  1  0
 18  7  1  0
 18 13  2  0
 19  3  1  0
 20  8  1  0
 21  8  1  0
 22  3  1  0
 23 14  1  0
 24 14  1  0
 25 10  1  0
 25 16  1  0
 26 14  1  0
 26 25  1  0
 27 12  1  0
 27 24  1  0
 28  6  1  0
 28 18  1  0
 29  8  1  0
 30  4  1  0
 30 11  1  0
 30 28  2  0
M  RAD  2  14   2  15   2
M  END
>  <ID>  (1) 
conformer_0

$$$$
