
     RDKit          3D

 27 28  0  0  0  0  0  0  0  0999 V2000
  -16.8658   -1.0734  -24.1895 C   0  0  0  0  0  0  0  0  0  0  0  0
  -15.5921    4.7469  -21.5140 C   0  0  0  0  0  0  0  0  0  0  0  0
  -16.7193    3.8269  -21.6419 C   0  0  0  0  0  0  0  0  0  0  0  0
  -14.5351    1.1099  -22.9104 C   0  0  0  0  0  0  0  0  0  0  0  0
  -16.9515    0.3678  -24.0464 N   0  0  0  0  0  0  0  0  0  0  0  0
  -13.7347    0.0915  -22.8890 N   0  0  0  0  0  0  0  0  0  0  0  0
  -13.9189   -2.6322  -23.3249 N   0  0  0  0  0  0  0  0  0  0  0  0
   -9.0010    6.1445  -18.8102 P   0  0  0  0  0  0  0  0  0  0  0  0
  -15.3838    4.0288  -23.5285 O   0  0  0  0  0  0  0  0  0  0  0  0
   -8.3488    4.2384  -21.3361 O   0  0  0  0  0  0  0  0  0  0  0  0
  -15.4859    1.7522  -23.0161 N   0  0  0  0  0  0  0  0  0  0  0  0
  -16.3263   -1.9652  -24.0663 N   0  0  0  0  0  0  0  0  0  0  0  0
   -9.8626    6.1825  -19.7815 N   0  0  0  0  0  0  0  0  0  0  0  0
  -12.0508    4.5627  -20.5852 P   0  0  0  0  0  0  0  0  0  0  0  0
  -10.9132    4.5881  -21.6112 O   0  0  0  0  0  1  0  0  0  0  0  0
  -14.3136    5.0647  -22.2642 C   0  0  0  0  0  0  0  0  0  0  0  0
   -8.7792    6.4937  -21.7408 O   0  0  0  0  0  0  0  0  0  0  0  0
  -12.4778    5.7178  -19.6055 O   0  0  0  0  0  0  0  0  0  0  0  0
   -9.1426    5.3675  -18.0396 O   0  0  0  0  0  0  0  0  0  0  0  0
  -14.7302   -1.4489  -23.4196 C   0  0  0  0  0  0  0  0  0  0  0  0
  -16.9928    5.1120  -20.4395 O   0  0  0  0  0  0  0  0  0  0  0  0
  -11.8795    3.1881  -20.1091 O   0  0  0  0  0  0  0  0  0  0  0  0
  -13.0927    4.5968  -21.5638 O   0  0  0  0  0  0  0  0  0  0  0  0
  -18.1607    3.9639  -21.9032 O   0  0  0  0  0  0  0  0  0  0  0  0
  -15.5617    0.0254  -23.4448 C   0  0  0  0  0  3  0  0  0  0  0  0
   -9.1575    5.3427  -21.1465 P   0  0  0  0  0  4  0  0  0  0  0  0
  -16.3401    3.1222  -22.8033 C   0  0  0  0  0  0  0  0  0  0  0  0
  3  2  1  0
  5  1  2  0
  6  4  2  0
 11  4  1  0
 12  1  1  0
 13  8  1  0
 16  2  1  0
 17  8  1  0
 18 14  1  0
 19  8  1  0
 20  6  1  0
 20  7  1  0
 20 12  1  0
 21  3  1  0
 22 14  1  0
 23 14  1  0
 23 16  1  0
 24  3  1  0
 25  4  1  0
 25  5  1  0
 25 20  1  0
 26 10  1  0
 26 15  1  0
 26 17  1  0
 26 22  1  0
 27  3  1  0
 27  9  1  0
 27 11  1  0
M  RAD  3  15   2  25   2  26   2
M  END
>  <ID>  (1) 
conformer_0

$$$$
