
     RDKit          3D

 28 30  0  0  0  0  0  0  0  0999 V2000
  -16.8000    2.9822  -22.9534 C   0  0  0  0  0  0  0  0  0  0  0  0
  -16.7131   -1.3132  -24.1178 C   0  0  0  0  0  0  0  0  0  0  0  0
  -16.7341    3.6927  -21.8552 C   0  0  0  0  0  0  0  0  0  0  0  0
  -15.6667    4.4972  -21.6042 C   0  0  0  0  0  0  0  0  0  0  0  0
  -17.0300    0.0919  -24.1025 N   0  0  0  0  0  0  0  0  0  0  0  0
  -14.5159    1.0395  -22.8990 C   0  0  0  0  0  0  0  0  0  0  0  0
   -8.2495    4.3560  -21.8496 O   0  0  0  0  0  0  0  0  0  0  0  0
  -15.5416    3.9592  -23.5991 O   0  0  0  0  0  0  0  0  0  0  0  0
  -13.8270    0.1128  -22.8459 N   0  0  0  0  0  0  0  0  0  0  0  0
   -8.7705    5.5788  -18.7152 P   0  0  0  0  0  4  0  0  0  0  0  0
  -11.5664    2.8271  -20.3416 O   0  0  0  0  0  1  0  0  0  0  0  0
  -13.7232   -2.4848  -23.2281 N   0  0  0  0  0  0  0  0  0  0  0  0
  -15.6867    1.6035  -23.1033 N   0  0  0  0  0  0  0  0  0  0  0  0
  -11.8309    4.0381  -20.7067 P   0  0  0  0  0  4  0  0  0  0  0  0
   -8.7191    4.0783  -18.2508 O   0  0  0  0  0  0  0  0  0  0  0  0
   -8.9647    6.3596  -21.9740 O   0  0  0  0  0  0  0  0  0  0  0  0
  -16.9814    4.6560  -20.2553 O   0  0  0  0  0  0  0  0  0  0  0  0
   -7.8274    6.1332  -18.7208 O   0  0  0  0  0  1  0  0  0  0  0  0
  -14.5621   -1.3544  -23.2913 C   0  0  0  0  0  0  0  0  0  0  0  0
  -12.4176    4.9861  -19.5134 O   0  0  0  0  0  0  0  0  0  0  0  0
  -18.3511    3.6694  -22.3256 O   0  0  0  0  0  0  0  0  0  0  0  0
  -16.0597   -1.9255  -23.8744 N   0  0  0  0  0  0  0  0  0  0  0  0
   -9.2254    5.3416  -21.5304 P   0  0  0  0  0  0  0  0  0  0  0  0
  -12.9364    4.1179  -21.6249 O   0  0  0  0  0  0  0  0  0  0  0  0
   -9.9968    5.9583  -18.5083 O   0  0  0  0  0  0  0  0  0  0  0  0
  -14.2037    5.1524  -22.2472 C   0  0  0  0  0  0  0  0  0  0  0  0
  -10.8651    4.7359  -22.0653 O   0  0  0  0  0  0  0  0  0  0  0  0
  -15.6675    0.1613  -23.4095 C   0  0  0  0  0  0  0  0  0  0  0  0
  3  1  1  0
  4  3  1  0
  5  2  2  0
  8  1  1  0
  9  6  2  0
 13  1  1  0
 13  6  1  0
 14 11  1  0
 15 10  1  0
 16 10  1  0
 17  3  1  0
 18 10  1  0
 19  9  1  0
 19 12  1  0
 20 14  1  0
 21  3  1  0
 22  2  1  0
 22 19  1  0
 23  7  1  0
 23 16  1  0
 24 14  1  0
 25 10  1  0
 26  4  1  0
 26 24  1  0
 27 14  1  0
 27 23  1  0
 28  5  1  0
 28  6  1  0
 28 13  1  0
 28 19  1  0
M  RAD  4  10   2  11   2  14   2  18   2
M  END
>  <ID>  (1) 
conformer_0

$$$$
