
     RDKit          3D

 29 29  0  0  0  0  0  0  0  0999 V2000
  -14.7718   -1.2800  -23.2405 C   0  0  0  0  0  0  0  0  0  0  0  0
  -14.4733    5.0537  -22.2722 C   0  0  0  0  0  0  0  0  0  0  0  0
  -15.6293    4.7625  -21.5042 C   0  0  0  0  0  0  0  0  0  0  0  0
  -14.5921    1.2375  -22.8668 C   0  0  0  0  0  0  0  0  0  0  0  0
  -16.9811    0.2070  -24.0822 N   0  0  0  0  0  0  0  0  0  0  0  0
  -13.7301    0.3846  -22.8271 N   0  0  0  0  0  0  0  0  0  0  0  0
   -8.6138    5.9022  -18.4995 P   0  0  0  0  0  5  0  0  0  0  0  0
  -15.5954    3.9209  -23.6371 O   0  0  0  0  0  0  0  0  0  0  0  0
  -14.0317   -2.5021  -23.0863 N   0  0  0  0  0  0  0  0  0  0  0  0
  -15.4544    1.8377  -23.0832 N   0  0  0  0  0  0  0  0  0  0  0  0
   -8.4315    4.3213  -21.4915 O   0  0  0  0  0  0  0  0  0  0  0  0
  -16.6903    5.3725  -20.4523 O   0  0  0  0  0  0  0  0  0  0  0  0
  -10.7982    4.8728  -21.9562 O   0  0  0  0  0  0  0  0  0  0  0  0
  -12.0970    4.4165  -20.8473 P   0  0  2  0  0  4  0  0  0  0  0  0
   -8.8615    6.5540  -21.4285 O   0  0  0  0  0  0  0  0  0  0  0  0
  -16.2608   -2.0091  -23.9552 N   0  0  0  0  0  0  0  0  0  0  0  0
  -16.9016   -1.1770  -24.1503 C   0  0  0  0  0  0  0  0  0  0  0  0
   -8.8364    4.1357  -18.7396 O   0  0  0  0  0  0  0  0  0  0  0  0
  -16.8246    3.8281  -21.8301 C   0  0  0  0  0  0  0  0  0  0  0  0
   -7.4220    6.0983  -18.2760 O   0  0  0  0  0  0  0  0  0  0  0  0
   -9.8057    6.2682  -19.6309 N   0  0  0  0  0  0  0  0  0  0  0  0
  -12.4310    4.9653  -19.3098 O   0  0  0  0  0  0  0  0  0  0  0  0
  -11.7823    3.0634  -20.5749 O   0  0  0  0  0  1  0  0  0  0  0  0
  -13.0361    4.6134  -21.6535 O   0  0  0  0  0  0  0  0  0  0  0  0
   -9.5050    5.4588  -21.0092 P   0  0  0  0  0  0  0  0  0  0  0  0
  -16.4497    2.9922  -23.1052 C   0  0  1  0  0  0  0  0  0  0  0  0
  -15.5463    0.1447  -23.3936 C   0  0  1  0  0  0  0  0  0  0  0  0
  -17.9361    3.9315  -20.9956 O   0  0  0  0  0  0  0  0  0  0  0  0
   -9.3066    5.6860  -17.4979 O   0  0  0  0  0  0  0  0  0  0  0  0
  3  2  1  0
  6  4  2  3
  9  1  1  0
 10  4  1  0
 12  3  1  0
 14 13  1  0
 15  7  1  0
 16  1  2  0
 17  5  2  0
 17 16  1  0
 18  7  1  0
 19  3  2  3
 20  7  1  0
 21  7  1  0
 14 22  1  1
 23 14  1  0
 24  2  1  0
 24 14  1  0
 25 11  1  0
 25 13  1  0
 25 15  1  0
 26  8  1  6
 26 10  1  0
 26 19  1  0
 27  1  1  0
 27  4  1  6
 27  5  1  0
 28 19  1  0
 29  7  1  0
M  RAD  2  14   2  23   2
M  END
>  <ID>  (1) 
conformer_0

$$$$
