
     RDKit          3D

 28 30  0  0  0  0  0  0  0  0999 V2000
  -16.9176   -1.1146  -24.1386 C   0  0  0  0  0  0  0  0  0  0  0  0
  -13.9975    5.1806  -22.0751 C   0  0  0  0  0  0  0  0  0  0  0  0
  -15.3827    4.6947  -21.8025 C   0  0  0  0  0  0  0  0  0  0  0  0
  -17.0967    0.1490  -24.1274 N   0  0  0  0  0  0  0  0  0  0  0  0
  -14.5362    1.1092  -22.8353 C   0  0  0  0  0  0  0  0  0  0  0  0
  -13.9095    0.1099  -22.8328 N   0  0  0  0  0  0  0  0  0  0  0  0
  -15.5980    1.8116  -23.1265 N   0  0  0  0  0  0  0  0  0  0  0  0
  -15.1237    3.9223  -23.6060 O   0  0  0  0  0  0  0  0  0  0  0  0
  -14.1459   -2.7153  -23.1646 N   0  0  0  0  0  0  0  0  0  0  0  0
   -8.5075    4.2770  -21.6933 O   0  0  0  0  0  0  0  0  0  0  0  0
  -11.7866    4.2469  -20.8098 P   0  0  0  0  0  0  0  0  0  0  0  0
  -10.6880    4.9667  -22.2723 O   0  0  0  0  0  1  0  0  0  0  0  0
  -16.3373    3.9769  -22.0568 C   0  0  0  0  0  0  0  0  0  0  0  0
  -17.7959    4.4679  -22.8764 O   0  0  0  0  0  0  0  0  0  0  0  0
  -16.3806   -1.9268  -23.9620 N   0  0  0  0  0  0  0  0  0  0  0  0
   -8.8725    6.5674  -21.7357 O   0  0  0  0  0  0  0  0  0  0  0  0
  -14.8331   -1.3378  -23.2541 C   0  0  0  0  0  0  0  0  0  0  0  0
   -8.9007    5.6013  -18.6967 P   0  0  0  0  0  4  0  0  0  0  0  0
   -9.0276    4.7755  -17.9837 O   0  0  0  0  0  0  0  0  0  0  0  0
  -16.4767    5.1471  -20.6700 O   0  0  0  0  0  0  0  0  0  0  0  0
   -7.6257    6.0391  -18.5840 O   0  0  0  0  0  1  0  0  0  0  0  0
   -9.6961    5.3759  -19.7417 N   0  0  0  0  0  0  0  0  0  0  0  0
  -12.0755    5.3751  -19.1998 O   0  0  0  0  0  0  0  0  0  0  0  0
  -11.5941    2.9392  -20.3156 O   0  0  0  0  0  0  0  0  0  0  0  0
  -16.3528    3.0814  -23.3868 C   0  0  0  0  0  0  0  0  0  0  0  0
   -9.3870    5.4617  -21.4365 P   0  0  0  0  0  4  0  0  0  0  0  0
  -15.6577    0.1946  -23.4059 C   0  0  0  0  0  0  0  0  0  0  0  0
  -12.6602    4.3569  -21.5103 O   0  0  0  0  0  0  0  0  0  0  0  0
  3  2  1  0
  4  1  2  0
  6  5  2  0
  7  5  1  0
 13  3  1  0
 14 13  1  0
 15  1  1  0
 17  6  1  0
 17  9  1  0
 17 15  1  0
 18 16  1  0
 19 18  1  0
 20  3  1  0
 21 18  1  0
 22 18  1  0
 23 11  1  0
 24 11  1  0
 25  7  1  0
 25  8  1  0
 25 13  1  0
 26 10  1  0
 26 12  1  0
 26 16  1  0
 26 24  1  0
 27  4  1  0
 27  5  1  0
 27  7  1  0
 27 17  1  0
 28  2  1  0
 28 11  1  0
M  RAD  4  12   2  18   2  21   2  26   2
M  END
>  <ID>  (1) 
conformer_0

$$$$
