
     RDKit          3D

 29 29  0  0  0  0  0  0  0  0999 V2000
  -15.0568   -1.2576  -23.5328 C   0  0  0  0  0  0  0  0  0  0  0  0
  -16.7188    3.9291  -21.7236 C   0  0  0  0  0  0  0  0  0  0  0  0
  -15.7133    4.6725  -21.4784 C   0  0  0  0  0  0  0  0  0  0  0  0
  -17.2294    0.3188  -24.0688 N   0  0  0  0  0  0  0  0  0  0  0  0
  -13.7869    0.2636  -22.9138 N   0  0  0  0  0  0  0  0  0  0  0  0
  -14.5319    1.1647  -22.8812 C   0  0  0  0  0  0  0  0  0  0  0  0
  -14.4124   -2.5532  -23.3446 N   0  0  0  0  0  0  0  0  0  0  0  0
   -8.8269    5.9105  -18.5732 P   0  0  0  0  0  5  0  0  0  0  0  0
  -14.2093    5.2244  -22.1014 C   0  0  0  0  0  0  0  0  0  0  0  0
   -8.2312    4.5730  -21.5592 O   0  0  0  0  0  0  0  0  0  0  0  0
  -15.4381    4.1332  -23.4087 O   0  0  0  0  0  0  0  0  0  0  0  0
  -16.6499   -1.8627  -24.2239 N   0  0  0  0  0  0  0  0  0  0  0  0
  -11.8478    3.1540  -20.1050 O   0  0  0  0  0  0  0  0  0  0  0  0
  -15.5893    1.8628  -23.0213 N   0  0  0  0  0  0  0  0  0  0  0  0
   -9.0281    6.4530  -22.1612 O   0  0  0  0  0  0  0  0  0  0  0  0
  -11.9449    4.3513  -20.6933 P   0  0  0  0  0  0  0  0  0  0  0  0
  -17.2016   -0.9877  -24.3393 C   0  0  0  0  0  0  0  0  0  0  0  0
   -8.7083    4.3117  -18.8316 O   0  0  0  0  0  0  0  0  0  0  0  0
   -9.4359    6.0531  -19.8667 N   0  0  0  0  0  0  0  0  0  0  0  0
  -17.1580    4.5586  -20.2804 O   0  0  0  0  0  0  0  0  0  0  0  0
  -12.1581    5.6275  -19.4407 O   0  0  0  0  0  0  0  0  0  0  0  0
   -7.9350    6.8019  -18.2780 O   0  0  0  0  0  0  0  0  0  0  0  0
   -9.1460    5.4313  -21.3089 P   0  0  1  0  0  4  0  0  0  0  0  0
  -10.8497    4.6543  -21.7300 O   0  0  0  0  0  1  0  0  0  0  0  0
  -13.0617    4.4314  -21.5126 O   0  0  0  0  0  0  0  0  0  0  0  0
  -18.3286    3.9920  -22.1034 O   0  0  0  0  0  0  0  0  0  0  0  0
  -15.7312    0.2082  -23.4994 C   0  0  2  0  0  0  0  0  0  0  0  0
  -16.5804    3.2240  -22.8979 C   0  0  1  0  0  0  0  0  0  0  0  0
   -9.4220    5.7701  -17.5177 O   0  0  0  0  0  0  0  0  0  0  0  0
  3  2  1  0
  6  5  2  3
  7  1  1  0
  9  3  1  0
 12  1  2  0
 14  6  1  0
 15  8  1  0
 16 13  1  0
 17  4  2  0
 17 12  1  0
 18  8  1  0
 19  8  1  0
 20  2  1  0
 21 16  1  0
 22  8  1  0
 23 10  1  1
 23 13  1  0
 23 15  1  0
 24 23  1  0
 25  9  1  0
 25 16  1  0
 26  2  1  0
 27  1  1  0
 27  4  1  0
 27  6  1  6
 28  2  1  0
 28 11  1  6
 28 14  1  0
 29  8  1  0
M  RAD  2  23   2  24   2
M  END
>  <ID>  (1) 
conformer_0

$$$$
