
     RDKit          3D

 29 29  0  0  0  0  0  0  0  0999 V2000
  -15.7270    4.4951  -21.2250 C   0  0  1  0  0  0  0  0  0  0  0  0
  -15.0464   -1.4784  -23.4226 C   0  0  0  0  0  0  0  0  0  0  0  0
  -14.6237    5.2206  -21.8447 C   0  0  0  0  0  0  0  0  0  0  0  0
  -17.0889    0.2918  -24.0567 N   0  0  0  0  0  0  0  0  0  0  0  0
  -15.6483   -0.0325  -23.3868 C   0  0  0  0  0  0  0  0  0  0  0  0
  -13.8413    0.0996  -22.8892 N   0  0  0  0  0  0  0  0  0  0  0  0
  -12.0435    4.4689  -21.0389 P   0  0  0  0  0  5  0  0  0  0  0  0
  -14.2197   -2.6665  -23.2627 N   0  0  0  0  0  0  0  0  0  0  0  0
  -15.4714    1.7227  -22.9519 N   0  0  0  0  0  0  0  0  0  0  0  0
  -15.4276    4.0756  -23.4812 O   0  0  0  0  0  0  0  0  0  0  0  0
  -11.0351    4.8260  -22.0130 O   0  0  0  0  0  0  0  0  0  0  0  0
  -16.5278   -1.9612  -24.1349 N   0  0  0  0  0  0  0  0  0  0  0  0
   -8.5242    5.8755  -18.4995 P   0  0  0  0  0  4  0  0  0  0  0  0
   -8.4616    4.7282  -21.3922 O   0  0  0  0  0  0  0  0  0  0  0  0
  -17.1327    4.6160  -20.4683 O   0  0  0  0  0  0  0  0  0  0  0  0
   -9.2175    5.8319  -17.1658 O   0  0  0  0  0  0  0  0  0  0  0  0
  -17.1693   -1.0983  -24.2640 C   0  0  0  0  0  0  0  0  0  0  0  0
  -16.6147    3.6590  -21.9779 C   0  0  1  0  0  0  0  0  0  0  0  0
   -9.6361    6.2222  -19.7431 N   0  0  0  0  0  0  0  0  0  0  0  0
   -7.4525    6.4457  -18.4086 O   0  0  0  0  0  1  0  0  0  0  0  0
  -18.2035    3.5286  -22.8804 O   0  0  0  0  0  0  0  0  0  0  0  0
  -11.6201    3.1595  -20.3924 O   0  0  0  0  0  0  0  0  0  0  0  0
  -13.1752    4.8132  -21.8654 O   0  0  0  0  0  0  0  0  0  0  0  0
  -12.3381    4.9569  -19.4982 O   0  0  0  0  0  0  0  0  0  0  0  0
   -9.2887    6.5084  -22.0264 O   0  0  0  0  0  0  0  0  0  0  0  0
   -9.5977    5.3763  -21.0679 P   0  0  0  0  0  0  0  0  0  0  0  0
  -16.2727    3.0714  -23.1652 C   0  0  2  0  0  0  0  0  0  0  0  0
  -14.5829    1.0938  -22.8239 C   0  0  0  0  0  0  0  0  0  0  0  0
   -8.6060    4.6166  -18.6063 O   0  0  0  0  0  0  0  0  0  0  0  0
  3  1  1  0
  5  2  2  0
  5  4  1  0
  8  2  1  0
 11  7  1  0
 12  2  1  0
  1 15  1  6
 16 13  1  0
 17  4  2  0
 17 12  1  0
 18  1  1  0
 19 13  1  0
 20 13  1  0
 18 21  1  6
 22  7  1  0
 23  3  1  0
 23  7  1  0
 24  7  1  0
 25  7  1  0
 26 14  1  0
 26 19  1  0
 26 25  1  0
 27  9  1  0
 27 10  1  6
 27 18  1  0
 28  5  1  0
 28  6  2  3
 28  9  1  0
 29 13  1  0
M  RAD  2  13   2  20   2
M  END
>  <ID>  (1) 
conformer_0

$$$$
