
     RDKit          3D

 29 30  0  0  0  0  0  0  0  0999 V2000
  -16.5204    3.1312  -22.8932 C   0  0  2  0  0  0  0  0  0  0  0  0
  -14.8785   -1.4257  -23.5435 C   0  0  0  0  0  0  0  0  0  0  0  0
  -16.7126    3.7144  -21.6100 C   0  0  1  0  0  0  0  0  0  0  0  0
  -17.0220    0.1658  -24.0761 N   0  0  0  0  0  0  0  0  0  0  0  0
  -14.7921    1.1656  -22.9578 C   0  0  0  0  0  0  0  0  0  0  0  0
  -13.9049    0.4209  -22.9068 N   0  0  0  0  0  0  0  0  0  0  0  0
   -8.3532    4.2871  -21.5382 O   0  0  0  0  0  0  0  0  0  0  0  0
  -15.6498    1.7620  -23.0966 N   0  0  0  0  0  0  0  0  0  0  0  0
   -8.8406    5.8959  -18.3691 P   0  0  0  0  0  4  0  0  0  0  0  0
  -14.0471   -2.4354  -23.4310 N   0  0  0  0  0  0  0  0  0  0  0  0
  -15.6130    4.2014  -23.5264 O   0  0  0  0  0  0  0  0  0  0  0  0
  -15.6851    4.7964  -21.7928 C   0  0  1  0  0  0  0  0  0  0  0  0
  -11.9982    4.1332  -20.8650 P   0  0  0  0  0  5  0  0  0  0  0  0
  -11.0007    4.8498  -21.5923 O   0  0  0  0  0  0  0  0  0  0  0  0
  -13.1517    4.5124  -21.8511 O   0  0  0  0  0  0  0  0  0  0  0  0
  -16.3160   -1.9932  -24.1256 N   0  0  0  0  0  0  0  0  0  0  0  0
   -7.7502    6.3296  -18.1355 O   0  0  0  0  0  1  0  0  0  0  0  0
  -17.0024   -1.1913  -24.2478 C   0  0  0  0  0  0  0  0  0  0  0  0
   -9.9447    5.9407  -17.8576 O   0  0  0  0  0  0  0  0  0  0  0  0
  -16.6145    5.3121  -20.5388 O   0  0  0  0  0  0  0  0  0  0  0  0
  -12.6753    4.4701  -19.4547 O   0  0  0  0  0  0  0  0  0  0  0  0
   -9.3257    6.2487  -19.9756 N   0  0  0  0  0  0  0  0  0  0  0  0
   -8.9507    3.9515  -18.5142 O   0  0  0  0  0  0  0  0  0  0  0  0
   -9.3482    5.2688  -21.0341 P   0  0  0  0  0  0  0  0  0  0  0  0
  -11.6268    2.8233  -20.7612 O   0  0  0  0  0  0  0  0  0  0  0  0
  -18.1015    4.0337  -21.5372 O   0  0  0  0  0  0  0  0  0  0  0  0
  -14.4206    5.2067  -22.1794 C   0  0  0  0  0  0  0  0  0  0  0  0
  -15.6103    0.0744  -23.5564 C   0  0  1  0  0  0  0  0  0  0  0  0
   -9.2134    6.2570  -22.1807 O   0  0  0  0  0  0  0  0  0  0  0  0
  3  1  1  0
  6  5  2  3
  1  8  1  1
  8  5  1  0
 10  2  1  0
 11  1  1  0
 12  3  1  0
 12 11  1  0
 14 13  1  0
 15 13  1  0
 16  2  2  0
 17  9  1  0
 18  4  2  0
 18 16  1  0
 19  9  1  0
 12 20  1  6
 21 13  1  0
 22  9  1  0
 23  9  1  0
 24  7  1  0
 24 22  1  0
 25 13  1  0
  3 26  1  6
 27 12  1  0
 27 15  1  0
 28  2  1  0
 28  4  1  0
 28  5  1  1
 29 13  1  0
 29 24  1  0
M  RAD  2   9   2  17   2
M  END
>  <ID>  (1) 
conformer_0

$$$$
