
     RDKit          3D

 28 28  0  0  0  0  0  0  0  0999 V2000
  -15.6398    0.0206  -23.4091 C   0  0  0  0  0  0  0  0  0  0  0  0
  -15.5743    4.6581  -21.4420 C   0  0  0  0  0  0  0  0  0  0  0  0
  -16.5653    3.7900  -21.6994 C   0  0  0  0  0  0  0  0  0  0  0  0
  -14.5174    1.1289  -22.8741 C   0  0  0  0  0  0  0  0  0  0  0  0
  -17.0620    0.2916  -24.0249 N   0  0  0  0  0  0  0  0  0  0  0  0
  -13.8408    0.0430  -22.9365 N   0  0  0  0  0  0  0  0  0  0  0  0
  -14.1820   -2.6031  -23.4093 N   0  0  0  0  0  0  0  0  0  0  0  0
  -15.4297    4.0468  -23.4962 O   0  0  0  0  0  0  0  0  0  0  0  0
  -15.4196    1.7716  -22.9690 N   0  0  0  0  0  0  0  0  0  0  0  0
   -8.8587    5.7864  -18.8559 P   0  0  2  0  0  4  0  0  0  0  0  0
   -8.5818    4.5102  -21.4863 O   0  0  0  0  0  0  0  0  0  0  0  0
  -12.0495    4.2522  -20.5562 P   0  0  0  0  0  0  0  0  0  0  0  0
  -11.5477    2.8070  -20.4179 O   0  0  0  0  0  1  0  0  0  0  0  0
  -14.3372    5.2301  -21.9923 C   0  0  0  0  0  0  0  0  0  0  0  0
   -9.5814    6.3238  -19.9424 N   0  0  0  0  0  0  0  0  0  0  0  0
   -9.1788    6.2762  -22.5277 O   0  0  0  0  0  0  0  0  0  0  0  0
  -16.5356   -1.9793  -24.1640 N   0  0  0  0  0  0  0  0  0  0  0  0
  -12.5583    5.2620  -19.4189 O   0  0  0  0  0  0  0  0  0  0  0  0
   -9.0315    4.7151  -18.3199 O   0  0  0  0  0  0  0  0  0  0  0  0
  -15.0422   -1.4358  -23.4619 C   0  0  2  0  0  0  0  0  0  0  0  0
   -7.8608    6.3171  -18.4937 O   0  0  0  0  0  1  0  0  0  0  0  0
  -18.1173    3.8234  -22.3117 O   0  0  0  0  0  0  0  0  0  0  0  0
  -13.2604    4.2410  -21.3718 O   0  0  0  0  0  0  0  0  0  0  0  0
   -9.3021    5.5544  -21.4123 P   0  0  1  0  0  4  0  0  0  0  0  0
  -16.2554    3.1106  -22.9046 C   0  0  1  0  0  0  0  0  0  0  0  0
  -11.1630    4.9166  -21.2957 O   0  0  0  0  0  0  0  0  0  0  0  0
  -17.1294    4.5730  -20.4296 O   0  0  0  0  0  0  0  0  0  0  0  0
  -17.1682   -1.0410  -24.1963 C   0  0  0  0  0  0  0  0  0  0  0  0
  3  2  1  0
  4  1  1  0
  5  1  2  0
  6  4  2  3
  9  4  1  0
 14  2  1  0
 10 15  1  1
 16 10  1  0
 18 12  1  0
 19 10  1  0
 20  1  1  0
 20  7  1  6
 20 17  1  0
 21 10  1  0
 22  3  1  0
 23 12  1  0
 23 14  1  0
 24 11  1  1
 24 13  1  0
 24 16  1  0
 25  3  1  0
 25  8  1  6
 25  9  1  0
 26 12  1  0
 26 24  1  0
 27  3  1  0
 28  5  1  0
 28 17  2  0
M  RAD  4  10   2  13   2  21   2  24   2
M  END
>  <ID>  (1) 
conformer_0

$$$$
