
     RDKit          3D

 28 28  0  0  0  0  0  0  0  0999 V2000
  -15.6493    0.0195  -23.4511 C   0  0  0  0  0  0  0  0  0  0  0  0
  -16.3928    3.1287  -22.8668 C   0  0  1  0  0  0  0  0  0  0  0  0
  -16.5988    3.8468  -21.6725 C   0  0  1  0  0  0  0  0  0  0  0  0
  -17.1040    0.2740  -24.1146 N   0  0  0  0  0  0  0  0  0  0  0  0
  -14.5934    1.1300  -22.8945 C   0  0  0  0  0  0  0  0  0  0  0  0
  -13.8769    0.0069  -22.9122 N   0  0  0  0  0  0  0  0  0  0  0  0
  -15.7344    4.5635  -21.6131 C   0  0  2  0  0  0  0  0  0  0  0  0
  -14.2108   -2.6742  -23.4289 N   0  0  0  0  0  0  0  0  0  0  0  0
   -8.4893    4.5076  -21.5147 O   0  0  0  0  0  0  0  0  0  0  0  0
  -12.0380    4.1513  -20.7143 P   0  0  0  0  0  5  0  0  0  0  0  0
  -15.4117    4.1613  -23.5043 O   0  0  0  0  0  0  0  0  0  0  0  0
   -8.7530    6.0572  -18.8303 P   0  0  1  0  0  4  0  0  0  0  0  0
   -9.1420    5.3606  -17.9008 O   0  0  0  0  0  0  0  0  0  0  0  0
  -15.4962    1.7330  -22.9850 N   0  0  0  0  0  0  0  0  0  0  0  0
  -16.5709    5.1530  -20.2661 O   0  0  0  0  0  0  0  0  0  0  0  0
  -11.0097    3.1362  -20.3517 O   0  0  0  0  0  0  0  0  0  0  0  0
  -16.5615   -1.9740  -24.1860 N   0  0  0  0  0  0  0  0  0  0  0  0
  -15.0203   -1.4484  -23.4980 C   0  0  0  0  0  0  0  0  0  0  0  0
   -9.8996    5.4956  -22.7322 O   0  0  0  0  0  1  0  0  0  0  0  0
  -12.4310    5.5312  -19.6678 O   0  0  0  0  0  0  0  0  0  0  0  0
   -9.7449    6.2827  -20.1693 N   0  0  0  0  0  0  0  0  0  0  0  0
   -9.4837    5.3128  -21.4959 P   0  0  2  0  0  4  0  0  0  0  0  0
  -18.1931    3.7638  -21.8002 O   0  0  0  0  0  0  0  0  0  0  0  0
   -7.8939    6.6473  -18.7909 O   0  0  0  0  0  1  0  0  0  0  0  0
  -12.2604    4.6086  -21.8525 O   0  0  0  0  0  0  0  0  0  0  0  0
  -13.1365    3.4810  -19.9238 O   0  0  0  0  0  0  0  0  0  0  0  0
  -14.2582    5.1440  -22.3562 C   0  0  0  0  0  0  0  0  0  0  0  0
  -17.1605   -0.9998  -24.2691 C   0  0  0  0  0  0  0  0  0  0  0  0
  3  2  1  0
  4  1  2  0
  5  1  1  0
  6  5  2  3
  7  3  1  0
  2 11  1  6
 12 13  1  1
 14  2  1  0
 14  5  1  0
  7 15  1  6
 16 10  1  0
 18  1  1  0
 18  8  1  0
 18 17  1  0
 20 10  1  0
 21 12  1  0
 22  9  1  6
 22 10  1  0
 22 19  1  0
 22 21  1  0
  3 23  1  6
 24 12  1  0
 25 10  1  0
 26 16  1  0
 27  7  1  0
 27 25  1  0
 28  4  1  0
 28 17  2  0
M  RAD  4  12   2  19   2  22   2  24   2
M  END
>  <ID>  (1) 
conformer_0

$$$$
