
     RDKit          3D

 28 29  0  0  0  0  0  0  0  0999 V2000
  -17.0413    3.5784  -21.8385 C   0  0  0  0  0  0  0  0  0  0  0  0
  -14.6710   -1.1866  -23.3485 C   0  0  0  0  0  0  0  0  0  0  0  0
  -15.8849    4.5701  -21.5274 C   0  0  2  0  0  0  0  0  0  0  0  0
  -17.0110    0.3118  -24.0525 N   0  0  0  0  0  0  0  0  0  0  0  0
  -13.7467    0.4697  -22.8325 N   0  0  0  0  0  0  0  0  0  0  0  0
  -14.5550    1.3757  -22.8159 C   0  0  0  0  0  0  0  0  0  0  0  0
   -8.8824    6.1459  -18.7203 P   0  0  0  0  0  4  0  0  0  0  0  0
   -8.6913    4.3657  -21.2247 O   0  0  0  0  0  0  0  0  0  0  0  0
  -15.2786    4.2018  -23.1720 O   0  0  0  0  0  0  0  0  0  0  0  0
  -12.0728    4.2160  -20.8993 P   0  0  0  0  0  0  0  0  0  0  0  0
   -8.5250    5.1584  -18.4809 O   0  0  0  0  0  0  0  0  0  0  0  0
  -15.5105    1.9226  -23.0308 N   0  0  0  0  0  0  0  0  0  0  0  0
  -13.9390   -2.3821  -23.1658 N   0  0  0  0  0  0  0  0  0  0  0  0
  -16.2049   -1.8565  -24.0075 N   0  0  0  0  0  0  0  0  0  0  0  0
  -11.7542    3.0180  -20.3195 O   0  0  0  0  0  0  0  0  0  0  0  0
  -14.4885    5.2466  -21.6464 C   0  0  0  0  0  0  0  0  0  0  0  0
   -8.9216    6.4683  -21.8765 O   0  0  0  0  0  1  0  0  0  0  0  0
  -16.8540   -1.0686  -24.2027 C   0  0  0  0  0  0  0  0  0  0  0  0
  -18.4408    3.4784  -22.6700 O   0  0  0  0  0  0  0  0  0  0  0  0
   -8.1872    7.1118  -18.7555 O   0  0  0  0  0  1  0  0  0  0  0  0
  -11.0452    4.9615  -22.0796 O   0  0  0  0  0  0  0  0  0  0  0  0
   -9.8717    6.2855  -20.1348 N   0  0  0  0  0  0  0  0  0  0  0  0
  -17.6117    4.6889  -20.9616 O   0  0  0  0  0  0  0  0  0  0  0  0
   -9.4710    5.4165  -21.0824 P   0  0  1  0  0  4  0  0  0  0  0  0
  -15.5109    0.2621  -23.4767 C   0  0  1  0  0  0  0  0  0  0  0  0
  -12.9753    4.3331  -21.3841 O   0  0  0  0  0  0  0  0  0  0  0  0
  -16.4908    3.1001  -23.0340 C   0  0  1  0  0  0  0  0  0  0  0  0
  -10.2860    5.9954  -18.2941 O   0  0  0  0  0  0  0  0  0  0  0  0
  3  1  1  0
  6  5  2  3
  9  3  1  0
 11  7  1  0
 12  6  1  0
 13  2  1  0
 14  2  2  0
 15 10  1  0
  3 16  1  1
 18  4  2  0
 18 14  1  0
 19  1  1  0
 20  7  1  0
 21 10  1  0
 22  7  1  0
 23  1  1  0
 24  8  1  1
 24 17  1  0
 24 21  1  0
 24 22  1  0
 25  2  1  0
 25  4  1  0
 25  6  1  1
 26 10  1  0
 26 16  1  0
 27  1  1  0
 27  9  1  0
 27 12  1  1
 28  7  1  0
M  RAD  4   7   2  17   2  20   2  24   2
M  END
>  <ID>  (1) 
conformer_0

$$$$
