
     RDKit          3D

 29 30  0  0  0  0  0  0  0  0999 V2000
  -15.2548    4.7484  -21.4078 C   0  0  1  0  0  0  0  0  0  0  0  0
  -15.2233   -1.2312  -23.5803 C   0  0  0  0  0  0  0  0  0  0  0  0
  -16.4615    3.9281  -21.6729 C   0  0  1  0  0  0  0  0  0  0  0  0
  -17.2636    0.4075  -24.0532 N   0  0  0  0  0  0  0  0  0  0  0  0
  -13.7614    0.1236  -22.9858 N   0  0  0  0  0  0  0  0  0  0  0  0
  -14.4417    1.0882  -22.9087 C   0  0  0  0  0  0  0  0  0  0  0  0
  -11.6465    4.0320  -20.5971 P   0  0  0  0  0  0  0  0  0  0  0  0
  -15.3397    4.0485  -23.4800 O   0  0  0  0  0  0  0  0  0  0  0  0
  -14.5611   -2.6145  -23.4403 N   0  0  0  0  0  0  0  0  0  0  0  0
   -8.7017    5.8880  -18.4643 P   0  0  0  0  0  4  0  0  0  0  0  0
  -15.4777    1.8389  -23.0214 N   0  0  0  0  0  0  0  0  0  0  0  0
  -16.7870   -1.7666  -24.1436 N   0  0  0  0  0  0  0  0  0  0  0  0
   -8.1947    4.3732  -21.5093 O   0  0  0  0  0  0  0  0  0  0  0  0
  -14.0277    5.0988  -22.0407 C   0  0  0  0  0  0  0  0  0  0  0  0
  -12.7158    4.3198  -21.5577 O   0  0  0  0  0  0  0  0  0  0  0  0
  -16.5704    5.2688  -20.4614 O   0  0  0  0  0  0  0  0  0  0  0  0
   -9.1279    5.8444  -17.1602 O   0  0  0  0  0  0  0  0  0  0  0  0
  -15.7228    0.2558  -23.4698 C   0  0  2  0  0  0  0  0  0  0  0  0
   -8.9812    6.1600  -22.3167 O   0  0  0  0  0  0  0  0  0  0  0  0
   -7.7335    6.3672  -18.6473 O   0  0  0  0  0  1  0  0  0  0  0  0
  -18.0193    4.1120  -22.0442 O   0  0  0  0  0  0  0  0  0  0  0  0
  -12.3930    4.5989  -19.3101 O   0  0  0  0  0  0  0  0  0  0  0  0
   -9.7656    5.8464  -19.6802 N   0  0  0  0  0  0  0  0  0  0  0  0
   -9.2368    5.3359  -21.3763 P   0  0  0  0  0  5  0  0  0  0  0  0
  -11.3112    2.7131  -20.4732 O   0  0  0  0  0  0  0  0  0  0  0  0
  -17.3682   -0.7714  -24.2082 C   0  0  0  0  0  0  0  0  0  0  0  0
  -16.3136    3.2364  -22.9705 C   0  0  1  0  0  0  0  0  0  0  0  0
   -8.9420    4.1636  -18.4770 O   0  0  0  0  0  0  0  0  0  0  0  0
  -10.5950    4.6729  -21.7478 O   0  0  0  0  0  0  0  0  0  0  0  0
  3  1  1  0
  6  5  2  3
  9  2  1  0
 11  6  1  0
 12  2  2  0
 14  1  1  0
 15  7  1  0
 15 14  1  0
  1 16  1  6
 17 10  1  0
 18  2  1  0
 18  4  1  0
 18  6  1  0
 18 11  1  1
 20 10  1  0
  3 21  1  6
 22  7  1  0
 23 10  1  0
 24 13  1  0
 24 19  1  0
 24 23  1  0
 25  7  1  0
 25 24  1  0
 26  4  2  0
 26 12  1  0
 27  3  1  0
 27  8  1  6
 27 11  1  0
 28 10  1  0
 29 24  1  0
M  RAD  2  10   2  20   2
M  END
>  <ID>  (1) 
conformer_0

$$$$
