
     RDKit          3D

 29 30  0  0  0  0  0  0  0  0999 V2000
  -17.0021    3.6751  -22.3637 C   0  0  0  0  0  0  0  0  0  0  0  0
  -16.6591   -1.2869  -24.1073 C   0  0  0  0  0  0  0  0  0  0  0  0
  -16.0516    4.4157  -21.8838 C   0  0  0  0  0  0  0  0  0  0  0  0
  -17.0073   -0.1825  -24.1684 N   0  0  0  0  0  0  0  0  0  0  0  0
  -13.6742    0.4252  -22.8757 N   0  0  0  0  0  0  0  0  0  0  0  0
  -14.6086    1.1412  -22.9198 C   0  0  0  0  0  0  0  0  0  0  0  0
   -8.4893    4.4478  -21.4478 O   0  0  0  0  0  0  0  0  0  0  0  0
  -15.4796    3.9471  -23.7384 O   0  0  0  0  0  0  0  0  0  0  0  0
   -8.6975    5.7001  -18.2379 P   0  0  0  0  0  5  0  0  0  0  0  0
  -14.6772    5.1378  -22.0055 C   0  0  0  0  0  0  0  0  0  0  0  0
  -11.8095    2.8487  -20.5842 O   0  0  0  0  0  1  0  0  0  0  0  0
  -13.7839   -2.6156  -23.1149 N   0  0  0  0  0  0  0  0  0  0  0  0
  -12.1360    4.1799  -20.9461 P   0  0  2  0  0  4  0  0  0  0  0  0
  -15.7704    1.6123  -23.2577 N   0  0  0  0  0  0  0  0  0  0  0  0
  -12.5982    4.8129  -19.3884 O   0  0  0  0  0  0  0  0  0  0  0  0
  -14.3945   -1.4417  -23.2418 C   0  0  0  0  0  3  0  0  0  0  0  0
   -9.1389    5.6982  -17.0304 O   0  0  0  0  0  0  0  0  0  0  0  0
   -9.1566    6.4110  -21.8995 O   0  0  0  0  0  0  0  0  0  0  0  0
  -18.5038    3.9740  -22.7117 O   0  0  0  0  0  0  0  0  0  0  0  0
   -7.5706    5.2564  -18.2642 O   0  0  0  0  0  0  0  0  0  0  0  0
  -16.0577   -1.9595  -23.9861 N   0  0  0  0  0  0  0  0  0  0  0  0
   -9.3261    3.9435  -19.0195 O   0  0  0  0  0  0  0  0  0  0  0  0
  -13.2428    4.4846  -21.7953 O   0  0  0  0  0  0  0  0  0  0  0  0
   -9.4177    5.4107  -20.8965 P   0  0  0  0  0  0  0  0  0  0  0  0
   -9.9591    5.9665  -19.7411 N   0  0  0  0  0  0  0  0  0  0  0  0
  -16.7048    2.7482  -23.4783 C   0  0  1  0  0  0  0  0  0  0  0  0
  -11.0773    4.7336  -21.8303 O   0  0  0  0  0  0  0  0  0  0  0  0
  -17.6461    4.3694  -20.9250 O   0  0  0  0  0  0  0  0  0  0  0  0
  -15.4440   -0.0534  -23.4548 C   0  0  1  0  0  0  0  0  0  0  0  0
  3  1  1  0
  4  2  2  0
  6  5  2  3
 10  3  1  0
 13 11  1  1
 14  6  1  0
 15 13  1  0
 16 12  1  0
 17  9  1  0
 18  9  1  0
 19  1  1  0
 20  9  1  0
 21  2  1  0
 21 16  1  0
 22  9  1  0
 23 10  1  0
 23 13  1  0
 24  7  1  0
 25  9  1  0
 25 24  1  0
 26  1  1  0
 26  8  1  6
 26 14  1  0
 27 13  1  0
 27 24  1  0
 28  1  1  0
 29  4  1  0
 29  6  1  0
 29 14  1  0
 29 16  1  1
M  RAD  3  11   2  13   2  16   2
M  END
>  <ID>  (1) 
conformer_0

$$$$
