
     RDKit          3D

 28 28  0  0  0  0  0  0  0  0999 V2000
  -15.6804    4.7002  -21.4768 C   0  0  1  0  0  0  0  0  0  0  0  0
  -15.2284   -1.4473  -23.4716 C   0  0  0  0  0  0  0  0  0  0  0  0
  -16.6645    3.8759  -21.6437 C   0  0  1  0  0  0  0  0  0  0  0  0
  -17.2918    0.2265  -24.0870 N   0  0  0  0  0  0  0  0  0  0  0  0
  -14.8924    1.1055  -22.8267 C   0  0  0  0  0  0  0  0  0  0  0  0
   -8.2847    4.3230  -21.7797 O   0  0  0  0  0  0  0  0  0  0  0  0
  -14.0796    0.1429  -22.9003 N   0  0  0  0  0  0  0  0  0  0  0  0
  -11.9303    4.1654  -20.8574 P   0  0  0  0  0  0  0  0  0  0  0  0
  -14.2966   -2.5498  -23.2995 N   0  0  0  0  0  0  0  0  0  0  0  0
  -15.7177    1.7912  -22.8999 N   0  0  0  0  0  0  0  0  0  0  0  0
   -8.6133    6.0063  -18.5837 P   0  0  1  0  0  4  0  0  0  0  0  0
  -14.3161    5.1882  -22.0420 C   0  0  0  0  0  0  0  0  0  0  0  0
  -13.1104    4.3120  -21.7018 O   0  0  0  0  0  0  0  0  0  0  0  0
  -15.5823    3.8761  -23.2627 O   0  0  0  0  0  0  0  0  0  0  0  0
  -12.4451    4.7130  -19.5347 O   0  0  0  0  0  0  0  0  0  0  0  0
   -9.2958    5.2763  -18.0322 O   0  0  0  0  0  0  0  0  0  0  0  0
  -16.6009   -2.0700  -24.1160 N   0  0  0  0  0  0  0  0  0  0  0  0
  -15.8263   -0.0151  -23.4408 C   0  0  2  0  0  0  0  0  0  0  0  0
   -9.1338    6.2975  -22.3825 O   0  0  0  0  0  0  0  0  0  0  0  0
   -9.1825    5.3386  -21.4958 P   0  0  0  0  0  5  0  0  0  0  0  0
   -7.7703    6.5912  -18.4312 O   0  0  0  0  0  1  0  0  0  0  0  0
  -18.1514    4.0706  -21.7165 O   0  0  0  0  0  0  0  0  0  0  0  0
   -8.9112    5.5532  -19.9203 N   0  0  0  0  0  0  0  0  0  0  0  0
  -11.6767    2.7926  -20.6418 O   0  0  0  0  0  0  0  0  0  0  0  0
  -10.9274    4.8326  -21.8388 O   0  0  0  0  0  0  0  0  0  0  0  0
  -16.6760    3.0403  -22.8861 C   0  0  2  0  0  0  0  0  0  0  0  0
  -17.2939   -1.0565  -24.3193 C   0  0  0  0  0  0  0  0  0  0  0  0
  -17.0449    5.2325  -20.4944 O   0  0  0  0  0  0  0  0  0  0  0  0
  3  1  1  0
  7  5  2  3
  9  2  1  0
 10  5  1  0
 12  1  1  0
 13  8  1  0
 13 12  1  0
 15  8  1  0
 11 16  1  1
 17  2  2  0
 18  2  1  0
 18  4  1  0
 18  5  1  6
 20  6  1  0
 20 19  1  0
 21 11  1  0
  3 22  1  6
 23 11  1  0
 23 20  1  0
 24  8  1  0
 24 20  1  0
 25 20  1  0
 26  3  1  0
 26 10  1  0
 26 14  1  6
 27  4  2  0
 27 17  1  0
  1 28  1  6
M  RAD  2  11   2  21   2
M  END
>  <ID>  (1) 
conformer_0

$$$$
