
     RDKit          3D

 25 24  0  0  0  0  0  0  0  0999 V2000
  -16.5514    2.9873  -22.8936 C   0  0  1  0  0  0  0  0  0  0  0  0
  -15.2368   -1.1659  -23.5007 C   0  0  0  0  0  0  0  0  0  0  0  0
  -16.5104    3.9067  -21.6747 C   0  0  1  0  0  0  0  0  0  0  0  0
  -13.9982    0.0711  -23.0262 N   0  0  0  0  0  0  0  0  0  0  0  0
  -15.1117    0.7406  -23.1893 C   0  0  0  0  0  0  0  0  0  0  0  0
  -16.5611   -2.1476  -24.2144 N   0  0  0  0  0  0  0  0  0  0  0  0
   -8.3706    4.4639  -21.4121 O   0  0  0  0  0  0  0  0  0  0  0  0
  -14.3008   -2.6000  -23.3188 N   0  0  0  0  0  0  0  0  0  0  0  0
   -8.5766    6.0915  -18.7801 P   0  0  1  0  0  4  0  0  0  0  0  0
  -15.4212    4.0360  -23.2745 O   0  0  0  0  0  0  0  0  0  0  0  0
  -15.6930    1.6883  -23.0901 N   0  0  0  0  0  0  0  0  0  0  0  0
   -9.1692    5.2519  -18.0224 O   0  0  0  0  0  0  0  0  0  0  0  0
  -15.5322    4.7494  -21.3929 C   0  0  2  0  0  0  0  0  0  0  0  0
  -11.9341    4.0968  -20.7727 P   0  0  1  0  0  4  0  0  0  0  0  0
  -12.4013    3.3363  -20.2038 O   0  0  0  0  0  0  0  0  0  0  0  0
  -16.8211   -0.8392  -24.0714 C   0  0  0  0  0  0  0  0  0  0  0  0
   -7.8754    6.4270  -18.8602 O   0  0  0  0  0  1  0  0  0  0  0  0
  -11.5238    4.4552  -21.7331 O   0  0  0  0  0  1  0  0  0  0  0  0
  -16.6545    5.1130  -20.0982 O   0  0  0  0  0  0  0  0  0  0  0  0
   -9.4857    6.0526  -22.0918 O   0  0  0  0  0  0  0  0  0  0  0  0
  -17.2588   -0.0524  -24.1668 N   0  0  0  0  0  0  0  0  0  0  0  0
  -11.6393    5.7015  -19.4489 O   0  0  0  0  0  0  0  0  0  0  0  0
   -9.3907    5.3372  -21.2044 P   0  0  0  0  0  0  0  0  0  0  0  0
  -18.0685    3.9958  -21.6176 O   0  0  0  0  0  0  0  0  0  0  0  0
  -14.2997    5.2117  -21.9361 C   0  0  0  0  0  0  0  0  0  0  0  0
  3  1  1  0
  4  2  1  0
  5  4  2  3
  8  2  2  3
  1 10  1  6
 11  1  1  0
 11  5  1  0
  9 12  1  1
 13  3  1  0
 15 14  1  0
 16  2  1  0
 16  6  2  3
 17  9  1  0
 14 18  1  6
 13 19  1  6
 20 14  1  0
 21 16  1  0
 22 14  1  0
 23  7  1  0
 23  9  1  0
 23 20  1  0
  3 24  1  6
 25 13  1  0
 25 15  1  0
M  RAD  4   9   2  14   2  17   2  18   2
M  END
>  <ID>  (1) 
conformer_0

$$$$
