
     RDKit          3D

 29 30  0  0  0  0  0  0  0  0999 V2000
  -15.4840    4.6884  -21.3199 C   0  0  0  0  0  0  0  0  0  0  0  0
  -15.0959   -1.3555  -23.4757 C   0  0  0  0  0  0  0  0  0  0  0  0
  -14.4546    5.1619  -22.1914 C   0  0  2  0  0  0  0  0  0  0  0  0
  -14.7165    1.2646  -22.9200 C   0  0  0  0  0  0  0  0  0  0  0  0
  -17.1399    0.3023  -24.0662 N   0  0  0  0  0  0  0  0  0  0  0  0
  -13.9634    0.2265  -22.8796 N   0  0  0  0  0  0  0  0  0  0  0  0
   -8.4888    4.4718  -21.4541 O   0  0  0  0  0  0  0  0  0  0  0  0
  -14.3415   -2.5422  -23.4045 N   0  0  0  0  0  0  0  0  0  0  0  0
   -8.6698    5.7566  -18.7997 P   0  0  0  0  0  5  0  0  0  0  0  0
  -15.5939    1.8963  -23.1105 N   0  0  0  0  0  0  0  0  0  0  0  0
  -15.4671    4.1859  -23.4037 O   0  0  0  0  0  0  0  0  0  0  0  0
  -12.1236    4.2361  -20.6816 P   0  0  2  0  0  4  0  0  0  0  0  0
   -7.4870    5.7431  -18.4595 O   0  0  0  0  0  0  0  0  0  0  0  0
  -16.6239   -2.0343  -24.1350 N   0  0  0  0  0  0  0  0  0  0  0  0
  -16.5965    3.9173  -21.5523 C   0  0  0  0  0  0  0  0  0  0  0  0
  -11.6129    3.1052  -20.4522 O   0  0  0  0  0  1  0  0  0  0  0  0
   -9.3842    5.6849  -17.6408 O   0  0  0  0  0  0  0  0  0  0  0  0
  -13.1697    4.2774  -21.4203 O   0  0  0  0  0  0  0  0  0  0  0  0
  -15.6758    0.1037  -23.4733 C   0  0  1  0  0  0  0  0  0  0  0  0
  -10.9954    4.7730  -22.2127 O   0  0  0  0  0  0  0  0  0  0  0  0
  -18.2181    3.5885  -21.7309 O   0  0  0  0  0  0  0  0  0  0  0  0
  -12.2612    5.4985  -19.6400 O   0  0  0  0  0  0  0  0  0  0  0  0
   -9.8145    6.2697  -19.9319 N   0  0  0  0  0  0  0  0  0  0  0  0
   -9.5253    5.4233  -21.1700 P   0  0  0  0  0  0  0  0  0  0  0  0
   -9.1533    6.4414  -22.1073 O   0  0  0  0  0  0  0  0  0  0  0  0
  -16.4587    3.2246  -22.8995 C   0  0  2  0  0  0  0  0  0  0  0  0
  -17.1294   -1.0737  -24.1762 C   0  0  0  0  0  0  0  0  0  0  0  0
   -9.1224    3.8596  -18.9892 O   0  0  0  0  0  0  0  0  0  0  0  0
  -17.0504    4.8375  -20.3349 O   0  0  0  0  0  0  0  0  0  0  0  0
  3  1  1  0
  6  4  2  3
  8  2  1  0
 10  4  1  0
 11  3  1  0
 13  9  1  0
 14  2  2  0
 15  1  1  0
 12 16  1  1
 17  9  1  0
  3 18  1  1
 18 12  1  0
 19  2  1  0
 19  4  1  6
 19  5  1  0
 20 12  1  0
 21 15  1  0
 22 12  1  0
 23  9  1  0
 24  7  1  0
 24 20  1  0
 25  9  1  0
 25 24  1  0
 26 10  1  1
 26 11  1  0
 26 15  1  0
 27  5  2  0
 27 14  1  0
 28  9  1  0
 29 15  1  0
M  RAD  2  12   2  16   2
M  END
>  <ID>  (1) 
conformer_0

$$$$
