
     RDKit          3D

 26 25  0  0  0  0  0  0  0  0999 V2000
  -14.8259   -0.8552  -23.3934 C   0  0  0  0  0  0  0  0  0  0  0  0
  -15.7352    4.6287  -21.2547 C   0  0  1  0  0  0  0  0  0  0  0  0
  -16.7980    3.7938  -21.6160 C   0  0  1  0  0  0  0  0  0  0  0  0
  -13.6464    0.3522  -22.8443 N   0  0  0  0  0  0  0  0  0  0  0  0
  -16.9704    0.3080  -23.9853 N   0  0  0  0  0  0  0  0  0  0  0  0
  -14.8559    1.0695  -22.9924 C   0  0  0  0  0  0  0  0  0  0  0  0
   -8.6829    6.3014  -18.8092 P   0  0  0  0  0  4  0  0  0  0  0  0
  -16.2595   -1.9063  -24.0718 N   0  0  0  0  0  0  0  0  0  0  0  0
  -15.4346    4.2703  -23.3239 O   0  0  0  0  0  0  0  0  0  0  0  0
  -11.7863    3.2077  -20.0539 O   0  0  0  0  0  0  0  0  0  0  0  0
  -13.8093   -2.5159  -23.2985 N   0  0  0  0  0  0  0  0  0  0  0  0
  -14.5649    5.2381  -21.9599 C   0  0  0  0  0  0  0  0  0  0  0  0
  -11.9434    4.1241  -20.7069 P   0  0  0  0  0  0  0  0  0  0  0  0
  -15.4610    1.9045  -22.9206 N   0  0  0  0  0  0  0  0  0  0  0  0
   -7.8019    6.6521  -18.7756 O   0  0  0  0  0  1  0  0  0  0  0  0
  -18.3467    3.7034  -22.1707 O   0  0  0  0  0  0  0  0  0  0  0  0
  -16.3860   -0.7436  -23.9740 C   0  0  0  0  0  0  0  0  0  0  0  0
  -10.3292    5.8298  -19.9638 N   0  0  0  0  0  0  0  0  0  0  0  0
  -16.7808    5.1393  -20.3009 O   0  0  0  0  0  0  0  0  0  0  0  0
   -9.0926    5.3062  -17.9620 O   0  0  0  0  0  0  0  0  0  0  0  0
   -8.8808    6.4927  -21.3220 O   0  0  0  0  0  0  0  0  0  0  0  0
   -8.5197    4.3180  -21.2191 O   0  0  0  0  0  0  0  0  0  0  0  0
  -10.7935    4.5261  -21.9922 O   0  0  0  0  0  0  0  0  0  0  0  0
  -13.0284    4.2346  -21.6141 O   0  0  0  0  0  0  0  0  0  0  0  0
   -9.5533    5.3744  -21.0198 P   0  0  0  0  0  0  0  0  0  0  0  0
  -16.5464    3.2065  -22.7805 C   0  0  1  0  0  0  0  0  0  0  0  0
  3  2  1  0
  4  1  1  0
  6  4  2  3
 11  1  2  3
 12  2  1  0
 13 10  1  0
 14  6  1  0
 15  7  1  0
  3 16  1  6
 17  1  1  0
 17  5  2  3
 17  8  1  0
 18  7  1  0
  2 19  1  6
 20  7  1  0
 21  7  1  0
 23 13  1  0
 24 12  1  0
 24 13  1  0
 25 18  1  0
 25 22  1  0
 25 23  1  0
 26  3  1  0
 26  9  1  6
 26 14  1  0
M  RAD  2   7   2  15   2
M  END
>  <ID>  (1) 
conformer_0

$$$$
