
     RDKit          3D

 29 30  0  0  0  0  0  0  0  0999 V2000
  -16.6827   -1.1095  -24.0565 C   0  0  0  0  0  0  0  0  0  0  0  0
  -16.4344    3.8087  -21.7805 C   0  0  1  0  0  0  0  0  0  0  0  0
  -15.4992    4.6571  -21.5969 C   0  0  2  0  0  0  0  0  0  0  0  0
  -13.5793    0.4372  -22.8038 N   0  0  0  0  0  0  0  0  0  0  0  0
  -14.4330    1.1386  -22.8807 C   0  0  0  0  0  0  0  0  0  0  0  0
  -17.0461    0.1910  -24.0707 N   0  0  0  0  0  0  0  0  0  0  0  0
   -8.7837    5.9370  -18.3083 P   0  0  0  0  0  4  0  0  0  0  0  0
   -8.3262    4.4368  -21.4926 O   0  0  0  0  0  0  0  0  0  0  0  0
  -15.3358    4.0121  -23.6513 O   0  0  0  0  0  0  0  0  0  0  0  0
  -14.0291   -2.6444  -23.2632 N   0  0  0  0  0  0  0  0  0  0  0  0
  -14.0576    5.2260  -22.1522 C   0  0  0  0  0  0  0  0  0  0  0  0
   -8.8513    4.1238  -18.7647 O   0  0  0  0  0  0  0  0  0  0  0  0
  -15.6126    1.7496  -23.1534 N   0  0  0  0  0  0  0  0  0  0  0  0
  -14.5596   -1.2252  -23.2548 C   0  0  0  0  0  0  0  0  0  0  0  0
  -11.6485    3.2746  -20.3874 O   0  0  0  0  0  1  0  0  0  0  0  0
  -16.4530    4.9007  -20.3525 O   0  0  0  0  0  0  0  0  0  0  0  0
   -7.4888    6.0859  -18.3826 O   0  0  0  0  0  1  0  0  0  0  0  0
  -11.6350    4.3796  -21.0351 P   0  0  2  0  0  4  0  0  0  0  0  0
  -18.1704    3.9534  -22.3423 O   0  0  0  0  0  0  0  0  0  0  0  0
  -10.6445    4.9085  -21.9167 O   0  0  0  0  0  0  0  0  0  0  0  0
  -16.2797   -1.9212  -23.9164 N   0  0  0  0  0  0  0  0  0  0  0  0
   -9.0407    6.4841  -21.7061 O   0  0  0  0  0  0  0  0  0  0  0  0
   -9.6159    6.5959  -19.7098 N   0  0  0  0  0  0  0  0  0  0  0  0
  -16.4693    3.1439  -23.1223 C   0  0  1  0  0  0  0  0  0  0  0  0
   -9.1050    5.6863  -17.2702 O   0  0  0  0  0  0  0  0  0  0  0  0
  -15.6309    0.2822  -23.4304 C   0  0  2  0  0  0  0  0  0  0  0  0
  -11.0505    5.8456  -18.7305 O   0  0  0  0  0  0  0  0  0  0  0  0
   -9.1422    5.3951  -20.9020 P   0  0  0  0  0  5  0  0  0  0  0  0
  -12.7087    4.6300  -21.7281 O   0  0  0  0  0  0  0  0  0  0  0  0
  3  2  1  0
  5  4  2  3
  6  1  2  0
 11  3  1  0
 12  7  1  0
 13  5  1  0
 14 10  1  0
  3 16  1  1
 17  7  1  0
 18 15  1  1
  2 19  1  6
 20 18  1  0
 21  1  1  0
 21 14  2  3
 22 18  1  0
 24  2  1  0
 24  9  1  6
 24 13  1  0
 25  7  1  0
 26  1  1  0
 26  5  1  0
 26  6  1  0
 26 13  1  1
 27 23  1  0
 28  7  1  0
 28  8  1  0
 28 22  1  0
 28 23  1  0
 29 11  1  0
 29 18  1  0
M  RAD  4   7   2  15   2  17   2  18   2
M  END
>  <ID>  (1) 
conformer_0

$$$$
