
     RDKit          3D

 29 30  0  0  0  0  0  0  0  0999 V2000
  -14.2492    5.0744  -22.4108 C   0  0  0  0  0  0  0  0  0  0  0  0
  -15.8115    0.2882  -23.4307 C   0  0  1  0  0  0  0  0  0  0  0  0
  -15.3427    4.8159  -21.6577 C   0  0  0  0  0  0  0  0  0  0  0  0
  -17.2520    0.2572  -24.1218 N   0  0  0  0  0  2  0  0  0  0  0  0
  -14.5851    1.1337  -22.9149 C   0  0  0  0  0  0  0  0  0  0  0  0
  -13.8869    0.2246  -22.9100 N   0  0  0  0  0  0  0  0  0  0  0  0
  -15.4140    3.9960  -23.7796 O   0  0  0  0  0  0  0  0  0  0  0  0
  -11.8394    4.0756  -20.6137 P   0  0  0  0  0  0  0  0  0  0  0  0
  -14.5063   -2.6267  -23.2895 N   0  0  0  0  0  0  0  0  0  0  0  0
   -8.0901    7.0463  -18.5843 O   0  0  0  0  0  1  0  0  0  0  0  0
  -16.5601    3.9952  -21.8160 C   0  0  0  0  0  0  0  0  0  0  0  0
   -9.0627    5.5894  -17.8529 O   0  0  0  0  0  0  0  0  0  0  0  0
  -15.5647    1.8908  -23.2034 N   0  0  0  0  0  0  0  0  0  0  0  0
  -16.6981   -1.8684  -24.0085 N   0  0  0  0  0  0  0  0  0  0  0  0
  -16.7228    4.7622  -20.3586 O   0  0  0  0  0  0  0  0  0  0  0  0
  -10.6042    4.3823  -21.3681 O   0  0  0  0  0  0  0  0  0  0  0  0
   -9.4951    5.8889  -22.6945 O   0  0  0  0  0  0  0  0  0  0  0  0
   -8.8408    5.9211  -18.8185 P   0  0  0  0  0  4  0  0  0  0  0  0
   -8.2248    4.1644  -21.9412 O   0  0  0  0  0  0  0  0  0  0  0  0
  -15.2198   -1.3349  -23.4359 C   0  0  1  0  0  0  0  0  0  0  0  0
   -9.9512    6.3471  -19.9542 N   0  0  0  0  0  0  0  0  0  0  0  0
  -12.0280    5.7240  -19.6455 O   0  0  0  0  0  0  0  0  0  0  0  0
  -18.1110    4.0720  -22.0555 O   0  0  0  0  0  0  0  0  0  0  0  0
  -11.9145    3.1339  -19.9247 O   0  0  0  0  0  0  0  0  0  0  0  0
  -12.8034    4.3748  -21.6401 O   0  0  0  0  0  0  0  0  0  0  0  0
   -9.4910    5.2337  -21.4042 P   0  0  0  0  0  5  0  0  0  0  0  0
  -16.3231    3.1739  -23.1644 C   0  0  2  0  0  0  0  0  0  0  0  0
   -8.9936    3.7567  -18.6756 O   0  0  0  0  0  0  0  0  0  0  0  0
  -17.2328   -0.9666  -24.1914 C   0  0  0  0  0  0  0  0  0  0  0  0
  3  1  1  0
  2  4  1  6
  5  2  1  0
  6  5  2  3
 11  3  1  0
 13  2  1  0
 13  5  1  0
 15 11  1  0
 18 10  1  0
 18 12  1  0
 20  2  1  0
 20  9  1  1
 20 14  1  0
 21 18  1  0
 22  8  1  0
 23 11  1  0
 24  8  1  0
 25  1  1  0
 25  8  1  0
 26 16  1  0
 26 17  1  0
 26 19  1  0
 26 21  1  0
 26 24  1  0
 27  7  1  6
 27 11  1  0
 27 13  1  0
 28 18  1  0
 29  4  1  0
 29 14  2  0
M  RAD  3   4   2  10   2  18   2
M  END
>  <ID>  (1) 
conformer_0

$$$$
