
     RDKit          3D

 29 29  0  0  0  0  0  0  0  0999 V2000
  -14.3777    5.1651  -22.0104 C   0  0  0  0  0  0  0  0  0  0  0  0
  -17.4108   -1.1333  -24.3382 C   0  0  0  0  0  0  0  0  0  0  0  0
  -15.4664    4.5796  -21.5446 C   0  0  1  0  0  0  0  0  0  0  0  0
  -15.8831   -0.2602  -23.5219 C   0  0  0  0  0  0  0  0  0  0  0  0
  -17.2936    0.1971  -24.0622 N   0  0  0  0  0  0  0  0  0  0  0  0
  -14.2304   -0.0545  -22.9767 N   0  0  0  0  0  0  0  0  0  0  0  0
   -8.9686    6.0356  -18.8774 P   0  0  0  0  0  5  0  0  0  0  0  0
   -8.5360    4.3779  -21.7631 O   0  0  0  0  0  0  0  0  0  0  0  0
  -15.3532    3.9330  -23.6153 O   0  0  0  0  0  0  0  0  0  0  0  0
  -14.2989   -2.5931  -23.4273 N   0  0  0  0  0  0  0  0  0  0  0  0
  -12.1889    4.5319  -20.6518 P   0  0  2  0  0  4  0  0  0  0  0  0
  -15.7601    1.6401  -23.1680 N   0  0  0  0  0  0  0  0  0  0  0  0
  -16.6393   -2.2031  -24.1531 N   0  0  0  0  0  0  0  0  0  0  0  0
  -15.2537   -1.6307  -23.5934 C   0  0  0  0  0  0  0  0  0  0  0  0
  -11.1025    4.5532  -21.7099 O   0  0  0  0  0  0  0  0  0  0  0  0
   -9.4844    5.6073  -17.8372 O   0  0  0  0  0  0  0  0  0  0  0  0
  -16.7323    4.6955  -20.4487 O   0  0  0  0  0  0  0  0  0  0  0  0
  -16.4219    3.6575  -21.8275 C   0  0  2  0  0  0  0  0  0  0  0  0
   -7.5880    5.9551  -18.9973 O   0  0  0  0  0  0  0  0  0  0  0  0
  -10.0329    6.4087  -19.9557 N   0  0  0  0  0  0  0  0  0  0  0  0
  -12.4756    5.5531  -19.0371 O   0  0  0  0  0  0  0  0  0  0  0  0
   -8.6490    6.5649  -21.6581 O   0  0  0  0  0  0  0  0  0  0  0  0
  -12.1630    3.2403  -20.0807 O   0  0  0  0  0  1  0  0  0  0  0  0
   -9.5404    5.2828  -21.3140 P   0  0  0  0  0  0  0  0  0  0  0  0
   -9.1428    4.0634  -19.4509 O   0  0  0  0  0  0  0  0  0  0  0  0
  -14.9454    1.0266  -23.0360 C   0  0  0  0  0  0  0  0  0  0  0  0
  -16.3551    2.9694  -23.0959 C   0  0  1  0  0  0  0  0  0  0  0  0
  -17.9098    3.9885  -21.9391 O   0  0  0  0  0  0  0  0  0  0  0  0
  -13.0717    4.8223  -21.4264 O   0  0  0  0  0  0  0  0  0  0  0  0
  3  1  1  0
  5  2  2  0
  5  4  1  0
 13  2  1  0
 14  4  2  0
 14 10  1  0
 14 13  1  0
 15 11  1  0
 16  7  1  0
  3 17  1  6
 18  3  1  0
 19  7  1  0
 20  7  1  0
 11 21  1  1
 22  7  1  0
 23 11  1  0
 24  8  1  0
 24 15  1  0
 24 22  1  0
 25  7  1  0
 26  4  1  0
 26  6  2  3
 26 12  1  0
 27  9  1  6
 27 12  1  0
 27 18  1  0
 18 28  1  6
 29  1  1  0
 29 11  1  0
M  RAD  2  11   2  23   2
M  END
>  <ID>  (1) 
conformer_0

$$$$
