
     RDKit          3D

 28 29  0  0  0  0  0  0  0  0999 V2000
  -16.7425    3.8738  -21.7894 C   0  0  0  0  0  0  0  0  0  0  0  0
  -15.6570   -0.0101  -23.4311 C   0  0  0  0  0  0  0  0  0  0  0  0
  -15.6185    4.7647  -21.5236 C   0  0  0  0  0  0  0  0  0  0  0  0
  -14.8973    1.2033  -22.8274 C   0  0  0  0  0  0  0  0  0  0  0  0
  -17.1451    0.0405  -24.0669 N   0  0  0  0  0  2  0  0  0  0  0  0
  -14.0114    0.2550  -22.8072 N   0  0  0  0  0  0  0  0  0  0  0  0
  -13.9772   -2.5404  -23.1395 N   0  0  0  0  0  0  0  0  0  0  0  0
   -9.3101    6.2104  -19.9281 N   0  0  0  0  0  0  0  0  0  0  0  0
   -8.1953    4.6220  -21.5255 O   0  0  0  0  0  0  0  0  0  0  0  0
  -14.2555    5.2290  -22.0058 C   0  0  0  0  0  0  0  0  0  0  0  0
  -15.4628    3.9676  -23.3092 O   0  0  0  0  0  0  0  0  0  0  0  0
  -15.8736    1.7527  -22.9998 N   0  0  0  0  0  0  0  0  0  0  0  0
   -8.5694    5.5959  -18.9494 P   0  0  0  0  0  4  0  0  0  0  0  0
   -7.6420    5.9057  -18.1304 O   0  0  0  0  0  1  0  0  0  0  0  0
  -16.9413    5.0985  -20.4476 O   0  0  0  0  0  0  0  0  0  0  0  0
  -16.2469   -2.1320  -24.0270 N   0  0  0  0  0  0  0  0  0  0  0  0
  -14.9218   -1.4120  -23.3595 C   0  0  0  0  0  0  0  0  0  0  0  0
  -12.0747    3.1251  -20.2330 O   0  0  0  0  0  0  0  0  0  0  0  0
  -11.9675    4.5332  -20.4961 P   0  0  0  0  0  0  0  0  0  0  0  0
   -9.3350    6.1134  -22.7694 O   0  0  0  0  0  0  0  0  0  0  0  0
  -12.2549    5.6934  -19.4590 O   0  0  0  0  0  0  0  0  0  0  0  0
   -8.9487    4.0145  -18.8361 O   0  0  0  0  0  0  0  0  0  0  0  0
  -18.3294    3.8255  -21.9279 O   0  0  0  0  0  0  0  0  0  0  0  0
   -9.3309    5.3934  -21.5374 P   0  0  0  0  0  5  0  0  0  0  0  0
  -16.8163    2.9740  -22.8671 C   0  0  0  0  0  0  0  0  0  0  0  0
  -10.7920    4.7111  -21.6696 O   0  0  0  0  0  0  0  0  0  0  0  0
  -13.0367    4.5812  -21.4308 O   0  0  0  0  0  0  0  0  0  0  0  0
  -17.0072   -1.1866  -24.2054 C   0  0  0  0  0  0  0  0  0  0  0  0
  3  1  1  0
  4  2  1  0
  5  2  1  0
  6  2  1  0
  6  4  2  0
 10  3  1  0
 12  4  1  0
 13  8  1  0
 14 13  1  0
 15  3  1  0
 17  2  1  0
 17  7  1  0
 17 16  1  0
 19 18  1  0
 21 19  1  0
 22 13  1  0
 23  1  1  0
 24  8  1  0
 24  9  1  0
 24 18  1  0
 24 20  1  0
 25  1  1  0
 25 11  1  0
 25 12  1  0
 26 24  1  0
 27 10  1  0
 27 19  1  0
 28  5  1  0
 28 16  2  0
M  RAD  3   5   2  13   2  14   2
M  END
>  <ID>  (1) 
conformer_0

$$$$
