
     RDKit          3D

 26 28  0  0  0  0  0  0  0  0999 V2000
  -15.4416   -0.1047  -23.4391 C   0  0  0  0  0  0  0  0  0  0  0  0
  -16.4638    3.2098  -22.5258 C   0  0  0  0  0  0  0  0  0  0  0  0
  -16.2144    4.0612  -21.6830 C   0  0  0  0  0  0  0  0  0  0  0  0
  -13.7599   -0.1133  -22.9549 N   0  0  0  0  0  0  0  0  0  0  0  0
  -14.4326    0.9960  -22.8591 C   0  0  0  0  0  0  0  0  0  0  0  0
  -16.9434    0.2812  -24.0535 N   0  0  0  0  0  2  0  0  0  0  0  0
   -8.5951    5.8280  -18.4704 P   0  0  0  0  0  4  0  0  0  0  0  0
  -14.1146   -2.7839  -23.5534 N   0  0  0  0  0  0  0  0  0  0  0  0
  -15.3830    3.8990  -23.5636 O   0  0  0  0  0  0  0  0  0  0  0  0
  -15.3567    1.6379  -22.8717 N   0  0  0  0  0  0  0  0  0  0  0  0
   -8.3425    4.5434  -21.4391 O   0  0  0  0  0  0  0  0  0  0  0  0
   -9.5813    6.0362  -19.9376 N   0  0  0  0  0  0  0  0  0  0  0  0
  -14.7311    4.9935  -22.1122 C   0  0  0  0  0  0  0  0  0  0  0  0
  -11.9760    4.4057  -20.6508 P   0  0  0  0  0  4  0  0  0  0  0  0
   -7.3594    6.0466  -18.6030 O   0  0  0  0  0  1  0  0  0  0  0  0
   -9.0472    5.3268  -17.6569 O   0  0  0  0  0  0  0  0  0  0  0  0
  -11.3447    3.1139  -20.1972 O   0  0  0  0  0  1  0  0  0  0  0  0
  -14.8513   -1.5392  -23.5918 C   0  0  0  0  0  0  0  0  0  0  0  0
  -12.5003    5.5058  -19.3905 O   0  0  0  0  0  0  0  0  0  0  0  0
  -16.4596   -1.9672  -24.2454 N   0  0  0  0  0  0  0  0  0  0  0  0
  -18.2078    3.9369  -22.3066 O   0  0  0  0  0  0  0  0  0  0  0  0
  -10.7949    4.8730  -22.0954 O   0  0  0  0  0  0  0  0  0  0  0  0
  -16.8350    5.3408  -20.8149 O   0  0  0  0  0  0  0  0  0  0  0  0
  -13.0352    4.2761  -21.3662 O   0  0  0  0  0  0  0  0  0  0  0  0
   -9.2518    5.4978  -20.9538 P   0  0  0  0  0  0  0  0  0  0  0  0
  -17.0025   -1.0556  -24.2929 C   0  0  0  0  0  0  0  0  0  0  0  0
  3  2  1  0
  4  1  1  0
  5  1  1  0
  5  4  1  0
  6  1  1  0
  9  2  1  0
 10  2  1  0
 10  5  1  0
 12  7  1  0
 13  3  1  0
 15  7  1  0
 16  7  1  0
 17 14  1  0
 18  1  1  0
 18  4  1  0
 18  8  1  0
 19 14  1  0
 20 18  1  0
 21  2  1  0
 22 14  1  0
 23  3  1  0
 24 13  1  0
 24 14  1  0
 25 11  1  0
 25 12  1  0
 25 22  1  0
 26  6  1  0
 26 20  2  0
M  RAD  5   6   2   7   2  14   2  15   2  17   2
M  END
>  <ID>  (1) 
conformer_0

$$$$
