
     RDKit          3D

 27 29  0  0  0  0  0  0  0  0999 V2000
  -16.4607    3.2257  -22.8564 C   0  0  0  0  0  0  0  0  0  0  0  0
  -15.6565   -0.0611  -23.4559 C   0  0  0  0  0  0  0  0  0  0  0  0
  -16.7314    3.7431  -21.8694 C   0  0  0  0  0  0  0  0  0  0  0  0
  -17.1557    0.2303  -24.0548 N   0  0  0  0  0  2  0  0  0  0  0  0
  -14.7439    1.1974  -22.8666 C   0  0  0  0  0  0  0  0  0  0  0  0
  -13.9923    0.0879  -22.9397 N   0  0  0  0  0  0  0  0  0  0  0  0
   -8.7039    5.8385  -18.5401 P   0  0  0  0  0  4  0  0  0  0  0  0
  -15.1726    4.1781  -23.3436 O   0  0  0  0  0  0  0  0  0  0  0  0
  -15.5698    1.7630  -22.9257 N   0  0  0  0  0  0  0  0  0  0  0  0
   -9.5539    6.1018  -19.7509 N   0  0  0  0  0  0  0  0  0  0  0  0
  -16.5046   -2.1206  -24.2061 N   0  0  0  0  0  0  0  0  0  0  0  0
  -14.1456   -2.6747  -23.3846 N   0  0  0  0  0  0  0  0  0  0  0  0
  -15.4434    4.7123  -21.6882 C   0  0  0  0  0  0  0  0  0  0  0  0
   -8.4101    4.5491  -21.5268 O   0  0  0  0  0  0  0  0  0  0  0  0
   -9.1926    5.1823  -17.6847 O   0  0  0  0  0  0  0  0  0  0  0  0
  -12.0083    4.4107  -20.6360 P   0  0  0  0  0  5  0  0  0  0  0  0
  -12.0259    3.2572  -20.3325 O   0  0  0  0  0  0  0  0  0  0  0  0
   -7.4421    5.9121  -18.3778 O   0  0  0  0  0  1  0  0  0  0  0  0
  -15.0625   -1.4232  -23.5286 C   0  0  0  0  0  0  0  0  0  0  0  0
  -18.2167    3.7764  -22.8205 O   0  0  0  0  0  0  0  0  0  0  0  0
   -9.6455    5.6738  -22.7381 O   0  0  0  0  0  1  0  0  0  0  0  0
  -17.0425    4.7868  -20.6844 O   0  0  0  0  0  0  0  0  0  0  0  0
  -12.6154    5.1011  -19.1434 O   0  0  0  0  0  0  0  0  0  0  0  0
   -9.2714    5.4025  -21.5038 P   0  0  0  0  0  4  0  0  0  0  0  0
  -11.9443    4.8126  -21.5984 O   0  0  0  0  0  0  0  0  0  0  0  0
  -14.1401    5.3131  -22.0386 C   0  0  0  0  0  0  0  0  0  0  0  0
  -17.2064   -1.0283  -24.3137 C   0  0  0  0  0  0  0  0  0  0  0  0
  3  1  1  0
  4  2  1  0
  5  2  1  0
  6  2  1  0
  6  5  2  0
  8  1  1  0
  9  1  1  0
  9  5  1  0
 10  7  1  0
 13  3  1  0
 13  8  1  0
 15  7  1  0
 18  7  1  0
 19  2  1  0
 19 11  1  0
 19 12  1  0
 20  3  1  0
 22  3  1  0
 23 16  1  0
 24 10  1  0
 24 14  1  0
 24 16  1  0
 24 21  1  0
 25 16  1  0
 25 17  1  0
 26 13  1  0
 26 16  1  0
 27  4  1  0
 27 11  2  0
M  RAD  5   4   2   7   2  18   2  21   2  24   2
M  END
>  <ID>  (1) 
conformer_0

$$$$
