
     RDKit          3D

 29 29  0  0  0  0  0  0  0  0999 V2000
  -16.3525    3.8435  -21.3778 C   0  0  1  0  0  0  0  0  0  0  0  0
  -16.0373    0.0483  -23.5318 C   0  0  0  0  0  0  0  0  0  0  0  0
  -15.4332    4.8102  -21.5373 C   0  0  2  0  0  0  0  0  0  0  0  0
  -15.0046    1.0437  -23.0100 C   0  0  0  0  0  0  0  0  0  0  0  0
  -17.4714    0.3794  -24.0045 N   0  0  0  0  0  0  0  0  0  0  0  0
  -14.1942   -0.0496  -23.0366 N   0  0  0  0  0  0  0  0  0  0  0  0
   -8.6942    5.9518  -18.7988 P   0  0  0  0  0  4  0  0  0  0  0  0
  -15.5705    4.0639  -23.2995 O   0  0  0  0  0  0  0  0  0  0  0  0
   -8.3473    4.3737  -21.5481 O   0  0  0  0  0  0  0  0  0  0  0  0
  -14.5715   -2.6951  -23.4833 N   0  0  0  0  0  0  0  0  0  0  0  0
  -15.8986    1.7334  -22.9483 N   0  0  0  0  0  0  0  0  0  0  0  0
   -7.4686    5.7878  -18.3598 O   0  0  0  0  0  1  0  0  0  0  0  0
  -14.2663    5.2571  -22.1306 C   0  0  0  0  0  0  0  0  0  0  0  0
  -16.8457   -1.8991  -24.2540 N   0  0  0  0  0  0  0  0  0  0  0  0
  -12.0535    2.9951  -20.2075 O   0  0  0  0  0  0  0  0  0  0  0  0
  -15.4272   -1.4546  -23.6605 C   0  0  1  0  0  0  0  0  0  0  0  0
  -11.7954    4.2417  -20.7219 P   0  0  0  0  0  0  0  0  0  0  0  0
  -16.0274    5.4546  -20.1602 O   0  0  0  0  0  0  0  0  0  0  0  0
  -12.8777    4.4386  -21.7240 O   0  0  0  0  0  0  0  0  0  0  0  0
   -9.5918    6.3533  -18.2052 O   0  0  0  0  0  0  0  0  0  0  0  0
   -9.2823    4.0120  -19.1430 O   0  0  0  0  0  0  0  0  0  0  0  0
   -8.8491    6.3274  -20.2789 N   0  0  0  0  0  0  0  0  0  0  0  0
  -12.3359    5.4303  -19.4899 O   0  0  0  0  0  0  0  0  0  0  0  0
   -9.4661    6.0280  -22.6817 O   0  0  0  0  0  0  0  0  0  0  0  0
  -17.7745    3.9914  -20.8032 O   0  0  0  0  0  0  0  0  0  0  0  0
   -9.3801    5.4017  -21.3534 P   0  0  0  0  0  5  0  0  0  0  0  0
  -17.5842   -0.7850  -24.2853 C   0  0  0  0  0  0  0  0  0  0  0  0
  -16.4932    3.1407  -22.5388 C   0  0  1  0  0  0  0  0  0  0  0  0
  -10.8307    4.6750  -21.4982 O   0  0  0  0  0  0  0  0  0  0  0  0
  3  1  1  0
  4  2  1  0
  5  2  2  0
  6  4  2  3
 11  4  1  0
 12  7  1  0
 13  3  1  0
 16  2  1  0
 16 10  1  1
 16 14  1  0
  3 18  1  1
 19 13  1  0
 19 17  1  0
 20  7  1  0
 21  7  1  0
 22  7  1  0
 23 17  1  0
  1 25  1  6
 26  9  1  0
 26 15  1  0
 26 22  1  0
 26 24  1  0
 27  5  1  0
 27 14  2  0
 28  1  1  0
 28  8  1  6
 28 11  1  0
 29 17  1  0
 29 26  1  0
M  RAD  2   7   2  12   2
M  END
>  <ID>  (1) 
conformer_0

$$$$
