
     RDKit          3D

 28 29  0  0  0  0  0  0  0  0999 V2000
  -16.4141    3.9991  -21.7236 C   0  0  0  0  0  0  0  0  0  0  0  0
  -17.1682   -0.8831  -24.1422 C   0  0  0  0  0  0  0  0  0  0  0  0
  -15.2177    4.7292  -21.5325 C   0  0  0  0  0  0  0  0  0  0  0  0
  -17.2974    0.3151  -24.0443 N   0  0  0  0  0  0  0  0  0  0  0  0
  -14.5266    1.1776  -22.8307 C   0  0  0  0  0  0  0  0  0  0  0  0
  -13.9422    0.1711  -22.8881 N   0  0  0  0  0  0  0  0  0  0  0  0
   -8.0516    4.3313  -21.9656 O   0  0  0  0  0  0  0  0  0  0  0  0
  -15.2812    4.0197  -23.4258 O   0  0  0  0  0  0  0  0  0  0  0  0
  -11.5832    4.1540  -20.8641 P   0  0  0  0  0  0  0  0  0  0  0  0
  -15.6490    1.8564  -23.0057 N   0  0  0  0  0  0  0  0  0  0  0  0
  -14.5025   -2.6191  -23.2821 N   0  0  0  0  0  0  0  0  0  0  0  0
   -8.8995    5.6771  -18.8778 P   0  0  2  0  0  4  0  0  0  0  0  0
  -13.9651    5.0480  -22.0781 C   0  0  0  0  0  0  0  0  0  0  0  0
  -11.5013    2.8862  -20.3622 O   0  0  0  0  0  0  0  0  0  0  0  0
  -16.5051    5.1335  -20.3816 O   0  0  0  0  0  0  0  0  0  0  0  0
   -9.2068    5.1877  -18.0926 O   0  0  0  0  0  0  0  0  0  0  0  0
   -9.3734    5.9559  -23.0684 O   0  0  0  0  0  0  0  0  0  0  0  0
  -15.7497    0.3670  -23.2809 C   0  0  1  0  0  0  0  0  0  0  0  0
   -9.4778    5.8900  -20.1375 N   0  0  0  0  0  0  0  0  0  0  0  0
  -18.0345    4.0791  -22.2093 O   0  0  0  0  0  0  0  0  0  0  0  0
  -16.7033   -1.7145  -23.9442 N   0  0  0  0  0  0  0  0  0  0  0  0
   -7.6348    5.8735  -18.8098 O   0  0  0  0  0  1  0  0  0  0  0  0
  -12.6844    4.3939  -21.7431 O   0  0  0  0  0  0  0  0  0  0  0  0
  -11.9446    5.0684  -19.4597 O   0  0  0  0  0  0  0  0  0  0  0  0
  -16.4302    3.2031  -22.9130 C   0  0  1  0  0  0  0  0  0  0  0  0
  -15.2132   -1.2522  -23.3824 C   0  0  0  0  0  3  0  0  0  0  0  0
   -9.2748    5.2186  -21.9253 P   0  0  0  0  0  5  0  0  0  0  0  0
  -10.5780    4.5525  -22.1200 O   0  0  0  0  0  0  0  0  0  0  0  0
  3  1  1  0
  4  2  2  0
  6  5  2  3
 10  5  1  0
 13  3  1  0
 14  9  1  0
 15  1  1  0
 12 16  1  6
 18  4  1  0
 18  5  1  0
 18 10  1  0
 19 12  1  0
 20  1  1  0
 21  2  1  0
 22 12  1  0
 23  9  1  0
 23 13  1  0
 24  9  1  0
 25  1  1  0
 25  8  1  6
 25 10  1  0
 26 11  1  0
 18 26  1  1
 26 21  1  0
 27  7  1  0
 27 14  1  0
 27 17  1  0
 27 19  1  0
 28 27  1  0
M  RAD  3  12   2  22   2  26   2
M  END
>  <ID>  (1) 
conformer_0

$$$$
