
     RDKit          3D

 28 28  0  0  0  0  0  0  0  0999 V2000
  -16.6181    3.8463  -22.1245 C   0  0  1  0  0  0  0  0  0  0  0  0
  -15.5476    0.1188  -23.3790 C   0  0  0  0  0  0  0  0  0  0  0  0
  -15.6325    4.7920  -21.6539 C   0  0  0  0  0  0  0  0  0  0  0  0
  -17.0227    0.2761  -24.1031 N   0  0  0  0  0  0  0  0  0  0  0  0
  -14.4283    1.1446  -22.8176 C   0  0  0  0  0  0  0  0  0  0  0  0
  -13.6605    0.2079  -22.8338 N   0  0  0  0  0  0  0  0  0  0  0  0
   -8.2307    4.2639  -21.6167 O   0  0  0  0  0  0  0  0  0  0  0  0
  -15.4781    4.0487  -23.7366 O   0  0  0  0  0  0  0  0  0  0  0  0
   -8.6367    5.6820  -18.4843 P   0  0  0  0  0  4  0  0  0  0  0  0
  -14.1008   -2.5906  -23.2789 N   0  0  0  0  0  0  0  0  0  0  0  0
  -14.4212    5.0569  -22.2127 C   0  0  0  0  0  0  0  0  0  0  0  0
  -15.5026    1.7385  -23.0211 N   0  0  0  0  0  0  0  0  0  0  0  0
  -10.7280    4.6817  -21.7320 O   0  0  0  0  0  0  0  0  0  0  0  0
  -16.4261   -1.8783  -24.0764 N   0  0  0  0  0  0  0  0  0  0  0  0
   -8.9244    6.4411  -21.9636 O   0  0  0  0  0  0  0  0  0  0  0  0
  -11.8604    4.1098  -20.7795 P   0  0  2  0  0  4  0  0  0  0  0  0
  -14.8357   -1.3496  -23.4017 C   0  0  1  0  0  0  0  0  0  0  0  0
  -16.4648    5.2640  -20.4112 O   0  0  0  0  0  0  0  0  0  0  0  0
   -9.5069    6.3311  -18.2039 O   0  0  0  0  0  0  0  0  0  0  0  0
   -7.6073    5.5079  -18.1415 O   0  0  0  0  0  1  0  0  0  0  0  0
  -12.3444    4.9525  -19.5411 O   0  0  0  0  0  0  0  0  0  0  0  0
  -18.1561    4.2994  -22.2794 O   0  0  0  0  0  0  0  0  0  0  0  0
   -9.1588    3.8614  -18.7129 O   0  0  0  0  0  0  0  0  0  0  0  0
   -9.2419    5.4121  -21.2015 P   0  0  0  0  0  0  0  0  0  0  0  0
  -11.7464    2.9227  -20.2566 O   0  0  0  0  0  1  0  0  0  0  0  0
  -12.8718    4.1981  -21.8508 O   0  0  0  0  0  0  0  0  0  0  0  0
  -16.4620    3.0240  -23.1454 C   0  0  1  0  0  0  0  0  0  0  0  0
  -16.8703   -1.1247  -24.1854 C   0  0  0  0  0  0  0  0  0  0  0  0
  3  1  1  0
  4  2  2  0
  5  2  1  0
  6  5  2  3
 11  3  1  0
 12  5  1  0
 15  9  1  0
 16 13  1  0
 17  2  1  0
 17 10  1  1
 17 14  1  0
 18  3  1  0
 19  9  1  0
 20  9  1  0
 16 21  1  1
  1 22  1  6
 23  9  1  0
 24  7  1  0
 24 13  1  0
 24 15  1  0
 25 16  1  0
 26 11  1  0
 26 16  1  0
 27  1  1  0
 27  8  1  6
 27 12  1  0
 28  4  1  0
 28 14  2  0
M  RAD  4   9   2  16   2  20   2  25   2
M  END
>  <ID>  (1) 
conformer_0

$$$$
