
     RDKit          3D

 31 32  0  0  0  0  0  0  0  0999 V2000
  -16.5573    2.8709  -23.2011 C   0  0  2  0  0  0  0  0  0  0  0  0
  -15.0521   -1.2912  -23.5371 C   0  0  0  0  0  0  0  0  0  0  0  0
  -16.8153    3.9904  -22.3475 C   0  0  1  0  0  0  0  0  0  0  0  0
  -16.4942   -2.0081  -24.1459 N   0  0  0  0  0  0  0  0  0  0  0  0
  -14.0634    0.2989  -22.9633 N   0  0  0  0  0  0  0  0  0  0  0  0
  -14.7204    1.2486  -22.9342 C   0  0  0  0  0  0  0  0  0  0  0  0
   -8.3374    4.3844  -21.7886 O   0  0  0  0  0  0  0  0  0  0  0  0
  -15.7186    1.8285  -23.0783 N   0  0  0  0  0  0  0  0  0  0  0  0
  -14.2570   -2.5423  -23.4272 N   0  0  0  0  0  0  0  0  0  0  0  0
  -15.4355    4.2554  -23.4604 O   0  0  0  0  0  0  0  0  0  0  0  0
  -15.1013    5.0326  -21.5321 C   0  0  0  0  0  0  0  0  0  0  0  0
   -8.9160    5.8292  -18.5422 P   0  0  0  0  0  5  0  0  0  0  0  0
   -8.8439    4.8837  -19.4863 N   0  0  0  0  0  0  0  0  0  0  0  0
  -11.3770    3.0319  -20.1293 O   0  0  0  0  0  0  0  0  0  0  0  0
  -11.8821    4.2516  -20.6638 P   0  0  0  0  0  0  0  0  0  0  0  0
  -15.7511    0.1332  -23.5152 C   0  0  0  0  0  0  0  0  0  0  0  0
  -17.2061    0.1123  -24.0539 N   0  0  0  0  0  0  0  0  0  0  0  0
  -18.2330    3.9377  -22.2157 O   0  0  0  0  0  0  0  0  0  0  0  0
   -9.1557    5.3880  -21.4089 P   0  0  0  0  0  5  0  0  0  0  0  0
   -9.1228    6.3152  -22.4640 O   0  0  0  0  0  0  0  0  0  0  0  0
   -9.8412    6.0486  -17.7722 O   0  0  0  0  0  0  0  0  0  0  0  0
  -12.4431    5.3192  -19.3842 O   0  0  0  0  0  0  0  0  0  0  0  0
   -7.8782    6.6142  -18.2689 O   0  0  0  0  0  0  0  0  0  0  0  0
  -13.0467    4.2734  -21.3241 O   0  0  0  0  0  0  0  0  0  0  0  0
  -16.9663    4.9021  -20.5012 O   0  0  0  0  0  0  0  0  0  0  0  0
  -13.9388    5.1781  -22.3133 C   0  0  0  0  0  0  0  0  0  0  0  0
  -17.1585   -1.0374  -24.2785 C   0  0  0  0  0  0  0  0  0  0  0  0
   -8.5785    4.2965  -17.8812 O   0  0  0  0  0  0  0  0  0  0  0  0
  -11.0556    4.8158  -21.8250 O   0  0  0  0  0  0  0  0  0  0  0  0
   -9.2164    6.5769  -20.1786 N   0  0  0  0  0  0  0  0  0  0  0  0
  -16.1428    3.9303  -21.2956 C   0  0  1  0  0  0  0  0  0  0  0  0
  3  1  1  0
  4  2  2  0
  6  5  2  3
  1  8  1  1
  8  6  1  0
  9  2  1  0
 10  1  1  0
 10  3  1  0
 13 12  1  0
 15 14  1  0
 16  2  1  0
 16  6  1  0
 17 16  1  0
  3 18  1  1
 19  7  1  0
 19 14  1  0
 20 19  1  0
 21 12  1  0
 22 15  1  0
 23 12  1  0
 24 15  1  0
 26 11  1  0
 26 24  1  0
 27  4  1  0
 27 17  2  0
 28 12  1  0
 29 19  1  0
 30 12  1  0
 30 19  1  0
 31  3  1  0
 31 11  1  0
 31 25  1  1
M  END
>  <ID>  (1) 
conformer_0

$$$$
