
     RDKit          3D

 27 26  0  0  0  0  0  0  0  0999 V2000
  -16.6687   -0.9636  -24.0036 C   0  0  0  0  0  0  0  0  0  0  0  0
  -16.4994    3.7398  -21.5939 C   0  0  0  0  0  0  0  0  0  0  0  0
  -15.4506    4.6514  -21.6247 C   0  0  0  0  0  0  0  0  0  0  0  0
  -15.2067    0.6035  -23.0988 C   0  0  0  0  0  0  0  0  0  0  0  0
  -17.0400    0.2109  -24.1261 N   0  0  0  0  0  0  0  0  0  0  0  0
  -14.0049   -0.0043  -22.9415 N   0  0  0  0  0  0  0  0  0  0  0  0
   -9.9737    6.5869  -19.6250 N   0  0  0  0  0  0  0  0  0  0  0  0
  -15.4360    3.9432  -23.5789 O   0  0  0  0  0  0  0  0  0  0  0  0
  -14.1732   -2.7262  -23.3305 N   0  0  0  0  0  0  0  0  0  0  0  0
   -8.7073    6.2668  -18.5844 P   0  0  2  0  0  4  0  0  0  0  0  0
  -12.0398    4.1793  -20.7817 P   0  0  1  0  0  4  0  0  0  0  0  0
  -14.2377    5.1017  -22.4203 C   0  0  0  0  0  0  0  0  0  0  0  0
  -15.6429    1.6695  -23.0125 N   0  0  0  0  0  0  0  0  0  0  0  0
   -8.6855    4.3270  -21.0490 O   0  0  0  0  0  0  0  0  0  0  0  0
  -16.5228   -2.1387  -24.1180 N   0  0  0  0  0  0  0  0  0  0  0  0
  -11.8550    3.1689  -20.0747 O   0  0  0  0  0  1  0  0  0  0  0  0
  -15.1814   -1.4100  -23.4415 C   0  0  0  0  0  0  0  0  0  0  0  0
   -9.0335    5.7145  -17.5518 O   0  0  0  0  0  0  0  0  0  0  0  0
   -8.7150    6.4581  -21.7085 O   0  0  0  0  0  0  0  0  0  0  0  0
  -16.9979    4.6638  -20.4514 O   0  0  0  0  0  0  0  0  0  0  0  0
  -12.4777    5.4673  -19.6577 O   0  0  0  0  0  0  0  0  0  0  0  0
   -7.5359    5.9882  -18.8637 O   0  0  0  0  0  1  0  0  0  0  0  0
  -10.9922    4.6810  -21.8884 O   0  0  0  0  0  0  0  0  0  0  0  0
  -18.2165    3.4660  -22.1439 O   0  0  0  0  0  0  0  0  0  0  0  0
  -13.1007    4.1921  -21.4978 O   0  0  0  0  0  0  0  0  0  0  0  0
  -16.3364    3.1062  -22.9427 C   0  0  1  0  0  0  0  0  0  0  0  0
   -9.4755    5.4296  -20.8893 P   0  0  0  0  0  0  0  0  0  0  0  0
  3  2  1  0
  5  1  2  3
  6  4  2  3
 10  7  1  1
 12  3  1  0
 13  4  1  0
 15  1  1  0
 11 16  1  1
 17  1  1  0
 17  6  1  0
 17  9  2  3
 18 10  1  0
 19 10  1  0
 20  2  1  0
 21 11  1  0
 22 10  1  0
 23 11  1  0
 24  2  1  0
 25 11  1  0
 25 12  1  0
 26  2  1  0
 26  8  1  6
 26 13  1  0
 27 14  1  0
 27 19  1  0
 27 23  1  0
M  RAD  4  10   2  11   2  16   2  22   2
M  END
>  <ID>  (1) 
conformer_0

$$$$
