
     RDKit          3D

 28 28  0  0  0  0  0  0  0  0999 V2000
  -17.1289   -1.1353  -24.2349 C   0  0  0  0  0  0  0  0  0  0  0  0
  -14.4186    5.2633  -22.3334 C   0  0  0  0  0  0  0  0  0  0  0  0
  -15.6142    4.5813  -21.5013 C   0  0  0  0  0  0  0  0  0  0  0  0
  -17.1987   -0.0230  -24.1404 N   0  0  0  0  0  0  0  0  0  0  0  0
  -15.6340   -0.0228  -23.5016 C   0  0  0  0  0  0  0  0  0  0  0  0
  -13.9741    0.2228  -22.9692 N   0  0  0  0  0  0  0  0  0  0  0  0
   -8.2646    4.4020  -21.5284 O   0  0  0  0  0  0  0  0  0  0  0  0
  -15.7500    1.6150  -23.1951 N   0  0  0  0  0  0  0  0  0  0  0  0
  -15.7804    4.0221  -23.5557 O   0  0  0  0  0  0  0  0  0  0  0  0
  -11.9271    4.1373  -20.9081 P   0  0  0  0  0  5  0  0  0  0  0  0
  -14.2483   -2.5993  -23.2144 N   0  0  0  0  0  0  0  0  0  0  0  0
  -16.4791    3.6460  -21.3736 C   0  0  0  0  0  0  0  0  0  0  0  0
   -8.7124    5.6555  -18.6633 P   0  0  0  0  0  4  0  0  0  0  0  0
  -11.6915    2.7661  -20.7971 O   0  0  0  0  0  0  0  0  0  0  0  0
  -16.3570    5.0825  -20.0505 O   0  0  0  0  0  0  0  0  0  0  0  0
  -12.5420    4.5087  -19.4284 O   0  0  0  0  0  0  0  0  0  0  0  0
   -9.0962    3.8371  -18.8554 O   0  0  0  0  0  0  0  0  0  0  0  0
   -7.5237    5.6819  -18.2905 O   0  0  0  0  0  1  0  0  0  0  0  0
   -9.2517    6.0512  -22.7398 O   0  0  0  0  0  0  0  0  0  0  0  0
  -14.9885   -1.4848  -23.4393 C   0  0  0  0  0  0  0  0  0  0  0  0
  -16.4193   -2.0860  -24.0903 N   0  0  0  0  0  0  0  0  0  0  0  0
  -13.0928    4.5531  -21.8422 O   0  0  0  0  0  0  0  0  0  0  0  0
   -9.4347    5.3163  -21.4931 P   0  0  0  0  0  0  0  0  0  0  0  0
  -16.4277    2.9366  -23.1229 C   0  0  2  0  0  0  0  0  0  0  0  0
   -9.5712    6.2025  -19.9286 N   0  0  0  0  0  0  0  0  0  0  0  0
   -9.6912    5.8493  -18.0023 O   0  0  0  0  0  0  0  0  0  0  0  0
  -10.8089    4.6949  -21.7657 O   0  0  0  0  0  0  0  0  0  0  0  0
  -14.6532    1.1894  -22.9900 C   0  0  0  0  0  0  0  0  0  0  0  0
  3  2  1  0
  4  1  2  0
  5  4  1  0
 12  3  1  0
 14 10  1  0
 15  3  1  0
 16 10  1  0
 17 13  1  0
 18 13  1  0
 19 10  1  0
 20  5  2  0
 20 11  1  0
 21  1  1  0
 21 20  1  0
 22  2  1  0
 22 10  1  0
 23  7  1  0
 23 19  1  0
 24  8  1  0
 24  9  1  6
 24 12  1  0
 25 13  1  0
 25 23  1  0
 26 13  1  0
 27 10  1  0
 28  5  1  0
 28  6  2  3
 28  8  1  0
M  RAD  2  13   2  18   2
M  END
>  <ID>  (1) 
conformer_0

$$$$
