
     RDKit          3D

 29 30  0  0  0  0  0  0  0  0999 V2000
  -17.1253   -0.9938  -24.1709 C   0  0  0  0  0  0  0  0  0  0  0  0
  -16.2274    3.7225  -21.4953 C   0  0  0  0  0  0  0  0  0  0  0  0
  -15.2429    4.7457  -21.8702 C   0  0  0  0  0  0  0  0  0  0  0  0
  -17.1586    0.2560  -24.0996 N   0  0  0  0  0  0  0  0  0  0  0  0
  -15.7213   -0.0203  -23.4592 C   0  0  1  0  0  0  0  0  0  0  0  0
  -13.7465    0.0390  -22.9652 N   0  0  0  0  0  0  0  0  0  0  0  0
   -8.7038    5.9560  -18.5312 P   0  0  0  0  0  5  0  0  0  0  0  0
  -15.3664    4.0042  -23.6237 O   0  0  0  0  0  0  0  0  0  0  0  0
  -14.1325   -2.6283  -23.3064 N   0  0  0  0  0  0  0  0  0  0  0  0
  -13.8786    5.2377  -22.6518 C   0  0  0  0  0  0  0  0  0  0  0  0
  -15.5815    1.6728  -23.1756 N   0  0  0  0  0  0  0  0  0  0  0  0
   -8.3215    4.7246  -21.3420 O   0  0  0  0  0  0  0  0  0  0  0  0
  -11.9726    4.3052  -20.7813 P   0  0  1  0  0  4  0  0  0  0  0  0
  -15.0020   -1.5273  -23.4595 C   0  0  0  0  0  3  0  0  0  0  0  0
  -16.5388   -2.0229  -24.0785 N   0  0  0  0  0  0  0  0  0  0  0  0
  -11.8488    3.0822  -20.2920 O   0  0  0  0  0  1  0  0  0  0  0  0
   -7.6371    6.2147  -18.4826 O   0  0  0  0  0  0  0  0  0  0  0  0
   -9.3647    5.8267  -17.3273 O   0  0  0  0  0  0  0  0  0  0  0  0
  -17.7680    3.6660  -21.3888 O   0  0  0  0  0  0  0  0  0  0  0  0
  -12.5072    5.4469  -19.5750 O   0  0  0  0  0  0  0  0  0  0  0  0
  -10.6352    4.8395  -22.0591 O   0  0  0  0  0  0  0  0  0  0  0  0
   -9.6470    5.7187  -19.6693 N   0  0  0  0  0  0  0  0  0  0  0  0
   -8.9860    6.6796  -21.4478 O   0  0  0  0  0  0  0  0  0  0  0  0
  -16.1453    3.0563  -22.9835 C   0  0  1  0  0  0  0  0  0  0  0  0
  -12.7709    4.6156  -21.7630 O   0  0  0  0  0  0  0  0  0  0  0  0
   -9.0545    4.2041  -18.8088 O   0  0  0  0  0  0  0  0  0  0  0  0
   -9.5291    5.4163  -21.2050 P   0  0  0  0  0  0  0  0  0  0  0  0
  -16.1963    4.8712  -20.2189 O   0  0  0  0  0  0  0  0  0  0  0  0
  -14.4846    0.9132  -22.9968 C   0  0  0  0  0  0  0  0  0  0  0  0
  3  2  1  0
  4  1  2  0
  5  4  1  0
 10  3  1  0
 11  5  1  0
  5 14  1  6
 14  9  1  0
 15  1  1  0
 15 14  1  0
 13 16  1  1
 17  7  1  0
 18  7  1  0
 19  2  1  0
 20 13  1  0
 21 13  1  0
 22  7  1  0
 23  7  1  0
 24  2  1  0
 24  8  1  6
 24 11  1  0
 25 10  1  0
 25 13  1  0
 26  7  1  0
 27 12  1  0
 27 21  1  0
 27 23  1  0
 28  2  1  0
 29  5  1  0
 29  6  2  3
 29 11  1  0
M  RAD  3  13   2  14   2  16   2
M  END
>  <ID>  (1) 
conformer_0

$$$$
