
     RDKit          3D

 29 30  0  0  0  0  0  0  0  0999 V2000
  -15.8293    0.0967  -23.5303 C   0  0  0  0  0  0  0  0  0  0  0  0
  -16.4342    3.1052  -22.8745 C   0  0  0  0  0  0  0  0  0  0  0  0
  -16.5684    3.8598  -21.7150 C   0  0  0  0  0  0  0  0  0  0  0  0
  -17.2538    0.2635  -24.1434 N   0  0  0  0  0  0  0  0  0  0  0  0
  -14.7176    1.0768  -22.9104 C   0  0  0  0  0  0  0  0  0  0  0  0
  -14.1524    0.0530  -22.9412 N   0  0  0  0  0  0  0  0  0  0  0  0
  -15.6223    1.7619  -23.0031 N   0  0  0  0  0  0  0  0  0  0  0  0
   -8.3813    4.4773  -21.7162 O   0  0  0  0  0  0  0  0  0  0  0  0
  -15.3738    4.0020  -23.3491 O   0  0  0  0  0  0  0  0  0  0  0  0
   -8.7996    5.6807  -18.6953 P   0  0  0  0  0  4  0  0  0  0  0  0
  -14.4555   -2.6523  -23.4568 N   0  0  0  0  0  0  0  0  0  0  0  0
  -15.5138    4.6911  -21.3649 C   0  0  0  0  0  0  0  0  0  0  0  0
  -11.9099    2.9120  -20.2626 O   0  0  0  0  0  0  0  0  0  0  0  0
   -7.5901    5.7740  -18.1155 O   0  0  0  0  0  1  0  0  0  0  0  0
  -11.8832    4.0571  -20.7355 P   0  0  0  0  0  5  0  0  0  0  0  0
   -9.1879    5.5675  -19.7402 N   0  0  0  0  0  0  0  0  0  0  0  0
  -16.7138    5.2037  -20.3549 O   0  0  0  0  0  0  0  0  0  0  0  0
   -9.2324    6.0988  -22.7876 O   0  0  0  0  0  0  0  0  0  0  0  0
   -9.2246    5.4391  -21.5602 P   0  0  0  0  0  0  0  0  0  0  0  0
  -16.7042   -1.9107  -24.2645 N   0  0  0  0  0  0  0  0  0  0  0  0
  -15.1852   -1.4221  -23.5405 C   0  0  0  0  0  0  0  0  0  0  0  0
   -9.6651    5.8550  -17.7118 O   0  0  0  0  0  0  0  0  0  0  0  0
  -18.1419    3.7655  -21.7774 O   0  0  0  0  0  0  0  0  0  0  0  0
   -9.0296    3.6261  -18.6020 O   0  0  0  0  0  0  0  0  0  0  0  0
  -12.0467    5.1483  -19.3130 O   0  0  0  0  0  0  0  0  0  0  0  0
  -10.9616    4.8041  -21.8820 O   0  0  0  0  0  0  0  0  0  0  0  0
  -14.2210    5.2311  -21.8710 C   0  0  0  0  0  0  0  0  0  0  0  0
  -17.2522   -0.9720  -24.3157 C   0  0  0  0  0  0  0  0  0  0  0  0
  -13.0322    4.2302  -21.4576 O   0  0  0  0  0  0  0  0  0  0  0  0
  3  2  1  0
  4  1  2  0
  5  1  1  0
  6  5  2  0
  7  2  1  0
  7  5  1  0
  9  2  1  0
 12  3  1  0
 14 10  1  0
 15 13  1  0
 16 10  1  0
 17 12  1  0
 18 15  1  0
 19  8  1  0
 19 16  1  0
 19 18  1  0
 21  1  1  0
 21  6  1  0
 21 11  1  0
 21 20  1  0
 22 10  1  0
 23  3  1  0
 24 10  1  0
 25 15  1  0
 26 15  1  0
 27 12  1  0
 28  4  1  0
 28 20  2  0
 29 15  1  0
 29 27  1  0
M  RAD  2  10   2  14   2
M  END
>  <ID>  (1) 
conformer_0

$$$$
