
     RDKit          3D

 30 30  0  0  0  0  0  0  0  0999 V2000
  -17.1787   -1.0747  -24.1842 C   0  0  0  0  0  0  0  0  0  0  0  0
  -16.7200    3.0894  -23.0153 C   0  0  1  0  0  0  0  0  0  0  0  0
  -16.6905    3.8834  -21.7246 C   0  0  1  0  0  0  0  0  0  0  0  0
  -17.2679    0.2345  -24.0526 N   0  0  0  0  0  0  0  0  0  0  0  0
  -13.8457    0.2193  -22.9268 N   0  0  0  0  0  0  0  0  0  0  0  0
  -15.7670   -0.0138  -23.4765 C   0  0  0  0  0  0  0  0  0  0  0  0
   -8.7911    5.6310  -18.1661 P   0  0  0  0  0  5  0  0  0  0  0  0
  -13.9682   -2.4849  -23.2531 N   0  0  0  0  0  0  0  0  0  0  0  0
  -15.5518    3.9920  -23.5030 O   0  0  0  0  0  0  0  0  0  0  0  0
  -15.6534    4.6472  -21.5512 C   0  0  2  0  0  0  0  0  0  0  0  0
   -8.2247    4.3150  -22.1292 O   0  0  0  0  0  0  0  0  0  0  0  0
  -16.4925   -1.9711  -24.1028 N   0  0  0  0  0  0  0  0  0  0  0  0
   -9.3070    5.4243  -21.4931 P   0  0  0  0  0  0  0  0  0  0  0  0
  -15.7824    1.8140  -23.0392 N   0  0  0  0  0  0  0  0  0  0  0  0
   -8.8720    5.1097  -19.6031 N   0  0  0  0  0  0  0  0  0  0  0  0
  -12.1892    3.1232  -19.9718 O   0  0  0  0  0  0  0  0  0  0  0  0
   -7.5789    5.9402  -17.9532 O   0  0  0  0  0  0  0  0  0  0  0  0
  -14.9200   -1.3506  -23.4434 C   0  0  0  0  0  0  0  0  0  0  0  0
  -18.1571    3.9838  -21.2686 O   0  0  0  0  0  0  0  0  0  0  0  0
  -10.5048    4.5310  -21.5993 O   0  0  0  0  0  0  0  0  0  0  0  0
   -9.5710    6.9803  -19.1941 O   0  0  0  0  0  0  0  0  0  0  0  0
  -11.7755    4.1210  -20.8195 P   0  0  0  0  0  5  0  0  0  0  0  0
   -9.1284    6.3397  -22.3208 O   0  0  0  0  0  0  0  0  0  0  0  0
  -11.9360    5.4418  -19.6158 O   0  0  0  0  0  0  0  0  0  0  0  0
   -8.8771    3.9186  -18.2101 O   0  0  0  0  0  0  0  0  0  0  0  0
  -16.3815    5.3423  -20.4417 O   0  0  0  0  0  0  0  0  0  0  0  0
  -14.3249    5.1679  -22.3228 C   0  0  0  0  0  0  0  0  0  0  0  0
   -9.4184    5.7895  -17.0302 O   0  0  0  0  0  0  0  0  0  0  0  0
  -12.6373    4.0861  -21.7979 O   0  0  0  0  0  0  0  0  0  0  0  0
  -14.7992    1.0909  -22.8949 C   0  0  0  0  0  0  0  0  0  0  0  0
  3  2  1  0
  4  1  2  0
  6  4  1  0
  2  9  1  6
 10  3  1  0
 12  1  1  0
 13 11  1  0
 14  2  1  0
 15  7  1  0
 15 13  1  0
 17  7  1  0
 18  6  2  0
 18  8  1  0
 18 12  1  0
  3 19  1  6
 21  7  1  0
 22 16  1  0
 22 20  1  0
 23 13  1  0
 23 22  1  0
 24 22  1  0
 25  7  1  0
 10 26  1  6
 27 10  1  0
 28  7  1  0
 29 22  1  0
 29 27  1  0
 30  5  2  3
 30  6  1  0
 30 14  1  0
M  END
>  <ID>  (1) 
conformer_0

$$$$
