
     RDKit          3D

 26 27  0  0  0  0  0  0  0  0999 V2000
  -15.3732    4.7063  -21.7570 C   0  0  0  0  0  0  0  0  0  0  0  0
  -16.9552   -1.0845  -24.1361 C   0  0  0  0  0  0  0  0  0  0  0  0
  -14.1639    5.1760  -22.2785 C   0  0  0  0  0  0  0  0  0  0  0  0
  -17.1225    0.1967  -24.0180 N   0  0  0  0  0  0  0  0  0  0  0  0
  -14.4884    1.0442  -22.9491 C   0  0  0  0  0  0  0  0  0  0  0  0
  -13.8027    0.1681  -22.9484 N   0  0  0  0  0  0  0  0  0  0  0  0
  -15.3051    4.0468  -23.7763 O   0  0  0  0  0  0  0  0  0  0  0  0
  -14.0406   -2.5995  -23.2493 N   0  0  0  0  0  0  0  0  0  0  0  0
   -9.1098    5.7794  -18.7909 P   0  0  2  0  0  4  0  0  0  0  0  0
   -8.4880    4.4186  -21.2737 O   0  0  0  0  0  0  0  0  0  0  0  0
  -15.5624    1.7940  -23.1478 N   0  0  0  0  0  0  0  0  0  0  0  0
  -16.3192    3.8627  -21.9192 C   0  0  0  0  0  0  0  0  0  0  0  0
  -11.3212    3.2443  -20.6720 O   0  0  0  0  0  0  0  0  0  0  0  0
  -16.4182   -1.9178  -23.9431 N   0  0  0  0  0  0  0  0  0  0  0  0
  -10.1975    5.2694  -22.5838 O   0  0  0  0  0  0  0  0  0  0  0  0
   -9.4075    5.4097  -17.3035 O   0  0  0  0  0  0  0  0  0  0  0  0
  -10.8583    4.6072  -21.4177 P   0  0  0  0  0  5  0  0  0  0  0  0
  -16.5277    4.6773  -20.5113 O   0  0  0  0  0  0  0  0  0  0  0  0
  -14.8806   -1.4452  -23.3483 C   0  0  0  0  0  3  0  0  0  0  0  0
   -8.3262    6.8512  -18.3369 O   0  0  0  0  0  1  0  0  0  0  0  0
   -9.5575    5.7243  -19.6160 N   0  0  0  0  0  0  0  0  0  0  0  0
  -17.9579    4.0645  -22.2824 O   0  0  0  0  0  0  0  0  0  0  0  0
  -12.4539    4.5952  -21.9669 O   0  0  0  0  0  0  0  0  0  0  0  0
  -11.5808    5.4736  -19.1072 O   0  0  0  0  0  0  0  0  0  0  0  0
  -16.2365    3.0599  -23.1095 C   0  0  1  0  0  0  0  0  0  0  0  0
  -15.6716    0.1298  -23.3688 C   0  0  1  0  0  0  0  0  0  0  0  0
  3  1  1  0
  4  2  2  0
  6  5  2  3
 11  5  1  0
 12  1  1  0
 14  2  1  0
 15 13  1  0
  9 16  1  6
 17  9  1  0
 17 10  1  0
 17 15  1  0
 18 12  1  0
 19  8  1  0
 19 14  1  0
 20  9  1  0
 21  9  1  0
 22 12  1  0
 23  3  1  0
 23 17  1  0
 24 21  1  0
 25  7  1  6
 25 11  1  0
 25 12  1  0
 26  4  1  0
 26  5  1  0
 26 11  1  0
 26 19  1  1
M  RAD  3   9   2  19   2  20   2
M  END
>  <ID>  (1) 
conformer_0

$$$$
