
     RDKit          3D

 29 29  0  0  0  0  0  0  0  0999 V2000
  -16.7302    3.9757  -21.9016 C   0  0  1  0  0  0  0  0  0  0  0  0
  -15.1658   -1.4171  -23.5592 C   0  0  0  0  0  0  0  0  0  0  0  0
  -15.6836    4.8909  -21.5184 C   0  0  0  0  0  0  0  0  0  0  0  0
  -17.3126    0.2955  -24.1820 N   0  0  0  0  0  0  0  0  0  0  0  0
  -14.1729    0.1841  -22.9788 N   0  0  0  0  0  0  0  0  0  0  0  0
  -14.9747    1.1243  -23.1071 C   0  0  0  0  0  0  0  0  0  0  0  0
   -8.2485    4.5281  -21.6167 O   0  0  0  0  0  0  0  0  0  0  0  0
   -8.8185    6.0493  -18.7157 P   0  0  0  0  0  5  0  0  0  0  0  0
  -14.3857   -2.5211  -23.2910 N   0  0  0  0  0  0  0  0  0  0  0  0
  -15.3919    4.2327  -23.4888 O   0  0  0  0  0  0  0  0  0  0  0  0
  -11.9848    4.1699  -20.7954 P   0  0  2  0  0  4  0  0  0  0  0  0
  -15.7718    1.8033  -23.3046 N   0  0  0  0  0  0  0  0  0  0  0  0
  -11.5835    2.8472  -20.5609 O   0  0  0  0  0  1  0  0  0  0  0  0
  -14.4284    5.2876  -22.0369 C   0  0  0  0  0  0  0  0  0  0  0  0
   -9.0080    6.4704  -22.0917 O   0  0  0  0  0  0  0  0  0  0  0  0
  -16.6692   -1.9914  -24.2727 N   0  0  0  0  0  0  0  0  0  0  0  0
  -16.8809    5.1085  -20.2775 O   0  0  0  0  0  0  0  0  0  0  0  0
   -9.9685    6.3464  -19.7605 N   0  0  0  0  0  0  0  0  0  0  0  0
   -7.6878    6.1730  -18.5002 O   0  0  0  0  0  0  0  0  0  0  0  0
   -9.5660    5.8149  -17.5736 O   0  0  0  0  0  0  0  0  0  0  0  0
  -15.8545   -0.0333  -23.6599 C   0  0  1  0  0  0  0  0  0  0  0  0
  -12.5400    4.8297  -19.4567 O   0  0  0  0  0  0  0  0  0  0  0  0
  -18.2482    4.0848  -22.1563 O   0  0  0  0  0  0  0  0  0  0  0  0
   -9.2383    5.3909  -21.3266 P   0  0  0  0  0  0  0  0  0  0  0  0
  -13.0819    4.4103  -21.6509 O   0  0  0  0  0  0  0  0  0  0  0  0
  -16.4741    3.1921  -23.1617 C   0  0  1  0  0  0  0  0  0  0  0  0
  -10.8912    4.7625  -21.7967 O   0  0  0  0  0  0  0  0  0  0  0  0
  -17.3233   -0.9782  -24.3929 C   0  0  0  0  0  0  0  0  0  0  0  0
   -9.0481    4.1682  -18.9240 O   0  0  0  0  0  0  0  0  0  0  0  0
  3  1  1  0
  6  5  2  3
  9  2  1  0
 12  6  1  0
 11 13  1  1
 14  3  1  0
 15  8  1  0
 16  2  2  0
 17  3  1  0
 18  8  1  0
 19  8  1  0
 20  8  1  0
 21  2  1  0
 21  4  1  0
 21  6  1  1
 22 11  1  0
  1 23  1  6
 24  7  1  0
 24 15  1  0
 25 11  1  0
 25 14  1  0
 26  1  1  0
 26 10  1  6
 26 12  1  0
 27 11  1  0
 27 24  1  0
 28  4  2  0
 28 16  1  0
 29  8  1  0
M  RAD  2  11   2  13   2
M  END
>  <ID>  (1) 
conformer_0

$$$$
