
     RDKit          3D

 28 28  0  0  0  0  0  0  0  0999 V2000
  -16.4842    3.8314  -21.8128 C   0  0  0  0  0  0  0  0  0  0  0  0
  -15.6105   -0.2683  -23.4455 C   0  0  0  0  0  0  0  0  0  0  0  0
  -15.4807    4.6348  -21.5878 C   0  0  0  0  0  0  0  0  0  0  0  0
  -17.1427    0.0487  -24.1230 N   0  0  0  0  0  0  0  0  0  0  0  0
  -13.8484    0.0823  -22.8696 N   0  0  0  0  0  0  0  0  0  0  0  0
  -14.8433    0.9615  -22.9354 C   0  0  0  0  0  0  0  0  0  0  0  0
  -15.2539    3.9871  -23.5261 O   0  0  0  0  0  0  0  0  0  0  0  0
  -12.0076    4.4455  -20.5913 P   0  0  0  0  0  0  0  0  0  0  0  0
  -13.8704   -2.6999  -23.0021 N   0  0  0  0  0  0  0  0  0  0  0  0
   -8.3855    4.6599  -21.2869 O   0  0  0  0  0  0  0  0  0  0  0  0
   -9.5495    6.7760  -19.3715 N   0  0  0  0  0  0  0  0  0  0  0  0
  -14.1471    5.2018  -22.2441 C   0  0  0  0  0  0  0  0  0  0  0  0
   -8.7443    6.0753  -18.5316 P   0  0  1  0  0  4  0  0  0  0  0  0
   -9.5083    6.1407  -22.4277 O   0  0  0  0  0  0  0  0  0  0  0  0
  -14.7802   -1.5470  -23.2867 C   0  0  1  0  0  0  0  0  0  0  0  0
  -12.5616    5.1627  -19.3679 O   0  0  0  0  0  0  0  0  0  0  0  0
  -15.7631    1.7203  -23.0772 N   0  0  0  0  0  0  0  0  0  0  0  0
  -16.2703   -2.0978  -24.0757 N   0  0  0  0  0  0  0  0  0  0  0  0
   -9.1939    4.8971  -18.1146 O   0  0  0  0  0  0  0  0  0  0  0  0
   -7.5327    6.0492  -18.1948 O   0  0  0  0  0  1  0  0  0  0  0  0
  -18.2098    3.6773  -22.3977 O   0  0  0  0  0  0  0  0  0  0  0  0
  -11.7004    2.8053  -20.5992 O   0  0  0  0  0  0  0  0  0  0  0  0
   -9.4378    5.4061  -21.1471 P   0  0  0  0  0  5  0  0  0  0  0  0
  -12.8303    4.6287  -21.6162 O   0  0  0  0  0  0  0  0  0  0  0  0
  -16.9812    4.9608  -20.7218 O   0  0  0  0  0  0  0  0  0  0  0  0
  -16.4817    3.0679  -23.1122 C   0  0  1  0  0  0  0  0  0  0  0  0
  -10.7732    4.9246  -21.0841 O   0  0  0  0  0  0  0  0  0  0  0  0
  -17.1194   -1.0789  -24.2572 C   0  0  0  0  0  0  0  0  0  0  0  0
  3  1  1  0
  4  2  2  0
  6  2  1  0
  6  5  2  3
 12  3  1  0
 13 11  1  0
 15  2  1  0
 15  9  1  1
 16  8  1  0
 17  6  1  0
 18 15  1  0
 13 19  1  6
 20 13  1  0
 21  1  1  0
 23 10  1  0
 23 11  1  0
 23 14  1  0
 23 22  1  0
 24  8  1  0
 24 12  1  0
 25  1  1  0
 26  1  1  0
 26  7  1  6
 26 17  1  0
 27  8  1  0
 27 23  1  0
 28  4  1  0
 28 18  2  0
M  RAD  2  13   2  20   2
M  END
>  <ID>  (1) 
conformer_0

$$$$
