
     RDKit          3D

 29 30  0  0  0  0  0  0  0  0999 V2000
  -16.8806    3.8754  -21.8477 C   0  0  2  0  0  0  0  0  0  0  0  0
  -14.7919   -1.2669  -23.3451 C   0  0  0  0  0  0  0  0  0  0  0  0
  -15.6840    4.6622  -21.8001 C   0  0  2  0  0  0  0  0  0  0  0  0
  -17.0910    0.0949  -24.0832 N   0  0  0  0  0  0  0  0  0  0  0  0
  -13.6854    0.3730  -22.8769 N   0  0  0  0  0  0  0  0  0  0  0  0
  -14.5156    1.1795  -22.8801 C   0  0  0  0  0  0  0  0  0  0  0  0
   -8.6072    5.7037  -18.4170 P   0  0  0  0  0  4  0  0  0  0  0  0
  -15.6907    4.0492  -23.5730 O   0  0  0  0  0  0  0  0  0  0  0  0
  -14.0810   -2.5115  -23.2072 N   0  0  0  0  0  0  0  0  0  0  0  0
  -15.5635    1.7862  -23.1402 N   0  0  0  0  0  0  0  0  0  0  0  0
  -12.6395    4.2478  -19.6188 O   0  0  0  0  0  0  0  0  0  0  0  0
  -14.3158    5.0569  -22.2375 C   0  0  0  0  0  0  0  0  0  0  0  0
  -16.3023    5.1654  -20.2619 O   0  0  0  0  0  0  0  0  0  0  0  0
   -9.1721    5.7375  -19.9513 N   0  0  0  0  0  0  0  0  0  0  0  0
  -12.8525    4.1774  -21.8524 O   0  0  0  0  0  0  0  0  0  0  0  0
  -11.8006    4.0844  -20.8677 P   0  0  0  0  0  5  0  0  0  0  0  0
   -8.8078    4.0280  -18.4471 O   0  0  0  0  0  0  0  0  0  0  0  0
   -8.4703    4.2677  -21.4385 O   0  0  0  0  0  0  0  0  0  0  0  0
  -16.3227   -1.9325  -24.0205 N   0  0  0  0  0  0  0  0  0  0  0  0
   -7.4974    6.0353  -18.1930 O   0  0  0  0  0  1  0  0  0  0  0  0
  -16.9067   -1.2113  -24.1111 C   0  0  0  0  0  0  0  0  0  0  0  0
  -11.2545    2.8402  -20.6050 O   0  0  0  0  0  0  0  0  0  0  0  0
  -10.7945    4.7862  -22.1665 O   0  0  0  0  0  0  0  0  0  0  0  0
   -9.8027    6.2912  -18.2507 O   0  0  0  0  0  0  0  0  0  0  0  0
  -16.6151    3.0188  -23.0353 C   0  0  1  0  0  0  0  0  0  0  0  0
   -9.4181    5.4705  -21.0886 P   0  0  0  0  0  0  0  0  0  0  0  0
   -9.1275    6.3479  -22.0060 O   0  0  0  0  0  0  0  0  0  0  0  0
  -17.9796    4.0065  -21.0827 O   0  0  0  0  0  0  0  0  0  0  0  0
  -15.6094    0.2044  -23.4529 C   0  0  0  0  0  0  0  0  0  0  0  0
  3  1  1  0
  6  5  2  3
  9  2  1  0
 10  6  1  0
 12  3  1  0
  3 13  1  1
 14  7  1  0
 15 12  1  0
 16 11  1  0
 16 15  1  0
 17  7  1  0
 19  2  2  0
 20  7  1  0
 21  4  2  0
 21 19  1  0
 22 16  1  0
 23 16  1  0
 24  7  1  0
 25  1  1  0
 25  8  1  6
 25 10  1  0
 26 14  1  0
 26 18  1  0
 27 16  1  0
 27 26  1  0
  1 28  1  6
 29  2  1  0
 29  4  1  0
 29  6  1  0
 29 10  1  0
M  RAD  2   7   2  20   2
M  END
>  <ID>  (1) 
conformer_0

$$$$
