
     RDKit          3D

 27 27  0  0  0  0  0  0  0  0999 V2000
  -16.6833    3.6372  -21.7032 C   0  0  0  0  0  0  0  0  0  0  0  0
  -15.0948   -1.4828  -23.5049 C   0  0  0  0  0  0  0  0  0  0  0  0
  -15.6828    4.5478  -21.4838 C   0  0  0  0  0  0  0  0  0  0  0  0
  -17.1921    0.2215  -24.1462 N   0  0  0  0  0  0  0  0  0  0  0  0
  -15.7067    0.0272  -23.4641 C   0  0  0  0  0  0  0  0  0  0  0  0
  -13.9586    0.1255  -22.8928 N   0  0  0  0  0  0  0  0  0  0  0  0
  -15.4526    3.9994  -23.4418 O   0  0  0  0  0  0  0  0  0  0  0  0
  -14.2354   -2.6899  -23.3576 N   0  0  0  0  0  0  0  0  0  0  0  0
  -14.4406    5.2973  -22.0666 C   0  0  0  0  0  0  0  0  0  0  0  0
   -8.7578    5.9939  -18.6880 P   0  0  0  0  0  0  0  0  0  0  0  0
  -15.6108    1.7357  -23.0617 N   0  0  0  0  0  0  0  0  0  0  0  0
  -12.0377    4.3745  -20.8296 P   0  0  0  0  0  0  0  0  0  0  0  0
  -10.9111    4.8862  -21.3107 O   0  0  0  0  0  1  0  0  0  0  0  0
   -8.5228    4.3928  -21.1775 O   0  0  0  0  0  0  0  0  0  0  0  0
   -9.0659    6.3124  -22.0639 O   0  0  0  0  0  0  0  0  0  0  0  0
   -7.6414    6.1006  -18.1717 O   0  0  0  0  0  0  0  0  0  0  0  0
  -16.5178   -2.0255  -24.1349 N   0  0  0  0  0  0  0  0  0  0  0  0
  -17.0630    4.6926  -20.4373 O   0  0  0  0  0  0  0  0  0  0  0  0
  -17.1540   -1.1005  -24.2841 C   0  0  0  0  0  0  0  0  0  0  0  0
   -9.1297    4.4445  -18.5629 O   0  0  0  0  0  0  0  0  0  0  0  0
  -18.3014    3.5161  -22.2596 O   0  0  0  0  0  0  0  0  0  0  0  0
  -12.1357    3.2655  -20.1508 O   0  0  0  0  0  0  0  0  0  0  0  0
  -13.0544    4.5782  -21.6889 O   0  0  0  0  0  0  0  0  0  0  0  0
  -11.6371    5.8336  -18.8157 O   0  0  0  0  0  0  0  0  0  0  0  0
   -9.4358    5.4707  -21.0102 P   0  0  1  0  0  4  0  0  0  0  0  0
  -16.4653    3.0431  -22.9288 C   0  0  1  0  0  0  0  0  0  0  0  0
  -14.5971    1.1699  -22.8860 C   0  0  0  0  0  0  0  0  0  0  0  0
  3  1  1  0
  5  2  2  0
  5  4  1  0
  8  2  1  0
  9  3  1  0
 15 10  1  0
 16 10  1  0
 17  2  1  0
 18  1  1  0
 19  4  2  0
 19 17  1  0
 20 10  1  0
 21  1  1  0
 22 12  1  0
 23  9  1  0
 23 12  1  0
 24 12  1  0
 25 13  1  6
 25 14  1  0
 25 15  1  0
 25 22  1  0
 26  1  1  0
 26  7  1  6
 26 11  1  0
 27  5  1  0
 27  6  2  3
 27 11  1  0
M  RAD  2  13   2  25   2
M  END
>  <ID>  (1) 
conformer_0

$$$$
