
     RDKit          3D

 30 31  0  0  0  0  0  0  0  0999 V2000
  -16.5372    3.6630  -21.6871 C   0  0  0  0  0  0  0  0  0  0  0  0
  -17.3664   -1.1489  -24.3145 C   0  0  0  0  0  0  0  0  0  0  0  0
  -15.4496    4.6214  -21.5575 C   0  0  0  0  0  0  0  0  0  0  0  0
  -17.1456    0.2413  -23.9991 N   0  0  0  0  0  0  0  0  0  0  0  0
  -14.3214    1.4386  -22.6909 C   0  0  0  0  0  0  0  0  0  0  0  0
  -13.8536    0.1627  -22.8116 N   0  0  0  0  0  0  0  0  0  0  0  0
   -9.0423    5.9286  -18.6259 P   0  0  0  0  0  5  0  0  0  0  0  0
  -14.1877   -2.6333  -23.1323 N   0  0  0  0  0  0  0  0  0  0  0  0
  -15.4503    4.0603  -23.5783 O   0  0  0  0  0  0  0  0  0  0  0  0
  -16.4745   -1.9219  -23.9859 N   0  0  0  0  0  0  0  0  0  0  0  0
  -15.5667    1.7456  -22.9132 N   0  0  0  0  0  0  0  0  0  0  0  0
   -9.5663    5.8590  -17.6659 O   0  0  0  0  0  0  0  0  0  0  0  0
  -11.8630    3.2263  -20.6856 O   0  0  0  0  0  1  0  0  0  0  0  0
  -12.0534    4.6600  -20.8069 P   0  0  0  0  0  4  0  0  0  0  0  0
  -10.1317    6.2045  -20.1440 N   0  0  0  0  0  0  0  0  0  0  0  0
  -16.7021    4.4823  -20.2655 O   0  0  0  0  0  0  0  0  0  0  0  0
  -12.4625    4.9801  -19.3994 O   0  0  0  0  0  0  0  0  0  0  0  0
  -14.3395    5.3066  -22.3277 C   0  0  0  0  0  0  0  0  0  0  0  0
  -14.8579   -0.5266  -22.9963 C   0  0  0  0  0  0  0  0  0  0  0  0
   -8.6064    5.9359  -21.9355 O   0  0  0  0  0  0  0  0  0  0  0  0
   -7.8157    6.3152  -18.7759 O   0  0  0  0  0  0  0  0  0  0  0  0
   -8.5808    4.0984  -21.0889 O   0  0  0  0  0  0  0  0  0  0  0  0
   -9.2651    5.2302  -21.0932 P   0  0  0  0  0  0  0  0  0  0  0  0
  -13.0165    4.8649  -21.8248 O   0  0  0  0  0  0  0  0  0  0  0  0
  -16.1338    0.4978  -23.4122 C   0  0  0  0  0  0  0  0  0  0  0  0
  -16.3268    3.0522  -22.9667 C   0  0  0  0  0  0  0  0  0  0  0  0
  -10.7506    4.7560  -21.9990 O   0  0  0  0  0  0  0  0  0  0  0  0
   -9.0842    4.0137  -18.7597 O   0  0  0  0  0  0  0  0  0  0  0  0
  -18.0497    3.8255  -21.5043 O   0  0  0  0  0  0  0  0  0  0  0  0
  -15.3728   -1.7658  -23.5495 C   0  0  0  0  0  0  0  0  0  0  0  0
  3  1  1  0
  4  2  2  0
  6  5  2  0
 10  2  1  0
 11  5  1  0
 12  7  1  0
 14 13  1  0
 15  7  1  0
 16  1  1  0
 17 14  1  0
 18  3  1  0
 19  6  1  0
 20  7  1  0
 21  7  1  0
 23 20  1  0
 23 22  1  0
 24 14  1  0
 24 18  1  0
 25  4  1  0
 25 11  1  0
 25 19  2  0
 26  1  1  0
 26  9  1  0
 26 11  1  0
 27 14  1  0
 27 23  1  0
 28  7  1  0
 29  1  1  0
 30  8  1  0
 30 10  2  0
 30 19  1  0
M  RAD  2  13   2  14   2
M  END
>  <ID>  (1) 
conformer_0

$$$$
