
     RDKit          3D

 29 29  0  0  0  0  0  0  0  0999 V2000
  -17.2089   -1.1088  -24.2761 C   0  0  0  0  0  0  0  0  0  0  0  0
  -15.4578    4.6887  -21.5496 C   0  0  0  0  0  0  0  0  0  0  0  0
  -14.2773    5.2041  -22.2888 C   0  0  0  0  0  0  0  0  0  0  0  0
  -17.1927    0.2556  -24.0860 N   0  0  0  0  0  0  0  0  0  0  0  0
  -15.7223   -0.0619  -23.5104 C   0  0  0  0  0  0  0  0  0  0  0  0
  -14.0482    0.2012  -23.0741 N   0  0  0  0  0  0  0  0  0  0  0  0
   -8.1482    4.3366  -21.6290 O   0  0  0  0  0  0  0  0  0  0  0  0
   -8.8739    5.9831  -18.5598 P   0  0  0  0  0  5  0  0  0  0  0  0
  -15.5521    4.1651  -23.4301 O   0  0  0  0  0  0  0  0  0  0  0  0
  -14.2182   -2.5780  -23.3729 N   0  0  0  0  0  0  0  0  0  0  0  0
  -15.7141    1.7948  -23.0776 N   0  0  0  0  0  0  0  0  0  0  0  0
  -16.5051    3.0749  -22.9202 C   0  0  1  0  0  0  0  0  0  0  0  0
  -16.5343   -2.0967  -24.1468 N   0  0  0  0  0  0  0  0  0  0  0  0
   -8.9442    6.3168  -22.1962 O   0  0  0  0  0  0  0  0  0  0  0  0
  -11.8390    3.0074  -20.3273 O   0  0  0  0  0  0  0  0  0  0  0  0
  -16.7691    4.7558  -20.0386 O   0  0  0  0  0  0  0  0  0  0  0  0
  -15.0469   -1.4657  -23.5854 C   0  0  0  0  0  0  0  0  0  0  0  0
  -11.8112    4.3402  -20.6636 P   0  0  0  0  0  0  0  0  0  0  0  0
   -7.6722    6.0782  -18.1458 O   0  0  0  0  0  0  0  0  0  0  0  0
   -9.7025    5.9987  -17.8968 O   0  0  0  0  0  0  0  0  0  0  0  0
   -9.2528    6.3362  -19.7735 N   0  0  0  0  0  0  0  0  0  0  0  0
  -12.3082    5.3835  -19.3414 O   0  0  0  0  0  0  0  0  0  0  0  0
   -9.1523    5.3884  -21.2445 P   0  0  2  0  0  4  0  0  0  0  0  0
  -12.8382    4.5363  -21.7002 O   0  0  0  0  0  0  0  0  0  0  0  0
  -18.1066    3.3861  -21.2336 O   0  0  0  0  0  0  0  0  0  0  0  0
  -10.6079    4.6818  -21.4301 O   0  0  0  0  0  1  0  0  0  0  0  0
  -16.6952    3.7179  -21.4547 C   0  0  0  0  0  0  0  0  0  0  0  0
   -9.0480    3.9951  -18.6241 O   0  0  0  0  0  0  0  0  0  0  0  0
  -14.7711    1.2076  -23.0548 C   0  0  0  0  0  0  0  0  0  0  0  0
  3  2  1  0
  4  1  2  0
  5  4  1  0
 12  9  1  6
 12 11  1  0
 13  1  1  0
 14  8  1  0
 17  5  2  0
 17 10  1  0
 17 13  1  0
 18 15  1  0
 19  8  1  0
 20  8  1  0
 21  8  1  0
 22 18  1  0
 23  7  1  1
 23 14  1  0
 23 15  1  0
 24  3  1  0
 24 18  1  0
 26 23  1  0
 27  2  1  0
 27 12  1  0
 27 16  1  0
 27 25  1  0
 28  8  1  0
 29  5  1  0
 29  6  2  3
 29 11  1  0
M  RAD  2  23   2  26   2
M  END
>  <ID>  (1) 
conformer_0

$$$$
