
     RDKit          3D

 29 29  0  0  0  0  0  0  0  0999 V2000
  -15.7034    0.0888  -23.4137 C   0  0  0  0  0  0  0  0  0  0  0  0
  -16.6479    3.8479  -21.8152 C   0  0  1  0  0  0  0  0  0  0  0  0
  -15.8011    4.3200  -21.4226 C   0  0  1  0  0  0  0  0  0  0  0  0
  -17.2357    0.1720  -24.1442 N   0  0  0  0  0  0  0  0  0  0  0  0
  -14.7126    1.1022  -22.8594 C   0  0  0  0  0  0  0  0  0  0  0  0
  -13.9188    0.1366  -22.8896 N   0  0  0  0  0  0  0  0  0  0  0  0
   -8.7422    5.7207  -18.8208 P   0  0  0  0  0  4  0  0  0  0  0  0
  -14.1178   -2.6509  -23.2933 N   0  0  0  0  0  0  0  0  0  0  0  0
   -8.2138    4.6739  -21.6527 O   0  0  0  0  0  0  0  0  0  0  0  0
  -15.4666    4.0388  -23.5541 O   0  0  0  0  0  0  0  0  0  0  0  0
  -10.9404    4.8006  -21.7366 O   0  0  0  0  0  0  0  0  0  0  0  0
  -12.5308    5.1753  -19.5743 O   0  0  0  0  0  0  0  0  0  0  0  0
   -7.4240    5.7353  -18.4087 O   0  0  0  0  0  1  0  0  0  0  0  0
  -12.0575    4.3905  -20.8710 P   0  0  0  0  0  0  0  0  0  0  0  0
  -14.6647    5.1132  -22.2230 C   0  0  0  0  0  0  0  0  0  0  0  0
  -15.7551    1.7487  -22.9824 N   0  0  0  0  0  0  0  0  0  0  0  0
   -9.2052    6.2852  -22.5873 O   0  0  0  0  0  0  0  0  0  0  0  0
  -16.4829   -1.9276  -24.0869 N   0  0  0  0  0  0  0  0  0  0  0  0
  -18.1634    4.0626  -21.7235 O   0  0  0  0  0  0  0  0  0  0  0  0
   -9.0777    3.7809  -18.8676 O   0  0  0  0  0  0  0  0  0  0  0  0
  -14.9489   -1.4280  -23.4120 C   0  0  0  0  0  0  0  0  0  0  0  0
   -9.1985    6.4175  -19.8099 N   0  0  0  0  0  0  0  0  0  0  0  0
   -9.2749    5.4530  -21.4804 P   0  0  0  0  0  5  0  0  0  0  0  0
  -11.8724    3.0263  -20.4340 O   0  0  0  0  0  0  0  0  0  0  0  0
  -16.6533    5.1674  -20.4059 O   0  0  0  0  0  0  0  0  0  0  0  0
  -13.1721    4.5129  -21.8145 O   0  0  0  0  0  0  0  0  0  0  0  0
  -16.5781    2.9789  -23.0859 C   0  0  1  0  0  0  0  0  0  0  0  0
   -9.5012    5.7197  -17.8684 O   0  0  0  0  0  0  0  0  0  0  0  0
  -17.0630   -1.0470  -24.2053 C   0  0  0  0  0  0  0  0  0  0  0  0
  3  2  1  0
  4  1  2  0
  5  1  1  0
  6  5  2  3
 13  7  1  0
 14 12  1  0
 15  3  1  0
 16  5  1  0
  2 19  1  6
 20  7  1  0
 21  1  1  0
 21  8  1  0
 21 18  1  0
 22  7  1  0
 23  9  1  0
 23 11  1  0
 23 17  1  0
 23 22  1  0
 24 14  1  0
 24 23  1  0
  3 25  1  1
 26 14  1  0
 26 15  1  0
 27  2  1  0
 27 10  1  6
 27 16  1  0
 28  7  1  0
 29  4  1  0
 29 18  2  0
M  RAD  2   7   2  13   2
M  END
>  <ID>  (1) 
conformer_0

$$$$
