
     RDKit          3D

 29 29  0  0  0  0  0  0  0  0999 V2000
  -17.2270   -1.0035  -24.2024 C   0  0  0  0  0  0  0  0  0  0  0  0
  -16.4886    3.7941  -21.7678 C   0  0  0  0  0  0  0  0  0  0  0  0
  -15.4290    4.6458  -21.6001 C   0  0  0  0  0  0  0  0  0  0  0  0
  -15.6775    0.0323  -23.5043 C   0  0  0  0  0  0  0  0  0  0  0  0
  -17.1975    0.2410  -24.1184 N   0  0  0  0  0  0  0  0  0  0  0  0
  -13.8133    0.0606  -22.9508 N   0  0  0  0  0  0  0  0  0  0  0  0
  -15.3099    4.0004  -23.5647 O   0  0  0  0  0  0  0  0  0  0  0  0
   -8.5233    4.3284  -21.5410 O   0  0  0  0  0  0  0  0  0  0  0  0
  -15.5027    1.7345  -23.1951 N   0  0  0  0  0  0  0  0  0  0  0  0
  -14.3465   -2.5926  -23.1884 N   0  0  0  0  0  0  0  0  0  0  0  0
  -12.0446    4.4203  -20.7066 P   0  0  0  0  0  0  0  0  0  0  0  0
  -14.1964    5.1836  -22.2550 C   0  0  0  0  0  0  0  0  0  0  0  0
  -12.9320    4.5135  -21.6515 O   0  0  0  0  0  0  0  0  0  0  0  0
   -8.8927    5.6259  -18.6093 P   0  0  0  0  0  4  0  0  0  0  0  0
  -16.9308    4.6333  -20.5076 O   0  0  0  0  0  0  0  0  0  0  0  0
  -16.6114   -2.0062  -24.0684 N   0  0  0  0  0  0  0  0  0  0  0  0
   -9.0082    4.0613  -18.7850 O   0  0  0  0  0  0  0  0  0  0  0  0
   -7.6178    5.8829  -18.7756 O   0  0  0  0  0  1  0  0  0  0  0  0
   -9.2150    6.2026  -22.5693 O   0  0  0  0  0  0  0  0  0  0  0  0
  -15.1345   -1.4177  -23.4583 C   0  0  0  0  0  0  0  0  0  0  0  0
  -12.3699    5.3205  -19.4991 O   0  0  0  0  0  0  0  0  0  0  0  0
  -18.0831    3.8393  -22.7353 O   0  0  0  0  0  0  0  0  0  0  0  0
  -10.0502    6.6257  -19.6629 N   0  0  0  0  0  0  0  0  0  0  0  0
  -11.6430    2.9126  -20.4946 O   0  0  0  0  0  0  0  0  0  0  0  0
   -9.1705    5.6077  -17.1661 O   0  0  0  0  0  0  0  0  0  0  0  0
  -16.2286    3.0685  -23.1200 C   0  0  1  0  0  0  0  0  0  0  0  0
   -9.6073    5.3166  -21.4541 P   0  0  0  0  0  5  0  0  0  0  0  0
  -14.4696    1.0382  -22.9386 C   0  0  0  0  0  0  0  0  0  0  0  0
  -10.8776    4.7688  -21.8882 O   0  0  0  0  0  0  0  0  0  0  0  0
  3  2  1  0
  5  1  2  0
  5  4  1  0
 12  3  1  0
 13 11  1  0
 13 12  1  0
 15  2  1  0
 16  1  1  0
 17 14  1  0
 18 14  1  0
 20  4  2  0
 20 10  1  0
 20 16  1  0
 21 11  1  0
 22  2  1  0
 23 14  1  0
 24 11  1  0
 25 14  1  0
 26  2  1  0
 26  7  1  6
 26  9  1  0
 27  8  1  0
 27 19  1  0
 27 23  1  0
 27 24  1  0
 28  4  1  0
 28  6  2  3
 28  9  1  0
 29 27  1  0
M  RAD  2  14   2  18   2
M  END
>  <ID>  (1) 
conformer_0

$$$$
