
     RDKit          3D

 29 30  0  0  0  0  0  0  0  0999 V2000
  -14.7647   -1.4495  -23.3875 C   0  0  0  0  0  0  0  0  0  0  0  0
  -15.7473    4.5228  -21.2954 C   0  0  0  0  0  0  0  0  0  0  0  0
  -14.5674    5.0545  -21.8817 C   0  0  0  0  0  0  0  0  0  0  0  0
  -14.5481    1.0623  -22.8649 C   0  0  0  0  0  0  0  0  0  0  0  0
  -16.3024   -2.0915  -24.0844 N   0  0  0  0  0  2  0  0  0  0  0  0
  -13.7917    0.0647  -22.9142 N   0  0  0  0  0  0  0  0  0  0  0  0
  -15.4683    4.1348  -23.4588 O   0  0  0  0  0  0  0  0  0  0  0  0
   -8.6929    6.1422  -18.5548 P   0  0  0  0  0  5  0  0  0  0  0  0
   -8.3272    4.4306  -21.5445 O   0  0  0  0  0  0  0  0  0  0  0  0
  -14.0413   -2.7445  -23.2112 N   0  0  0  0  0  0  0  0  0  0  0  0
  -15.4540    1.7064  -23.0080 N   0  0  0  0  0  0  0  0  0  0  0  0
  -11.6773    3.0989  -20.1781 O   0  0  0  0  0  1  0  0  0  0  0  0
  -11.9925    4.2427  -20.8560 P   0  0  0  0  0  4  0  0  0  0  0  0
   -9.3862    5.6436  -17.4856 O   0  0  0  0  0  0  0  0  0  0  0  0
  -15.4573   -0.0731  -23.4131 C   0  0  0  0  0  0  0  0  0  0  0  0
  -16.6160    3.8254  -21.9517 C   0  0  0  0  0  0  0  0  0  0  0  0
   -8.9564    6.4900  -21.4597 O   0  0  0  0  0  0  0  0  0  0  0  0
  -12.2759    5.5021  -19.4923 O   0  0  0  0  0  0  0  0  0  0  0  0
  -17.0779    4.9096  -20.4586 O   0  0  0  0  0  0  0  0  0  0  0  0
  -16.9698    0.0325  -24.1119 N   0  0  0  0  0  0  0  0  0  0  0  0
   -8.1631    7.0923  -18.6240 O   0  0  0  0  0  0  0  0  0  0  0  0
  -13.1134    4.3098  -21.5166 O   0  0  0  0  0  0  0  0  0  0  0  0
  -10.8117    4.7612  -21.7797 O   0  0  0  0  0  0  0  0  0  0  0  0
   -9.3340    5.3312  -21.0889 P   0  0  0  0  0  0  0  0  0  0  0  0
  -18.1910    3.6608  -22.1566 O   0  0  0  0  0  0  0  0  0  0  0  0
  -16.2993    2.9586  -23.0853 C   0  0  0  0  0  0  0  0  0  0  0  0
  -10.0205    6.3777  -19.7273 N   0  0  0  0  0  0  0  0  0  0  0  0
  -17.0026   -1.1273  -24.2477 C   0  0  0  0  0  0  0  0  0  0  0  0
   -8.2959    4.8892  -18.9729 O   0  0  0  0  0  0  0  0  0  0  0  0
  3  2  1  0
  5  1  1  0
  6  1  1  0
  6  4  2  0
 10  1  1  0
 11  4  1  0
 13 12  1  0
 14  8  1  0
 15  1  1  0
 15  4  1  0
 16  2  1  0
 17  8  1  0
 18 13  1  0
 19  2  1  0
 20 15  1  0
 21  8  1  0
 22  3  1  0
 22 13  1  0
 23 13  1  0
 24  9  1  0
 24 17  1  0
 24 23  1  0
 25 16  1  0
 26  7  1  0
 26 11  1  0
 26 16  1  0
 27  8  1  0
 28  5  1  0
 28 20  2  0
 29  8  1  0
M  RAD  3   5   2  12   2  13   2
M  END
>  <ID>  (1) 
conformer_0

$$$$
