
     RDKit          3D

 27 28  0  0  0  0  0  0  0  0999 V2000
  -17.0911   -0.9996  -24.2409 C   0  0  0  0  0  0  0  0  0  0  0  0
  -15.5825    4.7469  -21.4740 C   0  0  1  0  0  0  0  0  0  0  0  0
  -16.5823    3.8820  -21.7204 C   0  0  2  0  0  0  0  0  0  0  0  0
  -17.1557    0.3499  -24.1039 N   0  0  0  0  0  0  0  0  0  0  0  0
  -14.6724    1.1192  -22.9003 C   0  0  0  0  0  0  0  0  0  0  0  0
  -13.9892    0.1685  -22.9458 N   0  0  0  0  0  0  0  0  0  0  0  0
  -11.8324    4.2722  -20.7426 P   0  0  0  0  0  0  0  0  0  0  0  0
   -8.3083    4.3931  -21.5520 O   0  0  0  0  0  0  0  0  0  0  0  0
  -14.3047   -2.5946  -23.4313 N   0  0  0  0  0  0  0  0  0  0  0  0
   -8.6848    5.5473  -18.4776 P   0  0  0  0  0  4  0  0  0  0  0  0
  -15.3555    4.0593  -23.5976 O   0  0  0  0  0  0  0  0  0  0  0  0
  -15.7000    1.8096  -23.0666 N   0  0  0  0  0  0  0  0  0  0  0  0
  -11.3808    3.6335  -20.5068 O   0  0  0  0  0  0  0  0  0  0  0  0
  -14.3786    5.1454  -22.0271 C   0  0  0  0  0  0  0  0  0  0  0  0
   -9.9694    6.3041  -19.9239 N   0  0  0  0  0  0  0  0  0  0  0  0
   -9.0243    5.9669  -17.7495 O   0  0  0  0  0  0  0  0  0  0  0  0
  -16.9471    5.2540  -20.5503 O   0  0  0  0  0  0  0  0  0  0  0  0
   -7.4114    5.4839  -18.3574 O   0  0  0  0  0  1  0  0  0  0  0  0
  -15.0292   -1.3479  -23.5071 C   0  0  0  0  0  3  0  0  0  0  0  0
  -16.5074   -1.8418  -24.1878 N   0  0  0  0  0  0  0  0  0  0  0  0
  -10.1754    5.1556  -22.3549 O   0  0  0  0  0  0  0  0  0  0  0  0
   -9.3863    5.1969  -21.2989 P   0  0  0  0  0  0  0  0  0  0  0  0
  -12.7893    4.5266  -21.5502 O   0  0  0  0  0  0  0  0  0  0  0  0
   -9.0210    3.9803  -18.6749 O   0  0  0  0  0  0  0  0  0  0  0  0
  -15.8000    0.2840  -23.4977 C   0  0  1  0  0  0  0  0  0  0  0  0
  -16.3903    3.2380  -22.9496 C   0  0  1  0  0  0  0  0  0  0  0  0
  -18.0847    4.0208  -21.7535 O   0  0  0  0  0  0  0  0  0  0  0  0
  3  2  1  0
  4  1  2  0
  6  5  2  3
 12  5  1  0
 13  7  1  0
 14  2  1  0
 15 10  1  0
 16 10  1  0
  2 17  1  6
 18 10  1  0
 19  9  1  0
 20  1  1  0
 20 19  1  0
 21  7  1  0
 22  8  1  0
 22 15  1  0
 22 21  1  0
 23  7  1  0
 23 14  1  0
 24 10  1  0
 25  4  1  0
 25  5  1  0
 25 12  1  0
 25 19  1  1
 26  3  1  0
 26 11  1  6
 26 12  1  0
  3 27  1  6
M  RAD  3  10   2  18   2  19   2
M  END
>  <ID>  (1) 
conformer_0

$$$$
