
     RDKit          3D

 29 29  0  0  0  0  0  0  0  0999 V2000
  -16.6450    3.0967  -23.0264 C   0  0  1  0  0  0  0  0  0  0  0  0
  -14.9732   -1.4814  -23.4344 C   0  0  0  0  0  0  0  0  0  0  0  0
  -16.8154    3.7955  -22.0330 C   0  0  1  0  0  0  0  0  0  0  0  0
  -14.8274    1.2080  -22.9685 C   0  0  0  0  0  0  0  0  0  0  0  0
  -17.1428    0.2110  -24.0824 N   0  0  0  0  0  0  0  0  0  0  0  0
  -13.9458    0.2614  -22.9367 N   0  0  0  0  0  0  0  0  0  0  0  0
   -8.6046    4.3159  -21.4614 O   0  0  0  0  0  0  0  0  0  0  0  0
  -15.4824    4.2324  -23.5334 O   0  0  0  0  0  0  0  0  0  0  0  0
  -14.2469   -2.6578  -23.2759 N   0  0  0  0  0  0  0  0  0  0  0  0
  -15.7436    4.4848  -21.5898 C   0  0  2  0  0  0  0  0  0  0  0  0
  -15.6832    1.7975  -23.0265 N   0  0  0  0  0  0  0  0  0  0  0  0
  -11.5226    2.7232  -20.5594 O   0  0  0  0  0  1  0  0  0  0  0  0
  -12.1886    4.0295  -20.9459 P   0  0  1  0  0  4  0  0  0  0  0  0
   -8.7622    5.9371  -18.6459 P   0  0  0  0  0  0  0  0  0  0  0  0
   -9.2307    5.7027  -17.4987 O   0  0  0  0  0  0  0  0  0  0  0  0
  -12.6576    4.5267  -19.5555 O   0  0  0  0  0  0  0  0  0  0  0  0
  -18.3904    3.9972  -22.3735 O   0  0  0  0  0  0  0  0  0  0  0  0
  -16.4769   -1.9889  -24.1036 N   0  0  0  0  0  0  0  0  0  0  0  0
  -11.0448    4.8133  -21.9597 O   0  0  0  0  0  0  0  0  0  0  0  0
  -15.7067   -0.0038  -23.4074 C   0  0  1  0  0  0  0  0  0  0  0  0
   -7.6689    6.8028  -17.9665 O   0  0  0  0  0  0  0  0  0  0  0  0
  -16.9738    4.8431  -20.5733 O   0  0  0  0  0  0  0  0  0  0  0  0
  -13.1340    4.1510  -21.7879 O   0  0  0  0  0  0  0  0  0  0  0  0
  -14.4611    5.1567  -22.0312 C   0  0  0  0  0  0  0  0  0  0  0  0
   -9.7025    5.2339  -21.0693 P   0  0  0  0  0  0  0  0  0  0  0  0
   -9.1820    4.2690  -19.1117 O   0  0  0  0  0  0  0  0  0  0  0  0
   -9.3635    6.3277  -21.9992 O   0  0  0  0  0  0  0  0  0  0  0  0
   -8.2356    6.6346  -19.1826 C   0  0  0  0  0  0  0  0  0  0  0  0
  -17.1173   -1.0672  -24.2328 C   0  0  0  0  0  0  0  0  0  0  0  0
  3  1  1  0
  6  4  2  3
  1  8  1  6
  9  2  1  0
 10  3  1  0
 11  1  1  0
 11  4  1  0
 13 12  1  1
 15 14  1  0
 16 13  1  0
  3 17  1  6
 18  2  2  0
 19 13  1  0
 20  2  1  0
 20  4  1  6
 20  5  1  0
 10 22  1  6
 23 13  1  0
 24 10  1  0
 24 23  1  0
 25  7  1  0
 25 19  1  0
 26 14  1  0
 27 25  1  0
 28 14  1  0
 28 21  2  0
 28 27  1  0
 29  5  2  0
 29 18  1  0
M  RAD  2  12   2  13   2
M  END
>  <ID>  (1) 
conformer_0

$$$$
