
     RDKit          3D

 28 29  0  0  0  0  0  0  0  0999 V2000
  -16.3111    3.2000  -22.8987 C   0  0  0  0  0  0  0  0  0  0  0  0
  -16.9156   -1.1186  -24.1720 C   0  0  0  0  0  0  0  0  0  0  0  0
  -16.5945    3.8661  -21.5285 C   0  0  0  0  0  0  0  0  0  0  0  0
  -15.5149   -0.1728  -23.3290 C   0  0  0  0  0  0  0  0  0  0  0  0
  -16.9827    0.1228  -23.9974 N   0  0  0  0  0  0  0  0  0  0  0  0
  -13.7667    0.1119  -22.8482 N   0  0  0  0  0  0  0  0  0  0  0  0
   -8.6887    5.8610  -18.6756 P   0  0  0  0  0  4  0  0  0  0  0  0
  -15.4478    3.9920  -23.6102 O   0  0  0  0  0  0  0  0  0  0  0  0
  -13.7840   -2.6502  -23.1796 N   0  0  0  0  0  0  0  0  0  0  0  0
   -8.3331    4.2959  -21.5911 O   0  0  0  0  0  0  0  0  0  0  0  0
  -15.5939    1.7259  -23.0219 N   0  0  0  0  0  0  0  0  0  0  0  0
  -15.5755    4.8365  -21.5142 C   0  0  0  0  0  0  0  0  0  0  0  0
  -16.1828   -2.2171  -23.9198 N   0  0  0  0  0  0  0  0  0  0  0  0
  -11.5428    2.8682  -20.3465 O   0  0  0  0  0  0  0  0  0  0  0  0
   -8.9964    4.7948  -18.2695 O   0  0  0  0  0  0  0  0  0  0  0  0
  -14.7669   -1.5693  -23.3362 C   0  0  0  0  0  3  0  0  0  0  0  0
  -11.8302    4.1047  -20.7686 P   0  0  0  0  0  0  0  0  0  0  0  0
   -7.4344    6.2235  -18.3629 O   0  0  0  0  0  1  0  0  0  0  0  0
   -8.9508    6.2406  -22.2968 O   0  0  0  0  0  0  0  0  0  0  0  0
  -18.1493    3.8272  -22.0573 O   0  0  0  0  0  0  0  0  0  0  0  0
  -12.1062    5.1281  -19.4329 O   0  0  0  0  0  0  0  0  0  0  0  0
   -9.1759    5.3435  -21.2966 P   0  0  0  0  0  4  0  0  0  0  0  0
  -12.8457    4.3122  -21.6272 O   0  0  0  0  0  0  0  0  0  0  0  0
  -16.9112    5.1035  -20.3431 O   0  0  0  0  0  0  0  0  0  0  0  0
  -14.2555    5.2386  -22.2651 C   0  0  0  0  0  0  0  0  0  0  0  0
  -10.6657    4.7185  -21.4831 O   0  0  0  0  0  1  0  0  0  0  0  0
   -9.6049    6.4847  -20.0112 N   0  0  0  0  0  0  0  0  0  0  0  0
  -14.6907    1.0700  -22.8738 C   0  0  0  0  0  0  0  0  0  0  0  0
  3  1  1  0
  5  2  2  0
  5  4  1  0
  6  4  1  0
  8  1  1  0
 11  1  1  0
 12  3  1  0
 13  2  1  0
 15  7  1  0
 16  4  1  0
 16  9  1  0
 16 13  1  0
 17 14  1  0
 18  7  1  0
 19  7  1  0
 20  3  1  0
 21 17  1  0
 22 10  1  0
 22 14  1  0
 22 19  1  0
 23 17  1  0
 24  3  1  0
 25 12  1  0
 25 23  1  0
 26 22  1  0
 27  7  1  0
 28  4  1  0
 28  6  2  0
 28 11  1  0
M  RAD  5   7   2  16   2  18   2  22   2  26   2
M  END
>  <ID>  (1) 
conformer_0

$$$$
