
     RDKit          3D

 28 28  0  0  0  0  0  0  0  0999 V2000
  -14.8510   -1.3922  -23.4314 C   0  0  0  0  0  0  0  0  0  0  0  0
  -16.5335    3.1564  -22.9130 C   0  0  1  0  0  0  0  0  0  0  0  0
  -16.6059    3.8642  -21.5774 C   0  0  1  0  0  0  0  0  0  0  0  0
  -13.8042    0.3322  -22.8684 N   0  0  0  0  0  0  0  0  0  0  0  0
  -16.9994    0.2891  -24.0904 N   0  0  0  0  0  0  0  0  0  0  0  0
  -14.6644    1.2626  -22.9473 C   0  0  0  0  0  0  0  0  0  0  0  0
  -15.4513    4.1164  -23.6068 O   0  0  0  0  0  0  0  0  0  0  0  0
  -14.1803   -2.5918  -23.3164 N   0  0  0  0  0  0  0  0  0  0  0  0
  -15.6780    4.7710  -21.4863 C   0  0  2  0  0  0  0  0  0  0  0  0
   -8.8474    6.0496  -18.7047 P   0  0  1  0  0  4  0  0  0  0  0  0
   -8.3049    4.3713  -21.5465 O   0  0  0  0  0  0  0  0  0  0  0  0
  -12.0636    4.1986  -20.7483 P   0  0  2  0  0  4  0  0  0  0  0  0
  -15.5449    1.8562  -23.0702 N   0  0  0  0  0  0  0  0  0  0  0  0
  -11.8772    2.9558  -20.7875 O   0  0  0  0  0  1  0  0  0  0  0  0
   -9.3285    5.5834  -17.8750 O   0  0  0  0  0  0  0  0  0  0  0  0
  -16.4346   -1.9298  -24.1265 N   0  0  0  0  0  0  0  0  0  0  0  0
   -9.0186    6.5522  -21.2294 O   0  0  0  0  0  0  0  0  0  0  0  0
  -15.4962    0.0307  -23.4401 C   0  0  2  0  0  0  0  0  0  0  0  0
  -12.3527    5.1192  -19.5236 O   0  0  0  0  0  0  0  0  0  0  0  0
  -18.1791    3.6207  -21.5096 O   0  0  0  0  0  0  0  0  0  0  0  0
   -9.3677    3.6432  -19.2987 O   0  0  0  0  0  0  0  0  0  0  0  0
  -16.8920    5.3040  -20.4588 O   0  0  0  0  0  0  0  0  0  0  0  0
  -14.3820    5.3081  -22.3099 C   0  0  0  0  0  0  0  0  0  0  0  0
  -13.0261    4.6445  -21.7273 O   0  0  0  0  0  0  0  0  0  0  0  0
   -8.4191    6.6770  -18.9950 O   0  0  0  0  0  1  0  0  0  0  0  0
  -10.7734    4.7845  -21.6672 O   0  0  0  0  0  0  0  0  0  0  0  0
  -16.9867   -1.0414  -24.2460 C   0  0  0  0  0  0  0  0  0  0  0  0
   -9.3439    5.2392  -20.9440 P   0  0  0  0  0  5  0  0  0  0  0  0
  3  2  1  0
  6  4  2  3
  2  7  1  6
  8  1  1  0
  9  3  1  0
 13  2  1  0
 13  6  1  0
 12 14  1  1
 10 15  1  1
 16  1  2  0
 17 10  1  0
 18  1  1  0
 18  5  1  0
 18  6  1  6
 19 12  1  0
  3 20  1  6
  9 22  1  6
 23  9  1  0
 24 12  1  0
 24 23  1  0
 25 10  1  0
 26 12  1  0
 27  5  2  0
 27 16  1  0
 28 11  1  0
 28 17  1  0
 28 21  1  0
 28 26  1  0
M  RAD  4  10   2  12   2  14   2  25   2
M  END
>  <ID>  (1) 
conformer_0

$$$$
