
     RDKit          3D

 29 29  0  0  0  0  0  0  0  0999 V2000
  -15.8042    4.5789  -21.7139 C   0  0  2  0  0  0  0  0  0  0  0  0
  -17.0112   -1.2303  -24.2545 C   0  0  0  0  0  0  0  0  0  0  0  0
  -14.6722    5.0518  -22.0211 C   0  0  0  0  0  0  0  0  0  0  0  0
  -17.2119    0.0607  -24.1989 N   0  0  0  0  0  0  0  0  0  0  0  0
  -15.7620   -0.1365  -23.5092 C   0  0  0  0  0  0  0  0  0  0  0  0
  -13.9335    0.0833  -22.8864 N   0  0  0  0  0  0  0  0  0  0  0  0
  -14.0086   -2.6367  -23.3862 N   0  0  0  0  0  0  0  0  0  0  0  0
  -15.4657    3.8660  -23.6294 O   0  0  0  0  0  0  0  0  0  0  0  0
   -8.4592    6.2015  -18.9185 P   0  0  2  0  0  4  0  0  0  0  0  0
  -12.2685    4.1771  -20.6938 P   0  0  2  0  0  4  0  0  0  0  0  0
  -16.7709    3.6931  -22.1511 C   0  0  1  0  0  0  0  0  0  0  0  0
  -15.7699    1.5639  -23.2666 N   0  0  0  0  0  0  0  0  0  0  0  0
   -8.4698    4.5388  -21.4235 O   0  0  0  0  0  0  0  0  0  0  0  0
  -12.2220    2.9199  -20.3245 O   0  0  0  0  0  1  0  0  0  0  0  0
  -18.2273    4.0576  -22.1480 O   0  0  0  0  0  0  0  0  0  0  0  0
  -14.8885   -1.5340  -23.4765 C   0  0  0  0  0  0  0  0  0  0  0  0
   -7.4143    5.9014  -18.7770 O   0  0  0  0  0  1  0  0  0  0  0  0
  -16.5067   -2.0742  -24.1583 N   0  0  0  0  0  0  0  0  0  0  0  0
  -11.0830    4.8512  -21.7064 O   0  0  0  0  0  0  0  0  0  0  0  0
   -9.3446    5.6636  -18.0270 O   0  0  0  0  0  0  0  0  0  0  0  0
   -8.9965    6.3412  -21.6559 O   0  0  0  0  0  0  0  0  0  0  0  0
  -12.3632    5.5128  -19.3392 O   0  0  0  0  0  0  0  0  0  0  0  0
  -16.7554    4.9741  -20.4907 O   0  0  0  0  0  0  0  0  0  0  0  0
  -16.5160    2.8424  -23.4150 C   0  0  2  0  0  0  0  0  0  0  0  0
  -13.2261    4.3826  -21.4390 O   0  0  0  0  0  0  0  0  0  0  0  0
   -9.6942    7.1063  -19.5500 N   0  0  0  0  0  0  0  0  0  0  0  0
  -14.7020    0.9384  -22.9765 C   0  0  0  0  0  0  0  0  0  0  0  0
   -9.6699    5.3669  -20.9171 P   0  0  0  0  0  5  0  0  0  0  0  0
   -9.2605    3.9955  -19.4586 O   0  0  0  0  0  0  0  0  0  0  0  0
  3  1  1  0
  4  2  2  0
  5  4  1  0
 11  1  1  0
 10 14  1  1
 11 15  1  6
 16  5  2  0
 16  7  1  0
 17  9  1  0
 18  2  1  0
 18 16  1  0
 19 10  1  0
 20  9  1  0
 21  9  1  0
 22 10  1  0
  1 23  1  6
 24  8  1  6
 24 11  1  0
 24 12  1  0
 25  3  1  0
 25 10  1  0
  9 26  1  1
 27  5  1  0
 27  6  2  3
 27 12  1  0
 28 13  1  0
 28 19  1  0
 28 21  1  0
 29 28  1  0
M  RAD  4   9   2  10   2  14   2  17   2
M  END
>  <ID>  (1) 
conformer_0

$$$$
