
     RDKit          3D

 29 30  0  0  0  0  0  0  0  0999 V2000
  -16.4542    2.9856  -23.1703 C   0  0  1  0  0  0  0  0  0  0  0  0
  -17.0736   -1.1024  -24.2728 C   0  0  0  0  0  0  0  0  0  0  0  0
  -16.4193    3.6232  -21.9158 C   0  0  1  0  0  0  0  0  0  0  0  0
  -17.1942    0.2256  -24.1715 N   0  0  0  0  0  0  0  0  0  0  0  0
  -15.7283   -0.0218  -23.4214 C   0  0  1  0  0  0  0  0  0  0  0  0
  -13.8402    0.0335  -22.8782 N   0  0  0  0  0  0  0  0  0  0  0  0
  -14.1663   -2.6734  -23.2362 N   0  0  0  0  0  0  0  0  0  0  0  0
  -15.4491    4.0794  -23.4846 O   0  0  0  0  0  0  0  0  0  0  0  0
  -11.8790    4.0569  -20.8380 P   0  0  0  0  0  5  0  0  0  0  0  0
  -15.5681    1.7035  -23.0588 N   0  0  0  0  0  0  0  0  0  0  0  0
  -15.3856    4.5828  -21.5630 C   0  0  2  0  0  0  0  0  0  0  0  0
   -8.9950    5.9953  -18.5920 P   0  0  0  0  0  4  0  0  0  0  0  0
   -8.3462    4.3096  -21.5665 O   0  0  0  0  0  0  0  0  0  0  0  0
  -16.5222   -1.9622  -24.1164 N   0  0  0  0  0  0  0  0  0  0  0  0
  -11.6324    2.7900  -20.5025 O   0  0  0  0  0  0  0  0  0  0  0  0
   -9.3777    6.0387  -19.9097 N   0  0  0  0  0  0  0  0  0  0  0  0
  -16.8300    4.7958  -20.5726 O   0  0  0  0  0  0  0  0  0  0  0  0
  -14.9574   -1.5300  -23.4367 C   0  0  0  0  0  3  0  0  0  0  0  0
   -9.3419    6.1782  -22.5308 O   0  0  0  0  0  0  0  0  0  0  0  0
   -7.7285    5.7805  -18.2317 O   0  0  0  0  0  1  0  0  0  0  0  0
   -9.6260    6.2763  -17.9316 O   0  0  0  0  0  0  0  0  0  0  0  0
  -18.1248    3.6453  -22.3703 O   0  0  0  0  0  0  0  0  0  0  0  0
   -9.5030    5.3469  -21.3660 P   0  0  0  0  0  0  0  0  0  0  0  0
  -12.8489    4.4828  -21.6625 O   0  0  0  0  0  0  0  0  0  0  0  0
  -12.3787    4.7561  -19.3415 O   0  0  0  0  0  0  0  0  0  0  0  0
   -9.2313    4.0156  -18.7408 O   0  0  0  0  0  0  0  0  0  0  0  0
  -14.1160    5.2466  -22.1180 C   0  0  0  0  0  0  0  0  0  0  0  0
  -14.5032    0.9248  -22.8835 C   0  0  0  0  0  0  0  0  0  0  0  0
  -10.7496    4.6837  -21.7013 O   0  0  0  0  0  0  0  0  0  0  0  0
  3  1  1  0
  4  2  2  0
  5  4  1  0
  1  8  1  6
 10  1  1  0
 10  5  1  0
 11  3  1  0
 14  2  1  0
 15  9  1  0
 16 12  1  0
 11 17  1  6
  5 18  1  6
 18  7  1  0
 18 14  1  0
 19  9  1  0
 20 12  1  0
 21 12  1  0
  3 22  1  6
 23 13  1  0
 23 16  1  0
 23 19  1  0
 24  9  1  0
 25  9  1  0
 26 12  1  0
 27 11  1  0
 27 24  1  0
 28  5  1  0
 28  6  2  3
 28 10  1  0
 29  9  1  0
M  RAD  3  12   2  18   2  20   2
M  END
>  <ID>  (1) 
conformer_0

$$$$
