
     RDKit          3D

 27 28  0  0  0  0  0  0  0  0999 V2000
  -16.7263    3.9141  -21.8089 C   0  0  0  0  0  0  0  0  0  0  0  0
  -15.1361   -1.3588  -23.4322 C   0  0  0  0  0  0  0  0  0  0  0  0
  -15.6993    4.7819  -21.5837 C   0  0  0  0  0  0  0  0  0  0  0  0
  -14.8126    1.3147  -22.8745 C   0  0  0  0  0  0  0  0  0  0  0  0
  -17.1438    0.2996  -24.0073 N   0  0  0  0  0  0  0  0  0  0  0  0
  -14.0224    0.2899  -22.9109 N   0  0  0  0  0  0  0  0  0  0  0  0
   -8.4759    5.6186  -18.3843 P   0  0  0  0  0  4  0  0  0  0  0  0
  -14.1974   -2.4741  -23.2805 N   0  0  0  0  0  0  0  0  0  0  0  0
  -16.4726   -2.0470  -24.0013 N   0  0  0  0  0  0  0  0  0  0  0  0
  -15.5537    1.9345  -23.0069 N   0  0  0  0  0  0  0  0  0  0  0  0
  -15.2667    4.2635  -23.5300 O   0  0  0  0  0  0  0  0  0  0  0  0
  -14.3218    5.3139  -22.2369 C   0  0  0  0  0  0  0  0  0  0  0  0
  -10.2876    5.2148  -22.3448 O   0  0  0  0  0  0  0  0  0  0  0  0
   -8.3356    4.5974  -21.4377 O   0  0  0  0  0  0  0  0  0  0  0  0
  -11.7610    4.1902  -21.2770 P   0  0  0  0  0  4  0  0  0  0  0  0
   -7.4877    5.8208  -18.1069 O   0  0  0  0  0  1  0  0  0  0  0  0
  -17.1886   -1.1016  -24.2150 C   0  0  0  0  0  0  0  0  0  0  0  0
   -9.8164    6.0165  -18.3127 O   0  0  0  0  0  0  0  0  0  0  0  0
  -11.6183    3.1362  -20.4822 O   0  0  0  0  0  1  0  0  0  0  0  0
  -18.2573    4.1556  -22.5654 O   0  0  0  0  0  0  0  0  0  0  0  0
  -12.4757    4.5326  -21.9791 O   0  0  0  0  0  0  0  0  0  0  0  0
   -8.7964    3.7821  -18.4622 O   0  0  0  0  0  0  0  0  0  0  0  0
  -16.9499    4.9917  -20.5444 O   0  0  0  0  0  0  0  0  0  0  0  0
   -9.1803    5.5956  -19.7978 N   0  0  0  0  0  0  0  0  0  0  0  0
   -9.3894    5.3801  -21.2599 P   0  0  0  0  0  0  0  0  0  0  0  0
  -16.5095    3.4445  -23.0350 C   0  0  0  0  0  0  0  0  0  0  0  0
  -15.6599    0.1080  -23.3548 C   0  0  0  0  0  0  0  0  0  0  0  0
  3  1  1  0
  6  4  2  0
  8  2  1  0
  9  2  2  0
 10  4  1  0
 12  3  1  0
 15 13  1  0
 16  7  1  0
 17  5  2  0
 17  9  1  0
 18  7  1  0
 19 15  1  0
 20  1  1  0
 21 12  1  0
 21 15  1  0
 22  7  1  0
 23  3  1  0
 24  7  1  0
 25 13  1  0
 25 14  1  0
 25 24  1  0
 26  1  1  0
 26 10  1  0
 26 11  1  0
 27  2  1  0
 27  4  1  0
 27  5  1  0
 27  6  1  0
M  RAD  4   7   2  15   2  16   2  19   2
M  END
>  <ID>  (1) 
conformer_0

$$$$
