
     RDKit          3D

 31 33  0  0  0  0  0  0  0  0999 V2000
  -16.8965    3.6610  -22.1389 C   0  0  0  0  0  0  0  0  0  0  0  0
  -14.7758   -0.5394  -23.0272 C   0  0  0  0  0  0  0  0  0  0  0  0
  -15.2838    5.0187  -22.1546 C   0  0  0  0  0  0  0  0  0  0  0  0
  -17.0457    0.1524  -24.1145 N   0  0  0  0  0  0  0  0  0  0  0  0
  -14.3179    1.4330  -22.7144 C   0  0  0  0  0  0  0  0  0  0  0  0
  -13.7184    0.2042  -22.7656 N   0  0  0  0  0  0  0  0  0  0  0  0
  -13.9821   -2.5302  -23.1736 N   0  0  0  0  0  0  0  0  0  0  0  0
  -15.3706    4.0068  -23.5824 O   0  0  0  0  0  0  0  0  0  0  0  0
   -8.3122    4.6881  -21.5283 O   0  0  0  0  0  0  0  0  0  0  0  0
  -11.8341    4.3829  -20.7284 P   0  0  0  0  0  4  0  0  0  0  0  0
  -15.5477    1.7387  -23.0195 N   0  0  0  0  0  0  0  0  0  0  0  0
   -9.8568    6.2513  -19.6575 N   0  0  0  0  0  0  0  0  0  0  0  0
  -13.7730    5.1028  -22.4276 C   0  0  0  0  0  0  0  0  0  0  0  0
  -16.3102   -1.9989  -24.0098 N   0  0  0  0  0  0  0  0  0  0  0  0
  -10.7759    4.8531  -21.7196 O   0  0  0  0  0  0  0  0  0  0  0  0
   -8.9144    5.7262  -18.3709 P   0  0  0  0  0  4  0  0  0  0  0  0
   -9.1961    5.7323  -17.0566 O   0  0  0  0  0  0  0  0  0  0  0  0
  -12.5332    4.8876  -19.5530 O   0  0  0  0  0  0  0  0  0  0  0  0
  -15.0423   -1.6839  -23.5125 C   0  0  0  0  0  0  0  0  0  0  0  0
  -16.8484    4.9773  -20.5550 O   0  0  0  0  0  0  0  0  0  0  0  0
   -7.5724    5.8879  -18.4002 O   0  0  0  0  0  1  0  0  0  0  0  0
   -9.0219    6.5075  -22.2824 O   0  0  0  0  0  1  0  0  0  0  0  0
   -9.1504    5.6044  -21.3351 P   0  0  0  0  0  4  0  0  0  0  0  0
  -11.6001    2.8371  -20.6433 O   0  0  0  0  0  1  0  0  0  0  0  0
   -9.0890    3.9692  -18.6575 O   0  0  0  0  0  0  0  0  0  0  0  0
  -18.1142    3.8994  -22.0896 O   0  0  0  0  0  0  0  0  0  0  0  0
  -16.1949    2.9263  -23.3175 C   0  0  0  0  0  0  0  0  0  0  0  0
  -17.1884   -1.2745  -24.3278 C   0  0  0  0  0  0  0  0  0  0  0  0
  -12.9353    4.5499  -21.6980 O   0  0  0  0  0  0  0  0  0  0  0  0
  -16.0125    0.4269  -23.5083 C   0  0  0  0  0  0  0  0  0  0  0  0
  -15.8231    4.0857  -21.1790 C   0  0  0  0  0  0  0  0  0  0  0  0
  6  2  1  0
  6  5  2  0
  8  3  1  0
 11  5  1  0
 13  3  1  0
 15 10  1  0
 16 12  1  0
 17 16  1  0
 18 10  1  0
 19  2  1  0
 19  7  1  0
 19 14  2  0
 21 16  1  0
 23  9  1  0
 23 12  1  0
 23 15  1  0
 23 22  1  0
 24 10  1  0
 25 16  1  0
 26  1  1  0
 27  1  1  0
 27  8  1  0
 27 11  1  0
 28  4  2  0
 28 14  1  0
 29 10  1  0
 29 13  1  0
 30  2  2  0
 30  4  1  0
 30 11  1  0
 31  1  1  0
 31  3  1  0
 31 20  1  0
M  RAD  6  10   2  16   2  21   2  22   2  23   2  24   2
M  END
>  <ID>  (1) 
conformer_0

$$$$
