
     RDKit          3D

 28 28  0  0  0  0  0  0  0  0999 V2000
  -16.2353    3.8297  -21.5194 C   0  0  1  0  0  0  0  0  0  0  0  0
  -15.1514   -1.4128  -23.5194 C   0  0  0  0  0  0  0  0  0  0  0  0
  -15.2749    4.7840  -21.3116 C   0  0  1  0  0  0  0  0  0  0  0  0
  -14.7868    1.1484  -22.9060 C   0  0  0  0  0  0  0  0  0  0  0  0
  -14.0551    0.1640  -22.9479 N   0  0  0  0  0  0  0  0  0  0  0  0
  -16.6287   -2.0511  -24.2350 N   0  0  0  0  0  0  0  0  0  0  0  0
  -15.3142    4.1232  -23.1821 O   0  0  0  0  0  0  0  0  0  0  0  0
  -15.7149    1.7787  -23.0072 N   0  0  0  0  0  0  0  0  0  0  0  0
  -14.4018   -2.6693  -23.3185 N   0  0  0  0  0  0  0  0  0  0  0  0
   -8.4524    5.7506  -18.4393 P   0  0  0  0  0  4  0  0  0  0  0  0
  -14.2017    5.5463  -21.7204 C   0  0  0  0  0  0  0  0  0  0  0  0
  -10.3340    4.9379  -22.0525 O   0  0  0  0  0  0  0  0  0  0  0  0
  -16.5484    5.1242  -20.1973 O   0  0  0  0  0  0  0  0  0  0  0  0
   -8.9964    5.5763  -17.3735 O   0  0  0  0  0  0  0  0  0  0  0  0
  -11.8959    4.4615  -20.8827 P   0  0  1  0  0  4  0  0  0  0  0  0
  -15.7804    0.0069  -23.5423 C   0  0  0  0  0  0  0  0  0  0  0  0
   -8.3280    4.6528  -21.3797 O   0  0  0  0  0  0  0  0  0  0  0  0
  -17.2626    0.1443  -24.1479 N   0  0  0  0  0  0  0  0  0  0  0  0
  -12.2420    4.7781  -19.4353 O   0  0  0  0  0  0  0  0  0  0  0  0
   -7.5570    5.7815  -18.7779 O   0  0  0  0  0  1  0  0  0  0  0  0
   -9.6923    6.3720  -19.5892 N   0  0  0  0  0  0  0  0  0  0  0  0
  -12.7155    5.0366  -21.6321 O   0  0  0  0  0  0  0  0  0  0  0  0
  -17.8994    3.8559  -21.6775 O   0  0  0  0  0  0  0  0  0  0  0  0
   -9.3265    3.8749  -18.9716 O   0  0  0  0  0  0  0  0  0  0  0  0
  -16.4692    3.1214  -22.7126 C   0  0  1  0  0  0  0  0  0  0  0  0
  -17.2946   -0.9855  -24.2991 C   0  0  0  0  0  0  0  0  0  0  0  0
   -9.3346    5.4036  -20.9610 P   0  0  0  0  0  0  0  0  0  0  0  0
  -11.8836    3.1946  -21.1197 O   0  0  0  0  0  1  0  0  0  0  0  0
  3  1  1  0
  5  4  2  3
  6  2  2  0
  8  4  1  0
  9  2  1  0
 11  3  1  0
  3 13  1  6
 14 10  1  0
 15 12  1  0
 16  2  1  0
 16  4  1  0
 18 16  1  0
 15 19  1  1
 20 10  1  0
 21 10  1  0
 22 11  1  0
 22 15  1  0
  1 23  1  6
 24 10  1  0
 25  1  1  0
 25  7  1  6
 25  8  1  0
 26  6  1  0
 26 18  2  0
 27 12  1  0
 27 17  1  0
 27 21  1  0
 28 15  1  0
M  RAD  4  10   2  15   2  20   2  28   2
M  END
>  <ID>  (1) 
conformer_0

$$$$
