
     RDKit          3D

 29 29  0  0  0  0  0  0  0  0999 V2000
  -16.7514    3.8266  -21.7968 C   0  0  1  0  0  0  0  0  0  0  0  0
  -15.5881   -0.1132  -23.3623 C   0  0  0  0  0  0  0  0  0  0  0  0
  -15.7829    4.6196  -21.5941 C   0  0  1  0  0  0  0  0  0  0  0  0
  -14.6953    1.0753  -22.8866 C   0  0  0  0  0  0  0  0  0  0  0  0
  -17.0505    0.1390  -24.1413 N   0  0  0  0  0  0  0  0  0  0  0  0
  -13.8307    0.1801  -22.8556 N   0  0  0  0  0  0  0  0  0  0  0  0
   -8.2151    4.4955  -21.8288 O   0  0  0  0  0  0  0  0  0  0  0  0
  -11.9253    4.2956  -20.8107 P   0  0  0  0  0  0  0  0  0  0  0  0
  -15.4359    3.8963  -23.6215 O   0  0  0  0  0  0  0  0  0  0  0  0
  -14.1632   -2.6930  -23.1684 N   0  0  0  0  0  0  0  0  0  0  0  0
   -8.7993    6.0316  -18.5738 P   0  0  0  0  0  4  0  0  0  0  0  0
  -14.5509    5.1791  -22.3011 C   0  0  0  0  0  0  0  0  0  0  0  0
  -15.6875    1.7168  -23.1313 N   0  0  0  0  0  0  0  0  0  0  0  0
  -11.9186    3.0811  -20.2821 O   0  0  0  0  0  0  0  0  0  0  0  0
   -9.8468    6.3665  -19.8355 N   0  0  0  0  0  0  0  0  0  0  0  0
   -9.1800    5.3785  -21.5393 P   0  0  0  0  0  5  0  0  0  0  0  0
   -9.1043    6.3455  -22.4013 O   0  0  0  0  0  0  0  0  0  0  0  0
   -7.5300    6.0957  -18.4683 O   0  0  0  0  0  1  0  0  0  0  0  0
   -9.3761    5.9377  -17.5085 O   0  0  0  0  0  0  0  0  0  0  0  0
  -12.6224    5.2539  -19.4936 O   0  0  0  0  0  0  0  0  0  0  0  0
  -14.8850   -1.5648  -23.3291 C   0  0  1  0  0  0  0  0  0  0  0  0
  -18.2137    3.7587  -22.0909 O   0  0  0  0  0  0  0  0  0  0  0  0
  -16.4426   -2.0638  -24.0183 N   0  0  0  0  0  0  0  0  0  0  0  0
  -13.0986    4.6047  -21.6945 O   0  0  0  0  0  0  0  0  0  0  0  0
  -16.7801    5.1798  -20.4202 O   0  0  0  0  0  0  0  0  0  0  0  0
  -10.8149    4.6223  -21.6934 O   0  0  0  0  0  0  0  0  0  0  0  0
  -16.5063    3.0830  -23.1628 C   0  0  1  0  0  0  0  0  0  0  0  0
   -8.9836    4.0471  -18.6768 O   0  0  0  0  0  0  0  0  0  0  0  0
  -16.9874   -1.1371  -24.2088 C   0  0  0  0  0  0  0  0  0  0  0  0
  3  1  1  0
  4  2  1  0
  5  2  2  0
  6  4  2  3
 12  3  1  0
 13  4  1  0
 14  8  1  0
 15 11  1  0
 16  7  1  0
 16 14  1  0
 16 15  1  0
 17 16  1  0
 18 11  1  0
 19 11  1  0
 20  8  1  0
 21  2  1  0
 21 10  1  1
  1 22  1  6
 23 21  1  0
 24  8  1  0
 24 12  1  0
  3 25  1  6
 26 16  1  0
 27  1  1  0
 27  9  1  6
 27 13  1  0
 28 11  1  0
 29  5  1  0
 29 23  2  0
M  RAD  2  11   2  18   2
M  END
>  <ID>  (1) 
conformer_0

$$$$
