
     RDKit          3D

 29 29  0  0  0  0  0  0  0  0999 V2000
  -14.8391   -1.4188  -23.3869 C   0  0  0  0  0  0  0  0  0  0  0  0
  -14.5787    5.1753  -21.9698 C   0  0  0  0  0  0  0  0  0  0  0  0
  -15.8183    4.5928  -21.5637 C   0  0  2  0  0  0  0  0  0  0  0  0
  -17.1094    0.1360  -24.1261 N   0  0  0  0  0  0  0  0  0  0  0  0
  -13.7866    0.2014  -22.8622 N   0  0  0  0  0  0  0  0  0  0  0  0
  -14.6591    1.1661  -22.8363 C   0  0  0  0  0  0  0  0  0  0  0  0
   -8.9727    5.9494  -18.8155 P   0  0  0  0  0  4  0  0  0  0  0  0
  -15.4637    4.0438  -23.5253 O   0  0  0  0  0  0  0  0  0  0  0  0
  -13.9209   -2.6082  -23.1793 N   0  0  0  0  0  0  0  0  0  0  0  0
  -12.0293    4.3045  -20.5358 P   0  0  0  0  0  0  0  0  0  0  0  0
   -8.3249    4.6495  -21.6606 O   0  0  0  0  0  0  0  0  0  0  0  0
  -16.7681    3.6768  -22.0976 C   0  0  1  0  0  0  0  0  0  0  0  0
  -16.3589   -2.0137  -24.0359 N   0  0  0  0  0  0  0  0  0  0  0  0
  -11.8769    3.2738  -19.8547 O   0  0  0  0  0  0  0  0  0  0  0  0
  -16.9903    4.6470  -20.5254 O   0  0  0  0  0  0  0  0  0  0  0  0
  -15.5573    1.6953  -23.0386 N   0  0  0  0  0  0  0  0  0  0  0  0
   -9.4722    6.0373  -17.7363 O   0  0  0  0  0  0  0  0  0  0  0  0
   -7.6314    6.3108  -18.5827 O   0  0  0  0  0  1  0  0  0  0  0  0
  -15.5527   -0.1152  -23.4101 C   0  0  2  0  0  0  0  0  0  0  0  0
  -11.1236    4.6416  -21.6541 O   0  0  0  0  0  0  0  0  0  0  0  0
  -18.3424    3.7626  -22.6040 O   0  0  0  0  0  0  0  0  0  0  0  0
   -9.1980    6.1797  -20.2417 N   0  0  0  0  0  0  0  0  0  0  0  0
   -9.3541    6.1570  -22.8514 O   0  0  0  0  0  0  0  0  0  0  0  0
   -9.3393    5.4930  -21.3966 P   0  0  0  0  0  5  0  0  0  0  0  0
   -9.0441    4.0234  -18.6881 O   0  0  0  0  0  0  0  0  0  0  0  0
  -11.9027    6.0134  -19.1287 O   0  0  0  0  0  0  0  0  0  0  0  0
  -13.2627    4.3634  -21.2880 O   0  0  0  0  0  0  0  0  0  0  0  0
  -16.4761    2.9155  -23.2025 C   0  0  2  0  0  0  0  0  0  0  0  0
  -16.9330   -1.2006  -24.2313 C   0  0  0  0  0  0  0  0  0  0  0  0
  3  2  1  0
  6  5  2  3
  9  1  1  0
 12  3  1  0
 13  1  2  0
 14 10  1  0
  3 15  1  6
 16  6  1  0
 17  7  1  0
 18  7  1  0
 19  1  1  0
 19  4  1  0
 19  6  1  6
 12 21  1  6
 22  7  1  0
 24 11  1  0
 24 14  1  0
 24 20  1  0
 24 22  1  0
 24 23  1  0
 25  7  1  0
 26 10  1  0
 27  2  1  0
 27 10  1  0
 28  8  1  6
 28 12  1  0
 28 16  1  0
 29  4  2  0
 29 13  1  0
M  RAD  2   7   2  18   2
M  END
>  <ID>  (1) 
conformer_0

$$$$
