
     RDKit          3D

 29 30  0  0  0  0  0  0  0  0999 V2000
  -16.7104    3.7807  -21.9645 C   0  0  0  0  0  0  0  0  0  0  0  0
  -15.2830   -1.6017  -23.5085 C   0  0  0  0  0  0  0  0  0  0  0  0
  -15.7184    4.6184  -21.7213 C   0  0  0  0  0  0  0  0  0  0  0  0
  -16.6477   -2.1252  -24.2253 N   0  0  0  0  0  0  0  0  0  0  0  0
  -15.9179   -0.1139  -23.4815 C   0  0  0  0  0  0  0  0  0  0  0  0
  -14.2758   -0.0736  -22.8651 N   0  0  0  0  0  0  0  0  0  0  0  0
   -8.4640    5.7664  -18.3812 P   0  0  0  0  0  4  0  0  0  0  0  0
  -15.3104    3.7828  -23.4832 O   0  0  0  0  0  0  0  0  0  0  0  0
  -14.4722   -2.7610  -23.3561 N   0  0  0  0  0  0  0  0  0  0  0  0
  -15.7249    1.6640  -23.0418 N   0  0  0  0  0  0  0  0  0  0  0  0
  -12.5592    4.3517  -19.4867 O   0  0  0  0  0  0  0  0  0  0  0  0
  -11.9888    4.2050  -20.9703 P   0  0  0  0  0  5  0  0  0  0  0  0
   -8.5391    4.2651  -21.4032 O   0  0  0  0  0  0  0  0  0  0  0  0
  -13.1582    4.3131  -21.8079 O   0  0  0  0  0  0  0  0  0  0  0  0
   -7.1706    5.6868  -18.2286 O   0  0  0  0  0  1  0  0  0  0  0  0
   -9.1015    6.2298  -22.3105 O   0  0  0  0  0  0  0  0  0  0  0  0
  -14.5601    5.2839  -21.8719 C   0  0  0  0  0  0  0  0  0  0  0  0
   -9.1836    5.8770  -17.4767 O   0  0  0  0  0  0  0  0  0  0  0  0
  -17.2289    0.0614  -24.1897 N   0  0  0  0  0  0  0  0  0  0  0  0
  -17.3326   -1.1125  -24.4204 C   0  0  0  0  0  0  0  0  0  0  0  0
  -17.2096    4.6050  -20.6683 O   0  0  0  0  0  0  0  0  0  0  0  0
  -11.4209    2.8185  -20.6590 O   0  0  0  0  0  0  0  0  0  0  0  0
   -9.4303    5.4116  -21.1664 P   0  0  0  0  0  0  0  0  0  0  0  0
  -18.1368    4.3565  -22.7777 O   0  0  0  0  0  0  0  0  0  0  0  0
   -9.0322    4.0810  -18.7178 O   0  0  0  0  0  0  0  0  0  0  0  0
  -10.9438    4.8682  -21.7259 O   0  0  0  0  0  0  0  0  0  0  0  0
  -16.4644    3.0347  -23.0759 C   0  0  0  0  0  0  0  0  0  0  0  0
   -9.2592    6.6104  -19.8866 N   0  0  0  0  0  0  0  0  0  0  0  0
  -14.9742    1.0129  -22.8875 C   0  0  0  0  0  0  0  0  0  0  0  0
  3  1  1  0
  4  2  2  0
  5  2  1  0
  6  5  1  0
  9  2  1  0
 12 11  1  0
 14 12  1  0
 15  7  1  0
 16 12  1  0
 17  3  1  0
 17 14  1  0
 18  7  1  0
 19  5  1  0
 20  4  1  0
 20 19  2  0
 21  1  1  0
 22 12  1  0
 23 13  1  0
 23 16  1  0
 24  1  1  0
 25  7  1  0
 26 12  1  0
 27  1  1  0
 27  8  1  0
 27 10  1  0
 28  7  1  0
 28 23  1  0
 29  5  1  0
 29  6  2  0
 29 10  1  0
M  RAD  2   7   2  15   2
M  END
>  <ID>  (1) 
conformer_0

$$$$
