
     RDKit          3D

 29 29  0  0  0  0  0  0  0  0999 V2000
  -15.0449   -1.3492  -23.5280 C   0  0  0  0  0  0  0  0  0  0  0  0
  -16.9052    3.7186  -21.7553 C   0  0  1  0  0  0  0  0  0  0  0  0
  -15.7136    4.6383  -21.5495 C   0  0  1  0  0  0  0  0  0  0  0  0
  -15.6748    0.0658  -23.4826 C   0  0  0  0  0  0  0  0  0  0  0  0
  -17.1819    0.1311  -23.9857 N   0  0  0  0  0  0  0  0  0  0  0  0
  -13.8622    0.2071  -22.9079 N   0  0  0  0  0  0  0  0  0  0  0  0
  -11.8451    4.5932  -20.8759 P   0  0  0  0  0  5  0  0  0  0  0  0
   -8.1857    4.4739  -21.5387 O   0  0  0  0  0  0  0  0  0  0  0  0
  -14.1811   -2.5792  -23.3946 N   0  0  0  0  0  0  0  0  0  0  0  0
   -8.5842    5.6745  -18.3669 P   0  0  0  0  0  4  0  0  0  0  0  0
  -15.5412    1.7486  -23.0657 N   0  0  0  0  0  0  0  0  0  0  0  0
  -15.2929    4.0507  -23.4489 O   0  0  0  0  0  0  0  0  0  0  0  0
  -14.4487    5.2733  -22.0002 C   0  0  0  0  0  0  0  0  0  0  0  0
  -17.1962   -1.1158  -24.2559 C   0  0  0  0  0  0  0  0  0  0  0  0
  -12.8256    4.9026  -21.6342 O   0  0  0  0  0  0  0  0  0  0  0  0
  -16.6842    5.1151  -20.4000 O   0  0  0  0  0  0  0  0  0  0  0  0
  -16.5260   -2.0545  -24.1519 N   0  0  0  0  0  0  0  0  0  0  0  0
   -7.4531    5.5225  -18.0449 O   0  0  0  0  0  1  0  0  0  0  0  0
   -8.9994    4.0267  -18.6076 O   0  0  0  0  0  0  0  0  0  0  0  0
  -18.3952    3.7856  -22.5494 O   0  0  0  0  0  0  0  0  0  0  0  0
   -9.3972    5.9800  -22.6999 O   0  0  0  0  0  0  0  0  0  0  0  0
   -9.1334    5.2712  -21.3533 P   0  0  0  0  0  0  0  0  0  0  0  0
   -9.2632    6.3747  -18.0315 O   0  0  0  0  0  0  0  0  0  0  0  0
  -12.2417    5.3181  -19.2887 O   0  0  0  0  0  0  0  0  0  0  0  0
  -14.7012    1.1771  -22.9242 C   0  0  0  0  0  0  0  0  0  0  0  0
  -16.5829    3.2273  -22.9701 C   0  0  2  0  0  0  0  0  0  0  0  0
   -9.4857    6.0117  -19.6497 N   0  0  0  0  0  0  0  0  0  0  0  0
  -11.9042    3.0607  -20.5718 O   0  0  0  0  0  0  0  0  0  0  0  0
  -10.7393    4.6982  -21.7035 O   0  0  0  0  0  0  0  0  0  0  0  0
  3  2  1  0
  4  1  2  0
  5  4  1  0
  9  1  1  0
 13  3  1  0
 14  5  2  0
 15  7  1  0
 15 13  1  0
  3 16  1  6
 17  1  1  0
 17 14  1  0
 18 10  1  0
 19 10  1  0
  2 20  1  6
 21  7  1  0
 22  8  1  0
 22 21  1  0
 23 10  1  0
 24  7  1  0
 25  4  1  0
 25  6  2  3
 25 11  1  0
 26  2  1  0
 26 11  1  0
 26 12  1  6
 27 10  1  0
 27 22  1  0
 28  7  1  0
 29  7  1  0
M  RAD  2  10   2  18   2
M  END
>  <ID>  (1) 
conformer_0

$$$$
