
     RDKit          3D

 25 24  0  0  0  0  0  0  0  0999 V2000
  -16.8358   -0.8472  -24.1039 C   0  0  0  0  0  0  0  0  0  0  0  0
  -15.5590    4.7002  -21.7392 C   0  0  1  0  0  0  0  0  0  0  0  0
  -16.4866    3.6700  -21.9352 C   0  0  1  0  0  0  0  0  0  0  0  0
  -17.2587    0.3106  -24.1439 N   0  0  0  0  0  0  0  0  0  0  0  0
  -15.1941    0.7443  -23.2192 C   0  0  0  0  0  0  0  0  0  0  0  0
  -15.3810    3.9833  -23.5320 O   0  0  0  0  0  0  0  0  0  0  0  0
   -8.4997    4.3156  -21.4561 O   0  0  0  0  0  0  0  0  0  0  0  0
  -14.1395    0.0448  -23.0008 N   0  0  0  0  0  0  0  0  0  0  0  0
  -14.1859   -2.5531  -23.5244 N   0  0  0  0  0  0  0  0  0  0  0  0
   -9.1766    5.6696  -20.0054 P   0  0  0  0  0  5  0  0  0  0  0  0
  -11.7007    2.8858  -20.4069 O   0  0  0  0  0  0  0  0  0  0  0  0
  -16.3852    4.8747  -20.3748 O   0  0  0  0  0  0  0  0  0  0  0  0
  -15.7187    1.6014  -23.1023 N   0  0  0  0  0  0  0  0  0  0  0  0
  -11.8353    4.2587  -20.8112 P   0  0  0  0  0  0  0  0  0  0  0  0
   -8.7133    6.5275  -21.6470 O   0  0  0  0  0  0  0  0  0  0  0  0
  -14.4210    5.1819  -21.9530 C   0  0  0  0  0  0  0  0  0  0  0  0
   -9.3110    5.7823  -19.3844 N   0  0  0  0  0  0  0  0  0  0  0  0
  -12.6543    5.1990  -19.3517 O   0  0  0  0  0  0  0  0  0  0  0  0
  -16.5610   -1.9414  -24.1713 N   0  0  0  0  0  0  0  0  0  0  0  0
  -15.1608   -1.1183  -23.5474 C   0  0  0  0  0  0  0  0  0  0  0  0
  -17.9909    3.9067  -21.7641 O   0  0  0  0  0  0  0  0  0  0  0  0
  -13.1258    4.3466  -21.6366 O   0  0  0  0  0  0  0  0  0  0  0  0
  -11.0193    4.8426  -21.2919 O   0  0  0  0  0  0  0  0  0  0  0  0
  -16.4013    2.9348  -23.0333 C   0  0  1  0  0  0  0  0  0  0  0  0
  -10.1789    6.2087  -18.2400 O   0  0  0  0  0  0  0  0  0  0  0  0
  3  2  1  0
  4  1  2  3
  8  5  2  3
 10  7  1  0
 11 10  1  0
  2 12  1  1
 13  5  1  0
 15 10  1  0
 16  2  1  0
 17 10  1  0
 18 14  1  0
 19  1  1  0
 20  1  1  0
 20  8  1  0
 20  9  2  3
  3 21  1  6
 22 14  1  0
 22 16  1  0
 23 10  1  0
 23 14  1  0
 24  3  1  0
 24  6  1  6
 24 13  1  0
 25 17  1  0
M  END
>  <ID>  (1) 
conformer_0

$$$$
