
     RDKit          3D

 30 30  0  0  0  0  0  0  0  0999 V2000
  -17.2114   -1.0878  -24.3040 C   0  0  0  0  0  0  0  0  0  0  0  0
  -16.7336    3.7498  -21.8346 C   0  0  0  0  0  0  0  0  0  0  0  0
  -15.7384    4.6907  -21.3794 C   0  0  0  0  0  0  0  0  0  0  0  0
  -17.1164    0.2985  -24.0374 N   0  0  0  0  0  0  0  0  0  0  0  0
  -14.5288    0.9986  -22.8781 C   0  0  0  0  0  0  0  0  0  0  0  0
  -13.8652   -0.0774  -22.9342 N   0  0  0  0  0  0  0  0  0  0  0  0
  -14.2175   -2.6886  -23.4132 N   0  0  0  0  0  0  0  0  0  0  0  0
  -11.7232    4.0813  -20.6864 P   0  0  0  0  0  0  0  0  0  0  0  0
  -15.4113    1.6196  -22.9979 N   0  0  0  0  0  0  0  0  0  0  0  0
  -15.4746    3.9838  -23.4620 O   0  0  0  0  0  0  0  0  0  0  0  0
   -8.6455    5.2912  -18.5107 P   0  0  0  0  0  4  0  0  0  0  0  0
  -16.5708   -1.9237  -24.1892 N   0  0  0  0  0  0  0  0  0  0  0  0
   -7.3775    5.8686  -18.3046 O   0  0  0  0  0  1  0  0  0  0  0  0
   -8.4577    4.3539  -21.8638 O   0  0  0  0  0  0  0  0  0  0  0  0
  -12.5083    4.3528  -19.5578 O   0  0  0  0  0  0  0  0  0  0  0  0
  -14.4599    5.1698  -22.0685 C   0  0  0  0  0  0  0  0  0  0  0  0
  -13.1297    4.4448  -21.7720 O   0  0  0  0  0  0  0  0  0  0  0  0
   -9.6761    6.0448  -23.1099 O   0  0  0  0  0  0  0  0  0  0  0  0
  -18.2560    3.8598  -22.6205 O   0  0  0  0  0  0  0  0  0  0  0  0
  -15.0558   -1.5432  -23.5566 C   0  0  0  0  0  0  0  0  0  0  0  0
  -10.7408    2.7277  -20.0314 O   0  0  0  0  0  0  0  0  0  0  0  0
   -9.3397    5.7123  -17.5040 O   0  0  0  0  0  0  0  0  0  0  0  0
   -9.3751    5.1225  -19.9579 N   0  0  0  0  0  0  0  0  0  0  0  0
   -9.5669    5.4555  -21.6237 P   0  0  0  0  0  7  0  0  0  0  0  0
   -8.3960    3.7484  -17.9837 O   0  0  0  0  0  0  0  0  0  0  0  0
  -17.2971    4.8566  -20.6941 O   0  0  0  0  0  0  0  0  0  0  0  0
  -16.2369    2.9934  -22.9985 C   0  0  2  0  0  0  0  0  0  0  0  0
   -8.8832    6.4421  -20.9670 O   0  0  0  0  0  0  0  0  0  0  0  0
  -11.0919    4.5920  -21.7867 O   0  0  0  0  0  0  0  0  0  0  0  0
  -15.6156   -0.1497  -23.4853 C   0  0  0  0  0  0  0  0  0  0  0  0
  3  2  1  0
  4  1  2  0
  6  5  2  3
  9  5  1  0
 12  1  1  0
 13 11  1  0
 15  8  1  0
 16  3  1  0
 17  8  1  0
 17 16  1  0
 19  2  1  0
 20  7  1  0
 20 12  1  0
 22 11  1  0
 23 11  1  0
 24 14  1  0
 24 18  1  0
 24 21  1  0
 24 23  1  0
 25 11  1  0
 26  2  1  0
 27  2  1  0
 27  9  1  0
 27 10  1  1
 28 24  1  0
 29  8  1  0
 29 24  1  0
 30  4  1  0
 30  5  1  0
 30 20  2  0
M  RAD  2  11   2  13   2
M  END
>  <ID>  (1) 
conformer_0

$$$$
