
     RDKit          3D

 30 33  0  0  0  0  0  0  0  0999 V2000
  -16.8524    3.5018  -22.1155 C   0  0  0  0  0  0  0  0  0  0  0  0
  -15.6872   -0.0408  -23.4301 C   0  0  0  0  0  0  0  0  0  0  0  0
  -15.1542    4.9499  -22.0882 C   0  0  0  0  0  0  0  0  0  0  0  0
  -17.2927    0.1804  -24.0394 N   0  0  0  0  0  2  0  0  0  0  0  0
  -13.7986    0.0329  -22.9027 N   0  0  0  0  0  0  0  0  0  0  0  0
  -14.5485    0.9692  -22.9297 C   0  0  0  0  0  0  0  0  0  0  0  0
  -15.2949    4.0907  -23.6084 O   0  0  0  0  0  0  0  0  0  0  0  0
   -8.4594    6.0235  -18.5289 P   0  0  0  0  0  5  0  0  0  0  0  0
   -8.3656    4.4610  -21.5272 O   0  0  0  0  0  0  0  0  0  0  0  0
  -13.8208    5.3576  -22.0879 C   0  0  0  0  0  0  0  0  0  0  0  0
  -14.0156   -2.6017  -23.1830 N   0  0  0  0  0  0  0  0  0  0  0  0
  -11.8828    4.0417  -20.7445 P   0  0  0  0  0  4  0  0  0  0  0  0
  -15.6569    1.7287  -23.1117 N   0  0  0  0  0  0  0  0  0  0  0  0
  -14.8408   -1.4600  -23.3898 C   0  0  0  0  0  0  0  0  0  0  0  0
  -10.7996    4.8627  -21.8948 O   0  0  0  0  0  0  0  0  0  0  0  0
   -7.2273    5.7053  -18.4611 O   0  0  0  0  0  0  0  0  0  0  0  0
  -16.4533   -1.9177  -24.0648 N   0  0  0  0  0  0  0  0  0  0  0  0
   -9.0445    6.5129  -21.8611 O   0  0  0  0  0  0  0  0  0  0  0  0
   -9.8431    6.2616  -19.8125 N   0  0  0  0  0  0  0  0  0  0  0  0
   -9.0752    4.3659  -18.4219 O   0  0  0  0  0  0  0  0  0  0  0  0
  -16.9301    4.7126  -20.5299 O   0  0  0  0  0  0  0  0  0  0  0  0
  -12.5808    4.7387  -19.5219 O   0  0  0  0  0  0  0  0  0  0  0  0
   -8.8584    6.7688  -17.8033 O   0  0  0  0  0  0  0  0  0  0  0  0
   -9.3522    5.4590  -21.0238 P   0  0  0  0  0  0  0  0  0  0  0  0
  -16.2198    2.8491  -23.2875 C   0  0  0  0  0  0  0  0  0  0  0  0
  -11.4840    2.9044  -20.4431 O   0  0  0  0  0  1  0  0  0  0  0  0
  -18.1983    3.7282  -22.1955 O   0  0  0  0  0  0  0  0  0  0  0  0
  -12.8587    4.2192  -21.6546 O   0  0  0  0  0  0  0  0  0  0  0  0
  -17.1267   -1.0871  -24.1992 C   0  0  0  0  0  0  0  0  0  0  0  0
  -16.0040    4.2590  -21.2346 C   0  0  0  0  0  0  0  0  0  0  0  0
  4  2  1  0
  6  2  1  0
  6  5  2  0
  7  3  1  0
 10  3  1  0
 13  2  1  0
 13  6  1  0
 14  2  1  0
 14  5  1  0
 14 11  1  0
 15 12  1  0
 16  8  1  0
 17 14  1  0
 18  8  1  0
 19  8  1  0
 20  8  1  0
 22 12  1  0
 23  8  1  0
 24  9  1  0
 24 15  1  0
 24 18  1  0
 25  1  1  0
 25  7  1  0
 25 13  1  0
 26 12  1  0
 27  1  1  0
 28 10  1  0
 28 12  1  0
 29  4  1  0
 29 17  2  0
 30  1  1  0
 30  3  1  0
 30 21  1  0
M  RAD  3   4   2  12   2  26   2
M  END
>  <ID>  (1) 
conformer_0

$$$$
