
     RDKit          3D

 28 30  0  0  0  0  0  0  0  0999 V2000
  -16.4690    3.7318  -21.9262 C   0  0  0  0  0  0  0  0  0  0  0  0
  -15.8450    0.1155  -23.6118 C   0  0  1  0  0  0  0  0  0  0  0  0
  -16.3796    2.9857  -23.2216 C   0  0  1  0  0  0  0  0  0  0  0  0
  -17.2659    0.2896  -24.1292 N   0  0  0  0  0  2  0  0  0  0  0  0
  -14.6467    0.9101  -23.0440 C   0  0  0  0  0  0  0  0  0  0  0  0
  -14.1153   -0.0362  -23.0385 N   0  0  0  0  0  0  0  0  0  0  0  0
   -9.6807    6.3521  -19.7609 N   0  0  0  0  0  0  0  0  0  0  0  0
  -15.3981    3.9647  -23.5295 O   0  0  0  0  0  0  0  0  0  0  0  0
   -8.3815    4.2904  -21.3840 O   0  0  0  0  0  0  0  0  0  0  0  0
  -14.3737   -2.6726  -23.3816 N   0  0  0  0  0  0  0  0  0  0  0  0
  -15.6495    1.6523  -23.2168 N   0  0  0  0  0  0  0  0  0  0  0  0
  -11.5061    2.6539  -20.4962 O   0  0  0  0  0  1  0  0  0  0  0  0
   -8.7498    5.6006  -18.4943 P   0  0  0  0  0  5  0  0  0  0  0  0
   -8.9773    6.1918  -22.1652 O   0  0  0  0  0  0  0  0  0  0  0  0
  -17.0084    4.6789  -20.6954 O   0  0  0  0  0  0  0  0  0  0  0  0
  -15.4067    4.6375  -21.5562 C   0  0  0  0  0  0  0  0  0  0  0  0
  -11.9231    4.0093  -20.6482 P   0  0  2  0  0  4  0  0  0  0  0  0
  -12.5921    4.6522  -19.3782 O   0  0  0  0  0  0  0  0  0  0  0  0
   -7.6224    5.4547  -18.2032 O   0  0  0  0  0  0  0  0  0  0  0  0
  -15.0609   -1.5229  -23.5512 C   0  0  1  0  0  0  0  0  0  0  0  0
  -16.6165   -1.8722  -24.1943 N   0  0  0  0  0  0  0  0  0  0  0  0
   -9.6399    5.7309  -17.5418 O   0  0  0  0  0  0  0  0  0  0  0  0
   -9.3129    5.2873  -21.1958 P   0  0  0  0  0  0  0  0  0  0  0  0
  -12.9057    4.0861  -21.5431 O   0  0  0  0  0  0  0  0  0  0  0  0
  -10.7938    4.8011  -21.4022 O   0  0  0  0  0  0  0  0  0  0  0  0
   -9.1235    3.9557  -18.9606 O   0  0  0  0  0  0  0  0  0  0  0  0
  -14.2135    5.0608  -22.0117 C   0  0  0  0  0  0  0  0  0  0  0  0
  -17.2615   -0.9858  -24.3278 C   0  0  0  0  0  0  0  0  0  0  0  0
  3  1  1  0
  2  4  1  6
  5  2  1  0
  6  5  2  0
  3  8  1  6
 11  2  1  0
 11  3  1  0
 11  5  1  0
 13  7  1  0
 14 13  1  0
 15  1  1  0
 16  1  2  3
 17 12  1  1
 18 17  1  0
 19 13  1  0
 20  2  1  0
 20  6  1  0
 20 10  1  1
 21 20  1  0
 22 13  1  0
 23  9  1  0
 23 14  1  0
 24 17  1  0
 25 17  1  0
 25 23  1  0
 26 13  1  0
 27 16  1  0
 27 24  1  0
 28  4  1  0
 28 21  2  0
M  RAD  3   4   2  12   2  17   2
M  END
>  <ID>  (1) 
conformer_0

$$$$
