
     RDKit          3D

 29 30  0  0  0  0  0  0  0  0999 V2000
  -16.7341    3.1602  -22.8107 C   0  0  1  0  0  0  0  0  0  0  0  0
  -15.0865   -1.3804  -23.4667 C   0  0  0  0  0  0  0  0  0  0  0  0
  -16.9363    3.4596  -21.8108 C   0  0  1  0  0  0  0  0  0  0  0  0
  -17.2089    0.3427  -24.1031 N   0  0  0  0  0  0  0  0  0  0  0  0
  -15.7737    0.0260  -23.3705 C   0  0  0  0  0  0  0  0  0  0  0  0
  -13.8963    0.2844  -22.8762 N   0  0  0  0  0  0  0  0  0  0  0  0
   -8.8061    5.7363  -18.5916 P   0  0  0  0  0  4  0  0  0  0  0  0
  -15.5877    4.3489  -23.3294 O   0  0  0  0  0  0  0  0  0  0  0  0
  -14.2154   -2.5724  -23.3227 N   0  0  0  0  0  0  0  0  0  0  0  0
   -8.3456    4.2092  -21.6177 O   0  0  0  0  0  0  0  0  0  0  0  0
  -16.5471   -1.9790  -24.1137 N   0  0  0  0  0  0  0  0  0  0  0  0
  -15.6918    1.7336  -22.9192 N   0  0  0  0  0  0  0  0  0  0  0  0
  -15.7454    4.6040  -21.4384 C   0  0  0  0  0  0  0  0  0  0  0  0
  -13.0524    4.6970  -21.8868 O   0  0  0  0  0  0  0  0  0  0  0  0
  -17.3991    4.4603  -20.4752 O   0  0  0  0  0  0  0  0  0  0  0  0
  -11.9842    4.4297  -21.1228 P   0  0  0  0  0  5  0  0  0  0  0  0
  -18.4407    3.5015  -22.7613 O   0  0  0  0  0  0  0  0  0  0  0  0
   -7.5407    5.8602  -18.1312 O   0  0  0  0  0  1  0  0  0  0  0  0
   -9.0683    6.2174  -22.4659 O   0  0  0  0  0  0  0  0  0  0  0  0
  -17.1559   -1.0866  -24.2543 C   0  0  0  0  0  0  0  0  0  0  0  0
  -12.4989    4.6484  -19.4584 O   0  0  0  0  0  0  0  0  0  0  0  0
   -9.8605    6.4844  -18.4172 O   0  0  0  0  0  0  0  0  0  0  0  0
  -11.4636    2.9582  -20.4477 O   0  0  0  0  0  0  0  0  0  0  0  0
   -9.3080    5.3296  -21.3369 P   0  0  0  0  0  0  0  0  0  0  0  0
   -8.3898    5.9341  -20.0318 N   0  0  0  0  0  0  0  0  0  0  0  0
   -9.1698    4.3341  -18.2683 O   0  0  0  0  0  0  0  0  0  0  0  0
  -14.5984    5.2866  -22.0502 C   0  0  1  0  0  0  0  0  0  0  0  0
  -10.8495    4.8634  -21.6535 O   0  0  0  0  0  0  0  0  0  0  0  0
  -14.7170    1.1778  -22.8573 C   0  0  0  0  0  0  0  0  0  0  0  0
  3  1  1  0
  5  2  2  0
  5  4  1  0
  8  1  1  0
  9  2  1  0
 11  2  1  0
 12  1  1  0
 13  3  1  0
  3 15  1  6
 16 14  1  0
  1 17  1  6
 18  7  1  0
 19 16  1  0
 20  4  2  0
 20 11  1  0
 21 16  1  0
 22  7  1  0
 23 16  1  0
 24 10  1  0
 24 19  1  0
 25  7  1  0
 25 24  1  0
 26  7  1  0
 27  8  1  0
 27 13  1  0
 27 14  1  1
 28 16  1  0
 29  5  1  0
 29  6  2  3
 29 12  1  0
M  RAD  2   7   2  18   2
M  END
>  <ID>  (1) 
conformer_0

$$$$
