
     RDKit          3D

 29 29  0  0  0  0  0  0  0  0999 V2000
  -16.5434    3.7741  -21.9563 C   0  0  1  0  0  0  0  0  0  0  0  0
  -14.7398   -1.4559  -23.3937 C   0  0  0  0  0  0  0  0  0  0  0  0
  -15.5334    4.6359  -21.7191 C   0  0  1  0  0  0  0  0  0  0  0  0
  -14.4129    1.1432  -22.8742 C   0  0  0  0  0  0  0  0  0  0  0  0
  -13.6309    0.1515  -22.9124 N   0  0  0  0  0  0  0  0  0  0  0  0
  -16.9522    0.1589  -24.0205 N   0  0  0  0  0  0  0  0  0  0  0  0
   -8.8954    6.0726  -18.5024 P   0  0  0  0  0  5  0  0  0  0  0  0
  -15.3596    3.8889  -23.6637 O   0  0  0  0  0  0  0  0  0  0  0  0
   -8.6782    4.3031  -21.4770 O   0  0  0  0  0  0  0  0  0  0  0  0
  -13.9261   -2.7520  -23.3261 N   0  0  0  0  0  0  0  0  0  0  0  0
  -12.0137    4.2277  -20.9005 P   0  0  0  0  0  0  0  0  0  0  0  0
  -14.3060    5.0776  -22.2426 C   0  0  0  0  0  0  0  0  0  0  0  0
  -15.5098    1.7060  -23.0456 N   0  0  0  0  0  0  0  0  0  0  0  0
   -8.9436    6.5082  -21.5307 O   0  0  0  0  0  0  0  0  0  0  0  0
  -10.9365    4.9512  -21.8159 O   0  0  0  0  0  1  0  0  0  0  0  0
  -16.2197   -2.1026  -23.9785 N   0  0  0  0  0  0  0  0  0  0  0  0
  -16.6566    5.1225  -20.6676 O   0  0  0  0  0  0  0  0  0  0  0  0
   -7.9403    5.6542  -17.8454 O   0  0  0  0  0  0  0  0  0  0  0  0
  -16.8580   -1.2465  -24.1525 C   0  0  0  0  0  0  0  0  0  0  0  0
   -9.1504    4.1130  -19.1128 O   0  0  0  0  0  0  0  0  0  0  0  0
  -12.4874    5.4019  -19.6147 O   0  0  0  0  0  0  0  0  0  0  0  0
   -9.6040    6.7909  -19.2810 N   0  0  0  0  0  0  0  0  0  0  0  0
  -11.9545    3.0353  -20.1946 O   0  0  0  0  0  0  0  0  0  0  0  0
  -18.0797    4.0596  -22.1244 O   0  0  0  0  0  0  0  0  0  0  0  0
   -9.4866    5.4925  -20.9022 P   0  0  2  0  0  4  0  0  0  0  0  0
  -16.3581    2.9228  -23.0177 C   0  0  1  0  0  0  0  0  0  0  0  0
  -15.5480    0.0511  -23.3566 C   0  0  1  0  0  0  0  0  0  0  0  0
  -10.0884    6.0492  -18.1878 O   0  0  0  0  0  0  0  0  0  0  0  0
  -12.8966    4.1902  -21.7213 O   0  0  0  0  0  0  0  0  0  0  0  0
  3  1  1  0
  5  4  2  3
 10  2  1  0
 12  3  1  0
 13  4  1  0
 14  7  1  0
 16  2  2  0
  3 17  1  6
 18  7  1  0
 19  6  2  0
 19 16  1  0
 20  7  1  0
 21 11  1  0
 22  7  1  0
 23 11  1  0
  1 24  1  6
 25  9  1  6
 25 14  1  0
 25 15  1  0
 25 23  1  0
 26  1  1  0
 26  8  1  6
 26 13  1  0
 27  2  1  0
 27  4  1  6
 27  6  1  0
 28  7  1  0
 29 11  1  0
 29 12  1  0
M  RAD  2  15   2  25   2
M  END
>  <ID>  (1) 
conformer_0

$$$$
