
     RDKit          3D

 29 30  0  0  0  0  0  0  0  0999 V2000
  -16.4663    3.8823  -21.5906 C   0  0  1  0  0  0  0  0  0  0  0  0
  -17.0358   -1.0890  -24.2189 C   0  0  0  0  0  0  0  0  0  0  0  0
  -16.5048    2.9907  -22.7508 C   0  0  1  0  0  0  0  0  0  0  0  0
  -17.1395    0.3498  -24.0328 N   0  0  0  0  0  0  0  0  0  0  0  0
  -14.4800    1.0101  -22.8376 C   0  0  0  0  0  0  0  0  0  0  0  0
  -13.8019    0.0339  -22.9065 N   0  0  0  0  0  0  0  0  0  0  0  0
  -14.2255   -2.7272  -23.3100 N   0  0  0  0  0  0  0  0  0  0  0  0
  -15.5038    3.8536  -23.4684 O   0  0  0  0  0  0  0  0  0  0  0  0
   -8.2965    4.3643  -21.7448 O   0  0  0  0  0  0  0  0  0  0  0  0
  -16.5169   -1.9045  -24.0713 N   0  0  0  0  0  0  0  0  0  0  0  0
   -8.9198    5.7978  -18.8403 P   0  0  1  0  0  4  0  0  0  0  0  0
  -15.4426    4.8527  -21.6446 C   0  0  1  0  0  0  0  0  0  0  0  0
   -9.4481    5.5897  -19.8987 N   0  0  0  0  0  0  0  0  0  0  0  0
  -11.7414    4.0956  -20.5873 P   0  0  0  0  0  5  0  0  0  0  0  0
  -10.5105    4.9095  -22.1934 O   0  0  0  0  0  0  0  0  0  0  0  0
  -15.5832    1.7331  -22.9177 N   0  0  0  0  0  0  0  0  0  0  0  0
  -16.5598    5.3379  -20.4959 O   0  0  0  0  0  0  0  0  0  0  0  0
  -14.9288   -1.4616  -23.4340 C   0  0  0  0  0  3  0  0  0  0  0  0
   -8.8209    6.5436  -22.0366 O   0  0  0  0  0  0  0  0  0  0  0  0
   -7.8770    6.6808  -18.4620 O   0  0  0  0  0  1  0  0  0  0  0  0
   -8.9434    4.6696  -18.2418 O   0  0  0  0  0  0  0  0  0  0  0  0
  -11.0431    2.9182  -20.5167 O   0  0  0  0  0  0  0  0  0  0  0  0
   -9.2533    5.5089  -21.5117 P   0  0  0  0  0  0  0  0  0  0  0  0
  -11.8635    5.7862  -19.5896 O   0  0  0  0  0  0  0  0  0  0  0  0
  -12.6624    4.2501  -21.7706 O   0  0  0  0  0  0  0  0  0  0  0  0
  -14.0900    4.9767  -22.3122 C   0  0  0  0  0  0  0  0  0  0  0  0
  -15.7117    0.1029  -23.3808 C   0  0  1  0  0  0  0  0  0  0  0  0
  -12.7724    3.7374  -19.6295 O   0  0  0  0  0  0  0  0  0  0  0  0
  -18.0366    4.2381  -21.4854 O   0  0  0  0  0  0  0  0  0  0  0  0
  3  1  1  0
  4  2  2  0
  6  5  2  3
  3  8  1  6
 10  2  1  0
 12  1  1  0
 11 13  1  1
 15 14  1  0
 16  3  1  0
 16  5  1  0
 12 17  1  1
 18  7  1  0
 18 10  1  0
 19 11  1  0
 20 11  1  0
 21 11  1  0
 22 14  1  0
 23  9  1  0
 23 15  1  0
 23 19  1  0
 24 14  1  0
 25 14  1  0
 26 12  1  0
 26 25  1  0
 27  4  1  0
 27  5  1  0
 27 16  1  0
 27 18  1  1
 28 22  1  0
  1 29  1  6
M  RAD  3  11   2  18   2  20   2
M  END
>  <ID>  (1) 
conformer_0

$$$$
