
     RDKit          3D

 28 29  0  0  0  0  0  0  0  0999 V2000
  -16.5067    3.9196  -21.6438 C   0  0  2  0  0  0  0  0  0  0  0  0
  -17.0449   -1.1450  -24.1966 C   0  0  0  0  0  0  0  0  0  0  0  0
  -15.3567    4.6968  -21.5170 C   0  0  2  0  0  0  0  0  0  0  0  0
  -17.2157    0.2810  -24.0625 N   0  0  0  0  0  0  0  0  0  0  0  0
  -14.7734    0.9364  -22.9301 C   0  0  0  0  0  0  0  0  0  0  0  0
  -13.9092    0.2628  -22.8870 N   0  0  0  0  0  0  0  0  0  0  0  0
  -14.1783   -2.6195  -23.3221 N   0  0  0  0  0  0  0  0  0  0  0  0
   -8.1350    4.4602  -21.7577 O   0  0  0  0  0  0  0  0  0  0  0  0
   -9.7828    5.9312  -19.7634 N   0  0  0  0  0  0  0  0  0  0  0  0
  -15.7852    1.7978  -23.0198 N   0  0  0  0  0  0  0  0  0  0  0  0
  -15.4747    4.0868  -23.5386 O   0  0  0  0  0  0  0  0  0  0  0  0
   -8.9165    5.8355  -18.7276 P   0  0  1  0  0  4  0  0  0  0  0  0
  -11.6341    3.0807  -20.1417 O   0  0  0  0  0  0  0  0  0  0  0  0
  -16.3492    5.3018  -20.2090 O   0  0  0  0  0  0  0  0  0  0  0  0
   -9.1096    6.2334  -22.6195 O   0  0  0  0  0  0  0  0  0  0  0  0
  -15.0326   -1.4623  -23.4184 C   0  0  0  0  0  0  0  0  0  0  0  0
  -16.5146   -1.8956  -24.0935 N   0  0  0  0  0  0  0  0  0  0  0  0
  -14.2760    5.1423  -22.1742 C   0  0  0  0  0  0  0  0  0  0  0  0
  -11.7397    4.2605  -20.5877 P   0  0  0  0  0  0  0  0  0  0  0  0
   -8.9422    5.1006  -17.8742 O   0  0  0  0  0  0  0  0  0  0  0  0
  -12.2661    5.5144  -19.5949 O   0  0  0  0  0  0  0  0  0  0  0  0
   -9.1020    5.4902  -21.6011 P   0  0  0  0  0  5  0  0  0  0  0  0
  -13.0103    4.3957  -21.3926 O   0  0  0  0  0  0  0  0  0  0  0  0
   -7.6381    6.1428  -18.5724 O   0  0  0  0  0  1  0  0  0  0  0  0
  -10.7227    4.5727  -21.7636 O   0  0  0  0  0  0  0  0  0  0  0  0
  -15.9748    0.2263  -23.4684 C   0  0  2  0  0  0  0  0  0  0  0  0
  -16.3509    3.1602  -23.0037 C   0  0  2  0  0  0  0  0  0  0  0  0
  -17.7714    4.3642  -21.2303 O   0  0  0  0  0  0  0  0  0  0  0  0
  3  1  1  0
  4  2  2  0
  6  5  2  3
 10  5  1  0
 12  9  1  0
  3 14  1  6
 16  7  1  0
 17  2  1  0
 17 16  2  3
 18  3  1  0
 19 13  1  0
 12 20  1  6
 21 19  1  0
 22  8  1  0
 22  9  1  0
 22 13  1  0
 22 15  1  0
 23 18  1  0
 23 19  1  0
 24 12  1  0
 25 22  1  0
 26  2  1  0
 26  4  1  0
 26  5  1  0
 26 10  1  1
 27  1  1  0
 27 10  1  0
 27 11  1  6
  1 28  1  6
M  RAD  2  12   2  24   2
M  END
>  <ID>  (1) 
conformer_0

$$$$
