
     RDKit          3D

 31 33  0  0  0  0  0  0  0  0999 V2000
  -16.4743    2.7936  -23.1382 C   0  0  0  0  0  0  0  0  0  0  0  0
  -17.0220   -1.3329  -24.3369 C   0  0  0  0  0  0  0  0  0  0  0  0
  -17.1783    3.3912  -22.1364 C   0  0  0  0  0  0  0  0  0  0  0  0
  -16.9011    0.1639  -24.0305 N   0  0  0  0  0  0  0  0  0  0  0  0
  -13.7478    0.2158  -22.9345 N   0  0  0  0  0  0  0  0  0  0  0  0
  -14.4356    1.6158  -22.7900 C   0  0  0  0  0  0  0  0  0  0  0  0
   -8.8236    5.8639  -18.5792 P   0  0  0  0  0  5  0  0  0  0  0  0
  -15.4334    3.9949  -23.5982 O   0  0  0  0  0  0  0  0  0  0  0  0
   -8.3160    4.3271  -21.6370 O   0  0  0  0  0  0  0  0  0  0  0  0
  -15.5485    4.6364  -22.3570 C   0  0  0  0  0  0  0  0  0  0  0  0
  -13.7527   -2.5998  -23.2075 N   0  0  0  0  0  0  0  0  0  0  0  0
  -15.5327    1.7721  -22.9328 N   0  0  0  0  0  0  0  0  0  0  0  0
  -12.1467    4.3633  -20.8811 P   0  0  0  0  0  0  0  0  0  0  0  0
  -18.2495    3.8206  -22.5998 O   0  0  0  0  0  0  0  0  0  0  0  0
  -16.0955   -2.0051  -23.9780 N   0  0  0  0  0  0  0  0  0  0  0  0
  -12.4923    4.7518  -19.4533 O   0  0  0  0  0  0  0  0  0  0  0  0
   -9.0246    3.9210  -18.9862 O   0  0  0  0  0  0  0  0  0  0  0  0
  -13.1179    4.5873  -21.7596 O   0  0  0  0  0  0  0  0  0  0  0  0
  -10.8176    4.8049  -22.0364 O   0  0  0  0  0  1  0  0  0  0  0  0
  -14.8506   -1.7500  -23.5138 C   0  0  0  0  0  0  0  0  0  0  0  0
  -17.0998    4.4431  -20.5172 O   0  0  0  0  0  0  0  0  0  0  0  0
   -7.8649    6.4598  -18.2113 O   0  0  0  0  0  0  0  0  0  0  0  0
  -11.6161    3.0228  -20.7775 O   0  0  0  0  0  0  0  0  0  0  0  0
   -9.4075    5.2810  -21.0667 P   0  0  0  0  0  4  0  0  0  0  0  0
   -9.0925    6.3455  -21.6251 O   0  0  0  0  0  0  0  0  0  0  0  0
   -9.3697    6.0592  -19.7229 N   0  0  0  0  0  0  0  0  0  0  0  0
  -14.1304    5.3266  -22.0090 C   0  0  0  0  0  0  0  0  0  0  0  0
  -14.5626   -0.4046  -23.0936 C   0  0  0  0  0  0  0  0  0  0  0  0
   -9.2042    5.4946  -17.6715 O   0  0  0  0  0  0  0  0  0  0  0  0
  -15.9603    0.3363  -23.5131 C   0  0  0  0  0  0  0  0  0  0  0  0
  -15.8642    3.9869  -21.0674 C   0  0  0  0  0  0  0  0  0  0  0  0
  3  1  1  0
  4  2  2  0
  6  5  2  0
  8  1  1  0
 10  8  1  0
 12  1  1  0
 12  6  1  0
 14  3  1  0
 15  2  1  0
 16 13  1  0
 17  7  1  0
 18 13  1  0
 20 11  1  0
 20 15  2  0
 22  7  1  0
 23 13  1  0
 24  9  1  0
 24 19  1  0
 24 23  1  0
 25  7  1  0
 25 24  1  0
 26  7  1  0
 27 10  1  0
 27 18  1  0
 28  5  1  0
 28 20  1  0
 29  7  1  0
 30  4  1  0
 30 12  1  0
 30 28  2  0
 31  3  1  0
 31 10  1  0
 31 21  1  0
M  RAD  2  19   2  24   2
M  END
>  <ID>  (1) 
conformer_0

$$$$
