
     RDKit          3D

 30 31  0  0  0  0  0  0  0  0999 V2000
  -17.4094   -1.0730  -24.4002 C   0  0  0  0  0  0  0  0  0  0  0  0
  -15.4179    4.8616  -21.5235 C   0  0  0  0  0  0  0  0  0  0  0  0
  -16.5413    3.9357  -21.5833 C   0  0  0  0  0  0  0  0  0  0  0  0
  -16.2661    0.6855  -23.6057 C   0  0  0  0  0  0  0  0  0  0  0  0
  -16.4350   -1.9247  -24.1755 N   0  0  0  0  0  0  0  0  0  0  0  0
  -14.0531    0.2657  -22.9332 N   0  0  0  0  0  0  0  0  0  0  0  0
  -15.7042    1.8719  -23.0133 N   0  0  0  0  0  0  0  0  0  0  0  0
   -8.2303    4.2804  -21.7101 O   0  0  0  0  0  0  0  0  0  0  0  0
  -15.3018    4.2271  -23.3093 O   0  0  0  0  0  0  0  0  0  0  0  0
  -14.2326   -2.5067  -23.3533 N   0  0  0  0  0  0  0  0  0  0  0  0
  -11.8783    4.2378  -20.6238 P   0  0  0  0  0  0  0  0  0  0  0  0
  -14.1344    5.3833  -21.9551 C   0  0  0  0  0  0  0  0  0  0  0  0
  -11.8171    2.9139  -20.2485 O   0  0  0  0  0  0  0  0  0  0  0  0
   -9.0423    5.7268  -18.5944 P   0  0  0  0  0  4  0  0  0  0  0  0
   -9.1492    6.1217  -22.5490 O   0  0  0  0  0  0  0  0  0  0  0  0
   -9.1939    5.1633  -21.5777 P   0  0  0  0  0  5  0  0  0  0  0  0
   -8.9896    4.1105  -18.6488 O   0  0  0  0  0  0  0  0  0  0  0  0
  -16.8672    4.8654  -20.2859 O   0  0  0  0  0  0  0  0  0  0  0  0
  -17.1980    0.2800  -24.0807 N   0  0  0  0  0  0  0  0  0  0  0  0
  -15.2796   -1.6265  -23.6213 C   0  0  0  0  0  0  0  0  0  0  0  0
   -8.1120    6.6764  -18.2220 O   0  0  0  0  0  1  0  0  0  0  0  0
  -12.3584    5.3295  -19.2498 O   0  0  0  0  0  0  0  0  0  0  0  0
   -9.2247    5.6042  -19.6604 N   0  0  0  0  0  0  0  0  0  0  0  0
  -18.2000    3.8969  -22.0049 O   0  0  0  0  0  0  0  0  0  0  0  0
  -10.7213    4.7941  -21.5870 O   0  0  0  0  0  0  0  0  0  0  0  0
  -16.5369    3.2535  -22.7566 C   0  0  0  0  0  0  0  0  0  0  0  0
  -12.9367    4.3608  -21.4269 O   0  0  0  0  0  0  0  0  0  0  0  0
   -9.9747    5.8728  -17.9061 O   0  0  0  0  0  0  0  0  0  0  0  0
  -15.0702   -0.3204  -23.3216 C   0  0  0  0  0  0  0  0  0  0  0  0
  -14.5168    1.5181  -22.7505 C   0  0  0  0  0  0  0  0  0  0  0  0
  3  2  1  0
  5  1  2  0
  7  4  1  0
 12  2  1  0
 13 11  1  0
 16  8  1  0
 16 13  1  0
 16 15  1  0
 17 14  1  0
 18  3  1  0
 19  1  1  0
 19  4  2  0
 20  5  1  0
 20 10  1  0
 21 14  1  0
 22 11  1  0
 23 14  1  0
 23 16  1  0
 24  3  1  0
 25 16  1  0
 26  3  1  0
 26  7  1  0
 26  9  1  0
 27 11  1  0
 27 12  1  0
 28 14  1  0
 29  4  1  0
 29  6  1  0
 29 20  2  0
 30  6  2  0
 30  7  1  0
M  RAD  2  14   2  21   2
M  END
>  <ID>  (1) 
conformer_0

$$$$
