
     RDKit          3D

 29 30  0  0  0  0  0  0  0  0999 V2000
  -15.1411   -1.5652  -23.6096 C   0  0  0  0  0  0  0  0  0  0  0  0
  -14.5639    5.1983  -22.0763 C   0  0  0  0  0  0  0  0  0  0  0  0
  -15.7772    4.6543  -21.3200 C   0  0  0  0  0  0  0  0  0  0  0  0
  -17.1115    0.3511  -24.0816 N   0  0  0  0  0  0  0  0  0  0  0  0
  -14.0810    0.0433  -23.0323 N   0  0  0  0  0  0  0  0  0  0  0  0
  -14.8405    1.1368  -23.0040 C   0  0  0  0  0  0  0  0  0  0  0  0
  -14.3164   -2.8098  -23.3424 N   0  0  0  0  0  0  0  0  0  0  0  0
   -8.3124    4.4728  -21.4833 O   0  0  0  0  0  0  0  0  0  0  0  0
   -8.5082    5.7886  -18.6925 P   0  0  0  0  0  5  0  0  0  0  0  0
  -16.6533   -1.9900  -24.2301 N   0  0  0  0  0  0  0  0  0  0  0  0
   -9.1186    6.2490  -19.9009 N   0  0  0  0  0  0  0  0  0  0  0  0
  -15.4077    4.0724  -23.5692 O   0  0  0  0  0  0  0  0  0  0  0  0
  -15.5893    1.8215  -23.0959 N   0  0  0  0  0  0  0  0  0  0  0  0
   -9.0806    6.3838  -22.2613 O   0  0  0  0  0  0  0  0  0  0  0  0
  -16.6594    3.8745  -21.6285 C   0  0  0  0  0  0  0  0  0  0  0  0
  -11.6798    2.9698  -20.2888 O   0  0  0  0  0  1  0  0  0  0  0  0
  -12.0152    4.3995  -20.6691 P   0  0  0  0  0  4  0  0  0  0  0  0
   -7.2065    6.1429  -18.2486 O   0  0  0  0  0  0  0  0  0  0  0  0
  -16.5505    5.2354  -19.9670 O   0  0  0  0  0  0  0  0  0  0  0  0
   -8.5225    4.1666  -18.3039 O   0  0  0  0  0  0  0  0  0  0  0  0
  -12.4625    5.2602  -19.5027 O   0  0  0  0  0  0  0  0  0  0  0  0
  -15.6626   -0.0910  -23.5587 C   0  0  0  0  0  0  0  0  0  0  0  0
  -13.1605    4.4897  -21.6428 O   0  0  0  0  0  0  0  0  0  0  0  0
  -18.0914    3.9710  -21.4799 O   0  0  0  0  0  0  0  0  0  0  0  0
   -9.2594    5.4214  -21.1852 P   0  0  0  0  0  0  0  0  0  0  0  0
  -16.3326    3.1569  -23.0977 C   0  0  0  0  0  0  0  0  0  0  0  0
  -10.9967    4.8016  -21.5850 O   0  0  0  0  0  0  0  0  0  0  0  0
  -17.2201   -0.9526  -24.2740 C   0  0  0  0  0  0  0  0  0  0  0  0
   -9.5712    5.8959  -17.8079 O   0  0  0  0  0  0  0  0  0  0  0  0
  3  2  1  0
  6  5  2  0
  7  1  1  0
 10  1  2  0
 11  9  1  0
 13  6  1  0
 14  9  1  0
 15  3  1  0
 17 16  1  0
 18  9  1  0
 19  3  1  0
 20  9  1  0
 21 17  1  0
 22  1  1  0
 22  4  1  0
 22  5  1  0
 22  6  1  0
 23  2  1  0
 23 17  1  0
 24 15  1  0
 25  8  1  0
 25 14  1  0
 26 12  1  0
 26 13  1  0
 26 15  1  0
 27 17  1  0
 27 25  1  0
 28  4  2  0
 28 10  1  0
 29  9  1  0
M  RAD  2  16   2  17   2
M  END
>  <ID>  (1) 
conformer_0

$$$$
