
     RDKit          3D

 29 30  0  0  0  0  0  0  0  0999 V2000
  -15.2471   -1.4984  -23.4489 C   0  0  0  0  0  0  0  0  0  0  0  0
  -15.2901    4.8096  -21.6426 C   0  0  0  0  0  0  0  0  0  0  0  0
  -13.9541    5.0950  -22.2896 C   0  0  0  0  0  0  0  0  0  0  0  0
  -17.2266    0.2868  -24.0305 N   0  0  0  0  0  0  0  0  0  0  0  0
  -14.7505    1.1156  -22.7856 C   0  0  0  0  0  0  0  0  0  0  0  0
  -14.0229    0.0074  -22.8681 N   0  0  0  0  0  0  0  0  0  0  0  0
   -8.2900    4.4421  -21.6006 O   0  0  0  0  0  0  0  0  0  0  0  0
  -15.3548    3.9380  -23.5757 O   0  0  0  0  0  0  0  0  0  0  0  0
  -14.3736   -2.6235  -23.3099 N   0  0  0  0  0  0  0  0  0  0  0  0
   -9.8654    6.0403  -19.6642 N   0  0  0  0  0  0  0  0  0  0  0  0
   -8.7709    5.6660  -18.7111 P   0  0  0  0  0  5  0  0  0  0  0  0
  -15.6700    1.7900  -22.9688 N   0  0  0  0  0  0  0  0  0  0  0  0
  -12.6494    4.6660  -19.4253 O   0  0  0  0  0  0  0  0  0  0  0  0
  -16.6765   -1.9693  -24.1507 N   0  0  0  0  0  0  0  0  0  0  0  0
  -11.9024    4.4368  -20.7191 P   0  0  0  0  0  0  0  0  0  0  0  0
  -12.7959    4.5989  -21.6537 O   0  0  0  0  0  0  0  0  0  0  0  0
  -16.3139    3.9239  -21.7809 C   0  0  0  0  0  0  0  0  0  0  0  0
  -15.7519    0.0155  -23.3582 C   0  0  0  0  0  0  0  0  0  0  0  0
  -16.7363    4.9180  -20.6249 O   0  0  0  0  0  0  0  0  0  0  0  0
   -9.0029    6.3575  -22.2501 O   0  0  0  0  0  0  0  0  0  0  0  0
   -9.0465    5.7203  -17.1809 O   0  0  0  0  0  0  0  0  0  0  0  0
   -7.4226    5.5357  -18.8393 O   0  0  0  0  0  0  0  0  0  0  0  0
   -9.1888    5.3966  -21.4131 P   0  0  0  0  0  4  0  0  0  0  0  0
  -18.0613    3.8385  -22.0651 O   0  0  0  0  0  0  0  0  0  0  0  0
  -11.6951    3.0194  -20.6051 O   0  0  0  0  0  0  0  0  0  0  0  0
   -9.1364    4.1202  -18.8627 O   0  0  0  0  0  0  0  0  0  0  0  0
  -17.2648   -1.0173  -24.2684 C   0  0  0  0  0  0  0  0  0  0  0  0
  -16.3470    3.0185  -22.9588 C   0  0  0  0  0  0  0  0  0  0  0  0
  -10.6913    4.8430  -22.3070 O   0  0  0  0  0  1  0  0  0  0  0  0
  3  2  1  0
  6  5  2  0
  9  1  1  0
 11 10  1  0
 12  5  1  0
 14  1  2  0
 15 13  1  0
 16  3  1  0
 16 15  1  0
 17  2  1  0
 18  1  1  0
 18  4  1  0
 18  5  1  0
 18  6  1  0
 19 17  1  0
 20 11  1  0
 21 11  1  0
 22 11  1  0
 23  7  1  0
 23 20  1  0
 24 17  1  0
 25 15  1  0
 25 23  1  0
 26 11  1  0
 27  4  2  0
 27 14  1  0
 28  8  1  0
 28 12  1  0
 28 17  1  0
 29 23  1  0
M  RAD  2  23   2  29   2
M  END
>  <ID>  (1) 
conformer_0

$$$$
