
     RDKit          3D

 30 30  0  0  0  0  0  0  0  0999 V2000
  -17.0007   -1.1454  -24.1907 C   0  0  0  0  0  0  0  0  0  0  0  0
  -16.6450    3.8783  -21.8216 C   0  0  0  0  0  0  0  0  0  0  0  0
  -15.5168    4.8933  -21.5757 C   0  0  0  0  0  0  0  0  0  0  0  0
  -17.1349    0.1201  -24.1021 N   0  0  0  0  0  0  0  0  0  0  0  0
  -13.8797    0.4353  -22.8954 N   0  0  0  0  0  0  0  0  0  0  0  0
  -15.6407    0.1330  -23.4646 C   0  0  0  0  0  0  0  0  0  0  0  0
  -10.1290    6.8141  -19.9332 N   0  0  0  0  0  0  0  0  0  0  0  0
  -15.5261    4.1470  -23.5487 O   0  0  0  0  0  0  0  0  0  0  0  0
  -14.0672   -2.4434  -23.2129 N   0  0  0  0  0  0  0  0  0  0  0  0
   -9.0671    5.7740  -18.7601 P   0  0  0  0  0  0  0  0  0  0  0  0
  -15.6414    1.8377  -23.0601 N   0  0  0  0  0  0  0  0  0  0  0  0
   -8.2917    4.2349  -21.7872 O   0  0  0  0  0  0  0  0  0  0  0  0
  -11.8644    2.9344  -20.2838 O   0  0  0  0  0  0  0  0  0  0  0  0
  -12.0871    4.2652  -20.6422 P   0  0  0  0  0  0  0  0  0  0  0  0
  -14.3102    5.2577  -21.9569 C   0  0  0  0  0  0  0  0  0  0  0  0
  -18.1903    4.0066  -22.1730 O   0  0  0  0  0  0  0  0  0  0  0  0
  -12.6460    5.2564  -19.3454 O   0  0  0  0  0  0  0  0  0  0  0  0
   -8.9537    6.2867  -22.2312 O   0  0  0  0  0  0  0  0  0  0  0  0
  -16.4008   -2.0157  -24.0902 N   0  0  0  0  0  0  0  0  0  0  0  0
  -14.9210   -1.2789  -23.4171 C   0  0  0  0  0  0  0  0  0  0  0  0
   -9.1215    6.0944  -17.8596 O   0  0  0  0  0  0  0  0  0  0  0  0
  -16.8413    4.8626  -20.3735 O   0  0  0  0  0  0  0  0  0  0  0  0
   -7.7892    5.6416  -19.3949 O   0  0  0  0  0  0  0  0  0  0  0  0
  -13.1116    4.4331  -21.4777 O   0  0  0  0  0  0  0  0  0  0  0  0
   -9.1211    3.7878  -18.7809 O   0  0  0  0  0  0  0  0  0  0  0  0
  -16.5239    3.0438  -23.0044 C   0  0  1  0  0  0  0  0  0  0  0  0
   -9.1959    5.3434  -21.3822 P   0  0  0  0  0  7  0  0  0  0  0  0
  -14.6942    1.3223  -22.8595 C   0  0  0  0  0  0  0  0  0  0  0  0
  -10.9555    4.5502  -21.6893 O   0  0  0  0  0  0  0  0  0  0  0  0
   -9.7758    5.1244  -20.0736 N   0  0  0  0  0  0  0  0  0  0  0  0
  3  2  1  0
  4  1  2  0
  6  4  1  0
 14 13  1  0
 15  3  1  0
 16  2  1  0
 17 14  1  0
 19  1  1  0
 20  6  2  0
 20  9  1  0
 20 19  1  0
 21 10  1  0
 22  2  1  0
 23 10  1  0
 24 14  1  0
 24 15  1  0
 25 10  1  0
 26  2  1  0
 26  8  1  6
 26 11  1  0
 27  7  1  0
 27 12  1  0
 27 13  1  0
 27 18  1  0
 27 23  1  0
 28  5  2  3
 28  6  1  0
 28 11  1  0
 29 27  1  0
 30 27  1  0
M  END
>  <ID>  (1) 
conformer_0

$$$$
