
     RDKit          3D

 29 31  0  0  0  0  0  0  0  0999 V2000
  -16.8357    3.7755  -21.9485 C   0  0  0  0  0  0  0  0  0  0  0  0
  -15.7470    0.0002  -23.4226 C   0  0  0  0  0  0  0  0  0  0  0  0
  -15.8417    4.5157  -21.5518 C   0  0  0  0  0  0  0  0  0  0  0  0
  -17.1041    0.0685  -24.1413 N   0  0  0  0  0  2  0  0  0  0  0  0
  -13.8408   -0.0608  -22.9173 N   0  0  0  0  0  0  0  0  0  0  0  0
  -14.6427    0.8791  -22.9062 C   0  0  0  0  0  0  0  0  0  0  0  0
  -14.1058   -2.7344  -23.2336 N   0  0  0  0  0  0  0  0  0  0  0  0
   -8.8146    5.8758  -18.8067 P   0  0  0  0  0  5  0  0  0  0  0  0
   -8.3948    4.2433  -21.4394 O   0  0  0  0  0  0  0  0  0  0  0  0
  -12.1177    4.2271  -20.8908 P   0  0  0  0  0  4  0  0  0  0  0  0
  -15.3908    3.7736  -23.5743 O   0  0  0  0  0  0  0  0  0  0  0  0
  -13.0440    4.2954  -21.7387 O   0  0  0  0  0  0  0  0  0  0  0  0
   -8.8514    6.4147  -21.7615 O   0  0  0  0  0  0  0  0  0  0  0  0
  -15.6374    1.5202  -23.0540 N   0  0  0  0  0  0  0  0  0  0  0  0
  -18.3267    3.9000  -22.3037 O   0  0  0  0  0  0  0  0  0  0  0  0
  -14.5581    5.0047  -22.1973 C   0  0  0  0  0  0  0  0  0  0  0  0
   -8.9970    4.4296  -18.4549 O   0  0  0  0  0  0  0  0  0  0  0  0
   -7.5242    5.8256  -18.7690 O   0  0  0  0  0  0  0  0  0  0  0  0
  -14.8555   -1.5964  -23.3572 C   0  0  0  0  0  0  0  0  0  0  0  0
  -12.5636    5.0676  -19.6875 O   0  0  0  0  0  0  0  0  0  0  0  0
  -10.1019    6.3315  -19.9257 N   0  0  0  0  0  0  0  0  0  0  0  0
  -16.3328   -2.0097  -24.0775 N   0  0  0  0  0  0  0  0  0  0  0  0
  -16.9397    4.8800  -20.5104 O   0  0  0  0  0  0  0  0  0  0  0  0
  -11.5822    2.9607  -20.4179 O   0  0  0  0  0  1  0  0  0  0  0  0
  -10.8692    4.8597  -21.9710 O   0  0  0  0  0  0  0  0  0  0  0  0
   -9.5338    5.3529  -21.2548 P   0  0  0  0  0  0  0  0  0  0  0  0
  -16.3725    2.8279  -23.0554 C   0  0  0  0  0  0  0  0  0  0  0  0
   -9.2449    6.5224  -18.0171 O   0  0  0  0  0  0  0  0  0  0  0  0
  -16.9956   -1.1787  -24.2429 C   0  0  0  0  0  0  0  0  0  0  0  0
  3  1  1  0
  4  2  1  0
  6  2  1  0
  6  5  2  0
 12 10  1  0
 13  8  1  0
 14  2  1  0
 14  6  1  0
 15  1  1  0
 16  3  1  0
 16 12  1  0
 17  8  1  0
 18  8  1  0
 19  2  1  0
 19  5  1  0
 19  7  1  0
 20 10  1  0
 21  8  1  0
 22 19  1  0
 23  3  1  0
 24 10  1  0
 25 10  1  0
 26  9  1  0
 26 13  1  0
 26 25  1  0
 27  1  1  0
 27 11  1  0
 27 14  1  0
 28  8  1  0
 29  4  1  0
 29 22  2  0
M  RAD  3   4   2  10   2  24   2
M  END
>  <ID>  (1) 
conformer_0

$$$$
