
     RDKit          3D

 26 26  0  0  0  0  0  0  0  0999 V2000
  -15.4863   -0.1995  -23.4567 C   0  0  0  0  0  0  0  0  0  0  0  0
  -16.5843    3.7391  -21.8024 C   0  0  1  0  0  0  0  0  0  0  0  0
  -16.5208    3.1449  -23.1891 C   0  0  1  0  0  0  0  0  0  0  0  0
  -13.7541    0.2331  -22.8651 N   0  0  0  0  0  0  0  0  0  0  0  0
  -14.7688    1.1416  -23.0074 C   0  0  0  0  0  0  0  0  0  0  0  0
  -17.0289    0.1639  -24.1398 N   0  0  0  0  0  0  0  0  0  0  0  0
  -15.3373    4.2482  -23.6003 O   0  0  0  0  0  0  0  0  0  0  0  0
   -8.6364    5.9775  -18.4522 P   0  0  0  0  0  5  0  0  0  0  0  0
  -15.5825    4.6768  -21.5473 C   0  0  0  0  0  0  0  0  0  0  0  0
   -8.6580    4.2663  -21.5290 O   0  0  0  0  0  0  0  0  0  0  0  0
  -13.7056   -2.5895  -23.1566 N   0  0  0  0  0  0  0  0  0  0  0  0
  -11.9061    4.1333  -20.6787 P   0  0  0  0  0  0  0  0  0  0  0  0
   -9.1253    6.2542  -21.9340 O   0  0  0  0  0  0  0  0  0  0  0  0
  -14.6225   -1.4451  -23.3659 C   0  0  1  0  0  0  0  0  0  0  0  0
  -12.2162    3.2827  -20.0039 O   0  0  0  0  0  0  0  0  0  0  0  0
   -7.6699    6.8503  -18.0117 O   0  0  0  0  0  0  0  0  0  0  0  0
  -15.6817    1.7658  -23.1964 N   0  0  0  0  0  0  0  0  0  0  0  0
   -9.1033    6.1288  -19.6469 N   0  0  0  0  0  0  0  0  0  0  0  0
  -16.2339   -2.1173  -24.0165 N   0  0  0  0  0  0  0  0  0  0  0  0
   -9.2953    5.7867  -17.3489 O   0  0  0  0  0  0  0  0  0  0  0  0
  -17.7018    4.1232  -21.2377 O   0  0  0  0  0  0  0  0  0  0  0  0
   -9.3100    5.4620  -21.1025 P   0  0  0  0  0  0  0  0  0  0  0  0
  -11.8234    4.6274  -21.5598 O   0  0  0  0  0  0  0  0  0  0  0  0
  -14.1498    5.2674  -22.1991 C   0  0  0  0  0  0  0  0  0  0  0  0
  -16.8903   -1.1078  -24.2330 C   0  0  0  0  0  0  0  0  0  0  0  0
   -8.7559    4.0362  -18.5507 O   0  0  0  0  0  0  0  0  0  0  0  0
  3  2  1  0
  5  1  1  0
  5  4  2  3
  6  1  2  0
  3  7  1  6
  9  2  1  0
 13  8  1  0
 14  1  1  0
 14 11  1  1
 16  8  1  0
 17  3  1  0
 17  5  1  0
 18  8  1  0
 19 14  1  0
 20  8  1  0
  2 21  1  6
 22 10  1  0
 22 12  1  0
 22 13  1  0
 23 12  1  0
 23 15  1  0
 24  9  1  0
 24 12  1  0
 25  6  1  0
 25 19  2  0
 26  8  1  0
M  END
>  <ID>  (1) 
conformer_0

$$$$
