
     RDKit          3D

 30 32  0  0  0  0  0  0  0  0999 V2000
  -16.3986    4.0070  -21.2011 C   0  0  0  0  0  0  0  0  0  0  0  0
  -17.1374   -1.1857  -24.2184 C   0  0  0  0  0  0  0  0  0  0  0  0
  -15.3151    4.7939  -21.6425 C   0  0  0  0  0  0  0  0  0  0  0  0
  -15.6963   -0.2302  -23.5129 C   0  0  0  0  0  3  0  0  0  0  0  0
  -17.2085   -0.0563  -24.1881 N   0  0  0  0  0  0  0  0  0  0  0  0
  -13.9468   -0.0328  -22.9307 N   0  0  0  0  0  0  0  0  0  0  0  0
  -14.0215    5.2245  -22.4317 C   0  0  0  0  0  0  0  0  0  0  0  0
   -8.6069    5.8896  -18.6294 P   0  0  0  0  0  4  0  0  0  0  0  0
  -15.6988    3.9604  -23.5736 O   0  0  0  0  0  0  0  0  0  0  0  0
  -14.1125   -2.7099  -23.1501 N   0  0  0  0  0  0  0  0  0  0  0  0
   -8.7059    6.5969  -20.1932 N   0  0  0  0  0  0  0  0  0  0  0  0
   -8.3613    4.2867  -21.5844 O   0  0  0  0  0  0  0  0  0  0  0  0
  -11.9940    4.3251  -20.7854 P   0  0  0  0  0  5  0  0  0  0  0  0
  -15.6562    1.5069  -23.2190 N   0  0  0  0  0  0  0  0  0  0  0  0
  -11.8523    2.8429  -20.4730 O   0  0  0  0  0  0  0  0  0  0  0  0
  -12.4515    5.1346  -19.4540 O   0  0  0  0  0  0  0  0  0  0  0  0
  -14.9032   -1.6117  -23.3789 C   0  0  0  0  0  0  0  0  0  0  0  0
   -9.2145    5.3900  -17.8638 O   0  0  0  0  0  0  0  0  0  0  0  0
   -7.3851    6.1353  -18.3755 O   0  0  0  0  0  1  0  0  0  0  0  0
   -9.0870    6.1251  -22.5768 O   0  0  0  0  0  0  0  0  0  0  0  0
  -16.9015    4.9844  -20.1106 O   0  0  0  0  0  0  0  0  0  0  0  0
   -9.1687    5.3289  -21.3566 P   0  0  0  0  0  0  0  0  0  0  0  0
  -16.4215   -2.1913  -24.0736 N   0  0  0  0  0  0  0  0  0  0  0  0
  -10.9922    4.7254  -21.7644 O   0  0  0  0  0  0  0  0  0  0  0  0
  -16.8792    3.3969  -22.2543 C   0  0  0  0  0  0  0  0  0  0  0  0
  -18.2168    3.5886  -21.5609 O   0  0  0  0  0  0  0  0  0  0  0  0
  -14.5604    0.8687  -22.9558 C   0  0  0  0  0  0  0  0  0  0  0  0
  -13.1360    4.4823  -21.6304 O   0  0  0  0  0  0  0  0  0  0  0  0
   -9.0393    4.8529  -19.7422 N   0  0  0  0  0  0  0  0  0  0  0  0
  -16.3900    2.6758  -23.4901 C   0  0  0  0  0  0  0  0  0  0  0  0
  3  1  1  0
  5  2  2  0
  5  4  1  0
  7  3  1  0
 11  8  1  0
 15 13  1  0
 16 13  1  0
 17  4  1  0
 17  6  1  0
 17 10  1  0
 18  8  1  0
 19  8  1  0
 20 13  1  0
 21  1  1  0
 22 12  1  0
 22 20  1  0
 23  2  1  0
 23 17  1  0
 24 13  1  0
 25  1  1  0
 25  9  1  0
 26 25  1  0
 27  4  1  0
 27  6  2  0
 27 14  1  0
 28  7  1  0
 28 13  1  0
 29  8  1  0
 29 22  1  0
 30  9  1  0
 30 14  1  0
 30 25  1  0
M  RAD  3   4   2   8   2  19   2
M  END
>  <ID>  (1) 
conformer_0

$$$$
