
     RDKit          3D

 28 29  0  0  0  0  0  0  0  0999 V2000
  -15.6599    0.2258  -23.5187 C   0  0  0  0  0  0  0  0  0  0  0  0
  -15.6241    4.6251  -21.2601 C   0  0  0  0  0  0  0  0  0  0  0  0
  -14.6185    5.0929  -21.8830 C   0  0  0  0  0  0  0  0  0  0  0  0
  -17.0696    0.4082  -24.1569 N   0  0  0  0  0  0  0  0  0  0  0  0
  -14.6884    1.1993  -22.9003 C   0  0  0  0  0  0  0  0  0  0  0  0
  -14.0276    0.1751  -22.9093 N   0  0  0  0  0  0  0  0  0  0  0  0
   -8.2635    4.3623  -21.6760 O   0  0  0  0  0  0  0  0  0  0  0  0
  -14.1883   -2.5439  -23.4262 N   0  0  0  0  0  0  0  0  0  0  0  0
   -8.7162    5.8285  -18.9724 P   0  0  0  0  0  4  0  0  0  0  0  0
  -15.3332    3.9102  -23.2455 O   0  0  0  0  0  0  0  0  0  0  0  0
  -15.5746    1.8509  -22.9114 N   0  0  0  0  0  0  0  0  0  0  0  0
  -13.1042    4.2407  -21.4417 O   0  0  0  0  0  0  0  0  0  0  0  0
  -11.9952    4.1949  -20.7393 P   0  0  0  0  0  0  0  0  0  0  0  0
   -7.5212    6.0842  -18.8712 O   0  0  0  0  0  1  0  0  0  0  0  0
  -16.4466   -1.8680  -24.2398 N   0  0  0  0  0  0  0  0  0  0  0  0
  -16.6266    3.9274  -21.6562 C   0  0  0  0  0  0  0  0  0  0  0  0
   -9.2504    5.2247  -18.2930 O   0  0  0  0  0  0  0  0  0  0  0  0
   -9.0900    6.1967  -22.5114 O   0  0  0  0  0  0  0  0  0  0  0  0
  -12.4509    5.3548  -19.6537 O   0  0  0  0  0  0  0  0  0  0  0  0
  -18.1519    4.1086  -21.9084 O   0  0  0  0  0  0  0  0  0  0  0  0
  -14.9438   -1.3094  -23.5516 C   0  0  0  0  0  0  0  0  0  0  0  0
   -9.4301    6.0918  -20.2314 N   0  0  0  0  0  0  0  0  0  0  0  0
  -11.3862    3.0196  -20.1818 O   0  0  0  0  0  0  0  0  0  0  0  0
  -16.6312    5.3436  -20.3321 O   0  0  0  0  0  0  0  0  0  0  0  0
   -9.2143    5.3642  -21.4829 P   0  0  0  0  0  4  0  0  0  0  0  0
  -11.0057    4.7286  -21.9045 O   0  0  0  0  0  1  0  0  0  0  0  0
  -17.0352   -0.9432  -24.3340 C   0  0  0  0  0  0  0  0  0  0  0  0
  -16.4579    3.0939  -22.7800 C   0  0  0  0  0  0  0  0  0  0  0  0
  3  2  1  0
  4  1  2  0
  5  1  1  0
  6  5  2  0
 11  5  1  0
 12  3  1  0
 13 12  1  0
 14  9  1  0
 16  2  1  0
 17  9  1  0
 18  9  1  0
 19 13  1  0
 20 16  1  0
 21  1  1  0
 21  6  1  0
 21  8  1  0
 21 15  1  0
 22  9  1  0
 23 13  1  0
 24  2  1  0
 25  7  1  0
 25 18  1  0
 25 23  1  0
 26 25  1  0
 27  4  1  0
 27 15  2  0
 28 10  1  0
 28 11  1  0
 28 16  1  0
M  RAD  4   9   2  14   2  25   2  26   2
M  END
>  <ID>  (1) 
conformer_0

$$$$
