
     RDKit          3D

 26 27  0  0  0  0  0  0  0  0999 V2000
  -16.9070   -1.1769  -24.1233 C   0  0  0  0  0  0  0  0  0  0  0  0
  -16.5074    3.6708  -21.9341 C   0  0  1  0  0  0  0  0  0  0  0  0
  -15.4948    4.6775  -21.8343 C   0  0  1  0  0  0  0  0  0  0  0  0
  -14.4777    1.2141  -22.7862 C   0  0  0  0  0  0  0  0  0  0  0  0
  -13.6834    0.2733  -22.9085 N   0  0  0  0  0  0  0  0  0  0  0  0
  -16.9761    0.0543  -23.9876 N   0  0  0  0  0  0  0  0  0  0  0  0
   -8.6447    6.0391  -18.5062 P   0  0  1  0  0  4  0  0  0  0  0  0
  -13.9189   -2.5768  -23.1862 N   0  0  0  0  0  0  0  0  0  0  0  0
   -9.8479    6.3500  -20.1153 N   0  0  0  0  0  0  0  0  0  0  0  0
  -14.1509    5.2224  -22.1093 C   0  0  0  0  0  0  0  0  0  0  0  0
  -15.2526    4.0968  -23.4647 O   0  0  0  0  0  0  0  0  0  0  0  0
  -15.3968    1.7338  -22.9039 N   0  0  0  0  0  0  0  0  0  0  0  0
  -11.8946    3.1629  -20.2751 O   0  0  0  0  0  0  0  0  0  0  0  0
  -11.9083    4.0635  -20.9692 P   0  0  0  0  0  0  0  0  0  0  0  0
  -16.6808    4.8264  -20.5552 O   0  0  0  0  0  0  0  0  0  0  0  0
  -14.7811   -1.4185  -23.3148 C   0  0  0  0  0  0  0  0  0  0  0  0
   -9.1036    5.2578  -18.1385 O   0  0  0  0  0  0  0  0  0  0  0  0
   -8.8394    4.2072  -20.8417 O   0  0  0  0  0  0  0  0  0  0  0  0
  -12.0769    4.4526  -21.8376 O   0  0  0  0  0  0  0  0  0  0  0  0
   -7.6284    6.4974  -18.2294 O   0  0  0  0  0  1  0  0  0  0  0  0
  -16.2003   -2.1293  -23.9594 N   0  0  0  0  0  0  0  0  0  0  0  0
   -9.8343    5.6525  -22.4166 O   0  0  0  0  0  0  0  0  0  0  0  0
  -18.1076    3.8377  -22.3083 O   0  0  0  0  0  0  0  0  0  0  0  0
  -15.4477   -0.0187  -23.2904 C   0  0  0  0  0  0  0  0  0  0  0  0
  -16.5257    3.0194  -22.9704 C   0  0  1  0  0  0  0  0  0  0  0  0
   -9.6976    5.3787  -21.2347 P   0  0  0  0  0  0  0  0  0  0  0  0
  3  2  1  0
  5  4  2  3
  6  1  2  0
  9  7  1  0
 10  3  1  0
 11  3  1  0
 12  4  1  0
 14 10  1  0
  3 15  1  6
 16  8  1  0
  7 17  1  6
 19 13  1  0
 19 14  1  0
 20  7  1  0
 21  1  1  0
 21 16  1  0
 22 14  1  0
  2 23  1  6
 24  4  1  0
 24  6  1  0
 24 16  2  0
 25  2  1  0
 25 11  1  0
 25 12  1  1
 26  9  1  0
 26 18  1  0
 26 22  1  0
M  RAD  2   7   2  20   2
M  END
>  <ID>  (1) 
conformer_0

$$$$
