
     RDKit          3D

 27 32  0  0  0  0  0  0  0  0999 V2000
   24.7278   55.4005   90.8164 C   0  0  0  0  0  0  0  0  0  0  0  0
   25.5322   56.0654   90.4332 C   0  0  0  0  0  0  0  0  0  0  0  0
   25.6137   56.6656   89.1583 C   0  0  0  0  0  0  0  0  0  0  0  0
   23.5467   55.1554   89.9118 C   0  0  0  0  0  0  0  0  0  0  0  0
   22.4244   54.3913   90.3600 C   0  0  0  0  0  0  0  0  0  0  0  0
   23.4712   55.7225   88.6976 C   0  0  0  0  0  0  0  0  0  0  0  0
   24.4875   56.5053   88.2472 C   0  0  0  0  0  0  0  0  0  0  0  0
   22.3355   55.5880   87.8434 N   0  0  0  0  0  0  0  0  0  0  0  0
   26.7792   57.2875   88.6911 N   0  0  0  0  0  0  0  0  0  0  0  0
   24.5307   57.0858   86.8562 C   0  0  0  0  0  0  0  0  0  0  0  0
   21.4162   54.1294   89.5305 C   0  0  0  0  0  0  0  0  0  0  0  0
   25.5889   57.6201   86.3784 N   0  0  0  0  0  0  0  0  0  0  0  0
   26.8318   56.3072   91.2140 C   0  0  0  0  0  0  0  0  0  0  0  0
   27.8629   57.3271   89.3897 C   0  0  0  0  0  0  0  0  0  0  0  0
   23.3862   57.1594   86.3180 O   0  0  0  0  0  0  0  0  0  0  0  0
   26.7203   57.8142   87.2681 C   0  0  0  0  0  0  0  0  0  0  0  0
   27.8185   58.3613   86.7894 C   0  0  0  0  0  0  0  0  0  0  0  0
   27.7796   58.9475   85.4495 C   0  0  0  0  0  0  0  0  0  0  0  0
   27.0280   55.4392   92.1118 O   0  0  0  0  0  0  0  0  0  0  0  0
   26.7239   58.7944   84.7322 C   0  0  0  0  0  0  0  0  0  0  0  0
   28.0562   56.4062   90.3596 C   0  0  0  0  0  0  0  0  0  0  0  0
   20.2577   53.3868   89.9603 C   0  0  0  0  0  0  0  0  0  0  0  0
   28.3768   55.1029   89.8325 O   0  0  0  0  0  0  0  0  0  0  0  0
   21.3120   54.8234   88.3640 C   0  0  0  0  0  0  0  0  0  0  0  0
   25.6129   58.1856   85.1504 C   0  0  0  0  0  0  0  0  0  0  0  0
   29.0384   58.6955   87.5972 C   0  0  0  0  0  0  0  0  0  0  0  0
   28.8374   58.1626   88.7552 N   0  0  0  0  0  0  0  0  0  0  0  0
  1  2  2  0
  2  3  1  0
  1  4  1  0
  4  5  1  0
  4  6  2  0
  3  7  2  0
  6  7  1  0
  6  8  1  0
  3  9  1  0
  7 10  1  0
  5 11  2  0
 10 12  1  0
  2 13  1  0
  9 14  1  0
 10 15  2  0
  9 16  1  0
 12 16  1  0
 16 17  2  0
 17 18  1  0
 13 19  1  0
 18 20  2  0
 13 21  1  0
 14 21  1  0
 11 22  1  0
 21 23  1  0
  8 24  2  0
 11 24  1  0
 12 25  1  0
 20 25  1  0
 17 26  1  0
 14 27  1  0
 26 27  2  0
M  END
>  <ID>  (1) 
conformer_0

$$$$
