
     RDKit          3D

 28 34  0  0  0  0  0  0  0  0999 V2000
   25.2975   55.3515   91.4571 C   0  0  0  0  0  0  0  0  0  0  0  0
   26.0138   56.0206   90.8133 C   0  0  0  0  0  0  0  0  0  0  0  0
   25.6573   56.4098   89.5047 N   0  0  0  0  0  0  0  0  0  0  0  0
   26.5567   57.1890   88.6927 C   0  0  0  0  0  0  0  0  0  0  0  0
   27.3332   56.2388   91.4292 C   0  0  0  0  0  0  0  0  0  0  0  0
   26.2596   57.3212   87.3422 C   0  0  0  0  0  0  0  0  0  0  0  0
   27.1105   58.1273   86.5453 C   0  0  0  0  0  0  0  0  0  0  0  0
   25.0615   56.9796   86.8407 C   0  0  0  0  0  0  0  0  0  0  0  0
   25.5706   54.9947   92.7834 N   0  0  0  0  0  0  0  0  0  0  0  0
   24.7579   57.3009   85.5401 C   0  0  0  0  0  0  0  0  0  0  0  0
   24.6959   54.2906   93.6172 C   0  0  0  0  0  0  0  0  0  0  0  0
   24.1478   56.1291   87.5325 N   0  0  0  0  0  0  0  0  0  0  0  0
   28.4657   58.5939   87.0785 C   0  0  0  0  0  0  0  0  0  0  0  0
   26.8518   55.5973   92.8941 N   0  0  0  0  0  0  0  0  0  0  0  0
   28.4788   58.4016   88.5812 N   0  0  0  0  0  0  0  0  0  0  0  0
   27.8431   57.4908   89.2106 C   0  0  0  0  0  0  0  0  0  0  0  0
   24.3375   56.4668   89.0708 C   0  0  0  0  0  0  0  0  0  0  0  0
   29.0945   59.8841   86.6290 C   0  0  0  0  0  0  0  0  0  0  0  0
   28.6531   56.3754   89.7871 C   0  0  0  0  0  0  0  0  0  0  0  0
   26.8767   58.2541   85.2686 C   0  0  0  0  0  0  0  0  0  0  0  0
   23.3909   55.4351   89.6794 C   0  0  0  0  0  0  0  0  0  0  0  0
   22.3479   54.9226   88.9291 C   0  0  0  0  0  0  0  0  0  0  0  0
   28.3232   60.9318   87.2132 O   0  0  0  0  0  0  0  0  0  0  0  0
   23.0194   55.5492   87.1379 C   0  0  0  0  0  0  0  0  0  0  0  0
   23.8532   54.7727   90.9327 C   0  0  0  0  0  0  0  0  0  0  0  0
   28.2632   56.9616   91.2877 N   0  0  0  0  0  0  0  0  0  0  0  0
   25.6333   57.8775   84.7844 C   0  0  0  0  0  0  0  0  0  0  0  0
   21.9978   55.3745   87.9450 C   0  0  0  0  0  0  0  0  0  0  0  0
  1  2  2  0
  2  3  1  0
  3  4  1  0
  2  5  1  0
  4  6  1  0
  6  7  1  0
  6  8  2  0
  1  9  1  0
  8 10  1  0
  9 11  1  0
  8 12  1  0
  7 13  1  0
  5 14  2  0
  9 14  1  0
 13 15  1  0
  4 16  1  0
 15 16  1  0
  3 17  1  0
 12 17  1  0
 13 18  1  0
 16 19  1  0
  7 20  2  0
 17 21  1  0
 21 22  1  0
 18 23  1  0
 12 24  1  0
  1 25  1  0
 21 25  2  0
  5 26  1  0
 19 26  1  0
 10 27  2  0
 20 27  1  0
 22 28  1  0
 24 28  1  0
M  END
>  <ID>  (1) 
conformer_0

$$$$
