
     RDKit          3D

 17 19  0  0  0  0  0  0  0  0999 V2000
   21.7810   54.3329   90.0281 C   0  0  0  0  0  0  0  0  0  0  0  0
   22.1233   54.9645   89.0208 N   0  0  0  0  0  0  0  0  0  0  0  0
   23.2561   55.6366   88.8846 C   0  0  0  0  0  0  0  0  0  0  0  0
   24.0654   55.3053   89.9664 C   0  0  0  0  0  0  0  0  0  0  0  0
   20.5456   53.6645   90.0401 C   0  0  0  0  0  0  0  0  0  0  0  0
   23.6836   56.2843   87.6594 C   0  0  0  0  0  0  0  0  0  0  0  0
   25.3653   55.7785   90.1231 N   0  0  0  0  0  0  0  0  0  0  0  0
   26.0403   55.3123   91.2136 C   0  0  0  0  0  0  0  0  0  0  0  0
   27.3733   56.0332   91.2657 N   0  0  0  0  0  0  0  0  0  0  0  0
   26.0443   56.7816   89.4493 C   0  0  0  0  0  0  0  0  0  0  0  0
   24.8796   56.6153   87.3562 N   0  0  0  0  0  0  0  0  0  0  0  0
   22.6577   56.3750   86.6767 C   0  0  0  0  0  0  0  0  0  0  0  0
   25.7977   57.1099   88.1631 C   0  0  0  0  0  0  0  0  0  0  0  0
   22.9927   54.3045   90.9730 C   0  0  0  0  0  0  0  0  0  0  0  0
   26.6341   58.1004   87.6644 O   0  0  0  0  0  0  0  0  0  0  0  0
   27.3402   56.8415   90.1783 C   0  0  0  0  0  0  0  0  0  0  0  0
   28.3829   57.6846   89.8696 N   0  0  0  0  0  0  0  0  0  0  0  0
  1  2  1  0
  2  3  2  0
  3  4  1  0
  1  5  1  0
  3  6  1  0
  4  7  1  0
  7  8  1  0
  8  9  2  0
  7 10  1  0
  6 11  2  0
  6 12  1  0
 10 13  1  0
 11 13  1  0
  1 14  2  0
  4 14  1  0
 13 15  2  0
  9 16  1  0
 10 16  2  0
 16 17  1  0
M  END
>  <ID>  (1) 
conformer_0

$$$$
