
     RDKit          3D

 23 27  0  0  0  0  0  0  0  0999 V2000
   25.3765   55.5954   91.2660 C   0  0  0  0  0  0  0  0  0  0  0  0
   26.1616   56.1883   90.6484 C   0  0  0  0  0  0  0  0  0  0  0  0
   26.2017   56.7143   89.5227 C   0  0  0  0  0  0  0  0  0  0  0  0
   27.6189   56.4050   91.2921 N   0  0  0  0  0  0  0  0  0  0  0  0
   24.0842   55.3662   90.6147 C   0  0  0  0  0  0  0  0  0  0  0  0
   27.3107   57.3950   88.8678 C   0  0  0  0  0  0  0  0  0  0  0  0
   28.4929   56.9222   89.2777 N   0  0  0  0  0  0  0  0  0  0  0  0
   27.1055   58.1033   87.7000 C   0  0  0  0  0  0  0  0  0  0  0  0
   23.0233   54.5644   91.1432 C   0  0  0  0  0  0  0  0  0  0  0  0
   26.3080   57.5894   86.5816 C   0  0  0  0  0  0  0  0  0  0  0  0
   28.2891   59.0863   87.4631 C   0  0  0  0  0  0  0  0  0  0  0  0
   28.6686   56.5147   90.5508 C   0  0  0  0  0  0  0  0  0  0  0  0
   21.9250   54.3989   90.3605 C   0  0  0  0  0  0  0  0  0  0  0  0
   24.0169   55.8518   89.2309 C   0  0  0  0  0  0  0  0  0  0  0  0
   25.0910   57.1557   86.9399 N   0  0  0  0  0  0  0  0  0  0  0  0
   28.1842   59.7908   86.3288 C   0  0  0  0  0  0  0  0  0  0  0  0
   20.8707   53.5568   90.8378 O   0  0  0  0  0  0  0  0  0  0  0  0
   24.9046   56.3764   88.5883 C   0  0  0  0  0  0  0  0  0  0  0  0
   26.6442   57.6594   85.3304 C   0  0  0  0  0  0  0  0  0  0  0  0
   21.7685   54.9192   89.0351 C   0  0  0  0  0  0  0  0  0  0  0  0
   22.7744   55.6844   88.3996 C   0  0  0  0  0  0  0  0  0  0  0  0
   29.2141   59.3662   88.2356 O   0  0  0  0  0  0  0  0  0  0  0  0
   27.7770   58.7224   84.8645 C   0  0  0  0  0  0  0  0  0  0  0  0
  1  2  2  0
  2  3  1  0
  2  4  1  0
  1  5  1  0
  3  6  1  0
  6  7  1  0
  6  8  2  0
  5  9  1  0
  8 10  1  0
  8 11  1  0
  4 12  1  0
  7 12  2  0
  9 13  2  0
  5 14  2  0
 10 15  1  0
 11 16  1  0
 13 17  1  0
  3 18  2  0
 14 18  1  0
 15 18  1  0
 10 19  2  0
 13 20  1  0
 14 21  1  0
 20 21  2  0
 11 22  2  0
 16 23  1  0
 19 23  1  0
M  END
>  <ID>  (1) 
conformer_0

$$$$
