
     RDKit          3D

 26 30  0  0  0  0  0  0  0  0999 V2000
   23.7710   54.3312   91.0244 C   0  0  0  0  0  0  0  0  0  0  0  0
   23.2172   54.7842   90.0120 C   0  0  0  0  0  0  0  0  0  0  0  0
   23.8317   55.6344   89.1337 N   0  0  0  0  0  0  0  0  0  0  0  0
   23.1094   53.5884   92.0267 N   0  0  0  0  0  0  0  0  0  0  0  0
   21.9071   53.7600   92.0247 O   0  0  0  0  0  0  0  0  0  0  0  0
   23.0910   56.0389   87.9368 C   0  0  0  0  0  0  0  0  0  0  0  0
   23.7279   56.6084   86.8788 C   0  0  0  0  0  0  0  0  0  0  0  0
   21.7290   55.6334   87.8122 C   0  0  0  0  0  0  0  0  0  0  0  0
   25.0387   56.0295   89.3903 C   0  0  0  0  0  0  0  0  0  0  0  0
   25.0732   56.8857   86.8048 C   0  0  0  0  0  0  0  0  0  0  0  0
   25.8410   57.4989   85.9009 N   0  0  0  0  0  0  0  0  0  0  0  0
   25.8293   56.7753   88.3377 C   0  0  0  0  0  0  0  0  0  0  0  0
   25.1343   54.8375   91.4282 C   0  0  0  0  0  0  0  0  0  0  0  0
   25.6806   55.7692   90.6693 C   0  0  0  0  0  0  0  0  0  0  0  0
   20.9650   55.0601   88.9305 C   0  0  0  0  0  0  0  0  0  0  0  0
   27.1209   57.9030   86.4241 C   0  0  0  0  0  0  0  0  0  0  0  0
   27.7238   57.4517   87.5760 C   0  0  0  0  0  0  0  0  0  0  0  0
   29.1401   58.0682   87.8930 N   0  0  0  0  0  0  0  0  0  0  0  0
   26.9934   57.4479   88.7747 C   0  0  0  0  0  0  0  0  0  0  0  0
   28.0474   58.1130   85.1921 O   0  0  0  0  0  0  0  0  0  0  0  0
   27.5432   56.5570   89.8554 C   0  0  0  0  0  0  0  0  0  0  0  0
   21.7548   54.4439   89.5609 C   0  0  0  0  0  0  0  0  0  0  0  0
   26.9208   56.3699   91.0402 C   0  0  0  0  0  0  0  0  0  0  0  0
   23.7025   53.0358   92.9854 O   0  0  0  0  0  0  0  0  0  0  0  0
   28.2094   55.4324   89.4809 O   0  0  0  0  0  0  0  0  0  0  0  0
   29.2162   59.5100   87.6601 C   0  0  0  0  0  0  0  0  0  0  0  0
  1  2  2  0
  2  3  1  0
  1  4  1  0
  4  5  1  0
  3  6  1  0
  6  7  1  0
  6  8  2  0
  3  9  1  0
  7 10  1  0
 10 11  2  0
  9 12  2  0
 10 12  1  0
  1 13  1  0
  9 14  1  0
 13 14  2  0
  8 15  1  0
 11 16  1  0
 16 17  1  0
 17 18  1  0
 12 19  1  0
 17 19  1  0
 16 20  1  0
 19 21  1  0
  2 22  1  0
 15 22  2  0
 14 23  1  0
 21 23  1  0
  4 24  2  0
 21 25  1  0
 18 26  1  0
M  CHG  2   4   1   5  -1
M  END
>  <ID>  (1) 
conformer_0

$$$$
