
     RDKit          3D

 28 33  0  0  0  0  0  0  0  0999 V2000
   25.2975   55.3515   91.4571 C   0  0  0  0  0  0  0  0  0  0  0  0
   26.0138   56.0206   90.8133 C   0  0  0  0  0  0  0  0  0  0  0  0
   25.6573   56.4098   89.5047 N   0  0  0  0  0  0  0  0  0  0  0  0
   26.5567   57.1890   88.6927 C   0  0  0  0  0  0  0  0  0  0  0  0
   27.3332   56.2388   91.4292 C   0  0  0  0  0  0  0  0  0  0  0  0
   26.2596   57.3212   87.3422 C   0  0  0  0  0  0  0  0  0  0  0  0
   27.1105   58.1273   86.5453 C   0  0  0  0  0  0  0  0  0  0  0  0
   25.0615   56.9796   86.8407 C   0  0  0  0  0  0  0  0  0  0  0  0
   25.5706   54.9947   92.7834 N   0  0  0  0  0  0  0  0  0  0  0  0
   24.7579   57.3009   85.5401 C   0  0  0  0  0  0  0  0  0  0  0  0
   24.6959   54.2906   93.6172 C   0  0  0  0  0  0  0  0  0  0  0  0
   24.1478   56.1291   87.5325 N   0  0  0  0  0  0  0  0  0  0  0  0
   23.9347   54.7261   91.0468 C   0  0  0  0  0  0  0  0  0  0  0  0
   23.5946   55.0581   89.6994 C   0  0  0  0  0  0  0  0  0  0  0  0
   26.8246   58.4476   85.2885 C   0  0  0  0  0  0  0  0  0  0  0  0
   27.6090   57.6024   89.2852 O   0  0  0  0  0  0  0  0  0  0  0  0
   22.8778   55.7035   87.1327 C   0  0  0  0  0  0  0  0  0  0  0  0
   22.3862   54.6832   89.0352 C   0  0  0  0  0  0  0  0  0  0  0  0
   27.7473   59.2991   84.4998 C   0  0  0  0  0  0  0  0  0  0  0  0
   24.3668   55.8997   88.9459 C   0  0  0  0  0  0  0  0  0  0  0  0
   25.5985   58.0739   84.7852 C   0  0  0  0  0  0  0  0  0  0  0  0
   23.5371   53.8857   92.9241 C   0  0  0  0  0  0  0  0  0  0  0  0
   28.3238   55.2883   90.8148 O   0  0  0  0  0  0  0  0  0  0  0  0
   28.4289   60.2437   85.3662 C   0  0  0  0  0  0  0  0  0  0  0  0
   29.0319   59.6767   86.6337 C   0  0  0  0  0  0  0  0  0  0  0  0
   23.1307   54.0706   91.7630 C   0  0  0  0  0  0  0  0  0  0  0  0
   22.0092   55.1627   87.8547 C   0  0  0  0  0  0  0  0  0  0  0  0
   28.3591   58.5208   87.0919 N   0  0  0  0  0  0  0  0  0  0  0  0
  1  2  2  0
  2  3  1  0
  3  4  1  0
  2  5  1  0
  4  6  1  0
  6  7  1  0
  6  8  2  0
  1  9  1  0
  8 10  1  0
  9 11  1  0
  8 12  1  0
  1 13  1  0
 13 14  1  0
  7 15  2  0
  4 16  2  0
 12 17  1  0
 14 18  2  0
 15 19  1  0
  3 20  1  0
 12 20  1  0
 14 20  1  0
 10 21  2  0
 15 21  1  0
 11 22  2  0
  5 23  1  0
 19 24  1  0
 24 25  1  0
 13 26  2  0
 22 26  1  0
 17 27  2  0
 18 27  1  0
  7 28  1  0
 25 28  1  0
M  END
>  <ID>  (1) 
conformer_0

$$$$
