
     RDKit          3D

 25 28  0  0  0  0  0  0  0  0999 V2000
   24.7278   55.4005   90.8164 C   0  0  0  0  0  0  0  0  0  0  0  0
   25.5322   56.0654   90.4332 C   0  0  0  0  0  0  0  0  0  0  0  0
   25.6137   56.6656   89.1583 C   0  0  0  0  0  0  0  0  0  0  0  0
   23.5467   55.1554   89.9118 C   0  0  0  0  0  0  0  0  0  0  0  0
   23.5267   55.7795   88.7095 C   0  0  0  0  0  0  0  0  0  0  0  0
   24.6227   56.5448   88.3116 C   0  0  0  0  0  0  0  0  0  0  0  0
   22.3411   55.7053   87.8090 C   0  0  0  0  0  0  0  0  0  0  0  0
   26.8330   57.3519   88.7356 N   0  0  0  0  0  0  0  0  0  0  0  0
   22.0664   56.1933   86.8526 N   0  0  0  0  0  0  0  0  0  0  0  0
   26.8132   58.1462   87.7094 C   0  0  0  0  0  0  0  0  0  0  0  0
   22.5152   54.1266   90.3544 C   0  0  0  0  0  0  0  0  0  0  0  0
   21.5836   53.9896   89.4904 C   0  0  0  0  0  0  0  0  0  0  0  0
   20.4346   53.2578   89.8518 C   0  0  0  0  0  0  0  0  0  0  0  0
   26.1011   58.0588   86.6474 O   0  0  0  0  0  0  0  0  0  0  0  0
   26.8939   56.1991   91.2934 C   0  0  0  0  0  0  0  0  0  0  0  0
   22.7087   53.1620   91.3178 C   0  0  0  0  0  0  0  0  0  0  0  0
   27.9695   59.1644   87.6084 C   0  0  0  0  0  0  0  0  0  0  0  0
   21.4606   52.4516   91.6964 C   0  0  0  0  0  0  0  0  0  0  0  0
   26.6003   58.8391   85.6185 C   0  0  0  0  0  0  0  0  0  0  0  0
   21.2951   54.8336   88.3978 N   0  0  0  0  0  0  0  0  0  0  0  0
   27.8804   59.5968   86.2322 C   0  0  0  0  0  0  0  0  0  0  0  0
   27.5524   61.0980   86.1988 O   0  0  0  0  0  0  0  0  0  0  0  0
   20.3976   52.5172   91.0015 C   0  0  0  0  0  0  0  0  0  0  0  0
   29.3089   58.6340   87.9660 N   0  0  0  0  0  0  0  0  0  0  0  0
   28.0884   55.7286   90.7105 N   0  0  0  0  0  0  0  0  0  0  0  0
  1  2  2  0
  2  3  1  0
  1  4  1  0
  4  5  2  0
  3  6  2  0
  5  6  1  0
  5  7  1  0
  3  8  1  0
  7  9  2  0
  8 10  2  3
  4 11  1  0
 11 12  1  0
 12 13  2  0
 10 14  1  0
  2 15  1  0
 11 16  2  0
 10 17  1  0
 16 18  1  0
 14 19  1  0
  7 20  1  0
 12 20  1  0
 17 21  1  0
 19 21  1  0
 21 22  1  0
 13 23  1  0
 18 23  2  0
 17 24  1  0
 15 25  1  0
M  END
>  <ID>  (1) 
conformer_0

$$$$
