
     RDKit          3D

 26 30  0  0  0  0  0  0  0  0999 V2000
   25.2975   55.3515   91.4571 C   0  0  0  0  0  0  0  0  0  0  0  0
   26.0138   56.0206   90.8133 C   0  0  0  0  0  0  0  0  0  0  0  0
   25.6573   56.4098   89.5047 N   0  0  0  0  0  0  0  0  0  0  0  0
   26.5567   57.1890   88.6927 C   0  0  0  0  0  0  0  0  0  0  0  0
   27.3332   56.2388   91.4292 C   0  0  0  0  0  0  0  0  0  0  0  0
   26.2596   57.3212   87.3422 C   0  0  0  0  0  0  0  0  0  0  0  0
   27.1105   58.1273   86.5453 C   0  0  0  0  0  0  0  0  0  0  0  0
   25.0615   56.9796   86.8407 C   0  0  0  0  0  0  0  0  0  0  0  0
   25.5706   54.9947   92.7834 N   0  0  0  0  0  0  0  0  0  0  0  0
   24.7579   57.3009   85.5401 C   0  0  0  0  0  0  0  0  0  0  0  0
   24.6959   54.2906   93.6172 C   0  0  0  0  0  0  0  0  0  0  0  0
   24.1478   56.1291   87.5325 N   0  0  0  0  0  0  0  0  0  0  0  0
   23.9347   54.7261   91.0468 C   0  0  0  0  0  0  0  0  0  0  0  0
   23.5946   55.0581   89.6994 C   0  0  0  0  0  0  0  0  0  0  0  0
   26.8246   58.4476   85.2885 C   0  0  0  0  0  0  0  0  0  0  0  0
   27.6090   57.6024   89.2852 O   0  0  0  0  0  0  0  0  0  0  0  0
   22.8778   55.7035   87.1327 C   0  0  0  0  0  0  0  0  0  0  0  0
   22.3862   54.6832   89.0352 C   0  0  0  0  0  0  0  0  0  0  0  0
   27.7473   59.2991   84.4998 C   0  0  0  0  0  0  0  0  0  0  0  0
   24.3668   55.8997   88.9459 C   0  0  0  0  0  0  0  0  0  0  0  0
   22.0099   55.1689   87.8780 C   0  0  0  0  0  0  0  0  0  0  0  0
   23.5260   53.8843   92.9509 C   0  0  0  0  0  0  0  0  0  0  0  0
   28.7456   60.0011   85.2818 N   0  0  0  0  0  0  0  0  0  0  0  0
   25.5988   58.1103   84.7755 C   0  0  0  0  0  0  0  0  0  0  0  0
   23.1906   54.0732   91.7649 C   0  0  0  0  0  0  0  0  0  0  0  0
   28.3329   55.2448   90.7985 N   0  0  0  0  0  0  0  0  0  0  0  0
  1  2  2  0
  2  3  1  0
  3  4  1  0
  2  5  1  0
  4  6  1  0
  6  7  1  0
  6  8  2  0
  1  9  1  0
  8 10  1  0
  9 11  1  0
  8 12  1  0
  1 13  1  0
 13 14  1  0
  7 15  2  0
  4 16  2  0
 12 17  1  0
 14 18  2  0
 15 19  1  0
  3 20  1  0
 12 20  1  0
 14 20  1  0
 17 21  2  0
 18 21  1  0
 11 22  2  0
 19 23  1  0
 10 24  2  0
 15 24  1  0
 13 25  2  0
 22 25  1  0
  5 26  1  0
M  END
>  <ID>  (1) 
conformer_0

$$$$
