
     RDKit          3D

 23 26  0  0  0  0  0  0  0  0999 V2000
   25.2975   55.3515   91.4571 C   0  0  0  0  0  0  0  0  0  0  0  0
   26.0138   56.0206   90.8133 C   0  0  0  0  0  0  0  0  0  0  0  0
   25.6573   56.4098   89.5047 N   0  0  0  0  0  0  0  0  0  0  0  0
   26.5567   57.1890   88.6927 C   0  0  0  0  0  0  0  0  0  0  0  0
   27.3332   56.2388   91.4292 C   0  0  0  0  0  0  0  0  0  0  0  0
   26.2596   57.3212   87.3422 C   0  0  0  0  0  0  0  0  0  0  0  0
   27.1105   58.1273   86.5453 C   0  0  0  0  0  0  0  0  0  0  0  0
   25.0615   56.9796   86.8407 C   0  0  0  0  0  0  0  0  0  0  0  0
   25.5706   54.9947   92.7834 N   0  0  0  0  0  0  0  0  0  0  0  0
   24.7579   57.3009   85.5401 C   0  0  0  0  0  0  0  0  0  0  0  0
   24.6959   54.2906   93.6172 C   0  0  0  0  0  0  0  0  0  0  0  0
   24.1478   56.1291   87.5325 N   0  0  0  0  0  0  0  0  0  0  0  0
   23.9347   54.7261   91.0468 C   0  0  0  0  0  0  0  0  0  0  0  0
   26.7833   58.4559   85.2968 N   0  0  0  0  0  0  0  0  0  0  0  0
   23.5388   53.8759   92.9118 C   0  0  0  0  0  0  0  0  0  0  0  0
   27.3940   58.1616   89.1896 N   0  0  0  0  0  0  0  0  0  0  0  0
   24.3825   56.1731   89.0377 C   0  0  0  0  0  0  0  0  0  0  0  0
   23.1945   54.0819   91.7243 C   0  0  0  0  0  0  0  0  0  0  0  0
   28.6134   58.3092   86.7831 N   0  0  0  0  0  0  0  0  0  0  0  0
   23.4803   55.2891   89.6465 C   0  0  0  0  0  0  0  0  0  0  0  0
   28.9836   59.7473   86.8752 C   0  0  0  0  0  0  0  0  0  0  0  0
   25.5943   58.0937   84.8364 C   0  0  0  0  0  0  0  0  0  0  0  0
   28.5590   57.5618   89.5280 O   0  0  0  0  0  0  0  0  0  0  0  0
  1  2  2  0
  2  3  1  0
  3  4  1  0
  2  5  1  0
  4  6  1  0
  6  7  1  0
  6  8  2  0
  1  9  1  0
  8 10  1  0
  9 11  1  0
  8 12  1  0
  1 13  1  0
  7 14  2  0
 11 15  2  0
  4 16  2  3
  3 17  1  0
 12 17  2  0
 13 18  2  0
 15 18  1  0
  7 19  1  0
 13 20  1  0
 17 20  1  0
 19 21  1  0
 10 22  2  0
 14 22  1  0
 16 23  1  0
M  END
>  <ID>  (1) 
conformer_0

$$$$
