
     RDKit          3D

 24 27  0  0  0  0  0  0  0  0999 V2000
   24.7278   55.4005   90.8164 C   0  0  0  0  0  0  0  0  0  0  0  0
   25.5322   56.0654   90.4332 C   0  0  0  0  0  0  0  0  0  0  0  0
   25.6137   56.6656   89.1583 C   0  0  0  0  0  0  0  0  0  0  0  0
   23.5467   55.1554   89.9118 C   0  0  0  0  0  0  0  0  0  0  0  0
   22.4244   54.3913   90.3600 C   0  0  0  0  0  0  0  0  0  0  0  0
   23.4712   55.7225   88.6976 C   0  0  0  0  0  0  0  0  0  0  0  0
   24.4875   56.5053   88.2472 C   0  0  0  0  0  0  0  0  0  0  0  0
   22.3355   55.5880   87.8434 N   0  0  0  0  0  0  0  0  0  0  0  0
   26.7792   57.2875   88.6911 N   0  0  0  0  0  0  0  0  0  0  0  0
   24.5307   57.0858   86.8562 C   0  0  0  0  0  0  0  0  0  0  0  0
   21.4162   54.1294   89.5305 C   0  0  0  0  0  0  0  0  0  0  0  0
   25.5889   57.6201   86.3784 N   0  0  0  0  0  0  0  0  0  0  0  0
   26.8318   56.3072   91.2140 C   0  0  0  0  0  0  0  0  0  0  0  0
   27.8629   57.3271   89.3897 C   0  0  0  0  0  0  0  0  0  0  0  0
   23.3862   57.1594   86.3180 O   0  0  0  0  0  0  0  0  0  0  0  0
   26.7203   57.8142   87.2681 C   0  0  0  0  0  0  0  0  0  0  0  0
   27.8185   58.3613   86.7894 C   0  0  0  0  0  0  0  0  0  0  0  0
   27.7796   58.9475   85.4495 C   0  0  0  0  0  0  0  0  0  0  0  0
   27.0280   55.4392   92.1118 O   0  0  0  0  0  0  0  0  0  0  0  0
   28.0722   56.4149   90.4032 C   0  0  0  0  0  0  0  0  0  0  0  0
   28.7137   59.8518   85.3322 C   0  0  0  0  0  0  0  0  0  0  0  0
   28.7869   60.8781   86.3619 N   0  0  0  0  0  0  0  0  0  0  0  0
   28.8731   55.5655   90.3015 O   0  0  0  0  0  0  0  0  0  0  0  0
   21.3233   54.8017   88.3646 C   0  0  0  0  0  0  0  0  0  0  0  0
  1  2  2  0
  2  3  1  0
  1  4  1  0
  4  5  1  0
  4  6  2  0
  3  7  2  0
  6  7  1  0
  6  8  1  0
  3  9  1  0
  7 10  1  0
  5 11  2  0
 10 12  1  0
  2 13  1  0
  9 14  1  0
 10 15  2  0
  9 16  1  0
 12 16  1  0
 16 17  2  3
 17 18  1  0
 13 19  1  0
 13 20  1  0
 14 20  1  0
 18 21  1  0
 21 22  1  0
 20 23  2  0
  8 24  2  0
 11 24  1  0
M  END
>  <ID>  (1) 
conformer_0

$$$$
