
     RDKit          3D

 27 32  0  0  0  0  0  0  0  0999 V2000
   25.2975   55.3515   91.4571 C   0  0  0  0  0  0  0  0  0  0  0  0
   26.0138   56.0206   90.8133 C   0  0  0  0  0  0  0  0  0  0  0  0
   25.6573   56.4098   89.5047 N   0  0  0  0  0  0  0  0  0  0  0  0
   26.5567   57.1890   88.6927 C   0  0  0  0  0  0  0  0  0  0  0  0
   27.3332   56.2388   91.4292 C   0  0  0  0  0  0  0  0  0  0  0  0
   26.2596   57.3212   87.3422 C   0  0  0  0  0  0  0  0  0  0  0  0
   27.1105   58.1273   86.5453 C   0  0  0  0  0  0  0  0  0  0  0  0
   25.0615   56.9796   86.8407 C   0  0  0  0  0  0  0  0  0  0  0  0
   25.5706   54.9947   92.7834 N   0  0  0  0  0  0  0  0  0  0  0  0
   24.7579   57.3009   85.5401 C   0  0  0  0  0  0  0  0  0  0  0  0
   24.6959   54.2906   93.6172 C   0  0  0  0  0  0  0  0  0  0  0  0
   24.4890   56.1398   89.0136 C   0  0  0  0  0  0  0  0  0  0  0  0
   24.0953   56.3491   87.7586 C   0  0  0  0  0  0  0  0  0  0  0  0
   26.8568   58.3932   85.2521 C   0  0  0  0  0  0  0  0  0  0  0  0
   23.8816   54.8840   90.9754 C   0  0  0  0  0  0  0  0  0  0  0  0
   23.0457   54.1282   91.7246 C   0  0  0  0  0  0  0  0  0  0  0  0
   27.7968   57.5530   91.2657 O   0  0  0  0  0  0  0  0  0  0  0  0
   28.5207   58.5649   87.1369 C   0  0  0  0  0  0  0  0  0  0  0  0
   28.6686   59.9796   87.1699 C   0  0  0  0  0  0  0  0  0  0  0  0
   22.7313   56.0712   87.1525 C   0  0  0  0  0  0  0  0  0  0  0  0
   25.6328   58.0385   84.7527 N   0  0  0  0  0  0  0  0  0  0  0  0
   28.5090   60.5452   88.3427 O   0  0  0  0  0  0  0  0  0  0  0  0
   23.4093   53.9235   93.0703 C   0  0  0  0  0  0  0  0  0  0  0  0
   23.5401   55.2939   89.6705 C   0  0  0  0  0  0  0  0  0  0  0  0
   28.8517   57.9000   88.3372 N   0  0  0  0  0  0  0  0  0  0  0  0
   28.0636   57.0179   89.0298 C   0  0  0  0  0  0  0  0  0  0  0  0
   28.2686   55.8759   90.1404 C   0  0  0  0  0  0  0  0  0  0  0  0
  1  2  2  0
  2  3  1  0
  3  4  1  0
  2  5  1  0
  4  6  1  0
  6  7  1  0
  6  8  2  0
  1  9  1  0
  8 10  1  0
  9 11  1  0
  3 12  1  0
  8 13  1  0
 12 13  2  0
  7 14  2  0
  1 15  1  0
 15 16  1  0
  5 17  1  0
  7 18  1  0
 18 19  1  0
 13 20  1  0
 10 21  2  0
 14 21  1  0
 19 22  1  0
 11 23  1  0
 16 23  2  0
 12 24  1  0
 15 24  2  0
 18 25  1  0
  4 26  1  0
 25 26  1  0
  5 27  1  0
 26 27  1  0
M  END
>  <ID>  (1) 
conformer_0

$$$$
