
     RDKit          3D

 24 27  0  0  0  0  0  0  0  0999 V2000
   25.2975   55.3515   91.4571 C   0  0  0  0  0  0  0  0  0  0  0  0
   26.0138   56.0206   90.8133 C   0  0  0  0  0  0  0  0  0  0  0  0
   25.6573   56.4098   89.5047 N   0  0  0  0  0  0  0  0  0  0  0  0
   26.5567   57.1890   88.6927 C   0  0  0  0  0  0  0  0  0  0  0  0
   27.3332   56.2388   91.4292 C   0  0  0  0  0  0  0  0  0  0  0  0
   26.2596   57.3212   87.3422 C   0  0  0  0  0  0  0  0  0  0  0  0
   27.1105   58.1273   86.5453 C   0  0  0  0  0  0  0  0  0  0  0  0
   25.0615   56.9796   86.8407 C   0  0  0  0  0  0  0  0  0  0  0  0
   25.5706   54.9947   92.7834 N   0  0  0  0  0  0  0  0  0  0  0  0
   24.7579   57.3009   85.5401 C   0  0  0  0  0  0  0  0  0  0  0  0
   24.6959   54.2906   93.6172 C   0  0  0  0  0  0  0  0  0  0  0  0
   24.4890   56.1398   89.0136 C   0  0  0  0  0  0  0  0  0  0  0  0
   24.0953   56.3491   87.7586 C   0  0  0  0  0  0  0  0  0  0  0  0
   26.8568   58.3932   85.2521 C   0  0  0  0  0  0  0  0  0  0  0  0
   23.8816   54.8840   90.9754 C   0  0  0  0  0  0  0  0  0  0  0  0
   23.0457   54.1282   91.7246 C   0  0  0  0  0  0  0  0  0  0  0  0
   27.7968   57.5530   91.2657 O   0  0  0  0  0  0  0  0  0  0  0  0
   28.5207   58.5649   87.1369 C   0  0  0  0  0  0  0  0  0  0  0  0
   28.6686   59.9796   87.1699 C   0  0  0  0  0  0  0  0  0  0  0  0
   22.7313   56.0712   87.1525 C   0  0  0  0  0  0  0  0  0  0  0  0
   25.6328   58.0385   84.7527 N   0  0  0  0  0  0  0  0  0  0  0  0
   23.4065   53.9196   93.0715 C   0  0  0  0  0  0  0  0  0  0  0  0
   23.5621   55.3253   89.6765 C   0  0  0  0  0  0  0  0  0  0  0  0
   29.2824   57.8731   87.7319 N   0  0  0  0  0  0  0  0  0  0  0  0
  1  2  2  0
  2  3  1  0
  3  4  1  0
  2  5  1  0
  4  6  1  0
  6  7  1  0
  6  8  2  0
  1  9  1  0
  8 10  1  0
  9 11  1  0
  3 12  1  0
  8 13  1  0
 12 13  2  0
  7 14  2  0
  1 15  1  0
 15 16  1  0
  5 17  1  0
  7 18  1  0
 18 19  1  0
 13 20  1  0
 10 21  2  0
 14 21  1  0
 11 22  2  0
 16 22  2  0
 12 23  1  0
 15 23  2  0
 18 24  2  0
M  END
>  <ID>  (1) 
conformer_0

$$$$
