
     RDKit          3D

 23 26  0  0  0  0  0  0  0  0999 V2000
   25.2975   55.3515   91.4571 C   0  0  0  0  0  0  0  0  0  0  0  0
   26.0138   56.0206   90.8133 C   0  0  0  0  0  0  0  0  0  0  0  0
   25.6573   56.4098   89.5047 N   0  0  0  0  0  0  0  0  0  0  0  0
   26.5567   57.1890   88.6927 C   0  0  0  0  0  0  0  0  0  0  0  0
   27.3332   56.2388   91.4292 C   0  0  0  0  0  0  0  0  0  0  0  0
   26.2596   57.3212   87.3422 C   0  0  0  0  0  0  0  0  0  0  0  0
   27.1105   58.1273   86.5453 C   0  0  0  0  0  0  0  0  0  0  0  0
   25.0615   56.9796   86.8407 C   0  0  0  0  0  0  0  0  0  0  0  0
   25.5706   54.9947   92.7834 N   0  0  0  0  0  0  0  0  0  0  0  0
   24.7579   57.3009   85.5401 C   0  0  0  0  0  0  0  0  0  0  0  0
   24.6959   54.2906   93.6172 C   0  0  0  0  0  0  0  0  0  0  0  0
   24.4890   56.1398   89.0136 C   0  0  0  0  0  0  0  0  0  0  0  0
   24.0953   56.3491   87.7586 C   0  0  0  0  0  0  0  0  0  0  0  0
   26.8568   58.3932   85.2521 C   0  0  0  0  0  0  0  0  0  0  0  0
   23.8816   54.8840   90.9754 C   0  0  0  0  0  0  0  0  0  0  0  0
   28.7112   58.4345   86.9457 C   0  0  0  0  0  0  0  0  0  0  0  0
   22.7941   55.9688   87.2603 C   0  0  0  0  0  0  0  0  0  0  0  0
   23.0454   54.0907   91.7436 C   0  0  0  0  0  0  0  0  0  0  0  0
   23.5276   55.2987   89.7447 C   0  0  0  0  0  0  0  0  0  0  0  0
   28.7137   59.8112   87.2898 N   0  0  0  0  0  0  0  0  0  0  0  0
   23.4672   53.8583   93.0800 C   0  0  0  0  0  0  0  0  0  0  0  0
   25.4819   57.9891   84.7839 N   0  0  0  0  0  0  0  0  0  0  0  0
   28.4844   56.1218   90.4098 N   0  0  0  0  0  0  0  0  0  0  0  0
  1  2  2  0
  2  3  1  0
  3  4  1  0
  2  5  1  0
  4  6  1  0
  6  7  1  0
  6  8  2  0
  1  9  1  0
  8 10  1  0
  9 11  1  0
  3 12  1  0
  8 13  1  0
 12 13  2  0
  7 14  2  0
  1 15  1  0
  7 16  1  0
 13 17  1  0
 15 18  1  0
 12 19  1  0
 15 19  2  0
 16 20  1  0
 11 21  2  0
 18 21  2  0
 10 22  2  0
 14 22  1  0
  5 23  1  0
M  END
>  <ID>  (1) 
conformer_0

$$$$
