
     RDKit          3D

 27 31  0  0  0  0  0  0  0  0999 V2000
   25.2975   55.3515   91.4571 C   0  0  0  0  0  0  0  0  0  0  0  0
   26.0138   56.0206   90.8133 C   0  0  0  0  0  0  0  0  0  0  0  0
   25.6573   56.4098   89.5047 N   0  0  0  0  0  0  0  0  0  0  0  0
   26.5567   57.1890   88.6927 C   0  0  0  0  0  0  0  0  0  0  0  0
   27.3332   56.2388   91.4292 C   0  0  0  0  0  0  0  0  0  0  0  0
   26.2596   57.3212   87.3422 C   0  0  0  0  0  0  0  0  0  0  0  0
   27.1105   58.1273   86.5453 C   0  0  0  0  0  0  0  0  0  0  0  0
   25.0615   56.9796   86.8407 C   0  0  0  0  0  0  0  0  0  0  0  0
   25.5706   54.9947   92.7834 N   0  0  0  0  0  0  0  0  0  0  0  0
   24.7579   57.3009   85.5401 C   0  0  0  0  0  0  0  0  0  0  0  0
   24.6959   54.2906   93.6172 C   0  0  0  0  0  0  0  0  0  0  0  0
   24.1478   56.1291   87.5325 N   0  0  0  0  0  0  0  0  0  0  0  0
   28.4657   58.5939   87.0785 C   0  0  0  0  0  0  0  0  0  0  0  0
   22.9328   55.7314   87.0943 C   0  0  0  0  0  0  0  0  0  0  0  0
   23.8955   54.8546   91.0161 C   0  0  0  0  0  0  0  0  0  0  0  0
   27.3143   57.9867   89.5118 O   0  0  0  0  0  0  0  0  0  0  0  0
   28.3792   55.3415   90.9306 N   0  0  0  0  0  0  0  0  0  0  0  0
   23.4978   53.9650   92.9640 C   0  0  0  0  0  0  0  0  0  0  0  0
   28.6474   60.0250   87.0750 C   0  0  0  0  0  0  0  0  0  0  0  0
   23.3739   56.8767   85.0618 C   0  0  0  0  0  0  0  0  0  0  0  0
   26.8589   58.4152   85.2557 C   0  0  0  0  0  0  0  0  0  0  0  0
   24.4239   55.8521   89.0045 C   0  0  0  0  0  0  0  0  0  0  0  0
   25.6312   58.0662   84.7021 N   0  0  0  0  0  0  0  0  0  0  0  0
   22.3745   56.6334   86.0618 C   0  0  0  0  0  0  0  0  0  0  0  0
   23.5681   55.0158   89.6665 C   0  0  0  0  0  0  0  0  0  0  0  0
   23.1828   54.1179   91.7784 C   0  0  0  0  0  0  0  0  0  0  0  0
   28.5146   60.6170   88.2441 O   0  0  0  0  0  0  0  0  0  0  0  0
  1  2  2  0
  2  3  1  0
  3  4  1  0
  2  5  1  0
  4  6  1  0
  6  7  1  0
  6  8  2  0
  1  9  1  0
  8 10  1  0
  9 11  1  0
  8 12  1  0
  7 13  1  0
 12 14  1  0
  1 15  1  0
  4 16  2  0
  5 17  1  0
 11 18  2  0
 13 19  1  0
 10 20  1  0
  7 21  2  0
  3 22  1  0
 12 22  1  0
 10 23  2  0
 21 23  1  0
 14 24  1  0
 20 24  1  0
 15 25  1  0
 22 25  1  0
 15 26  2  0
 18 26  1  0
 19 27  1  0
M  END
>  <ID>  (1) 
conformer_0

$$$$
