
     RDKit          3D

 23 27  0  0  0  0  0  0  0  0999 V2000
   22.5860   54.2546   90.7730 C   0  0  0  0  0  0  0  0  0  0  0  0
   22.7409   54.8437   89.6903 C   0  0  0  0  0  0  0  0  0  0  0  0
   21.5845   54.9448   88.7732 C   0  0  0  0  0  0  0  0  0  0  0  0
   23.6751   55.6282   89.4391 C   0  0  0  0  0  0  0  0  0  0  0  0
   21.6247   55.7134   87.6511 C   0  0  0  0  0  0  0  0  0  0  0  0
   23.6581   54.3718   91.6710 C   0  0  0  0  0  0  0  0  0  0  0  0
   24.7280   55.1439   91.4382 C   0  0  0  0  0  0  0  0  0  0  0  0
   24.7696   55.5598   90.2468 C   0  0  0  0  0  0  0  0  0  0  0  0
   25.9828   56.2526   89.8491 N   0  0  0  0  0  0  0  0  0  0  0  0
   23.7392   56.3241   88.0343 C   0  0  0  0  0  0  0  0  0  0  0  0
   20.5146   55.7277   86.7753 N   0  0  0  0  0  0  0  0  0  0  0  0
   26.1258   56.9963   88.7706 C   0  0  0  0  0  0  0  0  0  0  0  0
   27.4585   57.3994   88.4277 C   0  0  0  0  0  0  0  0  0  0  0  0
   22.7485   56.3994   87.3055 N   0  0  0  0  0  0  0  0  0  0  0  0
   27.7575   57.9777   87.3553 C   0  0  0  0  0  0  0  0  0  0  0  0
   25.1326   56.8861   87.6574 C   0  0  0  0  0  0  0  0  0  0  0  0
   27.1980   56.3362   90.5500 C   0  0  0  0  0  0  0  0  0  0  0  0
   28.0752   57.0271   89.7224 N   0  0  0  0  0  0  0  0  0  0  0  0
   25.3824   57.6016   86.3965 C   0  0  0  0  0  0  0  0  0  0  0  0
   29.0413   58.5551   87.1790 N   0  0  0  0  0  0  0  0  0  0  0  0
   26.7954   58.1074   86.2602 C   0  0  0  0  0  0  0  0  0  0  0  0
   29.4374   59.4272   88.1494 O   0  0  0  0  0  0  0  0  0  0  0  0
   27.6686   55.0314   91.0099 C   0  0  0  0  0  0  0  0  0  0  0  0
  1  2  1  0
  2  3  1  0
  2  4  2  0
  3  5  2  0
  1  6  2  0
  6  7  1  0
  4  8  1  0
  7  8  2  0
  8  9  1  0
  4 10  1  0
  5 11  1  0
  9 12  1  0
 12 13  1  0
  5 14  1  0
 10 14  2  0
 13 15  2  0
 10 16  1  0
 12 16  2  0
  9 17  1  0
 13 18  1  0
 17 18  1  0
 16 19  1  0
 15 20  1  0
 15 21  1  0
 19 21  2  0
 20 22  1  0
 17 23  1  0
M  END
>  <ID>  (1) 
conformer_0

$$$$
