
     RDKit          3D

 25 28  0  0  0  0  0  0  0  0999 V2000
   23.7710   54.3312   91.0244 C   0  0  0  0  0  0  0  0  0  0  0  0
   23.2172   54.7842   90.0120 C   0  0  0  0  0  0  0  0  0  0  0  0
   23.8317   55.6344   89.1337 N   0  0  0  0  0  0  0  0  0  0  0  0
   23.1094   53.5884   92.0267 N   0  0  0  0  0  0  0  0  0  0  0  0
   21.9071   53.7600   92.0247 O   0  0  0  0  0  0  0  0  0  0  0  0
   23.0910   56.0389   87.9368 C   0  0  0  0  0  0  0  0  0  0  0  0
   23.7279   56.6084   86.8788 C   0  0  0  0  0  0  0  0  0  0  0  0
   21.7290   55.6334   87.8122 C   0  0  0  0  0  0  0  0  0  0  0  0
   25.0387   56.0295   89.3903 C   0  0  0  0  0  0  0  0  0  0  0  0
   25.0732   56.8857   86.8048 C   0  0  0  0  0  0  0  0  0  0  0  0
   25.8410   57.4989   85.9009 N   0  0  0  0  0  0  0  0  0  0  0  0
   25.7909   56.7211   88.1967 C   0  0  0  0  0  0  0  0  0  0  0  0
   25.2321   54.7513   91.2528 C   0  0  0  0  0  0  0  0  0  0  0  0
   23.1487   56.4766   85.5243 C   0  0  0  0  0  0  0  0  0  0  0  0
   27.1094   57.2001   88.0681 C   0  0  0  0  0  0  0  0  0  0  0  0
   27.1026   57.8455   86.6134 N   0  0  0  0  0  0  0  0  0  0  0  0
   21.6232   56.2141   85.5799 C   0  0  0  0  0  0  0  0  0  0  0  0
   23.6196   53.2421   93.1685 O   0  0  0  0  0  0  0  0  0  0  0  0
   28.2141   57.2915   88.8739 C   0  0  0  0  0  0  0  0  0  0  0  0
   29.2834   56.9968   88.3539 O   0  0  0  0  0  0  0  0  0  0  0  0
   25.6776   55.7092   90.4793 C   0  0  0  0  0  0  0  0  0  0  0  0
   20.9874   55.8710   86.6168 C   0  0  0  0  0  0  0  0  0  0  0  0
   28.2255   58.4257   85.9917 C   0  0  0  0  0  0  0  0  0  0  0  0
   28.2132   58.1610   89.9120 O   0  0  0  0  0  0  0  0  0  0  0  0
   27.9747   59.9229   85.9481 C   0  0  0  0  0  0  0  0  0  0  0  0
  1  2  2  0
  2  3  1  0
  1  4  1  0
  4  5  1  0
  3  6  1  0
  6  7  1  0
  6  8  2  0
  3  9  1  0
  7 10  1  0
 10 11  2  0
  9 12  1  0
 10 12  1  0
  1 13  1  0
  7 14  2  0
 12 15  2  0
 11 16  1  0
 15 16  1  0
 14 17  1  0
  4 18  2  0
 15 19  1  0
 19 20  1  0
  9 21  2  0
 13 21  2  0
  8 22  1  0
 17 22  2  0
 16 23  1  0
 19 24  2  0
 23 25  1  0
M  CHG  2   4   1   5  -1
M  END
>  <ID>  (1) 
conformer_0

$$$$
