
     RDKit          3D

 28 34  0  0  0  0  0  0  0  0999 V2000
   25.2975   55.3515   91.4571 C   0  0  0  0  0  0  0  0  0  0  0  0
   26.0138   56.0206   90.8133 C   0  0  0  0  0  0  0  0  0  0  0  0
   25.6573   56.4098   89.5047 N   0  0  0  0  0  0  0  0  0  0  0  0
   26.5567   57.1890   88.6927 C   0  0  0  0  0  0  0  0  0  0  0  0
   27.3332   56.2388   91.4292 C   0  0  0  0  0  0  0  0  0  0  0  0
   26.2596   57.3212   87.3422 C   0  0  0  0  0  0  0  0  0  0  0  0
   27.1105   58.1273   86.5453 C   0  0  0  0  0  0  0  0  0  0  0  0
   25.0615   56.9796   86.8407 C   0  0  0  0  0  0  0  0  0  0  0  0
   25.5706   54.9947   92.7834 N   0  0  0  0  0  0  0  0  0  0  0  0
   24.7579   57.3009   85.5401 C   0  0  0  0  0  0  0  0  0  0  0  0
   24.6959   54.2906   93.6172 C   0  0  0  0  0  0  0  0  0  0  0  0
   24.1478   56.1291   87.5325 N   0  0  0  0  0  0  0  0  0  0  0  0
   28.4657   58.5939   87.0785 C   0  0  0  0  0  0  0  0  0  0  0  0
   26.8518   55.5973   92.8941 N   0  0  0  0  0  0  0  0  0  0  0  0
   25.5641   58.0632   84.8214 N   0  0  0  0  0  0  0  0  0  0  0  0
   28.4032   56.7342   91.2605 N   0  0  0  0  0  0  0  0  0  0  0  0
   28.4514   58.6243   88.5016 N   0  0  0  0  0  0  0  0  0  0  0  0
   29.0592   59.6983   86.4422 C   0  0  0  0  0  0  0  0  0  0  0  0
   23.8410   54.8590   91.0261 C   0  0  0  0  0  0  0  0  0  0  0  0
   27.8701   57.5509   89.1624 C   0  0  0  0  0  0  0  0  0  0  0  0
   23.0470   54.1578   91.9543 C   0  0  0  0  0  0  0  0  0  0  0  0
   23.3334   55.0107   89.7033 C   0  0  0  0  0  0  0  0  0  0  0  0
   28.5839   56.9930   90.2130 C   0  0  0  0  0  0  0  0  0  0  0  0
   22.9682   55.6973   87.0837 C   0  0  0  0  0  0  0  0  0  0  0  0
   24.4596   55.9384   88.8737 C   0  0  0  0  0  0  0  0  0  0  0  0
   26.7538   58.4504   85.2522 C   0  0  0  0  0  0  0  0  0  0  0  0
   28.0245   60.7239   86.1585 O   0  0  0  0  0  0  0  0  0  0  0  0
   23.5409   53.9441   93.2588 C   0  0  0  0  0  0  0  0  0  0  0  0
  1  2  2  0
  2  3  1  0
  3  4  1  0
  2  5  1  0
  4  6  1  0
  6  7  1  0
  6  8  2  0
  1  9  1  0
  8 10  1  0
  9 11  1  0
  8 12  1  0
  7 13  1  0
  5 14  2  0
  9 14  1  0
 10 15  2  0
  5 16  1  0
 13 17  1  0
 13 18  1  0
  1 19  1  0
  4 20  1  0
 17 20  1  0
 19 21  2  0
 19 22  1  0
 16 23  1  0
 20 23  1  0
 12 24  1  0
  3 25  1  0
 12 25  1  0
 22 25  2  0
  7 26  2  0
 15 26  1  0
 18 27  1  0
 11 28  2  0
 21 28  1  0
M  END
>  <ID>  (1) 
conformer_0

$$$$
