
     RDKit          3D

 26 30  0  0  0  0  0  0  0  0999 V2000
   23.7710   54.3312   91.0244 C   0  0  0  0  0  0  0  0  0  0  0  0
   23.2172   54.7842   90.0120 C   0  0  0  0  0  0  0  0  0  0  0  0
   23.8317   55.6344   89.1337 N   0  0  0  0  0  0  0  0  0  0  0  0
   23.1094   53.5884   92.0267 N   0  0  0  0  0  0  0  0  0  0  0  0
   21.9071   53.7600   92.0247 O   0  0  0  0  0  0  0  0  0  0  0  0
   23.0910   56.0389   87.9368 C   0  0  0  0  0  0  0  0  0  0  0  0
   23.7279   56.6084   86.8788 C   0  0  0  0  0  0  0  0  0  0  0  0
   21.7290   55.6334   87.8122 C   0  0  0  0  0  0  0  0  0  0  0  0
   25.0387   56.0295   89.3903 C   0  0  0  0  0  0  0  0  0  0  0  0
   25.0732   56.8857   86.8048 C   0  0  0  0  0  0  0  0  0  0  0  0
   25.8410   57.4989   85.9009 N   0  0  0  0  0  0  0  0  0  0  0  0
   25.7909   56.7211   88.1967 C   0  0  0  0  0  0  0  0  0  0  0  0
   27.1443   57.1000   88.0922 C   0  0  0  0  0  0  0  0  0  0  0  0
   27.1698   57.7799   86.4712 C   0  0  0  0  0  0  0  0  0  0  0  0
   27.8122   57.6696   87.3233 C   0  0  0  0  0  0  0  0  0  0  0  0
   25.1147   54.9550   91.3750 C   0  0  0  0  0  0  0  0  0  0  0  0
   29.2181   58.0435   87.5753 O   0  0  0  0  0  0  0  0  0  0  0  0
   25.8993   55.6404   90.4444 C   0  0  0  0  0  0  0  0  0  0  0  0
   27.9597   56.8106   89.5381 C   0  0  0  0  0  0  0  0  0  0  0  0
   20.8829   56.0965   86.8814 C   0  0  0  0  0  0  0  0  0  0  0  0
   27.9983   58.5802   85.1391 C   0  0  0  0  0  0  0  0  0  0  0  0
   21.4663   56.7844   85.8048 C   0  0  0  0  0  0  0  0  0  0  0  0
   22.9544   57.0506   85.7963 C   0  0  0  0  0  0  0  0  0  0  0  0
   27.0854   56.3421   90.5753 C   0  0  0  0  0  0  0  0  0  0  0  0
   23.7114   53.1821   93.0834 O   0  0  0  0  0  0  0  0  0  0  0  0
   27.8560   55.3271   91.4148 O   0  0  0  0  0  0  0  0  0  0  0  0
  1  2  2  0
  2  3  1  0
  1  4  1  0
  4  5  1  0
  3  6  1  0
  6  7  1  0
  6  8  2  0
  3  9  1  0
  7 10  1  0
 10 11  2  0
  9 12  1  0
 10 12  1  0
 12 13  2  0
 11 14  1  0
 13 15  1  0
 14 15  2  0
  1 16  1  0
 15 17  1  0
  9 18  1  0
 16 18  2  0
 13 19  1  0
  8 20  1  0
 14 21  1  0
 20 22  2  0
  7 23  2  0
 22 23  1  0
 18 24  1  0
 19 24  1  0
  4 25  2  0
 24 26  1  0
M  CHG  2   4   1   5  -1
M  END
>  <ID>  (1) 
conformer_0

$$$$
