
     RDKit          3D

 23 26  0  0  0  0  0  0  0  0999 V2000
   25.2975   55.3515   91.4571 C   0  0  0  0  0  0  0  0  0  0  0  0
   26.0138   56.0206   90.8133 C   0  0  0  0  0  0  0  0  0  0  0  0
   25.6573   56.4098   89.5047 N   0  0  0  0  0  0  0  0  0  0  0  0
   26.5567   57.1890   88.6927 C   0  0  0  0  0  0  0  0  0  0  0  0
   27.3332   56.2388   91.4292 C   0  0  0  0  0  0  0  0  0  0  0  0
   26.2596   57.3212   87.3422 C   0  0  0  0  0  0  0  0  0  0  0  0
   27.1105   58.1273   86.5453 C   0  0  0  0  0  0  0  0  0  0  0  0
   25.0615   56.9796   86.8407 C   0  0  0  0  0  0  0  0  0  0  0  0
   25.5706   54.9947   92.7834 N   0  0  0  0  0  0  0  0  0  0  0  0
   24.7579   57.3009   85.5401 C   0  0  0  0  0  0  0  0  0  0  0  0
   24.4072   55.9607   89.1860 C   0  0  0  0  0  0  0  0  0  0  0  0
   28.4424   58.6320   87.1560 C   0  0  0  0  0  0  0  0  0  0  0  0
   23.9536   56.1967   87.7849 C   0  0  0  0  0  0  0  0  0  0  0  0
   22.6365   56.5136   87.6237 C   0  0  0  0  0  0  0  0  0  0  0  0
   28.3977   58.5308   88.6088 N   0  0  0  0  0  0  0  0  0  0  0  0
   27.3188   58.0271   89.4340 C   0  0  0  0  0  0  0  0  0  0  0  0
   29.2651   59.2920   86.5272 O   0  0  0  0  0  0  0  0  0  0  0  0
   26.8887   58.3648   85.2309 C   0  0  0  0  0  0  0  0  0  0  0  0
   23.6864   55.3363   90.0044 C   0  0  0  0  0  0  0  0  0  0  0  0
   25.6634   57.9310   84.7573 N   0  0  0  0  0  0  0  0  0  0  0  0
   23.9535   54.9649   91.1576 C   0  0  0  0  0  0  0  0  0  0  0  0
   28.3759   55.5786   90.6639 O   0  0  0  0  0  0  0  0  0  0  0  0
   23.0849   54.3028   91.9829 O   0  0  0  0  0  0  0  0  0  0  0  0
  1  2  2  0
  2  3  1  0
  3  4  1  0
  2  5  1  0
  4  6  1  0
  6  7  1  0
  6  8  2  0
  1  9  1  0
  8 10  1  0
  3 11  1  0
  7 12  1  0
  8 13  1  0
 11 13  1  0
 13 14  1  0
 12 15  1  0
  4 16  1  0
 15 16  1  0
 12 17  2  0
  7 18  2  0
 11 19  2  0
 10 20  2  0
 18 20  1  0
  1 21  1  0
 19 21  1  0
  5 22  1  0
 21 23  1  0
M  END
>  <ID>  (1) 
conformer_0

$$$$
