
     RDKit          3D

 28 33  0  0  0  0  0  0  0  0999 V2000
   25.2975   55.3515   91.4571 C   0  0  0  0  0  0  0  0  0  0  0  0
   26.0138   56.0206   90.8133 C   0  0  0  0  0  0  0  0  0  0  0  0
   25.6573   56.4098   89.5047 N   0  0  0  0  0  0  0  0  0  0  0  0
   26.5567   57.1890   88.6927 C   0  0  0  0  0  0  0  0  0  0  0  0
   27.3332   56.2388   91.4292 C   0  0  0  0  0  0  0  0  0  0  0  0
   26.2596   57.3212   87.3422 C   0  0  0  0  0  0  0  0  0  0  0  0
   27.1105   58.1273   86.5453 C   0  0  0  0  0  0  0  0  0  0  0  0
   25.0615   56.9796   86.8407 C   0  0  0  0  0  0  0  0  0  0  0  0
   25.5706   54.9947   92.7834 N   0  0  0  0  0  0  0  0  0  0  0  0
   24.7579   57.3009   85.5401 C   0  0  0  0  0  0  0  0  0  0  0  0
   24.6959   54.2906   93.6172 C   0  0  0  0  0  0  0  0  0  0  0  0
   24.4890   56.1398   89.0136 C   0  0  0  0  0  0  0  0  0  0  0  0
   24.0953   56.3491   87.7586 C   0  0  0  0  0  0  0  0  0  0  0  0
   26.8568   58.3932   85.2521 C   0  0  0  0  0  0  0  0  0  0  0  0
   23.8816   54.8840   90.9754 C   0  0  0  0  0  0  0  0  0  0  0  0
   28.7112   58.4345   86.9457 C   0  0  0  0  0  0  0  0  0  0  0  0
   22.7941   55.9688   87.2603 C   0  0  0  0  0  0  0  0  0  0  0  0
   23.0454   54.0907   91.7436 C   0  0  0  0  0  0  0  0  0  0  0  0
   23.4540   56.9364   84.9639 C   0  0  0  0  0  0  0  0  0  0  0  0
   25.6179   58.0246   84.7510 N   0  0  0  0  0  0  0  0  0  0  0  0
   21.7385   55.7519   88.0321 C   0  0  0  0  0  0  0  0  0  0  0  0
   21.9654   53.6430   91.2988 O   0  0  0  0  0  0  0  0  0  0  0  0
   23.5496   55.2207   89.9047 C   0  0  0  0  0  0  0  0  0  0  0  0
   23.4403   53.8967   93.1392 C   0  0  0  0  0  0  0  0  0  0  0  0
   28.8904   59.7341   86.7404 N   0  0  0  0  0  0  0  0  0  0  0  0
   28.4022   55.5592   90.6132 O   0  0  0  0  0  0  0  0  0  0  0  0
   22.4403   56.4310   85.8456 C   0  0  0  0  0  0  0  0  0  0  0  0
   22.2251   55.0504   89.2601 N   0  0  0  0  0  0  0  0  0  0  0  0
  1  2  2  0
  2  3  1  0
  3  4  1  0
  2  5  1  0
  4  6  1  0
  6  7  1  0
  6  8  2  0
  1  9  1  0
  8 10  1  0
  9 11  1  0
  3 12  1  0
  8 13  1  0
 12 13  2  0
  7 14  2  0
  1 15  1  0
  7 16  1  0
 13 17  1  0
 15 18  1  0
 10 19  1  0
 10 20  2  0
 14 20  1  0
 17 21  1  0
 18 22  2  0
 12 23  1  0
 15 23  2  0
 11 24  2  0
 18 24  1  0
 16 25  1  0
  5 26  1  0
 17 27  2  0
 19 27  1  0
 21 28  2  0
 23 28  1  0
M  END
>  <ID>  (1) 
conformer_0

$$$$
