
     RDKit          3D

 13 14  0  0  0  0  0  0  0  0999 V2000
   22.5436   53.7944   91.7707 C   0  0  0  0  0  0  0  0  0  0  0  0
   21.9212   54.0502   90.7376 C   0  0  0  0  0  0  0  0  0  0  0  0
   22.4902   54.8278   89.6903 C   0  0  0  0  0  0  0  0  0  0  0  0
   23.8083   55.3686   89.9992 C   0  0  0  0  0  0  0  0  0  0  0  0
   23.7567   54.3157   92.1160 C   0  0  0  0  0  0  0  0  0  0  0  0
   24.3780   55.1510   91.1858 C   0  0  0  0  0  0  0  0  0  0  0  0
   25.6947   55.5135   91.3210 N   0  0  0  0  0  0  0  0  0  0  0  0
   26.3526   56.2380   90.4244 C   0  0  0  0  0  0  0  0  0  0  0  0
   27.6331   56.6693   90.7233 C   0  0  0  0  0  0  0  0  0  0  0  0
   25.6389   56.8022   89.2556 C   0  0  0  0  0  0  0  0  0  0  0  0
   28.5634   56.1852   89.7722 N   0  0  0  0  0  0  0  0  0  0  0  0
   28.4857   56.7401   88.6101 O   0  0  0  0  0  0  0  0  0  0  0  0
   24.3424   56.2510   88.8838 C   0  0  0  0  0  0  0  0  0  0  0  0
  1  2  1  0
  2  3  2  0
  3  4  1  0
  1  5  2  0
  4  6  2  0
  5  6  1  0
  6  7  1  0
  7  8  2  0
  8  9  1  0
  8 10  1  0
  9 11  1  0
 11 12  1  0
  4 13  1  0
 10 13  2  0
M  END
>  <ID>  (1) 
conformer_0

$$$$
