
     RDKit          3D

 27 30  0  0  0  0  0  0  0  0999 V2000
   23.7710   54.3312   91.0244 C   0  0  0  0  0  0  0  0  0  0  0  0
   23.2172   54.7842   90.0120 C   0  0  0  0  0  0  0  0  0  0  0  0
   23.8317   55.6344   89.1337 N   0  0  0  0  0  0  0  0  0  0  0  0
   23.1094   53.5884   92.0267 N   0  0  0  0  0  0  0  0  0  0  0  0
   21.9071   53.7600   92.0247 O   0  0  0  0  0  0  0  0  0  0  0  0
   23.0910   56.0389   87.9368 C   0  0  0  0  0  0  0  0  0  0  0  0
   23.7279   56.6084   86.8788 C   0  0  0  0  0  0  0  0  0  0  0  0
   21.7290   55.6334   87.8122 C   0  0  0  0  0  0  0  0  0  0  0  0
   25.0387   56.0295   89.3903 C   0  0  0  0  0  0  0  0  0  0  0  0
   25.0732   56.8857   86.8048 C   0  0  0  0  0  0  0  0  0  0  0  0
   25.1472   54.9150   91.2484 C   0  0  0  0  0  0  0  0  0  0  0  0
   25.7650   56.9205   88.3821 C   0  0  0  0  0  0  0  0  0  0  0  0
   23.7065   52.7564   92.6705 O   0  0  0  0  0  0  0  0  0  0  0  0
   22.9888   56.6367   85.6500 C   0  0  0  0  0  0  0  0  0  0  0  0
   25.7019   55.7702   90.4617 C   0  0  0  0  0  0  0  0  0  0  0  0
   26.9171   57.4352   88.3076 C   0  0  0  0  0  0  0  0  0  0  0  0
   26.9701   56.4250   90.8082 C   0  0  0  0  0  0  0  0  0  0  0  0
   27.6121   58.1548   87.3815 C   0  0  0  0  0  0  0  0  0  0  0  0
   28.6474   58.9968   87.6501 C   0  0  0  0  0  0  0  0  0  0  0  0
   23.7218   57.2575   84.4549 C   0  0  0  0  0  0  0  0  0  0  0  0
   27.6712   57.2026   89.8056 C   0  0  0  0  0  0  0  0  0  0  0  0
   21.7024   56.3936   85.5131 C   0  0  0  0  0  0  0  0  0  0  0  0
   20.9162   55.2005   88.9779 O   0  0  0  0  0  0  0  0  0  0  0  0
   27.8504   55.3671   91.2644 O   0  0  0  0  0  0  0  0  0  0  0  0
   28.7786   57.6536   89.7743 O   0  0  0  0  0  0  0  0  0  0  0  0
   21.0268   55.9483   86.7106 C   0  0  0  0  0  0  0  0  0  0  0  0
   29.7564   58.9927   86.8551 N   0  0  0  0  0  0  0  0  0  0  0  0
  1  2  2  0
  2  3  1  0
  1  4  1  0
  4  5  1  0
  3  6  1  0
  6  7  1  0
  6  8  2  0
  3  9  1  0
  7 10  1  0
  1 11  1  0
  9 12  1  0
 10 12  1  0
  4 13  2  0
  7 14  2  0
  9 15  2  0
 11 15  1  0
 12 16  2  0
 15 17  1  0
 16 18  1  0
 18 19  1  0
 14 20  1  0
 16 21  1  0
 17 21  1  0
 14 22  1  0
  8 23  1  0
 17 24  1  0
 21 25  2  0
  8 26  1  0
 22 26  2  0
 19 27  1  0
M  CHG  2   4   1   5  -1
M  END
>  <ID>  (1) 
conformer_0

$$$$
