
     RDKit          3D

 23 26  0  0  0  0  0  0  0  0999 V2000
   25.2975   55.3515   91.4571 C   0  0  0  0  0  0  0  0  0  0  0  0
   26.0138   56.0206   90.8133 C   0  0  0  0  0  0  0  0  0  0  0  0
   25.6573   56.4098   89.5047 N   0  0  0  0  0  0  0  0  0  0  0  0
   26.5567   57.1890   88.6927 C   0  0  0  0  0  0  0  0  0  0  0  0
   27.3332   56.2388   91.4292 C   0  0  0  0  0  0  0  0  0  0  0  0
   26.2596   57.3212   87.3422 C   0  0  0  0  0  0  0  0  0  0  0  0
   27.1105   58.1273   86.5453 C   0  0  0  0  0  0  0  0  0  0  0  0
   25.0615   56.9796   86.8407 C   0  0  0  0  0  0  0  0  0  0  0  0
   25.5706   54.9947   92.7834 N   0  0  0  0  0  0  0  0  0  0  0  0
   24.7579   57.3009   85.5401 C   0  0  0  0  0  0  0  0  0  0  0  0
   24.6959   54.2906   93.6172 C   0  0  0  0  0  0  0  0  0  0  0  0
   24.1478   56.1291   87.5325 N   0  0  0  0  0  0  0  0  0  0  0  0
   23.9347   54.7261   91.0468 C   0  0  0  0  0  0  0  0  0  0  0  0
   23.5946   55.0581   89.6994 C   0  0  0  0  0  0  0  0  0  0  0  0
   26.8246   58.4476   85.2885 C   0  0  0  0  0  0  0  0  0  0  0  0
   28.5513   58.5594   87.1125 C   0  0  0  0  0  0  0  0  0  0  0  0
   28.8187   58.2597   88.2062 O   0  0  0  0  0  0  0  0  0  0  0  0
   28.5133   56.0116   90.6231 N   0  0  0  0  0  0  0  0  0  0  0  0
   23.5130   53.8425   93.1238 C   0  0  0  0  0  0  0  0  0  0  0  0
   24.4946   55.8977   88.8989 C   0  0  0  0  0  0  0  0  0  0  0  0
   23.1523   54.0831   91.8066 C   0  0  0  0  0  0  0  0  0  0  0  0
   28.5921   60.1117   86.8897 C   0  0  0  0  0  0  0  0  0  0  0  0
   25.6157   58.1007   84.7501 C   0  0  0  0  0  0  0  0  0  0  0  0
  1  2  2  0
  2  3  1  0
  3  4  1  0
  2  5  1  0
  4  6  1  0
  6  7  1  0
  6  8  2  0
  1  9  1  0
  8 10  1  0
  9 11  1  0
  8 12  1  0
  1 13  1  0
 13 14  1  0
  7 15  2  0
  7 16  1  0
 16 17  1  0
  5 18  1  0
 11 19  2  0
  3 20  1  0
 12 20  2  0
 14 20  1  0
 13 21  2  0
 19 21  1  0
 16 22  1  0
 10 23  2  0
 15 23  1  0
M  END
>  <ID>  (1) 
conformer_0

$$$$
