
     RDKit          3D

 27 31  0  0  0  0  0  0  0  0999 V2000
   23.7710   54.3312   91.0244 C   0  0  0  0  0  0  0  0  0  0  0  0
   23.2172   54.7842   90.0120 C   0  0  0  0  0  0  0  0  0  0  0  0
   23.8317   55.6344   89.1337 N   0  0  0  0  0  0  0  0  0  0  0  0
   23.1094   53.5884   92.0267 N   0  0  0  0  0  0  0  0  0  0  0  0
   21.9071   53.7600   92.0247 O   0  0  0  0  0  0  0  0  0  0  0  0
   23.0910   56.0389   87.9368 C   0  0  0  0  0  0  0  0  0  0  0  0
   23.7279   56.6084   86.8788 C   0  0  0  0  0  0  0  0  0  0  0  0
   21.7290   55.6334   87.8122 C   0  0  0  0  0  0  0  0  0  0  0  0
   25.0387   56.0295   89.3903 C   0  0  0  0  0  0  0  0  0  0  0  0
   25.0732   56.8857   86.8048 C   0  0  0  0  0  0  0  0  0  0  0  0
   25.8410   57.4989   85.9009 N   0  0  0  0  0  0  0  0  0  0  0  0
   25.8293   56.7753   88.3377 C   0  0  0  0  0  0  0  0  0  0  0  0
   25.1343   54.8375   91.4282 C   0  0  0  0  0  0  0  0  0  0  0  0
   25.6806   55.7692   90.6693 C   0  0  0  0  0  0  0  0  0  0  0  0
   23.6755   52.8661   92.8537 O   0  0  0  0  0  0  0  0  0  0  0  0
   27.0529   56.3019   90.8994 C   0  0  0  0  0  0  0  0  0  0  0  0
   27.0929   57.9505   86.3936 C   0  0  0  0  0  0  0  0  0  0  0  0
   27.8939   58.7113   85.4636 N   0  0  0  0  0  0  0  0  0  0  0  0
   28.1744   55.5908   90.7669 O   0  0  0  0  0  0  0  0  0  0  0  0
   27.0404   57.2728   88.5102 N   0  0  0  0  0  0  0  0  0  0  0  0
   21.2061   56.1545   86.5075 C   0  0  0  0  0  0  0  0  0  0  0  0
   23.0705   56.9208   85.4984 C   0  0  0  0  0  0  0  0  0  0  0  0
   27.5965   60.0154   85.2952 C   0  0  0  0  0  0  0  0  0  0  0  0
   27.7699   57.7633   87.6541 C   0  0  0  0  0  0  0  0  0  0  0  0
   29.1229   57.7150   87.5631 O   0  0  0  0  0  0  0  0  0  0  0  0
   27.4577   57.4369   89.9676 C   0  0  0  0  0  0  0  0  0  0  0  0
   21.7421   56.6309   85.5003 N   0  0  0  0  0  0  0  0  0  0  0  0
  1  2  2  0
  2  3  1  0
  1  4  1  0
  4  5  1  0
  3  6  1  0
  6  7  1  0
  6  8  2  0
  3  9  1  0
  7 10  1  0
 10 11  2  0
  9 12  2  0
 10 12  1  0
  1 13  1  0
  9 14  1  0
 13 14  2  0
  4 15  2  0
 14 16  1  0
 11 17  1  0
 17 18  1  0
 16 19  1  0
 12 20  1  0
  8 21  1  0
  7 22  2  0
 18 23  1  0
 17 24  1  0
 20 24  1  0
 24 25  2  0
 16 26  1  0
 20 26  1  0
 21 27  2  0
 22 27  1  0
M  CHG  2   4   1   5  -1
M  END
>  <ID>  (1) 
conformer_0

$$$$
