
     RDKit          3D

 27 30  0  0  0  0  0  0  0  0999 V2000
   21.7810   54.3329   90.0281 C   0  0  0  0  0  0  0  0  0  0  0  0
   22.1233   54.9645   89.0208 N   0  0  0  0  0  0  0  0  0  0  0  0
   23.2561   55.6366   88.8846 C   0  0  0  0  0  0  0  0  0  0  0  0
   24.0654   55.3053   89.9664 C   0  0  0  0  0  0  0  0  0  0  0  0
   23.2920   54.4328   90.8772 C   0  0  0  0  0  0  0  0  0  0  0  0
   23.4758   53.9209   92.0881 C   0  0  0  0  0  0  0  0  0  0  0  0
   25.2746   55.6633   90.5062 C   0  0  0  0  0  0  0  0  0  0  0  0
   25.6951   55.1601   91.7152 C   0  0  0  0  0  0  0  0  0  0  0  0
   23.7774   56.3709   87.7302 C   0  0  0  0  0  0  0  0  0  0  0  0
   26.9354   55.5873   92.2815 O   0  0  0  0  0  0  0  0  0  0  0  0
   25.0901   56.6702   87.6897 N   0  0  0  0  0  0  0  0  0  0  0  0
   25.3305   57.3693   86.5424 C   0  0  0  0  0  0  0  0  0  0  0  0
   26.6567   57.9680   86.3926 C   0  0  0  0  0  0  0  0  0  0  0  0
   27.5744   58.0067   87.4624 N   0  0  0  0  0  0  0  0  0  0  0  0
   28.3639   57.1178   87.8943 C   0  0  0  0  0  0  0  0  0  0  0  0
   27.1308   58.3571   85.1552 C   0  0  0  0  0  0  0  0  0  0  0  0
   22.7492   56.6721   86.7980 C   0  0  0  0  0  0  0  0  0  0  0  0
   27.6101   59.3057   88.1814 C   0  0  0  0  0  0  0  0  0  0  0  0
   22.6816   53.1911   92.9052 C   0  0  0  0  0  0  0  0  0  0  0  0
   20.8327   53.4990   90.3201 O   0  0  0  0  0  0  0  0  0  0  0  0
   24.8266   54.3446   92.6375 C   0  0  0  0  0  0  0  0  0  0  0  0
   23.1486   57.2811   85.6204 C   0  0  0  0  0  0  0  0  0  0  0  0
   26.1512   58.3495   84.0954 C   0  0  0  0  0  0  0  0  0  0  0  0
   24.4752   57.6185   85.4728 C   0  0  0  0  0  0  0  0  0  0  0  0
   24.8734   58.1494   84.3547 N   0  0  0  0  0  0  0  0  0  0  0  0
   29.2377   56.4234   87.3825 O   0  0  0  0  0  0  0  0  0  0  0  0
   28.4581   57.1655   89.4249 O   0  0  0  0  0  0  0  0  0  0  0  0
  1  2  1  0
  2  3  2  0
  3  4  1  0
  1  5  1  0
  4  5  1  0
  5  6  2  0
  4  7  2  0
  7  8  1  0
  3  9  1  0
  8 10  1  0
  9 11  2  0
 11 12  1  0
 12 13  1  0
 13 14  1  0
 14 15  1  0
 13 16  2  0
  9 17  1  0
 14 18  1  0
  6 19  1  0
  1 20  2  0
  6 21  1  0
  8 21  2  0
 17 22  2  0
 16 23  1  0
 12 24  2  0
 22 24  1  0
 23 25  2  0
 24 25  1  0
 15 26  2  0
 15 27  1  0
M  END
>  <ID>  (1) 
conformer_0

$$$$
