
     RDKit          3D

 24 28  0  0  0  0  0  0  0  0999 V2000
   25.2975   55.3515   91.4571 C   0  0  0  0  0  0  0  0  0  0  0  0
   26.0138   56.0206   90.8133 C   0  0  0  0  0  0  0  0  0  0  0  0
   25.6573   56.4098   89.5047 N   0  0  0  0  0  0  0  0  0  0  0  0
   26.5567   57.1890   88.6927 C   0  0  0  0  0  0  0  0  0  0  0  0
   27.3332   56.2388   91.4292 C   0  0  0  0  0  0  0  0  0  0  0  0
   26.2596   57.3212   87.3422 C   0  0  0  0  0  0  0  0  0  0  0  0
   27.1105   58.1273   86.5453 C   0  0  0  0  0  0  0  0  0  0  0  0
   25.0615   56.9796   86.8407 C   0  0  0  0  0  0  0  0  0  0  0  0
   25.5706   54.9947   92.7834 N   0  0  0  0  0  0  0  0  0  0  0  0
   24.7579   57.3009   85.5401 C   0  0  0  0  0  0  0  0  0  0  0  0
   24.6959   54.2906   93.6172 C   0  0  0  0  0  0  0  0  0  0  0  0
   24.1478   56.1291   87.5325 N   0  0  0  0  0  0  0  0  0  0  0  0
   28.4657   58.5939   87.0785 C   0  0  0  0  0  0  0  0  0  0  0  0
   22.9328   55.7314   87.0943 C   0  0  0  0  0  0  0  0  0  0  0  0
   23.8955   54.8546   91.0161 C   0  0  0  0  0  0  0  0  0  0  0  0
   28.9821   59.8192   86.5587 N   0  0  0  0  0  0  0  0  0  0  0  0
   27.5727   57.5545   89.3702 N   0  0  0  0  0  0  0  0  0  0  0  0
   26.7824   58.5036   85.4910 C   0  0  0  0  0  0  0  0  0  0  0  0
   28.0788   57.1368   90.6025 C   0  0  0  0  0  0  0  0  0  0  0  0
   23.4957   56.8547   84.9249 C   0  0  0  0  0  0  0  0  0  0  0  0
   24.2901   56.2558   89.0401 C   0  0  0  0  0  0  0  0  0  0  0  0
   23.4160   55.3154   89.6888 C   0  0  0  0  0  0  0  0  0  0  0  0
   25.6308   58.0933   84.8223 N   0  0  0  0  0  0  0  0  0  0  0  0
   22.5783   56.2265   85.7689 C   0  0  0  0  0  0  0  0  0  0  0  0
  1  2  2  0
  2  3  1  0
  3  4  1  0
  2  5  1  0
  4  6  1  0
  6  7  1  0
  6  8  2  0
  1  9  1  0
  8 10  1  0
  9 11  1  0
  8 12  1  0
  7 13  1  0
 12 14  1  0
  1 15  1  0
 13 16  1  0
  4 17  2  0
  7 18  2  0
  5 19  1  0
 17 19  1  0
 10 20  1  0
  3 21  1  0
 12 21  1  0
 15 22  2  0
 21 22  1  0
 10 23  2  0
 18 23  1  0
 14 24  1  0
 20 24  1  0
M  END
>  <ID>  (1) 
conformer_0

$$$$
