
     RDKit          3D

 24 26  0  0  0  0  0  0  0  0999 V2000
   24.7278   55.4005   90.8164 C   0  0  0  0  0  0  0  0  0  0  0  0
   25.5322   56.0654   90.4332 C   0  0  0  0  0  0  0  0  0  0  0  0
   25.6137   56.6656   89.1583 C   0  0  0  0  0  0  0  0  0  0  0  0
   23.5467   55.1554   89.9118 C   0  0  0  0  0  0  0  0  0  0  0  0
   23.5267   55.7795   88.7095 C   0  0  0  0  0  0  0  0  0  0  0  0
   24.6227   56.5448   88.3116 C   0  0  0  0  0  0  0  0  0  0  0  0
   22.3411   55.7053   87.8090 C   0  0  0  0  0  0  0  0  0  0  0  0
   26.8330   57.3519   88.7356 N   0  0  0  0  0  0  0  0  0  0  0  0
   22.0664   56.1933   86.8526 N   0  0  0  0  0  0  0  0  0  0  0  0
   26.8132   58.1462   87.7094 C   0  0  0  0  0  0  0  0  0  0  0  0
   22.5152   54.1266   90.3544 C   0  0  0  0  0  0  0  0  0  0  0  0
   21.5836   53.9896   89.4904 C   0  0  0  0  0  0  0  0  0  0  0  0
   20.4346   53.2578   89.8518 C   0  0  0  0  0  0  0  0  0  0  0  0
   26.1011   58.0588   86.6474 O   0  0  0  0  0  0  0  0  0  0  0  0
   22.5636   53.4077   91.4330 N   0  0  0  0  0  0  0  0  0  0  0  0
   28.3727   58.6794   87.4118 C   0  0  0  0  0  0  0  0  0  0  0  0
   29.2272   58.1097   87.6050 N   0  0  0  0  0  0  0  0  0  0  0  0
   28.4449   59.4337   86.1618 C   0  0  0  0  0  0  0  0  0  0  0  0
   21.6226   52.7335   91.8096 N   0  0  0  0  0  0  0  0  0  0  0  0
   26.9262   56.2913   91.2957 C   0  0  0  0  0  0  0  0  0  0  0  0
   21.2679   54.7086   88.2510 N   0  0  0  0  0  0  0  0  0  0  0  0
   20.4936   52.6702   90.9592 C   0  0  0  0  0  0  0  0  0  0  0  0
   28.1084   55.7354   90.7211 N   0  0  0  0  0  0  0  0  0  0  0  0
   27.3131   60.2509   85.7768 O   0  0  0  0  0  0  0  0  0  0  0  0
  1  2  2  0
  2  3  1  0
  1  4  1  0
  4  5  2  0
  3  6  2  0
  5  6  1  0
  5  7  1  0
  3  8  1  0
  7  9  2  0
  8 10  2  3
  4 11  1  0
 11 12  1  0
 12 13  2  0
 10 14  1  0
 11 15  2  0
 10 16  1  0
 16 17  1  0
 16 18  1  0
 15 19  1  0
  2 20  1  0
  7 21  1  0
 12 21  1  0
 13 22  1  0
 19 22  2  0
 20 23  1  0
 18 24  1  0
M  END
>  <ID>  (1) 
conformer_0

$$$$
