
     RDKit          3D

 27 32  0  0  0  0  0  0  0  0999 V2000
   25.2975   55.3515   91.4571 C   0  0  0  0  0  0  0  0  0  0  0  0
   26.0138   56.0206   90.8133 C   0  0  0  0  0  0  0  0  0  0  0  0
   25.6573   56.4098   89.5047 N   0  0  0  0  0  0  0  0  0  0  0  0
   26.5567   57.1890   88.6927 C   0  0  0  0  0  0  0  0  0  0  0  0
   27.3332   56.2388   91.4292 C   0  0  0  0  0  0  0  0  0  0  0  0
   26.2596   57.3212   87.3422 C   0  0  0  0  0  0  0  0  0  0  0  0
   27.1105   58.1273   86.5453 C   0  0  0  0  0  0  0  0  0  0  0  0
   25.0615   56.9796   86.8407 C   0  0  0  0  0  0  0  0  0  0  0  0
   25.5706   54.9947   92.7834 N   0  0  0  0  0  0  0  0  0  0  0  0
   23.9095   54.7921   91.0420 C   0  0  0  0  0  0  0  0  0  0  0  0
   24.6905   57.2534   85.6528 N   0  0  0  0  0  0  0  0  0  0  0  0
   24.3091   55.8888   87.6307 C   0  0  0  0  0  0  0  0  0  0  0  0
   23.0499   55.4239   87.1794 N   0  0  0  0  0  0  0  0  0  0  0  0
   24.5947   55.7924   88.9572 C   0  0  0  0  0  0  0  0  0  0  0  0
   26.6686   58.5641   85.3581 N   0  0  0  0  0  0  0  0  0  0  0  0
   25.4157   58.2139   84.9377 C   0  0  0  0  0  0  0  0  0  0  0  0
   23.6133   55.0851   89.6352 C   0  0  0  0  0  0  0  0  0  0  0  0
   22.9992   54.2254   91.7797 C   0  0  0  0  0  0  0  0  0  0  0  0
   21.7996   53.7468   91.2610 C   0  0  0  0  0  0  0  0  0  0  0  0
   28.4784   58.5841   87.0575 C   0  0  0  0  0  0  0  0  0  0  0  0
   22.2865   54.7512   87.9525 C   0  0  0  0  0  0  0  0  0  0  0  0
   22.4242   54.5919   89.3192 C   0  0  0  0  0  0  0  0  0  0  0  0
   28.2226   57.0820   91.0139 O   0  0  0  0  0  0  0  0  0  0  0  0
   28.6731   59.9832   87.1638 C   0  0  0  0  0  0  0  0  0  0  0  0
   27.2044   55.7902   92.7400 C   0  0  0  0  0  0  0  0  0  0  0  0
   21.2986   53.9819   90.0549 C   0  0  0  0  0  0  0  0  0  0  0  0
   28.4907   60.6175   86.0987 N   0  0  0  0  0  0  0  0  0  0  0  0
  1  2  2  0
  2  3  1  0
  3  4  1  0
  2  5  1  0
  4  6  1  0
  6  7  1  0
  6  8  2  0
  1  9  1  0
  1 10  1  0
  8 11  1  0
  8 12  1  0
 12 13  2  0
  3 14  1  0
 12 14  1  0
  7 15  2  0
 11 16  2  0
 15 16  1  0
 10 17  1  0
 14 17  2  0
 10 18  2  0
 18 19  1  0
  7 20  1  0
 13 21  1  0
 17 22  1  0
 21 22  2  0
  5 23  1  0
 20 24  1  0
  5 25  2  0
  9 25  2  0
 19 26  2  0
 22 26  1  0
 24 27  1  0
M  END
>  <ID>  (1) 
conformer_0

$$$$
