
     RDKit          3D

 25 30  0  0  0  0  0  0  0  0999 V2000
   25.2975   55.3515   91.4571 C   0  0  0  0  0  0  0  0  0  0  0  0
   26.0138   56.0206   90.8133 C   0  0  0  0  0  0  0  0  0  0  0  0
   25.6573   56.4098   89.5047 N   0  0  0  0  0  0  0  0  0  0  0  0
   26.5567   57.1890   88.6927 C   0  0  0  0  0  0  0  0  0  0  0  0
   27.3332   56.2388   91.4292 C   0  0  0  0  0  0  0  0  0  0  0  0
   26.2596   57.3212   87.3422 C   0  0  0  0  0  0  0  0  0  0  0  0
   27.1105   58.1273   86.5453 C   0  0  0  0  0  0  0  0  0  0  0  0
   25.0615   56.9796   86.8407 C   0  0  0  0  0  0  0  0  0  0  0  0
   25.5706   54.9947   92.7834 N   0  0  0  0  0  0  0  0  0  0  0  0
   24.7579   57.3009   85.5401 C   0  0  0  0  0  0  0  0  0  0  0  0
   24.6959   54.2906   93.6172 C   0  0  0  0  0  0  0  0  0  0  0  0
   24.1478   56.1291   87.5325 N   0  0  0  0  0  0  0  0  0  0  0  0
   28.4657   58.5939   87.0785 C   0  0  0  0  0  0  0  0  0  0  0  0
   26.8518   55.5973   92.8941 N   0  0  0  0  0  0  0  0  0  0  0  0
   28.4788   58.4016   88.5812 N   0  0  0  0  0  0  0  0  0  0  0  0
   27.8431   57.4908   89.2106 C   0  0  0  0  0  0  0  0  0  0  0  0
   24.3375   56.4668   89.0708 C   0  0  0  0  0  0  0  0  0  0  0  0
   29.0945   59.8841   86.6290 C   0  0  0  0  0  0  0  0  0  0  0  0
   28.6531   56.3754   89.7871 C   0  0  0  0  0  0  0  0  0  0  0  0
   26.8767   58.2541   85.2686 C   0  0  0  0  0  0  0  0  0  0  0  0
   23.3909   55.4351   89.6794 C   0  0  0  0  0  0  0  0  0  0  0  0
   23.8652   54.8650   90.9399 C   0  0  0  0  0  0  0  0  0  0  0  0
   25.6082   57.8817   84.7925 N   0  0  0  0  0  0  0  0  0  0  0  0
   28.4202   60.9457   87.3247 O   0  0  0  0  0  0  0  0  0  0  0  0
   28.4983   56.5193   91.1119 N   0  0  0  0  0  0  0  0  0  0  0  0
  1  2  2  0
  2  3  1  0
  3  4  1  0
  2  5  1  0
  4  6  1  0
  6  7  1  0
  6  8  2  0
  1  9  1  0
  8 10  1  0
  9 11  1  0
  8 12  1  0
  7 13  1  0
  5 14  2  0
  9 14  1  0
 13 15  1  0
  4 16  1  0
 15 16  1  0
  3 17  1  0
 12 17  1  0
 13 18  1  0
 16 19  1  0
  7 20  2  0
 17 21  1  0
  1 22  1  0
 21 22  2  0
 10 23  2  0
 20 23  1  0
 18 24  1  0
  5 25  1  0
 19 25  1  0
M  END
>  <ID>  (1) 
conformer_0

$$$$
