
     RDKit          3D

 27 32  0  0  0  0  0  0  0  0999 V2000
   25.2975   55.3515   91.4571 C   0  0  0  0  0  0  0  0  0  0  0  0
   26.0138   56.0206   90.8133 C   0  0  0  0  0  0  0  0  0  0  0  0
   25.6573   56.4098   89.5047 N   0  0  0  0  0  0  0  0  0  0  0  0
   26.5567   57.1890   88.6927 C   0  0  0  0  0  0  0  0  0  0  0  0
   27.3332   56.2388   91.4292 C   0  0  0  0  0  0  0  0  0  0  0  0
   26.2596   57.3212   87.3422 C   0  0  0  0  0  0  0  0  0  0  0  0
   27.1105   58.1273   86.5453 C   0  0  0  0  0  0  0  0  0  0  0  0
   25.0615   56.9796   86.8407 C   0  0  0  0  0  0  0  0  0  0  0  0
   25.5706   54.9947   92.7834 N   0  0  0  0  0  0  0  0  0  0  0  0
   24.7579   57.3009   85.5401 C   0  0  0  0  0  0  0  0  0  0  0  0
   24.4072   55.9607   89.1860 C   0  0  0  0  0  0  0  0  0  0  0  0
   24.0580   56.1156   87.7307 C   0  0  0  0  0  0  0  0  0  0  0  0
   23.8204   54.9530   91.0258 C   0  0  0  0  0  0  0  0  0  0  0  0
   22.6636   56.3820   87.6195 C   0  0  0  0  0  0  0  0  0  0  0  0
   23.4597   56.8469   85.0267 O   0  0  0  0  0  0  0  0  0  0  0  0
   23.6121   55.2779   89.8443 C   0  0  0  0  0  0  0  0  0  0  0  0
   25.5251   58.0136   84.7492 N   0  0  0  0  0  0  0  0  0  0  0  0
   27.8639   56.6357   89.0346 C   0  0  0  0  0  0  0  0  0  0  0  0
   22.2476   54.9547   89.3422 C   0  0  0  0  0  0  0  0  0  0  0  0
   21.4394   54.1152   90.0589 C   0  0  0  0  0  0  0  0  0  0  0  0
   23.2056   54.0932   91.9134 C   0  0  0  0  0  0  0  0  0  0  0  0
   26.7056   58.4685   85.3046 C   0  0  0  0  0  0  0  0  0  0  0  0
   28.2946   56.7416   90.4042 N   0  0  0  0  0  0  0  0  0  0  0  0
   21.8204   55.4812   88.1242 C   0  0  0  0  0  0  0  0  0  0  0  0
   22.6089   57.6828   84.4205 C   0  0  0  0  0  0  0  0  0  0  0  0
   21.8910   53.7721   91.3977 C   0  0  0  0  0  0  0  0  0  0  0  0
   28.4166   55.7011   88.3092 O   0  0  0  0  0  0  0  0  0  0  0  0
  1  2  2  0
  2  3  1  0
  3  4  1  0
  2  5  1  0
  4  6  1  0
  6  7  1  0
  6  8  2  0
  1  9  1  0
  8 10  1  0
  3 11  1  0
  8 12  1  0
 11 12  1  0
  1 13  1  0
 12 14  1  0
 10 15  1  0
 11 16  2  0
 13 16  1  0
 10 17  2  0
  4 18  1  0
 16 19  1  0
 19 20  2  0
 13 21  1  0
  7 22  2  0
 17 22  1  0
  5 23  1  0
 18 23  1  0
 14 24  1  0
 19 24  1  0
 15 25  1  0
 20 26  1  0
 21 26  2  0
 18 27  2  0
M  END
>  <ID>  (1) 
conformer_0

$$$$
