
     RDKit          3D

 11 11  0  0  0  0  0  0  0  0999 V2000
   23.2225   54.3439   90.2846 C   0  0  0  0  0  0  0  0  0  0  0  0
   24.2676   54.7585   90.8544 C   0  0  0  0  0  0  0  0  0  0  0  0
   22.6227   54.8466   89.2096 C   0  0  0  0  0  0  0  0  0  0  0  0
   24.8947   55.8198   90.2340 C   0  0  0  0  0  0  0  0  0  0  0  0
   21.3294   54.4198   88.6250 O   0  0  0  0  0  0  0  0  0  0  0  0
   26.1432   56.4075   90.8128 C   0  0  0  0  0  0  0  0  0  0  0  0
   20.7311   55.4955   87.9834 C   0  0  0  0  0  0  0  0  0  0  0  0
   24.4387   56.4072   88.9331 C   0  0  0  0  0  0  0  0  0  0  0  0
   23.2562   55.9126   88.4925 C   0  0  0  0  0  0  0  0  0  0  0  0
   26.7920   55.5083   91.6054 O   0  0  0  0  0  0  0  0  0  0  0  0
   26.7247   57.4371   90.4432 O   0  0  0  0  0  0  0  0  0  0  0  0
  1  2  1  0
  1  3  2  0
  2  4  2  0
  3  5  1  0
  4  6  1  0
  5  7  1  0
  4  8  1  0
  3  9  1  0
  8  9  2  0
  6 10  1  0
  6 11  2  0
M  END
>  <ID>  (1) 
conformer_0

$$$$
