
     RDKit          3D

 23 28  0  0  0  0  0  0  0  0999 V2000
   25.2975   55.3515   91.4571 C   0  0  0  0  0  0  0  0  0  0  0  0
   26.0138   56.0206   90.8133 C   0  0  0  0  0  0  0  0  0  0  0  0
   25.6573   56.4098   89.5047 N   0  0  0  0  0  0  0  0  0  0  0  0
   26.5567   57.1890   88.6927 C   0  0  0  0  0  0  0  0  0  0  0  0
   27.3332   56.2388   91.4292 C   0  0  0  0  0  0  0  0  0  0  0  0
   26.2596   57.3212   87.3422 C   0  0  0  0  0  0  0  0  0  0  0  0
   27.1105   58.1273   86.5453 C   0  0  0  0  0  0  0  0  0  0  0  0
   25.0615   56.9796   86.8407 C   0  0  0  0  0  0  0  0  0  0  0  0
   25.5706   54.9947   92.7834 N   0  0  0  0  0  0  0  0  0  0  0  0
   24.7579   57.3009   85.5401 C   0  0  0  0  0  0  0  0  0  0  0  0
   24.6959   54.2906   93.6172 C   0  0  0  0  0  0  0  0  0  0  0  0
   24.1478   56.1291   87.5325 N   0  0  0  0  0  0  0  0  0  0  0  0
   28.4657   58.5939   87.0785 C   0  0  0  0  0  0  0  0  0  0  0  0
   26.8518   55.5973   92.8941 N   0  0  0  0  0  0  0  0  0  0  0  0
   28.4788   58.4016   88.5812 N   0  0  0  0  0  0  0  0  0  0  0  0
   23.8732   54.8357   91.0381 C   0  0  0  0  0  0  0  0  0  0  0  0
   26.7908   58.4365   85.2847 C   0  0  0  0  0  0  0  0  0  0  0  0
   27.7747   57.6798   89.2788 C   0  0  0  0  0  0  0  0  0  0  0  0
   23.4717   55.0249   89.7265 C   0  0  0  0  0  0  0  0  0  0  0  0
   23.0958   54.0882   91.9111 C   0  0  0  0  0  0  0  0  0  0  0  0
   23.6151   53.9287   93.3089 C   0  0  0  0  0  0  0  0  0  0  0  0
   24.4726   55.8682   88.9096 C   0  0  0  0  0  0  0  0  0  0  0  0
   25.4737   58.0930   84.8094 C   0  0  0  0  0  0  0  0  0  0  0  0
  1  2  2  0
  2  3  1  0
  3  4  1  0
  2  5  1  0
  4  6  1  0
  6  7  1  0
  6  8  2  0
  1  9  1  0
  8 10  1  0
  9 11  1  0
  8 12  1  0
  7 13  1  0
  5 14  2  0
  9 14  1  0
 13 15  1  0
  1 16  1  0
  7 17  2  0
  4 18  1  0
 15 18  1  0
 16 19  1  0
 16 20  2  0
 11 21  2  0
 20 21  1  0
  3 22  1  0
 12 22  2  0
 19 22  1  0
 10 23  2  0
 17 23  1  0
M  END
>  <ID>  (1) 
conformer_0

$$$$
