
     RDKit          3D

 26 30  0  0  0  0  0  0  0  0999 V2000
   25.2975   55.3515   91.4571 C   0  0  0  0  0  0  0  0  0  0  0  0
   26.0138   56.0206   90.8133 C   0  0  0  0  0  0  0  0  0  0  0  0
   25.6573   56.4098   89.5047 N   0  0  0  0  0  0  0  0  0  0  0  0
   26.5567   57.1890   88.6927 C   0  0  0  0  0  0  0  0  0  0  0  0
   27.3332   56.2388   91.4292 C   0  0  0  0  0  0  0  0  0  0  0  0
   26.2596   57.3212   87.3422 C   0  0  0  0  0  0  0  0  0  0  0  0
   27.1105   58.1273   86.5453 C   0  0  0  0  0  0  0  0  0  0  0  0
   25.0615   56.9796   86.8407 C   0  0  0  0  0  0  0  0  0  0  0  0
   25.5706   54.9947   92.7834 N   0  0  0  0  0  0  0  0  0  0  0  0
   24.7579   57.3009   85.5401 C   0  0  0  0  0  0  0  0  0  0  0  0
   24.6959   54.2906   93.6172 C   0  0  0  0  0  0  0  0  0  0  0  0
   24.1478   56.1291   87.5325 N   0  0  0  0  0  0  0  0  0  0  0  0
   28.4657   58.5939   87.0785 C   0  0  0  0  0  0  0  0  0  0  0  0
   22.9328   55.7314   87.0943 C   0  0  0  0  0  0  0  0  0  0  0  0
   23.8955   54.8546   91.0161 C   0  0  0  0  0  0  0  0  0  0  0  0
   25.5893   58.0123   84.7560 C   0  0  0  0  0  0  0  0  0  0  0  0
   24.3004   56.1301   89.1149 C   0  0  0  0  0  0  0  0  0  0  0  0
   23.4959   55.3428   89.7459 C   0  0  0  0  0  0  0  0  0  0  0  0
   22.2218   55.0657   89.3778 C   0  0  0  0  0  0  0  0  0  0  0  0
   23.5027   53.8778   93.1583 C   0  0  0  0  0  0  0  0  0  0  0  0
   21.9183   55.3749   87.9233 C   0  0  0  0  0  0  0  0  0  0  0  0
   28.5539   59.0606   88.2439 O   0  0  0  0  0  0  0  0  0  0  0  0
   29.2447   59.3076   86.2974 N   0  0  0  0  0  0  0  0  0  0  0  0
   23.1301   54.1746   91.8606 C   0  0  0  0  0  0  0  0  0  0  0  0
   28.3847   55.4956   90.6573 O   0  0  0  0  0  0  0  0  0  0  0  0
   26.8019   58.4265   85.2563 C   0  0  0  0  0  0  0  0  0  0  0  0
  1  2  2  0
  2  3  1  0
  3  4  1  0
  2  5  1  0
  4  6  1  0
  6  7  1  0
  6  8  2  0
  1  9  1  0
  8 10  1  0
  9 11  1  0
  8 12  1  0
  7 13  1  0
 12 14  1  0
  1 15  1  0
 10 16  2  0
  3 17  1  0
 12 17  1  0
 15 18  1  0
 17 18  1  0
 18 19  2  0
 11 20  2  0
 14 21  2  0
 19 21  1  0
 13 22  1  0
 13 23  1  0
 15 24  2  0
 20 24  1  0
  5 25  1  0
  7 26  2  0
 16 26  1  0
M  END
>  <ID>  (1) 
conformer_0

$$$$
