
     RDKit          3D

 27 29  0  0  0  0  0  0  0  0999 V2000
   21.7810   54.3329   90.0281 C   0  0  0  0  0  0  0  0  0  0  0  0
   22.1233   54.9645   89.0208 N   0  0  0  0  0  0  0  0  0  0  0  0
   23.2561   55.6366   88.8846 C   0  0  0  0  0  0  0  0  0  0  0  0
   24.0654   55.3053   89.9664 C   0  0  0  0  0  0  0  0  0  0  0  0
   23.2920   54.4328   90.8772 C   0  0  0  0  0  0  0  0  0  0  0  0
   23.4758   53.9209   92.0881 C   0  0  0  0  0  0  0  0  0  0  0  0
   25.2746   55.6633   90.5062 C   0  0  0  0  0  0  0  0  0  0  0  0
   25.6951   55.1601   91.7152 C   0  0  0  0  0  0  0  0  0  0  0  0
   23.7774   56.3709   87.7302 C   0  0  0  0  0  0  0  0  0  0  0  0
   26.9354   55.5873   92.2815 O   0  0  0  0  0  0  0  0  0  0  0  0
   25.0901   56.6702   87.6897 N   0  0  0  0  0  0  0  0  0  0  0  0
   25.3305   57.3693   86.5424 C   0  0  0  0  0  0  0  0  0  0  0  0
   26.6567   57.9680   86.3926 C   0  0  0  0  0  0  0  0  0  0  0  0
   27.5744   58.0067   87.4624 N   0  0  0  0  0  0  0  0  0  0  0  0
   28.3639   57.1178   87.8943 C   0  0  0  0  0  0  0  0  0  0  0  0
   27.1308   58.3571   85.1552 C   0  0  0  0  0  0  0  0  0  0  0  0
   22.7492   56.6721   86.7980 C   0  0  0  0  0  0  0  0  0  0  0  0
   28.5124   56.9196   89.3477 N   0  0  0  0  0  0  0  0  0  0  0  0
   24.4857   57.4975   85.4824 C   0  0  0  0  0  0  0  0  0  0  0  0
   22.7120   53.1933   92.9405 C   0  0  0  0  0  0  0  0  0  0  0  0
   27.7928   59.4192   87.9809 C   0  0  0  0  0  0  0  0  0  0  0  0
   29.1402   59.5903   88.5474 C   0  0  0  0  0  0  0  0  0  0  0  0
   24.8293   54.4136   92.5313 C   0  0  0  0  0  0  0  0  0  0  0  0
   28.4275   55.6138   89.9140 O   0  0  0  0  0  0  0  0  0  0  0  0
   28.4412   58.9128   84.9448 N   0  0  0  0  0  0  0  0  0  0  0  0
   21.3446   56.2745   86.9455 O   0  0  0  0  0  0  0  0  0  0  0  0
   23.0577   57.1619   85.5467 C   0  0  0  0  0  0  0  0  0  0  0  0
  1  2  1  0
  2  3  2  0
  3  4  1  0
  1  5  1  0
  4  5  1  0
  5  6  2  0
  4  7  2  0
  7  8  1  0
  3  9  1  0
  8 10  1  0
  9 11  2  0
 11 12  1  0
 12 13  1  0
 13 14  1  0
 14 15  1  0
 13 16  2  3
  9 17  1  0
 15 18  1  0
 12 19  2  0
  6 20  1  0
 14 21  1  0
 21 22  1  0
  6 23  1  0
  8 23  2  0
 18 24  1  0
 16 25  1  0
 17 26  1  0
 17 27  2  0
 19 27  1  0
M  END
>  <ID>  (1) 
conformer_0

$$$$
