
     RDKit          3D

 22 24  0  0  0  0  0  0  0  0999 V2000
   28.7060   55.8367   89.5153 O   0  0  0  0  0  0  0  0  0  0  0  0
   27.9532   56.8364   88.9704 C   0  0  0  0  0  0  0  0  0  0  0  0
   26.7689   57.0050   89.4684 C   0  0  0  0  0  0  0  0  0  0  0  0
   26.6430   56.5459   90.7241 O   0  0  0  0  0  0  0  0  0  0  0  0
   25.5702   55.5780   90.9301 C   0  0  0  0  0  0  0  0  0  0  0  0
   24.5972   55.4014   89.9003 C   0  0  0  0  0  0  0  0  0  0  0  0
   25.4591   54.9950   92.0860 C   0  0  0  0  0  0  0  0  0  0  0  0
   26.4533   55.2492   93.0711 O   0  0  0  0  0  0  0  0  0  0  0  0
   28.6437   57.5051   87.9587 C   0  0  0  0  0  0  0  0  0  0  0  0
   24.4366   54.0811   92.5760 C   0  0  0  0  0  0  0  0  0  0  0  0
   24.5300   55.9799   88.6816 C   0  0  0  0  0  0  0  0  0  0  0  0
   25.7513   56.5596   88.3888 N   0  0  0  0  0  0  0  0  0  0  0  0
   24.2583   53.6222   93.7580 O   0  0  0  0  0  0  0  0  0  0  0  0
   29.1560   58.6728   88.3313 O   0  0  0  0  0  0  0  0  0  0  0  0
   27.8205   57.7048   86.7160 C   0  0  0  0  0  0  0  0  0  0  0  0
   25.8476   57.0371   87.0583 C   0  0  0  0  0  0  0  0  0  0  0  0
   27.0391   56.9379   86.3129 C   0  0  0  0  0  0  0  0  0  0  0  0
   23.4338   54.1145   91.5703 C   0  0  0  0  0  0  0  0  0  0  0  0
   27.3791   59.1012   86.8065 O   0  0  0  0  0  0  0  0  0  0  0  0
   22.2490   53.2116   91.8575 O   0  0  0  0  0  0  0  0  0  0  0  0
   26.5559   57.4391   84.9326 O   0  0  0  0  0  0  0  0  0  0  0  0
   23.4386   54.6271   90.4124 C   0  0  0  0  0  0  0  0  0  0  0  0
  1  2  1  0
  2  3  1  0
  3  4  1  0
  4  5  1  0
  5  6  1  0
  5  7  2  0
  7  8  1  0
  2  9  1  0
  7 10  1  0
  6 11  1  0
  3 12  1  0
 11 12  1  0
 10 13  1  0
  9 14  1  0
  9 15  1  0
 12 16  1  0
 15 17  1  0
 16 17  1  0
 10 18  2  0
 15 19  1  0
 18 20  1  0
 17 21  1  0
  6 22  2  0
 18 22  1  0
M  END
>  <ID>  (1) 
conformer_0

$$$$
