
     RDKit          3D

 16 18  0  0  0  0  0  0  0  0999 V2000
   22.5436   53.7944   91.7707 C   0  0  0  0  0  0  0  0  0  0  0  0
   22.5819   54.3494   90.5406 C   0  0  0  0  0  0  0  0  0  0  0  0
   23.6819   55.0976   90.1119 C   0  0  0  0  0  0  0  0  0  0  0  0
   21.3932   53.0848   92.2036 C   0  0  0  0  0  0  0  0  0  0  0  0
   23.6382   55.7404   88.8037 C   0  0  0  0  0  0  0  0  0  0  0  0
   23.6066   53.9715   92.6581 C   0  0  0  0  0  0  0  0  0  0  0  0
   22.5299   55.7467   88.0488 C   0  0  0  0  0  0  0  0  0  0  0  0
   24.6676   54.6626   92.2181 C   0  0  0  0  0  0  0  0  0  0  0  0
   25.7861   54.9576   93.0141 N   0  0  0  0  0  0  0  0  0  0  0  0
   24.7408   55.3045   90.9299 C   0  0  0  0  0  0  0  0  0  0  0  0
   24.8186   56.1785   88.1670 C   0  0  0  0  0  0  0  0  0  0  0  0
   21.1912   55.3351   88.5829 C   0  0  0  0  0  0  0  0  0  0  0  0
   21.2516   54.3554   89.6704 C   0  0  0  0  0  0  0  0  0  0  0  0
   24.7168   56.5251   86.8114 N   0  0  0  0  0  0  0  0  0  0  0  0
   23.5023   56.6944   86.2271 C   0  0  0  0  0  0  0  0  0  0  0  0
   22.3707   56.3590   86.6877 C   0  0  0  0  0  0  0  0  0  0  0  0
  1  2  2  0
  2  3  1  0
  1  4  1  0
  3  5  1  0
  1  6  1  0
  5  7  2  0
  6  8  2  0
  8  9  1  0
  3 10  2  0
  8 10  1  0
  5 11  1  0
  7 12  1  0
  2 13  1  0
 12 13  2  0
 11 14  2  0
 14 15  1  0
  7 16  1  0
 15 16  2  0
M  END
>  <ID>  (1) 
conformer_0

$$$$
