
     RDKit          3D

 23 27  0  0  0  0  0  0  0  0999 V2000
   21.7810   54.3329   90.0281 C   0  0  0  0  0  0  0  0  0  0  0  0
   22.1233   54.9645   89.0208 N   0  0  0  0  0  0  0  0  0  0  0  0
   23.2561   55.6366   88.8846 C   0  0  0  0  0  0  0  0  0  0  0  0
   24.0654   55.3053   89.9664 C   0  0  0  0  0  0  0  0  0  0  0  0
   20.5456   53.6645   90.0401 C   0  0  0  0  0  0  0  0  0  0  0  0
   23.6836   56.2843   87.6594 C   0  0  0  0  0  0  0  0  0  0  0  0
   24.9991   56.6680   87.4679 C   0  0  0  0  0  0  0  0  0  0  0  0
   22.9614   54.2505   91.0274 C   0  0  0  0  0  0  0  0  0  0  0  0
   25.9722   56.7343   88.5173 N   0  0  0  0  0  0  0  0  0  0  0  0
   25.7786   56.4008   89.7955 C   0  0  0  0  0  0  0  0  0  0  0  0
   22.7195   56.9565   86.9993 C   0  0  0  0  0  0  0  0  0  0  0  0
   27.2826   57.2521   88.1739 C   0  0  0  0  0  0  0  0  0  0  0  0
   27.4285   58.0842   87.1693 C   0  0  0  0  0  0  0  0  0  0  0  0
   23.3713   57.2392   85.6368 C   0  0  0  0  0  0  0  0  0  0  0  0
   24.5602   57.4002   85.3587 C   0  0  0  0  0  0  0  0  0  0  0  0
   25.1968   55.5325   90.4890 C   0  0  0  0  0  0  0  0  0  0  0  0
   25.0138   57.8100   84.1207 O   0  0  0  0  0  0  0  0  0  0  0  0
   27.2485   56.7941   90.2969 N   0  0  0  0  0  0  0  0  0  0  0  0
   27.8543   57.5501   89.4797 C   0  0  0  0  0  0  0  0  0  0  0  0
   29.1997   57.6492   89.4427 O   0  0  0  0  0  0  0  0  0  0  0  0
   28.3856   59.0887   87.0868 O   0  0  0  0  0  0  0  0  0  0  0  0
   25.4129   57.2262   86.3067 C   0  0  0  0  0  0  0  0  0  0  0  0
   26.6341   57.9339   86.1297 O   0  0  0  0  0  0  0  0  0  0  0  0
  1  2  1  0
  2  3  2  0
  3  4  1  0
  1  5  1  0
  3  6  1  0
  6  7  1  0
  1  8  2  0
  4  8  1  0
  7  9  1  0
  9 10  1  0
  6 11  2  0
  9 12  1  0
 12 13  1  0
 11 14  1  0
 14 15  2  0
  4 16  2  0
 10 16  1  0
 15 17  1  0
 10 18  2  0
 12 19  1  0
 18 19  1  0
 19 20  1  0
 13 21  2  0
  7 22  2  0
 15 22  1  0
 13 23  1  0
 22 23  1  0
M  END
>  <ID>  (1) 
conformer_0

$$$$
