
     RDKit          3D

 24 27  0  0  0  0  0  0  0  0999 V2000
   25.2975   55.3515   91.4571 C   0  0  0  0  0  0  0  0  0  0  0  0
   26.0138   56.0206   90.8133 C   0  0  0  0  0  0  0  0  0  0  0  0
   25.6573   56.4098   89.5047 N   0  0  0  0  0  0  0  0  0  0  0  0
   26.5567   57.1890   88.6927 C   0  0  0  0  0  0  0  0  0  0  0  0
   27.3332   56.2388   91.4292 C   0  0  0  0  0  0  0  0  0  0  0  0
   26.2596   57.3212   87.3422 C   0  0  0  0  0  0  0  0  0  0  0  0
   27.1105   58.1273   86.5453 C   0  0  0  0  0  0  0  0  0  0  0  0
   25.0615   56.9796   86.8407 C   0  0  0  0  0  0  0  0  0  0  0  0
   25.5706   54.9947   92.7834 N   0  0  0  0  0  0  0  0  0  0  0  0
   24.7579   57.3009   85.5401 C   0  0  0  0  0  0  0  0  0  0  0  0
   24.6959   54.2906   93.6172 C   0  0  0  0  0  0  0  0  0  0  0  0
   24.1478   56.1291   87.5325 N   0  0  0  0  0  0  0  0  0  0  0  0
   28.4657   58.5939   87.0785 C   0  0  0  0  0  0  0  0  0  0  0  0
   26.8518   55.5973   92.8941 N   0  0  0  0  0  0  0  0  0  0  0  0
   28.4788   58.4016   88.5812 N   0  0  0  0  0  0  0  0  0  0  0  0
   28.3801   56.8547   91.1695 O   0  0  0  0  0  0  0  0  0  0  0  0
   25.4831   58.0506   84.8018 C   0  0  0  0  0  0  0  0  0  0  0  0
   23.8308   54.8634   91.0367 C   0  0  0  0  0  0  0  0  0  0  0  0
   23.4835   54.9957   89.9900 O   0  0  0  0  0  0  0  0  0  0  0  0
   27.6385   57.6747   89.0848 C   0  0  0  0  0  0  0  0  0  0  0  0
   23.0764   54.1085   92.0033 C   0  0  0  0  0  0  0  0  0  0  0  0
   26.7158   58.5065   85.2812 C   0  0  0  0  0  0  0  0  0  0  0  0
   23.6004   53.8227   93.2755 C   0  0  0  0  0  0  0  0  0  0  0  0
   28.9525   59.6003   86.5578 O   0  0  0  0  0  0  0  0  0  0  0  0
  1  2  2  0
  2  3  1  0
  3  4  1  0
  2  5  1  0
  4  6  1  0
  6  7  1  0
  6  8  2  0
  1  9  1  0
  8 10  1  0
  9 11  1  0
  8 12  1  0
  7 13  1  0
  5 14  2  0
  9 14  1  0
 13 15  1  0
  5 16  1  0
 10 17  2  0
  1 18  1  0
 18 19  2  0
  4 20  2  0
 15 20  1  0
 18 21  1  0
  7 22  2  0
 17 22  1  0
 11 23  2  0
 21 23  2  0
 13 24  1  0
M  END
>  <ID>  (1) 
conformer_0

$$$$
