
     RDKit          3D

 24 28  0  0  0  0  0  0  0  0999 V2000
   25.2975   55.3515   91.4571 C   0  0  0  0  0  0  0  0  0  0  0  0
   26.0138   56.0206   90.8133 C   0  0  0  0  0  0  0  0  0  0  0  0
   25.6573   56.4098   89.5047 N   0  0  0  0  0  0  0  0  0  0  0  0
   26.5567   57.1890   88.6927 C   0  0  0  0  0  0  0  0  0  0  0  0
   27.3332   56.2388   91.4292 C   0  0  0  0  0  0  0  0  0  0  0  0
   26.2596   57.3212   87.3422 C   0  0  0  0  0  0  0  0  0  0  0  0
   27.1105   58.1273   86.5453 C   0  0  0  0  0  0  0  0  0  0  0  0
   25.0615   56.9796   86.8407 C   0  0  0  0  0  0  0  0  0  0  0  0
   25.5706   54.9947   92.7834 N   0  0  0  0  0  0  0  0  0  0  0  0
   24.7579   57.3009   85.5401 C   0  0  0  0  0  0  0  0  0  0  0  0
   24.6959   54.2906   93.6172 C   0  0  0  0  0  0  0  0  0  0  0  0
   24.1478   56.1291   87.5325 N   0  0  0  0  0  0  0  0  0  0  0  0
   28.4657   58.5939   87.0785 C   0  0  0  0  0  0  0  0  0  0  0  0
   26.8518   55.5973   92.8941 N   0  0  0  0  0  0  0  0  0  0  0  0
   28.4788   58.4016   88.5812 N   0  0  0  0  0  0  0  0  0  0  0  0
   23.8732   54.8357   91.0381 C   0  0  0  0  0  0  0  0  0  0  0  0
   26.7908   58.4365   85.2847 C   0  0  0  0  0  0  0  0  0  0  0  0
   23.5153   55.0001   89.6945 C   0  0  0  0  0  0  0  0  0  0  0  0
   27.7309   59.2584   84.4750 O   0  0  0  0  0  0  0  0  0  0  0  0
   24.4769   55.9142   88.9024 C   0  0  0  0  0  0  0  0  0  0  0  0
   23.3948   56.8735   84.9734 C   0  0  0  0  0  0  0  0  0  0  0  0
   29.3815   59.2570   86.5548 N   0  0  0  0  0  0  0  0  0  0  0  0
   25.5880   58.0462   84.7477 C   0  0  0  0  0  0  0  0  0  0  0  0
   27.6705   57.6604   89.2303 C   0  0  0  0  0  0  0  0  0  0  0  0
  1  2  2  0
  2  3  1  0
  3  4  1  0
  2  5  1  0
  4  6  1  0
  6  7  1  0
  6  8  2  0
  1  9  1  0
  8 10  1  0
  9 11  1  0
  8 12  1  0
  7 13  1  0
  5 14  2  0
  9 14  1  0
 13 15  1  0
  1 16  1  0
  7 17  2  0
 16 18  2  0
 17 19  1  0
  3 20  1  0
 12 20  2  0
 18 20  1  0
 10 21  1  0
 13 22  2  0
 10 23  2  0
 17 23  1  0
  4 24  1  0
 15 24  1  0
M  END
>  <ID>  (1) 
conformer_0

$$$$
