
     RDKit          3D

 27 32  0  0  0  0  0  0  0  0999 V2000
   25.2975   55.3515   91.4571 C   0  0  0  0  0  0  0  0  0  0  0  0
   26.0138   56.0206   90.8133 C   0  0  0  0  0  0  0  0  0  0  0  0
   25.6573   56.4098   89.5047 N   0  0  0  0  0  0  0  0  0  0  0  0
   26.5567   57.1890   88.6927 C   0  0  0  0  0  0  0  0  0  0  0  0
   27.3332   56.2388   91.4292 C   0  0  0  0  0  0  0  0  0  0  0  0
   26.2596   57.3212   87.3422 C   0  0  0  0  0  0  0  0  0  0  0  0
   27.1105   58.1273   86.5453 C   0  0  0  0  0  0  0  0  0  0  0  0
   25.0615   56.9796   86.8407 C   0  0  0  0  0  0  0  0  0  0  0  0
   25.5706   54.9947   92.7834 N   0  0  0  0  0  0  0  0  0  0  0  0
   24.7579   57.3009   85.5401 C   0  0  0  0  0  0  0  0  0  0  0  0
   24.6959   54.2906   93.6172 C   0  0  0  0  0  0  0  0  0  0  0  0
   24.1478   56.1291   87.5325 N   0  0  0  0  0  0  0  0  0  0  0  0
   28.4657   58.5939   87.0785 C   0  0  0  0  0  0  0  0  0  0  0  0
   26.8518   55.5973   92.8941 N   0  0  0  0  0  0  0  0  0  0  0  0
   28.4788   58.4016   88.5812 N   0  0  0  0  0  0  0  0  0  0  0  0
   23.8732   54.8357   91.0381 C   0  0  0  0  0  0  0  0  0  0  0  0
   29.0893   59.8245   86.7192 C   0  0  0  0  0  0  0  0  0  0  0  0
   23.5427   55.0099   89.6503 C   0  0  0  0  0  0  0  0  0  0  0  0
   27.8029   57.4772   89.2583 C   0  0  0  0  0  0  0  0  0  0  0  0
   28.5769   56.6229   91.0349 N   0  0  0  0  0  0  0  0  0  0  0  0
   28.7028   56.7075   90.0853 C   0  0  0  0  0  0  0  0  0  0  0  0
   28.3322   60.8859   87.2285 O   0  0  0  0  0  0  0  0  0  0  0  0
   26.8332   58.2308   85.2169 C   0  0  0  0  0  0  0  0  0  0  0  0
   23.4256   56.9345   84.9856 O   0  0  0  0  0  0  0  0  0  0  0  0
   22.2116   57.2983   85.5486 C   0  0  0  0  0  0  0  0  0  0  0  0
   24.4848   55.9399   88.8770 C   0  0  0  0  0  0  0  0  0  0  0  0
   25.5942   57.8719   84.7724 C   0  0  0  0  0  0  0  0  0  0  0  0
  1  2  2  0
  2  3  1  0
  3  4  1  0
  2  5  1  0
  4  6  1  0
  6  7  1  0
  6  8  2  0
  1  9  1  0
  8 10  1  0
  9 11  1  0
  8 12  1  0
  7 13  1  0
  5 14  2  0
  9 14  1  0
 13 15  1  0
  1 16  1  0
 13 17  1  0
 16 18  2  0
  4 19  2  0
 15 19  1  0
  5 20  1  0
 19 21  1  0
 20 21  1  0
 17 22  1  0
  7 23  2  0
 10 24  1  0
 24 25  1  0
  3 26  1  0
 12 26  1  0
 18 26  1  0
 10 27  2  0
 23 27  1  0
M  END
>  <ID>  (1) 
conformer_0

$$$$
