
     RDKit          3D

 24 29  0  0  0  0  0  0  0  0999 V2000
   21.7810   54.3329   90.0281 C   0  0  0  0  0  0  0  0  0  0  0  0
   22.1233   54.9645   89.0208 N   0  0  0  0  0  0  0  0  0  0  0  0
   23.2561   55.6366   88.8846 C   0  0  0  0  0  0  0  0  0  0  0  0
   24.0654   55.3053   89.9664 C   0  0  0  0  0  0  0  0  0  0  0  0
   20.5456   53.6645   90.0401 C   0  0  0  0  0  0  0  0  0  0  0  0
   23.6836   56.2843   87.6594 C   0  0  0  0  0  0  0  0  0  0  0  0
   24.9991   56.6680   87.4679 C   0  0  0  0  0  0  0  0  0  0  0  0
   22.9614   54.2505   91.0274 C   0  0  0  0  0  0  0  0  0  0  0  0
   25.9722   56.7343   88.5173 N   0  0  0  0  0  0  0  0  0  0  0  0
   25.7786   56.4008   89.7955 C   0  0  0  0  0  0  0  0  0  0  0  0
   22.7195   56.9565   86.9993 C   0  0  0  0  0  0  0  0  0  0  0  0
   27.2826   57.2521   88.1739 C   0  0  0  0  0  0  0  0  0  0  0  0
   27.4285   58.0842   87.1693 C   0  0  0  0  0  0  0  0  0  0  0  0
   23.3713   57.2392   85.6368 C   0  0  0  0  0  0  0  0  0  0  0  0
   24.5602   57.4002   85.3587 C   0  0  0  0  0  0  0  0  0  0  0  0
   25.1734   55.6510   90.4635 C   0  0  0  0  0  0  0  0  0  0  0  0
   25.7513   55.1035   91.7200 C   0  0  0  0  0  0  0  0  0  0  0  0
   27.1575   56.7166   90.4916 C   0  0  0  0  0  0  0  0  0  0  0  0
   27.8469   57.7753   89.4566 C   0  0  0  0  0  0  0  0  0  0  0  0
   27.4468   56.2291   91.7804 N   0  0  0  0  0  0  0  0  0  0  0  0
   26.8646   55.6294   92.2329 C   0  0  0  0  0  0  0  0  0  0  0  0
   26.5740   58.0427   86.1698 C   0  0  0  0  0  0  0  0  0  0  0  0
   28.3633   59.0408   87.1416 O   0  0  0  0  0  0  0  0  0  0  0  0
   25.4224   57.3018   86.3771 C   0  0  0  0  0  0  0  0  0  0  0  0
  1  2  1  0
  2  3  2  0
  3  4  1  0
  1  5  1  0
  3  6  1  0
  6  7  1  0
  1  8  2  0
  4  8  1  0
  7  9  1  0
  9 10  1  0
  6 11  2  0
  9 12  1  0
 12 13  1  0
 11 14  1  0
 14 15  2  0
  4 16  1  0
 10 16  1  0
 16 17  2  0
 10 18  2  0
 12 19  1  0
 18 19  1  0
 18 20  1  0
 17 21  1  0
 20 21  2  0
 13 22  1  0
 13 23  2  0
  7 24  2  0
 15 24  1  0
 22 24  1  0
M  END
>  <ID>  (1) 
conformer_0

$$$$
