
     RDKit          3D

 23 27  0  0  0  0  0  0  0  0999 V2000
   21.8403   54.1429   90.4259 C   0  0  0  0  0  0  0  0  0  0  0  0
   22.8095   54.1763   91.2260 C   0  0  0  0  0  0  0  0  0  0  0  0
   22.2244   54.9155   89.1858 C   0  0  0  0  0  0  0  0  0  0  0  0
   23.4917   55.5599   89.2963 N   0  0  0  0  0  0  0  0  0  0  0  0
   23.8781   56.2744   88.1693 C   0  0  0  0  0  0  0  0  0  0  0  0
   25.1690   56.7094   88.1220 C   0  0  0  0  0  0  0  0  0  0  0  0
   24.0352   55.2144   90.5225 C   0  0  0  0  0  0  0  0  0  0  0  0
   23.0591   53.7664   92.4692 C   0  0  0  0  0  0  0  0  0  0  0  0
   23.0806   56.4531   87.1355 N   0  0  0  0  0  0  0  0  0  0  0  0
   25.7076   57.3774   87.0671 C   0  0  0  0  0  0  0  0  0  0  0  0
   23.5712   57.1346   85.9893 C   0  0  0  0  0  0  0  0  0  0  0  0
   27.0726   57.8144   87.0299 C   0  0  0  0  0  0  0  0  0  0  0  0
   25.0843   55.4022   91.1136 C   0  0  0  0  0  0  0  0  0  0  0  0
   27.3661   59.0565   87.1890 N   0  0  0  0  0  0  0  0  0  0  0  0
   22.6940   57.3372   84.8210 C   0  0  0  0  0  0  0  0  0  0  0  0
   28.1296   56.9037   86.8529 C   0  0  0  0  0  0  0  0  0  0  0  0
   26.1427   56.2568   90.6459 N   0  0  0  0  0  0  0  0  0  0  0  0
   25.2384   54.8718   92.6029 C   0  0  0  0  0  0  0  0  0  0  0  0
   24.2797   54.0951   93.1140 C   0  0  0  0  0  0  0  0  0  0  0  0
   29.3926   57.5150   87.4358 N   0  0  0  0  0  0  0  0  0  0  0  0
   29.0859   58.8517   87.9902 C   0  0  0  0  0  0  0  0  0  0  0  0
   24.8961   57.5670   85.8980 C   0  0  0  0  0  0  0  0  0  0  0  0
   26.0848   56.5350   89.4135 C   0  0  0  0  0  0  0  0  0  0  0  0
  1  2  1  0
  1  3  2  0
  3  4  1  0
  4  5  1  0
  5  6  1  0
  2  7  1  0
  4  7  1  0
  2  8  2  0
  5  9  2  0
  6 10  2  0
  9 11  1  0
 10 12  1  0
  7 13  2  0
 12 14  2  0
 11 15  1  0
 12 16  1  0
 13 17  1  0
 13 18  1  0
  8 19  1  0
 18 19  2  0
 16 20  1  0
 14 21  1  0
 20 21  1  0
 10 22  1  0
 11 22  2  0
  6 23  1  0
 17 23  2  0
M  END
>  <ID>  (1) 
conformer_0

$$$$
