
     RDKit          3D

 26 31  0  0  0  0  0  0  0  0999 V2000
   24.7278   55.4005   90.8164 C   0  0  0  0  0  0  0  0  0  0  0  0
   25.5322   56.0654   90.4332 C   0  0  0  0  0  0  0  0  0  0  0  0
   24.6283   54.7557   92.0785 C   0  0  0  0  0  0  0  0  0  0  0  0
   25.4996   56.6681   89.0626 C   0  0  0  0  0  0  0  0  0  0  0  0
   23.5969   55.1154   89.9084 C   0  0  0  0  0  0  0  0  0  0  0  0
   26.7666   55.9949   91.1768 C   0  0  0  0  0  0  0  0  0  0  0  0
   22.5034   54.2539   90.3282 C   0  0  0  0  0  0  0  0  0  0  0  0
   26.7252   57.3480   88.6521 N   0  0  0  0  0  0  0  0  0  0  0  0
   27.7588   57.3484   89.5177 C   0  0  0  0  0  0  0  0  0  0  0  0
   22.4151   53.8124   91.6470 C   0  0  0  0  0  0  0  0  0  0  0  0
   28.9197   57.4638   88.6623 N   0  0  0  0  0  0  0  0  0  0  0  0
   25.6477   55.0246   92.9555 C   0  0  0  0  0  0  0  0  0  0  0  0
   26.8344   57.9640   87.4313 C   0  0  0  0  0  0  0  0  0  0  0  0
   26.1335   57.7655   86.3893 C   0  0  0  0  0  0  0  0  0  0  0  0
   27.8457   56.6905   90.7195 N   0  0  0  0  0  0  0  0  0  0  0  0
   28.3424   58.3780   87.4751 C   0  0  0  0  0  0  0  0  0  0  0  0
   24.9698   57.0745   86.3305 C   0  0  0  0  0  0  0  0  0  0  0  0
   26.7819   55.6183   92.4811 N   0  0  0  0  0  0  0  0  0  0  0  0
   24.1256   56.8579   85.4560 C   0  0  0  0  0  0  0  0  0  0  0  0
   26.3943   58.7658   85.3524 O   0  0  0  0  0  0  0  0  0  0  0  0
   22.9137   56.0089   85.7508 C   0  0  0  0  0  0  0  0  0  0  0  0
   22.0743   56.3666   86.6214 C   0  0  0  0  0  0  0  0  0  0  0  0
   22.8261   56.3144   87.9807 C   0  0  0  0  0  0  0  0  0  0  0  0
   23.4589   53.9731   92.5698 C   0  0  0  0  0  0  0  0  0  0  0  0
   24.5133   56.6616   87.8887 C   0  0  0  0  0  0  0  0  0  0  0  0
   28.4596   59.8691   87.8383 C   0  0  0  0  0  0  0  0  0  0  0  0
  1  2  1  0
  1  3  2  0
  2  4  1  0
  1  5  1  0
  2  6  2  0
  5  7  2  0
  4  8  1  0
  8  9  1  0
  7 10  1  0
  9 11  1  0
  3 12  1  0
  8 13  1  0
 13 14  2  0
  6 15  1  0
  9 15  1  0
 11 16  1  0
 13 16  1  0
 14 17  1  0
  6 18  1  0
 12 18  2  0
 17 19  2  0
 14 20  1  0
 19 21  1  0
 21 22  2  0
 22 23  1  0
  3 24  1  0
 10 24  2  0
  4 25  2  0
 17 25  1  0
 23 25  1  0
 16 26  1  0
M  END
>  <ID>  (1) 
conformer_0

$$$$
