
     RDKit          3D

 24 28  0  0  0  0  0  0  0  0999 V2000
   23.7710   54.3312   91.0244 C   0  0  0  0  0  0  0  0  0  0  0  0
   23.2172   54.7842   90.0120 C   0  0  0  0  0  0  0  0  0  0  0  0
   23.8317   55.6344   89.1337 N   0  0  0  0  0  0  0  0  0  0  0  0
   23.1094   53.5884   92.0267 N   0  0  0  0  0  0  0  0  0  0  0  0
   21.9071   53.7600   92.0247 O   0  0  0  0  0  0  0  0  0  0  0  0
   23.0910   56.0389   87.9368 C   0  0  0  0  0  0  0  0  0  0  0  0
   23.7279   56.6084   86.8788 C   0  0  0  0  0  0  0  0  0  0  0  0
   21.7290   55.6334   87.8122 C   0  0  0  0  0  0  0  0  0  0  0  0
   25.0387   56.0295   89.3903 C   0  0  0  0  0  0  0  0  0  0  0  0
   25.0732   56.8857   86.8048 C   0  0  0  0  0  0  0  0  0  0  0  0
   25.8410   57.4989   85.9009 N   0  0  0  0  0  0  0  0  0  0  0  0
   25.7909   56.7211   88.1967 C   0  0  0  0  0  0  0  0  0  0  0  0
   27.1443   57.1000   88.0922 C   0  0  0  0  0  0  0  0  0  0  0  0
   27.1698   57.7799   86.4712 C   0  0  0  0  0  0  0  0  0  0  0  0
   27.8122   57.6696   87.3233 C   0  0  0  0  0  0  0  0  0  0  0  0
   25.1147   54.9550   91.3750 C   0  0  0  0  0  0  0  0  0  0  0  0
   29.2181   58.0435   87.5753 O   0  0  0  0  0  0  0  0  0  0  0  0
   27.7953   56.7940   89.5083 O   0  0  0  0  0  0  0  0  0  0  0  0
   25.7197   55.6828   90.4553 C   0  0  0  0  0  0  0  0  0  0  0  0
   23.6883   53.1226   93.0625 O   0  0  0  0  0  0  0  0  0  0  0  0
   22.8912   56.5597   85.6306 C   0  0  0  0  0  0  0  0  0  0  0  0
   27.2193   55.8399   90.3398 C   0  0  0  0  0  0  0  0  0  0  0  0
   21.6327   56.4069   85.6073 C   0  0  0  0  0  0  0  0  0  0  0  0
   20.9898   55.9153   86.7148 C   0  0  0  0  0  0  0  0  0  0  0  0
  1  2  2  0
  2  3  1  0
  1  4  1  0
  4  5  1  0
  3  6  1  0
  6  7  1  0
  6  8  2  0
  3  9  1  0
  7 10  1  0
 10 11  2  0
  9 12  1  0
 10 12  1  0
 12 13  2  0
 11 14  1  0
 13 15  1  0
 14 15  2  0
  1 16  1  0
 15 17  1  0
 13 18  1  0
  9 19  1  0
 16 19  1  0
  4 20  2  0
  7 21  2  0
 18 22  1  0
 19 22  1  0
 21 23  1  0
  8 24  1  0
 23 24  2  0
M  CHG  2   4   1   5  -1
M  END
>  <ID>  (1) 
conformer_0

$$$$
