
     RDKit          3D

 27 33  0  0  0  0  0  0  0  0999 V2000
   25.2975   55.3515   91.4571 C   0  0  0  0  0  0  0  0  0  0  0  0
   26.0138   56.0206   90.8133 C   0  0  0  0  0  0  0  0  0  0  0  0
   25.6573   56.4098   89.5047 N   0  0  0  0  0  0  0  0  0  0  0  0
   26.5567   57.1890   88.6927 C   0  0  0  0  0  0  0  0  0  0  0  0
   27.3332   56.2388   91.4292 C   0  0  0  0  0  0  0  0  0  0  0  0
   26.2596   57.3212   87.3422 C   0  0  0  0  0  0  0  0  0  0  0  0
   27.1105   58.1273   86.5453 C   0  0  0  0  0  0  0  0  0  0  0  0
   25.0615   56.9796   86.8407 C   0  0  0  0  0  0  0  0  0  0  0  0
   25.5706   54.9947   92.7834 N   0  0  0  0  0  0  0  0  0  0  0  0
   24.7579   57.3009   85.5401 C   0  0  0  0  0  0  0  0  0  0  0  0
   24.6959   54.2906   93.6172 C   0  0  0  0  0  0  0  0  0  0  0  0
   24.4890   56.1398   89.0136 C   0  0  0  0  0  0  0  0  0  0  0  0
   24.0953   56.3491   87.7586 C   0  0  0  0  0  0  0  0  0  0  0  0
   26.8568   58.3932   85.2521 C   0  0  0  0  0  0  0  0  0  0  0  0
   23.8816   54.8840   90.9754 C   0  0  0  0  0  0  0  0  0  0  0  0
   23.0457   54.1282   91.7246 C   0  0  0  0  0  0  0  0  0  0  0  0
   27.7968   57.5530   91.2657 O   0  0  0  0  0  0  0  0  0  0  0  0
   28.5207   58.5649   87.1369 C   0  0  0  0  0  0  0  0  0  0  0  0
   23.5581   55.3675   89.7335 C   0  0  0  0  0  0  0  0  0  0  0  0
   23.3899   53.9006   93.1148 C   0  0  0  0  0  0  0  0  0  0  0  0
   28.6344   59.9891   87.2343 C   0  0  0  0  0  0  0  0  0  0  0  0
   22.6672   56.2628   87.2817 C   0  0  0  0  0  0  0  0  0  0  0  0
   25.6382   57.9534   84.7578 N   0  0  0  0  0  0  0  0  0  0  0  0
   28.8492   57.9913   88.4044 N   0  0  0  0  0  0  0  0  0  0  0  0
   27.9683   57.2063   89.0367 C   0  0  0  0  0  0  0  0  0  0  0  0
   28.4387   56.1039   90.2211 C   0  0  0  0  0  0  0  0  0  0  0  0
   22.1169   53.5282   91.3349 O   0  0  0  0  0  0  0  0  0  0  0  0
  1  2  2  0
  2  3  1  0
  3  4  1  0
  2  5  1  0
  4  6  1  0
  6  7  1  0
  6  8  2  0
  1  9  1  0
  8 10  1  0
  9 11  1  0
  3 12  1  0
  8 13  1  0
 12 13  2  0
  7 14  2  0
  1 15  1  0
 15 16  1  0
  5 17  1  0
  7 18  1  0
 12 19  1  0
 15 19  2  0
 11 20  2  0
 16 20  1  0
 18 21  1  0
 13 22  1  0
 10 23  2  0
 14 23  1  0
 18 24  1  0
  4 25  2  0
 24 25  1  0
  5 26  1  0
 17 26  1  0
 25 26  1  0
 16 27  2  0
M  END
>  <ID>  (1) 
conformer_0

$$$$
