
     RDKit          3D

 24 28  0  0  0  0  0  0  0  0999 V2000
   23.7710   54.3312   91.0244 C   0  0  0  0  0  0  0  0  0  0  0  0
   23.2172   54.7842   90.0120 C   0  0  0  0  0  0  0  0  0  0  0  0
   23.8317   55.6344   89.1337 N   0  0  0  0  0  0  0  0  0  0  0  0
   23.1094   53.5884   92.0267 N   0  0  0  0  0  0  0  0  0  0  0  0
   23.5605   53.7612   93.2701 C   0  0  0  0  0  0  0  0  0  0  0  0
   25.0083   56.0149   89.5572 C   0  0  0  0  0  0  0  0  0  0  0  0
   23.1234   56.1456   88.0242 C   0  0  0  0  0  0  0  0  0  0  0  0
   24.5805   54.4982   93.5976 N   0  0  0  0  0  0  0  0  0  0  0  0
   23.8995   56.5387   86.9400 N   0  0  0  0  0  0  0  0  0  0  0  0
   24.9707   55.1272   91.4516 C   0  0  0  0  0  0  0  0  0  0  0  0
   25.6470   54.7662   92.6744 C   0  0  0  0  0  0  0  0  0  0  0  0
   25.6409   55.8264   90.5584 C   0  0  0  0  0  0  0  0  0  0  0  0
   25.8115   56.8099   88.3770 C   0  0  0  0  0  0  0  0  0  0  0  0
   21.7740   55.6961   87.8424 C   0  0  0  0  0  0  0  0  0  0  0  0
   26.9789   56.3074   90.9559 O   0  0  0  0  0  0  0  0  0  0  0  0
   27.7582   56.7297   89.9217 C   0  0  0  0  0  0  0  0  0  0  0  0
   27.2350   57.3229   88.8209 C   0  0  0  0  0  0  0  0  0  0  0  0
   23.2024   56.7465   85.7420 C   0  0  0  0  0  0  0  0  0  0  0  0
   21.1537   56.0922   86.7267 C   0  0  0  0  0  0  0  0  0  0  0  0
   28.5130   55.4557   89.6732 O   0  0  0  0  0  0  0  0  0  0  0  0
   21.8665   56.6141   85.7359 N   0  0  0  0  0  0  0  0  0  0  0  0
   23.9674   57.1614   84.6725 N   0  0  0  0  0  0  0  0  0  0  0  0
   25.1814   57.0059   87.1851 C   0  0  0  0  0  0  0  0  0  0  0  0
   27.2499   58.7349   88.8803 O   0  0  0  0  0  0  0  0  0  0  0  0
  1  2  2  0
  2  3  1  0
  1  4  1  0
  4  5  2  0
  3  6  1  0
  3  7  1  0
  5  8  1  0
  7  9  1  0
  1 10  1  0
  8 11  2  0
 10 11  1  0
  6 12  1  0
 10 12  2  0
  6 13  2  0
  7 14  2  0
 12 15  1  0
 15 16  1  0
 13 17  1  0
 16 17  1  0
  9 18  1  0
 14 19  1  0
 16 20  1  0
 18 21  2  0
 19 21  1  0
 18 22  1  0
  9 23  1  0
 13 23  1  0
 17 24  1  0
M  END
>  <ID>  (1) 
conformer_0

$$$$
