
     RDKit          3D

 27 30  0  0  0  0  0  0  0  0999 V2000
   25.2975   55.3515   91.4571 C   0  0  0  0  0  0  0  0  0  0  0  0
   26.0138   56.0206   90.8133 C   0  0  0  0  0  0  0  0  0  0  0  0
   25.6573   56.4098   89.5047 N   0  0  0  0  0  0  0  0  0  0  0  0
   26.5567   57.1890   88.6927 C   0  0  0  0  0  0  0  0  0  0  0  0
   27.3332   56.2388   91.4292 C   0  0  0  0  0  0  0  0  0  0  0  0
   26.2596   57.3212   87.3422 C   0  0  0  0  0  0  0  0  0  0  0  0
   27.1105   58.1273   86.5453 C   0  0  0  0  0  0  0  0  0  0  0  0
   25.0615   56.9796   86.8407 C   0  0  0  0  0  0  0  0  0  0  0  0
   25.5706   54.9947   92.7834 N   0  0  0  0  0  0  0  0  0  0  0  0
   24.7579   57.3009   85.5401 C   0  0  0  0  0  0  0  0  0  0  0  0
   24.6959   54.2906   93.6172 C   0  0  0  0  0  0  0  0  0  0  0  0
   24.1478   56.1291   87.5325 N   0  0  0  0  0  0  0  0  0  0  0  0
   23.9347   54.7261   91.0468 C   0  0  0  0  0  0  0  0  0  0  0  0
   23.5946   55.0581   89.6994 C   0  0  0  0  0  0  0  0  0  0  0  0
   26.8246   58.4476   85.2885 C   0  0  0  0  0  0  0  0  0  0  0  0
   27.6090   57.6024   89.2852 O   0  0  0  0  0  0  0  0  0  0  0  0
   22.3757   54.7032   89.0229 C   0  0  0  0  0  0  0  0  0  0  0  0
   23.5832   53.8075   93.1681 C   0  0  0  0  0  0  0  0  0  0  0  0
   24.5471   55.9021   88.8887 C   0  0  0  0  0  0  0  0  0  0  0  0
   28.3617   55.4207   90.7171 N   0  0  0  0  0  0  0  0  0  0  0  0
   23.4229   56.8683   84.9493 C   0  0  0  0  0  0  0  0  0  0  0  0
   23.2426   54.0824   91.7135 C   0  0  0  0  0  0  0  0  0  0  0  0
   22.5084   57.8398   84.6940 O   0  0  0  0  0  0  0  0  0  0  0  0
   25.6010   58.0698   84.7924 C   0  0  0  0  0  0  0  0  0  0  0  0
   21.6003   55.6414   88.3439 C   0  0  0  0  0  0  0  0  0  0  0  0
   28.3986   58.5475   87.1222 O   0  0  0  0  0  0  0  0  0  0  0  0
   28.6266   59.8923   87.2778 C   0  0  0  0  0  0  0  0  0  0  0  0
  1  2  2  0
  2  3  1  0
  3  4  1  0
  2  5  1  0
  4  6  1  0
  6  7  1  0
  6  8  2  0
  1  9  1  0
  8 10  1  0
  9 11  1  0
  8 12  1  0
  1 13  1  0
 13 14  1  0
  7 15  2  0
  4 16  2  0
 14 17  2  3
 11 18  2  0
  3 19  1  0
 12 19  2  0
 14 19  1  0
  5 20  1  0
 10 21  1  0
 13 22  2  0
 18 22  1  0
 21 23  1  0
 10 24  2  0
 15 24  1  0
 17 25  1  0
  7 26  1  0
 26 27  1  0
M  END
>  <ID>  (1) 
conformer_0

$$$$
