
     RDKit          3D

 28 31  0  0  0  0  0  0  0  0999 V2000
   50.3533   11.0543   82.0459 C   0  0  0  0  0  0  0  0  0  0  0  0
   51.8761   15.2022   82.7035 C   0  0  0  0  0  0  0  0  0  0  0  0
   51.9022   10.9411   80.3172 C   0  0  0  0  0  0  0  0  0  0  0  0
   53.7720   14.3833   81.5813 N   0  0  0  0  0  0  0  0  0  0  0  0
   50.9355   12.2087   82.4727 C   0  0  0  0  0  0  0  0  0  0  0  0
   53.0800   18.4164   84.1990 C   0  0  0  0  0  0  0  0  0  0  0  0
   55.5526   11.1480   78.6975 C   0  0  0  0  0  0  0  0  0  0  0  0
   52.5762   13.9928   82.2382 C   0  0  0  0  0  0  0  0  0  0  0  0
   54.1331   18.8157   83.3505 C   0  0  0  0  0  0  0  0  0  0  0  0
   55.1648   12.6782   80.9368 C   0  0  0  0  0  0  0  0  0  0  0  0
   50.8224   10.4658   80.9627 C   0  0  0  0  0  0  0  0  0  0  0  0
   52.6473   11.9884   80.8206 C   0  0  0  0  0  0  0  0  0  0  0  0
   54.2931   11.3836   79.1379 C   0  0  0  0  0  0  0  0  0  0  0  0
   55.6947   14.0364   82.8511 O   0  0  0  0  0  0  0  0  0  0  0  0
   54.5339   18.0051   82.3305 C   0  0  0  0  0  0  0  0  0  0  0  0
   48.8337   10.4602   83.6784 O   0  0  0  0  0  0  0  0  0  0  0  0
   52.0266   12.7136   81.8354 N   0  0  0  0  0  0  0  0  0  0  0  0
   53.9105   16.8298   82.0776 C   0  0  0  0  0  0  0  0  0  0  0  0
   51.4685   16.8406   84.7732 F   0  0  0  0  0  0  0  0  0  0  0  0
   49.2303    9.1362   81.6781 O   0  0  0  0  0  0  0  0  0  0  0  0
   54.9417   13.7239   81.9011 C   0  0  0  0  0  0  0  0  0  0  0  0
   50.2157    9.3026   80.6020 F   0  0  0  0  0  0  0  0  0  0  0  0
   54.0177   12.1061   80.3277 C   0  0  0  0  0  0  0  0  0  0  0  0
   56.4531   12.3571   80.5559 C   0  0  0  0  0  0  0  0  0  0  0  0
   49.3047   10.2011   82.5466 C   0  0  0  0  0  0  0  0  0  0  0  0
   56.6494   11.5896   79.4256 C   0  0  0  0  0  0  0  0  0  0  0  0
   52.4672   17.2086   83.9857 C   0  0  0  0  0  0  0  0  0  0  0  0
   52.8274   16.3723   82.8761 C   0  0  0  0  0  0  0  0  0  0  0  0
  1  5  1  0
  1 11  2  0
  1 25  1  0
  2  8  1  0
  2 28  1  0
  3 11  1  0
  3 12  1  0
  4  8  2  0
  4 21  1  0
  5 17  1  0
  6  9  1  0
  6 27  2  0
  7 13  2  0
  7 26  1  0
  8 17  1  0
  9 15  1  0
 10 21  1  0
 10 23  1  0
 10 24  1  0
 11 22  1  0
 12 17  1  0
 12 23  1  0
 13 23  1  0
 14 21  2  0
 15 18  2  0
 16 25  2  0
 18 28  1  0
 19 27  1  0
 20 25  1  0
 24 26  2  0
 27 28  1  0
M  END
>  <ID>  (1) 
conformer_0

$$$$
