
     RDKit          3D

 23 26  0  0  0  0  0  0  0  0999 V2000
   54.3870   12.0140   79.7489 C   0  0  0  0  0  0  0  0  0  0  0  0
   49.8273   12.5960   83.1590 C   0  0  0  0  0  0  0  0  0  0  0  0
   51.2339   11.3534   81.7413 C   0  0  0  0  0  0  0  0  0  0  0  0
   52.5924   14.8741   83.0057 C   0  0  0  0  0  0  0  0  0  0  0  0
   50.7423    9.5653   83.3717 C   0  0  0  0  0  0  0  0  0  0  0  0
   51.1040   12.5337   82.4354 C   0  0  0  0  0  0  0  0  0  0  0  0
   53.0653   13.2492   81.3985 N   0  0  0  0  0  0  0  0  0  0  0  0
   55.5743   12.9167   79.8562 C   0  0  0  0  0  0  0  0  0  0  0  0
   52.1730   13.5533   82.3390 C   0  0  0  0  0  0  0  0  0  0  0  0
   55.8956   13.3840   81.2481 C   0  0  0  0  0  0  0  0  0  0  0  0
   52.8795   18.2850   83.8390 C   0  0  0  0  0  0  0  0  0  0  0  0
   54.3117   11.2521   78.7428 O   0  0  0  0  0  0  0  0  0  0  0  0
   50.2207   10.3038   82.1582 C   0  0  0  0  0  0  0  0  0  0  0  0
   53.9356   18.0323   82.7548 C   0  0  0  0  0  0  0  0  0  0  0  0
   53.2320   12.1598   80.6654 C   0  0  0  0  0  0  0  0  0  0  0  0
   54.3398   16.6795   82.5968 C   0  0  0  0  0  0  0  0  0  0  0  0
   51.9532   17.1523   83.9046 C   0  0  0  0  0  0  0  0  0  0  0  0
   53.8533   15.3636   82.2379 N   0  0  0  0  0  0  0  0  0  0  0  0
   55.2060   14.6807   81.6210 O   0  0  0  0  0  0  0  0  0  0  0  0
   49.8326    9.4125   81.1880 O   0  0  0  0  0  0  0  0  0  0  0  0
   52.2190   15.8090   83.8678 N   0  0  0  0  0  0  0  0  0  0  0  0
   52.2686   11.1689   80.8262 C   0  0  0  0  0  0  0  0  0  0  0  0
   49.1421   11.2584   82.6803 C   0  0  0  0  0  0  0  0  0  0  0  0
  1  8  1  0
  1 12  2  0
  1 15  1  0
  2  6  1  0
  2 23  1  0
  3  6  2  0
  3 13  1  0
  3 22  1  0
  4  9  2  0
  4 18  1  0
  4 21  1  0
  5 13  1  0
  6  9  1  0
  7  9  1  0
  7 15  2  0
  8 10  1  0
 10 19  1  0
 11 14  1  0
 11 17  1  0
 13 20  1  0
 13 23  1  0
 14 16  1  0
 15 22  1  0
 16 18  1  0
 17 21  1  0
 18 19  1  0
M  END
>  <ID>  (1) 
conformer_0

$$$$
