
     RDKit          3D

 32 35  0  0  0  0  0  0  0  0999 V2000
   56.1476   10.0598   81.2850 O   0  0  0  0  0  0  0  0  0  0  0  0
   56.7834   10.4125   77.1410 C   0  0  0  0  0  0  0  0  0  0  0  0
   53.1531   11.5097   80.2488 C   0  0  0  0  0  0  0  0  0  0  0  0
   54.8964   13.1453   79.8067 C   0  0  0  0  0  0  0  0  0  0  0  0
   49.3672   10.4257   82.3177 C   0  0  0  0  0  0  0  0  0  0  0  0
   51.2181   10.1175   80.7868 C   0  0  0  0  0  0  0  0  0  0  0  0
   50.0996    9.7053   81.4041 C   0  0  0  0  0  0  0  0  0  0  0  0
   55.8423   12.4850   82.0171 C   0  0  0  0  0  0  0  0  0  0  0  0
   48.4198    8.4252   82.0280 C   0  0  0  0  0  0  0  0  0  0  0  0
   54.9541   13.8205   82.2080 C   0  0  0  0  0  0  0  0  0  0  0  0
   55.9850   11.3445   81.0171 C   0  0  0  0  0  0  0  0  0  0  0  0
   54.5394   15.1383   81.7308 O   0  0  0  0  0  0  0  0  0  0  0  0
   52.0768   17.9711   84.5483 N   0  0  0  0  0  0  0  0  0  0  0  0
   51.6525   12.3003   81.7724 C   0  0  0  0  0  0  0  0  0  0  0  0
   56.5474   10.8115   78.6360 C   0  0  0  0  0  0  0  0  0  0  0  0
   57.7884   11.0092   79.1290 O   0  0  0  0  0  0  0  0  0  0  0  0
   53.6902   12.8764   80.7600 C   0  0  0  0  0  0  0  0  0  0  0  0
   54.3325   17.4800   82.3229 C   0  0  0  0  0  0  0  0  0  0  0  0
   53.8918   18.5531   83.0222 C   0  0  0  0  0  0  0  0  0  0  0  0
   49.5648   11.6135   82.8669 C   0  0  0  0  0  0  0  0  0  0  0  0
   52.1045   16.6763   84.2316 C   0  0  0  0  0  0  0  0  0  0  0  0
   48.2940    9.6690   82.7140 C   0  0  0  0  0  0  0  0  0  0  0  0
   52.6370   13.2750   81.5981 O   0  0  0  0  0  0  0  0  0  0  0  0
   49.5316    8.4441   81.2099 C   0  0  0  0  0  0  0  0  0  0  0  0
   55.5939   11.7200   79.5380 C   0  0  0  0  0  0  0  0  0  0  0  0
   54.9172   11.2486   78.4148 O   0  0  0  0  0  0  0  0  0  0  0  0
   52.9421   18.8062   83.8837 C   0  0  0  0  0  0  0  0  0  0  0  0
   50.6134   12.4461   82.6666 C   0  0  0  0  0  0  0  0  0  0  0  0
   53.9073   16.2053   82.4968 C   0  0  0  0  0  0  0  0  0  0  0  0
   52.4032   14.6209   83.3916 O   0  0  0  0  0  0  0  0  0  0  0  0
   51.9287   11.3000   80.9608 C   0  0  0  0  0  0  0  0  0  0  0  0
   52.8356   15.8944   83.3841 C   0  0  0  0  0  0  0  0  0  0  0  0
  1 11  1  0
  2 15  1  0
  3 17  1  0
  3 31  1  0
  4 17  1  0
  4 25  1  0
  5  7  1  0
  5 20  2  0
  5 22  1  0
  6  7  2  0
  6 31  1  0
  7 24  1  0
  8 10  1  0
  8 11  1  0
  9 22  1  0
  9 24  1  0
 10 12  1  0
 11 25  1  0
 12 29  1  0
 13 21  2  0
 13 27  1  0
 14 23  1  0
 14 28  1  0
 14 31  2  0
 15 16  1  0
 15 25  1  0
 17 23  1  0
 18 19  1  0
 18 29  1  0
 19 27  2  0
 20 28  1  0
 21 32  1  0
 25 26  1  0
 29 32  2  0
 30 32  1  0
M  END
>  <ID>  (1) 
conformer_0

$$$$
