
     RDKit          3D

 21 22  0  0  0  0  0  0  0  0999 V2000
   51.9525   10.0388   82.5078 C   0  0  0  0  0  0  0  0  0  0  0  0
   56.1653   14.2270   82.5717 O   0  0  0  0  0  0  0  0  0  0  0  0
   49.8433    9.9533   80.7628 C   0  0  0  0  0  0  0  0  0  0  0  0
   53.8741   15.5587   82.1731 N   0  0  0  0  0  0  0  0  0  0  0  0
   50.9163    9.1475   82.7281 C   0  0  0  0  0  0  0  0  0  0  0  0
   49.8616    9.1333   81.8444 C   0  0  0  0  0  0  0  0  0  0  0  0
   50.8813   10.8421   80.5688 C   0  0  0  0  0  0  0  0  0  0  0  0
   52.4026   19.2239   83.4118 F   0  0  0  0  0  0  0  0  0  0  0  0
   54.0753   14.3583   81.5224 C   0  0  0  0  0  0  0  0  0  0  0  0
   54.1769   11.5970   81.9401 N   0  0  0  0  0  0  0  0  0  0  0  0
   55.4030   12.1834   81.5047 C   0  0  0  0  0  0  0  0  0  0  0  0
   52.8610   15.5799   83.2385 S   0  0  0  0  0  0  0  0  0  0  0  0
   55.3744   13.6667   81.6744 C   0  0  0  0  0  0  0  0  0  0  0  0
   54.2523   17.9345   82.4829 C   0  0  0  0  0  0  0  0  0  0  0  0
   51.9344   10.8962   81.4386 C   0  0  0  0  0  0  0  0  0  0  0  0
   52.9387   12.6191   80.1987 O   0  0  0  0  0  0  0  0  0  0  0  0
   53.2626   18.1056   83.6084 C   0  0  0  0  0  0  0  0  0  0  0  0
   53.9531   18.5120   84.7473 F   0  0  0  0  0  0  0  0  0  0  0  0
   54.8662   16.5637   82.3432 C   0  0  0  0  0  0  0  0  0  0  0  0
   52.4449   16.8682   83.7927 C   0  0  0  0  0  0  0  0  0  0  0  0
   53.0274   11.8191   81.2126 C   0  0  0  0  0  0  0  0  0  0  0  0
  1  5  2  0
  1 15  1  0
  2 13  1  0
  3  6  2  0
  3  7  1  0
  4  9  1  0
  4 12  1  0
  4 19  1  0
  5  6  1  0
  7 15  2  0
  8 17  1  0
  9 13  1  0
 10 11  1  0
 10 21  1  0
 11 13  1  0
 12 20  1  0
 14 17  1  0
 14 19  1  0
 15 21  1  0
 16 21  2  0
 17 18  1  0
 17 20  1  0
M  END
>  <ID>  (1) 
conformer_0

$$$$
