
     RDKit          3D

 33 36  0  0  0  0  0  0  0  0999 V2000
   55.0077   11.4152   78.7044 C   0  0  0  0  0  0  0  0  0  0  0  0
   54.8387   11.7419   81.8337 C   0  0  0  0  0  0  0  0  0  0  0  0
   53.3321   11.9378   81.6171 C   0  0  0  0  0  0  0  0  0  0  0  0
   56.7447   11.9349   80.2015 O   0  0  0  0  0  0  0  0  0  0  0  0
   50.2128    9.9032   81.8459 C   0  0  0  0  0  0  0  0  0  0  0  0
   54.4161   17.8585   82.4530 C   0  0  0  0  0  0  0  0  0  0  0  0
   54.9476   14.2562   83.3288 O   0  0  0  0  0  0  0  0  0  0  0  0
   54.4792   15.6954   81.5431 N   0  0  0  0  0  0  0  0  0  0  0  0
   55.9954   13.9174   81.1709 C   0  0  0  0  0  0  0  0  0  0  0  0
   56.6334    9.7614   79.4403 O   0  0  0  0  0  0  0  0  0  0  0  0
   56.3492   10.9817   79.2308 C   0  0  0  0  0  0  0  0  0  0  0  0
   50.8224    8.8086   82.4183 C   0  0  0  0  0  0  0  0  0  0  0  0
   54.5012   12.5746   79.6050 C   0  0  0  0  0  0  0  0  0  0  0  0
   48.8712   10.0919   83.6628 F   0  0  0  0  0  0  0  0  0  0  0  0
   52.7060   16.2809   83.1046 C   0  0  0  0  0  0  0  0  0  0  0  0
   49.2148   11.8771   82.5722 F   0  0  0  0  0  0  0  0  0  0  0  0
   51.0882   10.8092   79.9055 C   0  0  0  0  0  0  0  0  0  0  0  0
   53.1546   12.1831   80.1779 C   0  0  0  0  0  0  0  0  0  0  0  0
   52.0348   15.0897   82.9619 C   0  0  0  0  0  0  0  0  0  0  0  0
   53.8588   18.8021   83.2868 C   0  0  0  0  0  0  0  0  0  0  0  0
   52.2065   17.2354   83.9989 C   0  0  0  0  0  0  0  0  0  0  0  0
   52.3520   11.3330   79.3668 C   0  0  0  0  0  0  0  0  0  0  0  0
   52.4526   11.1265   78.0002 F   0  0  0  0  0  0  0  0  0  0  0  0
   52.7495   18.4660   84.0762 C   0  0  0  0  0  0  0  0  0  0  0  0
   49.2280   10.5672   82.4945 C   0  0  0  0  0  0  0  0  0  0  0  0
   51.3815   14.0818   82.9477 O   0  0  0  0  0  0  0  0  0  0  0  0
   55.5247   12.5488   80.7549 C   0  0  0  0  0  0  0  0  0  0  0  0
   53.8559   16.6146   82.3618 C   0  0  0  0  0  0  0  0  0  0  0  0
   57.2703   13.9362   81.6680 O   0  0  0  0  0  0  0  0  0  0  0  0
   51.1852   10.7778   81.2881 C   0  0  0  0  0  0  0  0  0  0  0  0
   52.1703   11.2845   82.2179 C   0  0  0  0  0  0  0  0  0  0  0  0
   48.9837    9.9866   81.3734 O   0  0  0  0  0  0  0  0  0  0  0  0
   55.0059   14.5459   82.1035 C   0  0  0  0  0  0  0  0  0  0  0  0
  1 11  1  0
  1 13  1  0
  2  3  1  0
  2 27  1  0
  3 18  1  0
  3 31  1  0
  4 11  1  0
  4 27  1  0
  5 12  1  0
  5 25  1  0
  5 30  1  0
  6 20  1  0
  6 28  2  0
  7 33  2  0
  8 28  1  0
  8 33  1  0
  9 27  1  0
  9 29  1  0
  9 33  1  0
 10 11  2  0
 13 18  1  0
 13 27  1  0
 14 25  1  0
 15 19  2  0
 15 21  1  0
 15 28  1  0
 16 25  1  0
 17 22  1  0
 17 30  1  0
 18 22  1  0
 19 26  2  0
 20 24  1  0
 21 24  2  0
 22 23  1  0
 25 32  1  0
 30 31  2  0
M  END
>  <ID>  (1) 
conformer_0

$$$$
