
     RDKit          3D

 22 25  0  0  0  0  0  0  0  0999 V2000
   53.5858   12.5702   80.8999 C   0  0  0  0  0  0  0  0  0  0  0  0
   53.3375   16.0731   82.5940 C   0  0  0  0  0  0  0  0  0  0  0  0
   52.3893   18.5006   84.1982 C   0  0  0  0  0  0  0  0  0  0  0  0
   50.2340   11.2951   82.9723 N   0  0  0  0  0  0  0  0  0  0  0  0
   50.8258    9.9142   80.6586 C   0  0  0  0  0  0  0  0  0  0  0  0
   51.1616   11.8150   82.1070 C   0  0  0  0  0  0  0  0  0  0  0  0
   51.8813   17.1492   84.4660 C   0  0  0  0  0  0  0  0  0  0  0  0
   54.9869   12.8405   80.4543 C   0  0  0  0  0  0  0  0  0  0  0  0
   55.8248   11.7118   79.9218 C   0  0  0  0  0  0  0  0  0  0  0  0
   52.9738   13.5529   81.8136 C   0  0  0  0  0  0  0  0  0  0  0  0
   51.5259   11.0504   80.9941 C   0  0  0  0  0  0  0  0  0  0  0  0
   55.2948   14.8471   81.8808 C   0  0  0  0  0  0  0  0  0  0  0  0
   55.7945   13.4735   81.6025 C   0  0  0  0  0  0  0  0  0  0  0  0
   52.1319   16.1724   83.3747 C   0  0  0  0  0  0  0  0  0  0  0  0
   49.6271   10.1169   82.6692 C   0  0  0  0  0  0  0  0  0  0  0  0
   53.7627   18.3637   83.4221 C   0  0  0  0  0  0  0  0  0  0  0  0
   49.8676    9.4321   81.5189 C   0  0  0  0  0  0  0  0  0  0  0  0
   53.7480   14.8262   81.9553 N   0  0  0  0  0  0  0  0  0  0  0  0
   51.1092   15.5793   82.9338 O   0  0  0  0  0  0  0  0  0  0  0  0
   51.7726   13.0601   82.3564 N   0  0  0  0  0  0  0  0  0  0  0  0
   54.4030   17.0787   82.8980 C   0  0  0  0  0  0  0  0  0  0  0  0
   52.7526   11.5311   80.3098 C   0  0  0  0  0  0  0  0  0  0  0  0
  1  8  1  0
  1 10  1  0
  1 22  1  0
  2 14  1  0
  2 18  1  0
  2 21  1  0
  3  7  1  0
  3 16  1  0
  4  6  2  0
  4 15  1  0
  5 11  2  0
  5 17  1  0
  6 11  1  0
  6 20  1  0
  7 14  1  0
  8  9  1  0
  8 13  1  0
 10 18  1  0
 10 20  2  0
 11 22  1  0
 12 13  1  0
 12 18  1  0
 14 19  2  0
 15 17  2  0
 16 21  1  0
M  END
>  <ID>  (1) 
conformer_0

$$$$
