
     RDKit          3D

 24 26  0  0  0  0  0  0  0  0999 V2000
   54.1577   14.8409   82.5428 C   0  0  0  0  0  0  0  0  0  0  0  0
   55.8961   12.3947   80.6825 C   0  0  0  0  0  0  0  0  0  0  0  0
   51.6609   10.7479   80.2598 C   0  0  0  0  0  0  0  0  0  0  0  0
   52.2591   11.7415   81.0370 C   0  0  0  0  0  0  0  0  0  0  0  0
   54.9088   15.8833   81.8068 C   0  0  0  0  0  0  0  0  0  0  0  0
   48.9481    9.3878   82.2495 C   0  0  0  0  0  0  0  0  0  0  0  0
   52.1275   18.1948   84.5200 C   0  0  0  0  0  0  0  0  0  0  0  0
   51.5059   12.1899   82.0949 C   0  0  0  0  0  0  0  0  0  0  0  0
   53.6323   12.0798   80.7246 C   0  0  0  0  0  0  0  0  0  0  0  0
   52.5862   17.4035   83.6419 C   0  0  0  0  0  0  0  0  0  0  0  0
   54.7000   12.7182   81.3822 C   0  0  0  0  0  0  0  0  0  0  0  0
   52.7499   15.1120   82.6792 C   0  0  0  0  0  0  0  0  0  0  0  0
   53.8200   17.8405   82.9676 C   0  0  0  0  0  0  0  0  0  0  0  0
   50.4808   11.4368   82.5525 C   0  0  0  0  0  0  0  0  0  0  0  0
   54.3493   17.1581   81.9488 N   0  0  0  0  0  0  0  0  0  0  0  0
   50.7506    9.9422   80.6829 C   0  0  0  0  0  0  0  0  0  0  0  0
   55.5631   11.5891   79.5939 C   0  0  0  0  0  0  0  0  0  0  0  0
   54.1985   11.4306   79.5848 C   0  0  0  0  0  0  0  0  0  0  0  0
   50.2172   10.1428   81.9614 C   0  0  0  0  0  0  0  0  0  0  0  0
   54.7298   13.5254   82.5415 C   0  0  0  0  0  0  0  0  0  0  0  0
   51.6064   19.4909   84.4750 C   0  0  0  0  0  0  0  0  0  0  0  0
   54.2630   19.0107   83.2842 N   0  0  0  0  0  0  0  0  0  0  0  0
   52.0943   16.1823   83.2734 C   0  0  0  0  0  0  0  0  0  0  0  0
   50.1012    8.9142   82.8817 C   0  0  0  0  0  0  0  0  0  0  0  0
  1  5  1  0
  1 12  1  0
  1 20  1  0
  2 11  1  0
  2 17  1  0
  3  4  1  0
  3 16  2  0
  4  8  1  0
  4  9  2  3
  5 15  1  0
  6 19  1  0
  6 24  1  0
  7 10  1  0
  7 21  1  0
  8 14  2  0
  9 11  1  0
  9 18  1  0
 10 13  1  0
 10 23  1  0
 11 20  1  0
 12 23  1  0
 13 15  1  0
 13 22  2  0
 14 19  1  0
 16 19  1  0
 17 18  1  0
M  END
>  <ID>  (1) 
conformer_0

$$$$
