
     RDKit          3D

 19 21  0  0  0  0  0  0  0  0999 V2000
   52.2547   11.0581   80.1329 C   0  0  0  0  0  0  0  0  0  0  0  0
   51.5943   14.9036   83.3177 O   0  0  0  0  0  0  0  0  0  0  0  0
   55.6636   12.2352   80.9517 O   0  0  0  0  0  0  0  0  0  0  0  0
   55.1609   13.5972   81.1099 C   0  0  0  0  0  0  0  0  0  0  0  0
   52.5496   15.6340   82.7008 C   0  0  0  0  0  0  0  0  0  0  0  0
   50.5164   10.2054   83.3031 C   0  0  0  0  0  0  0  0  0  0  0  0
   53.8868   15.0065   82.7193 C   0  0  0  0  0  0  0  0  0  0  0  0
   54.0711   13.6206   82.1834 C   0  0  0  0  0  0  0  0  0  0  0  0
   53.2114   11.9528   80.6307 C   0  0  0  0  0  0  0  0  0  0  0  0
   51.2646   11.0111   82.3173 C   0  0  0  0  0  0  0  0  0  0  0  0
   51.2456   10.6134   80.9775 C   0  0  0  0  0  0  0  0  0  0  0  0
   54.8686   16.1561   82.4051 C   0  0  0  0  0  0  0  0  0  0  0  0
   54.0565   17.4992   82.4904 C   0  0  0  0  0  0  0  0  0  0  0  0
   50.1631    9.7145   80.4943 C   0  0  0  0  0  0  0  0  0  0  0  0
   51.8570   17.6498   83.7939 O   0  0  0  0  0  0  0  0  0  0  0  0
   53.0380   12.5444   81.8788 C   0  0  0  0  0  0  0  0  0  0  0  0
   52.6788   17.0660   82.9213 C   0  0  0  0  0  0  0  0  0  0  0  0
   52.0567   12.0486   82.7446 C   0  0  0  0  0  0  0  0  0  0  0  0
   54.5182   12.3606   80.0034 C   0  0  0  0  0  0  0  0  0  0  0  0
  1  9  2  0
  1 11  1  0
  2  5  1  0
  3  4  1  0
  3 19  1  0
  4  8  1  0
  5  7  1  0
  5 17  1  0
  6 10  1  0
  7  8  1  0
  7 12  1  0
  8 16  1  0
  9 16  1  0
  9 19  1  0
 10 11  2  0
 10 18  1  0
 11 14  1  0
 12 13  1  0
 13 17  1  0
 15 17  1  0
 16 18  2  0
M  END
>  <ID>  (1) 
conformer_0

$$$$
