
     RDKit          3D

 16 16  0  0  0  0  0  0  0  0999 V2000
   52.2574   10.9105   81.4017 C   0  0  0  0  0  0  0  0  0  0  0  0
   53.5160   16.2841   83.7278 C   0  0  0  0  0  0  0  0  0  0  0  0
   55.0590   14.6157   82.5141 C   0  0  0  0  0  0  0  0  0  0  0  0
   53.4482   12.9883   81.4760 C   0  0  0  0  0  0  0  0  0  0  0  0
   53.3531   17.7630   83.5458 C   0  0  0  0  0  0  0  0  0  0  0  0
   51.1163   11.4741   81.9612 C   0  0  0  0  0  0  0  0  0  0  0  0
   51.1706   12.8369   82.3142 C   0  0  0  0  0  0  0  0  0  0  0  0
   54.7658   13.7703   81.1636 C   0  0  0  0  0  0  0  0  0  0  0  0
   49.8924   10.6475   82.1568 C   0  0  0  0  0  0  0  0  0  0  0  0
   55.9812   12.9327   80.8691 C   0  0  0  0  0  0  0  0  0  0  0  0
   54.3452   16.6850   81.5271 O   0  0  0  0  0  0  0  0  0  0  0  0
   50.2038    9.2156   81.8885 C   0  0  0  0  0  0  0  0  0  0  0  0
   52.2116   16.9287   83.4249 C   0  0  0  0  0  0  0  0  0  0  0  0
   53.9960   15.7361   82.4577 C   0  0  0  0  0  0  0  0  0  0  0  0
   52.3147   13.5749   82.0666 C   0  0  0  0  0  0  0  0  0  0  0  0
   53.4077   11.6549   81.1515 C   0  0  0  0  0  0  0  0  0  0  0  0
  1  6  2  0
  1 16  1  0
  2 13  1  0
  2 14  1  0
  3  8  1  0
  3 14  1  0
  4  8  1  0
  4 15  1  0
  4 16  2  0
  5 13  1  0
  6  7  1  0
  6  9  1  0
  7 15  2  0
  8 10  1  0
  9 12  1  0
 11 14  1  0
M  END
>  <ID>  (1) 
conformer_0

$$$$
