
     RDKit          3D

 27 30  0  0  0  0  0  0  0  0999 V2000
   55.7788   13.9277   81.2607 C   0  0  0  0  0  0  0  0  0  0  0  0
   52.4743   19.0216   83.2532 F   0  0  0  0  0  0  0  0  0  0  0  0
   52.4531   16.7040   83.7028 C   0  0  0  0  0  0  0  0  0  0  0  0
   49.0119    8.8324   82.2642 F   0  0  0  0  0  0  0  0  0  0  0  0
   48.7170   10.7844   83.8490 C   0  0  0  0  0  0  0  0  0  0  0  0
   53.3308   12.5911   81.0513 C   0  0  0  0  0  0  0  0  0  0  0  0
   50.2567   12.1191   82.7501 C   0  0  0  0  0  0  0  0  0  0  0  0
   55.6036   12.8318   80.3706 C   0  0  0  0  0  0  0  0  0  0  0  0
   51.8570   10.5461   80.7813 C   0  0  0  0  0  0  0  0  0  0  0  0
   54.1029   11.4864   79.0279 C   0  0  0  0  0  0  0  0  0  0  0  0
   49.8905    9.8360   82.0099 C   0  0  0  0  0  0  0  0  0  0  0  0
   53.4703   13.8106   81.8219 C   0  0  0  0  0  0  0  0  0  0  0  0
   54.3872   18.2001   81.6599 O   0  0  0  0  0  0  0  0  0  0  0  0
   54.6762   14.5067   81.8907 C   0  0  0  0  0  0  0  0  0  0  0  0
   49.6628   10.9386   82.8143 C   0  0  0  0  0  0  0  0  0  0  0  0
   54.3512   12.2623   80.1957 C   0  0  0  0  0  0  0  0  0  0  0  0
   48.9690    9.9355   84.7630 F   0  0  0  0  0  0  0  0  0  0  0  0
   47.8621   11.6700   83.9184 F   0  0  0  0  0  0  0  0  0  0  0  0
   51.2807   12.3775   82.1236 C   0  0  0  0  0  0  0  0  0  0  0  0
   54.5717   17.5467   82.8730 C   0  0  0  0  0  0  0  0  0  0  0  0
   52.1323   11.7948   81.2831 C   0  0  0  0  0  0  0  0  0  0  0  0
   53.6890   18.4681   84.8915 F   0  0  0  0  0  0  0  0  0  0  0  0
   53.0858   15.7177   82.8900 N   0  0  0  0  0  0  0  0  0  0  0  0
   53.2577   17.9577   83.7009 C   0  0  0  0  0  0  0  0  0  0  0  0
   52.5232   14.5412   82.5610 O   0  0  0  0  0  0  0  0  0  0  0  0
   50.8620    9.6920   81.0801 C   0  0  0  0  0  0  0  0  0  0  0  0
   54.5104   15.9452   82.5741 C   0  0  0  0  0  0  0  0  0  0  0  0
  1  8  1  0
  1 14  1  0
  2 24  1  0
  3 23  1  0
  3 24  1  0
  4 11  1  0
  5 15  1  0
  5 17  1  0
  5 18  1  0
  6 12  1  0
  6 16  1  0
  6 21  1  0
  7 15  1  0
  7 19  2  0
  8 16  2  0
  9 21  2  0
  9 26  1  0
 10 16  1  0
 11 15  2  0
 11 26  1  0
 12 14  2  0
 12 25  1  0
 13 20  1  0
 14 27  1  0
 19 21  1  0
 20 24  1  0
 20 27  1  0
 22 24  1  0
 23 25  1  0
 23 27  1  0
M  END
>  <ID>  (1) 
conformer_0

$$$$
