
     RDKit          3D

 21 23  0  0  0  0  0  0  0  0999 V2000
   55.9110   11.8695   80.2982 C   0  0  0  0  0  0  0  0  0  0  0  0
   52.2679   16.3978   83.8137 O   0  0  0  0  0  0  0  0  0  0  0  0
   55.6976   12.5029   81.5176 C   0  0  0  0  0  0  0  0  0  0  0  0
   49.6884    9.2061   80.8807 C   0  0  0  0  0  0  0  0  0  0  0  0
   53.0463   15.8555   82.8360 C   0  0  0  0  0  0  0  0  0  0  0  0
   53.5964   11.7546   79.9333 C   0  0  0  0  0  0  0  0  0  0  0  0
   54.3810   12.7383   81.9279 C   0  0  0  0  0  0  0  0  0  0  0  0
   51.9174   12.1024   81.6378 C   0  0  0  0  0  0  0  0  0  0  0  0
   54.8155   11.5137   79.5022 C   0  0  0  0  0  0  0  0  0  0  0  0
   49.9760   12.2108   83.0665 C   0  0  0  0  0  0  0  0  0  0  0  0
   50.1921   10.4305   81.5039 C   0  0  0  0  0  0  0  0  0  0  0  0
   54.0723   16.6025   82.1366 C   0  0  0  0  0  0  0  0  0  0  0  0
   51.3330   10.9695   81.0706 C   0  0  0  0  0  0  0  0  0  0  0  0
   52.6159   14.6111   82.2697 C   0  0  0  0  0  0  0  0  0  0  0  0
   53.3555   18.5514   83.4531 C   0  0  0  0  0  0  0  0  0  0  0  0
   52.6258   17.6353   84.4589 C   0  0  0  0  0  0  0  0  0  0  0  0
   53.3030   12.2974   81.1910 C   0  0  0  0  0  0  0  0  0  0  0  0
   51.5508   14.0394   83.0152 O   0  0  0  0  0  0  0  0  0  0  0  0
   49.4905   11.0343   82.5129 C   0  0  0  0  0  0  0  0  0  0  0  0
   54.3216   17.9976   82.4639 C   0  0  0  0  0  0  0  0  0  0  0  0
   51.1136   12.7591   82.5940 C   0  0  0  0  0  0  0  0  0  0  0  0
  1  3  2  0
  1  9  1  0
  2  5  1  0
  2 16  1  0
  3  7  1  0
  4 11  1  0
  5 12  2  0
  5 14  1  0
  6  9  2  0
  6 17  1  0
  7 17  2  0
  8 13  1  0
  8 17  1  0
  8 21  1  0
 10 19  1  0
 10 21  2  0
 11 13  2  0
 11 19  1  0
 12 20  1  0
 14 18  1  0
 15 16  1  0
 15 20  1  0
 18 21  1  0
M  END
>  <ID>  (1) 
conformer_0

$$$$
