
     RDKit          3D

 40 43  0  0  0  0  0  0  0  0999 V2000
   49.9912    9.3896   80.9301 C   0  0  0  0  0  0  0  0  0  0  0  0
   53.2407   12.9033   80.8500 C   0  0  0  0  0  0  0  0  0  0  0  0
   52.2438   12.2079   81.3696 N   0  0  0  0  0  0  0  0  0  0  0  0
   48.1792    9.6606   82.4416 C   0  0  0  0  0  0  0  0  0  0  0  0
   55.6674   12.6623   80.4762 C   0  0  0  0  0  0  0  0  0  0  0  0
   50.8371   16.8865   84.1490 C   0  0  0  0  0  0  0  0  0  0  0  0
   48.7885   10.9011   83.0334 C   0  0  0  0  0  0  0  0  0  0  0  0
   50.4200   18.4984   84.0579 F   0  0  0  0  0  0  0  0  0  0  0  0
   54.4846   16.7868   82.0391 O   0  0  0  0  0  0  0  0  0  0  0  0
   54.0183   18.7324   83.6974 C   0  0  0  0  0  0  0  0  0  0  0  0
   55.4586   11.2441   78.3943 C   0  0  0  0  0  0  0  0  0  0  0  0
   54.2838   12.1800   80.1680 N   0  0  0  0  0  0  0  0  0  0  0  0
   52.9214   17.8613   83.7052 C   0  0  0  0  0  0  0  0  0  0  0  0
   57.2534   10.5158   76.8025 C   0  0  0  0  0  0  0  0  0  0  0  0
   56.4857   11.6717   79.4609 C   0  0  0  0  0  0  0  0  0  0  0  0
   49.9752   11.4537   82.3916 C   0  0  0  0  0  0  0  0  0  0  0  0
   50.8299   10.2681   81.8668 C   0  0  0  0  0  0  0  0  0  0  0  0
   52.7230   10.9292   76.9922 C   0  0  0  0  0  0  0  0  0  0  0  0
   52.5880   19.9413   85.1737 C   0  0  0  0  0  0  0  0  0  0  0  0
   53.0045   11.3167   78.2761 C   0  0  0  0  0  0  0  0  0  0  0  0
   52.0484   18.9227   86.0387 F   0  0  0  0  0  0  0  0  0  0  0  0
   57.5662   10.1115   75.5945 O   0  0  0  0  0  0  0  0  0  0  0  0
   55.2395   13.9783   81.2864 C   0  0  0  0  0  0  0  0  0  0  0  0
   51.2690    9.4609   82.9916 O   0  0  0  0  0  0  0  0  0  0  0  0
   53.1152   21.0434   86.0489 C   0  0  0  0  0  0  0  0  0  0  0  0
   55.8535   10.7788   77.1072 C   0  0  0  0  0  0  0  0  0  0  0  0
   53.7471   14.2031   81.3914 C   0  0  0  0  0  0  0  0  0  0  0  0
   51.7731   20.5667   84.1660 F   0  0  0  0  0  0  0  0  0  0  0  0
   53.0627   15.0801   82.3100 N   0  0  0  0  0  0  0  0  0  0  0  0
   51.4033   15.6826   84.6972 F   0  0  0  0  0  0  0  0  0  0  0  0
   53.6292   10.6336   76.0116 C   0  0  0  0  0  0  0  0  0  0  0  0
   53.4408   16.5290   82.7270 C   0  0  0  0  0  0  0  0  0  0  0  0
   54.0979   19.8390   84.6132 C   0  0  0  0  0  0  0  0  0  0  0  0
   52.0418   10.7918   81.1546 C   0  0  0  0  0  0  0  0  0  0  0  0
   54.1900   11.5381   78.8906 C   0  0  0  0  0  0  0  0  0  0  0  0
   58.2482   10.6520   77.5829 O   0  0  0  0  0  0  0  0  0  0  0  0
   55.9539   14.2487   82.3663 O   0  0  0  0  0  0  0  0  0  0  0  0
   51.5518   17.9728   83.8482 C   0  0  0  0  0  0  0  0  0  0  0  0
   48.9658    8.7332   81.7101 O   0  0  0  0  0  0  0  0  0  0  0  0
   54.9674   10.5616   76.0889 C   0  0  0  0  0  0  0  0  0  0  0  0
  1 17  1  0
  1 39  1  0
  2  3  2  3
  2 12  1  0
  2 27  1  0
  3 34  1  0
  4  7  1  0
  4 39  1  0
  5 12  1  0
  5 15  1  0
  5 23  1  0
  6 30  1  0
  6 38  1  0
  7 16  1  0
  8 38  1  0
  9 32  2  0
 10 13  1  0
 10 33  1  0
 11 15  1  0
 11 26  2  0
 11 35  1  0
 12 35  1  0
 13 32  1  0
 13 38  1  0
 14 22  2  0
 14 26  1  0
 14 36  1  0
 16 17  1  0
 17 24  1  0
 17 34  1  0
 18 20  1  0
 18 31  1  0
 19 21  1  0
 19 25  1  0
 19 28  1  0
 19 33  1  0
 20 35  2  0
 23 27  1  0
 23 37  1  0
 26 40  1  0
 27 29  1  0
 29 32  1  0
 31 40  2  0
M  END
>  <ID>  (1) 
conformer_0

$$$$
