
     RDKit          3D

 29 30  0  0  0  0  0  0  0  0999 V2000
   56.1949   13.3075   82.5067 O   0  0  0  0  0  0  0  0  0  0  0  0
   52.6086   11.2773   80.9768 N   0  0  0  0  0  0  0  0  0  0  0  0
   55.5373   12.6400   81.5318 C   0  0  0  0  0  0  0  0  0  0  0  0
   54.1668   12.0258   79.2529 C   0  0  0  0  0  0  0  0  0  0  0  0
   51.7273   20.0123   83.5216 F   0  0  0  0  0  0  0  0  0  0  0  0
   50.8556    9.7151   81.3929 C   0  0  0  0  0  0  0  0  0  0  0  0
   56.0107   11.4589   80.8638 C   0  0  0  0  0  0  0  0  0  0  0  0
   49.6097    9.2868   80.7899 C   0  0  0  0  0  0  0  0  0  0  0  0
   48.4290   10.4068   82.5078 C   0  0  0  0  0  0  0  0  0  0  0  0
   54.8749   15.0375   80.5578 O   0  0  0  0  0  0  0  0  0  0  0  0
   53.8443   15.4275   82.6579 C   0  0  0  0  0  0  0  0  0  0  0  0
   51.2975   11.1055   81.3753 C   0  0  0  0  0  0  0  0  0  0  0  0
   52.3016   19.1729   84.4207 C   0  0  0  0  0  0  0  0  0  0  0  0
   51.7176   14.5203   83.0619 C   0  0  0  0  0  0  0  0  0  0  0  0
   54.1505   13.0525   81.4702 O   0  0  0  0  0  0  0  0  0  0  0  0
   53.9760   14.4968   81.4618 C   0  0  0  0  0  0  0  0  0  0  0  0
   54.5282   16.7596   82.4590 C   0  0  0  0  0  0  0  0  0  0  0  0
   52.5754   15.5870   83.2406 N   0  0  0  0  0  0  0  0  0  0  0  0
   52.1017   16.7099   83.9636 C   0  0  0  0  0  0  0  0  0  0  0  0
   53.3708   12.3624   80.4735 C   0  0  0  0  0  0  0  0  0  0  0  0
   48.6638    9.0469   81.9569 C   0  0  0  0  0  0  0  0  0  0  0  0
   56.0987   10.5984   78.6319 O   0  0  0  0  0  0  0  0  0  0  0  0
   53.9485   19.1503   82.2265 F   0  0  0  0  0  0  0  0  0  0  0  0
   52.8325   17.9123   83.9284 C   0  0  0  0  0  0  0  0  0  0  0  0
   53.8515   17.9638   82.9267 C   0  0  0  0  0  0  0  0  0  0  0  0
   51.5316    8.7824   82.3095 C   0  0  0  0  0  0  0  0  0  0  0  0
   49.4527   11.2796   82.9954 C   0  0  0  0  0  0  0  0  0  0  0  0
   50.6110   11.9166   82.3788 C   0  0  0  0  0  0  0  0  0  0  0  0
   55.3243   11.1648   79.5957 C   0  0  0  0  0  0  0  0  0  0  0  0
  1  3  1  0
  2 12  1  0
  2 20  1  0
  3  7  1  0
  4 20  1  0
  4 29  1  0
  5 13  1  0
  6  8  1  0
  6 12  1  0
  6 26  1  0
  7 29  1  0
  8 21  1  0
  9 21  1  0
  9 27  1  0
 10 16  2  0
 11 16  1  0
 11 17  1  0
 11 18  1  0
 12 28  1  0
 13 24  1  0
 14 18  1  0
 15 16  1  0
 15 20  1  0
 17 25  1  0
 18 19  1  0
 19 24  2  0
 22 29  1  0
 23 25  1  0
 24 25  1  0
 27 28  1  0
M  END
>  <ID>  (1) 
conformer_0

$$$$
