
     RDKit          3D

 19 19  0  0  0  0  0  0  0  0999 V2000
   52.8360   14.7591   82.9305 C   0  0  0  0  0  0  0  0  0  0  0  0
   53.9993   18.2981   82.8997 C   0  0  0  0  0  0  0  0  0  0  0  0
   49.0643   10.9139   82.7819 C   0  0  0  0  0  0  0  0  0  0  0  0
   51.9237   16.5992   84.2251 O   0  0  0  0  0  0  0  0  0  0  0  0
   52.5433   16.2125   83.1293 C   0  0  0  0  0  0  0  0  0  0  0  0
   50.0189    9.4717   81.1441 C   0  0  0  0  0  0  0  0  0  0  0  0
   49.0045    9.7670   82.0353 C   0  0  0  0  0  0  0  0  0  0  0  0
   56.3610   13.8706   81.8760 O   0  0  0  0  0  0  0  0  0  0  0  0
   55.0614   13.5278   82.0180 C   0  0  0  0  0  0  0  0  0  0  0  0
   53.7149   16.9085   82.5492 C   0  0  0  0  0  0  0  0  0  0  0  0
   54.0439   14.5569   82.0822 O   0  0  0  0  0  0  0  0  0  0  0  0
   54.6474   12.1230   81.7241 C   0  0  0  0  0  0  0  0  0  0  0  0
   51.1178   11.5416   81.7413 C   0  0  0  0  0  0  0  0  0  0  0  0
   51.0618   10.3575   81.0121 C   0  0  0  0  0  0  0  0  0  0  0  0
   50.0938   11.8097   82.6675 C   0  0  0  0  0  0  0  0  0  0  0  0
   54.6714   15.9510   82.0605 N   0  0  0  0  0  0  0  0  0  0  0  0
   53.4056   12.2172   80.8027 C   0  0  0  0  0  0  0  0  0  0  0  0
   52.8143   18.9412   83.4761 O   0  0  0  0  0  0  0  0  0  0  0  0
   52.2028   12.5385   81.5923 C   0  0  0  0  0  0  0  0  0  0  0  0
  1  5  1  0
  1 11  1  0
  2 10  1  0
  2 18  1  0
  3  7  2  0
  3 15  1  0
  4  5  1  0
  5 10  1  0
  6  7  1  0
  6 14  2  0
  8  9  2  0
  9 11  1  0
  9 12  1  0
 10 16  1  0
 12 17  1  0
 13 14  1  0
 13 15  2  0
 13 19  1  0
 17 19  1  0
M  END
>  <ID>  (1) 
conformer_0

$$$$
