
     RDKit          3D

 31 32  0  0  0  0  0  0  0  0999 V2000
   54.2863   18.2578   83.1703 C   0  0  0  0  0  0  0  0  0  0  0  0
   51.6445   13.6909   82.9141 O   0  0  0  0  0  0  0  0  0  0  0  0
   54.2033   11.5760   79.3578 C   0  0  0  0  0  0  0  0  0  0  0  0
   51.5457   10.0240   82.8266 C   0  0  0  0  0  0  0  0  0  0  0  0
   49.4036    8.9154   82.3500 C   0  0  0  0  0  0  0  0  0  0  0  0
   56.6595   13.1013   81.4483 O   0  0  0  0  0  0  0  0  0  0  0  0
   53.8138   15.8981   82.4694 C   0  0  0  0  0  0  0  0  0  0  0  0
   50.3390   15.2441   82.2016 O   0  0  0  0  0  0  0  0  0  0  0  0
   54.5285   17.0960   82.5562 C   0  0  0  0  0  0  0  0  0  0  0  0
   51.8819   16.7957   83.7653 C   0  0  0  0  0  0  0  0  0  0  0  0
   48.5315    8.1265   82.8628 O   0  0  0  0  0  0  0  0  0  0  0  0
   53.3587   19.9626   84.4145 F   0  0  0  0  0  0  0  0  0  0  0  0
   49.8615   10.1941   80.3064 C   0  0  0  0  0  0  0  0  0  0  0  0
   51.5100   14.8624   82.5685 C   0  0  0  0  0  0  0  0  0  0  0  0
   51.8241   10.7014   81.6742 C   0  0  0  0  0  0  0  0  0  0  0  0
   49.1698    9.3476   81.0287 C   0  0  0  0  0  0  0  0  0  0  0  0
   50.5353    9.2502   83.1018 C   0  0  0  0  0  0  0  0  0  0  0  0
   56.6277   11.1861   79.2097 C   0  0  0  0  0  0  0  0  0  0  0  0
   53.2932   18.7208   84.0138 C   0  0  0  0  0  0  0  0  0  0  0  0
   53.0211   11.5399   81.6035 N   0  0  0  0  0  0  0  0  0  0  0  0
   56.3131    9.9561   79.2417 O   0  0  0  0  0  0  0  0  0  0  0  0
   52.1638   17.9472   84.3494 C   0  0  0  0  0  0  0  0  0  0  0  0
   57.9992   11.5866   78.9554 C   0  0  0  0  0  0  0  0  0  0  0  0
   55.5918   13.0669   80.7383 C   0  0  0  0  0  0  0  0  0  0  0  0
   54.5066   14.6465   82.2110 C   0  0  0  0  0  0  0  0  0  0  0  0
   54.8540   14.0502   83.2949 O   0  0  0  0  0  0  0  0  0  0  0  0
   51.0350   10.7254   80.5492 C   0  0  0  0  0  0  0  0  0  0  0  0
   52.4693   15.9034   82.9444 C   0  0  0  0  0  0  0  0  0  0  0  0
   54.5858   13.9843   81.0209 N   0  0  0  0  0  0  0  0  0  0  0  0
   55.5878   12.2309   79.5109 C   0  0  0  0  0  0  0  0  0  0  0  0
   53.2239   12.1093   80.2978 C   0  0  0  0  0  0  0  0  0  0  0  0
  1  9  1  0
  1 19  2  0
  2 14  2  0
  3 30  1  0
  3 31  1  0
  4 15  1  0
  4 17  2  0
  5 11  2  0
  5 16  1  0
  5 17  1  0
  6 24  2  0
  7  9  1  0
  7 25  1  0
  7 28  1  0
  8 14  1  0
 10 22  2  0
 10 28  1  0
 12 19  1  0
 13 16  2  0
 13 27  1  0
 14 28  1  0
 15 20  1  0
 15 27  2  0
 18 21  2  0
 18 23  1  0
 18 30  1  0
 19 22  1  0
 20 31  1  0
 24 29  1  0
 24 30  1  0
 25 26  2  0
 25 29  1  0
M  END
>  <ID>  (1) 
conformer_0

$$$$
