
     RDKit          3D

 32 37  0  0  0  0  0  0  0  0999 V2000
   53.2179   14.3027   82.0311 N   0  0  0  0  0  0  0  0  0  0  0  0
   52.8927   18.8934   83.9727 C   0  0  0  0  0  0  0  0  0  0  0  0
   52.0775   15.4405   83.7484 N   0  0  0  0  0  0  0  0  0  0  0  0
   48.9829    9.3132   82.2669 C   0  0  0  0  0  0  0  0  0  0  0  0
   50.6222   10.0977   80.7626 C   0  0  0  0  0  0  0  0  0  0  0  0
   49.6131    9.2266   81.0141 C   0  0  0  0  0  0  0  0  0  0  0  0
   52.4026   11.2213   79.7430 C   0  0  0  0  0  0  0  0  0  0  0  0
   56.9890   10.1932   78.5016 C   0  0  0  0  0  0  0  0  0  0  0  0
   49.3420   10.2982   83.1553 C   0  0  0  0  0  0  0  0  0  0  0  0
   55.6500   13.4765   82.0062 C   0  0  0  0  0  0  0  0  0  0  0  0
   52.1222   14.4755   82.8284 C   0  0  0  0  0  0  0  0  0  0  0  0
   54.7760   13.0663   80.8130 C   0  0  0  0  0  0  0  0  0  0  0  0
   52.4368   19.9952   84.5269 F   0  0  0  0  0  0  0  0  0  0  0  0
   52.2363   11.8307   81.1029 C   0  0  0  0  0  0  0  0  0  0  0  0
   56.0412   10.7637   80.6254 C   0  0  0  0  0  0  0  0  0  0  0  0
   54.1896   15.3988   81.9111 C   0  0  0  0  0  0  0  0  0  0  0  0
   55.6492   14.9957   81.9615 C   0  0  0  0  0  0  0  0  0  0  0  0
   56.4126   11.3117   77.9696 C   0  0  0  0  0  0  0  0  0  0  0  0
   52.2926   17.6868   84.2709 C   0  0  0  0  0  0  0  0  0  0  0  0
   53.9423   18.9805   83.0721 C   0  0  0  0  0  0  0  0  0  0  0  0
   53.8063   16.5807   82.6190 C   0  0  0  0  0  0  0  0  0  0  0  0
   53.3523   12.9839   81.3605 C   0  0  0  0  0  0  0  0  0  0  0  0
   52.7577   16.5737   83.5478 C   0  0  0  0  0  0  0  0  0  0  0  0
   51.0302   11.0390   81.6269 C   0  0  0  0  0  0  0  0  0  0  0  0
   56.7535    9.8831   79.8427 C   0  0  0  0  0  0  0  0  0  0  0  0
   51.0808   13.8802   82.7153 O   0  0  0  0  0  0  0  0  0  0  0  0
   55.7203   12.1917   78.7264 C   0  0  0  0  0  0  0  0  0  0  0  0
   51.4295   10.1277   79.6050 O   0  0  0  0  0  0  0  0  0  0  0  0
   53.2796   11.7366   82.0763 O   0  0  0  0  0  0  0  0  0  0  0  0
   50.3703   11.1583   82.8434 C   0  0  0  0  0  0  0  0  0  0  0  0
   54.4088   17.8186   82.4009 C   0  0  0  0  0  0  0  0  0  0  0  0
   55.5043   11.9640   80.0747 C   0  0  0  0  0  0  0  0  0  0  0  0
  1 11  1  0
  1 16  1  0
  1 22  1  0
  2 13  1  0
  2 19  1  0
  2 20  2  0
  3 11  1  0
  3 23  1  0
  4  6  2  0
  4  9  1  0
  5  6  1  0
  5 24  2  0
  5 28  1  0
  7 14  1  0
  7 28  1  0
  8 18  2  0
  8 25  1  0
  9 30  2  0
 10 12  1  0
 10 17  1  0
 11 26  2  0
 12 22  1  0
 12 32  1  0
 14 24  1  0
 14 29  1  0
 15 25  2  0
 15 32  1  0
 16 17  1  0
 16 21  1  0
 18 27  1  0
 19 23  1  0
 20 31  1  0
 21 23  2  0
 21 31  1  0
 22 29  1  0
 24 30  1  0
 27 32  2  0
M  END
>  <ID>  (1) 
conformer_0

$$$$
