
     RDKit          3D

 16 17  0  0  0  0  0  0  0  0999 V2000
   53.0209   17.5802   83.4180 C   0  0  0  0  0  0  0  0  0  0  0  0
   53.4828   11.5867   81.3948 C   0  0  0  0  0  0  0  0  0  0  0  0
   51.5946   12.5507   81.8624 C   0  0  0  0  0  0  0  0  0  0  0  0
   54.8582   16.4752   82.2535 C   0  0  0  0  0  0  0  0  0  0  0  0
   52.9802   12.8256   81.7573 C   0  0  0  0  0  0  0  0  0  0  0  0
   56.1038   12.9961   80.8959 Cl  0  0  0  0  0  0  0  0  0  0  0  0
   49.9522   10.6155   81.3871 C   0  0  0  0  0  0  0  0  0  0  0  0
   52.5715   16.1533   83.0552 C   0  0  0  0  0  0  0  0  0  0  0  0
   53.7280   14.0888   81.9987 N   0  0  0  0  0  0  0  0  0  0  0  0
   52.4532   10.6344   81.3032 C   0  0  0  0  0  0  0  0  0  0  0  0
   49.8328    9.1823   81.6303 C   0  0  0  0  0  0  0  0  0  0  0  0
   55.2291   13.8724   82.0295 C   0  0  0  0  0  0  0  0  0  0  0  0
   53.7020   15.4631   82.4409 C   0  0  0  0  0  0  0  0  0  0  0  0
   54.2157   17.8810   82.5131 C   0  0  0  0  0  0  0  0  0  0  0  0
   51.2225   11.2249   81.5525 C   0  0  0  0  0  0  0  0  0  0  0  0
   51.7115   15.2677   83.5306 O   0  0  0  0  0  0  0  0  0  0  0  0
  1  8  1  0
  1 14  1  0
  2  5  1  0
  2 10  1  0
  3  5  2  0
  3 15  1  0
  4 13  1  0
  4 14  1  0
  5  9  1  0
  6 12  1  0
  7 11  1  0
  7 15  1  0
  8 13  1  0
  8 16  1  0
  9 12  1  0
  9 13  1  0
 10 15  1  0
M  END
>  <ID>  (1) 
conformer_0

$$$$
