
     RDKit          3D

 30 33  0  0  0  0  0  0  0  0999 V2000
   54.5250   15.3243   83.9228 F   0  0  0  0  0  0  0  0  0  0  0  0
   54.4496   17.1239   82.4812 C   0  0  0  0  0  0  0  0  0  0  0  0
   51.8211   13.2757   82.7225 C   0  0  0  0  0  0  0  0  0  0  0  0
   54.9690   11.0431   78.0884 C   0  0  0  0  0  0  0  0  0  0  0  0
   56.0887   14.2231   81.5725 C   0  0  0  0  0  0  0  0  0  0  0  0
   53.1240   11.4643   80.1426 C   0  0  0  0  0  0  0  0  0  0  0  0
   49.0456   11.0123   82.7039 C   0  0  0  0  0  0  0  0  0  0  0  0
   54.0855   15.6334   82.5159 C   0  0  0  0  0  0  0  0  0  0  0  0
   52.4436   13.2057   81.4508 C   0  0  0  0  0  0  0  0  0  0  0  0
   54.7084   17.8387   83.8186 C   0  0  0  0  0  0  0  0  0  0  0  0
   50.2421   11.3522   82.2480 C   0  0  0  0  0  0  0  0  0  0  0  0
   49.3533    8.8449   81.7970 C   0  0  0  0  0  0  0  0  0  0  0  0
   52.3658   10.7265   81.0320 O   0  0  0  0  0  0  0  0  0  0  0  0
   54.3127   12.3486   80.5541 C   0  0  0  0  0  0  0  0  0  0  0  0
   54.0991   17.8722   81.5262 O   0  0  0  0  0  0  0  0  0  0  0  0
   56.5540   13.1438   80.7787 C   0  0  0  0  0  0  0  0  0  0  0  0
   57.1704   10.3940   79.1754 C   0  0  0  0  0  0  0  0  0  0  0  0
   52.5919   15.5109   82.3081 C   0  0  0  0  0  0  0  0  0  0  0  0
   48.5766    9.7343   82.4941 C   0  0  0  0  0  0  0  0  0  0  0  0
   51.8973   16.7897   82.8005 C   0  0  0  0  0  0  0  0  0  0  0  0
   52.7397   19.3298   83.6717 O   0  0  0  0  0  0  0  0  0  0  0  0
   50.6039    9.1931   81.3327 C   0  0  0  0  0  0  0  0  0  0  0  0
   53.8543   13.4179   81.3512 C   0  0  0  0  0  0  0  0  0  0  0  0
   56.0330   11.2676   79.1862 C   0  0  0  0  0  0  0  0  0  0  0  0
   52.3311   17.1238   84.2365 C   0  0  0  0  0  0  0  0  0  0  0  0
   51.8364   14.5526   83.1876 O   0  0  0  0  0  0  0  0  0  0  0  0
   53.2816   18.3042   84.3539 C   0  0  0  0  0  0  0  0  0  0  0  0
   51.0554   10.4443   81.5411 C   0  0  0  0  0  0  0  0  0  0  0  0
   55.6472   12.2313   80.2029 C   0  0  0  0  0  0  0  0  0  0  0  0
   54.7291   14.4178   81.7824 C   0  0  0  0  0  0  0  0  0  0  0  0
  1  8  1  0
  2  8  1  0
  2 10  1  0
  2 15  2  0
  3  9  1  0
  3 26  1  0
  4 24  1  0
  5 16  1  0
  5 30  2  0
  6 13  1  0
  6 14  1  0
  7 11  2  0
  7 19  1  0
  8 18  1  0
  8 30  1  0
  9 23  1  0
 10 27  1  0
 11 28  1  0
 12 19  2  0
 12 22  1  0
 13 28  1  0
 14 23  2  0
 14 29  1  0
 16 29  2  0
 17 24  1  0
 18 20  1  0
 18 26  1  0
 20 25  1  0
 21 27  1  0
 22 28  2  0
 23 30  1  0
 24 29  1  0
 25 27  1  0
M  END
>  <ID>  (1) 
conformer_0

$$$$
