
     RDKit          3D

 32 35  0  0  0  0  0  0  0  0999 V2000
   56.6899   10.4885   77.9728 N   0  0  0  0  0  0  0  0  0  0  0  0
   49.1905    9.6260   82.0832 C   0  0  0  0  0  0  0  0  0  0  0  0
   53.4754   13.3750   81.6710 C   0  0  0  0  0  0  0  0  0  0  0  0
   54.9325   11.6046   82.4200 O   0  0  0  0  0  0  0  0  0  0  0  0
   56.0066   13.7091   82.0109 C   0  0  0  0  0  0  0  0  0  0  0  0
   49.2678   10.9098   82.7028 C   0  0  0  0  0  0  0  0  0  0  0  0
   56.5343   10.8063   79.2078 C   0  0  0  0  0  0  0  0  0  0  0  0
   52.4964   12.2557   81.2196 C   0  0  0  0  0  0  0  0  0  0  0  0
   52.2276   17.8211   83.8435 C   0  0  0  0  0  0  0  0  0  0  0  0
   54.8949   12.7648   81.6206 C   0  0  0  0  0  0  0  0  0  0  0  0
   52.9016   15.7688   82.6671 C   0  0  0  0  0  0  0  0  0  0  0  0
   53.9215   19.2910   84.5004 F   0  0  0  0  0  0  0  0  0  0  0  0
   51.1537   10.1651   80.8598 C   0  0  0  0  0  0  0  0  0  0  0  0
   56.1743   12.7627   80.7824 C   0  0  0  0  0  0  0  0  0  0  0  0
   55.7815   12.0972   79.4370 C   0  0  0  0  0  0  0  0  0  0  0  0
   54.1224   13.9334   80.6699 O   0  0  0  0  0  0  0  0  0  0  0  0
   53.5469   18.2634   83.7508 C   0  0  0  0  0  0  0  0  0  0  0  0
   50.4770   12.9208   83.0298 O   0  0  0  0  0  0  0  0  0  0  0  0
   51.3033   11.3542   81.4797 C   0  0  0  0  0  0  0  0  0  0  0  0
   53.2332   11.7000   80.0811 O   0  0  0  0  0  0  0  0  0  0  0  0
   56.7272   10.0856   80.1845 O   0  0  0  0  0  0  0  0  0  0  0  0
   51.3768   18.7168   84.2564 F   0  0  0  0  0  0  0  0  0  0  0  0
   54.3218   11.9202   79.1485 C   0  0  0  0  0  0  0  0  0  0  0  0
   54.1063   16.4255   82.3625 C   0  0  0  0  0  0  0  0  0  0  0  0
   50.3322   11.7089   82.4032 C   0  0  0  0  0  0  0  0  0  0  0  0
   52.6125   14.3531   82.3885 C   0  0  0  0  0  0  0  0  0  0  0  0
   51.9651   16.5566   83.3460 C   0  0  0  0  0  0  0  0  0  0  0  0
   50.1224    9.2941   81.1212 C   0  0  0  0  0  0  0  0  0  0  0  0
   54.4383   17.6516   82.9179 C   0  0  0  0  0  0  0  0  0  0  0  0
   55.7624   14.2085   83.3867 F   0  0  0  0  0  0  0  0  0  0  0  0
   51.4291   13.9130   82.9215 N   0  0  0  0  0  0  0  0  0  0  0  0
   48.2693    8.7667   82.4735 O   0  0  0  0  0  0  0  0  0  0  0  0
  1  7  1  0
  2  6  2  0
  2 28  1  0
  2 32  1  0
  3  8  1  0
  3 10  1  0
  3 16  1  0
  3 26  1  0
  4 10  1  0
  5 10  1  0
  5 30  1  0
  6 25  1  0
  7 15  1  0
  7 21  2  0
  8 19  1  0
  8 20  1  0
  9 17  2  0
  9 22  1  0
  9 27  1  0
 10 14  1  0
 11 24  1  0
 11 26  1  0
 11 27  2  0
 12 17  1  0
 13 19  1  0
 13 28  2  0
 14 15  1  0
 15 23  1  0
 17 29  1  0
 18 25  1  0
 18 31  1  0
 19 25  2  0
 20 23  1  0
 24 29  2  0
 26 31  2  0
M  END
>  <ID>  (1) 
conformer_0

$$$$
