
     RDKit          3D

 39 44  0  0  0  0  0  0  0  0999 V2000
   54.3208   19.2507   83.6118 C   0  0  0  0  0  0  0  0  0  0  0  0
   53.8427   11.8919   78.9062 O   0  0  0  0  0  0  0  0  0  0  0  0
   52.3998   18.5899   84.9631 C   0  0  0  0  0  0  0  0  0  0  0  0
   57.5841    9.3083   76.7486 O   0  0  0  0  0  0  0  0  0  0  0  0
   49.4495    8.6834   81.5206 C   0  0  0  0  0  0  0  0  0  0  0  0
   56.5145    9.9816   79.9565 O   0  0  0  0  0  0  0  0  0  0  0  0
   57.5928   11.1310   78.2424 C   0  0  0  0  0  0  0  0  0  0  0  0
   51.0589   11.8758   82.1521 C   0  0  0  0  0  0  0  0  0  0  0  0
   54.2207   14.4734   81.7859 C   0  0  0  0  0  0  0  0  0  0  0  0
   52.2555   15.0242   82.9399 C   0  0  0  0  0  0  0  0  0  0  0  0
   54.4459   18.0515   82.8691 C   0  0  0  0  0  0  0  0  0  0  0  0
   51.9074   11.8702   81.0728 C   0  0  0  0  0  0  0  0  0  0  0  0
   52.8936   13.9289   81.9753 C   0  0  0  0  0  0  0  0  0  0  0  0
   55.3911   13.7226   81.4406 C   0  0  0  0  0  0  0  0  0  0  0  0
   57.9978    9.6627   78.0831 C   0  0  0  0  0  0  0  0  0  0  0  0
   52.7532   16.4559   83.3134 C   0  0  0  0  0  0  0  0  0  0  0  0
   50.1693    9.8043   81.2985 C   0  0  0  0  0  0  0  0  0  0  0  0
   49.3265   10.6862   83.2918 N   0  0  0  0  0  0  0  0  0  0  0  0
   53.9586   12.5297   80.0282 C   0  0  0  0  0  0  0  0  0  0  0  0
   50.9386    9.8953   80.1634 C   0  0  0  0  0  0  0  0  0  0  0  0
   48.6329    9.5285   83.5175 C   0  0  0  0  0  0  0  0  0  0  0  0
   53.8678   16.7819   82.5737 C   0  0  0  0  0  0  0  0  0  0  0  0
   57.4620    8.9946   79.3224 C   0  0  0  0  0  0  0  0  0  0  0  0
   54.4236   20.0197   86.8335 F   0  0  0  0  0  0  0  0  0  0  0  0
   54.7294   21.5534   85.1308 F   0  0  0  0  0  0  0  0  0  0  0  0
   51.8003   10.9368   80.0872 C   0  0  0  0  0  0  0  0  0  0  0  0
   48.7284    8.4793   82.6445 C   0  0  0  0  0  0  0  0  0  0  0  0
   53.4816   19.6951   84.7831 C   0  0  0  0  0  0  0  0  0  0  0  0
   52.8128   21.3832   86.2572 F   0  0  0  0  0  0  0  0  0  0  0  0
   49.0586   11.7691   84.1158 C   0  0  0  0  0  0  0  0  0  0  0  0
   56.4228   12.4518   79.7606 C   0  0  0  0  0  0  0  0  0  0  0  0
   56.4920   13.9699   82.0123 O   0  0  0  0  0  0  0  0  0  0  0  0
   56.3337   11.1106   79.1063 C   0  0  0  0  0  0  0  0  0  0  0  0
   52.2326   17.4091   84.2727 C   0  0  0  0  0  0  0  0  0  0  0  0
   52.9489   12.7968   80.9610 N   0  0  0  0  0  0  0  0  0  0  0  0
   54.3694   15.8481   81.6401 N   0  0  0  0  0  0  0  0  0  0  0  0
   53.8637   20.6890   85.7746 C   0  0  0  0  0  0  0  0  0  0  0  0
   50.1822   10.8235   82.2488 C   0  0  0  0  0  0  0  0  0  0  0  0
   55.2016   13.0765   80.2728 N   0  0  0  0  0  0  0  0  0  0  0  0
  1 11  2  0
  1 28  1  0
  2 19  2  0
  3 28  1  0
  3 34  2  0
  4 15  1  0
  5 17  2  0
  5 27  1  0
  6 23  1  0
  6 33  1  0
  7 15  1  0
  7 33  1  0
  8 12  1  0
  8 38  2  0
  9 13  1  0
  9 14  1  0
  9 36  1  0
 10 13  1  0
 10 16  1  0
 11 22  1  0
 12 26  1  0
 12 35  1  0
 13 35  1  0
 14 32  2  0
 14 39  1  0
 15 23  1  0
 16 22  2  0
 16 34  1  0
 17 20  1  0
 17 38  1  0
 18 21  1  0
 18 30  1  0
 18 38  1  0
 19 35  1  0
 19 39  1  0
 20 26  2  0
 21 27  2  0
 22 36  1  0
 24 37  1  0
 25 37  1  0
 28 37  1  0
 29 37  1  0
 31 33  1  0
 31 39  1  0
M  END
>  <ID>  (1) 
conformer_0

$$$$
