
     RDKit          3D

 28 30  0  0  0  0  0  0  0  0999 V2000
   56.4129    9.7923   79.5344 C   0  0  0  0  0  0  0  0  0  0  0  0
   52.3738   13.2451   81.7747 C   0  0  0  0  0  0  0  0  0  0  0  0
   53.5299   13.9463   82.0975 N   0  0  0  0  0  0  0  0  0  0  0  0
   49.4482   10.2515   83.0693 C   0  0  0  0  0  0  0  0  0  0  0  0
   49.6907    9.1169   80.8811 C   0  0  0  0  0  0  0  0  0  0  0  0
   56.1495   11.2992   79.5046 C   0  0  0  0  0  0  0  0  0  0  0  0
   54.2240   17.6318   82.7775 C   0  0  0  0  0  0  0  0  0  0  0  0
   51.7758    9.8714   82.1955 C   0  0  0  0  0  0  0  0  0  0  0  0
   53.4791   15.3044   82.5266 C   0  0  0  0  0  0  0  0  0  0  0  0
   55.8180   13.7317   82.7007 O   0  0  0  0  0  0  0  0  0  0  0  0
   49.3854   11.7081   82.7877 C   0  0  0  0  0  0  0  0  0  0  0  0
   56.0794   11.6675   80.8910 N   0  0  0  0  0  0  0  0  0  0  0  0
   50.2088   10.5015   80.4867 C   0  0  0  0  0  0  0  0  0  0  0  0
   54.4837   16.2899   82.3206 C   0  0  0  0  0  0  0  0  0  0  0  0
   52.7935   19.1630   84.0238 F   0  0  0  0  0  0  0  0  0  0  0  0
   52.1446   16.9280   83.6905 C   0  0  0  0  0  0  0  0  0  0  0  0
   53.6900   11.4429   81.1024 C   0  0  0  0  0  0  0  0  0  0  0  0
   51.3403   10.9729   81.2347 C   0  0  0  0  0  0  0  0  0  0  0  0
   50.8415    9.7147   83.2912 C   0  0  0  0  0  0  0  0  0  0  0  0
   52.3383   15.6661   83.2133 C   0  0  0  0  0  0  0  0  0  0  0  0
   48.7493    9.3267   82.0365 C   0  0  0  0  0  0  0  0  0  0  0  0
   52.4796   11.9431   81.3452 C   0  0  0  0  0  0  0  0  0  0  0  0
   53.0636   17.8988   83.4797 C   0  0  0  0  0  0  0  0  0  0  0  0
   54.9531   11.7140   78.6263 C   0  0  0  0  0  0  0  0  0  0  0  0
   54.7652   13.2984   82.0603 C   0  0  0  0  0  0  0  0  0  0  0  0
   48.7121   10.0456   84.3693 C   0  0  0  0  0  0  0  0  0  0  0  0
   57.3489   12.1700   78.9543 C   0  0  0  0  0  0  0  0  0  0  0  0
   54.8397   12.0739   81.3471 C   0  0  0  0  0  0  0  0  0  0  0  0
  1  6  1  0
  2  3  1  0
  2 22  1  0
  3  9  1  0
  3 25  1  0
  4 11  1  0
  4 19  1  0
  4 21  1  0
  4 26  1  0
  5 13  1  0
  5 21  1  0
  6 12  1  0
  6 24  1  0
  6 27  1  0
  7 14  2  0
  7 23  1  0
  8 18  1  0
  8 19  1  0
  9 14  1  0
  9 20  2  0
 10 25  2  0
 12 28  1  0
 13 18  2  0
 15 23  1  0
 16 20  1  0
 16 23  2  0
 17 22  2  0
 17 28  1  0
 18 22  1  0
 25 28  1  0
M  END
>  <ID>  (1) 
conformer_0

$$$$
