
     RDKit          3D

 26 29  0  0  0  0  0  0  0  0999 V2000
   53.9989   11.2931   80.4430 C   0  0  0  0  0  0  0  0  0  0  0  0
   51.2620   12.2417   82.2440 C   0  0  0  0  0  0  0  0  0  0  0  0
   52.3974   12.9041   81.7126 C   0  0  0  0  0  0  0  0  0  0  0  0
   49.1048   11.4485   83.6670 C   0  0  0  0  0  0  0  0  0  0  0  0
   53.7120   12.4590   81.3178 C   0  0  0  0  0  0  0  0  0  0  0  0
   53.6880   15.2833   81.9325 C   0  0  0  0  0  0  0  0  0  0  0  0
   52.4029   18.9348   84.6392 C   0  0  0  0  0  0  0  0  0  0  0  0
   54.9527   13.0384   81.7946 C   0  0  0  0  0  0  0  0  0  0  0  0
   48.7744    9.5119   82.3326 C   0  0  0  0  0  0  0  0  0  0  0  0
   54.3329   18.7851   82.9873 C   0  0  0  0  0  0  0  0  0  0  0  0
   50.9938   10.2883   80.7326 C   0  0  0  0  0  0  0  0  0  0  0  0
   54.7643   14.3176   82.5069 C   0  0  0  0  0  0  0  0  0  0  0  0
   52.8476   16.9018   83.3344 N   0  0  0  0  0  0  0  0  0  0  0  0
   54.3910   16.5558   81.7255 N   0  0  0  0  0  0  0  0  0  0  0  0
   52.0273   17.6258   84.1734 C   0  0  0  0  0  0  0  0  0  0  0  0
   54.0039   17.4138   82.7463 C   0  0  0  0  0  0  0  0  0  0  0  0
   53.4193   11.6088   79.0165 C   0  0  0  0  0  0  0  0  0  0  0  0
   51.4374   15.2203   82.9359 O   0  0  0  0  0  0  0  0  0  0  0  0
   55.9958   12.7512   80.7549 C   0  0  0  0  0  0  0  0  0  0  0  0
   50.2670    9.1353   80.4988 C   0  0  0  0  0  0  0  0  0  0  0  0
   53.6595   19.5064   84.0471 C   0  0  0  0  0  0  0  0  0  0  0  0
   49.4908   10.6646   82.5717 N   0  0  0  0  0  0  0  0  0  0  0  0
   52.5607   15.6779   82.7880 C   0  0  0  0  0  0  0  0  0  0  0  0
   49.4284    8.6345   81.5013 C   0  0  0  0  0  0  0  0  0  0  0  0
   55.5234   11.2914   80.3075 C   0  0  0  0  0  0  0  0  0  0  0  0
   50.5633   11.0856   81.7963 C   0  0  0  0  0  0  0  0  0  0  0  0
  1  5  1  0
  1 17  1  0
  1 25  1  0
  2  3  1  0
  2 26  1  0
  3  5  1  0
  4 22  1  0
  5  8  1  0
  6 12  1  0
  6 14  1  0
  6 23  1  0
  7 15  2  0
  7 21  1  0
  8 12  1  0
  8 19  1  0
  9 22  1  0
  9 24  1  0
 10 16  2  0
 10 21  1  0
 11 20  1  0
 11 26  2  0
 13 15  1  0
 13 16  1  0
 13 23  1  0
 14 16  1  0
 18 23  2  0
 19 25  1  0
 20 24  1  0
 22 26  1  0
M  END
>  <ID>  (1) 
conformer_0

$$$$
