
     RDKit          3D

 31 32  0  0  0  0  0  0  0  0999 V2000
   54.3514   11.8221   80.2096 C   0  0  0  0  0  0  0  0  0  0  0  0
   51.9919   13.2525   82.1314 C   0  0  0  0  0  0  0  0  0  0  0  0
   49.0511    9.3988   82.1284 C   0  0  0  0  0  0  0  0  0  0  0  0
   52.1117   12.1291   81.4227 C   0  0  0  0  0  0  0  0  0  0  0  0
   57.3538   11.9360   78.8281 C   0  0  0  0  0  0  0  0  0  0  0  0
   56.2650   10.8659   78.8530 C   0  0  0  0  0  0  0  0  0  0  0  0
   49.8853    9.2390   81.0785 C   0  0  0  0  0  0  0  0  0  0  0  0
   54.9221   15.0844   82.7196 C   0  0  0  0  0  0  0  0  0  0  0  0
   50.8509   10.1316   80.8572 C   0  0  0  0  0  0  0  0  0  0  0  0
   48.1551    8.3937   82.4230 Cl  0  0  0  0  0  0  0  0  0  0  0  0
   51.6454   14.1136   82.7945 N   0  0  0  0  0  0  0  0  0  0  0  0
   53.0210   19.4383   83.9970 C   0  0  0  0  0  0  0  0  0  0  0  0
   56.0386   14.3180   82.2806 C   0  0  0  0  0  0  0  0  0  0  0  0
   53.5478   17.2126   82.9570 C   0  0  0  0  0  0  0  0  0  0  0  0
   53.0722   11.7656   80.5488 C   0  0  0  0  0  0  0  0  0  0  0  0
   50.0794   11.5010   82.6510 N   0  0  0  0  0  0  0  0  0  0  0  0
   54.9478   11.1864   79.0477 C   0  0  0  0  0  0  0  0  0  0  0  0
   54.6867   16.4287   82.4706 C   0  0  0  0  0  0  0  0  0  0  0  0
   49.1058   10.5625   82.9159 C   0  0  0  0  0  0  0  0  0  0  0  0
   50.9559   11.2200   81.6627 C   0  0  0  0  0  0  0  0  0  0  0  0
   55.3174   12.3525   81.1457 N   0  0  0  0  0  0  0  0  0  0  0  0
   55.6458   16.9900   81.8132 O   0  0  0  0  0  0  0  0  0  0  0  0
   55.5842   11.5729   82.2715 O   0  0  0  0  0  0  0  0  0  0  0  0
   53.7396   18.6164   82.9863 C   0  0  0  0  0  0  0  0  0  0  0  0
   55.9361   13.6069   80.9885 O   0  0  0  0  0  0  0  0  0  0  0  0
   52.0992   15.2708   83.0338 C   0  0  0  0  0  0  0  0  0  0  0  0
   53.5923   19.4780   85.1553 F   0  0  0  0  0  0  0  0  0  0  0  0
   51.8873   19.9806   83.6120 F   0  0  0  0  0  0  0  0  0  0  0  0
   52.4123   16.4826   83.2449 N   0  0  0  0  0  0  0  0  0  0  0  0
   56.8270    9.7453   78.0323 C   0  0  0  0  0  0  0  0  0  0  0  0
   54.1444   19.4350   81.9190 C   0  0  0  0  0  0  0  0  0  0  0  0
  1 15  2  0
  1 17  1  0
  1 21  1  0
  2  4  1  0
  2 11  1  0
  3  7  1  0
  3 10  1  0
  3 19  2  0
  4 15  1  0
  4 20  2  3
  5  6  1  0
  6 17  1  0
  6 30  1  0
  7  9  2  0
  8 13  1  0
  8 18  2  0
  9 20  1  0
 11 26  1  0
 12 24  1  0
 12 27  1  0
 12 28  1  0
 13 25  1  0
 14 18  1  0
 14 24  1  0
 14 29  2  0
 16 19  1  0
 16 20  1  0
 18 22  1  0
 21 23  1  0
 21 25  1  0
 24 31  1  0
 26 29  1  0
M  END
>  <ID>  (1) 
conformer_0

$$$$
