
     RDKit          3D

 17 17  0  0  0  0  0  0  0  0999 V2000
   54.1281   16.0509   82.5123 C   0  0  0  0  0  0  0  0  0  0  0  0
   50.7565   10.7974   81.5393 C   0  0  0  0  0  0  0  0  0  0  0  0
   52.0833   10.9057   80.8692 S   0  0  0  0  0  0  0  0  0  0  0  0
   51.3331   13.8920   83.0080 O   0  0  0  0  0  0  0  0  0  0  0  0
   52.6315   17.5648   83.5292 C   0  0  0  0  0  0  0  0  0  0  0  0
   53.7029   14.7544   82.2458 O   0  0  0  0  0  0  0  0  0  0  0  0
   53.1176   18.6839   83.8981 F   0  0  0  0  0  0  0  0  0  0  0  0
   49.8047    9.3322   81.2293 Cl  0  0  0  0  0  0  0  0  0  0  0  0
   55.8075   13.7101   81.8957 O   0  0  0  0  0  0  0  0  0  0  0  0
   55.3760   16.3672   82.4882 O   0  0  0  0  0  0  0  0  0  0  0  0
   53.1424   17.0243   82.3412 O   0  0  0  0  0  0  0  0  0  0  0  0
   54.4476   13.6677   81.8343 C   0  0  0  0  0  0  0  0  0  0  0  0
   50.4017   11.8316   82.3407 C   0  0  0  0  0  0  0  0  0  0  0  0
   52.5533   12.2812   81.5416 C   0  0  0  0  0  0  0  0  0  0  0  0
   51.9833   16.7847   84.2984 F   0  0  0  0  0  0  0  0  0  0  0  0
   51.5284   12.7876   82.2905 C   0  0  0  0  0  0  0  0  0  0  0  0
   53.8040   12.5759   81.3412 N   0  0  0  0  0  0  0  0  0  0  0  0
  1  6  1  0
  1 10  2  0
  1 11  1  0
  2  3  1  0
  2  8  1  0
  2 13  1  0
  3 14  1  0
  4 16  1  0
  5  7  1  0
  5 11  1  0
  5 15  1  0
  6 12  1  0
  9 12  2  0
 12 17  1  0
 13 16  1  0
 14 16  1  0
 14 17  2  3
M  END
>  <ID>  (1) 
conformer_0

$$$$
