
     RDKit          3D

 24 26  0  0  0  0  0  0  0  0999 V2000
   52.7853   15.8043   83.7221 C   0  0  0  0  0  0  0  0  0  0  0  0
   54.8411   12.7744   81.2171 C   0  0  0  0  0  0  0  0  0  0  0  0
   55.5218   14.0135   81.6947 C   0  0  0  0  0  0  0  0  0  0  0  0
   51.5655   11.7403   81.6574 C   0  0  0  0  0  0  0  0  0  0  0  0
   53.7756   18.7563   84.4169 O   0  0  0  0  0  0  0  0  0  0  0  0
   54.8710   11.3490   79.1422 C   0  0  0  0  0  0  0  0  0  0  0  0
   51.9183   13.9321   82.5749 N   0  0  0  0  0  0  0  0  0  0  0  0
   55.1067   16.3803   82.3496 C   0  0  0  0  0  0  0  0  0  0  0  0
   49.3023   11.7539   83.0962 F   0  0  0  0  0  0  0  0  0  0  0  0
   53.4071   18.1499   83.2436 C   0  0  0  0  0  0  0  0  0  0  0  0
   54.4021   17.6409   82.2646 C   0  0  0  0  0  0  0  0  0  0  0  0
   55.5367   11.9039   80.3284 C   0  0  0  0  0  0  0  0  0  0  0  0
   54.4586   15.0212   82.1135 C   0  0  0  0  0  0  0  0  0  0  0  0
   52.1311   12.8345   82.1191 C   0  0  0  0  0  0  0  0  0  0  0  0
   50.8034   10.5104   81.8471 C   0  0  0  0  0  0  0  0  0  0  0  0
   52.2493   17.1499   83.4514 C   0  0  0  0  0  0  0  0  0  0  0  0
   53.3646   12.6373   81.4476 C   0  0  0  0  0  0  0  0  0  0  0  0
   48.4776   10.0299   81.8578 F   0  0  0  0  0  0  0  0  0  0  0  0
   49.4194   10.7743   82.2536 C   0  0  0  0  0  0  0  0  0  0  0  0
   56.9851   12.2434   80.1210 C   0  0  0  0  0  0  0  0  0  0  0  0
   51.3308    9.7859   82.9045 F   0  0  0  0  0  0  0  0  0  0  0  0
   50.7476    9.6946   80.7823 F   0  0  0  0  0  0  0  0  0  0  0  0
   53.0321   14.8565   82.5737 C   0  0  0  0  0  0  0  0  0  0  0  0
   52.8364   11.3738   80.9952 S   0  0  0  0  0  0  0  0  0  0  0  0
  1 16  1  0
  1 23  1  0
  2  3  1  0
  2 12  1  0
  2 17  1  0
  3 13  1  0
  4 14  1  0
  4 15  1  0
  4 24  1  0
  5 10  1  0
  6 12  1  0
  7 14  2  0
  7 23  1  0
  8 11  1  0
  8 13  1  0
  9 19  1  0
 10 11  1  0
 10 16  1  0
 12 20  1  0
 13 23  1  0
 14 17  1  0
 15 19  1  0
 15 21  1  0
 15 22  1  0
 17 24  1  0
 18 19  1  0
M  END
>  <ID>  (1) 
conformer_0

$$$$
