
     RDKit          3D

 32 36  0  0  0  0  0  0  0  0999 V2000
   53.1200   19.3422   84.4989 C   0  0  0  0  0  0  0  0  0  0  0  0
   48.8263   10.2864   83.1282 C   0  0  0  0  0  0  0  0  0  0  0  0
   54.3135   12.5204   80.3805 C   0  0  0  0  0  0  0  0  0  0  0  0
   47.9431    9.5844   82.4127 F   0  0  0  0  0  0  0  0  0  0  0  0
   52.6632   17.1097   83.7157 C   0  0  0  0  0  0  0  0  0  0  0  0
   54.5814   16.1423   82.0824 C   0  0  0  0  0  0  0  0  0  0  0  0
   56.5299   11.4439   79.1786 C   0  0  0  0  0  0  0  0  0  0  0  0
   49.5345    9.4293   83.9039 F   0  0  0  0  0  0  0  0  0  0  0  0
   50.5353   10.3541   81.4233 C   0  0  0  0  0  3  0  0  0  0  0  0
   50.3339    9.0667   81.2209 F   0  0  0  0  0  0  0  0  0  0  0  0
   55.6110   12.8949   80.8144 C   0  0  0  0  0  0  0  0  0  0  0  0
   54.5086   14.6789   82.1678 C   0  0  0  0  0  0  0  0  0  0  0  0
   51.6717   11.0482   80.9342 S   0  0  0  0  0  3  0  0  0  0  0  0
   53.1762   12.9886   81.0991 C   0  0  0  0  0  0  0  0  0  0  0  0
   51.9963   14.1224   82.5769 O   0  0  0  0  0  0  0  0  0  0  0  0
   54.2535   19.4537   83.6334 C   0  0  0  0  0  0  0  0  0  0  0  0
   54.5910   18.4013   82.8606 C   0  0  0  0  0  0  0  0  0  0  0  0
   53.8977   17.1990   82.9144 C   0  0  0  0  0  0  0  0  0  0  0  0
   49.7770   11.0836   82.3053 C   0  0  0  0  0  0  0  0  0  0  0  0
   54.1706   11.7371   79.2654 C   0  0  0  0  0  0  0  0  0  0  0  0
   53.1702   14.1063   81.8041 N   0  0  0  0  0  0  0  0  0  0  0  0
   56.7259   12.3169   80.2295 C   0  0  0  0  0  0  0  0  0  0  0  0
   48.1703   11.0564   83.9906 F   0  0  0  0  0  0  0  0  0  0  0  0
   51.2871   12.9463   82.2619 P   0  0  0  0  0  4  0  0  0  0  0  0
   57.6157   10.8295   78.6468 O   0  0  0  0  0  0  0  0  0  0  0  0
   55.2459   11.2030   78.6584 C   0  0  0  0  0  0  0  0  0  0  0  0
   52.7640   20.2879   85.2365 O   0  0  0  0  0  0  0  0  0  0  0  0
   51.9757   12.2750   81.3648 C   0  0  0  0  0  3  0  0  0  0  0  0
   50.1330   12.2838   82.7809 C   0  0  0  0  0  0  0  0  0  0  0  0
   51.2737   18.1497   85.4123 F   0  0  0  0  0  0  0  0  0  0  0  0
   52.2548   18.1401   84.5936 C   0  0  0  0  0  0  0  0  0  0  0  0
   55.7284   13.9117   81.8919 C   0  0  0  0  0  0  0  0  0  0  0  0
  1 16  1  0
  1 27  2  0
  1 31  1  0
  2  4  1  0
  2  8  1  0
  2 19  1  0
  2 23  1  0
  3 11  2  0
  3 14  1  0
  3 20  1  0
  5 18  1  0
  5 31  2  0
  6 12  1  0
  6 18  1  0
  7 22  2  0
  7 25  1  0
  7 26  1  0
  9 10  1  0
  9 13  2  0
  9 19  1  0
 11 22  1  0
 11 32  1  0
 12 21  1  0
 12 32  1  0
 13 28  1  0
 14 21  1  0
 14 28  1  0
 15 21  1  0
 15 24  1  0
 16 17  2  0
 17 18  1  0
 19 29  2  0
 20 26  2  0
 24 28  2  0
 24 29  1  0
 30 31  1  0
M  END
>  <ID>  (1) 
conformer_0

$$$$
