
     RDKit          3D

 23 25  0  0  0  0  0  0  0  0999 V2000
   53.0734   11.7809   80.0926 C   0  0  0  0  0  0  0  0  0  0  0  0
   50.2486    9.5985   80.9927 C   0  0  0  0  0  0  0  0  0  0  0  0
   54.3117   13.2205   81.5450 C   0  0  0  0  0  0  0  0  0  0  0  0
   53.1067   12.5963   81.1963 C   0  0  0  0  0  0  0  0  0  0  0  0
   50.9936   11.7208   81.9484 C   0  0  0  0  0  0  0  0  0  0  0  0
   54.2640   16.8658   81.4849 O   0  0  0  0  0  0  0  0  0  0  0  0
   55.5010   12.6429   80.9921 C   0  0  0  0  0  0  0  0  0  0  0  0
   49.0973   10.5691   82.8368 C   0  0  0  0  0  0  0  0  0  0  0  0
   51.0544   10.6608   81.0379 C   0  0  0  0  0  0  0  0  0  0  0  0
   54.0922   18.0085   82.4058 C   0  0  0  0  0  0  0  0  0  0  0  0
   53.0510   14.7449   82.7779 C   0  0  0  0  0  0  0  0  0  0  0  0
   49.9754   11.6524   82.8672 C   0  0  0  0  0  0  0  0  0  0  0  0
   54.3199   14.3565   82.3627 C   0  0  0  0  0  0  0  0  0  0  0  0
   51.9316   15.7952   84.5155 O   0  0  0  0  0  0  0  0  0  0  0  0
   56.6144   10.9421   79.4341 C   0  0  0  0  0  0  0  0  0  0  0  0
   49.2359    9.5474   81.9289 C   0  0  0  0  0  0  0  0  0  0  0  0
   55.4109   11.7216   79.9708 C   0  0  0  0  0  0  0  0  0  0  0  0
   52.8644   16.0553   83.5596 C   0  0  0  0  0  0  0  0  0  0  0  0
   52.9021   18.5190   84.4440 C   0  0  0  0  0  0  0  0  0  0  0  0
   51.9687   13.9566   82.6183 N   0  0  0  0  0  0  0  0  0  0  0  0
   51.9594   12.7774   81.9687 N   0  0  0  0  0  0  0  0  0  0  0  0
   54.1745   11.3984   79.4329 C   0  0  0  0  0  0  0  0  0  0  0  0
   53.4207   17.3714   83.5507 C   0  0  0  0  0  0  0  0  0  0  0  0
  1  4  1  0
  1 22  2  0
  2  9  2  0
  2 16  1  0
  3  4  1  0
  3  7  1  0
  3 13  1  0
  4 21  1  0
  5  9  1  0
  5 12  2  0
  5 21  1  0
  6 10  1  0
  7 17  2  0
  8 12  1  0
  8 16  2  0
 10 23  1  0
 11 13  1  0
 11 18  1  0
 11 20  2  0
 14 18  1  0
 15 17  1  0
 17 22  1  0
 18 23  1  0
 19 23  1  0
 20 21  1  0
M  END
>  <ID>  (1) 
conformer_0

$$$$
