
     RDKit          3D

 18 19  0  0  0  0  0  0  0  0999 V2000
   52.8732   13.2806   81.9345 C   0  0  0  0  0  0  0  0  0  0  0  0
   52.4259   17.3827   83.5589 C   0  0  0  0  0  0  0  0  0  0  0  0
   52.6025   18.8102   83.8424 C   0  0  0  0  0  0  0  0  0  0  0  0
   55.1841   13.8194   81.5596 C   0  0  0  0  0  0  0  0  0  0  0  0
   50.7949   11.2682   81.8991 C   0  0  0  0  0  0  0  0  0  0  0  0
   52.1626   10.9860   82.0223 O   0  0  0  0  0  0  0  0  0  0  0  0
   53.6353   15.6779   82.1308 N   0  0  0  0  0  0  0  0  0  0  0  0
   49.8063    9.0642   81.8993 C   0  0  0  0  0  0  0  0  0  0  0  0
   54.4138   18.0996   82.3142 C   0  0  0  0  0  0  0  0  0  0  0  0
   54.8975   16.5622   82.1166 C   0  0  0  0  0  0  0  0  0  0  0  0
   50.2180   10.1631   80.9251 C   0  0  0  0  0  0  0  0  0  0  0  0
   52.1177   15.0796   83.8577 O   0  0  0  0  0  0  0  0  0  0  0  0
   53.8443   18.0503   83.7691 C   0  0  0  0  0  0  0  0  0  0  0  0
   54.4186   11.5149   81.3910 C   0  0  0  0  0  0  0  0  0  0  0  0
   52.6091   15.9581   83.0810 C   0  0  0  0  0  0  0  0  0  0  0  0
   53.8734   14.2730   81.8743 C   0  0  0  0  0  0  0  0  0  0  0  0
   55.4319   12.4612   81.3265 C   0  0  0  0  0  0  0  0  0  0  0  0
   53.1456   11.9123   81.7629 C   0  0  0  0  0  0  0  0  0  0  0  0
  1 16  2  0
  1 18  1  0
  2  3  1  0
  2 15  1  0
  3 13  1  0
  4 16  1  0
  4 17  2  0
  5  6  1  0
  5 11  1  0
  6 18  1  0
  7 10  1  0
  7 15  1  0
  7 16  1  0
  8 11  1  0
  9 10  1  0
  9 13  1  0
 12 15  2  0
 14 17  1  0
 14 18  2  0
M  END
>  <ID>  (1) 
conformer_0

$$$$
