
     RDKit          3D

 31 35  0  0  0  0  0  0  0  0999 V2000
   56.8392   14.4033   82.0790 O   0  0  0  0  0  0  0  0  0  0  0  0
   55.5716   10.9330   78.4455 C   0  0  0  0  0  0  0  0  0  0  0  0
   52.6338   14.6376   82.0365 C   0  0  0  0  0  0  0  0  0  0  0  0
   48.7667    9.7672   82.2698 C   0  0  0  0  0  0  0  0  0  0  0  0
   54.2915   11.3824   78.8135 C   0  0  0  0  0  0  0  0  0  0  0  0
   52.7328   19.6793   83.7234 F   0  0  0  0  0  0  0  0  0  0  0  0
   50.9194    9.5569   81.3996 C   0  0  0  0  0  0  0  0  0  0  0  0
   54.6855   13.2539   81.9962 C   0  0  0  0  0  0  0  0  0  0  0  0
   55.2103   12.3576   80.8275 C   0  0  0  0  0  0  0  0  0  0  0  0
   54.0571   16.5706   82.4212 C   0  0  0  0  0  0  0  0  0  0  0  0
   53.3396   18.4059   83.9603 C   0  0  0  0  0  0  0  0  0  0  0  0
   54.1890   18.8958   84.9546 F   0  0  0  0  0  0  0  0  0  0  0  0
   53.2491   13.5147   81.5517 C   0  0  0  0  0  0  0  0  0  0  0  0
   52.9313   15.8569   82.7634 C   0  0  0  0  0  0  0  0  0  0  0  0
   52.0890   16.3578   83.7482 C   0  0  0  0  0  0  0  0  0  0  0  0
   55.4055   14.5775   82.1137 C   0  0  0  0  0  0  0  0  0  0  0  0
   52.3344   11.3886   81.3050 O   0  0  0  0  0  0  0  0  0  0  0  0
   55.0313   15.8916   81.6590 O   0  0  0  0  0  0  0  0  0  0  0  0
   52.2461   17.5336   84.3507 C   0  0  0  0  0  0  0  0  0  0  0  0
   56.4764   11.8792   80.4719 C   0  0  0  0  0  0  0  0  0  0  0  0
   49.0371   11.0749   82.6661 C   0  0  0  0  0  0  0  0  0  0  0  0
   49.5174    7.6803   81.5059 F   0  0  0  0  0  0  0  0  0  0  0  0
   50.5411   12.7905   82.8784 O   0  0  0  0  0  0  0  0  0  0  0  0
   54.2301   17.8343   82.8976 C   0  0  0  0  0  0  0  0  0  0  0  0
   54.1552   12.0259   80.0100 C   0  0  0  0  0  0  0  0  0  0  0  0
   56.6551   11.1835   79.2921 C   0  0  0  0  0  0  0  0  0  0  0  0
   52.8384   12.4497   80.6006 C   0  0  0  0  0  0  0  0  0  0  0  0
   50.2617   11.6105   82.4220 C   0  0  0  0  0  0  0  0  0  0  0  0
   47.5922    9.2362   82.3944 F   0  0  0  0  0  0  0  0  0  0  0  0
   51.1744   10.8498   81.7125 C   0  0  0  0  0  0  0  0  0  0  0  0
   49.7237    8.9888   81.7166 C   0  0  0  0  0  0  0  0  0  0  0  0
  1 16  2  0
  2  5  2  0
  2 26  1  0
  3 13  2  0
  3 14  1  0
  4 21  2  0
  4 29  1  0
  4 31  1  0
  5 25  1  0
  6 11  1  0
  7 30  1  0
  7 31  2  0
  8  9  1  0
  8 13  1  0
  8 16  1  0
  9 20  1  0
  9 25  2  0
 10 14  1  0
 10 18  1  0
 10 24  2  0
 11 12  1  0
 11 19  1  0
 11 24  1  0
 13 27  1  0
 14 15  1  0
 15 19  2  0
 16 18  1  0
 17 27  1  0
 17 30  1  0
 20 26  2  0
 21 28  1  0
 22 31  1  0
 23 28  1  0
 25 27  1  0
 28 30  2  0
M  END
>  <ID>  (1) 
conformer_0

$$$$
