
     RDKit          3D

 33 34  0  0  0  0  0  0  0  0999 V2000
   53.8401   12.2628   80.0743 C   0  0  0  0  0  0  0  0  0  0  0  0
   53.0742   18.4278   83.5350 C   0  0  0  0  0  0  0  0  0  0  0  0
   50.8664   10.7077   81.1654 C   0  0  0  0  0  0  0  0  0  0  0  0
   52.4569   16.2665   84.3717 C   0  0  0  0  0  0  0  0  0  0  0  0
   53.3868   15.7012   82.1614 C   0  0  0  0  0  0  0  0  0  0  0  0
   55.1939   11.7355   80.4782 C   0  0  0  0  0  0  0  0  0  0  0  0
   55.8249   11.1153   79.2316 C   0  0  0  0  0  0  0  0  0  0  0  0
   51.0808    8.4507   83.1007 C   0  0  0  0  0  0  0  0  0  0  0  0
   49.0608   11.5099   82.5721 C   0  0  0  0  0  0  0  0  0  0  0  0
   48.2360   10.3521   82.2566 C   0  0  0  0  0  0  0  0  0  0  0  0
   49.9400   10.3862   80.1540 C   0  0  0  0  0  0  0  0  0  0  0  0
   53.5224   18.9628   84.7313 O   0  0  0  0  0  0  0  0  0  0  0  0
   52.6652   15.1326   83.3741 C   0  0  0  0  0  0  0  0  0  0  0  0
   50.0642    9.5458   81.1432 C   0  0  0  0  0  0  0  0  0  0  0  0
   48.9163    9.1221   82.0581 C   0  0  0  0  0  0  0  0  0  0  0  0
   55.8519   13.0962   80.8484 C   0  0  0  0  0  0  0  0  0  0  0  0
   50.4899   11.5530   82.3363 C   0  0  0  0  0  0  0  0  0  0  0  0
   52.3109   10.3200   80.7781 C   0  0  0  0  0  0  0  0  0  0  0  0
   57.0823   13.2264   80.8761 O   0  0  0  0  0  0  0  0  0  0  0  0
   48.8626    8.0055   82.3970 Cl  0  0  0  0  0  0  0  0  0  0  0  0
   54.8615   13.9681   81.2292 N   0  0  0  0  0  0  0  0  0  0  0  0
   53.5734   13.3407   81.0477 C   0  0  0  0  0  0  0  0  0  0  0  0
   56.9185   10.2974   79.6053 O   0  0  0  0  0  0  0  0  0  0  0  0
   55.2372   10.8630   81.6699 C   0  0  0  0  0  0  0  0  0  0  0  0
   51.6251   14.2955   83.5730 O   0  0  0  0  0  0  0  0  0  0  0  0
   52.8359   11.3060   79.7331 C   0  0  0  0  0  0  0  0  0  0  0  0
   52.2234   13.5471   81.1699 O   0  0  0  0  0  0  0  0  0  0  0  0
   52.0251   17.4321   83.6586 O   0  0  0  0  0  0  0  0  0  0  0  0
   54.8249   15.3040   81.8273 C   0  0  0  0  0  0  0  0  0  0  0  0
   54.5526   16.4290   82.7675 C   0  0  0  0  0  0  0  0  0  0  0  0
   54.4438   18.5390   81.5655 O   0  0  0  0  0  0  0  0  0  0  0  0
   54.3008   17.8897   82.7743 C   0  0  0  0  0  0  0  0  0  0  0  0
   49.9659    8.6964   82.3433 C   0  0  0  0  0  0  0  0  0  0  0  0
  1  6  1  0
  1 22  1  0
  1 26  1  0
  2 12  1  0
  2 28  1  0
  2 32  1  0
  3 11  1  0
  3 17  1  0
  3 18  1  0
  4 13  1  0
  4 28  1  0
  5 13  1  0
  5 30  1  0
  6  7  1  0
  6 16  1  0
  6 24  1  0
  7 23  1  0
  8 33  2  0
  9 10  1  0
  9 17  1  0
 10 15  1  0
 11 14  1  0
 13 25  1  0
 14 33  1  0
 15 20  1  0
 16 19  2  0
 16 21  1  0
 18 26  1  0
 21 22  1  0
 21 29  1  0
 22 27  2  0
 29 30  1  0
 30 32  1  0
 31 32  1  0
M  END
>  <ID>  (1) 
conformer_0

$$$$
