
     RDKit          3D

 25 27  0  0  0  0  0  0  0  0999 V2000
   48.7468   10.1342   82.3806 C   0  0  0  0  0  0  0  0  0  0  0  0
   53.3097   18.6378   83.4590 C   0  0  0  0  0  0  0  0  0  0  0  0
   54.4566   10.9543   80.8759 C   0  0  0  0  0  0  0  0  0  0  0  0
   55.7191   10.7992   80.2988 C   0  0  0  0  0  0  0  0  0  0  0  0
   54.2709   18.2286   82.5727 C   0  0  0  0  0  0  0  0  0  0  0  0
   51.4226   13.8515   82.9998 O   0  0  0  0  0  0  0  0  0  0  0  0
   52.3771   17.7699   84.0051 C   0  0  0  0  0  0  0  0  0  0  0  0
   47.7342    9.6725   81.7468 F   0  0  0  0  0  0  0  0  0  0  0  0
   54.1296   12.2154   81.3460 C   0  0  0  0  0  0  0  0  0  0  0  0
   52.8558   12.4575   81.8877 C   0  0  0  0  0  0  0  0  0  0  0  0
   53.4801   14.6992   82.2276 N   0  0  0  0  0  0  0  0  0  0  0  0
   49.0715   10.0675   83.6460 F   0  0  0  0  0  0  0  0  0  0  0  0
   54.7384   14.4615   81.7287 N   0  0  0  0  0  0  0  0  0  0  0  0
   55.0385   13.2770   81.2729 C   0  0  0  0  0  0  0  0  0  0  0  0
   50.6540   11.4179   81.7508 C   0  0  0  0  0  0  0  0  0  0  0  0
   50.6513    8.9819   81.9455 F   0  0  0  0  0  0  0  0  0  0  0  0
   52.5366   13.7104   82.3961 C   0  0  0  0  0  0  0  0  0  0  0  0
   54.3358   16.9269   82.1782 C   0  0  0  0  0  0  0  0  0  0  0  0
   49.9993   10.1225   81.5313 C   0  0  0  0  0  0  0  0  0  0  0  0
   53.3528   16.0524   82.6863 C   0  0  0  0  0  0  0  0  0  0  0  0
   56.3485   13.0959   80.6643 C   0  0  0  0  0  0  0  0  0  0  0  0
   49.6501    9.8750   80.2522 F   0  0  0  0  0  0  0  0  0  0  0  0
   56.6092   11.8270   80.1842 C   0  0  0  0  0  0  0  0  0  0  0  0
   51.9487   11.4603   81.9241 N   0  0  0  0  0  0  0  0  0  0  0  0
   52.4269   16.4753   83.5967 C   0  0  0  0  0  0  0  0  0  0  0  0
  1  8  1  0
  1 12  1  0
  1 19  1  0
  2  5  2  0
  2  7  1  0
  3  4  1  0
  3  9  1  0
  4 23  2  0
  5 18  1  0
  6 17  2  0
  7 25  2  0
  9 10  2  0
  9 14  1  0
 10 17  1  0
 10 24  1  0
 11 13  1  0
 11 17  1  0
 11 20  1  0
 13 14  2  0
 14 21  1  0
 15 19  1  0
 15 24  2  3
 16 19  1  0
 18 20  2  0
 19 22  1  0
 20 25  1  0
 21 23  1  0
M  END
>  <ID>  (1) 
conformer_0

$$$$
