
     RDKit          3D

 29 33  0  0  0  0  0  0  0  0999 V2000
   54.7591   13.6169   80.6578 C   0  0  0  0  0  0  0  0  0  0  0  0
   50.0930   10.6568   81.7429 C   0  0  0  0  0  0  0  0  0  0  0  0
   52.3787   14.4690   82.7008 N   0  0  0  0  0  0  0  0  0  0  0  0
   56.5630   11.7077   78.9079 C   0  0  0  0  0  0  0  0  0  0  0  0
   51.9635   16.4883   83.7507 O   0  0  0  0  0  0  0  0  0  0  0  0
   53.9143   16.2251   82.5834 C   0  0  0  0  0  0  0  0  0  0  0  0
   49.6499   10.9488   83.1358 C   0  0  0  0  0  0  0  0  0  0  0  0
   52.7205   15.6184   83.0197 C   0  0  0  0  0  0  0  0  0  0  0  0
   56.6022   13.5840   82.3995 C   0  0  0  0  0  0  0  0  0  0  0  0
   48.9182    8.6640   82.1577 C   0  0  0  0  0  0  0  0  0  0  0  0
   52.2093   11.0434   80.5484 C   0  0  0  0  0  0  0  0  0  0  0  0
   50.0773    9.2533   81.4065 C   0  0  0  0  0  0  0  0  0  0  0  0
   55.4682   12.5235   79.8024 C   0  0  0  0  0  0  0  0  0  0  0  0
   54.3583   11.5791   79.5834 N   0  0  0  0  0  0  0  0  0  0  0  0
   57.2507   10.1731   77.1049 C   0  0  0  0  0  0  0  0  0  0  0  0
   53.4791   13.0172   81.0404 C   0  0  0  0  0  0  0  0  0  0  0  0
   53.3037   11.8393   80.3694 C   0  0  0  0  0  0  0  0  0  0  0  0
   52.6574   17.7142   83.5974 N   0  0  0  0  0  0  0  0  0  0  0  0
   53.7889   17.5920   82.8543 C   0  0  0  0  0  0  0  0  0  0  0  0
   55.5758   14.3936   81.5489 C   0  0  0  0  0  0  0  0  0  0  0  0
   52.4657   13.3841   81.9408 C   0  0  0  0  0  0  0  0  0  0  0  0
   51.2708   11.4363   81.4499 C   0  0  0  0  0  0  0  0  0  0  0  0
   54.6018   18.6474   82.2636 C   0  0  0  0  0  0  0  0  0  0  0  0
   55.1751   15.6930   82.0189 C   0  0  0  0  0  0  0  0  0  0  0  0
   51.4015   12.5696   82.1572 C   0  0  0  0  0  0  0  0  0  0  0  0
   57.6746   11.6160   79.4612 O   0  0  0  0  0  0  0  0  0  0  0  0
   48.2401   10.7601   83.1886 C   0  0  0  0  0  0  0  0  0  0  0  0
   47.8172    9.7024   82.1924 C   0  0  0  0  0  0  0  0  0  0  0  0
   56.1410   10.8128   77.9490 O   0  0  0  0  0  0  0  0  0  0  0  0
  1 13  1  0
  1 16  1  0
  1 20  1  0
  2  7  1  0
  2 12  1  0
  2 22  1  0
  3  8  1  0
  3 21  1  0
  4 13  1  0
  4 26  2  0
  4 29  1  0
  5  8  1  0
  5 18  1  0
  6  8  1  0
  6 19  1  0
  6 24  2  0
  7 27  1  0
  9 20  1  0
 10 12  1  0
 10 28  1  0
 11 17  2  0
 11 22  1  0
 13 14  1  0
 14 17  1  0
 15 29  1  0
 16 17  1  0
 16 21  2  0
 18 19  2  0
 19 23  1  0
 20 24  1  0
 21 25  1  0
 22 25  2  0
 27 28  1  0
M  END
>  <ID>  (1) 
conformer_0

$$$$
