
     RDKit          3D

 25 30  0  0  0  0  0  0  0  0999 V2000
   51.2901   11.1398   81.5994 C   0  0  0  0  0  0  0  0  0  0  0  0
   54.7968   11.2619   80.4454 N   0  0  0  0  0  0  0  0  0  0  0  0
   53.3543   13.9041   82.1816 C   0  0  0  0  0  0  0  0  0  0  0  0
   56.0009   12.0462   80.5417 C   0  0  0  0  0  0  0  0  0  0  0  0
   53.0626   19.1336   83.8475 Cl  0  0  0  0  0  0  0  0  0  0  0  0
   55.6962   13.2370   81.2090 C   0  0  0  0  0  0  0  0  0  0  0  0
   53.4546   15.1593   82.6850 N   0  0  0  0  0  0  0  0  0  0  0  0
   49.2546   11.2633   82.8381 C   0  0  0  0  0  0  0  0  0  0  0  0
   50.9425   13.0247   82.7873 N   0  0  0  0  0  0  0  0  0  0  0  0
   52.4441   11.8372   81.4558 N   0  0  0  0  0  0  0  0  0  0  0  0
   54.3215   17.3874   82.5885 C   0  0  0  0  0  0  0  0  0  0  0  0
   53.7775   11.9187   81.0691 C   0  0  0  0  0  0  0  0  0  0  0  0
   51.8696   14.7175   84.4685 O   0  0  0  0  0  0  0  0  0  0  0  0
   52.5361   15.5110   83.6950 C   0  0  0  0  0  0  0  0  0  0  0  0
   54.3553   13.1562   81.5061 C   0  0  0  0  0  0  0  0  0  0  0  0
   52.4062   16.8523   84.0006 C   0  0  0  0  0  0  0  0  0  0  0  0
   50.4284   11.8061   82.4453 C   0  0  0  0  0  0  0  0  0  0  0  0
   54.5024   16.0292   82.3023 C   0  0  0  0  0  0  0  0  0  0  0  0
   53.2757   17.7288   83.4321 C   0  0  0  0  0  0  0  0  0  0  0  0
   50.9562    9.9327   81.0787 C   0  0  0  0  0  0  0  0  0  0  0  0
   55.7579   15.6239   81.8242 O   0  0  0  0  0  0  0  0  0  0  0  0
   49.7548    9.3394   81.4534 C   0  0  0  0  0  0  0  0  0  0  0  0
   48.9126   10.0034   82.3326 C   0  0  0  0  0  0  0  0  0  0  0  0
   52.2079   13.1216   82.2869 C   0  0  0  0  0  0  0  0  0  0  0  0
   56.4115   14.4990   81.4203 C   0  0  0  0  0  0  0  0  0  0  0  0
  1 10  1  0
  1 17  2  0
  1 20  1  0
  2  4  1  0
  2 12  1  0
  3  7  1  0
  3 15  1  0
  3 24  2  0
  4  6  1  0
  5 19  1  0
  6 15  1  0
  6 25  2  0
  7 14  1  0
  7 18  1  0
  8 17  1  0
  8 23  2  0
  9 17  1  0
  9 24  1  0
 10 12  1  0
 10 24  1  0
 11 18  2  0
 11 19  1  0
 12 15  2  0
 13 14  2  0
 14 16  1  0
 16 19  2  0
 18 21  1  0
 20 22  2  0
 21 25  1  0
 22 23  1  0
M  END
>  <ID>  (1) 
conformer_0

$$$$
