
     RDKit          3D

 19 22  0  0  0  0  0  0  0  0999 V2000
   55.7513   12.8644   81.0817 C   0  0  0  0  0  0  0  0  0  0  0  0
   52.7158   13.2026   81.8049 C   0  0  0  0  0  0  0  0  0  0  0  0
   53.7525   14.1871   81.9278 N   0  0  0  0  0  0  0  0  0  0  0  0
   54.5689   16.4290   82.4327 C   0  0  0  0  0  0  0  0  0  0  0  0
   54.3515   17.7337   82.8387 C   0  0  0  0  0  0  0  0  0  0  0  0
   51.4874   11.1583   81.6283 C   0  0  0  0  0  0  0  0  0  0  0  0
   53.1177   18.1121   83.3241 C   0  0  0  0  0  0  0  0  0  0  0  0
   52.2470   15.9039   82.9429 C   0  0  0  0  0  0  0  0  0  0  0  0
   55.2803   14.0868   81.7237 C   0  0  0  0  0  0  0  0  0  0  0  0
   52.6917   11.8085   81.1567 C   0  0  0  0  0  0  0  0  0  0  0  0
   51.4762   13.2591   82.5183 N   0  0  0  0  0  0  0  0  0  0  0  0
   49.6584   11.4874   82.9461 C   0  0  0  0  0  0  0  0  0  0  0  0
   53.9687   11.1315   80.9708 C   0  0  0  0  0  0  0  0  0  0  0  0
   55.1419   11.6330   81.7273 C   0  0  0  0  0  0  0  0  0  0  0  0
   52.0698   17.1948   83.3899 C   0  0  0  0  0  0  0  0  0  0  0  0
   50.7462   10.0036   81.6583 C   0  0  0  0  0  0  0  0  0  0  0  0
   49.6546   10.1969   82.4614 C   0  0  0  0  0  0  0  0  0  0  0  0
   53.4841   15.5298   82.4567 C   0  0  0  0  0  0  0  0  0  0  0  0
   50.7828   12.0743   82.4454 C   0  0  0  0  0  0  0  0  0  0  0  0
  1  9  1  0
  1 14  1  0
  2  3  1  0
  2 10  1  0
  2 11  2  0
  3  9  1  0
  3 18  1  0
  4  5  2  0
  4 18  1  0
  5  7  1  0
  6 10  1  0
  6 16  1  0
  6 19  2  0
  7 15  2  0
  8 15  1  0
  8 18  2  0
 10 13  1  0
 11 19  1  0
 12 17  1  0
 12 19  1  0
 13 14  1  0
 16 17  1  0
M  END
>  <ID>  (1) 
conformer_0

$$$$
