
     RDKit          3D

 27 31  0  0  0  0  0  0  0  0999 V2000
   52.9245   18.0878   83.5235 C   0  0  0  0  0  0  0  0  0  0  0  0
   54.0891   17.9122   82.8160 C   0  0  0  0  0  0  0  0  0  0  0  0
   55.3458   13.8800   81.8261 C   0  0  0  0  0  0  0  0  0  0  0  0
   52.8831   13.4554   81.9868 C   0  0  0  0  0  0  0  0  0  0  0  0
   53.6539   15.5973   82.6932 C   0  0  0  0  0  0  0  0  0  0  0  0
   56.3452   12.4106   80.0929 C   0  0  0  0  0  0  0  0  0  0  0  0
   55.2198   12.8033   80.8778 N   0  0  0  0  0  0  0  0  0  0  0  0
   54.0485   14.1856   82.3899 C   0  0  0  0  0  0  0  0  0  0  0  0
   57.0315   11.3582   77.2171 C   0  0  0  0  0  0  0  0  0  0  0  0
   51.7430   11.5235   81.3971 C   0  0  0  0  0  0  0  0  0  0  0  0
   49.7069   10.3149   82.8004 C   0  0  0  0  0  0  0  0  0  0  0  0
   51.6172   13.4155   82.6306 N   0  0  0  0  0  0  0  0  0  0  0  0
   52.4481   15.8078   83.3193 N   0  0  0  0  0  0  0  0  0  0  0  0
   51.0149   12.1876   82.3819 C   0  0  0  0  0  0  0  0  0  0  0  0
   50.3661    9.6179   81.8095 C   0  0  0  0  0  0  0  0  0  0  0  0
   54.0833   12.2777   80.3478 C   0  0  0  0  0  0  0  0  0  0  0  0
   52.8498   12.3566   80.9924 C   0  0  0  0  0  0  0  0  0  0  0  0
   56.5716   10.5170   78.3950 C   0  0  0  0  0  0  0  0  0  0  0  0
   54.4939   16.6569   82.3806 C   0  0  0  0  0  0  0  0  0  0  0  0
   54.4216   11.4033   79.4056 O   0  0  0  0  0  0  0  0  0  0  0  0
   55.8166   11.2917   79.3796 C   0  0  0  0  0  0  0  0  0  0  0  0
   52.0961   17.0229   83.7687 C   0  0  0  0  0  0  0  0  0  0  0  0
   49.9853   11.6459   83.0511 C   0  0  0  0  0  0  0  0  0  0  0  0
   52.5895   19.2905   84.0182 F   0  0  0  0  0  0  0  0  0  0  0  0
   50.0609    8.3503   81.6385 O   0  0  0  0  0  0  0  0  0  0  0  0
   48.8310    9.7040   83.5664 O   0  0  0  0  0  0  0  0  0  0  0  0
   51.3684   10.2436   81.0813 C   0  0  0  0  0  0  0  0  0  0  0  0
  1  2  2  0
  1 22  1  0
  1 24  1  0
  2 19  1  0
  3  7  1  0
  3  8  1  0
  4  8  1  0
  4 12  1  0
  4 17  1  0
  5  8  1  0
  5 13  1  0
  5 19  2  0
  6  7  1  0
  6 21  1  0
  7 16  1  0
  9 18  1  0
 10 14  2  0
 10 17  1  0
 10 27  1  0
 11 15  1  0
 11 23  2  0
 11 26  1  0
 12 14  1  0
 13 22  2  0
 14 23  1  0
 15 25  1  0
 15 27  2  0
 16 17  1  0
 16 20  1  0
 18 21  1  0
 20 21  1  0
M  END
>  <ID>  (1) 
conformer_0

$$$$
