
     RDKit          3D

 23 26  0  0  0  0  0  0  0  0999 V2000
   53.1791   18.3154   83.5760 C   0  0  0  0  0  0  0  0  0  0  0  0
   52.3943   14.4994   82.7331 O   0  0  0  0  0  0  0  0  0  0  0  0
   49.1133    9.8369   82.8989 C   0  0  0  0  0  0  0  0  0  0  0  0
   53.6370   12.0876   80.5746 C   0  0  0  0  0  0  0  0  0  0  0  0
   49.9827    9.3244   80.6936 C   0  0  0  0  0  0  0  0  0  0  0  0
   56.3708   12.2565   80.2947 C   0  0  0  0  0  0  0  0  0  0  0  0
   55.7219   13.0628   81.1943 C   0  0  0  0  0  0  0  0  0  0  0  0
   51.2527   11.3403   81.3051 C   0  0  0  0  0  0  0  0  0  0  0  0
   50.8451   10.3059   80.5333 C   0  0  0  0  0  0  0  0  0  0  0  0
   55.6503   11.3799   79.5181 C   0  0  0  0  0  0  0  0  0  0  0  0
   50.7069   11.6473   82.5238 C   0  0  0  0  0  0  0  0  0  0  0  0
   52.1811   17.2037   83.6138 C   0  0  0  0  0  0  0  0  0  0  0  0
   54.4754   16.9454   82.0191 N   0  0  0  0  0  0  0  0  0  0  0  0
   54.1342   16.0061   83.0332 C   0  0  0  0  0  0  0  0  0  0  0  0
   52.2851   12.1227   80.8015 C   0  0  0  0  0  0  0  0  0  0  0  0
   53.5653   13.8499   82.2593 C   0  0  0  0  0  0  0  0  0  0  0  0
   49.7867   10.9891   83.2189 C   0  0  0  0  0  0  0  0  0  0  0  0
   54.3751   12.9888   81.3216 C   0  0  0  0  0  0  0  0  0  0  0  0
   49.1805    9.0720   81.7847 C   0  0  0  0  0  0  0  0  0  0  0  0
   54.6214   14.6322   82.9960 C   0  0  0  0  0  0  0  0  0  0  0  0
   54.1554   18.3214   82.4420 C   0  0  0  0  0  0  0  0  0  0  0  0
   54.2785   11.2945   79.6657 C   0  0  0  0  0  0  0  0  0  0  0  0
   52.6365   15.8589   83.1489 C   0  0  0  0  0  0  0  0  0  0  0  0
  1 12  1  0
  1 21  1  0
  2 16  1  0
  2 23  1  0
  3 17  1  0
  3 19  2  0
  4 15  1  0
  4 18  2  0
  4 22  1  0
  5  9  2  0
  5 19  1  0
  6  7  2  0
  6 10  1  0
  7 18  1  0
  8  9  1  0
  8 11  1  0
  8 15  1  0
 10 22  2  0
 11 17  2  0
 12 23  2  0
 13 14  1  0
 13 21  1  0
 14 20  1  0
 14 23  1  0
 16 18  1  0
 16 20  1  0
M  END
>  <ID>  (1) 
conformer_0

$$$$
