
     RDKit          3D

 28 30  0  0  0  0  0  0  0  0999 V2000
   53.6911   18.6612   84.7495 F   0  0  0  0  0  0  0  0  0  0  0  0
   55.9246   13.2343   81.2319 C   0  0  0  0  0  0  0  0  0  0  0  0
   55.5349   11.2378   79.2292 C   0  0  0  0  0  0  0  0  0  0  0  0
   51.0924   10.9577   81.5891 C   0  0  0  0  0  0  0  0  0  0  0  0
   50.2158   11.6784   82.5015 C   0  0  0  0  0  0  0  0  0  0  0  0
   51.9944   15.5458   83.1221 O   0  0  0  0  0  0  0  0  0  0  0  0
   55.1323   14.9380   82.7488 C   0  0  0  0  0  0  0  0  0  0  0  0
   50.2295    8.6913   81.0173 C   0  0  0  0  0  0  0  0  0  0  0  0
   53.0561   19.3232   82.8594 F   0  0  0  0  0  0  0  0  0  0  0  0
   48.9203   10.9888   82.7624 C   0  0  0  0  0  0  0  0  0  0  0  0
   53.0501   18.2476   83.6612 C   0  0  0  0  0  0  0  0  0  0  0  0
   52.2478   11.7232   81.1291 C   0  0  0  0  0  0  0  0  0  0  0  0
   53.9480   15.0766   81.8879 N   0  0  0  0  0  0  0  0  0  0  0  0
   53.0660   11.2712   79.9977 C   0  0  0  0  0  0  0  0  0  0  0  0
   50.4883   10.0748   80.5808 C   0  0  0  0  0  0  0  0  0  0  0  0
   49.0182    9.5441   83.0336 C   0  0  0  0  0  0  0  0  0  0  0  0
   55.8035   13.6193   82.6327 C   0  0  0  0  0  0  0  0  0  0  0  0
   51.7626   18.0247   83.9161 F   0  0  0  0  0  0  0  0  0  0  0  0
   53.5276   13.8926   81.1725 C   0  0  0  0  0  0  0  0  0  0  0  0
   53.7890   17.0884   83.0536 C   0  0  0  0  0  0  0  0  0  0  0  0
   52.5862   12.9579   81.8361 C   0  0  0  0  0  0  0  0  0  0  0  0
   53.0326   15.9518   82.5362 C   0  0  0  0  0  0  0  0  0  0  0  0
   50.3495   12.8222   83.1351 O   0  0  0  0  0  0  0  0  0  0  0  0
   54.2885   12.0511   79.6340 C   0  0  0  0  0  0  0  0  0  0  0  0
   54.6089   13.1275   80.5697 C   0  0  0  0  0  0  0  0  0  0  0  0
   56.1854   10.6653   80.3794 O   0  0  0  0  0  0  0  0  0  0  0  0
   48.9624    8.6652   81.8335 C   0  0  0  0  0  0  0  0  0  0  0  0
   54.9007   17.5457   82.4444 F   0  0  0  0  0  0  0  0  0  0  0  0
  1 11  1  0
  2 17  1  0
  2 25  1  0
  3 24  1  0
  3 26  1  0
  4  5  1  0
  4 12  1  0
  4 15  1  0
  5 10  1  0
  5 23  1  0
  6 22  2  0
  7 13  1  0
  7 17  1  0
  8 15  1  0
  8 27  1  0
  9 11  1  0
 10 16  1  0
 11 18  1  0
 11 20  1  0
 12 14  2  0
 12 21  1  0
 13 19  1  0
 13 22  1  0
 14 24  1  0
 16 27  1  0
 19 21  1  0
 19 25  1  0
 20 22  1  0
 20 28  1  0
 24 25  1  0
M  END
>  <ID>  (1) 
conformer_0

$$$$
