
     RDKit          3D

 21 24  0  0  0  0  0  0  0  0999 V2000
   52.6986   11.2707   81.6509 C   0  0  0  0  0  0  0  0  0  0  0  0
   52.3886   15.4448   82.6470 C   0  0  0  0  0  0  0  0  0  0  0  0
   50.8384    9.7089   82.6899 F   0  0  0  0  0  0  0  0  0  0  0  0
   49.5641   10.4034   81.0818 F   0  0  0  0  0  0  0  0  0  0  0  0
   54.4522   14.4896   82.0346 C   0  0  0  0  0  0  0  0  0  0  0  0
   56.0943   13.0307   80.9920 C   0  0  0  0  0  0  0  0  0  0  0  0
   53.7696   12.2124   81.6488 C   0  0  0  0  0  0  0  0  0  0  0  0
   55.3421   10.6878   80.5893 C   0  0  0  0  0  0  0  0  0  0  0  0
   50.2730   10.8074   82.1157 C   0  0  0  0  0  0  0  0  0  0  0  0
   55.1546   11.9436   81.3348 C   0  0  0  0  0  0  0  0  0  0  0  0
   53.8118   15.6618   82.5439 C   0  0  0  0  0  0  0  0  0  0  0  0
   54.5078   16.9398   82.4164 C   0  0  0  0  0  0  0  0  0  0  0  0
   51.7506   16.6940   83.0347 C   0  0  0  0  0  0  0  0  0  0  0  0
   52.5521   17.7393   83.6536 C   0  0  0  0  0  0  0  0  0  0  0  0
   51.2466   13.0398   82.5045 C   0  0  0  0  0  0  0  0  0  0  0  0
   52.1942   14.0359   82.2997 C   0  0  0  0  0  0  0  0  0  0  0  0
   49.4137   11.3346   82.9909 F   0  0  0  0  0  0  0  0  0  0  0  0
   53.8644   18.1104   83.0199 C   0  0  0  0  0  0  0  0  0  0  0  0
   53.3845   13.5855   81.7301 C   0  0  0  0  0  0  0  0  0  0  0  0
   51.3529   11.8291   81.7928 C   0  0  0  0  0  0  0  0  0  0  0  0
   55.7553   14.4009   81.4036 C   0  0  0  0  0  0  0  0  0  0  0  0
  1  7  2  0
  1 20  1  0
  2 11  2  0
  2 13  1  0
  2 16  1  0
  3  9  1  0
  4  9  1  0
  5 11  1  0
  5 19  2  0
  5 21  1  0
  6 10  1  0
  6 21  1  0
  7 10  1  0
  7 19  1  0
  8 10  1  0
  9 17  1  0
  9 20  1  0
 11 12  1  0
 12 18  1  0
 13 14  1  0
 14 18  1  0
 15 16  1  0
 15 20  2  0
 16 19  1  0
M  END
>  <ID>  (1) 
conformer_0

$$$$
