
     RDKit          3D

 14 15  0  0  0  0  0  0  0  0999 V2000
   52.3028   17.1168   83.6088 C   0  0  0  0  0  0  0  0  0  0  0  0
   51.5970   13.4016   82.4759 N   0  0  0  0  0  0  0  0  0  0  0  0
   52.8810   13.7996   82.1950 C   0  0  0  0  0  0  0  0  0  0  0  0
   54.4181   17.2691   82.5087 C   0  0  0  0  0  0  0  0  0  0  0  0
   51.1282   12.1866   82.1609 C   0  0  0  0  0  0  0  0  0  0  0  0
   53.3715   17.8951   83.2233 C   0  0  0  0  0  0  0  0  0  0  0  0
   51.9229   11.2353   81.5472 C   0  0  0  0  0  0  0  0  0  0  0  0
   53.7595   12.8095   81.5983 C   0  0  0  0  0  0  0  0  0  0  0  0
   52.2515   15.8199   83.2971 N   0  0  0  0  0  0  0  0  0  0  0  0
   53.2056   15.1831   82.5619 C   0  0  0  0  0  0  0  0  0  0  0  0
   53.2771   11.5364   81.2638 C   0  0  0  0  0  0  0  0  0  0  0  0
   54.3610   15.9114   82.2207 C   0  0  0  0  0  0  0  0  0  0  0  0
   55.5282   13.1893   81.3119 Cl  0  0  0  0  0  0  0  0  0  0  0  0
   51.2351    9.8909   81.2009 C   0  0  0  0  0  0  0  0  0  0  0  0
  1  6  2  0
  1  9  1  0
  2  3  2  0
  2  5  1  0
  3  8  1  0
  3 10  1  0
  4  6  1  0
  4 12  2  0
  5  7  2  0
  7 11  1  0
  7 14  1  0
  8 11  2  0
  8 13  1  0
  9 10  2  0
 10 12  1  0
M  END
>  <ID>  (1) 
conformer_0

$$$$
