
     RDKit          3D

 30 33  0  0  0  0  0  0  0  0999 V2000
   54.6515   15.7773   82.2465 C   0  0  0  0  0  0  0  0  0  0  0  0
   53.7362   17.6376   83.7421 C   0  0  0  0  0  0  0  0  0  0  0  0
   48.6744    9.8620   82.7285 C   0  0  0  0  0  0  0  0  0  0  0  0
   51.5900   17.2896   84.8645 O   0  0  0  0  0  0  0  0  0  0  0  0
   52.6604   16.7656   84.2214 C   0  0  0  0  0  0  0  0  0  0  0  0
   49.1350    8.9950   81.7793 C   0  0  0  0  0  0  0  0  0  0  0  0
   55.0565   15.2594   83.4403 O   0  0  0  0  0  0  0  0  0  0  0  0
   53.0343   14.1403   81.5706 C   0  0  0  0  0  0  0  0  0  0  0  0
   54.3438   14.7539   81.2367 N   0  0  0  0  0  0  0  0  0  0  0  0
   50.2193    9.3324   81.0488 C   0  0  0  0  0  0  0  0  0  0  0  0
   53.1978   19.0346   83.7992 C   0  0  0  0  0  0  0  0  0  0  0  0
   55.2023   12.6459   80.3453 C   0  0  0  0  0  0  0  0  0  0  0  0
   52.7176   11.8828   80.8953 C   0  0  0  0  0  0  0  0  0  0  0  0
   53.9457   12.0315   80.2176 C   0  0  0  0  0  0  0  0  0  0  0  0
   52.3061   12.8644   81.7744 N   0  0  0  0  0  0  0  0  0  0  0  0
   54.3889   18.0675   81.4969 O   0  0  0  0  0  0  0  0  0  0  0  0
   51.9095   10.8530   80.5892 N   0  0  0  0  0  0  0  0  0  0  0  0
   50.8296   10.5402   81.2978 C   0  0  0  0  0  0  0  0  0  0  0  0
   56.3457    9.9700   80.5212 C   0  0  0  0  0  0  0  0  0  0  0  0
   55.5493   13.8700   81.0590 C   0  0  0  0  0  0  0  0  0  0  0  0
   49.2777   11.0889   83.0024 C   0  0  0  0  0  0  0  0  0  0  0  0
   51.8329   14.5463   84.5191 F   0  0  0  0  0  0  0  0  0  0  0  0
   56.1875   12.1859   79.4044 O   0  0  0  0  0  0  0  0  0  0  0  0
   50.4049   11.4284   82.2950 C   0  0  0  0  0  0  0  0  0  0  0  0
   52.1626   15.2454   82.1438 C   0  0  0  0  0  0  0  0  0  0  0  0
   51.1706   12.6134   82.5592 C   0  0  0  0  0  0  0  0  0  0  0  0
   56.4532   10.7833   79.2962 C   0  0  0  0  0  0  0  0  0  0  0  0
   52.3003   15.4845   83.5584 C   0  0  0  0  0  0  0  0  0  0  0  0
   54.0877   17.1076   82.3569 C   0  0  0  0  0  0  0  0  0  0  0  0
   57.4771   10.2870   78.3522 C   0  0  0  0  0  0  0  0  0  0  0  0
  1  7  2  0
  1  9  1  0
  1 29  1  0
  2  5  1  0
  2 11  1  0
  2 29  1  0
  3  6  1  0
  3 21  2  0
  4  5  1  0
  5 28  1  0
  6 10  2  0
  8  9  1  0
  8 15  1  0
  8 25  1  0
  9 20  1  0
 10 18  1  0
 12 14  1  0
 12 20  1  0
 12 23  1  0
 13 14  1  0
 13 15  1  0
 13 17  1  0
 15 26  1  0
 16 29  1  0
 17 18  2  0
 18 24  1  0
 19 27  1  0
 21 24  1  0
 22 28  1  0
 23 27  1  0
 24 26  2  0
 25 28  1  0
 27 30  1  0
M  END
>  <ID>  (1) 
conformer_0

$$$$
