
     RDKit          3D

 26 29  0  0  0  0  0  0  0  0999 V2000
   56.5536   11.7180   80.2257 N   0  0  0  0  0  0  0  0  0  0  0  0
   50.5602   10.7548   80.8959 C   0  0  0  0  0  0  0  0  0  0  0  0
   52.7540   10.9228   81.8961 C   0  0  0  0  0  0  0  0  0  0  0  0
   54.1450   11.8012   80.1056 C   0  0  0  0  0  0  0  0  0  0  0  0
   53.6687   15.7790   82.5848 C   0  0  0  0  0  0  0  0  0  0  0  0
   56.5576   11.2136   78.9868 C   0  0  0  0  0  0  0  0  0  0  0  0
   51.4027   10.4443   81.9493 C   0  0  0  0  0  0  0  0  0  0  0  0
   52.8000   15.1481   83.4363 C   0  0  0  0  0  0  0  0  0  0  0  0
   52.8721   11.9489   80.8267 C   0  0  0  0  0  0  0  0  0  0  0  0
   52.7991   13.2817   81.4784 C   0  0  0  0  0  0  0  0  0  0  0  0
   50.9608    9.7264   83.0630 C   0  0  0  0  0  0  0  0  0  0  0  0
   49.6342    9.3825   83.0867 C   0  0  0  0  0  0  0  0  0  0  0  0
   53.0280   17.8174   83.6277 C   0  0  0  0  0  0  0  0  0  0  0  0
   54.7482   17.7563   81.9875 O   0  0  0  0  0  0  0  0  0  0  0  0
   54.4357   15.0654   81.6120 N   0  0  0  0  0  0  0  0  0  0  0  0
   55.2856   12.8563   82.0087 C   0  0  0  0  0  0  0  0  0  0  0  0
   52.0923   15.7664   84.3703 N   0  0  0  0  0  0  0  0  0  0  0  0
   55.3794   12.0745   80.7426 C   0  0  0  0  0  0  0  0  0  0  0  0
   49.2635   10.3494   80.9304 C   0  0  0  0  0  0  0  0  0  0  0  0
   54.1422   13.7145   81.8422 C   0  0  0  0  0  0  0  0  0  0  0  0
   48.8225    9.6434   82.0258 C   0  0  0  0  0  0  0  0  0  0  0  0
   54.1671   11.3518   78.8047 C   0  0  0  0  0  0  0  0  0  0  0  0
   53.8287   17.1571   82.7223 C   0  0  0  0  0  0  0  0  0  0  0  0
   52.1555   17.1299   84.4649 C   0  0  0  0  0  0  0  0  0  0  0  0
   53.1024   19.1926   83.7361 F   0  0  0  0  0  0  0  0  0  0  0  0
   55.4003   11.0572   78.2375 C   0  0  0  0  0  0  0  0  0  0  0  0
  1  6  2  0
  1 18  1  0
  2  7  2  0
  2 19  1  0
  3  7  1  0
  3  9  1  0
  4  9  1  0
  4 18  2  0
  4 22  1  0
  5  8  1  0
  5 15  1  0
  5 23  1  0
  6 26  1  0
  7 11  1  0
  8 17  2  0
  9 10  1  0
 10 20  1  0
 11 12  2  0
 12 21  1  0
 13 23  2  0
 13 24  1  0
 13 25  1  0
 14 23  1  0
 15 20  1  0
 16 18  1  0
 16 20  1  0
 17 24  1  0
 19 21  2  0
 22 26  2  0
M  END
>  <ID>  (1) 
conformer_0

$$$$
