
     RDKit          3D

 25 28  0  0  0  0  0  0  0  0999 V2000
   53.7680   17.8811   83.8367 C   0  0  0  0  0  0  0  0  0  0  0  0
   56.3204   12.6405   80.4193 C   0  0  0  0  0  0  0  0  0  0  0  0
   52.5624   14.5112   82.7168 N   0  0  0  0  0  0  0  0  0  0  0  0
   53.0417   18.9772   84.6353 C   0  0  0  0  0  0  0  0  0  0  0  0
   53.0647   13.5430   81.9815 C   0  0  0  0  0  0  0  0  0  0  0  0
   55.0634   12.8977   80.8994 C   0  0  0  0  0  0  0  0  0  0  0  0
   53.9173   18.3416   82.4096 C   0  0  0  0  0  0  0  0  0  0  0  0
   54.6210   13.8320   81.8119 N   0  0  0  0  0  0  0  0  0  0  0  0
   49.8205   11.5568   82.7755 C   0  0  0  0  0  0  0  0  0  0  0  0
   53.5320   15.4366   83.0903 C   0  0  0  0  0  0  0  0  0  0  0  0
   55.3570   11.1769   78.7486 C   0  0  0  0  0  0  0  0  0  0  0  0
   48.8839   10.5225   82.7606 C   0  0  0  0  0  0  0  0  0  0  0  0
   52.8621   12.4908   81.1698 C   0  0  0  0  0  0  0  0  0  0  0  0
   54.6859   17.3886   81.6455 O   0  0  0  0  0  0  0  0  0  0  0  0
   53.1805   16.5567   83.9248 C   0  0  0  0  0  0  0  0  0  0  0  0
   53.9587   12.1528   80.3707 C   0  0  0  0  0  0  0  0  0  0  0  0
   51.9687   16.4601   84.4562 O   0  0  0  0  0  0  0  0  0  0  0  0
   54.8108   14.9933   82.5856 C   0  0  0  0  0  0  0  0  0  0  0  0
   54.0877   11.4121   79.2499 C   0  0  0  0  0  0  0  0  0  0  0  0
   56.4825   11.7374   79.3540 C   0  0  0  0  0  0  0  0  0  0  0  0
   50.8941   11.5052   81.8917 C   0  0  0  0  0  0  0  0  0  0  0  0
   50.9694   10.4294   81.0123 C   0  0  0  0  0  0  0  0  0  0  0  0
   48.9979    9.4761   81.8741 C   0  0  0  0  0  0  0  0  0  0  0  0
   51.8848   12.4582   81.8133 N   0  0  0  0  0  0  0  0  0  0  0  0
   50.0581    9.4620   80.9937 C   0  0  0  0  0  0  0  0  0  0  0  0
  1  4  1  0
  1  7  1  0
  1 15  1  0
  2  6  2  0
  2 20  1  0
  3  5  2  0
  3 10  1  0
  5  8  1  0
  5 13  1  0
  6  8  1  0
  6 16  1  0
  7 14  1  0
  8 18  1  0
  9 12  1  0
  9 21  1  0
 10 15  1  0
 10 18  1  0
 11 19  1  0
 11 20  2  0
 12 23  2  0
 13 16  1  0
 13 24  1  0
 15 17  1  0
 16 19  2  0
 21 22  1  0
 21 24  2  3
 22 25  2  0
 23 25  1  0
M  END
>  <ID>  (1) 
conformer_0

$$$$
