
     RDKit          3D

 32 35  0  0  0  0  0  0  0  0999 V2000
   56.0552   10.9744   79.1589 C   0  0  0  0  0  0  0  0  0  0  0  0
   53.8044   16.4606   81.9701 O   0  0  0  0  0  0  0  0  0  0  0  0
   51.6170   15.2692   83.4597 O   0  0  0  0  0  0  0  0  0  0  0  0
   55.7809   12.5564   81.0425 C   0  0  0  0  0  0  0  0  0  0  0  0
   54.6990   11.3072   78.6280 C   0  0  0  0  0  0  0  0  0  0  0  0
   52.0290   10.8221   78.1546 C   0  0  0  0  0  0  0  0  0  0  0  0
   52.4632   17.2545   84.3329 C   0  0  0  0  0  0  0  0  0  0  0  0
   53.9716   17.8822   82.4443 C   0  0  0  0  0  0  0  0  0  0  0  0
   48.5803   10.9686   82.3459 C   0  0  0  0  0  0  0  0  0  0  0  0
   50.3091   10.2159   80.4688 C   0  0  0  0  0  0  0  0  0  0  0  0
   56.6473   12.1613   79.9166 C   0  0  0  0  0  0  0  0  0  0  0  0
   50.7720    9.8607   82.9280 C   0  0  0  0  0  0  0  0  0  0  0  0
   50.4378    9.1241   81.4910 C   0  0  0  0  0  0  0  0  0  0  0  0
   56.0631   13.6246   81.9691 O   0  0  0  0  0  0  0  0  0  0  0  0
   54.0477   15.4514   84.2421 C   0  0  0  0  0  0  0  0  0  0  0  0
   53.1715   19.4447   84.1561 C   0  0  0  0  0  0  0  0  0  0  0  0
   54.9024   14.3512   82.2322 C   0  0  0  0  0  0  0  0  0  0  0  0
   48.0464    9.6002   81.8626 C   0  0  0  0  0  0  0  0  0  0  0  0
   53.6265   17.9882   83.8314 O   0  0  0  0  0  0  0  0  0  0  0  0
   53.5508   19.8705   85.2533 O   0  0  0  0  0  0  0  0  0  0  0  0
   52.4265   13.4172   81.8888 C   0  0  0  0  0  0  0  0  0  0  0  0
   53.8091   13.6562   81.5774 C   0  0  0  0  0  0  0  0  0  0  0  0
   54.6651   15.6801   82.8354 C   0  0  0  0  0  0  0  0  0  0  0  0
   53.7930   11.8377   79.6761 C   0  0  0  0  0  0  0  0  0  0  0  0
   54.3512   12.5497   80.7988 C   0  0  0  0  0  0  0  0  0  0  0  0
   49.6973    8.8968   83.6035 O   0  0  0  0  0  0  0  0  0  0  0  0
   52.4585   11.2430   79.5624 C   0  0  0  0  0  0  0  0  0  0  0  0
   49.1170    8.5125   82.0696 C   0  0  0  0  0  0  0  0  0  0  0  0
   51.6086   11.0969   80.7019 C   0  0  0  0  0  0  0  0  0  0  0  0
   49.9923   11.2837   82.8913 C   0  0  0  0  0  0  0  0  0  0  0  0
   52.5807   15.7786   84.1790 C   0  0  0  0  0  0  0  0  0  0  0  0
   51.9521   19.8478   83.5523 C   0  0  0  0  0  0  0  0  0  0  0  0
  1  5  1  0
  1 11  1  0
  2  8  1  0
  2 23  1  0
  3 31  1  0
  4 11  1  0
  4 14  1  0
  4 25  1  0
  5 24  1  0
  6 27  1  0
  7 31  1  0
  8 19  1  0
  9 18  1  0
  9 30  1  0
 10 13  1  0
 10 29  1  0
 12 13  1  0
 12 26  1  0
 12 30  1  0
 13 28  1  0
 14 17  1  0
 15 23  1  0
 15 31  1  0
 16 19  1  0
 16 20  2  0
 16 32  1  0
 17 22  1  0
 17 23  1  0
 18 28  1  0
 21 22  1  0
 22 25  1  0
 24 25  1  0
 24 27  1  0
 26 28  1  0
 27 29  2  3
M  END
>  <ID>  (1) 
conformer_0

$$$$
