
     RDKit          3D

 22 23  0  0  0  0  0  0  0  0999 V2000
   53.6444   18.5907   82.9696 C   0  0  0  0  0  0  0  0  0  0  0  0
   56.3562   13.7004   81.1896 C   0  0  0  0  0  0  0  0  0  0  0  0
   49.7706   10.9592   82.3921 C   0  0  0  0  0  0  0  0  0  0  0  0
   53.8824   12.5921   81.3967 C   0  0  0  0  0  0  0  0  0  0  0  0
   51.7561   11.9714   81.6443 C   0  0  0  0  0  0  0  0  0  0  0  0
   56.1401   12.3633   80.7195 C   0  0  0  0  0  0  0  0  0  0  0  0
   54.6194   10.6197   80.7882 F   0  0  0  0  0  0  0  0  0  0  0  0
   54.9300   15.2648   82.6428 C   0  0  0  0  0  0  0  0  0  0  0  0
   48.7105   10.8001   83.5085 Cl  0  0  0  0  0  0  0  0  0  0  0  0
   52.7052   12.9520   81.8175 O   0  0  0  0  0  0  0  0  0  0  0  0
   54.8478   11.8606   80.9364 C   0  0  0  0  0  0  0  0  0  0  0  0
   53.8007   16.2217   82.6667 N   0  0  0  0  0  0  0  0  0  0  0  0
   52.8748   18.3310   84.1183 O   0  0  0  0  0  0  0  0  0  0  0  0
   50.6764   11.9872   82.5305 C   0  0  0  0  0  0  0  0  0  0  0  0
   55.4789   14.3489   81.7879 C   0  0  0  0  0  0  0  0  0  0  0  0
   52.0615   17.2190   84.0335 C   0  0  0  0  0  0  0  0  0  0  0  0
   52.1887   14.9305   83.6420 O   0  0  0  0  0  0  0  0  0  0  0  0
   49.7841   10.0700   81.3726 C   0  0  0  0  0  0  0  0  0  0  0  0
   54.3154   17.5143   82.2928 C   0  0  0  0  0  0  0  0  0  0  0  0
   52.6805   16.0384   83.3918 C   0  0  0  0  0  0  0  0  0  0  0  0
   51.8060   11.0277   80.6323 C   0  0  0  0  0  0  0  0  0  0  0  0
   50.8271   10.0739   80.4793 C   0  0  0  0  0  0  0  0  0  0  0  0
  1 13  1  0
  1 19  1  0
  2  6  1  0
  2 15  2  0
  3  9  1  0
  3 14  2  0
  3 18  1  0
  4 10  1  0
  4 11  1  0
  5 10  1  0
  5 14  1  0
  5 21  2  0
  6 11  1  0
  7 11  1  0
  8 12  1  0
  8 15  2  0
 12 19  1  0
 12 20  1  0
 13 16  1  0
 16 20  1  0
 17 20  2  0
 18 22  2  0
 21 22  1  0
M  END
>  <ID>  (1) 
conformer_0

$$$$
