
     RDKit          3D

 25 30  0  0  0  0  0  0  0  0999 V2000
   54.7099   14.6289   81.7530 C   0  0  0  0  0  0  0  0  0  0  0  0
   54.8429   16.0171   81.7621 N   0  0  0  0  0  0  0  0  0  0  0  0
   50.2759    9.1874   80.1481 C   0  0  0  0  0  0  0  0  0  0  0  0
   54.4226   12.6145   80.2095 N   0  0  0  0  0  0  0  0  0  0  0  0
   50.4340   12.2239   82.9235 C   0  0  0  0  0  0  0  0  0  0  0  0
   53.3384   18.6555   83.8085 C   0  0  0  0  0  0  0  0  0  0  0  0
   53.3669   12.7634   81.0608 C   0  0  0  0  0  0  0  0  0  0  0  0
   49.3201    9.1411   81.1666 C   0  0  0  0  0  0  0  0  0  0  0  0
   55.7801   12.8129   80.5788 C   0  0  0  0  0  0  0  0  0  0  0  0
   54.1536   18.0128   82.9016 C   0  0  0  0  0  0  0  0  0  0  0  0
   52.1162   12.2235   81.3676 C   0  0  0  0  0  0  0  0  0  0  0  0
   52.3226   14.4068   82.6161 C   0  0  0  0  0  0  0  0  0  0  0  0
   56.6964   11.9737   80.3151 O   0  0  0  0  0  0  0  0  0  0  0  0
   49.8470   12.5158   83.9495 O   0  0  0  0  0  0  0  0  0  0  0  0
   53.4357   14.1078   81.6884 C   0  0  0  0  0  0  0  0  0  0  0  0
   51.2470   11.1501   81.0953 C   0  0  0  0  0  0  0  0  0  0  0  0
   49.3211   10.0983   82.1295 C   0  0  0  0  0  0  0  0  0  0  0  0
   53.8831   16.6829   82.6083 C   0  0  0  0  0  0  0  0  0  0  0  0
   51.2034   10.2069   80.1070 C   0  0  0  0  0  0  0  0  0  0  0  0
   55.8985   13.7725   81.7291 C   0  0  0  0  0  0  0  0  0  0  0  0
   50.2312   11.0840   82.0601 C   0  0  0  0  0  0  0  0  0  0  0  0
   51.5276   13.0430   82.4598 N   0  0  0  0  0  0  0  0  0  0  0  0
   51.9918   16.7144   84.0767 C   0  0  0  0  0  0  0  0  0  0  0  0
   52.7746   16.0309   83.1395 C   0  0  0  0  0  0  0  0  0  0  0  0
   52.3012   18.0248   84.4393 N   0  0  0  0  0  0  0  0  0  0  0  0
  1  2  1  0
  1 15  1  0
  1 20  1  0
  2 18  1  0
  3  8  1  0
  3 19  2  0
  4  7  1  0
  4  9  1  0
  5 14  2  0
  5 21  1  0
  5 22  1  0
  6 10  1  0
  6 25  2  0
  7 11  2  0
  7 15  1  0
  8 17  2  0
  9 13  2  0
  9 20  1  0
 10 18  2  0
 11 16  1  0
 11 22  1  0
 12 15  1  0
 12 22  1  0
 12 24  1  0
 16 19  1  0
 16 21  2  0
 17 21  1  0
 18 24  1  0
 23 24  2  0
 23 25  1  0
M  END
>  <ID>  (1) 
conformer_0

$$$$
