
     RDKit          3D

 23 26  0  0  0  0  0  0  0  0999 V2000
   52.5609   14.1358   82.4950 N   0  0  0  0  0  0  0  0  0  0  0  0
   54.8526   13.5140   81.5576 C   0  0  0  0  0  0  0  0  0  0  0  0
   49.1455   10.1640   81.8064 C   0  0  0  0  0  0  0  0  0  0  0  0
   53.8335   18.0125   83.0616 C   0  0  0  0  0  0  0  0  0  0  0  0
   54.7049   11.6123   79.7273 C   0  0  0  0  0  0  0  0  0  0  0  0
   52.6246   17.6214   83.5993 C   0  0  0  0  0  0  0  0  0  0  0  0
   53.3798   13.3240   81.7790 C   0  0  0  0  0  0  0  0  0  0  0  0
   53.0010   15.4340   82.8000 C   0  0  0  0  0  0  0  0  0  0  0  0
   54.3168   15.7574   82.4338 C   0  0  0  0  0  0  0  0  0  0  0  0
   52.8799   12.0430   81.3826 C   0  0  0  0  0  0  0  0  0  0  0  0
   51.7624   18.5300   84.4521 C   0  0  0  0  0  0  0  0  0  0  0  0
   53.8208   11.2548   80.7351 N   0  0  0  0  0  0  0  0  0  0  0  0
   56.1051   12.0109   79.9062 C   0  0  0  0  0  0  0  0  0  0  0  0
   50.6987   11.8015   82.5643 C   0  0  0  0  0  0  0  0  0  0  0  0
   56.2939   13.0829   80.9550 C   0  0  0  0  0  0  0  0  0  0  0  0
   55.2654   14.7549   82.1674 O   0  0  0  0  0  0  0  0  0  0  0  0
   52.1649   16.3535   83.4252 C   0  0  0  0  0  0  0  0  0  0  0  0
   51.1675   10.5474   80.6300 C   0  0  0  0  0  0  0  0  0  0  0  0
   49.5241   11.0981   82.7167 C   0  0  0  0  0  0  0  0  0  0  0  0
   49.9609    9.8881   80.7440 C   0  0  0  0  0  0  0  0  0  0  0  0
   54.7373   17.0978   82.4748 C   0  0  0  0  0  0  0  0  0  0  0  0
   51.5723   11.4870   81.5285 C   0  0  0  0  0  0  0  0  0  0  0  0
   48.7687   11.3100   83.8115 F   0  0  0  0  0  0  0  0  0  0  0  0
  1  7  1  0
  1  8  2  0
  2  7  1  0
  2 15  1  0
  2 16  1  0
  3 19  2  0
  3 20  1  0
  4  6  1  0
  4 21  2  0
  5 12  1  0
  5 13  1  0
  6 11  1  0
  6 17  2  0
  7 10  2  0
  8  9  1  0
  8 17  1  0
  9 16  1  0
  9 21  1  0
 10 12  1  0
 10 22  1  0
 13 15  1  0
 14 19  1  0
 14 22  1  0
 18 20  1  0
 18 22  2  0
 19 23  1  0
M  END
>  <ID>  (1) 
conformer_0

$$$$
