
     RDKit          3D

 31 36  0  0  0  0  0  0  0  0999 V2000
   55.8047   12.2380   80.8573 C   0  0  0  0  0  0  0  0  0  0  0  0
   56.0677   11.2706   78.5839 C   0  0  0  0  0  0  0  0  0  0  0  0
   56.5059   10.1516   79.6727 C   0  0  0  0  0  0  0  0  0  0  0  0
   53.6751   11.2173   79.7150 C   0  0  0  0  0  0  0  0  0  0  0  0
   51.2167   10.7014   80.1867 C   0  0  0  0  0  0  0  0  0  0  0  0
   52.4477   12.4913   81.3731 C   0  0  0  0  0  0  0  0  0  0  0  0
   49.8332    9.0880   81.2692 C   0  0  0  0  0  0  0  0  0  0  0  0
   54.4123   12.2629   80.3977 C   0  0  0  0  0  0  0  0  0  0  0  0
   52.3969   11.3534   80.5134 C   0  0  0  0  0  0  0  0  0  0  0  0
   48.9356   10.8163   83.1690 C   0  0  0  0  0  0  0  0  0  0  0  0
   53.8264   18.9295   84.8769 C   0  0  0  0  0  0  0  0  0  0  0  0
   54.4960   14.0248   81.9439 C   0  0  0  0  0  0  0  0  0  0  0  0
   48.5657    7.4083   82.0979 F   0  0  0  0  0  0  0  0  0  0  0  0
   52.0710   15.3635   83.0433 O   0  0  0  0  0  0  0  0  0  0  0  0
   55.8951   13.5004   81.7813 C   0  0  0  0  0  0  0  0  0  0  0  0
   54.5479   10.9949   78.4029 C   0  0  0  0  0  0  0  0  0  0  0  0
   53.5913   13.2410   81.0600 C   0  0  0  0  0  0  0  0  0  0  0  0
   52.2930   19.4073   83.8771 C   0  0  0  0  0  0  0  0  0  0  0  0
   48.4318    9.4986   83.1240 C   0  0  0  0  0  0  0  0  0  0  0  0
   56.3883   12.5748   79.4185 C   0  0  0  0  0  0  0  0  0  0  0  0
   54.4462   17.9305   82.3587 C   0  0  0  0  0  0  0  0  0  0  0  0
   52.8763   18.0799   84.1687 N   0  0  0  0  0  0  0  0  0  0  0  0
   54.1179   15.3641   81.9297 N   0  0  0  0  0  0  0  0  0  0  0  0
   50.2961   10.3675   81.2730 C   0  0  0  0  0  0  0  0  0  0  0  0
   55.9684   10.6692   81.0460 C   0  0  0  0  0  0  0  0  0  0  0  0
   53.3918   17.3012   83.1191 C   0  0  0  0  0  0  0  0  0  0  0  0
   49.8809   11.2128   82.3097 C   0  0  0  0  0  0  0  0  0  0  0  0
   50.3614   12.4890   82.5934 O   0  0  0  0  0  0  0  0  0  0  0  0
   53.1291   15.8999   82.7258 C   0  0  0  0  0  0  0  0  0  0  0  0
   48.9605    8.6864   82.1807 C   0  0  0  0  0  0  0  0  0  0  0  0
   52.9995   20.1631   84.9695 C   0  0  0  0  0  0  0  0  0  0  0  0
  1  8  1  0
  1 15  1  0
  1 20  1  0
  1 25  1  0
  2  3  1  0
  2 16  1  0
  2 20  1  0
  3 25  1  0
  4  8  1  0
  4  9  1  0
  4 16  1  0
  5  9  1  0
  5 24  1  0
  6  9  1  0
  6 17  1  0
  7 24  1  0
  7 30  2  0
  8 17  1  0
 10 19  1  0
 10 27  2  0
 11 22  1  0
 11 31  1  0
 12 15  1  0
 12 17  1  0
 12 23  1  0
 13 30  1  0
 14 29  2  0
 18 22  1  0
 18 31  1  0
 19 30  1  0
 21 26  1  0
 22 26  1  0
 23 29  1  0
 24 27  1  0
 26 29  1  0
 27 28  1  0
M  END
>  <ID>  (1) 
conformer_0

$$$$
