
     RDKit          3D

 25 26  0  0  0  0  0  0  0  0999 V2000
   52.5439   11.6358   80.6669 C   0  0  0  0  0  0  0  0  0  0  0  0
   49.4643   10.9912   82.5445 C   0  0  0  0  0  0  0  0  0  0  0  0
   49.4663   12.0434   83.3064 O   0  0  0  0  0  0  0  0  0  0  0  0
   51.7202   11.5331   81.8202 N   0  0  0  0  0  0  0  0  0  0  0  0
   50.4802    9.8502   80.6329 C   0  0  0  0  0  0  0  0  0  0  0  0
   54.5004   14.4692   82.1042 C   0  0  0  0  0  0  0  0  0  0  0  0
   54.9336   12.0269   80.8228 O   0  0  0  0  0  0  0  0  0  0  0  0
   52.6388   15.6063   83.2077 C   0  0  0  0  0  0  0  0  0  0  0  0
   48.2230    8.8347   82.1706 C   0  0  0  0  0  0  0  0  0  0  0  0
   53.5286   18.9597   83.7231 F   0  0  0  0  0  0  0  0  0  0  0  0
   49.3256    8.0516   81.8285 O   0  0  0  0  0  0  0  0  0  0  0  0
   50.4757    8.5289   81.2690 C   0  0  0  0  0  0  0  0  0  0  0  0
   56.5944   10.1703   80.3047 O   0  0  0  0  0  0  0  0  0  0  0  0
   50.5244   10.9162   81.5992 C   0  0  0  0  0  0  0  0  0  0  0  0
   55.5492   12.2741   79.4906 C   0  0  0  0  0  0  0  0  0  0  0  0
   52.3540   16.8755   83.6939 C   0  0  0  0  0  0  0  0  0  0  0  0
   53.9061   15.6488   82.5619 C   0  0  0  0  0  0  0  0  0  0  0  0
   53.6077   12.6620   80.7657 C   0  0  0  0  0  0  0  0  0  0  0  0
   54.3532   16.9837   82.6106 C   0  0  0  0  0  0  0  0  0  0  0  0
   56.0645   12.8098   80.8232 C   0  0  0  0  0  0  0  0  0  0  0  0
   51.7881   14.6386   83.3952 O   0  0  0  0  0  0  0  0  0  0  0  0
   48.2486   10.2590   82.1680 C   0  0  0  0  0  0  0  0  0  0  0  0
   53.4681   13.4283   81.9150 O   0  0  0  0  0  0  0  0  0  0  0  0
   53.4174   17.6968   83.3697 C   0  0  0  0  0  0  0  0  0  0  0  0
   56.4916   11.0767   79.2148 C   0  0  0  0  0  0  0  0  0  0  0  0
  1  4  1  0
  1 18  1  0
  2  3  1  0
  2 14  1  0
  2 22  1  0
  4 14  1  0
  5 12  1  0
  5 14  1  0
  6 17  1  0
  6 23  1  0
  7 18  1  0
  7 20  1  0
  8 16  1  0
  8 17  2  0
  8 21  1  0
  9 11  1  0
  9 22  1  0
 10 24  1  0
 11 12  1  0
 13 25  1  0
 15 20  1  0
 15 25  1  0
 16 24  1  0
 17 19  1  0
 18 23  1  0
 19 24  1  0
M  END
>  <ID>  (1) 
conformer_0

$$$$
