
     RDKit          3D

 21 24  0  0  0  0  0  0  0  0999 V2000
   52.3528   12.3253   81.4630 C   0  0  0  0  0  0  0  0  0  0  0  0
   54.4253   15.8186   82.8294 C   0  0  0  0  0  0  0  0  0  0  0  0
   50.7316   12.9997   82.9255 N   0  0  0  0  0  0  0  0  0  0  0  0
   49.2896   11.0410   82.7447 C   0  0  0  0  0  0  0  0  0  0  0  0
   52.3188   14.7149   82.7046 C   0  0  0  0  0  0  0  0  0  0  0  0
   56.0263   13.2007   80.8779 C   0  0  0  0  0  0  0  0  0  0  0  0
   54.0793   11.7402   79.6458 C   0  0  0  0  0  0  0  0  0  0  0  0
   54.7620   14.3121   82.6778 C   0  0  0  0  0  0  0  0  0  0  0  0
   54.5478   13.4365   81.3591 C   0  0  0  0  0  0  0  0  0  0  0  0
   51.9246   13.3555   82.3169 N   0  0  0  0  0  0  0  0  0  0  0  0
   50.0163    9.4453   81.0939 C   0  0  0  0  0  0  0  0  0  0  0  0
   54.8785   16.9092   82.0385 O   0  0  0  0  0  0  0  0  0  0  0  0
   52.9468   15.8877   82.9078 C   0  0  0  0  0  0  0  0  0  0  0  0
   50.3960   11.8124   82.4247 C   0  0  0  0  0  0  0  0  0  0  0  0
   51.1010   10.2147   80.8110 C   0  0  0  0  0  0  0  0  0  0  0  0
   54.3089   18.2466   82.3326 C   0  0  0  0  0  0  0  0  0  0  0  0
   49.1200    9.8627   82.0703 C   0  0  0  0  0  0  0  0  0  0  0  0
   51.3190   11.3870   81.4769 C   0  0  0  0  0  0  0  0  0  0  0  0
   52.4529   17.0617   83.5090 C   0  0  0  0  0  0  0  0  0  0  0  0
   53.3600   18.2326   83.5072 C   0  0  0  0  0  0  0  0  0  0  0  0
   53.6644   12.3510   80.8761 C   0  0  0  0  0  0  0  0  0  0  0  0
  1 10  1  0
  1 18  1  0
  1 21  1  0
  2  8  1  0
  2 12  1  0
  2 13  1  0
  3 10  1  0
  3 14  1  0
  4 14  1  0
  4 17  2  0
  5 10  1  0
  5 13  1  0
  6  9  1  0
  7 21  1  0
  8  9  1  0
  9 21  1  0
 11 15  2  0
 11 17  1  0
 12 16  1  0
 13 19  1  0
 14 18  2  0
 15 18  1  0
 16 20  1  0
 19 20  1  0
M  END
>  <ID>  (1) 
conformer_0

$$$$
