
     RDKit          3D

 33 40  0  0  0  0  0  0  0  0999 V2000
   54.6661   15.8187   82.3880 C   0  0  0  0  0  0  0  0  0  0  0  0
   55.9252   13.1046   80.9037 N   0  0  0  0  0  0  0  0  0  0  0  0
   52.2083   19.6990   83.6295 F   0  0  0  0  0  0  0  0  0  0  0  0
   49.2610    9.0110   81.1309 C   0  0  0  0  0  0  0  0  0  0  0  0
   49.5986   11.4626   82.7600 C   0  0  0  0  0  0  0  0  0  0  0  0
   53.0418   11.4842   79.4568 C   0  0  0  0  0  0  0  0  0  0  0  0
   53.1827   18.9216   84.0319 C   0  0  0  0  0  0  0  0  0  0  0  0
   54.2952   12.0152   79.7484 C   0  0  0  0  0  0  0  0  0  0  0  0
   53.8648   19.3008   85.0528 F   0  0  0  0  0  0  0  0  0  0  0  0
   56.4283   14.1798   81.5510 C   0  0  0  0  0  0  0  0  0  0  0  0
   55.5132   11.5641   79.2811 N   0  0  0  0  0  0  0  0  0  0  0  0
   52.3212   16.6671   83.5379 C   0  0  0  0  0  0  0  0  0  0  0  0
   53.5255   14.9595   82.3136 C   0  0  0  0  0  0  0  0  0  0  0  0
   50.9958   10.4762   79.9292 C   0  0  0  0  0  0  0  0  0  0  0  0
   54.5602   17.1603   82.8435 C   0  0  0  0  0  0  0  0  0  0  0  0
   52.0283   11.2856   80.4392 C   0  0  0  0  0  0  0  0  0  0  0  0
   51.2530   10.3054   78.5550 C   0  0  0  0  0  0  0  0  0  0  0  0
   49.8043    9.0920   83.4905 C   0  0  0  0  0  0  0  0  0  0  0  0
   55.9669   15.2788   82.0605 C   0  0  0  0  0  0  0  0  0  0  0  0
   50.2396   10.0539   80.9317 C   0  0  0  0  0  0  0  0  0  0  0  0
   53.3719   17.5963   83.4635 C   0  0  0  0  0  0  0  0  0  0  0  0
   49.6664   12.6153   83.0785 O   0  0  0  0  0  0  0  0  0  0  0  0
   54.4875   12.9714   80.7823 C   0  0  0  0  0  0  0  0  0  0  0  0
   50.6843   10.7541   82.1580 C   0  0  0  0  0  0  0  0  0  0  0  0
   48.1888    9.8267   81.7269 C   0  0  0  0  0  0  0  0  0  0  0  0
   51.7759   11.5913   81.7724 N   0  0  0  0  0  0  0  0  0  0  0  0
   48.7837   10.3123   83.0294 C   0  0  0  0  0  0  0  0  0  0  0  0
   51.1247    9.7712   83.2212 C   0  0  0  0  0  0  0  0  0  0  0  0
   56.5200   12.1903   80.0383 C   0  0  0  0  0  0  0  0  0  0  0  0
   49.6604    8.1092   82.3739 C   0  0  0  0  0  0  0  0  0  0  0  0
   53.6173   13.7573   81.5790 N   0  0  0  0  0  0  0  0  0  0  0  0
   52.5448   10.9494   78.2195 C   0  0  0  0  0  0  0  0  0  0  0  0
   52.4055   15.3553   82.9747 C   0  0  0  0  0  0  0  0  0  0  0  0
  1 13  1  0
  1 15  1  0
  1 19  1  0
  2 10  1  0
  2 23  1  0
  2 29  1  0
  3  7  1  0
  4 20  1  0
  4 25  1  0
  4 30  1  0
  5 22  2  0
  5 24  1  0
  5 27  1  0
  6  8  1  0
  6 16  2  0
  6 32  1  0
  7  9  1  0
  7 21  1  0
  8 11  1  0
  8 23  2  0
 10 19  2  0
 11 29  1  0
 12 21  1  0
 12 33  1  0
 13 31  1  0
 13 33  2  0
 14 16  1  0
 14 17  1  0
 14 20  2  0
 15 21  2  0
 16 26  1  0
 17 32  1  0
 18 27  1  0
 18 28  1  0
 18 30  1  0
 20 24  1  0
 23 31  1  0
 24 26  1  0
 24 28  1  0
 25 27  1  0
M  END
>  <ID>  (1) 
conformer_0

$$$$
