
     RDKit          3D

 36 43  0  0  0  0  0  0  0  0999 V2000
   51.1804   14.8435   82.6168 O   0  0  0  0  0  0  0  0  0  0  0  0
   53.0382   11.1731   81.0278 N   0  0  0  0  0  0  0  0  0  0  0  0
   50.5274    7.3584   81.8647 N   0  0  0  0  0  0  0  0  0  0  0  0
   51.2226    8.6325   81.9297 C   0  0  0  0  0  0  0  0  0  0  0  0
   55.4240   12.2152   80.4014 C   0  0  0  0  0  0  0  0  0  0  0  0
   49.2217    9.7694   82.3505 C   0  0  0  0  0  0  0  0  0  0  0  0
   53.9587   19.0601   82.4769 C   0  0  0  0  0  0  0  0  0  0  0  0
   53.0783   19.5627   84.6099 C   0  0  0  0  0  0  0  0  0  0  0  0
   57.2822   11.0542   79.2612 C   0  0  0  0  0  0  0  0  0  0  0  0
   48.7834   11.1262   82.7211 C   0  0  0  0  0  0  0  0  0  0  0  0
   53.0517   18.1706   84.9947 C   0  0  0  0  0  0  0  0  0  0  0  0
   50.5693    9.8369   82.1166 C   0  0  0  0  0  0  0  0  0  0  0  0
   54.5075   15.3527   82.1564 C   0  0  0  0  0  0  0  0  0  0  0  0
   54.9581   16.7046   82.0019 C   0  0  0  0  0  0  0  0  0  0  0  0
   50.9618   11.2618   82.1886 C   0  0  0  0  0  0  0  0  0  0  0  0
   49.1435    7.3746   81.9748 C   0  0  0  0  0  0  0  0  0  0  0  0
   52.2586   14.3886   82.6030 C   0  0  0  0  0  0  0  0  0  0  0  0
   57.7568   10.3905   78.1482 C   0  0  0  0  0  0  0  0  0  0  0  0
   52.5104   13.1074   82.0298 N   0  0  0  0  0  0  0  0  0  0  0  0
   53.5622   20.0300   83.3474 C   0  0  0  0  0  0  0  0  0  0  0  0
   53.3009   15.1864   82.9252 N   0  0  0  0  0  0  0  0  0  0  0  0
   52.6495   20.4636   85.4288 F   0  0  0  0  0  0  0  0  0  0  0  0
   54.7765   14.0883   81.5940 C   0  0  0  0  0  0  0  0  0  0  0  0
   53.5543   17.2341   84.0657 C   0  0  0  0  0  0  0  0  0  0  0  0
   55.0908   11.1626   78.2493 C   0  0  0  0  0  0  0  0  0  0  0  0
   54.0910   12.0111   80.8814 C   0  0  0  0  0  0  0  0  0  0  0  0
   52.1139   11.7769   81.7547 C   0  0  0  0  0  0  0  0  0  0  0  0
   48.4929    8.5858   82.2412 C   0  0  0  0  0  0  0  0  0  0  0  0
   54.1165   17.6861   82.8328 C   0  0  0  0  0  0  0  0  0  0  0  0
   49.8925   12.0059   82.6263 C   0  0  0  0  0  0  0  0  0  0  0  0
   55.9509   11.4799   79.3243 C   0  0  0  0  0  0  0  0  0  0  0  0
   53.7405   13.1741   81.5688 C   0  0  0  0  0  0  0  0  0  0  0  0
   53.4452   15.8003   84.2891 C   0  0  0  0  0  0  0  0  0  0  0  0
   55.6108   10.6578   77.1186 C   0  0  0  0  0  0  0  0  0  0  0  0
   55.8715   13.5048   80.9289 C   0  0  0  0  0  0  0  0  0  0  0  0
   56.9248   10.2214   77.0276 C   0  0  0  0  0  0  0  0  0  0  0  0
  1 17  2  0
  2 26  1  0
  2 27  2  0
  3  4  2  0
  3 16  1  0
  4 12  1  0
  5 26  1  0
  5 31  1  0
  5 35  1  0
  6 10  1  0
  6 12  2  0
  6 28  1  0
  7 20  1  0
  7 29  2  0
  8 11  1  0
  8 20  2  0
  8 22  1  0
  9 18  2  0
  9 31  1  0
 10 30  1  0
 11 24  2  0
 12 15  1  0
 13 14  1  0
 13 21  1  0
 13 23  1  0
 14 29  1  0
 15 27  1  0
 15 30  1  0
 16 28  2  0
 17 19  1  0
 17 21  1  0
 18 36  1  0
 19 27  1  0
 19 32  1  0
 21 33  1  0
 23 32  2  0
 23 35  1  0
 24 29  1  0
 24 33  1  0
 25 31  1  0
 25 34  2  0
 26 32  1  0
 34 36  1  0
M  END
>  <ID>  (1) 
conformer_0

$$$$
