
     RDKit          3D

 19 21  0  0  0  0  0  0  0  0999 V2000
   55.3598   13.9973   81.6467 C   0  0  0  0  0  0  0  0  0  0  0  0
   54.8347   11.9403   80.6092 C   0  0  0  0  0  0  0  0  0  0  0  0
   51.3190   11.0135   81.1841 C   0  0  0  0  0  0  0  0  0  0  0  0
   52.5940   11.0613   80.6715 C   0  0  0  0  0  0  0  0  0  0  0  0
   52.2364   16.8256   83.7241 C   0  0  0  0  0  0  0  0  0  0  0  0
   53.4748   18.9113   83.4118 F   0  0  0  0  0  0  0  0  0  0  0  0
   55.7881   12.8984   80.9437 C   0  0  0  0  0  0  0  0  0  0  0  0
   54.0159   14.1248   82.0305 C   0  0  0  0  0  0  0  0  0  0  0  0
   51.7598   13.0753   82.3162 O   0  0  0  0  0  0  0  0  0  0  0  0
   50.3896    9.8475   80.7668 C   0  0  0  0  0  0  0  0  0  0  0  0
   53.0638   13.0879   81.7919 C   0  0  0  0  0  0  0  0  0  0  0  0
   53.3090   17.5928   83.3307 C   0  0  0  0  0  0  0  0  0  0  0  0
   52.3837   15.4963   83.3324 C   0  0  0  0  0  0  0  0  0  0  0  0
   50.1917    8.9105   81.8989 C   0  0  0  0  0  0  0  0  0  0  0  0
   49.8410   11.9370   82.7942 O   0  0  0  0  0  0  0  0  0  0  0  0
   50.9677   12.0197   82.1105 C   0  0  0  0  0  0  0  0  0  0  0  0
   54.5313   16.6773   82.5572 S   0  0  0  0  0  0  0  0  0  0  0  0
   53.5520   15.2753   82.6426 C   0  0  0  0  0  0  0  0  0  0  0  0
   53.4963   12.0345   81.0119 C   0  0  0  0  0  0  0  0  0  0  0  0
  1  7  2  0
  1  8  1  0
  2  7  1  0
  2 19  1  0
  3  4  1  0
  3 10  1  0
  3 16  1  0
  4 19  2  0
  5 12  1  0
  5 13  1  0
  6 12  1  0
  8 11  2  0
  8 18  1  0
  9 11  1  0
  9 16  1  0
 10 14  1  0
 11 19  1  0
 12 17  1  0
 13 18  1  0
 15 16  2  0
 17 18  1  0
M  END
>  <ID>  (1) 
conformer_0

$$$$
