
     RDKit          3D

 24 28  0  0  0  0  0  0  0  0999 V2000
   51.3875   11.9992   81.9268 C   0  0  0  0  0  0  0  0  0  0  0  0
   52.0329   14.0934   82.9025 C   0  0  0  0  0  0  0  0  0  0  0  0
   55.7360   13.4155   81.8999 C   0  0  0  0  0  0  0  0  0  0  0  0
   48.6888    9.0077   82.0734 F   0  0  0  0  0  0  0  0  0  0  0  0
   52.2667   18.8028   83.9514 F   0  0  0  0  0  0  0  0  0  0  0  0
   51.5285   10.9231   81.1259 C   0  0  0  0  0  0  0  0  0  0  0  0
   54.3730   11.8381   80.5565 C   0  0  0  0  0  0  0  0  0  0  0  0
   50.2888   12.1309   82.7344 C   0  0  0  0  0  0  0  0  0  0  0  0
   53.4998   13.0292   81.0795 C   0  0  0  0  0  0  0  0  0  0  0  0
   52.5313   15.3496   82.6318 C   0  0  0  0  0  0  0  0  0  0  0  0
   54.7561   16.3080   82.3843 C   0  0  0  0  0  0  0  0  0  0  0  0
   54.0732   17.5805   82.6076 C   0  0  0  0  0  0  0  0  0  0  0  0
   52.0847   16.4505   83.4446 C   0  0  0  0  0  0  0  0  0  0  0  0
   54.3077   13.8273   82.1162 C   0  0  0  0  0  0  0  0  0  0  0  0
   53.8444   15.1644   82.1794 N   0  0  0  0  0  0  0  0  0  0  0  0
   54.7199   11.6355   79.0641 C   0  0  0  0  0  0  0  0  0  0  0  0
   54.4500   18.6847   81.9853 O   0  0  0  0  0  0  0  0  0  0  0  0
   52.8640   17.6448   83.4047 C   0  0  0  0  0  0  0  0  0  0  0  0
   49.3688   11.1454   82.7408 C   0  0  0  0  0  0  0  0  0  0  0  0
   52.3584   13.1015   81.9969 C   0  0  0  0  0  0  0  0  0  0  0  0
   50.6400    9.9180   81.1432 C   0  0  0  0  0  0  0  0  0  0  0  0
   56.1793   12.3200   79.2744 C   0  0  0  0  0  0  0  0  0  0  0  0
   49.5578   10.0214   81.9887 C   0  0  0  0  0  0  0  0  0  0  0  0
   55.8664   12.4035   80.7568 C   0  0  0  0  0  0  0  0  0  0  0  0
  1  6  2  0
  1  8  1  0
  1 20  1  0
  2 10  1  0
  2 20  1  0
  3 14  1  0
  3 24  1  0
  4 23  1  0
  5 18  1  0
  6 21  1  0
  7  9  1  0
  7 16  1  0
  7 24  1  0
  8 19  2  0
  9 14  1  0
  9 20  1  0
 10 13  1  0
 10 15  1  0
 11 12  1  0
 11 15  1  0
 12 17  1  0
 12 18  1  0
 13 18  2  0
 14 15  1  0
 16 22  1  0
 19 23  1  0
 21 23  2  0
 22 24  1  0
M  END
>  <ID>  (1) 
conformer_0

$$$$
