
     RDKit          3D

 21 23  0  0  0  0  0  0  0  0999 V2000
   53.4748   12.6724   81.2478 C   0  0  0  0  0  0  0  0  0  0  0  0
   50.3526   11.6849   82.9459 N   0  0  0  0  0  0  0  0  0  0  0  0
   55.5247   11.0949   80.1447 C   0  0  0  0  0  0  0  0  0  0  0  0
   52.1854   17.8012   84.1129 C   0  0  0  0  0  0  0  0  0  0  0  0
   50.4824   10.3508   80.6924 C   0  0  0  0  0  0  0  0  0  0  0  0
   53.9045   16.5439   82.3043 C   0  0  0  0  0  0  0  0  0  0  0  0
   53.2453   18.4662   83.5260 C   0  0  0  0  0  0  0  0  0  0  0  0
   52.8312   15.8595   82.8666 C   0  0  0  0  0  0  0  0  0  0  0  0
   50.4162   10.2662   83.1832 C   0  0  0  0  0  0  0  0  0  0  0  0
   54.0940   17.8417   82.6488 C   0  0  0  0  0  0  0  0  0  0  0  0
   51.3372   12.5097   82.3786 C   0  0  0  0  0  0  0  0  0  0  0  0
   48.8280    8.9978   81.8397 C   0  0  0  0  0  0  0  0  0  0  0  0
   53.5239   13.9020   81.7661 C   0  0  0  0  0  0  0  0  0  0  0  0
   51.4575   13.7748   82.8757 O   0  0  0  0  0  0  0  0  0  0  0  0
   52.1933   12.0361   81.4120 C   0  0  0  0  0  0  0  0  0  0  0  0
   54.8213   12.2342   80.6591 C   0  0  0  0  0  0  0  0  0  0  0  0
   52.5787   14.4824   82.5023 C   0  0  0  0  0  0  0  0  0  0  0  0
   51.9794   16.4688   83.7807 O   0  0  0  0  0  0  0  0  0  0  0  0
   50.2722    9.4409   81.9055 C   0  0  0  0  0  0  0  0  0  0  0  0
   51.7708   10.9255   80.5240 C   0  0  0  0  0  0  0  0  0  0  0  0
   55.9597   13.1803   81.1563 C   0  0  0  0  0  0  0  0  0  0  0  0
  1 13  1  0
  1 15  1  0
  1 16  2  3
  2  9  1  0
  2 11  1  0
  3 16  1  0
  4  7  2  0
  4 18  1  0
  5 19  1  0
  5 20  1  0
  6  8  1  0
  6 10  2  0
  7 10  1  0
  8 17  1  0
  8 18  1  0
  9 19  1  0
 11 14  1  0
 11 15  1  0
 12 19  1  0
 13 17  2  0
 14 17  1  0
 15 20  2  0
 16 21  1  0
M  END
>  <ID>  (1) 
conformer_0

$$$$
