
     RDKit          3D

 26 29  0  0  0  0  0  0  0  0999 V2000
   53.4419   11.6301   80.9568 C   0  0  0  0  0  0  0  0  0  0  0  0
   56.3191   11.3423   79.5730 C   0  0  0  0  0  0  0  0  0  0  0  0
   55.2805   15.7926   82.1715 C   0  0  0  0  0  0  0  0  0  0  0  0
   49.3081    8.8442   81.7521 C   0  0  0  0  0  0  0  0  0  0  0  0
   49.1366   10.9935   82.8600 C   0  0  0  0  0  0  0  0  0  0  0  0
   52.3950   13.4912   81.8310 C   0  0  0  0  0  0  0  0  0  0  0  0
   52.5482   15.8129   82.9437 C   0  0  0  0  0  0  0  0  0  0  0  0
   54.6807   12.1947   80.7272 C   0  0  0  0  0  0  0  0  0  0  0  0
   51.2195   11.2893   81.7185 C   0  0  0  0  0  0  0  0  0  0  0  0
   48.7234    9.7629   82.5570 C   0  0  0  0  0  0  0  0  0  0  0  0
   50.4801    9.0541   81.0859 C   0  0  0  0  0  0  0  0  0  0  0  0
   52.3543   12.1456   81.5243 C   0  0  0  0  0  0  0  0  0  0  0  0
   51.2434   10.0971   81.0885 C   0  0  0  0  0  0  0  0  0  0  0  0
   55.7499   14.2931   82.2813 C   0  0  0  0  0  0  0  0  0  0  0  0
   53.5269   14.1324   81.4045 N   0  0  0  0  0  0  0  0  0  0  0  0
   53.4686   18.8369   84.6663 C   0  0  0  0  0  0  0  0  0  0  0  0
   53.8547   17.7569   82.5285 C   0  0  0  0  0  0  0  0  0  0  0  0
   54.6055   18.4865   81.7987 O   0  0  0  0  0  0  0  0  0  0  0  0
   50.2295   11.7512   82.5607 C   0  0  0  0  0  0  0  0  0  0  0  0
   55.8446   11.3099   80.9844 O   0  0  0  0  0  0  0  0  0  0  0  0
   53.7790   16.3166   82.2311 C   0  0  0  0  0  0  0  0  0  0  0  0
   54.8016   13.5321   81.3433 C   0  0  0  0  0  0  0  0  0  0  0  0
   50.3125   12.8924   83.1349 F   0  0  0  0  0  0  0  0  0  0  0  0
   52.8669   18.1219   83.5084 C   0  0  0  0  0  0  0  0  0  0  0  0
   55.0743   12.1414   79.2004 C   0  0  0  0  0  0  0  0  0  0  0  0
   52.1593   16.8412   83.9373 C   0  0  0  0  0  0  0  0  0  0  0  0
  1  8  1  0
  1 12  2  0
  2 20  1  0
  2 25  1  0
  3 14  1  0
  3 21  1  0
  4 10  2  0
  4 11  1  0
  5 10  1  0
  5 19  2  0
  6 12  1  0
  6 15  1  0
  7 21  1  0
  7 26  1  0
  8 20  1  0
  8 22  1  0
  8 25  1  0
  9 12  1  0
  9 13  1  0
  9 19  1  0
 11 13  2  0
 14 22  1  0
 15 22  1  0
 16 24  1  0
 17 18  2  0
 17 21  1  0
 17 24  1  0
 19 23  1  0
 24 26  1  0
M  END
>  <ID>  (1) 
conformer_0

$$$$
