
     RDKit          3D

 28 31  0  0  0  0  0  0  0  0999 V2000
   54.0007   16.5622   82.8543 C   0  0  0  0  0  0  0  0  0  0  0  0
   56.5728    9.7601   79.2180 O   0  0  0  0  0  0  0  0  0  0  0  0
   54.2313   14.5269   82.1702 C   0  0  0  0  0  0  0  0  0  0  0  0
   49.3894   11.4928   82.6227 C   0  0  0  0  0  0  0  0  0  0  0  0
   49.5968   10.7025   83.8733 C   0  0  0  0  0  0  0  0  0  0  0  0
   55.1262   13.5078   81.4065 C   0  0  0  0  0  0  0  0  0  0  0  0
   49.1557    9.0075   81.9955 C   0  0  0  0  0  0  0  0  0  0  0  0
   57.0992   12.0695   79.0142 C   0  0  0  0  0  0  0  0  0  0  0  0
   52.6837   16.0698   82.9918 O   0  0  0  0  0  0  0  0  0  0  0  0
   50.7714   10.1678   80.6707 C   0  0  0  0  0  0  0  0  0  0  0  0
   54.8276   11.3690   78.5738 C   0  0  0  0  0  0  0  0  0  0  0  0
   54.2720   18.6297   81.8057 O   0  0  0  0  0  0  0  0  0  0  0  0
   56.3796   10.8591   78.3207 C   0  0  0  0  0  0  0  0  0  0  0  0
   54.1305   18.0293   83.0188 C   0  0  0  0  0  0  0  0  0  0  0  0
   56.2576   12.4567   80.2048 C   0  0  0  0  0  0  0  0  0  0  0  0
   52.1481   13.0855   82.1370 C   0  0  0  0  0  0  0  0  0  0  0  0
   54.0159   12.8817   80.4471 C   0  0  0  0  0  0  0  0  0  0  0  0
   52.8878   18.3278   83.8497 C   0  0  0  0  0  0  0  0  0  0  0  0
   54.7626   15.8545   81.9685 O   0  0  0  0  0  0  0  0  0  0  0  0
   48.5357   10.4183   82.0312 C   0  0  0  0  0  0  0  0  0  0  0  0
   50.8754   11.9712   82.2830 C   0  0  0  0  0  0  0  0  0  0  0  0
   52.7709   14.5995   82.2813 C   0  0  0  0  0  0  0  0  0  0  0  0
   52.0145   17.1441   83.8048 C   0  0  0  0  0  0  0  0  0  0  0  0
   50.6753    9.2691   81.7737 C   0  0  0  0  0  0  0  0  0  0  0  0
   51.4564   10.5019   81.9431 C   0  0  0  0  0  0  0  0  0  0  0  0
   55.6488   12.6702   82.4653 O   0  0  0  0  0  0  0  0  0  0  0  0
   54.9305   11.7643   79.9687 C   0  0  0  0  0  0  0  0  0  0  0  0
   53.0748   12.3213   81.3654 O   0  0  0  0  0  0  0  0  0  0  0  0
  1  9  1  0
  1 14  1  0
  1 19  1  0
  2 13  1  0
  3  6  1  0
  3 19  1  0
  3 22  1  0
  4  5  1  0
  4 20  1  0
  4 21  1  0
  6 17  1  0
  6 26  1  0
  7 20  1  0
  7 24  1  0
  8 13  1  0
  8 15  1  0
  9 23  1  0
 10 24  1  0
 11 13  1  0
 11 27  1  0
 12 14  1  0
 14 18  1  0
 15 27  1  0
 16 21  1  0
 16 22  1  0
 16 28  1  0
 17 27  1  0
 17 28  1  0
 18 23  1  0
 21 25  2  0
 24 25  1  0
M  END
>  <ID>  (1) 
conformer_0

$$$$
