
     RDKit          3D

 27 32  0  0  0  0  0  0  0  0999 V2000
   52.8839   14.7362   82.4514 C   0  0  0  0  0  0  0  0  0  0  0  0
   55.6281   10.7221   81.1979 O   0  0  0  0  0  0  0  0  0  0  0  0
   52.5737   18.4239   83.8273 C   0  0  0  0  0  0  0  0  0  0  0  0
   49.1645   10.8315   82.6050 C   0  0  0  0  0  0  0  0  0  0  0  0
   54.6201   11.3930   78.8499 C   0  0  0  0  0  0  0  0  0  0  0  0
   51.8482   17.1538   83.8086 C   0  0  0  0  0  0  0  0  0  0  0  0
   56.6236   13.7736   81.3462 C   0  0  0  0  0  0  0  0  0  0  0  0
   52.2968   13.3324   82.1199 C   0  0  0  0  0  0  0  0  0  0  0  0
   48.8910    8.4343   81.9408 C   0  0  0  0  0  0  0  0  0  0  0  0
   55.0625   13.9122   81.0421 C   0  0  0  0  0  0  0  0  0  0  0  0
   54.3961   12.6624   80.8547 N   0  0  0  0  0  0  0  0  0  0  0  0
   54.9323   16.1168   82.1920 C   0  0  0  0  0  0  0  0  0  0  0  0
   53.8322   18.2558   83.0385 C   0  0  0  0  0  0  0  0  0  0  0  0
   56.0037   12.1744   79.1362 C   0  0  0  0  0  0  0  0  0  0  0  0
   54.3042   18.8044   81.8773 O   0  0  0  0  0  0  0  0  0  0  0  0
   51.2964   11.1635   81.8848 C   0  0  0  0  0  0  0  0  0  0  0  0
   50.2833    8.8457   81.6846 C   0  0  0  0  0  0  0  0  0  0  0  0
   52.5263   11.1833   81.2633 C   0  0  0  0  0  0  0  0  0  0  0  0
   53.1428   12.4377   81.3886 C   0  0  0  0  0  0  0  0  0  0  0  0
   51.0137   12.4365   82.4151 C   0  0  0  0  0  0  0  0  0  0  0  0
   55.1842   11.5635   80.1988 C   0  0  0  0  0  0  0  0  0  0  0  0
   54.2744   14.7823   81.9523 C   0  0  0  0  0  0  0  0  0  0  0  0
   49.6883   12.2596   82.8963 O   0  0  0  0  0  0  0  0  0  0  0  0
   53.9697   16.8082   83.0240 C   0  0  0  0  0  0  0  0  0  0  0  0
   48.1524    9.7066   82.1653 C   0  0  0  0  0  0  0  0  0  0  0  0
   52.6908   16.1444   83.0252 N   0  0  0  0  0  0  0  0  0  0  0  0
   50.3996   10.1764   82.0691 C   0  0  0  0  0  0  0  0  0  0  0  0
  1  8  1  0
  1 22  2  0
  1 26  1  0
  2 21  1  0
  3  6  1  0
  3 13  1  0
  4 23  1  0
  4 25  1  0
  4 27  1  0
  5 21  1  0
  6 26  1  0
  7 10  1  0
  8 19  2  0
  8 20  1  0
  9 17  1  0
  9 25  1  0
 10 11  1  0
 10 22  1  0
 11 19  1  0
 11 21  1  0
 12 22  1  0
 12 24  1  0
 13 15  1  0
 13 24  1  0
 14 21  1  0
 16 18  1  0
 16 20  1  0
 16 27  2  0
 17 27  1  0
 18 19  1  0
 20 23  1  0
 24 26  1  0
M  END
>  <ID>  (1) 
conformer_0

$$$$
