
     RDKit          3D

 25 29  0  0  0  0  0  0  0  0999 V2000
   48.6148   10.1982   81.4462 C   0  0  0  0  0  0  0  0  0  0  0  0
   52.6225   16.6129   83.3436 C   0  0  0  0  0  0  0  0  0  0  0  0
   55.2149   12.6063   81.4341 C   0  0  0  0  0  0  0  0  0  0  0  0
   48.9629   10.6958   82.8571 C   0  0  0  0  0  0  0  0  0  0  0  0
   53.2760   11.5162   80.2740 C   0  0  0  0  0  0  0  0  0  0  0  0
   53.8072   17.1834   82.8734 C   0  0  0  0  0  0  0  0  0  0  0  0
   50.8955   11.7991   81.7972 C   0  0  0  0  0  0  0  0  0  0  0  0
   52.9099   13.3330   81.8472 N   0  0  0  0  0  0  0  0  0  0  0  0
   53.7663   12.7645   80.9940 C   0  0  0  0  0  0  0  0  0  0  0  0
   55.7826   11.5409   80.3600 C   0  0  0  0  0  0  0  0  0  0  0  0
   51.0459   10.3728   81.4861 C   0  0  0  0  0  0  0  0  0  0  0  0
   49.8307    9.5940   83.4623 C   0  0  0  0  0  0  0  0  0  0  0  0
   49.8736    9.8804   80.6996 C   0  0  0  0  0  0  0  0  0  0  0  0
   55.6405   13.9946   82.0168 C   0  0  0  0  0  0  0  0  0  0  0  0
   51.1430    9.5699   82.7591 C   0  0  0  0  0  0  0  0  0  0  0  0
   51.7490   17.3148   84.1184 O   0  0  0  0  0  0  0  0  0  0  0  0
   49.8264   11.9021   82.8181 C   0  0  0  0  0  0  0  0  0  0  0  0
   53.2478   14.5607   82.4166 C   0  0  0  0  0  0  0  0  0  0  0  0
   54.5472   15.0220   82.2387 C   0  0  0  0  0  0  0  0  0  0  0  0
   53.9774   18.6595   82.8808 C   0  0  0  0  0  0  0  0  0  0  0  0
   56.9210   12.3976   79.6656 C   0  0  0  0  0  0  0  0  0  0  0  0
   54.8294   16.3864   82.3647 C   0  0  0  0  0  0  0  0  0  0  0  0
   52.3116   15.2944   83.0975 C   0  0  0  0  0  0  0  0  0  0  0  0
   54.5703   11.4085   79.3356 C   0  0  0  0  0  0  0  0  0  0  0  0
   51.8545   11.3415   80.8070 C   0  0  0  0  0  0  0  0  0  0  0  0
  1  4  1  0
  1 13  1  0
  2  6  1  0
  2 16  1  0
  2 23  2  0
  3  9  1  0
  3 10  1  0
  3 14  1  0
  4 12  1  0
  4 17  1  0
  5  9  1  0
  5 24  1  0
  5 25  1  0
  6 20  1  0
  6 22  1  0
  7 17  1  0
  7 25  1  0
  8  9  1  0
  8 18  2  0
 10 21  1  0
 10 24  1  0
 11 13  1  0
 11 15  1  0
 11 25  1  0
 12 15  1  0
 14 19  1  0
 18 19  1  0
 18 23  1  0
 19 22  2  0
M  END
>  <ID>  (1) 
conformer_0

$$$$
