
     RDKit          3D

 25 27  0  0  0  0  0  0  0  0999 V2000
   48.6965    9.5004   82.3774 C   0  0  0  0  0  0  0  0  0  0  0  0
   56.4768   13.8641   82.3649 F   0  0  0  0  0  0  0  0  0  0  0  0
   50.7839   11.2389   81.9377 C   0  0  0  0  0  0  0  0  0  0  0  0
   53.3891   18.9992   84.0933 C   0  0  0  0  0  0  0  0  0  0  0  0
   52.8267   11.6196   80.8453 N   0  0  0  0  0  0  0  0  0  0  0  0
   54.7448   15.7621   82.5567 C   0  0  0  0  0  0  0  0  0  0  0  0
   52.1719   19.6746   83.6662 O   0  0  0  0  0  0  0  0  0  0  0  0
   51.9021   12.1406   81.7086 C   0  0  0  0  0  0  0  0  0  0  0  0
   55.1140   13.4638   81.5845 C   0  0  0  0  0  0  0  0  0  0  0  0
   56.9444   12.4111   80.3567 O   0  0  0  0  0  0  0  0  0  0  0  0
   49.7232   11.6465   82.7372 C   0  0  0  0  0  0  0  0  0  0  0  0
   55.5718   12.4736   80.4906 C   0  0  0  0  0  0  0  0  0  0  0  0
   49.7389    9.1202   81.5549 C   0  0  0  0  0  0  0  0  0  0  0  0
   53.4669   17.5982   83.6609 C   0  0  0  0  0  0  0  0  0  0  0  0
   54.9173   11.5382   79.6794 N   0  0  0  0  0  0  0  0  0  0  0  0
   52.7130   14.4302   82.2902 N   0  0  0  0  0  0  0  0  0  0  0  0
   54.3073   17.1694   82.5294 C   0  0  0  0  0  0  0  0  0  0  0  0
   50.7634    9.9986   81.3520 C   0  0  0  0  0  0  0  0  0  0  0  0
   52.1976   15.5250   83.0244 N   0  0  0  0  0  0  0  0  0  0  0  0
   54.0739   14.5763   81.9191 C   0  0  0  0  0  0  0  0  0  0  0  0
   52.2476   16.7571   83.7556 C   0  0  0  0  0  0  0  0  0  0  0  0
   55.6502   10.8063   78.8045 O   0  0  0  0  0  0  0  0  0  0  0  0
   48.7059   10.7579   82.9479 C   0  0  0  0  0  0  0  0  0  0  0  0
   53.5098   11.4779   79.6696 C   0  0  0  0  0  0  0  0  0  0  0  0
   51.9986   13.3439   82.2787 N   0  0  0  0  0  0  0  0  0  0  0  0
  1 13  1  0
  1 23  1  0
  2  9  1  0
  3  8  1  0
  3 11  1  0
  3 18  1  0
  4  7  1  0
  4 14  1  0
  5  8  1  0
  5 24  1  0
  6 17  1  0
  6 20  1  0
  8 25  2  0
  9 12  1  0
  9 20  1  0
 10 12  2  0
 11 23  2  0
 12 15  1  0
 13 18  2  0
 14 17  1  0
 14 21  2  0
 15 22  1  0
 15 24  1  0
 16 19  1  0
 16 20  1  0
 16 25  1  0
 19 21  1  0
M  END
>  <ID>  (1) 
conformer_0

$$$$
