
     RDKit          3D

 30 34  0  0  0  0  0  0  0  0999 V2000
   51.8383   12.3585   81.6035 C   0  0  0  0  0  0  0  0  0  0  0  0
   50.7669   12.1763   82.4675 C   0  0  0  0  0  0  0  0  0  0  0  0
   48.5634    8.6780   82.2368 C   0  0  0  0  0  0  0  0  0  0  0  0
   56.6634   10.2354   79.7409 C   0  0  0  0  0  0  0  0  0  0  0  0
   47.8158    7.4321   82.1967 C   0  0  0  0  0  0  0  0  0  0  0  0
   54.9117   17.0757   82.4370 C   0  0  0  0  0  0  0  0  0  0  0  0
   52.1587   19.3708   83.5324 F   0  0  0  0  0  0  0  0  0  0  0  0
   49.7092    8.8370   81.5157 C   0  0  0  0  0  0  0  0  0  0  0  0
   48.8358   10.9086   82.9673 C   0  0  0  0  0  0  0  0  0  0  0  0
   53.5345   18.4981   84.9479 F   0  0  0  0  0  0  0  0  0  0  0  0
   52.1955   14.5832   82.5994 N   0  0  0  0  0  0  0  0  0  0  0  0
   56.6190   11.6910   79.3306 C   0  0  0  0  0  0  0  0  0  0  0  0
   56.1474   14.4827   81.7761 C   0  0  0  0  0  0  0  0  0  0  0  0
   54.1801   15.8447   82.4199 C   0  0  0  0  0  0  0  0  0  0  0  0
   55.9949   12.5985   80.4177 C   0  0  0  0  0  0  0  0  0  0  0  0
   52.6686   11.6287   79.3559 F   0  0  0  0  0  0  0  0  0  0  0  0
   52.2905   16.9509   83.5287 C   0  0  0  0  0  0  0  0  0  0  0  0
   52.7997   15.8190   82.6939 C   0  0  0  0  0  0  0  0  0  0  0  0
   51.3000   10.2712   80.4861 C   0  0  0  0  0  0  0  0  0  0  0  0
   52.0018   11.4769   80.5410 C   0  0  0  0  0  0  0  0  0  0  0  0
   54.0044   13.5726   81.4256 C   0  0  0  0  0  0  0  0  0  0  0  0
   48.1446    9.7483   82.9008 N   0  0  0  0  0  0  0  0  0  0  0  0
   49.9987   11.0751   82.2630 N   0  0  0  0  0  0  0  0  0  0  0  0
   52.6194   13.5603   81.8304 C   0  0  0  0  0  0  0  0  0  0  0  0
   56.7938   13.4683   81.1361 N   0  0  0  0  0  0  0  0  0  0  0  0
   54.6091   12.5937   80.6810 C   0  0  0  0  0  0  0  0  0  0  0  0
   54.1983   18.3079   82.7421 C   0  0  0  0  0  0  0  0  0  0  0  0
   53.0145   18.2587   83.6896 C   0  0  0  0  0  0  0  0  0  0  0  0
   50.3358   10.0736   81.4382 C   0  0  0  0  0  0  0  0  0  0  0  0
   54.7568   14.6451   81.8942 N   0  0  0  0  0  0  0  0  0  0  0  0
  1  2  2  0
  1 20  1  0
  1 24  1  0
  2 23  1  0
  3  5  1  0
  3  8  1  0
  3 22  2  0
  4 12  1  0
  6 14  2  0
  6 27  1  0
  7 28  1  0
  8 29  1  0
  9 22  1  0
  9 23  1  0
 10 28  1  0
 11 18  1  0
 11 24  1  0
 12 15  1  0
 13 25  2  0
 13 30  1  0
 14 18  1  0
 14 30  1  0
 15 25  1  0
 15 26  2  0
 16 20  1  0
 17 18  1  0
 17 28  1  0
 19 20  1  0
 19 29  2  0
 21 24  2  0
 21 26  1  0
 21 30  1  0
 23 29  1  0
 27 28  1  0
M  END
>  <ID>  (1) 
conformer_0

$$$$
