
     RDKit          3D

 24 27  0  0  0  0  0  0  0  0999 V2000
   53.9184   13.0904   81.3124 C   0  0  0  0  0  0  0  0  0  0  0  0
   53.6239   11.8028   80.8872 C   0  0  0  0  0  0  0  0  0  0  0  0
   50.1699    8.8511   81.3977 C   0  0  0  0  0  0  0  0  0  0  0  0
   52.4187   11.4032   80.5813 N   0  0  0  0  0  0  0  0  0  0  0  0
   54.5980   10.8622   80.5775 C   0  0  0  0  0  0  0  0  0  0  0  0
   54.6667   15.9948   82.4391 C   0  0  0  0  0  0  0  0  0  0  0  0
   49.7991   11.5049   82.9731 C   0  0  0  0  0  0  0  0  0  0  0  0
   52.2689   17.1662   83.5417 C   0  0  0  0  0  0  0  0  0  0  0  0
   51.6509   13.1098   82.3611 C   0  0  0  0  0  0  0  0  0  0  0  0
   53.8541   18.7764   84.4548 F   0  0  0  0  0  0  0  0  0  0  0  0
   53.3555   15.1635   82.5300 C   0  0  0  0  0  0  0  0  0  0  0  0
   49.2671    9.1198   82.3977 C   0  0  0  0  0  0  0  0  0  0  0  0
   56.1435   12.6456   80.5503 C   0  0  0  0  0  0  0  0  0  0  0  0
   55.1894   13.5594   81.0147 C   0  0  0  0  0  0  0  0  0  0  0  0
   49.3321   12.4376   83.7779 F   0  0  0  0  0  0  0  0  0  0  0  0
   50.9258   11.9304   82.2417 C   0  0  0  0  0  0  0  0  0  0  0  0
   54.4250   17.5360   82.3495 C   0  0  0  0  0  0  0  0  0  0  0  0
   55.8689   11.2932   80.4091 C   0  0  0  0  0  0  0  0  0  0  0  0
   52.4576   15.7832   83.3784 N   0  0  0  0  0  0  0  0  0  0  0  0
   49.1737   10.3219   82.9855 C   0  0  0  0  0  0  0  0  0  0  0  0
   51.0091    9.7637   80.9742 C   0  0  0  0  0  0  0  0  0  0  0  0
   51.3993   10.9935   81.2774 C   0  0  0  0  0  0  0  0  0  0  0  0
   53.3648   18.0955   83.2685 C   0  0  0  0  0  0  0  0  0  0  0  0
   52.8595   13.8034   82.0654 C   0  0  0  0  0  0  0  0  0  0  0  0
  1  2  1  0
  1 14  2  0
  1 24  1  0
  2  4  1  0
  2  5  1  0
  3 12  2  0
  3 21  1  0
  4 22  1  0
  5 18  2  0
  6 11  1  0
  6 17  1  0
  7 15  1  0
  7 16  1  0
  7 20  2  0
  8 19  1  0
  8 23  1  0
  9 16  2  0
  9 24  1  0
 10 23  1  0
 11 19  1  0
 11 24  2  3
 12 20  1  0
 13 14  1  0
 13 18  1  0
 16 22  1  0
 17 23  1  0
 21 22  2  0
M  END
>  <ID>  (1) 
conformer_0

$$$$
