
     RDKit          3D

 30 32  0  0  0  0  0  0  0  0999 V2000
   54.6050   13.7865   80.8406 N   0  0  0  0  0  0  0  0  0  0  0  0
   54.0582   18.4447   81.7632 O   0  0  0  0  0  0  0  0  0  0  0  0
   54.5132   11.8238   79.6758 C   0  0  0  0  0  0  0  0  0  0  0  0
   56.0780   14.7102   82.2703 O   0  0  0  0  0  0  0  0  0  0  0  0
   57.8554   10.6545   78.7810 C   0  0  0  0  0  0  0  0  0  0  0  0
   51.0895   10.4119   80.6159 C   0  0  0  0  0  0  0  0  0  0  0  0
   52.1481   17.1544   84.6064 C   0  0  0  0  0  0  0  0  0  0  0  0
   50.4262    9.3179   80.6121 C   0  0  0  0  0  0  0  0  0  0  0  0
   56.6175   11.3450   79.3455 C   0  0  0  0  0  0  0  0  0  0  0  0
   50.0833   14.0800   87.6753 C   0  0  0  0  0  0  0  0  0  0  0  0
   51.0331   15.6278   86.6209 C   0  0  0  0  0  0  0  0  0  0  0  0
   49.5429    8.9440   81.6151 C   0  0  0  0  0  0  0  0  0  0  0  0
   54.4954   16.7097   83.1494 C   0  0  0  0  0  0  0  0  0  0  0  0
   49.2107    9.6736   82.6931 C   0  0  0  0  0  0  0  0  0  0  0  0
   53.0819   11.7719   79.8874 C   0  0  0  0  0  0  0  0  0  0  0  0
   55.3701   11.0260   78.9930 N   0  0  0  0  0  0  0  0  0  0  0  0
   50.5712   15.4151   87.9343 C   0  0  0  0  0  0  0  0  0  0  0  0
   52.6522   15.1511   82.9179 C   0  0  0  0  0  0  0  0  0  0  0  0
   52.5108   12.2669   81.1651 C   0  0  0  0  0  0  0  0  0  0  0  0
   52.6869   18.2656   83.8931 C   0  0  0  0  0  0  0  0  0  0  0  0
   51.5320   14.9857   85.5796 C   0  0  0  0  0  0  0  0  0  0  0  0
   54.9060   14.7255   81.7815 C   0  0  0  0  0  0  0  0  0  0  0  0
   55.2699   12.7354   80.3509 C   0  0  0  0  0  0  0  0  0  0  0  0
   56.5907   12.3805   80.2323 N   0  0  0  0  0  0  0  0  0  0  0  0
   50.4887   11.7499   82.5503 C   0  0  0  0  0  0  0  0  0  0  0  0
   53.9494   18.0547   83.0527 C   0  0  0  0  0  0  0  0  0  0  0  0
   49.5773   10.9276   83.0943 C   0  0  0  0  0  0  0  0  0  0  0  0
   51.2865   11.4666   81.4696 C   0  0  0  0  0  0  0  0  0  0  0  0
   53.8405   15.7912   82.0795 C   0  0  0  0  0  0  0  0  0  0  0  0
   52.3062   15.7496   84.3323 C   0  0  0  0  0  0  0  0  0  0  0  0
  1 22  1  0
  1 23  2  3
  2 26  1  0
  3 15  1  0
  3 16  1  0
  3 23  1  0
  4 22  2  0
  5  9  1  0
  6  8  2  0
  6 28  1  0
  7 20  1  0
  7 30  1  0
  8 12  1  0
  9 16  2  0
  9 24  1  0
 10 17  1  0
 11 17  1  0
 11 21  2  3
 12 14  2  0
 13 26  1  0
 13 29  1  0
 14 27  1  0
 15 19  1  0
 18 29  1  0
 18 30  1  0
 19 28  1  0
 20 26  1  0
 21 30  1  0
 22 29  1  0
 23 24  1  0
 25 27  2  0
 25 28  1  0
M  END
>  <ID>  (1) 
conformer_0

$$$$
