
     RDKit          3D

 21 22  0  0  0  0  0  0  0  0999 V2000
   52.0953   11.4213   80.6459 C   0  0  0  0  0  0  0  0  0  0  0  0
   53.8284   16.4750   83.2684 N   0  0  0  0  0  0  0  0  0  0  0  0
   54.0811   12.8002   80.3503 C   0  0  0  0  0  0  0  0  0  0  0  0
   51.1717   10.3914   80.6146 C   0  0  0  0  0  0  0  0  0  0  0  0
   48.5126    8.7989   82.4293 C   0  0  0  0  0  0  0  0  0  0  0  0
   53.8598   14.2167   82.4089 C   0  0  0  0  0  0  0  0  0  0  0  0
   53.6965   17.8353   83.1037 C   0  0  0  0  0  0  0  0  0  0  0  0
   55.1854   14.8692   81.8765 C   0  0  0  0  0  0  0  0  0  0  0  0
   56.8717   13.1748   81.0720 O   0  0  0  0  0  0  0  0  0  0  0  0
   54.3383   18.3911   82.0936 O   0  0  0  0  0  0  0  0  0  0  0  0
   56.3291   13.9215   82.1682 C   0  0  0  0  0  0  0  0  0  0  0  0
   53.0783   15.3818   82.9497 C   0  0  0  0  0  0  0  0  0  0  0  0
   49.2646    9.3173   81.3925 O   0  0  0  0  0  0  0  0  0  0  0  0
   50.1419   10.3384   81.5168 C   0  0  0  0  0  0  0  0  0  0  0  0
   52.0505   15.1009   83.6257 O   0  0  0  0  0  0  0  0  0  0  0  0
   53.2938   11.6167   79.7674 C   0  0  0  0  0  0  0  0  0  0  0  0
   50.0694   11.3932   82.4534 C   0  0  0  0  0  0  0  0  0  0  0  0
   53.3907   18.6317   84.2972 C   0  0  0  0  0  0  0  0  0  0  0  0
   52.0485   12.4282   81.5576 C   0  0  0  0  0  0  0  0  0  0  0  0
   53.1927   13.3886   81.3807 N   0  0  0  0  0  0  0  0  0  0  0  0
   50.9985   12.4229   82.4645 C   0  0  0  0  0  0  0  0  0  0  0  0
  1  4  2  0
  1 16  1  0
  1 19  1  0
  2  7  1  0
  2 12  1  0
  3 16  1  0
  3 20  1  0
  4 14  1  0
  5 13  1  0
  6  8  1  0
  6 12  1  0
  6 20  1  0
  7 10  2  0
  7 18  1  0
  8 11  1  0
  9 11  1  0
 12 15  2  0
 13 14  1  0
 14 17  2  0
 17 21  1  0
 19 20  1  0
 19 21  2  0
M  END
>  <ID>  (1) 
conformer_0

$$$$
