
     RDKit          3D

 24 27  0  0  0  0  0  0  0  0999 V2000
   50.3459   11.6904   82.2116 C   0  0  0  0  0  0  0  0  0  0  0  0
   53.0009   14.0875   82.3149 C   0  0  0  0  0  0  0  0  0  0  0  0
   51.3777   15.9646   82.9150 O   0  0  0  0  0  0  0  0  0  0  0  0
   48.7615    9.7670   82.3797 C   0  0  0  0  0  0  0  0  0  0  0  0
   49.2146   11.0460   82.4823 C   0  0  0  0  0  0  0  0  0  0  0  0
   53.7473   18.6341   82.6945 C   0  0  0  0  0  0  0  0  0  0  0  0
   51.4819   11.1850   81.6545 C   0  0  0  0  0  0  0  0  0  0  0  0
   54.5625   17.3393   82.5388 C   0  0  0  0  0  0  0  0  0  0  0  0
   52.3273   16.5775   83.4146 C   0  0  0  0  0  0  0  0  0  0  0  0
   53.3608   12.9513   81.5544 C   0  0  0  0  0  0  0  0  0  0  0  0
   54.6876   12.8635   81.0336 C   0  0  0  0  0  0  0  0  0  0  0  0
   53.3396   11.2723   80.0880 C   0  0  0  0  0  0  0  0  0  0  0  0
   52.0604   17.7544   84.3007 C   0  0  0  0  0  0  0  0  0  0  0  0
   50.8074    8.7680   81.7133 C   0  0  0  0  0  0  0  0  0  0  0  0
   55.4379   14.7272   82.3231 C   0  0  0  0  0  0  0  0  0  0  0  0
   53.2233   18.7342   84.1223 C   0  0  0  0  0  0  0  0  0  0  0  0
   51.5094    9.7859   81.5862 C   0  0  0  0  0  0  0  0  0  0  0  0
   53.7400   16.2285   83.2239 C   0  0  0  0  0  0  0  0  0  0  0  0
   54.6146   11.8249   80.0791 C   0  0  0  0  0  0  0  0  0  0  0  0
   52.5523   11.8701   81.1203 C   0  0  0  0  0  0  0  0  0  0  0  0
   53.9872   15.0503   82.3434 N   0  0  0  0  0  0  0  0  0  0  0  0
   55.6424   11.4105   79.3736 O   0  0  0  0  0  0  0  0  0  0  0  0
   55.7782   13.5295   81.6347 C   0  0  0  0  0  0  0  0  0  0  0  0
   49.4630    8.6318   82.0378 N   0  0  0  0  0  0  0  0  0  0  0  0
  1  5  2  0
  1  7  1  0
  2 10  1  0
  2 21  1  0
  3  9  2  0
  4  5  1  0
  4 24  2  0
  6  8  1  0
  6 16  1  0
  7 17  1  0
  7 20  1  0
  8 18  1  0
  9 13  1  0
  9 18  1  0
 10 11  1  0
 10 20  1  0
 11 19  2  0
 11 23  1  0
 12 19  1  0
 12 20  1  0
 13 16  1  0
 14 17  2  0
 14 24  1  0
 15 21  1  0
 15 23  1  0
 18 21  1  0
 19 22  1  0
M  END
>  <ID>  (1) 
conformer_0

$$$$
