
     RDKit          3D

 23 24  0  0  0  0  0  0  0  0999 V2000
   55.4681   11.4618   80.8813 C   0  0  0  0  0  0  0  0  0  0  0  0
   49.8008    9.9276   81.1212 C   0  0  0  0  0  0  0  0  0  0  0  0
   54.1184   14.8895   82.1047 C   0  0  0  0  0  0  0  0  0  0  0  0
   49.9237    8.4419   81.3203 C   0  0  0  0  0  0  0  0  0  0  0  0
   52.2173   19.5290   83.6303 O   0  0  0  0  0  0  0  0  0  0  0  0
   55.9354   12.6399   80.0437 C   0  0  0  0  0  0  0  0  0  0  0  0
   52.6374   18.4062   84.3139 N   0  0  0  0  0  0  0  0  0  0  0  0
   54.3539   18.3353   81.7075 O   0  0  0  0  0  0  0  0  0  0  0  0
   54.8390   12.7448   80.9289 C   0  0  0  0  0  0  0  0  0  0  0  0
   54.2329   17.3899   82.5685 C   0  0  0  0  0  0  0  0  0  0  0  0
   52.2121   10.7121   81.7772 C   0  0  0  0  0  0  0  0  0  0  0  0
   53.0709   17.3488   83.4597 C   0  0  0  0  0  0  0  0  0  0  0  0
   53.3496   12.6477   80.6130 C   0  0  0  0  0  0  0  0  0  0  0  0
   52.6055   12.2289   81.9193 C   0  0  0  0  0  0  0  0  0  0  0  0
   55.7762   13.4046   82.9692 O   0  0  0  0  0  0  0  0  0  0  0  0
   49.3221   10.5843   82.3923 C   0  0  0  0  0  0  0  0  0  0  0  0
   52.7729   14.9545   82.7297 C   0  0  0  0  0  0  0  0  0  0  0  0
   51.1517   12.8300   82.3859 S   0  0  0  0  0  0  0  0  0  0  0  0
   54.9153   16.1260   82.4018 C   0  0  0  0  0  0  0  0  0  0  0  0
   49.9675   11.8684   82.8031 C   0  0  0  0  0  0  0  0  0  0  0  0
   51.0969   10.5397   80.6643 C   0  0  0  0  0  0  0  0  0  0  0  0
   52.2517   16.1641   83.4052 C   0  0  0  0  0  0  0  0  0  0  0  0
   55.0045   13.7124   82.0309 C   0  0  0  0  0  0  0  0  0  0  0  0
  1  9  1  0
  2  4  1  0
  2 16  1  0
  2 21  1  0
  3 17  1  0
  3 19  1  0
  3 23  1  0
  5  7  1  0
  6  9  1  0
  7 12  1  0
  8 10  2  0
  9 13  1  0
  9 23  1  0
 10 12  1  0
 10 19  1  0
 11 14  1  0
 11 21  1  0
 12 22  2  0
 13 14  1  0
 14 18  1  0
 15 23  2  0
 16 20  2  0
 17 22  1  0
 18 20  1  0
M  END
>  <ID>  (1) 
conformer_0

$$$$
