
     RDKit          3D

 30 35  0  0  0  0  0  0  0  0999 V2000
   48.0489    9.5428   82.0948 C   0  0  0  0  0  0  0  0  0  0  0  0
   49.9215    9.9710   80.2307 C   0  0  0  0  0  0  0  0  0  0  0  0
   54.3622   18.8361   84.2912 C   0  0  0  0  0  0  0  0  0  0  0  0
   52.0722   19.8058   84.0580 C   0  0  0  0  0  0  0  0  0  0  0  0
   56.4821   12.4489   80.1106 C   0  0  0  0  0  0  0  0  0  0  0  0
   48.5679   10.7543   82.8116 C   0  0  0  0  0  0  0  0  0  0  0  0
   53.8813   11.8325   80.9967 C   0  0  0  0  0  0  0  0  0  0  0  0
   50.5563   12.3925   82.7872 O   0  0  0  0  0  0  0  0  0  0  0  0
   54.3366   13.2262   81.1440 C   0  0  0  0  0  0  0  0  0  0  0  0
   52.3903   11.8175   81.3754 C   0  0  0  0  0  0  0  0  0  0  0  0
   51.5291   18.5097   83.6987 C   0  0  0  0  0  0  0  0  0  0  0  0
   54.5743   10.7564   81.8310 C   0  0  0  0  0  0  0  0  0  0  0  0
   54.1420   11.5447   79.4680 C   0  0  0  0  0  0  0  0  0  0  0  0
   54.1098   18.3706   82.8710 C   0  0  0  0  0  0  0  0  0  0  0  0
   55.6840   11.3642   79.3349 C   0  0  0  0  0  0  0  0  0  0  0  0
   56.2348   14.4757   81.9603 C   0  0  0  0  0  0  0  0  0  0  0  0
   54.4904   16.2264   81.9815 O   0  0  0  0  0  0  0  0  0  0  0  0
   53.7968   13.9667   82.2401 C   0  0  0  0  0  0  0  0  0  0  0  0
   50.5577   10.2526   81.5535 C   0  0  0  0  0  0  0  0  0  0  0  0
   52.1848   17.1454   83.6502 C   0  0  0  0  0  0  0  0  0  0  0  0
   51.7765   12.7467   82.2622 C   0  0  0  0  0  0  0  0  0  0  0  0
   53.4506   16.9437   82.7271 C   0  0  0  0  0  0  0  0  0  0  0  0
   51.9161   10.5368   81.2579 N   0  0  0  0  0  0  0  0  0  0  0  0
   49.0344    8.4027   82.1393 C   0  0  0  0  0  0  0  0  0  0  0  0
   50.4404    8.8904   82.2819 C   0  0  0  0  0  0  0  0  0  0  0  0
   52.4623   13.9379   82.5793 O   0  0  0  0  0  0  0  0  0  0  0  0
   54.9017   14.9711   82.6400 C   0  0  0  0  0  0  0  0  0  0  0  0
   53.3202   19.7509   84.8355 C   0  0  0  0  0  0  0  0  0  0  0  0
   55.7548   13.4829   80.9143 C   0  0  0  0  0  0  0  0  0  0  0  0
   49.8873   11.2776   82.3845 C   0  0  0  0  0  0  0  0  0  0  0  0
  1  6  1  0
  1 24  1  0
  2 19  1  0
  3 14  1  0
  3 28  1  0
  4 11  1  0
  4 28  1  0
  5 15  1  0
  5 29  2  0
  6 30  2  0
  7  9  1  0
  7 10  1  0
  7 12  1  0
  7 13  1  0
  8 21  1  0
  8 30  1  0
  9 18  1  0
  9 29  1  0
 10 21  1  0
 10 23  1  0
 11 20  1  0
 13 15  1  0
 14 22  1  0
 16 27  1  0
 16 29  1  0
 17 22  1  0
 17 27  1  0
 18 26  1  0
 18 27  1  0
 19 23  1  0
 19 25  1  0
 19 30  1  0
 20 22  1  0
 21 26  1  0
 24 25  1  0
M  END
>  <ID>  (1) 
conformer_0

$$$$
