
     RDKit          3D

 15 16  0  0  0  0  0  0  0  0999 V2000
   53.2318   12.0239   81.7651 C   0  0  0  0  0  0  0  0  0  0  0  0
   54.2488   17.0508   82.3010 C   0  0  0  0  0  0  0  0  0  0  0  0
   52.8805   14.6116   82.1717 C   0  0  0  0  0  0  0  0  0  0  0  0
   50.5446   11.7189   82.3104 C   0  0  0  0  0  0  0  0  0  0  0  0
   54.7139   12.0711   81.4973 C   0  0  0  0  0  0  0  0  0  0  0  0
   51.0966   12.9542   82.3620 C   0  0  0  0  0  0  0  0  0  0  0  0
   52.2841   17.1434   83.6565 N   0  0  0  0  0  0  0  0  0  0  0  0
   52.4289   13.1234   82.0748 C   0  0  0  0  0  0  0  0  0  0  0  0
   50.5929    9.1416   81.8809 Cl  0  0  0  0  0  0  0  0  0  0  0  0
   52.6369   10.7694   81.7085 C   0  0  0  0  0  0  0  0  0  0  0  0
   53.4887   17.8405   83.2549 C   0  0  0  0  0  0  0  0  0  0  0  0
   55.5466   13.2555   81.3784 C   0  0  0  0  0  0  0  0  0  0  0  0
   51.3001   10.6306   81.9781 C   0  0  0  0  0  0  0  0  0  0  0  0
   55.3606   14.8105   81.8262 C   0  0  0  0  0  0  0  0  0  0  0  0
   54.0442   15.5508   82.4762 C   0  0  0  0  0  0  0  0  0  0  0  0
  1  5  1  0
  1  8  2  0
  1 10  1  0
  2 11  1  0
  2 15  1  0
  3  8  1  0
  3 15  1  0
  4  6  2  0
  4 13  1  0
  5 12  1  0
  6  8  1  0
  7 11  1  0
  9 13  1  0
 10 13  2  0
 12 14  2  0
 14 15  1  0
M  END
>  <ID>  (1) 
conformer_0

$$$$
