
     RDKit          3D

 33 37  0  0  0  0  0  0  0  0999 V2000
   52.4103   17.2255   83.7823 C   0  0  0  0  0  0  0  0  0  0  0  0
   56.4594   12.3610   78.8151 C   0  0  0  0  0  0  0  0  0  0  0  0
   53.2318   18.2925   83.6296 N   0  0  0  0  0  0  0  0  0  0  0  0
   50.0982   11.8418   82.4548 C   0  0  0  0  0  0  0  0  0  0  0  0
   51.7237   15.0895   83.2594 N   0  0  0  0  0  0  0  0  0  0  0  0
   50.8330    8.8882   82.4656 C   0  0  0  0  0  0  0  0  0  0  0  0
   54.2899   18.1269   82.7155 C   0  0  0  0  0  0  0  0  0  0  0  0
   52.8371   19.5001   84.3277 C   0  0  0  0  0  0  0  0  0  0  0  0
   49.8897    7.7782   82.0276 C   0  0  0  0  0  0  0  0  0  0  0  0
   50.1026    9.6507   83.5881 C   0  0  0  0  0  0  0  0  0  0  0  0
   52.6393   15.9988   83.0999 C   0  0  0  0  0  0  0  0  0  0  0  0
   51.6085   13.9181   82.7258 F   0  0  0  0  0  0  0  0  0  0  0  0
   49.1699   10.7331   82.8752 C   0  0  0  0  0  0  0  0  0  0  0  0
   52.9279   11.6048   79.7304 O   0  0  0  0  0  0  0  0  0  0  0  0
   55.7677   13.0838   80.9598 C   0  0  0  0  0  0  0  0  0  0  0  0
   52.8377   11.2879   82.0451 O   0  0  0  0  0  0  0  0  0  0  0  0
   54.1562   14.5772   81.6411 C   0  0  0  0  0  0  0  0  0  0  0  0
   49.6557   10.0597   80.5343 C   0  0  0  0  0  0  0  0  0  0  0  0
   55.0962   11.6981   80.8363 C   0  0  0  0  0  0  0  0  0  0  0  0
   51.2851   17.2918   84.5773 C   0  0  0  0  0  0  0  0  0  0  0  0
   57.5408   10.5459   78.0826 C   0  0  0  0  0  0  0  0  0  0  0  0
   48.4532    8.4685   81.9113 C   0  0  0  0  0  0  0  0  0  0  0  0
   56.9125   10.7402   79.3900 C   0  0  0  0  0  0  0  0  0  0  0  0
   51.3899   11.2049   81.9131 C   0  0  0  0  0  0  0  0  0  0  0  0
   55.4875   13.9199   82.3561 C   0  0  0  0  0  0  0  0  0  0  0  0
   53.7858   15.8905   82.2815 C   0  0  0  0  0  0  0  0  0  0  0  0
   48.5653    9.9842   81.6194 C   0  0  0  0  0  0  0  0  0  0  0  0
   53.5836   11.6360   80.9046 C   0  0  0  0  0  0  0  0  0  0  0  0
   54.7045   14.0693   80.2785 O   0  0  0  0  0  0  0  0  0  0  0  0
   55.5861   11.2891   79.3571 C   0  0  0  0  0  0  0  0  0  0  0  0
   54.5764   16.9916   82.0768 N   0  0  0  0  0  0  0  0  0  0  0  0
   55.6452   10.7930   81.7755 O   0  0  0  0  0  0  0  0  0  0  0  0
   50.9974    9.8903   81.2954 C   0  0  0  0  0  0  0  0  0  0  0  0
  1  3  1  0
  1 11  1  0
  1 20  1  0
  2 30  1  0
  3  7  1  0
  3  8  1  0
  4 13  1  0
  4 24  1  0
  5 11  2  3
  5 12  1  0
  6  9  1  0
  6 10  1  0
  6 33  1  0
  7 31  2  0
  9 22  1  0
 10 13  1  0
 11 26  1  0
 13 27  1  0
 14 28  2  0
 15 19  1  0
 15 25  1  0
 15 29  1  0
 16 24  1  0
 16 28  1  0
 17 25  1  0
 17 26  1  0
 17 29  1  0
 18 27  1  0
 18 33  1  0
 19 28  1  0
 19 30  1  0
 19 32  1  0
 21 23  1  0
 22 27  1  0
 23 30  1  0
 24 33  1  0
 26 31  1  0
M  END
>  <ID>  (1) 
conformer_0

$$$$
