
     RDKit          3D

 24 28  0  0  0  0  0  0  0  0999 V2000
   50.9315    8.8781   82.0881 C   0  0  0  0  0  0  0  0  0  0  0  0
   49.6103    9.1882   81.9434 C   0  0  0  0  0  0  0  0  0  0  0  0
   52.4857   19.1069   84.1131 Cl  0  0  0  0  0  0  0  0  0  0  0  0
   52.5685   13.3009   82.0803 C   0  0  0  0  0  0  0  0  0  0  0  0
   54.7089   11.2988   78.7026 C   0  0  0  0  0  0  0  0  0  0  0  0
   51.8857    9.8839   81.9818 C   0  0  0  0  0  0  0  0  0  0  0  0
   53.8260   15.1704   82.2485 C   0  0  0  0  0  0  0  0  0  0  0  0
   56.8596   13.0141   81.0918 N   0  0  0  0  0  0  0  0  0  0  0  0
   53.0107   17.5856   83.3487 C   0  0  0  0  0  0  0  0  0  0  0  0
   54.7016   16.2528   82.2054 C   0  0  0  0  0  0  0  0  0  0  0  0
   54.4648   12.8795   80.9257 C   0  0  0  0  0  0  0  0  0  0  0  0
   52.1576   16.5228   83.4207 C   0  0  0  0  0  0  0  0  0  0  0  0
   50.1399   11.4997   81.7311 C   0  0  0  0  0  0  0  0  0  0  0  0
   55.8712   11.8047   79.3005 N   0  0  0  0  0  0  0  0  0  0  0  0
   49.2066   10.4935   81.7895 C   0  0  0  0  0  0  0  0  0  0  0  0
   52.3576   12.1482   81.4337 N   0  0  0  0  0  0  0  0  0  0  0  0
   51.8327   14.1207   82.7978 C   0  0  0  0  0  0  0  0  0  0  0  0
   53.4343   12.0396   80.4707 C   0  0  0  0  0  0  0  0  0  0  0  0
   55.7380   12.5596   80.4276 C   0  0  0  0  0  0  0  0  0  0  0  0
   51.4651   11.1517   81.7695 C   0  0  0  0  0  0  0  0  0  0  0  0
   54.2452   17.5121   82.7295 C   0  0  0  0  0  0  0  0  0  0  0  0
   53.4656   11.3991   79.2890 C   0  0  0  0  0  0  0  0  0  0  0  0
   53.9435   13.8753   81.7606 N   0  0  0  0  0  0  0  0  0  0  0  0
   52.5882   15.3525   82.8749 C   0  0  0  0  0  0  0  0  0  0  0  0
  1  2  2  0
  1  6  1  0
  2 15  1  0
  3  9  1  0
  4 16  1  0
  4 17  1  0
  4 23  1  0
  5 14  1  0
  5 22  2  0
  6 20  2  0
  7 10  2  0
  7 23  1  0
  7 24  1  0
  8 19  2  0
  9 12  1  0
  9 21  2  0
 10 21  1  0
 11 18  1  0
 11 19  1  0
 11 23  1  0
 12 24  2  0
 13 15  2  0
 13 20  1  0
 14 19  1  0
 16 18  1  0
 16 20  1  0
 17 24  1  0
 18 22  1  0
M  END
>  <ID>  (1) 
conformer_0

$$$$
