
     RDKit          3D

 33 36  0  0  0  0  0  0  0  0999 V2000
   56.0189   13.6238   82.2938 O   0  0  0  0  0  0  0  0  0  0  0  0
   48.7803    9.3114   83.0605 C   0  0  0  0  0  0  0  0  0  0  0  0
   54.3829   16.4833   81.9571 O   0  0  0  0  0  0  0  0  0  0  0  0
   56.7450   11.1511   80.1481 F   0  0  0  0  0  0  0  0  0  0  0  0
   51.3526   15.2502   85.0371 F   0  0  0  0  0  0  0  0  0  0  0  0
   52.5071   16.0624   83.1727 C   0  0  0  0  0  0  0  0  0  0  0  0
   49.4792   10.5209   83.0705 C   0  0  0  0  0  0  0  0  0  0  0  0
   50.2435   10.9456   82.0578 C   0  0  0  0  0  0  0  0  0  0  0  0
   53.3513   18.2613   83.2936 C   0  0  0  0  0  0  0  0  0  0  0  0
   52.6481   13.7032   81.8482 O   0  0  0  0  0  0  0  0  0  0  0  0
   51.0279   17.6885   83.9233 C   0  0  0  0  0  0  0  0  0  0  0  0
   50.2652   10.0567   80.9333 C   0  0  0  0  0  0  0  0  0  0  0  0
   50.9124   12.1434   82.0883 C   0  0  0  0  0  0  0  0  0  0  0  0
   52.2569   14.8631   82.4907 O   0  0  0  0  0  0  0  0  0  0  0  0
   55.4887   11.8506   80.1525 C   0  0  0  0  0  0  0  0  0  0  0  0
   52.1470   12.4944   81.4269 C   0  0  0  0  0  0  0  0  0  0  0  0
   54.3167   19.0951   82.6102 C   0  0  0  0  0  0  0  0  0  0  0  0
   53.1103   19.0133   84.7449 F   0  0  0  0  0  0  0  0  0  0  0  0
   55.6266   13.3934   80.0388 C   0  0  0  0  0  0  0  0  0  0  0  0
   53.1064   11.6443   80.7613 C   0  0  0  0  0  0  0  0  0  0  0  0
   53.2824   11.7201   79.3143 O   0  0  0  0  0  0  0  0  0  0  0  0
   53.3235   16.9591   82.7072 N   0  0  0  0  0  0  0  0  0  0  0  0
   50.8863   10.3471   79.8007 O   0  0  0  0  0  0  0  0  0  0  0  0
   54.6727   11.3816   78.8824 C   0  0  0  0  0  0  0  0  0  0  0  0
   52.0949   18.7771   83.7468 C   0  0  0  0  0  0  0  0  0  0  0  0
   55.4660   14.0963   81.3332 C   0  0  0  0  0  0  0  0  0  0  0  0
   49.6057    8.8434   80.9059 C   0  0  0  0  0  0  0  0  0  0  0  0
   50.3955   13.0768   83.0665 F   0  0  0  0  0  0  0  0  0  0  0  0
   48.8728    8.4844   81.9878 C   0  0  0  0  0  0  0  0  0  0  0  0
   51.6924   16.5195   84.4587 C   0  0  0  0  0  0  0  0  0  0  0  0
   54.5171   11.4161   81.2767 C   0  0  0  0  0  0  0  0  0  0  0  0
   54.5555   15.1684   81.3974 N   0  0  0  0  0  0  0  0  0  0  0  0
   51.7522   17.2474   85.7872 F   0  0  0  0  0  0  0  0  0  0  0  0
  1 26  2  0
  2  7  2  0
  2 29  1  0
  3 22  1  0
  3 32  1  0
  4 15  1  0
  5 30  1  0
  6 14  1  0
  6 22  1  0
  6 30  1  0
  7  8  1  0
  8 12  2  0
  8 13  1  0
  9 17  1  0
  9 22  1  0
  9 25  1  0
 10 14  1  0
 10 16  1  0
 11 25  1  0
 11 30  1  0
 12 23  1  0
 12 27  1  0
 13 16  1  0
 13 28  1  0
 15 19  1  0
 15 24  1  0
 15 31  1  0
 16 20  1  0
 18 25  1  0
 19 26  1  0
 20 21  1  0
 20 31  1  0
 21 24  1  0
 26 32  1  0
 27 29  2  0
 30 33  1  0
M  END
>  <ID>  (1) 
conformer_0

$$$$
