
     RDKit          3D

 29 32  0  0  0  0  0  0  0  0999 V2000
   48.0824    9.2421   82.8020 F   0  0  0  0  0  0  0  0  0  0  0  0
   49.7531   10.5506   84.4176 F   0  0  0  0  0  0  0  0  0  0  0  0
   52.8350   10.9852   79.1983 O   0  0  0  0  0  0  0  0  0  0  0  0
   51.5241   14.5784   82.9350 O   0  0  0  0  0  0  0  0  0  0  0  0
   49.3747    9.6014   80.9101 C   0  0  0  0  0  0  0  0  0  0  0  0
   51.1241   11.0060   82.5067 C   0  0  0  0  0  0  0  0  0  0  0  0
   52.4566   15.1982   82.4496 C   0  0  0  0  0  0  0  0  0  0  0  0
   53.5032   19.0430   84.1110 C   0  0  0  0  0  0  0  0  0  0  0  0
   52.9607   20.7532   85.6243 N   0  0  0  0  0  0  0  0  0  0  0  0
   50.5165   10.1721   80.3984 C   0  0  0  0  0  0  0  0  0  0  0  0
   57.1214   12.6814   80.0484 C   0  0  0  0  0  0  0  0  0  0  0  0
   53.8395   20.4135   84.5583 C   0  0  0  0  0  0  0  0  0  0  0  0
   54.7492   11.9941   80.0913 C   0  0  0  0  0  0  0  0  0  0  0  0
   53.5804   12.2153   80.9860 C   0  0  0  0  0  0  0  0  0  0  0  0
   55.3305   13.7004   81.5045 C   0  0  0  0  0  0  0  0  0  0  0  0
   52.2482   16.9606   84.1335 N   0  0  0  0  0  0  0  0  0  0  0  0
   52.4777   18.2311   84.6873 C   0  0  0  0  0  0  0  0  0  0  0  0
   49.1224    9.7210   82.2343 C   0  0  0  0  0  0  0  0  0  0  0  0
   52.8867   16.4890   83.0314 C   0  0  0  0  0  0  0  0  0  0  0  0
   53.1749   14.5532   81.5089 N   0  0  0  0  0  0  0  0  0  0  0  0
   50.0239   10.4452   83.0540 C   0  0  0  0  0  0  0  0  0  0  0  0
   53.9145   13.3631   81.7925 C   0  0  0  0  0  0  0  0  0  0  0  0
   52.6367   11.2838   80.5450 C   0  0  0  0  0  0  0  0  0  0  0  0
   55.7829   12.8875   80.5201 C   0  0  0  0  0  0  0  0  0  0  0  0
   53.9008   17.2244   82.4827 C   0  0  0  0  0  0  0  0  0  0  0  0
   55.9795   14.4521   82.3285 O   0  0  0  0  0  0  0  0  0  0  0  0
   51.4200   10.8265   81.1576 C   0  0  0  0  0  0  0  0  0  0  0  0
   54.2100   18.5261   83.0288 C   0  0  0  0  0  0  0  0  0  0  0  0
   54.2262   11.4037   78.8775 C   0  0  0  0  0  0  0  0  0  0  0  0
  1 18  1  0
  2 21  1  0
  3 23  1  0
  3 29  1  0
  4  7  2  0
  5 10  2  0
  5 18  1  0
  6 21  1  0
  6 27  2  0
  7 19  1  0
  7 20  1  0
  8 12  1  0
  8 17  2  0
  8 28  1  0
  9 12  1  0
 10 27  1  0
 11 24  1  0
 13 14  1  0
 13 24  1  0
 13 29  1  0
 14 22  1  0
 14 23  1  0
 15 22  1  0
 15 24  2  0
 15 26  1  0
 16 17  1  0
 16 19  2  0
 18 21  2  0
 19 25  1  0
 20 22  1  0
 23 27  1  0
 25 28  2  0
M  END
>  <ID>  (1) 
conformer_0

$$$$
