
     RDKit          3D

 27 28  0  0  0  0  0  0  0  0999 V2000
   49.3630    9.5784   82.9519 C   0  0  0  0  0  0  0  0  0  0  0  0
   55.5137   10.6319   78.3744 O   0  0  0  0  0  0  0  0  0  0  0  0
   53.5881   12.2582   80.6413 C   0  0  0  0  0  0  0  0  0  0  0  0
   52.6233   15.5915   83.1021 C   0  0  0  0  0  0  0  0  0  0  0  0
   51.5043   10.8680   81.0006 C   0  0  0  0  0  0  0  0  0  0  0  0
   52.5871   11.3992   80.2046 C   0  0  0  0  0  0  0  0  0  0  0  0
   52.1754   19.0192   83.5946 F   0  0  0  0  0  0  0  0  0  0  0  0
   56.0851   12.4121   79.7705 C   0  0  0  0  0  0  0  0  0  0  0  0
   53.1018   17.9651   83.7484 C   0  0  0  0  0  0  0  0  0  0  0  0
   53.2137   13.4633   81.2918 C   0  0  0  0  0  0  0  0  0  0  0  0
   55.0102   11.9746   80.7021 C   0  0  0  0  0  0  0  0  0  0  0  0
   51.8305   14.6639   83.2922 O   0  0  0  0  0  0  0  0  0  0  0  0
   50.5360   10.1993   80.3328 C   0  0  0  0  0  0  0  0  0  0  0  0
   53.7544   18.4189   84.9001 F   0  0  0  0  0  0  0  0  0  0  0  0
   52.4282   16.7430   83.8864 O   0  0  0  0  0  0  0  0  0  0  0  0
   56.6542   11.1595   79.0603 C   0  0  0  0  0  0  0  0  0  0  0  0
   54.7074   16.6945   82.2812 C   0  0  0  0  0  0  0  0  0  0  0  0
   55.4292   11.1801   81.9550 C   0  0  0  0  0  0  0  0  0  0  0  0
   54.1210   17.9762   82.6240 C   0  0  0  0  0  0  0  0  0  0  0  0
   55.9341   14.2952   82.1530 C   0  0  0  0  0  0  0  0  0  0  0  0
   51.3933   10.9018   82.4137 C   0  0  0  0  0  0  0  0  0  0  0  0
   54.2572   14.2978   81.7960 C   0  0  0  0  0  0  0  0  0  0  0  0
   50.4650   10.3418   83.2143 C   0  0  0  0  0  0  0  0  0  0  0  0
   52.5238   11.1754   78.8903 O   0  0  0  0  0  0  0  0  0  0  0  0
   53.7066   15.5745   82.2181 N   0  0  0  0  0  0  0  0  0  0  0  0
   48.8599    9.1917   81.7265 C   0  0  0  0  0  0  0  0  0  0  0  0
   49.4307    9.5553   80.5373 C   0  0  0  0  0  0  0  0  0  0  0  0
  1 23  1  0
  1 26  2  0
  2 16  1  0
  3  6  1  0
  3 10  2  3
  3 11  1  0
  4 12  2  0
  4 15  1  0
  4 25  1  0
  5  6  2  3
  5 13  1  0
  5 21  1  0
  6 24  1  0
  7  9  1  0
  8 11  1  0
  8 16  1  0
  9 14  1  0
  9 15  1  0
  9 19  1  0
 10 22  1  0
 11 18  1  0
 13 27  2  0
 17 19  1  0
 17 25  1  0
 20 22  1  0
 21 23  2  0
 22 25  1  0
 26 27  1  0
M  END
>  <ID>  (1) 
conformer_0

$$$$
