
     RDKit          3D

 19 20  0  0  0  0  0  0  0  0999 V2000
   54.3812   12.6456   80.9543 C   0  0  0  0  0  0  0  0  0  0  0  0
   52.4815   17.0896   83.4167 C   0  0  0  0  0  0  0  0  0  0  0  0
   50.2427   10.7927   82.7744 C   0  0  0  0  0  0  0  0  0  0  0  0
   50.5858    9.9329   80.5851 C   0  0  0  0  0  0  0  0  0  0  0  0
   51.1323   11.7971   82.5227 C   0  0  0  0  0  0  0  0  0  0  0  0
   51.4949   10.9511   80.3553 C   0  0  0  0  0  0  0  0  0  0  0  0
   56.4550   13.9241   81.8427 C   0  0  0  0  0  0  0  0  0  0  0  0
   49.9436    9.8974   81.8277 C   0  0  0  0  0  0  0  0  0  0  0  0
   55.0310   13.5795   81.9012 C   0  0  0  0  0  0  0  0  0  0  0  0
   54.3359   18.3554   82.2792 C   0  0  0  0  0  0  0  0  0  0  0  0
   51.8336   14.3609   82.7257 O   0  0  0  0  0  0  0  0  0  0  0  0
   51.8372   11.8991   81.3404 C   0  0  0  0  0  0  0  0  0  0  0  0
   52.8000   13.9985   82.0697 C   0  0  0  0  0  0  0  0  0  0  0  0
   49.7585   10.7880   83.9939 F   0  0  0  0  0  0  0  0  0  0  0  0
   54.0518   14.6379   82.1055 N   0  0  0  0  0  0  0  0  0  0  0  0
   53.8737   17.0601   82.8490 C   0  0  0  0  0  0  0  0  0  0  0  0
   52.8928   12.8962   81.1117 C   0  0  0  0  0  0  0  0  0  0  0  0
   54.6661   15.8733   82.6385 C   0  0  0  0  0  0  0  0  0  0  0  0
   52.0930   11.1123   79.1925 O   0  0  0  0  0  0  0  0  0  0  0  0
  1  9  1  0
  1 17  1  0
  2 16  1  0
  3  5  2  0
  3  8  1  0
  3 14  1  0
  4  6  1  0
  4  8  2  0
  5 12  1  0
  6 12  2  0
  6 19  1  0
  7  9  1  0
  9 15  1  0
 10 16  1  0
 11 13  2  0
 12 17  1  0
 13 15  1  0
 13 17  1  0
 15 18  1  0
 16 18  1  0
M  END
>  <ID>  (1) 
conformer_0

$$$$
