
     RDKit          3D

 31 34  0  0  0  0  0  0  0  0999 V2000
   51.7085   11.6019   81.0481 C   0  0  0  0  0  0  0  0  0  0  0  0
   50.7763   10.7409   81.6880 C   0  0  0  0  0  0  0  0  0  0  0  0
   52.9230   14.5928   81.9291 C   0  0  0  0  0  0  0  0  0  0  0  0
   52.5081   13.0178   81.6707 C   0  0  0  0  0  0  0  0  0  0  0  0
   54.6352   15.7798   84.1895 O   0  0  0  0  0  0  0  0  0  0  0  0
   48.4262   10.5111   82.5684 C   0  0  0  0  0  0  0  0  0  0  0  0
   52.7814   18.1508   83.7998 C   0  0  0  0  0  0  0  0  0  0  0  0
   54.6577   11.3045   78.9578 C   0  0  0  0  0  0  0  0  0  0  0  0
   51.9081   17.0139   83.2729 C   0  0  0  0  0  0  0  0  0  0  0  0
   51.4872   13.1127   82.5964 O   0  0  0  0  0  0  0  0  0  0  0  0
   49.4184    8.1128   82.1749 O   0  0  0  0  0  0  0  0  0  0  0  0
   54.4174   16.0882   82.9790 C   0  0  0  0  0  0  0  0  0  0  0  0
   52.0339   15.6098   82.6661 C   0  0  0  0  0  0  0  0  0  0  0  0
   52.7272   20.5989   84.6189 C   0  0  0  0  0  0  0  0  0  0  0  0
   55.5276   14.4774   81.4528 C   0  0  0  0  0  0  0  0  0  0  0  0
   49.7878   11.0848   82.8053 C   0  0  0  0  0  0  0  0  0  0  0  0
   50.1725    8.4610   80.9780 C   0  0  0  0  0  0  0  0  0  0  0  0
   53.7849   18.5810   82.8568 C   0  0  0  0  0  0  0  0  0  0  0  0
   55.1620   13.3372   80.4434 C   0  0  0  0  0  0  0  0  0  0  0  0
   50.9437   19.6430   83.7258 F   0  0  0  0  0  0  0  0  0  0  0  0
   48.2574    9.0113   82.3395 C   0  0  0  0  0  0  0  0  0  0  0  0
   53.8248   12.6722   80.8460 C   0  0  0  0  0  0  0  0  0  0  0  0
   54.2314   15.0370   81.9405 C   0  0  0  0  0  0  0  0  0  0  0  0
   53.8175   11.3243   80.2212 C   0  0  0  0  0  0  0  0  0  0  0  0
   52.6581   18.4048   85.2209 C   0  0  0  0  0  0  0  0  0  0  0  0
   54.3596   17.3456   82.3105 N   0  0  0  0  0  0  0  0  0  0  0  0
   56.2161   11.5995   81.8657 O   0  0  0  0  0  0  0  0  0  0  0  0
   50.0558    9.9409   80.6192 C   0  0  0  0  0  0  0  0  0  0  0  0
   52.1345   19.3900   84.4901 C   0  0  0  0  0  0  0  0  0  0  0  0
   56.1609   11.3542   79.3723 C   0  0  0  0  0  0  0  0  0  0  0  0
   56.3118   12.2553   80.5813 C   0  0  0  0  0  0  0  0  0  0  0  0
  1  2  1  0
  1  4  1  0
  2 16  1  0
  2 28  1  0
  3  4  1  0
  3 13  2  0
  3 23  1  0
  4 10  1  0
  4 22  1  0
  5 12  2  0
  6 16  1  0
  6 21  2  0
  7  9  1  0
  7 18  1  0
  7 25  1  0
  8 24  1  0
  8 30  1  0
  9 13  1  0
 11 17  1  0
 11 21  1  0
 12 23  1  0
 12 26  1  0
 14 29  2  0
 15 19  1  0
 15 23  1  0
 17 28  1  0
 18 26  1  0
 19 22  1  0
 19 31  1  0
 20 29  1  0
 22 24  1  0
 25 29  1  0
 27 31  1  0
 30 31  1  0
M  END
>  <ID>  (1) 
conformer_0

$$$$
