
     RDKit          3D

 42 44  0  0  0  0  0  0  0  0999 V2000
   50.3943    9.8339   81.3182 C   0  0  0  0  0  0  0  0  0  0  0  0
   55.5075   15.3271   82.0108 C   0  0  0  0  0  0  0  0  0  0  0  0
   58.5550    9.9287   77.3481 O   0  0  0  0  0  0  0  0  0  0  0  0
   55.6623   11.4584   79.1677 C   0  0  0  0  0  0  0  0  0  0  0  0
   52.0251   15.9381   83.0784 C   0  0  0  0  0  0  0  0  0  0  0  0
   54.0680   17.4283   82.8016 O   0  0  0  0  0  0  0  0  0  0  0  0
   53.4451   11.7234   80.2427 C   0  0  0  0  0  0  0  0  0  0  0  0
   55.8927   13.9358   82.0274 C   0  0  0  0  0  0  0  0  0  0  0  0
   54.6562   21.1140   84.4026 C   0  0  0  0  0  0  0  0  0  0  0  0
   54.1926   22.2735   86.2620 C   0  0  0  0  0  0  0  0  0  0  0  0
   56.3667   12.9946   81.0290 N   0  0  0  0  0  0  0  0  0  0  0  0
   54.0341   19.8868   84.0197 C   0  0  0  0  0  0  0  0  0  0  0  0
   51.2043    8.8234   82.0568 F   0  0  0  0  0  0  0  0  0  0  0  0
   47.8194   10.0051   81.4806 F   0  0  0  0  0  0  0  0  0  0  0  0
   53.6351   12.7146   81.1388 O   0  0  0  0  0  0  0  0  0  0  0  0
   57.6114   10.0495   76.1932 O   0  0  0  0  0  0  0  0  0  0  0  0
   52.3222   18.2309   84.7989 C   0  0  0  0  0  0  0  0  0  0  0  0
   54.1870   16.1213   82.1630 C   0  0  0  0  0  0  0  0  0  0  0  0
   52.1170   11.0594   80.3926 C   0  0  0  0  0  0  0  0  0  0  0  0
   53.2891   22.6056   87.0431 F   0  0  0  0  0  0  0  0  0  0  0  0
   48.8048    8.2616   82.3624 F   0  0  0  0  0  0  0  0  0  0  0  0
   49.4789    9.9080   84.3495 F   0  0  0  0  0  0  0  0  0  0  0  0
   53.0611   13.7341   81.8275 C   0  0  0  0  0  0  0  0  0  0  0  0
   48.0764   11.3945   83.4842 F   0  0  0  0  0  0  0  0  0  0  0  0
   52.8373   20.3862   86.1856 C   0  0  0  0  0  0  0  0  0  0  0  0
   48.9827    9.6396   82.0587 C   0  0  0  0  0  0  0  0  0  0  0  0
   54.2668   18.8995   83.0450 N   0  0  0  0  0  0  0  0  0  0  0  0
   54.3195   11.3405   79.2560 C   0  0  0  0  0  0  0  0  0  0  0  0
   50.2186   11.6558   82.7622 F   0  0  0  0  0  0  0  0  0  0  0  0
   51.0923   11.0399   81.5044 C   0  0  0  0  0  0  0  0  0  0  0  0
   49.1117   10.6365   83.2503 C   0  0  0  0  0  0  0  0  0  0  0  0
   56.5449   10.8168   78.1064 C   0  0  0  0  0  0  0  0  0  0  0  0
   56.3020   12.1927   80.0818 C   0  0  0  0  0  0  0  0  0  0  0  0
   50.4544    9.5385   79.9140 F   0  0  0  0  0  0  0  0  0  0  0  0
   57.8555   10.4239   78.4295 C   0  0  0  0  0  0  0  0  0  0  0  0
   56.3601   10.6384   76.7858 C   0  0  0  0  0  0  0  0  0  0  0  0
   54.0369   21.2501   85.7173 C   0  0  0  0  0  0  0  0  0  0  0  0
   51.6616   10.2311   79.4321 C   0  0  0  0  0  0  0  0  0  0  0  0
   53.0343   15.1613   82.3376 C   0  0  0  0  0  0  0  0  0  0  0  0
   52.4848   19.2586   85.5457 N   0  0  0  0  0  0  0  0  0  0  0  0
   54.5215   19.4482   81.8666 O   0  0  0  0  0  0  0  0  0  0  0  0
   52.1932   17.2157   83.9223 C   0  0  0  0  0  0  0  0  0  0  0  0
  1 13  1  0
  1 26  1  0
  1 30  1  0
  1 34  1  0
  2  8  1  0
  2 18  1  0
  3 16  1  0
  3 35  1  0
  4 28  1  0
  4 32  1  0
  4 33  2  0
  5 39  1  0
  5 42  1  0
  6 18  1  0
  6 27  1  0
  7 15  1  0
  7 19  1  0
  7 28  1  0
  8 11  1  0
  9 12  1  0
  9 37  1  0
 10 20  1  0
 10 37  1  0
 11 33  1  0
 12 27  1  0
 14 26  1  0
 15 23  1  0
 16 36  1  0
 17 40  1  0
 17 42  3  0
 18 39  1  0
 19 30  1  0
 19 38  2  0
 21 26  1  0
 22 31  1  0
 23 39  2  0
 24 31  1  0
 25 37  1  0
 25 40  1  0
 26 31  1  0
 27 41  1  0
 29 31  1  0
 32 35  1  0
 32 36  1  0
M  END
>  <ID>  (1) 
conformer_0

$$$$
