
     RDKit          3D

 23 27  0  0  0  0  0  0  0  0999 V2000
   49.0680   10.4022   82.6283 C   0  0  0  0  0  0  0  0  0  0  0  0
   55.5156   12.8627   81.9115 C   0  0  0  0  0  0  0  0  0  0  0  0
   49.5660   11.6509   82.8979 C   0  0  0  0  0  0  0  0  0  0  0  0
   50.7870   11.9809   82.3803 C   0  0  0  0  0  0  0  0  0  0  0  0
   51.2890   13.1756   82.7480 N   0  0  0  0  0  0  0  0  0  0  0  0
   52.2669   17.2974   84.2700 C   0  0  0  0  0  0  0  0  0  0  0  0
   52.8034   16.2126   83.5700 C   0  0  0  0  0  0  0  0  0  0  0  0
   53.2467   14.0910   81.9019 N   0  0  0  0  0  0  0  0  0  0  0  0
   55.6912   14.4108   81.8647 C   0  0  0  0  0  0  0  0  0  0  0  0
   50.9810    9.8892   81.2783 C   0  0  0  0  0  0  0  0  0  0  0  0
   52.2768   14.0524   82.8575 C   0  0  0  0  0  0  0  0  0  0  0  0
   54.6156   13.0363   80.1501 C   0  0  0  0  0  0  0  0  0  0  0  0
   53.2469   13.0122   80.8946 C   0  0  0  0  0  0  0  0  0  0  0  0
   54.3212   15.1042   81.8975 C   0  0  0  0  0  0  0  0  0  0  0  0
   52.2840   14.9810   83.8184 O   0  0  0  0  0  0  0  0  0  0  0  0
   54.3507   17.5543   82.3411 C   0  0  0  0  0  0  0  0  0  0  0  0
   49.7598    9.5399   81.8262 C   0  0  0  0  0  0  0  0  0  0  0  0
   55.4187   12.0191   80.7949 O   0  0  0  0  0  0  0  0  0  0  0  0
   52.7960   11.6104   80.9924 C   0  0  0  0  0  0  0  0  0  0  0  0
   52.7814   18.5248   83.9308 C   0  0  0  0  0  0  0  0  0  0  0  0
   53.8383   16.2985   82.6164 C   0  0  0  0  0  0  0  0  0  0  0  0
   53.7972   18.6490   83.0104 C   0  0  0  0  0  0  0  0  0  0  0  0
   51.4946   11.1364   81.5486 C   0  0  0  0  0  0  0  0  0  0  0  0
  1  3  1  0
  1 17  2  0
  2  9  1  0
  2 18  1  0
  3  4  1  0
  4  5  2  0
  4 23  1  0
  5 11  1  0
  6  7  1  0
  6 20  2  0
  7 15  1  0
  7 21  2  0
  8 11  1  0
  8 13  1  0
  8 14  1  0
  9 14  1  0
 10 17  1  0
 10 23  2  0
 11 15  1  0
 12 13  1  0
 12 18  1  0
 13 19  1  0
 14 21  1  0
 16 21  1  0
 16 22  2  0
 19 23  1  0
 20 22  1  0
M  END
>  <ID>  (1) 
conformer_0

$$$$
