
     RDKit          3D

 24 25  0  0  0  0  0  0  0  0999 V2000
   54.1982   17.4232   82.4544 C   0  0  0  0  0  0  0  0  0  0  0  0
   56.0877   13.7046   81.8756 O   0  0  0  0  0  0  0  0  0  0  0  0
   52.3919   16.9824   84.0538 C   0  0  0  0  0  0  0  0  0  0  0  0
   52.7930   15.4120   81.9154 O   0  0  0  0  0  0  0  0  0  0  0  0
   54.3344   11.6142   80.3075 C   0  0  0  0  0  0  0  0  0  0  0  0
   51.5433   14.8248   83.6749 O   0  0  0  0  0  0  0  0  0  0  0  0
   51.5323   10.6693   80.1286 C   0  0  0  0  0  0  0  0  0  0  0  0
   54.9702   16.1701   82.4291 C   0  0  0  0  0  0  0  0  0  0  0  0
   51.1135   10.7794   82.4869 C   0  0  0  0  0  0  0  0  0  0  0  0
   53.5563   17.9006   83.7231 C   0  0  0  0  0  0  0  0  0  0  0  0
   54.7780   13.7653   81.6247 C   0  0  0  0  0  0  0  0  0  0  0  0
   56.8241   11.7698   80.1836 O   0  0  0  0  0  0  0  0  0  0  0  0
   55.6967   11.0882   80.5900 C   0  0  0  0  0  0  0  0  0  0  0  0
   54.0876   14.8892   82.2958 C   0  0  0  0  0  0  0  0  0  0  0  0
   54.5323   18.4477   81.6003 O   0  0  0  0  0  0  0  0  0  0  0  0
   50.9242    9.2938   82.4247 C   0  0  0  0  0  0  0  0  0  0  0  0
   53.9632   12.7274   81.1148 N   0  0  0  0  0  0  0  0  0  0  0  0
   53.0059   19.2704   83.5437 F   0  0  0  0  0  0  0  0  0  0  0  0
   52.0099   11.3084   81.4194 C   0  0  0  0  0  0  0  0  0  0  0  0
   52.5713   12.6885   81.5298 C   0  0  0  0  0  0  0  0  0  0  0  0
   50.2024    9.9148   80.1367 C   0  0  0  0  0  0  0  0  0  0  0  0
   52.0841   15.9008   83.1095 C   0  0  0  0  0  0  0  0  0  0  0  0
   49.9642    8.9993   81.3029 C   0  0  0  0  0  0  0  0  0  0  0  0
   50.0339   11.5455   82.7888 O   0  0  0  0  0  0  0  0  0  0  0  0
  1  8  1  0
  1 10  1  0
  1 15  1  0
  2 11  2  0
  3 10  1  0
  3 22  1  0
  4 14  1  0
  4 22  1  0
  5 13  1  0
  5 17  1  0
  6 22  2  0
  7 19  1  0
  7 21  1  0
  8 14  1  0
  9 16  1  0
  9 19  1  0
  9 24  1  0
 10 18  1  0
 11 14  1  0
 11 17  1  0
 12 13  1  0
 16 23  1  0
 17 20  1  0
 19 20  1  0
 21 23  1  0
M  END
>  <ID>  (1) 
conformer_0

$$$$
