
     RDKit          3D

 29 30  0  0  0  0  0  0  0  0999 V2000
   49.4785    9.7248   80.8881 C   0  0  0  0  0  0  0  0  0  0  0  0
   56.4790   10.0162   80.7812 O   0  0  0  0  0  0  0  0  0  0  0  0
   52.4179   11.9344   81.8134 C   0  0  0  0  0  0  0  0  0  0  0  0
   51.7901   18.0707   83.5548 F   0  0  0  0  0  0  0  0  0  0  0  0
   54.4693   14.4136   83.7438 O   0  0  0  0  0  0  0  0  0  0  0  0
   54.2004   17.9337   82.5690 C   0  0  0  0  0  0  0  0  0  0  0  0
   53.1126   11.9167   80.5978 C   0  0  0  0  0  0  0  0  0  0  0  0
   53.7884   16.9214   83.4854 C   0  0  0  0  0  0  0  0  0  0  0  0
   48.1579   11.0572   82.8891 O   0  0  0  0  0  0  0  0  0  0  0  0
   55.8170   13.2378   82.2011 C   0  0  0  0  0  0  0  0  0  0  0  0
   54.4438   15.4584   81.6889 N   0  0  0  0  0  0  0  0  0  0  0  0
   57.1226   13.7223   81.8580 O   0  0  0  0  0  0  0  0  0  0  0  0
   54.4363   12.5319   80.4048 C   0  0  0  0  0  0  0  0  0  0  0  0
   54.0646   16.6667   82.1100 C   0  0  0  0  0  0  0  0  0  0  0  0
   55.4781   12.0646   81.3398 C   0  0  0  0  0  0  0  0  0  0  0  0
   56.5544   11.3595   80.5833 N   0  0  0  0  0  0  0  0  0  0  0  0
   54.8556   14.3904   82.4969 C   0  0  0  0  0  0  0  0  0  0  0  0
   50.4552   11.1950   83.0885 N   0  0  0  0  0  0  0  0  0  0  0  0
   54.6881   13.6276   79.7076 O   0  0  0  0  0  0  0  0  0  0  0  0
   51.4177   10.5179   79.6512 C   0  0  0  0  0  0  0  0  0  0  0  0
   52.5486   11.2418   79.5464 C   0  0  0  0  0  0  0  0  0  0  0  0
   49.3375    9.1728   82.2242 C   0  0  0  0  0  0  0  0  0  0  0  0
   49.2763   10.4106   83.1028 C   0  0  0  0  0  0  0  0  0  0  0  0
   52.2355   16.8441   83.6491 C   0  0  0  0  0  0  0  0  0  0  0  0
   51.6202   16.0938   82.7649 F   0  0  0  0  0  0  0  0  0  0  0  0
   51.2290   11.2487   81.9432 C   0  0  0  0  0  0  0  0  0  0  0  0
   51.8621   16.3917   84.8425 F   0  0  0  0  0  0  0  0  0  0  0  0
   56.7058   11.6118   79.2240 O   0  0  0  0  0  0  0  0  0  0  0  0
   50.7240   10.5138   80.8320 C   0  0  0  0  0  0  0  0  0  0  0  0
  1 22  1  0
  1 29  1  0
  2 16  1  0
  3  7  1  0
  3 26  2  0
  4 24  1  0
  5 17  2  0
  6 14  1  0
  7 13  1  0
  7 21  2  0
  8 14  1  0
  8 24  1  0
  9 23  1  0
 10 12  1  0
 10 15  1  0
 10 17  1  0
 11 14  1  0
 11 17  1  0
 13 15  1  0
 13 19  1  0
 15 16  1  0
 16 28  1  0
 18 23  1  0
 18 26  1  0
 20 21  1  0
 20 29  2  0
 22 23  1  0
 24 25  1  0
 24 27  1  0
 26 29  1  0
M  END
>  <ID>  (1) 
conformer_0

$$$$
