
     RDKit          3D

 27 30  0  0  0  0  0  0  0  0999 V2000
   54.1906   11.8273   79.6139 C   0  0  0  0  0  0  0  0  0  0  0  0
   54.8968   13.5530   81.2564 C   0  0  0  0  0  0  0  0  0  0  0  0
   52.3987   19.5370   83.4601 O   0  0  0  0  0  0  0  0  0  0  0  0
   54.2079   18.8257   81.6505 O   0  0  0  0  0  0  0  0  0  0  0  0
   54.6673   14.4278   82.3890 C   0  0  0  0  0  0  0  0  0  0  0  0
   53.2462   18.5007   83.8764 C   0  0  0  0  0  0  0  0  0  0  0  0
   49.3528    9.3161   81.0486 F   0  0  0  0  0  0  0  0  0  0  0  0
   56.6140   12.4611   79.7385 C   0  0  0  0  0  0  0  0  0  0  0  0
   52.3609   14.8514   82.4940 C   0  0  0  0  0  3  0  0  0  0  0  0
   53.6582   15.3475   82.1786 N   0  0  0  0  0  0  0  0  0  0  0  0
   49.7353    9.2419   83.2119 F   0  0  0  0  0  0  0  0  0  0  0  0
   51.2044    8.4045   81.8171 F   0  0  0  0  0  0  0  0  0  0  0  0
   54.1836   18.0385   82.7825 C   0  0  0  0  0  0  0  0  0  0  0  0
   50.9381   10.7811   81.9685 C   0  0  0  0  0  0  0  0  0  0  0  0
   50.2650   11.8032   82.5702 C   0  0  0  0  0  0  0  0  0  0  0  0
   51.7322   15.9839   83.7056 S   0  0  0  0  0  3  0  0  0  0  0  0
   55.6345   11.2786   79.5681 C   0  0  0  0  0  0  0  0  0  0  0  0
   50.3326    9.4069   81.9867 C   0  0  0  0  0  0  0  0  0  0  0  0
   53.9608   12.5775   80.8543 N   0  0  0  0  0  0  0  0  0  0  0  0
   52.7087   12.3305   81.5214 C   0  0  0  0  0  0  0  0  0  0  0  0
   56.3554   13.2422   80.9859 C   0  0  0  0  0  0  0  0  0  0  0  0
   52.2953   17.4187   84.3583 C   0  0  0  0  0  0  0  0  0  0  0  0
   52.0087   13.3865   82.2364 C   0  0  0  0  0  0  0  0  0  0  0  0
   54.2320   16.6457   82.5915 C   0  0  0  0  0  0  0  0  0  0  0  0
   55.2491   14.2892   83.4721 O   0  0  0  0  0  0  0  0  0  0  0  0
   52.1661   11.0712   81.4094 C   0  0  0  0  0  0  0  0  0  0  0  0
   50.7693   13.0319   82.7419 C   0  0  0  0  0  0  0  0  0  0  0  0
  1 17  1  0
  1 19  1  0
  2  5  1  0
  2 19  1  0
  2 21  1  0
  3  6  1  0
  4 13  1  0
  5 10  1  0
  5 25  2  0
  6 13  1  0
  6 22  1  0
  7 18  1  0
  8 17  1  0
  8 21  1  0
  9 10  1  0
  9 16  2  0
  9 23  1  0
 10 24  1  0
 11 18  1  0
 12 18  1  0
 13 24  1  0
 14 15  1  0
 14 18  1  0
 14 26  2  0
 15 27  2  0
 16 22  1  0
 19 20  1  0
 20 23  2  0
 20 26  1  0
 23 27  1  0
M  END
>  <ID>  (1) 
conformer_0

$$$$
