
     RDKit          3D

 28 32  0  0  0  0  0  0  0  0999 V2000
   49.0129    9.2022   84.1207 F   0  0  0  0  0  0  0  0  0  0  0  0
   54.9777   12.5485   82.0831 O   0  0  0  0  0  0  0  0  0  0  0  0
   52.4565   16.1513   83.6888 C   0  0  0  0  0  0  0  0  0  0  0  0
   51.0395   12.2481   82.3443 C   0  0  0  0  0  0  0  0  0  0  0  0
   51.7558   11.8705   81.2223 C   0  0  0  0  0  0  0  0  0  0  0  0
   53.4412   16.0277   82.7188 C   0  0  0  0  0  0  0  0  0  0  0  0
   52.8191   12.7048   81.1206 N   0  0  0  0  0  0  0  0  0  0  0  0
   48.8844    9.2942   82.8065 C   0  0  0  0  0  0  0  0  0  0  0  0
   53.7389   14.7269   81.9839 C   0  0  0  0  0  0  0  0  0  0  0  0
   56.0331   13.5572   81.6880 C   0  0  0  0  0  0  0  0  0  0  0  0
   54.1932   12.6193   80.7497 C   0  0  0  0  0  0  0  0  0  0  0  0
   55.2013   14.7855   81.4718 C   0  0  0  0  0  0  0  0  0  0  0  0
   54.2162   17.1200   82.4604 C   0  0  0  0  0  0  0  0  0  0  0  0
   51.3195   10.8336   80.4517 C   0  0  0  0  0  0  0  0  0  0  0  0
   51.8248   10.6406   79.1624 C   0  0  0  0  0  0  0  0  0  0  0  0
   56.6216   12.7860   80.4931 C   0  0  0  0  0  0  0  0  0  0  0  0
   54.0489   18.3272   83.2139 C   0  0  0  0  0  0  0  0  0  0  0  0
   50.3028    9.9872   80.9460 C   0  0  0  0  0  0  0  0  0  0  0  0
   53.0578   18.4178   84.2111 C   0  0  0  0  0  0  0  0  0  0  0  0
   53.6860   20.5607   85.1435 O   0  0  0  0  0  0  0  0  0  0  0  0
   52.2311   17.2972   84.4380 N   0  0  0  0  0  0  0  0  0  0  0  0
   55.2949   12.0199   79.9410 C   0  0  0  0  0  0  0  0  0  0  0  0
   50.0362   11.4223   82.8582 C   0  0  0  0  0  0  0  0  0  0  0  0
   48.2184    8.4036   82.1417 F   0  0  0  0  0  0  0  0  0  0  0  0
   49.7297   10.2560   82.1733 C   0  0  0  0  0  0  0  0  0  0  0  0
   51.5684   13.4400   82.7621 N   0  0  0  0  0  0  0  0  0  0  0  0
   52.6790   13.7251   82.0622 C   0  0  0  0  0  0  0  0  0  0  0  0
   52.7402   19.5972   84.9618 C   0  0  0  0  0  0  0  0  0  0  0  0
  1  8  1  0
  2 10  1  0
  2 11  1  0
  3  6  2  0
  3 21  1  0
  4  5  2  0
  4 23  1  0
  4 26  1  0
  5  7  1  0
  5 14  1  0
  6  9  1  0
  6 13  1  0
  7 11  1  0
  7 27  1  0
  8 24  1  0
  8 25  1  0
  9 12  1  0
  9 27  1  0
 10 12  1  0
 10 16  1  0
 11 22  1  0
 13 17  2  0
 14 15  1  0
 14 18  2  0
 16 22  1  0
 17 19  1  0
 18 25  1  0
 19 21  2  0
 19 28  1  0
 20 28  1  0
 23 25  2  0
 26 27  2  0
M  END
>  <ID>  (1) 
conformer_0

$$$$
