
     RDKit          3D

 22 24  0  0  0  0  0  0  0  0999 V2000
   52.0903   17.2171   83.6137 O   0  0  0  0  0  0  0  0  0  0  0  0
   49.5606    9.3854   82.4234 C   0  0  0  0  0  0  0  0  0  0  0  0
   53.0179   19.2492   84.3241 O   0  0  0  0  0  0  0  0  0  0  0  0
   53.5945   15.5783   82.7925 C   0  0  0  0  0  0  0  0  0  0  0  0
   53.1005   18.2044   83.5374 C   0  0  0  0  0  0  0  0  0  0  0  0
   54.2032   13.4903   81.0831 N   0  0  0  0  0  0  0  0  0  0  0  0
   56.2129   13.7768   82.2668 O   0  0  0  0  0  0  0  0  0  0  0  0
   54.2126   17.9363   82.5714 C   0  0  0  0  0  0  0  0  0  0  0  0
   51.6796   10.1151   81.7506 C   0  0  0  0  0  0  0  0  0  0  0  0
   55.3285   11.8050   79.2989 C   0  0  0  0  0  0  0  0  0  0  0  0
   55.5684   13.1708   81.3243 C   0  0  0  0  0  0  0  0  0  0  0  0
   52.0952   12.4677   81.4129 C   0  0  0  0  0  0  0  0  0  0  0  0
   53.8657   11.6421   79.5898 C   0  0  0  0  0  0  0  0  0  0  0  0
   50.0058   11.7232   82.3605 C   0  0  0  0  0  0  0  0  0  0  0  0
   56.1010   12.0475   80.5565 C   0  0  0  0  0  0  0  0  0  0  0  0
   53.4946   14.3306   82.1001 C   0  0  0  0  0  0  0  0  0  0  0  0
   54.5592   16.5276   82.2644 C   0  0  0  0  0  0  0  0  0  0  0  0
   51.2699   11.4059   81.8738 C   0  0  0  0  0  0  0  0  0  0  0  0
   49.1548   10.6791   82.5819 C   0  0  0  0  0  0  0  0  0  0  0  0
   52.5564   15.9125   83.6808 C   0  0  0  0  0  0  0  0  0  0  0  0
   53.3862   12.2868   80.8083 C   0  0  0  0  0  0  0  0  0  0  0  0
   50.8390    9.0874   82.0062 C   0  0  0  0  0  0  0  0  0  0  0  0
  1  5  1  0
  1 20  1  0
  2 19  2  0
  2 22  1  0
  3  5  2  0
  4 16  2  3
  4 17  1  0
  4 20  1  0
  5  8  1  0
  6 11  1  0
  6 16  1  0
  6 21  1  0
  7 11  2  0
  8 17  1  0
  9 18  1  0
  9 22  2  0
 10 13  1  0
 10 15  1  0
 11 15  1  0
 12 18  1  0
 12 21  1  0
 13 21  1  0
 14 18  2  0
 14 19  1  0
M  END
>  <ID>  (1) 
conformer_0

$$$$
