
     RDKit          3D

 26 29  0  0  0  0  0  0  0  0999 V2000
   48.8610   10.7116   84.6897 F   0  0  0  0  0  0  0  0  0  0  0  0
   52.5669   11.3172   80.3071 C   0  0  0  0  0  0  0  0  0  0  0  0
   55.0438   12.5120   80.9258 C   0  0  0  0  0  0  0  0  0  0  0  0
   51.6153   12.5408   82.0854 C   0  0  0  0  0  0  0  0  0  0  0  0
   53.7597   16.3529   82.8339 C   0  0  0  0  0  0  0  0  0  0  0  0
   49.5854    8.7532   80.5868 O   0  0  0  0  0  0  0  0  0  0  0  0
   49.5021   11.9210   82.8326 O   0  0  0  0  0  0  0  0  0  0  0  0
   51.8163   17.2185   83.8865 C   0  0  0  0  0  0  0  0  0  0  0  0
   51.5761   10.4335   80.3462 N   0  0  0  0  0  0  0  0  0  0  0  0
   54.4514   15.1861   82.3512 C   0  0  0  0  0  0  0  0  0  0  0  0
   52.6368   12.2509   81.2375 C   0  0  0  0  0  0  0  0  0  0  0  0
   49.8298    9.4225   81.6098 C   0  0  0  0  0  0  0  0  0  0  0  0
   53.8803   13.0091   81.3993 C   0  0  0  0  0  0  0  0  0  0  0  0
   56.5650   14.1590   81.6909 C   0  0  0  0  0  0  0  0  0  0  0  0
   54.3431   17.6031   82.7626 C   0  0  0  0  0  0  0  0  0  0  0  0
   52.4892   16.1615   83.3395 C   0  0  0  0  0  0  0  0  0  0  0  0
   50.6699   10.5307   81.3513 C   0  0  0  0  0  0  0  0  0  0  0  0
   50.6163   11.6476   82.0864 C   0  0  0  0  0  0  0  0  0  0  0  0
   55.8080   15.0605   82.2175 C   0  0  0  0  0  0  0  0  0  0  0  0
   48.7554    9.6192   82.5612 C   0  0  0  0  0  0  0  0  0  0  0  0
   47.5445    9.0586   82.0809 F   0  0  0  0  0  0  0  0  0  0  0  0
   56.3034   12.9839   81.0566 C   0  0  0  0  0  0  0  0  0  0  0  0
   52.3927   18.4555   83.8858 N   0  0  0  0  0  0  0  0  0  0  0  0
   53.6757   14.1461   82.0416 C   0  0  0  0  0  0  0  0  0  0  0  0
   48.7278   10.9096   83.2527 C   0  0  0  0  0  0  0  0  0  0  0  0
   53.6143   18.6569   83.2696 C   0  0  0  0  0  0  0  0  0  0  0  0
  1 25  1  0
  2  9  2  0
  2 11  1  0
  3 13  1  0
  3 22  2  0
  4 11  1  0
  4 18  1  0
  5 10  1  0
  5 15  2  0
  5 16  1  0
  6 12  2  0
  7 18  1  0
  7 25  1  0
  8 16  2  0
  8 23  1  0
  9 17  1  0
 10 19  1  0
 10 24  1  0
 11 13  1  0
 12 17  1  0
 12 20  1  0
 13 24  2  0
 14 19  2  0
 14 22  1  0
 15 26  1  0
 17 18  1  0
 20 21  1  0
 20 25  1  0
 23 26  2  0
M  END
>  <ID>  (1) 
conformer_0

$$$$
