
     RDKit          3D

 22 25  0  0  0  0  0  0  0  0999 V2000
   53.1210   18.1139   83.6159 C   0  0  0  0  0  0  0  0  0  0  0  0
   53.6357   12.0715   81.6462 C   0  0  0  0  0  0  0  0  0  0  0  0
   54.8105   15.5805   81.4873 N   0  0  0  0  0  0  0  0  0  0  0  0
   55.9137   12.1000   80.8872 O   0  0  0  0  0  0  0  0  0  0  0  0
   49.5851    9.5554   80.8082 C   0  0  0  0  0  0  0  0  0  0  0  0
   51.2307   10.4206   82.8255 C   0  0  0  0  0  0  0  0  0  0  0  0
   50.5148   10.5159   80.5576 C   0  0  0  0  0  0  0  0  0  0  0  0
   54.0298   17.5660   82.7196 C   0  0  0  0  0  0  0  0  0  0  0  0
   51.3262   10.9487   81.5618 C   0  0  0  0  0  0  0  0  0  0  0  0
   49.4576    9.0671   82.0883 C   0  0  0  0  0  0  0  0  0  0  0  0
   53.6226   13.5462   81.8443 C   0  0  0  0  0  0  0  0  0  0  0  0
   53.1891   19.4562   83.8540 F   0  0  0  0  0  0  0  0  0  0  0  0
   52.8699   15.4811   82.9950 C   0  0  0  0  0  0  0  0  0  0  0  0
   55.3873   13.2810   80.2949 C   0  0  0  0  0  0  0  0  0  0  0  0
   54.6418   11.7304   80.5992 C   0  0  0  0  0  0  0  0  0  0  0  0
   50.2656    9.5296   83.1164 C   0  0  0  0  0  0  0  0  0  0  0  0
   52.1462   17.3903   84.2359 C   0  0  0  0  0  0  0  0  0  0  0  0
   52.0249   16.0527   83.8921 C   0  0  0  0  0  0  0  0  0  0  0  0
   52.7222   14.1594   82.5909 N   0  0  0  0  0  0  0  0  0  0  0  0
   53.9117   16.2063   82.4042 C   0  0  0  0  0  0  0  0  0  0  0  0
   52.2066   12.0545   81.3117 C   0  0  0  0  0  0  0  0  0  0  0  0
   54.8826   14.1689   81.4157 C   0  0  0  0  0  0  0  0  0  0  0  0
  1  8  2  0
  1 12  1  0
  1 17  1  0
  2 11  1  0
  2 15  1  0
  2 21  1  0
  3 20  1  0
  3 22  1  0
  4 14  1  0
  4 15  1  0
  5  7  2  0
  5 10  1  0
  6  9  1  0
  6 16  2  0
  7  9  1  0
  8 20  1  0
  9 21  1  0
 10 16  1  0
 11 19  2  0
 11 22  1  0
 13 18  1  0
 13 19  1  0
 13 20  2  0
 14 22  1  0
 17 18  2  0
M  END
>  <ID>  (1) 
conformer_0

$$$$
