
     RDKit          3D

 31 35  0  0  0  0  0  0  0  0999 V2000
   48.6258    9.4101   82.6041 C   0  0  0  0  0  0  0  0  0  0  0  0
   53.0177   15.9408   82.6753 C   0  0  0  0  0  0  0  0  0  0  0  0
   54.7642   12.1829   79.5505 C   0  0  0  0  0  0  0  0  0  0  0  0
   55.4209   10.6074   81.3929 C   0  0  0  0  0  0  0  0  0  0  0  0
   50.9914    9.8986   83.7840 C   0  0  0  0  0  0  0  0  0  0  0  0
   52.2088   16.2425   83.7476 C   0  0  0  0  0  0  0  0  0  0  0  0
   53.9090   16.9368   82.2803 C   0  0  0  0  0  0  0  0  0  0  0  0
   53.1503   19.6472   84.6624 C   0  0  0  0  0  0  0  0  0  0  0  0
   56.7569   10.9889   79.2758 C   0  0  0  0  0  0  0  0  0  0  0  0
   54.8081   14.5807   80.5089 O   0  0  0  0  0  0  0  0  0  0  0  0
   51.9891   11.6489   83.5422 C   0  0  0  0  0  0  0  0  0  0  0  0
   53.9827   18.1553   82.9361 C   0  0  0  0  0  0  0  0  0  0  0  0
   55.3768   14.1074   82.7085 C   0  0  0  0  0  0  0  0  0  0  0  0
   48.4662   10.8668   82.6290 C   0  0  0  0  0  0  0  0  0  0  0  0
   50.4424    7.8388   81.8347 F   0  0  0  0  0  0  0  0  0  0  0  0
   50.7974   10.9982   82.9490 C   0  0  0  0  0  0  0  0  0  0  0  0
   56.3122   12.4385   79.6044 C   0  0  0  0  0  0  0  0  0  0  0  0
   52.2188   17.4236   84.4312 N   0  0  0  0  0  0  0  0  0  0  0  0
   49.4716    8.7700   81.6256 C   0  0  0  0  0  0  0  0  0  0  0  0
   49.5310   11.7762   83.1290 C   0  0  0  0  0  0  0  0  0  0  0  0
   52.3441   12.3400   82.1571 C   0  0  0  0  0  0  0  0  0  0  0  0
   53.1266   18.3864   84.0173 C   0  0  0  0  0  0  0  0  0  0  0  0
   54.3406   11.5457   80.8640 C   0  0  0  0  0  0  0  0  0  0  0  0
   50.7205   10.8549   81.4064 C   0  0  0  0  0  0  0  0  0  0  0  0
   54.2154   13.9173   81.6535 C   0  0  0  0  0  0  0  0  0  0  0  0
   52.9169   14.6697   81.9530 C   0  0  0  0  0  0  0  0  0  0  0  0
   49.8733    9.8785   80.6282 C   0  0  0  0  0  0  0  0  0  0  0  0
   51.8418   13.7339   82.1852 C   0  0  0  0  0  0  0  0  0  0  0  0
   56.2942   10.0279   80.3158 C   0  0  0  0  0  0  0  0  0  0  0  0
   53.7772   12.4534   81.8558 C   0  0  0  0  0  0  0  0  0  0  0  0
   51.6999   11.6573   80.8714 C   0  0  0  0  0  0  0  0  0  0  0  0
  1 14  1  0
  1 19  1  0
  2  6  2  0
  2  7  1  0
  2 26  1  0
  3 17  1  0
  3 23  1  0
  4 23  1  0
  4 29  1  0
  5 16  1  0
  6 18  1  0
  7 12  2  0
  8 22  1  0
  9 17  1  0
  9 29  1  0
 10 25  1  0
 11 16  1  0
 11 21  1  0
 12 22  1  0
 13 25  1  0
 14 20  1  0
 15 19  1  0
 16 20  1  0
 16 24  1  0
 18 22  2  0
 19 27  1  0
 21 28  1  0
 21 30  1  0
 21 31  1  0
 23 30  1  0
 24 27  1  0
 24 31  1  0
 25 26  1  0
 25 30  1  0
 26 28  1  0
M  END
>  <ID>  (1) 
conformer_0

$$$$
