
     RDKit          3D

 27 30  0  0  0  0  0  0  0  0999 V2000
   55.0529   13.6210   81.8729 C   0  0  0  0  0  0  0  0  0  0  0  0
   55.1406   16.3618   81.8135 O   0  0  0  0  0  0  0  0  0  0  0  0
   56.5091   10.7441   78.4643 C   0  0  0  0  0  0  0  0  0  0  0  0
   54.1782   11.3971   78.2150 C   0  0  0  0  0  0  0  0  0  0  0  0
   53.1380   18.5340   83.9077 C   0  0  0  0  0  0  0  0  0  0  0  0
   56.5264   11.1938   79.7836 C   0  0  0  0  0  0  0  0  0  0  0  0
   55.3595   10.8397   77.7051 C   0  0  0  0  0  0  0  0  0  0  0  0
   53.6074   14.0035   81.6632 C   0  0  0  0  0  0  0  0  0  0  0  0
   52.6357   14.8323   82.2606 O   0  0  0  0  0  0  0  0  0  0  0  0
   52.8493   12.6556   81.5183 C   0  0  0  0  0  0  0  0  0  0  0  0
   49.1954   10.1368   82.7775 C   0  0  0  0  0  0  0  0  0  0  0  0
   52.0826   17.7724   84.2996 C   0  0  0  0  0  0  0  0  0  0  0  0
   52.0106   10.3614   81.7223 C   0  0  0  0  0  0  0  0  0  0  0  0
   52.0040   16.5125   83.7813 N   0  0  0  0  0  0  0  0  0  0  0  0
   56.2803   14.1449   82.2585 O   0  0  0  0  0  0  0  0  0  0  0  0
   55.4038   11.7899   80.2906 C   0  0  0  0  0  0  0  0  0  0  0  0
   51.7574   11.6711   81.9614 C   0  0  0  0  0  0  0  0  0  0  0  0
   54.2047   11.8444   79.5211 C   0  0  0  0  0  0  0  0  0  0  0  0
   49.9701    9.1273   82.2970 C   0  0  0  0  0  0  0  0  0  0  0  0
   50.6011   12.1235   82.4877 C   0  0  0  0  0  0  0  0  0  0  0  0
   51.2567    9.2689   81.8605 C   0  0  0  0  0  0  0  0  0  0  0  0
   54.0752   16.7640   82.5542 C   0  0  0  0  0  0  0  0  0  0  0  0
   53.0272   12.3418   80.1226 N   0  0  0  0  0  0  0  0  0  0  0  0
   52.8984   16.0545   82.8933 C   0  0  0  0  0  0  0  0  0  0  0  0
   49.4927   11.4768   82.8399 C   0  0  0  0  0  0  0  0  0  0  0  0
   55.3822   12.2869   81.5736 N   0  0  0  0  0  0  0  0  0  0  0  0
   54.1551   18.0256   83.0661 C   0  0  0  0  0  0  0  0  0  0  0  0
  1  8  1  0
  1 15  2  0
  1 26  1  0
  2 22  1  0
  3  6  1  0
  3  7  2  0
  4  7  1  0
  4 18  2  0
  5 12  2  0
  5 27  1  0
  6 16  2  0
  8  9  1  0
  8 10  1  0
  9 24  1  0
 10 17  1  0
 10 23  1  0
 11 19  2  0
 11 25  1  0
 12 14  1  0
 13 17  1  0
 13 21  2  0
 14 24  2  0
 16 18  1  0
 16 26  1  0
 17 20  1  0
 18 23  1  0
 19 21  1  0
 20 25  2  0
 22 24  1  0
 22 27  2  0
M  END
>  <ID>  (1) 
conformer_0

$$$$
