
     RDKit          3D

 35 42  0  0  0  0  0  0  0  0999 V2000
   52.2610   12.4223   81.4144 C   0  0  0  0  0  0  0  0  0  0  0  0
   50.3187   10.0032   80.6129 C   0  0  0  0  0  0  0  0  0  0  0  0
   54.2325   12.0559   79.3729 C   0  0  0  0  0  0  0  0  0  0  0  0
   51.2618   11.5937   82.2917 C   0  0  0  0  0  0  0  0  0  0  0  0
   55.5922   11.2500   79.5643 C   0  0  0  0  0  0  0  0  0  0  0  0
   52.7621    9.6376   81.4260 C   0  0  0  0  0  0  0  0  0  0  0  0
   54.3399   16.0360   84.3500 C   0  0  0  0  0  0  0  0  0  0  0  0
   48.9177    8.3581   81.6070 C   0  0  0  0  0  0  0  0  0  0  0  0
   53.9420   19.0822   84.9314 C   0  0  0  0  0  0  0  0  0  0  0  0
   51.9670   18.3005   83.6971 C   0  0  0  0  0  0  0  0  0  0  0  0
   51.3414   10.1404   81.8029 C   0  0  0  0  0  0  0  0  0  0  0  0
   54.3918   15.7664   81.8277 C   0  0  0  0  0  0  0  0  0  0  0  0
   48.9737    9.8450   81.3826 C   0  0  0  0  0  0  0  0  0  0  0  0
   53.8095   16.6099   82.9741 C   0  0  0  0  0  0  0  0  0  0  0  0
   53.9719   10.5191   81.2775 C   0  0  0  0  0  0  0  0  0  0  0  0
   53.7010   14.4177   81.6929 C   0  0  0  0  0  0  0  0  0  0  0  0
   55.9738   15.3939   81.7110 C   0  0  0  0  0  0  0  0  0  0  0  0
   49.1597   10.6141   83.8795 C   0  0  0  0  0  0  0  0  0  0  0  0
   51.2240    7.8559   82.6729 O   0  0  0  0  0  0  0  0  0  0  0  0
   52.2396   16.8676   83.3274 C   0  0  0  0  0  0  0  0  0  0  0  0
   55.9385   14.0400   80.9295 C   0  0  0  0  0  0  0  0  0  0  0  0
   53.6655   12.1151   80.8958 C   0  0  0  0  0  0  0  0  0  0  0  0
   49.9647    8.0363   82.7627 C   0  0  0  0  0  0  0  0  0  0  0  0
   54.6392   13.2716   81.3959 C   0  0  0  0  0  0  0  0  0  0  0  0
   53.3915   19.0637   83.5312 C   0  0  0  0  0  0  0  0  0  0  0  0
   54.2609   18.0831   82.7132 C   0  0  0  0  0  0  0  0  0  0  0  0
   49.7763   12.1883   82.1109 C   0  0  0  0  0  0  0  0  0  0  0  0
   51.5444   14.2171   82.8815 O   0  0  0  0  0  0  0  0  0  0  0  0
   50.5894   10.0074   84.1767 C   0  0  0  0  0  0  0  0  0  0  0  0
   57.0587   13.3116   80.8993 O   0  0  0  0  0  0  0  0  0  0  0  0
   52.3774   13.8312   82.0067 C   0  0  0  0  0  0  0  0  0  0  0  0
   48.8673   10.9768   82.4178 C   0  0  0  0  0  0  0  0  0  0  0  0
   48.0216   10.7737   81.2368 F   0  0  0  0  0  0  0  0  0  0  0  0
   55.4539   10.4899   80.9757 C   0  0  0  0  0  0  0  0  0  0  0  0
   50.8970    9.1350   82.9591 C   0  0  0  0  0  0  0  0  0  0  0  0
  1  4  1  0
  1 22  1  0
  1 31  1  0
  2 11  1  0
  2 13  1  0
  3  5  1  0
  3 22  1  0
  4 11  1  0
  4 27  1  0
  5 34  1  0
  6 11  1  0
  6 15  1  0
  7 14  1  0
  8 13  1  0
  8 23  1  0
  9 25  1  0
 10 20  1  0
 10 25  1  0
 11 35  1  0
 12 14  1  0
 12 16  1  0
 12 17  1  0
 13 32  1  0
 13 33  1  0
 14 20  1  0
 14 26  1  0
 15 22  1  0
 15 34  1  0
 16 24  1  0
 16 31  1  0
 17 21  1  0
 18 29  1  0
 18 32  1  0
 19 23  1  0
 19 35  1  0
 21 24  1  0
 21 30  1  0
 22 24  1  0
 25 26  1  0
 27 32  1  0
 28 31  2  0
 29 35  1  0
M  END
>  <ID>  (1) 
conformer_0

$$$$
