
     RDKit          3D

 31 34  0  0  0  0  0  0  0  0999 V2000
   55.2928   11.4746   80.9627 C   0  0  0  0  0  0  0  0  0  0  0  0
   54.0085   16.9022   82.1674 C   0  0  0  0  0  0  0  0  0  0  0  0
   52.3440   17.0493   83.8980 C   0  0  0  0  0  0  0  0  0  0  0  0
   53.5893   14.3839   81.6626 N   0  0  0  0  0  0  0  0  0  0  0  0
   55.1992   10.6588   78.2846 C   0  0  0  0  0  0  0  0  0  0  0  0
   54.2176   13.6938   80.4239 C   0  0  0  0  0  0  0  0  0  0  0  0
   51.8609   10.8619   80.4539 C   0  0  0  0  0  0  0  0  0  0  0  0
   55.7709   14.0769   80.5710 C   0  0  0  0  0  0  0  0  0  0  0  0
   52.9798   16.3494   82.8954 C   0  0  0  0  0  0  0  0  0  0  0  0
   54.0848   11.5190   78.9274 C   0  0  0  0  0  0  0  0  0  0  0  0
   51.6752   14.6254   83.4445 O   0  0  0  0  0  0  0  0  0  0  0  0
   52.5416   11.8989   80.9333 C   0  0  0  0  0  0  0  0  0  0  0  0
   56.6498   10.5828   78.9477 C   0  0  0  0  0  0  0  0  0  0  0  0
   53.7879   18.8769   83.3842 C   0  0  0  0  0  0  0  0  0  0  0  0
   54.0021   12.1419   80.3813 C   0  0  0  0  0  0  0  0  0  0  0  0
   57.0760    9.3203   79.7285 C   0  0  0  0  0  0  0  0  0  0  0  0
   55.9901   13.7990   82.1266 C   0  0  0  0  0  0  0  0  0  0  0  0
   50.7655   10.4146   81.0739 C   0  0  0  0  0  0  0  0  0  0  0  0
   52.7415   18.3325   84.1360 C   0  0  0  0  0  0  0  0  0  0  0  0
   50.2602   10.9893   82.2236 C   0  0  0  0  0  0  0  0  0  0  0  0
   50.2450    9.3750   80.4817 F   0  0  0  0  0  0  0  0  0  0  0  0
   54.6814   14.2720   82.7390 C   0  0  0  0  0  0  0  0  0  0  0  0
   56.5893   11.6342   80.0533 C   0  0  0  0  0  0  0  0  0  0  0  0
   52.5011   15.0303   82.5536 C   0  0  0  0  0  0  0  0  0  0  0  0
   54.4224   18.1343   82.4081 C   0  0  0  0  0  0  0  0  0  0  0  0
   49.0262    9.0904   82.8227 O   0  0  0  0  0  0  0  0  0  0  0  0
   49.3085   10.2712   83.0482 C   0  0  0  0  0  0  0  0  0  0  0  0
   48.8838   10.8210   84.0978 O   0  0  0  0  0  0  0  0  0  0  0  0
   50.8020   12.1724   82.5694 C   0  0  0  0  0  0  0  0  0  0  0  0
   57.6366   10.7300   77.9928 O   0  0  0  0  0  0  0  0  0  0  0  0
   51.8861   12.6055   81.9090 N   0  0  0  0  0  0  0  0  0  0  0  0
  1 15  1  0
  1 23  1  0
  2  9  1  0
  2 25  2  0
  3  9  1  0
  3 19  2  0
  4  6  1  0
  4 22  1  0
  4 24  1  0
  5 10  1  0
  5 13  1  0
  6  8  1  0
  6 15  1  0
  7 12  2  0
  7 18  1  0
  8 17  1  0
  9 24  1  0
 10 15  1  0
 11 24  2  0
 12 15  1  0
 12 31  1  0
 13 16  1  0
 13 23  1  0
 13 30  1  0
 14 19  1  0
 14 25  1  0
 17 22  1  0
 18 20  2  0
 18 21  1  0
 20 27  1  0
 20 29  1  0
 26 27  2  0
 27 28  1  0
 29 31  2  0
M  END
>  <ID>  (1) 
conformer_0

$$$$
