
     RDKit          3D

 22 24  0  0  0  0  0  0  0  0999 V2000
   53.8147   16.0277   82.2361 C   0  0  0  0  0  0  0  0  0  0  0  0
   52.5733   15.9820   83.0612 C   0  0  0  0  0  0  0  0  0  0  0  0
   54.5959   18.2665   81.6909 O   0  0  0  0  0  0  0  0  0  0  0  0
   51.7840   15.0476   83.0958 O   0  0  0  0  0  0  0  0  0  0  0  0
   56.0197   14.1603   81.9441 C   0  0  0  0  0  0  0  0  0  0  0  0
   55.0204   15.2390   81.9467 C   0  0  0  0  0  0  0  0  0  0  0  0
   51.0657   10.4878   80.8998 C   0  0  0  0  0  0  0  0  0  0  0  0
   52.3432   17.2174   83.8174 C   0  0  0  0  0  0  0  0  0  0  0  0
   53.6016   17.9552   83.7949 C   0  0  0  0  0  0  0  0  0  0  0  0
   51.0622    9.2569   82.8995 F   0  0  0  0  0  0  0  0  0  0  0  0
   49.6696    8.6304   81.2912 F   0  0  0  0  0  0  0  0  0  0  0  0
   53.7612   19.3172   84.0924 F   0  0  0  0  0  0  0  0  0  0  0  0
   53.7966   13.1678   81.7288 C   0  0  0  0  0  0  0  0  0  0  0  0
   49.2155   10.6913   82.4010 C   0  0  0  0  0  0  0  0  0  0  0  0
   50.2391    9.7160   81.8724 C   0  0  0  0  0  0  0  0  0  0  0  0
   51.1381   12.1652   82.5265 N   0  0  0  0  0  0  0  0  0  0  0  0
   51.8195   11.5749   81.4914 C   0  0  0  0  0  0  0  0  0  0  0  0
   55.2827   12.8037   81.7077 C   0  0  0  0  0  0  0  0  0  0  0  0
   53.7635   14.6067   81.5007 N   0  0  0  0  0  0  0  0  0  0  0  0
   49.8330   11.8771   82.8513 C   0  0  0  0  0  0  0  0  0  0  0  0
   54.4699   17.4492   82.7392 C   0  0  0  0  0  0  0  0  0  0  0  0
   52.9911   12.2084   80.9226 C   0  0  0  0  0  0  0  0  0  0  0  0
  1  2  1  0
  1  6  1  0
  1 21  1  0
  2  4  2  0
  2  8  1  0
  3 21  1  0
  5  6  1  0
  5 18  1  0
  6 19  1  0
  7 15  1  0
  7 17  1  0
  8  9  1  0
  9 12  1  0
  9 21  1  0
 10 15  1  0
 11 15  1  0
 13 18  1  0
 13 19  1  0
 13 22  1  0
 14 15  1  0
 14 20  1  0
 16 17  1  0
 16 20  1  0
 17 22  1  0
M  END
>  <ID>  (1) 
conformer_0

$$$$
