
     RDKit          3D

 31 34  0  0  0  0  0  0  0  0999 V2000
   48.8528    9.9992   82.9740 C   0  0  0  0  0  0  0  0  0  0  0  0
   56.0731   12.1131   80.0101 C   0  0  0  0  0  0  0  0  0  0  0  0
   51.1044   11.5205   81.8839 C   0  0  0  0  0  0  0  0  0  0  0  0
   51.0812   10.3696   81.2342 C   0  0  0  0  0  0  0  0  0  0  0  0
   52.9656   17.3557   83.8137 C   0  0  0  0  0  0  0  0  0  0  0  0
   57.4638   10.9813   78.4567 C   0  0  0  0  0  0  0  0  0  0  0  0
   49.0797    7.5256   82.5978 C   0  0  0  0  0  0  0  0  0  0  0  0
   52.2995   20.3753   84.0517 F   0  0  0  0  0  0  0  0  0  0  0  0
   47.7163    7.1972   82.0961 F   0  0  0  0  0  0  0  0  0  0  0  0
   53.7962   15.3022   82.0905 C   0  0  0  0  0  0  0  0  0  0  0  0
   52.5773   15.2541   82.7807 C   0  0  0  0  0  0  0  0  0  0  0  0
   52.9641   19.5716   84.7737 C   0  0  0  0  0  0  0  0  0  0  0  0
   50.4537    9.1935   81.4280 C   0  0  0  0  0  0  0  0  0  0  0  0
   49.1795   11.2403   83.1476 C   0  0  0  0  0  0  0  0  0  0  0  0
   56.3570   10.6416   77.7164 C   0  0  0  0  0  0  0  0  0  0  0  0
   53.5611   12.9012   82.0568 C   0  0  0  0  0  0  0  0  0  0  0  0
   52.5478   18.2306   84.8234 O   0  0  0  0  0  0  0  0  0  0  0  0
   52.7082   11.5587   80.3994 C   0  0  0  0  0  0  0  0  0  0  0  0
   55.0932   11.0082   78.1150 C   0  0  0  0  0  0  0  0  0  0  0  0
   54.1223   17.4783   83.0687 C   0  0  0  0  0  0  0  0  0  0  0  0
   51.9971   10.4625   80.1946 O   0  0  0  0  0  0  0  0  0  0  0  0
   54.9604   11.7764   79.2461 C   0  0  0  0  0  0  0  0  0  0  0  0
   54.2492   14.0688   81.3230 C   0  0  0  0  0  0  0  0  0  0  0  0
   54.2013   19.7632   85.1219 F   0  0  0  0  0  0  0  0  0  0  0  0
   49.4450    8.9233   82.3277 C   0  0  0  0  0  0  0  0  0  0  0  0
   57.3221   11.7090   79.6405 C   0  0  0  0  0  0  0  0  0  0  0  0
   53.5835   12.2445   79.5429 C   0  0  0  0  0  0  0  0  0  0  0  0
   54.5529   16.4399   82.1788 C   0  0  0  0  0  0  0  0  0  0  0  0
   52.2987   12.2435   81.5616 N   0  0  0  0  0  0  0  0  0  0  0  0
   52.1762   16.2333   83.5826 N   0  0  0  0  0  0  0  0  0  0  0  0
   50.1871   12.0690   82.7454 C   0  0  0  0  0  0  0  0  0  0  0  0
  1 14  2  0
  1 25  1  0
  2 22  2  0
  2 26  1  0
  3  4  1  0
  3 29  1  0
  3 31  2  0
  4 13  2  0
  4 21  1  0
  5 17  1  0
  5 20  2  0
  5 30  1  0
  6 15  1  0
  6 26  2  0
  7  9  1  0
  7 25  1  0
  8 12  1  0
 10 11  1  0
 10 23  1  0
 10 28  2  0
 11 30  2  0
 12 17  1  0
 12 24  1  0
 13 25  1  0
 14 31  1  0
 15 19  2  0
 16 23  1  0
 16 29  1  0
 18 21  1  0
 18 27  1  0
 18 29  1  0
 19 22  1  0
 20 28  1  0
 22 27  1  0
M  END
>  <ID>  (1) 
conformer_0

$$$$
