
     RDKit          3D

 29 33  0  0  0  0  0  0  0  0999 V2000
   52.5983   17.2606   84.2881 C   0  0  0  0  0  0  0  0  0  0  0  0
   57.3519   11.5065   79.0598 O   0  0  0  0  0  0  0  0  0  0  0  0
   53.9136   17.1325   82.2506 C   0  0  0  0  0  0  0  0  0  0  0  0
   54.4074   18.3829   82.4860 C   0  0  0  0  0  0  0  0  0  0  0  0
   49.8263   11.7626   82.9370 C   0  0  0  0  0  0  0  0  0  0  0  0
   53.0330   16.5923   83.2015 C   0  0  0  0  0  0  0  0  0  0  0  0
   52.6860   13.5500   81.4943 C   0  0  0  0  0  0  0  0  0  0  0  0
   52.6098   15.2461   83.0027 C   0  0  0  0  0  0  0  0  0  0  0  0
   54.8200   14.1884   82.2596 C   0  0  0  0  0  0  0  0  0  0  0  0
   53.4507   14.5990   82.1361 N   0  0  0  0  0  0  0  0  0  0  0  0
   56.1484   11.8915   79.5877 C   0  0  0  0  0  0  0  0  0  0  0  0
   49.1310   10.6423   82.9024 C   0  0  0  0  0  0  0  0  0  0  0  0
   54.8762   11.5014   79.1133 C   0  0  0  0  0  0  0  0  0  0  0  0
   55.0373   13.2481   81.2023 C   0  0  0  0  0  0  0  0  0  0  0  0
   51.5100   11.3379   81.3220 C   0  0  0  0  0  0  0  0  0  0  0  0
   57.7344   10.2456   78.6849 C   0  0  0  0  0  0  0  0  0  0  0  0
   56.1890   12.7947   80.6530 C   0  0  0  0  0  0  0  0  0  0  0  0
   51.5445   14.4714   83.3021 O   0  0  0  0  0  0  0  0  0  0  0  0
   53.7259   11.9965   79.6920 C   0  0  0  0  0  0  0  0  0  0  0  0
   54.0484   19.0735   83.5820 N   0  0  0  0  0  0  0  0  0  0  0  0
   50.3511    9.3302   81.2432 C   0  0  0  0  0  0  0  0  0  0  0  0
   51.2983   10.1485   80.8912 C   0  0  0  0  0  0  0  0  0  0  0  0
   55.5087   14.3015   83.3002 O   0  0  0  0  0  0  0  0  0  0  0  0
   48.5384    8.3904   82.3331 Cl  0  0  0  0  0  0  0  0  0  0  0  0
   50.9190   12.1137   82.2458 C   0  0  0  0  0  0  0  0  0  0  0  0
   53.1363   18.5262   84.4950 C   0  0  0  0  0  0  0  0  0  0  0  0
   49.3657    9.4943   82.1558 C   0  0  0  0  0  0  0  0  0  0  0  0
   53.7636   12.8498   80.7533 C   0  0  0  0  0  0  0  0  0  0  0  0
   51.5379   13.4008   82.4316 C   0  0  0  0  0  0  0  0  0  0  0  0
  1  6  2  0
  1 26  1  0
  2 11  1  0
  2 16  1  0
  3  4  1  0
  3  6  1  0
  4 20  2  0
  5 12  2  0
  5 25  1  0
  6  8  1  0
  7 10  1  0
  7 28  1  0
  7 29  1  0
  8 10  1  0
  8 18  1  0
  9 10  1  0
  9 14  1  0
  9 23  2  0
 11 13  1  0
 11 17  2  0
 12 27  1  0
 13 19  2  0
 14 17  1  0
 14 28  2  0
 15 22  2  0
 15 25  1  0
 18 29  1  0
 19 28  1  0
 20 26  1  0
 21 22  1  0
 21 27  2  0
 24 27  1  0
 25 29  2  3
M  END
>  <ID>  (1) 
conformer_0

$$$$
