
     RDKit          3D

 28 31  0  0  0  0  0  0  0  0999 V2000
   49.8937    9.3309   81.6256 C   0  0  0  0  0  0  0  0  0  0  0  0
   47.7921    9.8397   82.3407 F   0  0  0  0  0  0  0  0  0  0  0  0
   53.9988   15.9225   82.3382 C   0  0  0  0  0  0  0  0  0  0  0  0
   53.3116   11.0859   79.7898 C   0  0  0  0  0  0  0  0  0  0  0  0
   55.8845   13.1511   81.0225 C   0  0  0  0  0  0  0  0  0  0  0  0
   54.1937   18.3342   82.8467 C   0  0  0  0  0  0  0  0  0  0  0  0
   55.9809   11.4675   79.6636 N   0  0  0  0  0  0  0  0  0  0  0  0
   55.8871   14.4053   81.7504 C   0  0  0  0  0  0  0  0  0  0  0  0
   48.6279   12.1011   83.3647 F   0  0  0  0  0  0  0  0  0  0  0  0
   49.5192    8.0818   81.4492 F   0  0  0  0  0  0  0  0  0  0  0  0
   56.7228   12.3633   80.4037 N   0  0  0  0  0  0  0  0  0  0  0  0
   52.6477   11.6398   80.8580 C   0  0  0  0  0  0  0  0  0  0  0  0
   54.0601   17.2702   82.0738 N   0  0  0  0  0  0  0  0  0  0  0  0
   51.0993    9.7905   81.2109 C   0  0  0  0  0  0  0  0  0  0  0  0
   49.4445   11.4037   82.6097 C   0  0  0  0  0  0  0  0  0  0  0  0
   51.4828   11.0963   81.4632 C   0  0  0  0  0  0  0  0  0  0  0  0
   53.4720   18.6347   84.0479 C   0  0  0  0  0  0  0  0  0  0  0  0
   52.1253   16.6050   83.8069 C   0  0  0  0  0  0  0  0  0  0  0  0
   53.0049   15.5371   83.3560 C   0  0  0  0  0  0  0  0  0  0  0  0
   49.0291   10.1825   82.2014 C   0  0  0  0  0  0  0  0  0  0  0  0
   53.6092   19.9998   84.6847 C   0  0  0  0  0  0  0  0  0  0  0  0
   54.5577   12.7966   80.6502 C   0  0  0  0  0  0  0  0  0  0  0  0
   52.3445   17.8434   84.4558 C   0  0  0  0  0  0  0  0  0  0  0  0
   54.6241   11.6913   79.7559 C   0  0  0  0  0  0  0  0  0  0  0  0
   54.7303   15.1713   81.4592 N   0  0  0  0  0  0  0  0  0  0  0  0
   52.5347   20.4459   85.3715 F   0  0  0  0  0  0  0  0  0  0  0  0
   50.6685   11.8649   82.2609 C   0  0  0  0  0  0  0  0  0  0  0  0
   53.3414   12.7301   81.3399 C   0  0  0  0  0  0  0  0  0  0  0  0
  1 10  1  0
  1 14  2  0
  1 20  1  0
  2 20  1  0
  3 13  1  0
  3 19  2  0
  3 25  1  0
  4 12  1  0
  4 24  1  0
  5  8  1  0
  5 11  1  0
  5 22  1  0
  6 13  1  0
  6 17  2  0
  7 11  1  0
  7 24  1  0
  8 25  1  0
  9 15  1  0
 12 16  1  0
 12 28  1  0
 14 16  1  0
 15 20  2  0
 15 27  1  0
 16 27  2  0
 17 21  1  0
 17 23  1  0
 18 19  1  0
 18 23  1  0
 21 26  1  0
 22 24  1  0
 22 28  1  0
M  END
>  <ID>  (1) 
conformer_0

$$$$
