
     RDKit          3D

 20 21  0  0  0  0  0  0  0  0999 V2000
   29.8675   28.8944    4.9909 C   0  0  0  0  0  0  0  0  0  0  0  0
   30.1169   27.9222    4.0790 C   0  0  0  0  0  0  0  0  0  0  0  0
   31.0412   26.9662    4.1518 C   0  0  0  0  0  0  0  0  0  0  0  0
   31.8035   26.8075    5.3092 C   0  0  0  0  0  0  0  0  0  0  0  0
   29.2404   27.8712    2.8640 C   0  0  0  0  0  0  0  0  0  0  0  0
   31.1516   26.0492    3.1428 C   0  0  0  0  0  0  0  0  0  0  0  0
   28.1669   28.9274    2.7960 O   0  0  0  0  0  0  0  0  0  0  0  0
   30.2870   26.0829    2.0481 C   0  0  0  0  0  0  0  0  0  0  0  0
   32.2122   24.9721    2.9972 C   0  0  0  0  0  0  0  0  0  0  0  0
   33.4496   25.1680    3.2700 C   0  0  0  0  0  0  0  0  0  0  0  0
   34.3695   24.1079    3.6983 C   0  0  0  0  0  0  0  0  0  0  0  0
   29.3252   26.9942    1.9371 C   0  0  0  0  0  0  0  0  0  0  0  0
   31.4345   23.8843    3.8552 C   0  0  0  0  0  0  0  0  0  0  0  0
   28.3519   27.0502    0.8533 C   0  0  0  0  0  0  0  0  0  0  0  0
   27.2200   27.0522    0.9873 O   0  0  0  0  0  0  0  0  0  0  0  0
   28.8120   26.9700   -0.4127 O   0  0  0  0  0  0  0  0  0  0  0  0
   32.3327   24.4566    1.6972 C   0  0  0  0  0  0  0  0  0  0  0  0
   35.3341   24.2387    4.5168 O   0  0  0  0  0  0  0  0  0  0  0  0
   31.7892   23.0836    1.4138 C   0  0  0  0  0  0  0  0  0  0  0  0
   31.4169   22.6254    2.8212 C   0  0  0  0  0  0  0  0  0  0  0  0
  1  2  1  0
  2  3  1  0
  3  4  1  0
  2  5  2  0
  3  6  2  0
  5  7  1  0
  6  8  1  0
  6  9  1  0
  9 10  1  0
 10 11  1  0
  5 12  1  0
  8 12  2  0
  9 13  1  0
 12 14  1  0
 14 15  2  0
 14 16  1  0
  9 17  1  0
 11 18  2  0
 17 19  1  0
 13 20  1  0
 19 20  1  0
M  END
>  <ID>  (1) 
conformer_0

$$$$
