
     RDKit          3D

 24 28  0  0  0  0  0  0  0  0999 V2000
   28.8421   28.9654    4.3163 C   0  0  0  0  0  0  0  0  0  0  0  0
   29.2718   28.1102    3.2436 C   0  0  0  0  0  0  0  0  0  0  0  0
   30.4533   27.4687    3.2704 C   0  0  0  0  0  0  0  0  0  0  0  0
   31.2245   27.5049    4.5179 C   0  0  0  0  0  0  0  0  0  0  0  0
   30.9340   26.6072    2.2265 C   0  0  0  0  0  0  0  0  0  0  0  0
   28.3165   27.9463    2.1582 C   0  0  0  0  0  0  0  0  0  0  0  0
   31.9895   25.6638    2.2690 C   0  0  0  0  0  0  0  0  0  0  0  0
   32.9701   25.7559    3.1368 C   0  0  0  0  0  0  0  0  0  0  0  0
   31.0221   28.2738    5.4884 C   0  0  0  0  0  0  0  0  0  0  0  0
   31.9223   24.5087    1.3809 C   0  0  0  0  0  0  0  0  0  0  0  0
   28.8534   27.3993    0.9976 C   0  0  0  0  0  0  0  0  0  0  0  0
   27.7017   29.1833    1.7835 C   0  0  0  0  0  0  0  0  0  0  0  0
   30.1351   26.8461    0.9570 C   0  0  0  0  0  0  0  0  0  0  0  0
   30.6840   24.0828    0.5940 C   0  0  0  0  0  0  0  0  0  0  0  0
   29.6270   28.9802    5.4278 C   0  0  0  0  0  0  0  0  0  0  0  0
   28.7038   28.2564   -0.1070 C   0  0  0  0  0  0  0  0  0  0  0  0
   29.3163   28.1592   -1.2836 C   0  0  0  0  0  0  0  0  0  0  0  0
   29.6180   23.4247    1.3765 C   0  0  0  0  0  0  0  0  0  0  0  0
   30.7623   26.6459   -0.3242 C   0  0  0  0  0  0  0  0  0  0  0  0
   30.4255   27.3713   -1.3311 C   0  0  0  0  0  0  0  0  0  0  0  0
   27.7258   29.2969    0.1650 C   0  0  0  0  0  0  0  0  0  0  0  0
   32.9022   23.6029    1.4877 C   0  0  0  0  0  0  0  0  0  0  0  0
   33.9718   23.8395    2.3929 C   0  0  0  0  0  0  0  0  0  0  0  0
   33.9551   24.8023    3.3347 C   0  0  0  0  0  0  0  0  0  0  0  0
  1  2  1  0
  2  3  2  0
  3  4  1  0
  3  5  1  0
  2  6  1  0
  5  7  1  0
  7  8  2  0
  4  9  2  0
  7 10  1  0
  6 11  1  0
  6 12  1  0
  5 13  2  0
 11 13  1  0
 10 14  1  0
  1 15  2  0
  9 15  1  0
 11 16  1  0
 16 17  2  0
 14 18  1  0
 13 19  1  0
 17 20  1  0
 19 20  2  0
 12 21  1  0
 16 21  1  0
 10 22  2  0
 22 23  1  0
  8 24  1  0
 23 24  2  0
M  END
>  <ID>  (1) 
conformer_0

$$$$
