
     RDKit          3D

 22 25  0  0  0  0  0  0  0  0999 V2000
   30.7187   27.9112   -0.7935 C   0  0  0  0  0  0  0  0  0  0  0  0
   29.4641   28.3074   -0.9010 C   0  0  0  0  0  0  0  0  0  0  0  0
   30.9435   27.0711    0.2162 C   0  0  0  0  0  0  0  0  0  0  0  0
   32.1878   26.4279    0.5351 C   0  0  0  0  0  0  0  0  0  0  0  0
   29.1317   29.2981   -2.0952 C   0  0  0  0  0  0  0  0  0  0  0  0
   32.3998   26.1342    1.9639 C   0  0  0  0  0  0  0  0  0  0  0  0
   32.6259   24.8054    2.3251 C   0  0  0  0  0  0  0  0  0  0  0  0
   33.4348   24.3759    3.4111 C   0  0  0  0  0  0  0  0  0  0  0  0
   28.4997   28.0644   -0.0281 C   0  0  0  0  0  0  0  0  0  0  0  0
   29.2930   29.1689   -3.1800 N   0  0  0  0  0  0  0  0  0  0  0  0
   29.9067   26.7188    1.2651 C   0  0  0  0  0  0  0  0  0  0  0  0
   34.3728   24.9668    3.9477 C   0  0  0  0  0  0  0  0  0  0  0  0
   28.8415   30.1176   -3.9185 C   0  0  0  0  0  0  0  0  0  0  0  0
   35.0038   24.3326    5.1368 C   0  0  0  0  0  0  0  0  0  0  0  0
   28.4466   30.4638   -1.6929 C   0  0  0  0  0  0  0  0  0  0  0  0
   34.7462   23.1592    5.6274 C   0  0  0  0  0  0  0  0  0  0  0  0
   30.1395   25.7649    2.3356 C   0  0  0  0  0  0  0  0  0  0  0  0
   28.7696   27.1730    1.0761 C   0  0  0  0  0  0  0  0  0  0  0  0
   31.0033   24.7142    2.0989 C   0  0  0  0  0  0  0  0  0  0  0  0
   32.9620   23.0443    3.9465 C   0  0  0  0  0  0  0  0  0  0  0  0
   33.6238   22.4962    5.0459 C   0  0  0  0  0  0  0  0  0  0  0  0
   28.1800   31.0401   -2.8273 N   0  0  0  0  0  0  0  0  0  0  0  0
  1  2  1  0
  1  3  2  0
  3  4  1  0
  2  5  1  0
  4  6  1  0
  6  7  1  0
  7  8  1  0
  2  9  2  0
  5 10  2  0
  3 11  1  0
  8 12  2  0
 10 13  1  0
 12 14  1  0
  5 15  1  0
 14 16  2  0
 11 17  1  0
  9 18  1  0
 11 18  2  0
  7 19  1  0
 17 19  1  0
  8 20  1  0
 16 21  1  0
 20 21  2  0
 13 22  2  0
 15 22  1  0
M  END
>  <ID>  (1) 
conformer_0

$$$$
