
     RDKit          3D

 25 30  0  0  0  0  0  0  0  0999 V2000
   30.7187   27.9112   -0.7935 C   0  0  0  0  0  0  0  0  0  0  0  0
   29.4641   28.3074   -0.9010 C   0  0  0  0  0  0  0  0  0  0  0  0
   30.9435   27.0711    0.2162 C   0  0  0  0  0  0  0  0  0  0  0  0
   32.1878   26.4279    0.5351 C   0  0  0  0  0  0  0  0  0  0  0  0
   29.1317   29.2981   -2.0952 C   0  0  0  0  0  0  0  0  0  0  0  0
   32.3998   26.1342    1.9639 C   0  0  0  0  0  0  0  0  0  0  0  0
   32.6259   24.8054    2.3251 C   0  0  0  0  0  0  0  0  0  0  0  0
   33.4348   24.3759    3.4111 C   0  0  0  0  0  0  0  0  0  0  0  0
   28.4997   28.0644   -0.0281 C   0  0  0  0  0  0  0  0  0  0  0  0
   29.2930   29.1689   -3.1800 N   0  0  0  0  0  0  0  0  0  0  0  0
   29.9067   26.7188    1.2651 C   0  0  0  0  0  0  0  0  0  0  0  0
   34.3728   24.9668    3.9477 C   0  0  0  0  0  0  0  0  0  0  0  0
   32.8759   23.1891    4.1639 C   0  0  0  0  0  0  0  0  0  0  0  0
   27.1395   28.7109   -0.2001 O   0  0  0  0  0  0  0  0  0  0  0  0
   30.1369   25.8028    2.3658 C   0  0  0  0  0  0  0  0  0  0  0  0
   34.9145   24.2106    5.1776 C   0  0  0  0  0  0  0  0  0  0  0  0
   28.8836   30.1113   -3.9456 C   0  0  0  0  0  0  0  0  0  0  0  0
   30.0960   24.5256    2.1544 C   0  0  0  0  0  0  0  0  0  0  0  0
   28.6595   27.2574    1.1731 C   0  0  0  0  0  0  0  0  0  0  0  0
   28.2100   30.9672   -3.1812 N   0  0  0  0  0  0  0  0  0  0  0  0
   28.3009   30.4526   -1.8810 C   0  0  0  0  0  0  0  0  0  0  0  0
   33.9692   23.1108    5.2776 C   0  0  0  0  0  0  0  0  0  0  0  0
   31.4196   26.0052    3.1587 C   0  0  0  0  0  0  0  0  0  0  0  0
   32.3391   23.6751    1.5783 C   0  0  0  0  0  0  0  0  0  0  0  0
   30.8284   23.3169    1.7214 C   0  0  0  0  0  0  0  0  0  0  0  0
  1  2  1  0
  1  3  2  0
  3  4  1  0
  2  5  1  0
  4  6  1  0
  6  7  1  0
  7  8  1  0
  2  9  2  0
  5 10  2  0
  3 11  1  0
  8 12  2  0
  8 13  1  0
  9 14  1  0
 11 15  1  0
 12 16  1  0
 10 17  1  0
 15 18  1  0
  9 19  1  0
 11 19  2  0
 17 20  2  0
  5 21  1  0
 20 21  1  0
 13 22  1  0
 16 22  1  0
  6 23  1  0
  7 23  1  0
 15 23  1  0
  7 24  1  0
 18 25  2  0
 24 25  1  0
M  END
>  <ID>  (1) 
conformer_0

$$$$
