
     RDKit          3D

 19 22  0  0  0  0  0  0  0  0999 V2000
   29.8675   28.8944    4.9909 C   0  0  0  0  0  0  0  0  0  0  0  0
   30.1169   27.9222    4.0790 C   0  0  0  0  0  0  0  0  0  0  0  0
   31.0412   26.9662    4.1518 C   0  0  0  0  0  0  0  0  0  0  0  0
   31.8035   26.8075    5.3092 C   0  0  0  0  0  0  0  0  0  0  0  0
   29.2404   27.8712    2.8640 C   0  0  0  0  0  0  0  0  0  0  0  0
   31.1516   26.0492    3.1428 C   0  0  0  0  0  0  0  0  0  0  0  0
   28.1669   28.9274    2.7960 O   0  0  0  0  0  0  0  0  0  0  0  0
   30.2870   26.0829    2.0481 C   0  0  0  0  0  0  0  0  0  0  0  0
   32.2122   24.9721    2.9972 C   0  0  0  0  0  0  0  0  0  0  0  0
   29.3317   27.0249    1.9365 C   0  0  0  0  0  0  0  0  0  0  0  0
   32.0605   23.9614    2.1789 C   0  0  0  0  0  0  0  0  0  0  0  0
   30.8827   23.5178    1.8229 C   0  0  0  0  0  0  0  0  0  0  0  0
   33.2853   25.0530    3.8451 C   0  0  0  0  0  0  0  0  0  0  0  0
   32.8277   22.7757    2.7359 C   0  0  0  0  0  0  0  0  0  0  0  0
   33.1171   26.1607    5.1067 C   0  0  0  0  0  0  0  0  0  0  0  0
   26.8150   28.4564    3.0119 C   0  0  0  0  0  0  0  0  0  0  0  0
   34.2771   24.0744    3.9742 C   0  0  0  0  0  0  0  0  0  0  0  0
   34.2048   23.0824    3.0887 C   0  0  0  0  0  0  0  0  0  0  0  0
   30.1999   24.9416    1.0515 C   0  0  0  0  0  0  0  0  0  0  0  0
  1  2  1  0
  2  3  1  0
  3  4  1  0
  2  5  2  0
  3  6  2  0
  5  7  1  0
  6  8  1  0
  6  9  1  0
  5 10  1  0
  8 10  2  0
  9 11  1  0
 11 12  1  0
  9 13  2  0
 11 14  1  0
  4 15  1  0
 13 15  1  0
  7 16  1  0
 13 17  1  0
 14 18  1  0
 17 18  1  0
  8 19  1  0
 12 19  1  0
M  END
>  <ID>  (1) 
conformer_0

$$$$
