
     RDKit          3D

 26 32  0  0  0  0  0  0  0  0999 V2000
   28.8421   28.9654    4.3163 C   0  0  0  0  0  0  0  0  0  0  0  0
   29.2718   28.1102    3.2436 C   0  0  0  0  0  0  0  0  0  0  0  0
   30.4533   27.4687    3.2704 C   0  0  0  0  0  0  0  0  0  0  0  0
   31.2245   27.5049    4.5179 C   0  0  0  0  0  0  0  0  0  0  0  0
   30.9340   26.6072    2.2265 C   0  0  0  0  0  0  0  0  0  0  0  0
   29.9320   25.7437    1.6161 C   0  0  0  0  0  0  0  0  0  0  0  0
   30.1535   24.3881    1.5209 C   0  0  0  0  0  0  0  0  0  0  0  0
   28.5174   25.9921    1.9749 C   0  0  0  0  0  0  0  0  0  0  0  0
   32.4441   26.7977    4.5820 C   0  0  0  0  0  0  0  0  0  0  0  0
   29.8551   26.3975    0.1151 C   0  0  0  0  0  0  0  0  0  0  0  0
   29.4428   23.5125    1.6177 O   0  0  0  0  0  0  0  0  0  0  0  0
   27.6347   29.5376    4.2370 O   0  0  0  0  0  0  0  0  0  0  0  0
   31.7141   27.5070    1.3202 C   0  0  0  0  0  0  0  0  0  0  0  0
   33.0574   26.6487    5.6480 O   0  0  0  0  0  0  0  0  0  0  0  0
   30.8253   28.3967    5.3088 C   0  0  0  0  0  0  0  0  0  0  0  0
   31.5693   23.9363    1.3180 C   0  0  0  0  0  0  0  0  0  0  0  0
   28.6349   26.9530   -0.2332 C   0  0  0  0  0  0  0  0  0  0  0  0
   28.3157   27.9059    2.1379 C   0  0  0  0  0  0  0  0  0  0  0  0
   32.0836   25.7813    2.9511 C   0  0  0  0  0  0  0  0  0  0  0  0
   30.8941   27.8595    0.2476 C   0  0  0  0  0  0  0  0  0  0  0  0
   32.6810   26.0208    3.6277 N   0  0  0  0  0  0  0  0  0  0  0  0
   28.2141   27.9749    0.6563 C   0  0  0  0  0  0  0  0  0  0  0  0
   33.7778   24.9967    3.9482 C   0  0  0  0  0  0  0  0  0  0  0  0
   32.4589   24.5152    2.1160 C   0  0  0  0  0  0  0  0  0  0  0  0
   29.6435   29.0488    5.3571 C   0  0  0  0  0  0  0  0  0  0  0  0
   33.1181   23.7303    3.2544 C   0  0  0  0  0  0  0  0  0  0  0  0
  1  2  1  0
  2  3  2  0
  3  4  1  0
  3  5  1  0
  5  6  1  0
  6  7  1  0
  6  8  1  0
  4  9  1  0
  6 10  1  0
  7 11  2  0
  1 12  1  0
  5 13  1  0
  9 14  2  0
  4 15  2  0
  7 16  1  0
 10 17  1  0
  2 18  1  0
  8 18  1  0
  5 19  1  0
 10 20  1  0
 13 20  1  0
  9 21  1  0
 19 21  1  0
 17 22  1  0
 18 22  1  0
 21 23  1  0
 16 24  1  0
 19 24  1  0
  1 25  2  0
 15 25  1  0
 23 26  1  0
 24 26  1  0
M  END
>  <ID>  (1) 
conformer_0

$$$$
