
     RDKit          3D

 25 29  0  0  0  0  0  0  0  0999 V2000
   30.7187   27.9112   -0.7935 C   0  0  0  0  0  0  0  0  0  0  0  0
   29.4641   28.3074   -0.9010 C   0  0  0  0  0  0  0  0  0  0  0  0
   30.9435   27.0711    0.2162 C   0  0  0  0  0  0  0  0  0  0  0  0
   32.1878   26.4279    0.5351 C   0  0  0  0  0  0  0  0  0  0  0  0
   29.1317   29.2981   -2.0952 C   0  0  0  0  0  0  0  0  0  0  0  0
   32.3998   26.1342    1.9639 C   0  0  0  0  0  0  0  0  0  0  0  0
   32.6259   24.8054    2.3251 C   0  0  0  0  0  0  0  0  0  0  0  0
   33.4348   24.3759    3.4111 C   0  0  0  0  0  0  0  0  0  0  0  0
   28.4997   28.0644   -0.0281 C   0  0  0  0  0  0  0  0  0  0  0  0
   29.2930   29.1689   -3.1800 N   0  0  0  0  0  0  0  0  0  0  0  0
   33.5000   23.0838    3.6421 C   0  0  0  0  0  0  0  0  0  0  0  0
   29.9816   26.6826    1.2430 C   0  0  0  0  0  0  0  0  0  0  0  0
   34.2435   25.3088    4.1840 C   0  0  0  0  0  0  0  0  0  0  0  0
   28.6491   30.5305   -1.7680 C   0  0  0  0  0  0  0  0  0  0  0  0
   28.9877   30.1295   -3.9205 N   0  0  0  0  0  0  0  0  0  0  0  0
   30.2003   25.7971    2.3350 C   0  0  0  0  0  0  0  0  0  0  0  0
   34.5497   22.7248    4.6858 C   0  0  0  0  0  0  0  0  0  0  0  0
   28.3857   30.9856   -2.9247 N   0  0  0  0  0  0  0  0  0  0  0  0
   35.2317   23.5168    5.3679 C   0  0  0  0  0  0  0  0  0  0  0  0
   28.7157   27.3033    1.0462 C   0  0  0  0  0  0  0  0  0  0  0  0
   30.3806   24.5124    1.9880 N   0  0  0  0  0  0  0  0  0  0  0  0
   29.1821   23.7542    1.5620 C   0  0  0  0  0  0  0  0  0  0  0  0
   31.4644   26.4202    2.9417 C   0  0  0  0  0  0  0  0  0  0  0  0
   35.0291   24.9863    5.1071 C   0  0  0  0  0  0  0  0  0  0  0  0
   31.5016   23.7496    2.0740 C   0  0  0  0  0  0  0  0  0  0  0  0
  1  2  1  0
  1  3  2  0
  3  4  1  0
  2  5  1  0
  4  6  1  0
  6  7  1  0
  7  8  1  0
  2  9  2  0
  5 10  2  0
  8 11  2  0
  3 12  1  0
  8 13  1  0
  5 14  1  0
 10 15  1  0
 12 16  1  0
 11 17  1  0
 14 18  1  0
 15 18  2  0
 17 19  2  0
  9 20  1  0
 12 20  2  0
 16 21  1  0
 21 22  1  0
  6 23  1  0
 16 23  1  0
 13 24  2  0
 19 24  1  0
  7 25  1  0
 21 25  1  0
M  END
>  <ID>  (1) 
conformer_0

$$$$
