
     RDKit          3D

 17 18  0  0  0  0  0  0  0  0999 V2000
   31.7107   26.4093    0.6804 C   0  0  0  0  0  0  0  0  0  0  0  0
   31.4695   25.4610    1.6412 C   0  0  0  0  0  0  0  0  0  0  0  0
   30.7202   27.5226    0.6846 C   0  0  0  0  0  0  0  0  0  0  0  0
   30.8934   28.6125   -0.2779 C   0  0  0  0  0  0  0  0  0  0  0  0
   29.9916   27.7682    1.9516 C   0  0  0  0  0  0  0  0  0  0  0  0
   30.7218   25.6845    2.8130 C   0  0  0  0  0  0  0  0  0  0  0  0
   32.1916   23.9758    1.5064 C   0  0  0  0  0  0  0  0  0  0  0  0
   31.2939   23.0898    1.2593 O   0  0  0  0  0  0  0  0  0  0  0  0
   29.6571   28.8420   -0.9496 C   0  0  0  0  0  0  0  0  0  0  0  0
   29.2797   29.0537    1.9823 C   0  0  0  0  0  0  0  0  0  0  0  0
   32.9560   23.7039    2.7432 C   0  0  0  0  0  0  0  0  0  0  0  0
   28.7553   29.5257    0.5716 C   0  0  0  0  0  0  0  0  0  0  0  0
   28.6978   28.9074   -0.7116 C   0  0  0  0  0  0  0  0  0  0  0  0
   34.0696   24.3333    3.1867 C   0  0  0  0  0  0  0  0  0  0  0  0
   34.9439   23.7232    3.9915 C   0  0  0  0  0  0  0  0  0  0  0  0
   29.9941   26.8809    2.9448 C   0  0  0  0  0  0  0  0  0  0  0  0
   30.0074   23.5698    0.9368 C   0  0  0  0  0  0  0  0  0  0  0  0
  1  2  1  0
  1  3  2  0
  3  4  1  0
  3  5  1  0
  2  6  2  0
  2  7  1  0
  7  8  1  0
  4  9  1  0
  5 10  1  0
  7 11  1  0
 10 12  1  0
  9 13  1  0
 12 13  1  0
 11 14  1  0
 14 15  1  0
  5 16  2  0
  6 16  1  0
  8 17  1  0
M  END
>  <ID>  (1) 
conformer_0

$$$$
