
     RDKit          3D

 25 29  0  0  0  0  0  0  0  0999 V2000
   30.7187   27.9112   -0.7935 C   0  0  0  0  0  0  0  0  0  0  0  0
   29.4641   28.3074   -0.9010 C   0  0  0  0  0  0  0  0  0  0  0  0
   30.9435   27.0711    0.2162 C   0  0  0  0  0  0  0  0  0  0  0  0
   32.1878   26.4279    0.5351 C   0  0  0  0  0  0  0  0  0  0  0  0
   29.1317   29.2981   -2.0952 C   0  0  0  0  0  0  0  0  0  0  0  0
   32.3998   26.1342    1.9639 C   0  0  0  0  0  0  0  0  0  0  0  0
   32.6259   24.8054    2.3251 C   0  0  0  0  0  0  0  0  0  0  0  0
   33.4348   24.3759    3.4111 C   0  0  0  0  0  0  0  0  0  0  0  0
   28.4997   28.0644   -0.0281 C   0  0  0  0  0  0  0  0  0  0  0  0
   29.2930   29.1689   -3.1800 N   0  0  0  0  0  0  0  0  0  0  0  0
   29.9067   26.7188    1.2651 C   0  0  0  0  0  0  0  0  0  0  0  0
   34.3728   24.9668    3.9477 C   0  0  0  0  0  0  0  0  0  0  0  0
   32.8759   23.1891    4.1639 C   0  0  0  0  0  0  0  0  0  0  0  0
   27.1395   28.7109   -0.2001 C   0  0  0  0  0  0  0  0  0  0  0  0
   27.9306   30.0357   -1.8587 C   0  0  0  0  0  0  0  0  0  0  0  0
   27.6979   30.7739   -3.0691 N   0  0  0  0  0  0  0  0  0  0  0  0
   35.1271   24.6052    5.0827 C   0  0  0  0  0  0  0  0  0  0  0  0
   28.6583   27.3205    1.2033 C   0  0  0  0  0  0  0  0  0  0  0  0
   33.6312   22.7949    5.3119 C   0  0  0  0  0  0  0  0  0  0  0  0
   26.1091   28.5641    0.8726 C   0  0  0  0  0  0  0  0  0  0  0  0
   28.6950   30.2492   -3.9020 C   0  0  0  0  0  0  0  0  0  0  0  0
   34.7101   23.4936    5.7411 C   0  0  0  0  0  0  0  0  0  0  0  0
   30.0425   25.9230    2.4145 O   0  0  0  0  0  0  0  0  0  0  0  0
   31.2343   26.3636    2.8964 C   0  0  0  0  0  0  0  0  0  0  0  0
   26.9643   29.9106   -0.8783 C   0  0  0  0  0  0  0  0  0  0  0  0
  1  2  1  0
  1  3  2  0
  3  4  1  0
  2  5  1  0
  4  6  1  0
  6  7  1  0
  7  8  1  0
  2  9  2  0
  5 10  2  0
  3 11  1  0
  8 12  2  0
  8 13  1  0
  9 14  1  0
  5 15  1  0
 15 16  2  0
 12 17  1  0
  9 18  1  0
 11 18  2  0
 13 19  2  0
 14 20  1  0
 10 21  1  0
 16 21  1  0
 17 22  2  0
 19 22  1  0
 11 23  1  0
  6 24  1  0
 23 24  1  0
 14 25  2  0
 15 25  1  0
M  END
>  <ID>  (1) 
conformer_0

$$$$
