
     RDKit          3D

 16 17  0  0  0  0  0  0  0  0999 V2000
   31.1917   27.2458    0.0716 C   0  0  0  0  0  0  0  0  0  0  0  0
   30.1115   27.8440   -0.0609 C   0  0  0  0  0  0  0  0  0  0  0  0
   31.2130   26.1376    0.8524 C   0  0  0  0  0  0  0  0  0  0  0  0
   32.3570   25.2195    0.9839 C   0  0  0  0  0  0  0  0  0  0  0  0
   29.9341   25.7499    1.4106 C   0  0  0  0  0  0  0  0  0  0  0  0
   32.3797   24.3088    2.2291 C   0  0  0  0  0  0  0  0  0  0  0  0
   33.3045   24.6512    3.2491 C   0  0  0  0  0  0  0  0  0  0  0  0
   30.1856   29.1419   -1.0018 C   0  0  0  0  0  0  0  0  0  0  0  0
   33.6497   23.8317    4.3175 C   0  0  0  0  0  0  0  0  0  0  0  0
   32.6911   22.5899    4.3450 C   0  0  0  0  0  0  0  0  0  0  0  0
   28.8921   27.5544    0.4801 C   0  0  0  0  0  0  0  0  0  0  0  0
   31.6826   23.2993    2.3605 C   0  0  0  0  0  0  0  0  0  0  0  0
   34.5716   23.9429    5.4785 C   0  0  0  0  0  0  0  0  0  0  0  0
   32.8375   21.6919    5.4261 O   0  0  0  0  0  0  0  0  0  0  0  0
   28.8215   26.4636    1.2304 C   0  0  0  0  0  0  0  0  0  0  0  0
   31.7969   22.3568    3.4424 C   0  0  0  0  0  0  0  0  0  0  0  0
  1  2  1  0
  1  3  2  0
  3  4  1  0
  3  5  1  0
  4  6  1  0
  6  7  1  0
  2  8  1  0
  7  9  2  0
  9 10  1  0
  2 11  2  0
  6 12  2  0
  9 13  1  0
 10 14  1  0
  5 15  2  0
 11 15  1  0
 10 16  2  0
 12 16  1  0
M  END
>  <ID>  (1) 
conformer_0

$$$$
