
     RDKit          3D

 21 24  0  0  0  0  0  0  0  0999 V2000
   28.8421   28.9654    4.3163 C   0  0  0  0  0  0  0  0  0  0  0  0
   29.2718   28.1102    3.2436 C   0  0  0  0  0  0  0  0  0  0  0  0
   28.4588   27.9485    2.0909 C   0  0  0  0  0  0  0  0  0  0  0  0
   28.8778   27.1148    1.0652 C   0  0  0  0  0  0  0  0  0  0  0  0
   30.4376   27.4912    3.4599 C   0  0  0  0  0  0  0  0  0  0  0  0
   31.2202   27.6901    4.5970 C   0  0  0  0  0  0  0  0  0  0  0  0
   28.0302   26.9116   -0.0309 O   0  0  0  0  0  0  0  0  0  0  0  0
   30.8440   26.6323    2.3780 C   0  0  0  0  0  0  0  0  0  0  0  0
   30.0744   26.4571    1.2039 C   0  0  0  0  0  0  0  0  0  0  0  0
   32.2575   27.0137    4.9437 C   0  0  0  0  0  0  0  0  0  0  0  0
   29.5372   28.9979    5.4461 C   0  0  0  0  0  0  0  0  0  0  0  0
   30.6525   28.3804    5.6466 C   0  0  0  0  0  0  0  0  0  0  0  0
   32.6511   25.8671    4.3457 C   0  0  0  0  0  0  0  0  0  0  0  0
   30.6029   25.5379    0.1096 O   0  0  0  0  0  0  0  0  0  0  0  0
   31.3590   24.5792    0.6657 C   0  0  0  0  0  0  0  0  0  0  0  0
   27.7880   27.9593   -0.7805 C   0  0  0  0  0  0  0  0  0  0  0  0
   32.2021   25.8079    2.9210 C   0  0  0  0  0  0  0  0  0  0  0  0
   31.9854   24.4816    2.1983 C   0  0  0  0  0  0  0  0  0  0  0  0
   34.1176   25.4432    4.3977 C   0  0  0  0  0  0  0  0  0  0  0  0
   34.5465   25.2904    5.5541 O   0  0  0  0  0  0  0  0  0  0  0  0
   34.4962   24.6423    3.4164 O   0  0  0  0  0  0  0  0  0  0  0  0
  1  2  1  0
  2  3  1  0
  3  4  2  0
  2  5  2  0
  5  6  1  0
  4  7  1  0
  5  8  1  0
  4  9  1  0
  8  9  2  0
  6 10  1  0
  1 11  2  0
  6 12  2  0
 11 12  1  0
 10 13  1  0
  9 14  1  0
 14 15  1  0
  7 16  1  0
  8 17  1  0
 13 17  1  0
 15 18  1  0
 17 18  1  0
 13 19  1  0
 19 20  1  0
 19 21  2  0
M  END
>  <ID>  (1) 
conformer_0

$$$$
