
     RDKit          3D

 12 13  0  0  0  0  0  0  0  0999 V2000
   31.3456   23.2357    1.7306 C   0  0  0  0  0  0  0  0  0  0  0  0
   30.4497   24.1040    1.3314 C   0  0  0  0  0  0  0  0  0  0  0  0
   30.7777   25.4289    1.1580 C   0  0  0  0  0  0  0  0  0  0  0  0
   32.0275   25.8725    1.6056 C   0  0  0  0  0  0  0  0  0  0  0  0
   29.8652   26.3997    0.6402 C   0  0  0  0  0  0  0  0  0  0  0  0
   28.6427   26.2563    0.4737 O   0  0  0  0  0  0  0  0  0  0  0  0
   30.2967   27.8213    0.5265 N   0  0  0  0  0  0  0  0  0  0  0  0
   29.3355   28.7841   -0.0913 C   0  0  0  0  0  0  0  0  0  0  0  0
   32.3867   27.3367    1.5023 C   0  0  0  0  0  0  0  0  0  0  0  0
   32.8518   24.9260    2.1458 C   0  0  0  0  0  0  0  0  0  0  0  0
   31.6109   28.1091    0.6453 C   0  0  0  0  0  0  0  0  0  0  0  0
   32.5380   23.5999    2.2911 C   0  0  0  0  0  0  0  0  0  0  0  0
  1  2  1  0
  2  3  2  0
  3  4  1  0
  3  5  1  0
  5  6  2  0
  5  7  1  0
  7  8  1  0
  4  9  1  0
  4 10  2  0
  7 11  1  0
  9 11  1  0
  1 12  2  0
 10 12  1  0
M  END
>  <ID>  (1) 
conformer_0

$$$$
