
     RDKit          3D

 21 23  0  0  0  0  0  0  0  0999 V2000
   30.4783   28.2072   -1.0637 C   0  0  0  0  0  0  0  0  0  0  0  0
   31.1386   27.6007   -0.0931 C   0  0  0  0  0  0  0  0  0  0  0  0
   30.3822   27.0883    0.9030 C   0  0  0  0  0  0  0  0  0  0  0  0
   28.9946   27.1197    0.8396 C   0  0  0  0  0  0  0  0  0  0  0  0
   28.2062   26.4900    1.9718 C   0  0  0  0  0  0  0  0  0  0  0  0
   30.9715   26.4391    2.0810 N   0  0  0  0  0  0  0  0  0  0  0  0
   31.6215   25.3889    2.0931 C   0  0  0  0  0  0  0  0  0  0  0  0
   31.2745   27.3068    3.1425 C   0  0  0  0  0  0  0  0  0  0  0  0
   28.3853   27.6902   -0.2445 C   0  0  0  0  0  0  0  0  0  0  0  0
   29.0665   28.2288   -1.2169 C   0  0  0  0  0  0  0  0  0  0  0  0
   27.4781   27.4397    2.5997 F   0  0  0  0  0  0  0  0  0  0  0  0
   32.4150   24.9777    3.1275 C   0  0  0  0  0  0  0  0  0  0  0  0
   33.1720   23.6877    3.2982 C   0  0  0  0  0  0  0  0  0  0  0  0
   32.5282   25.7383    4.4614 C   0  0  0  0  0  0  0  0  0  0  0  0
   33.9726   23.4291    4.3607 C   0  0  0  0  0  0  0  0  0  0  0  0
   27.4260   25.5617    1.6171 F   0  0  0  0  0  0  0  0  0  0  0  0
   33.1519   25.4601    5.3327 N   0  0  0  0  0  0  0  0  0  0  0  0
   31.7957   26.9449    4.4264 C   0  0  0  0  0  0  0  0  0  0  0  0
   33.9555   24.3018    5.3909 C   0  0  0  0  0  0  0  0  0  0  0  0
   30.7008   28.4615    3.0002 O   0  0  0  0  0  0  0  0  0  0  0  0
   29.0089   25.9238    2.8498 F   0  0  0  0  0  0  0  0  0  0  0  0
  1  2  1  0
  2  3  2  0
  3  4  1  0
  4  5  1  0
  3  6  1  0
  6  7  1  0
  6  8  1  0
  4  9  2  0
  1 10  2  0
  9 10  1  0
  5 11  1  0
  7 12  1  0
 12 13  2  0
 12 14  1  0
 13 15  1  0
  5 16  1  0
 14 17  2  0
  8 18  1  0
 14 18  1  0
 15 19  2  0
 17 19  1  0
  8 20  2  0
  5 21  1  0
M  END
>  <ID>  (1) 
conformer_0

$$$$
