
     RDKit          3D

 12 13  0  0  0  0  0  0  0  0999 V2000
   31.3456   23.2357    1.7306 C   0  0  0  0  0  0  0  0  0  0  0  0
   30.4497   24.1040    1.3314 C   0  0  0  0  0  0  0  0  0  0  0  0
   30.7062   25.4774    1.2642 C   0  0  0  0  0  0  0  0  0  0  0  0
   32.1082   25.6807    1.7285 C   0  0  0  0  0  0  0  0  0  0  0  0
   29.8021   26.4734    0.9794 C   0  0  0  0  0  0  0  0  0  0  0  0
   29.7161   27.0767   -0.0626 C   0  0  0  0  0  0  0  0  0  0  0  0
   29.0071   27.0362    2.1331 C   0  0  0  0  0  0  0  0  0  0  0  0
   32.5878   23.4541    2.0211 C   0  0  0  0  0  0  0  0  0  0  0  0
   28.0786   27.9441    1.9103 C   0  0  0  0  0  0  0  0  0  0  0  0
   28.7102   28.0011   -0.3931 C   0  0  0  0  0  0  0  0  0  0  0  0
   32.8859   24.8503    2.1756 C   0  0  0  0  0  0  0  0  0  0  0  0
   27.9354   28.4691    0.5993 C   0  0  0  0  0  0  0  0  0  0  0  0
  1  2  1  0
  2  3  2  0
  3  4  1  0
  3  5  1  0
  5  6  2  0
  5  7  1  0
  1  8  2  0
  7  9  2  0
  6 10  1  0
  4 11  2  0
  8 11  1  0
  9 12  1  0
 10 12  2  0
M  END
>  <ID>  (1) 
conformer_0

$$$$
