
     RDKit          3D

 26 31  0  0  0  0  0  0  0  0999 V2000
   30.7187   27.9112   -0.7935 C   0  0  0  0  0  0  0  0  0  0  0  0
   29.4641   28.3074   -0.9010 C   0  0  0  0  0  0  0  0  0  0  0  0
   30.9435   27.0711    0.2162 C   0  0  0  0  0  0  0  0  0  0  0  0
   32.1878   26.4279    0.5351 C   0  0  0  0  0  0  0  0  0  0  0  0
   29.1317   29.2981   -2.0952 C   0  0  0  0  0  0  0  0  0  0  0  0
   32.3998   26.1342    1.9639 C   0  0  0  0  0  0  0  0  0  0  0  0
   32.6259   24.8054    2.3251 C   0  0  0  0  0  0  0  0  0  0  0  0
   33.4348   24.3759    3.4111 C   0  0  0  0  0  0  0  0  0  0  0  0
   28.4997   28.0644   -0.0281 C   0  0  0  0  0  0  0  0  0  0  0  0
   29.2930   29.1689   -3.1800 N   0  0  0  0  0  0  0  0  0  0  0  0
   29.9067   26.7188    1.2651 C   0  0  0  0  0  0  0  0  0  0  0  0
   34.3728   24.9668    3.9477 C   0  0  0  0  0  0  0  0  0  0  0  0
   33.0466   23.0326    4.0013 C   0  0  0  0  0  0  0  0  0  0  0  0
   31.9454   22.2638    3.5071 C   0  0  0  0  0  0  0  0  0  0  0  0
   28.9065   29.9579   -4.0918 C   0  0  0  0  0  0  0  0  0  0  0  0
   35.1624   24.5105    5.0671 C   0  0  0  0  0  0  0  0  0  0  0  0
   27.1163   28.7120   -0.1916 O   0  0  0  0  0  0  0  0  0  0  0  0
   28.2112   30.4415   -2.0158 N   0  0  0  0  0  0  0  0  0  0  0  0
   34.7670   23.4915    5.6857 C   0  0  0  0  0  0  0  0  0  0  0  0
   33.6885   22.6325    5.2312 C   0  0  0  0  0  0  0  0  0  0  0  0
   27.6568   31.0396   -0.8793 C   0  0  0  0  0  0  0  0  0  0  0  0
   28.6731   27.2791    1.0839 C   0  0  0  0  0  0  0  0  0  0  0  0
   28.2426   30.9293   -3.2852 C   0  0  0  0  0  0  0  0  0  0  0  0
   30.1186   25.7958    2.4106 C   0  0  0  0  0  0  0  0  0  0  0  0
   31.4361   25.7246    3.0278 C   0  0  0  0  0  0  0  0  0  0  0  0
   27.0494   30.0393   -0.1297 C   0  0  0  0  0  0  0  0  0  0  0  0
  1  2  1  0
  1  3  2  0
  3  4  1  0
  2  5  1  0
  4  6  1  0
  6  7  1  0
  7  8  1  0
  2  9  2  0
  5 10  2  0
  3 11  1  0
  8 12  2  0
  8 13  1  0
 13 14  1  0
 10 15  1  0
 12 16  1  0
  9 17  1  0
  5 18  1  0
 16 19  2  0
 13 20  2  0
 19 20  1  0
 18 21  1  0
  9 22  1  0
 11 22  2  0
 15 23  2  0
 18 23  1  0
 11 24  1  0
  6 25  1  0
  7 25  1  0
 24 25  1  0
 17 26  1  0
 21 26  1  0
M  END
>  <ID>  (1) 
conformer_0

$$$$
