
     RDKit          3D

 24 28  0  0  0  0  0  0  0  0999 V2000
   30.7187   27.9112   -0.7935 C   0  0  0  0  0  0  0  0  0  0  0  0
   29.4641   28.3074   -0.9010 C   0  0  0  0  0  0  0  0  0  0  0  0
   30.9435   27.0711    0.2162 C   0  0  0  0  0  0  0  0  0  0  0  0
   32.1878   26.4279    0.5351 C   0  0  0  0  0  0  0  0  0  0  0  0
   29.1317   29.2981   -2.0952 C   0  0  0  0  0  0  0  0  0  0  0  0
   32.3998   26.1342    1.9639 C   0  0  0  0  0  0  0  0  0  0  0  0
   32.6259   24.8054    2.3251 C   0  0  0  0  0  0  0  0  0  0  0  0
   33.4348   24.3759    3.4111 C   0  0  0  0  0  0  0  0  0  0  0  0
   28.4997   28.0644   -0.0281 C   0  0  0  0  0  0  0  0  0  0  0  0
   29.2930   29.1689   -3.1800 N   0  0  0  0  0  0  0  0  0  0  0  0
   29.9067   26.7188    1.2651 C   0  0  0  0  0  0  0  0  0  0  0  0
   34.3728   24.9668    3.9477 C   0  0  0  0  0  0  0  0  0  0  0  0
   33.0466   23.0326    4.0013 C   0  0  0  0  0  0  0  0  0  0  0  0
   31.9454   22.2638    3.5071 C   0  0  0  0  0  0  0  0  0  0  0  0
   30.0919   25.7661    2.3529 C   0  0  0  0  0  0  0  0  0  0  0  0
   28.6461   27.2185    1.0617 C   0  0  0  0  0  0  0  0  0  0  0  0
   35.1932   24.4344    5.0047 C   0  0  0  0  0  0  0  0  0  0  0  0
   33.8971   22.5679    4.9279 C   0  0  0  0  0  0  0  0  0  0  0  0
   28.8713   30.1345   -3.9547 N   0  0  0  0  0  0  0  0  0  0  0  0
   28.2662   30.9590   -3.3105 C   0  0  0  0  0  0  0  0  0  0  0  0
   30.9492   23.0138    2.7993 C   0  0  0  0  0  0  0  0  0  0  0  0
   31.1076   24.7183    2.2316 C   0  0  0  0  0  0  0  0  0  0  0  0
   28.3321   30.5410   -1.9339 C   0  0  0  0  0  0  0  0  0  0  0  0
   34.9548   23.2749    5.4574 C   0  0  0  0  0  0  0  0  0  0  0  0
  1  2  1  0
  1  3  2  0
  3  4  1  0
  2  5  1  0
  4  6  1  0
  6  7  1  0
  7  8  1  0
  2  9  2  0
  5 10  2  0
  3 11  1  0
  8 12  2  0
  8 13  1  0
 13 14  1  0
 11 15  1  0
  9 16  1  0
 11 16  2  0
 12 17  1  0
 13 18  2  0
 10 19  1  0
 19 20  2  0
 14 21  1  0
  7 22  1  0
 15 22  1  0
 21 22  1  0
  5 23  1  0
 20 23  1  0
 17 24  2  0
 18 24  1  0
M  END
>  <ID>  (1) 
conformer_0

$$$$
