
     RDKit          3D

 25 30  0  0  0  0  0  0  0  0999 V2000
   28.8421   28.9654    4.3163 C   0  0  0  0  0  0  0  0  0  0  0  0
   29.2718   28.1102    3.2436 C   0  0  0  0  0  0  0  0  0  0  0  0
   30.4533   27.4687    3.2704 C   0  0  0  0  0  0  0  0  0  0  0  0
   31.2245   27.5049    4.5179 C   0  0  0  0  0  0  0  0  0  0  0  0
   30.9340   26.6072    2.2265 C   0  0  0  0  0  0  0  0  0  0  0  0
   29.9320   25.7437    1.6161 C   0  0  0  0  0  0  0  0  0  0  0  0
   30.1535   24.3881    1.5209 C   0  0  0  0  0  0  0  0  0  0  0  0
   28.5174   25.9921    1.9749 C   0  0  0  0  0  0  0  0  0  0  0  0
   32.4441   26.7977    4.5820 C   0  0  0  0  0  0  0  0  0  0  0  0
   29.8551   26.3975    0.1151 C   0  0  0  0  0  0  0  0  0  0  0  0
   29.4428   23.5125    1.6177 O   0  0  0  0  0  0  0  0  0  0  0  0
   27.6347   29.5376    4.2370 O   0  0  0  0  0  0  0  0  0  0  0  0
   31.7141   27.5070    1.3202 C   0  0  0  0  0  0  0  0  0  0  0  0
   33.0574   26.6487    5.6480 O   0  0  0  0  0  0  0  0  0  0  0  0
   28.3945   27.3567    2.5729 C   0  0  0  0  0  0  0  0  0  0  0  0
   32.1909   25.7871    2.7498 C   0  0  0  0  0  0  0  0  0  0  0  0
   32.7066   25.9373    3.6590 N   0  0  0  0  0  0  0  0  0  0  0  0
   31.5506   23.9771    1.8244 C   0  0  0  0  0  0  0  0  0  0  0  0
   33.8336   24.9820    3.8789 C   0  0  0  0  0  0  0  0  0  0  0  0
   34.7618   25.0566    4.7095 O   0  0  0  0  0  0  0  0  0  0  0  0
   30.8663   27.5445    0.0412 C   0  0  0  0  0  0  0  0  0  0  0  0
   32.1950   24.5377    2.2345 C   0  0  0  0  0  0  0  0  0  0  0  0
   33.6938   24.0556    2.5990 C   0  0  0  0  0  0  0  0  0  0  0  0
   29.4858   28.9653    5.3979 C   0  0  0  0  0  0  0  0  0  0  0  0
   30.7981   28.3241    5.5388 C   0  0  0  0  0  0  0  0  0  0  0  0
  1  2  1  0
  2  3  2  0
  3  4  1  0
  3  5  1  0
  5  6  1  0
  6  7  1  0
  6  8  1  0
  4  9  1  0
  6 10  1  0
  7 11  2  0
  1 12  1  0
  5 13  1  0
  9 14  2  0
  2 15  1  0
  8 15  1  0
  5 16  1  0
  9 17  1  0
 16 17  1  0
  7 18  1  0
 17 19  1  0
 19 20  1  0
 10 21  1  0
 13 21  1  0
 16 22  1  0
 18 22  2  0
 19 23  2  0
 22 23  1  0
  1 24  2  0
  4 25  2  0
 24 25  1  0
M  END
>  <ID>  (1) 
conformer_0

$$$$
