
     RDKit          3D

 19 21  0  0  0  0  0  0  0  0999 V2000
   31.3456   23.2357    1.7306 C   0  0  0  0  0  0  0  0  0  0  0  0
   32.2550   23.9022    2.2972 C   0  0  0  0  0  0  0  0  0  0  0  0
   30.1547   23.9432    1.2916 C   0  0  0  0  0  0  0  0  0  0  0  0
   33.4981   23.1856    2.7301 C   0  0  0  0  0  0  0  0  0  0  0  0
   30.1460   25.3641    1.6579 C   0  0  0  0  0  0  0  0  0  0  0  0
   28.8374   26.0963    1.3061 C   0  0  0  0  0  0  0  0  0  0  0  0
   28.9260   27.0349    0.4120 C   0  0  0  0  0  0  0  0  0  0  0  0
   32.2024   25.2358    2.6953 C   0  0  0  0  0  0  0  0  0  0  0  0
   28.1022   28.1575    0.3296 C   0  0  0  0  0  0  0  0  0  0  0  0
   31.0252   25.9542    2.3943 C   0  0  0  0  0  0  0  0  0  0  0  0
   28.2257   29.1075   -0.6825 C   0  0  0  0  0  0  0  0  0  0  0  0
   34.0118   23.4941    3.9976 C   0  0  0  0  0  0  0  0  0  0  0  0
   29.9873   27.0833   -0.6236 C   0  0  0  0  0  0  0  0  0  0  0  0
   27.2566   30.2759   -0.6718 O   0  0  0  0  0  0  0  0  0  0  0  0
   30.0805   28.3018   -1.5676 C   0  0  0  0  0  0  0  0  0  0  0  0
   29.1985   29.1713   -1.5317 C   0  0  0  0  0  0  0  0  0  0  0  0
   34.3647   24.7475    4.2957 C   0  0  0  0  0  0  0  0  0  0  0  0
   35.3482   22.9057    4.2954 C   0  0  0  0  0  0  0  0  0  0  0  0
   33.1704   26.0608    3.5121 C   0  0  0  0  0  0  0  0  0  0  0  0
  1  2  1  0
  1  3  2  0
  2  4  1  0
  3  5  1  0
  5  6  1  0
  6  7  1  0
  2  8  2  0
  7  9  1  0
  5 10  2  0
  8 10  1  0
  9 11  2  0
  4 12  1  0
  7 13  2  0
 11 14  1  0
 13 15  1  0
 11 16  1  0
 15 16  2  0
 12 17  1  0
 12 18  1  0
  8 19  1  0
 17 19  1  0
M  END
>  <ID>  (1) 
conformer_0

$$$$
