
     RDKit          3D

 18 20  0  0  0  0  0  0  0  0999 V2000
   31.1917   27.2458    0.0716 C   0  0  0  0  0  0  0  0  0  0  0  0
   31.8831   26.6338    0.8872 C   0  0  0  0  0  0  0  0  0  0  0  0
   31.6952   26.9954    2.2329 C   0  0  0  0  0  0  0  0  0  0  0  0
   30.2623   28.2313    0.2253 C   0  0  0  0  0  0  0  0  0  0  0  0
   32.3654   26.2516    3.3232 C   0  0  0  0  0  0  0  0  0  0  0  0
   32.1181   26.7049    4.6442 C   0  0  0  0  0  0  0  0  0  0  0  0
   33.1899   25.1559    3.2084 C   0  0  0  0  0  0  0  0  0  0  0  0
   33.6107   24.6517    4.3545 C   0  0  0  0  0  0  0  0  0  0  0  0
   29.5845   28.8984   -0.8399 C   0  0  0  0  0  0  0  0  0  0  0  0
   33.0325   25.6131    5.6277 S   0  0  0  0  0  0  0  0  0  0  0  0
   34.6117   23.4944    4.6666 C   0  0  0  0  0  0  0  0  0  0  0  0
   30.5998   27.8761    2.4657 C   0  0  0  0  0  0  0  0  0  0  0  0
   29.9037   28.6243   -2.1096 C   0  0  0  0  0  0  0  0  0  0  0  0
   29.9687   28.5373    1.5695 C   0  0  0  0  0  0  0  0  0  0  0  0
   28.2492   29.1809   -0.6467 C   0  0  0  0  0  0  0  0  0  0  0  0
   28.9234   29.2822   -2.9307 C   0  0  0  0  0  0  0  0  0  0  0  0
   34.3076   22.4737    3.8598 C   0  0  0  0  0  0  0  0  0  0  0  0
   27.7314   29.6903   -2.0978 S   0  0  0  0  0  0  0  0  0  0  0  0
  1  2  2  0
  2  3  1  0
  1  4  1  0
  3  5  1  0
  5  6  2  0
  5  7  1  0
  7  8  2  0
  4  9  1  0
  6 10  1  0
  8 10  1  0
  8 11  1  0
  3 12  2  0
  9 13  1  0
  4 14  2  0
 12 14  1  0
  9 15  2  0
 13 16  2  0
 11 17  1  0
 15 18  1  0
 16 18  1  0
M  END
>  <ID>  (1) 
conformer_0

$$$$
