
     RDKit          3D

 18 20  0  0  0  0  0  0  0  0999 V2000
   29.4834   23.7054    0.8566 C   0  0  0  0  0  0  0  0  0  0  0  0
   30.6251   24.3294    1.0225 C   0  0  0  0  0  0  0  0  0  0  0  0
   30.8304   25.6125    1.0370 C   0  0  0  0  0  0  0  0  0  0  0  0
   31.9107   23.4910    1.2142 C   0  0  0  0  0  0  0  0  0  0  0  0
   32.4877   23.5651    2.5379 C   0  0  0  0  0  0  0  0  0  0  0  0
   31.9451   23.2875    3.5491 C   0  0  0  0  0  0  0  0  0  0  0  0
   31.9950   26.4633    1.1172 C   0  0  0  0  0  0  0  0  0  0  0  0
   30.5344   22.7771    3.5805 C   0  0  0  0  0  0  0  0  0  0  0  0
   32.4111   23.4711    4.9568 C   0  0  0  0  0  0  0  0  0  0  0  0
   28.4370   24.5025    1.3820 C   0  0  0  0  0  0  0  0  0  0  0  0
   34.0341   23.7135    2.7384 C   0  0  0  0  0  0  0  0  0  0  0  0
   28.8174   25.8432    1.6212 C   0  0  0  0  0  0  0  0  0  0  0  0
   34.5338   24.0576    3.9299 C   0  0  0  0  0  0  0  0  0  0  0  0
   33.7519   23.8225    5.0453 C   0  0  0  0  0  0  0  0  0  0  0  0
   27.6881   26.7605    1.9846 O   0  0  0  0  0  0  0  0  0  0  0  0
   31.6408   27.8391    1.2284 C   0  0  0  0  0  0  0  0  0  0  0  0
   29.7685   26.4027    1.3220 N   0  0  0  0  0  0  0  0  0  0  0  0
   30.1985   27.8451    1.2919 C   0  0  0  0  0  0  0  0  0  0  0  0
  1  2  1  0
  2  3  2  0
  2  4  1  0
  4  5  1  0
  5  6  2  0
  3  7  1  0
  6  8  1  0
  6  9  1  0
  1 10  1  0
  5 11  1  0
 10 12  1  0
 11 13  2  0
  9 14  2  0
 13 14  1  0
 12 15  2  0
  7 16  1  0
  3 17  1  0
 12 17  1  0
 16 18  1  0
 17 18  1  0
M  END
>  <ID>  (1) 
conformer_0

$$$$
