
     RDKit          3D

 26 31  0  0  0  0  0  0  0  0999 V2000
   28.8421   28.9654    4.3163 C   0  0  0  0  0  0  0  0  0  0  0  0
   29.2718   28.1102    3.2436 C   0  0  0  0  0  0  0  0  0  0  0  0
   30.4533   27.4687    3.2704 C   0  0  0  0  0  0  0  0  0  0  0  0
   31.2245   27.5049    4.5179 C   0  0  0  0  0  0  0  0  0  0  0  0
   30.9340   26.6072    2.2265 C   0  0  0  0  0  0  0  0  0  0  0  0
   29.9320   25.7437    1.6161 C   0  0  0  0  0  0  0  0  0  0  0  0
   30.1535   24.3881    1.5209 C   0  0  0  0  0  0  0  0  0  0  0  0
   28.5174   25.9921    1.9749 C   0  0  0  0  0  0  0  0  0  0  0  0
   32.4441   26.7977    4.5820 C   0  0  0  0  0  0  0  0  0  0  0  0
   30.7577   28.3006    5.5171 C   0  0  0  0  0  0  0  0  0  0  0  0
   29.9337   26.3320   -0.0161 C   0  0  0  0  0  0  0  0  0  0  0  0
   31.6176   27.5952    1.2791 C   0  0  0  0  0  0  0  0  0  0  0  0
   31.5546   23.9307    1.4906 C   0  0  0  0  0  0  0  0  0  0  0  0
   28.2710   27.4935    2.2552 C   0  0  0  0  0  0  0  0  0  0  0  0
   31.5803   28.4319    6.6439 O   0  0  0  0  0  0  0  0  0  0  0  0
   28.7626   26.5747   -0.6066 O   0  0  0  0  0  0  0  0  0  0  0  0
   30.8623   27.4981    0.0020 C   0  0  0  0  0  0  0  0  0  0  0  0
   33.1256   26.9255    5.6524 O   0  0  0  0  0  0  0  0  0  0  0  0
   32.1138   25.7336    2.7408 C   0  0  0  0  0  0  0  0  0  0  0  0
   32.7378   25.9549    3.6655 C   0  0  0  0  0  0  0  0  0  0  0  0
   33.8168   25.0252    3.9813 C   0  0  0  0  0  0  0  0  0  0  0  0
   27.5835   29.5316    4.1967 O   0  0  0  0  0  0  0  0  0  0  0  0
   34.6902   25.1450    5.1651 O   0  0  0  0  0  0  0  0  0  0  0  0
   32.4065   24.6245    1.9586 C   0  0  0  0  0  0  0  0  0  0  0  0
   29.5975   29.0004    5.4373 C   0  0  0  0  0  0  0  0  0  0  0  0
   33.6961   24.1235    2.9412 C   0  0  0  0  0  0  0  0  0  0  0  0
  1  2  1  0
  2  3  2  0
  3  4  1  0
  3  5  1  0
  5  6  1  0
  6  7  1  0
  6  8  1  0
  4  9  1  0
  4 10  2  0
  6 11  1  0
  5 12  1  0
  7 13  1  0
  2 14  1  0
  8 14  1  0
 10 15  1  0
 11 16  1  0
 11 17  1  0
 12 17  1  0
  9 18  2  0
  5 19  1  0
  9 20  1  0
 19 20  2  0
 20 21  1  0
  1 22  1  0
 21 23  1  0
 13 24  1  0
 19 24  1  0
  1 25  2  0
 10 25  1  0
 21 26  2  0
 24 26  1  0
M  END
>  <ID>  (1) 
conformer_0

$$$$
