
     RDKit          3D

 19 21  0  0  0  0  0  0  0  0999 V2000
   31.7107   26.4093    0.6804 C   0  0  0  0  0  0  0  0  0  0  0  0
   31.4695   25.4610    1.6412 C   0  0  0  0  0  0  0  0  0  0  0  0
   30.7202   27.5226    0.6846 C   0  0  0  0  0  0  0  0  0  0  0  0
   30.8934   28.6125   -0.2779 C   0  0  0  0  0  0  0  0  0  0  0  0
   29.9916   27.7682    1.9516 C   0  0  0  0  0  0  0  0  0  0  0  0
   30.7218   25.6845    2.8130 C   0  0  0  0  0  0  0  0  0  0  0  0
   32.1916   23.9758    1.5064 C   0  0  0  0  0  0  0  0  0  0  0  0
   31.2939   23.0898    1.2593 O   0  0  0  0  0  0  0  0  0  0  0  0
   29.3130   29.0807    2.0130 C   0  0  0  0  0  0  0  0  0  0  0  0
   33.1864   23.7253    2.4250 C   0  0  0  0  0  0  0  0  0  0  0  0
   29.0054   29.6580    0.7225 C   0  0  0  0  0  0  0  0  0  0  0  0
   32.9214   22.7461    3.3423 C   0  0  0  0  0  0  0  0  0  0  0  0
   33.8871   22.4182    4.3911 C   0  0  0  0  0  0  0  0  0  0  0  0
   29.7506   29.4278   -0.3846 C   0  0  0  0  0  0  0  0  0  0  0  0
   30.7277   24.7623    3.9649 C   0  0  0  0  0  0  0  0  0  0  0  0
   30.0170   26.9773    2.9623 C   0  0  0  0  0  0  0  0  0  0  0  0
   34.8503   23.2866    4.6957 C   0  0  0  0  0  0  0  0  0  0  0  0
   34.0895   24.7704    2.7920 C   0  0  0  0  0  0  0  0  0  0  0  0
   34.9430   24.5373    3.9043 C   0  0  0  0  0  0  0  0  0  0  0  0
  1  2  1  0
  1  3  2  0
  3  4  1  0
  3  5  1  0
  2  6  2  0
  2  7  1  0
  7  8  1  0
  5  9  1  0
  7 10  1  0
  9 11  1  0
 10 12  2  0
 12 13  1  0
  4 14  1  0
 11 14  2  0
  6 15  1  0
  5 16  2  0
  6 16  1  0
 13 17  2  0
 10 18  1  0
 17 19  1  0
 18 19  2  0
M  END
>  <ID>  (1) 
conformer_0

$$$$
