
     RDKit          3D

 21 24  0  0  0  0  0  0  0  0999 V2000
   29.6434   28.7371   -1.8153 C   0  0  0  0  0  0  0  0  0  0  0  0
   30.1320   28.0090   -0.9574 C   0  0  0  0  0  0  0  0  0  0  0  0
   28.5268   29.5404   -1.4757 C   0  0  0  0  0  0  0  0  0  0  0  0
   29.8127   27.7658    0.2113 C   0  0  0  0  0  0  0  0  0  0  0  0
   30.3987   26.8833    1.2191 N   0  0  0  0  0  0  0  0  0  0  0  0
   30.1663   25.5413    1.0570 C   0  0  0  0  0  0  0  0  0  0  0  0
   31.0730   24.6817    1.5605 C   0  0  0  0  0  0  0  0  0  0  0  0
   27.9068   30.4621   -2.4863 O   0  0  0  0  0  0  0  0  0  0  0  0
   27.9564   30.3725   -3.6753 C   0  0  0  0  0  0  0  0  0  0  0  0
   28.6371   28.6410    0.7782 C   0  0  0  0  0  0  0  0  0  0  0  0
   32.0697   25.3344    2.3796 C   0  0  0  0  0  0  0  0  0  0  0  0
   28.0380   29.4316   -0.0520 C   0  0  0  0  0  0  0  0  0  0  0  0
   30.9638   23.1842    1.4038 C   0  0  0  0  0  0  0  0  0  0  0  0
   31.0782   27.3868    2.3444 C   0  0  0  0  0  0  0  0  0  0  0  0
   31.9285   26.5571    2.8762 C   0  0  0  0  0  0  0  0  0  0  0  0
   30.8571   28.5762    2.7196 O   0  0  0  0  0  0  0  0  0  0  0  0
   33.0333   24.4572    3.0121 C   0  0  0  0  0  0  0  0  0  0  0  0
   33.1808   23.0459    2.5645 C   0  0  0  0  0  0  0  0  0  0  0  0
   32.9634   26.7345    3.8612 C   0  0  0  0  0  0  0  0  0  0  0  0
   33.9339   25.1497    4.0872 S   0  0  0  0  0  0  0  0  0  0  0  0
   31.8742   22.4541    2.1881 C   0  0  0  0  0  0  0  0  0  0  0  0
  1  2  1  0
  1  3  2  0
  2  4  2  0
  4  5  1  0
  5  6  1  0
  6  7  2  0
  3  8  1  0
  8  9  1  0
  4 10  1  0
  7 11  1  0
  3 12  1  0
 10 12  2  0
  7 13  1  0
  5 14  1  0
 11 15  1  0
 14 15  1  0
 14 16  2  0
 11 17  2  0
 17 18  1  0
 15 19  2  0
 17 20  1  0
 19 20  1  0
 13 21  1  0
 18 21  1  0
M  END
>  <ID>  (1) 
conformer_0

$$$$
