
     RDKit          3D

 17 18  0  0  0  0  0  0  0  0999 V2000
   31.3456   23.2357    1.7306 C   0  0  0  0  0  0  0  0  0  0  0  0
   30.4497   24.1040    1.3314 C   0  0  0  0  0  0  0  0  0  0  0  0
   30.7777   25.4289    1.1580 C   0  0  0  0  0  0  0  0  0  0  0  0
   32.0275   25.8725    1.6056 C   0  0  0  0  0  0  0  0  0  0  0  0
   29.8652   26.3997    0.6402 C   0  0  0  0  0  0  0  0  0  0  0  0
   30.1959   27.6053   -0.0330 C   0  0  0  0  0  0  0  0  0  0  0  0
   31.5504   27.9111   -0.2994 C   0  0  0  0  0  0  0  0  0  0  0  0
   28.9914   23.6663    1.2815 C   0  0  0  0  0  0  0  0  0  0  0  0
   32.5187   25.4892    2.8336 C   0  0  0  0  0  0  0  0  0  0  0  0
   33.4681   26.0985    3.5806 C   0  0  0  0  0  0  0  0  0  0  0  0
   32.1986   23.7023    3.0510 C   0  0  0  0  0  0  0  0  0  0  0  0
   33.2327   26.4303    4.9670 C   0  0  0  0  0  0  0  0  0  0  0  0
   32.4452   27.1500    0.9067 C   0  0  0  0  0  0  0  0  0  0  0  0
   33.6113   23.1197    2.9820 C   0  0  0  0  0  0  0  0  0  0  0  0
   32.4934   27.2729    5.3090 C   0  0  0  0  0  0  0  0  0  0  0  0
   31.4408   23.6174    4.2367 C   0  0  0  0  0  0  0  0  0  0  0  0
   32.4417   27.7479    6.6580 O   0  0  0  0  0  0  0  0  0  0  0  0
  1  2  1  0
  2  3  2  0
  3  4  1  0
  3  5  1  0
  5  6  2  0
  6  7  1  0
  2  8  1  0
  4  9  1  0
  9 10  2  3
  1 11  1  0
  9 11  1  0
 10 12  1  0
  4 13  1  0
  7 13  1  0
 11 14  1  0
 12 15  2  3
 11 16  1  0
 15 17  1  0
M  END
>  <ID>  (1) 
conformer_0

$$$$
