
     RDKit          3D

 14 15  0  0  0  0  0  0  0  0999 V2000
   31.7107   26.4093    0.6804 C   0  0  0  0  0  0  0  0  0  0  0  0
   30.9583   27.5360    0.4348 C   0  0  0  0  0  0  0  0  0  0  0  0
   31.8589   26.0181    1.9975 C   0  0  0  0  0  0  0  0  0  0  0  0
   31.5587   26.8977    3.0378 C   0  0  0  0  0  0  0  0  0  0  0  0
   32.4555   24.5876    2.2722 C   0  0  0  0  0  0  0  0  0  0  0  0
   31.7509   26.4570    4.4789 C   0  0  0  0  0  0  0  0  0  0  0  0
   30.8721   28.0616    2.7302 C   0  0  0  0  0  0  0  0  0  0  0  0
   31.7614   23.5329    1.7992 C   0  0  0  0  0  0  0  0  0  0  0  0
   33.4564   24.3506    3.0079 C   0  0  0  0  0  0  0  0  0  0  0  0
   30.6060   28.4275    1.4738 C   0  0  0  0  0  0  0  0  0  0  0  0
   32.1561   22.3495    2.2448 N   0  0  0  0  0  0  0  0  0  0  0  0
   33.3917   22.8163    2.9799 N   0  0  0  0  0  0  0  0  0  0  0  0
   34.3006   21.9914    3.6898 C   0  0  0  0  0  0  0  0  0  0  0  0
   30.7924   28.0114   -0.9097 N   0  0  0  0  0  0  0  0  0  0  0  0
  1  2  1  0
  1  3  2  0
  3  4  1  0
  3  5  1  0
  4  6  1  0
  4  7  2  0
  5  8  1  0
  5  9  2  0
  2 10  2  0
  7 10  1  0
  8 11  2  0
  9 12  1  0
 11 12  1  0
 12 13  1  0
  2 14  1  0
M  END
>  <ID>  (1) 
conformer_0

$$$$
