
     RDKit          3D

 22 24  0  0  0  0  0  0  0  0999 V2000
   30.7187   27.9112   -0.7935 C   0  0  0  0  0  0  0  0  0  0  0  0
   31.2939   27.3661    0.1810 C   0  0  0  0  0  0  0  0  0  0  0  0
   30.5245   26.8272    1.1748 C   0  0  0  0  0  0  0  0  0  0  0  0
   29.1234   26.8075    1.0059 C   0  0  0  0  0  0  0  0  0  0  0  0
   31.0418   26.2228    2.4691 C   0  0  0  0  0  0  0  0  0  0  0  0
   31.3097   27.1428    3.5084 C   0  0  0  0  0  0  0  0  0  0  0  0
   30.5807   28.4636    3.5937 C   0  0  0  0  0  0  0  0  0  0  0  0
   31.3885   24.9443    2.4863 C   0  0  0  0  0  0  0  0  0  0  0  0
   30.7482   29.0099    4.8337 O   0  0  0  0  0  0  0  0  0  0  0  0
   32.0698   24.6474    3.7213 C   0  0  0  0  0  0  0  0  0  0  0  0
   31.2491   23.9343    1.2966 C   0  0  0  0  0  0  0  0  0  0  0  0
   32.4526   23.0764    3.7364 C   0  0  0  0  0  0  0  0  0  0  0  0
   31.5510   22.6542    1.6450 O   0  0  0  0  0  0  0  0  0  0  0  0
   29.8377   28.8934    2.7449 O   0  0  0  0  0  0  0  0  0  0  0  0
   32.5244   22.5117    2.5250 C   0  0  0  0  0  0  0  0  0  0  0  0
   28.2202   26.2336    2.0687 C   0  0  0  0  0  0  0  0  0  0  0  0
   31.7183   26.4988    4.7438 C   0  0  0  0  0  0  0  0  0  0  0  0
   33.7414   23.1580    4.6281 C   0  0  0  0  0  0  0  0  0  0  0  0
   31.4947   22.2729    4.5532 C   0  0  0  0  0  0  0  0  0  0  0  0
   29.3494   27.9315   -1.0270 C   0  0  0  0  0  0  0  0  0  0  0  0
   28.5658   27.3681   -0.0768 C   0  0  0  0  0  0  0  0  0  0  0  0
   32.1598   25.3239    4.7687 C   0  0  0  0  0  0  0  0  0  0  0  0
  1  2  1  0
  2  3  2  0
  3  4  1  0
  3  5  1  0
  5  6  1  0
  6  7  1  0
  5  8  2  0
  7  9  2  0
  8 10  1  0
  8 11  1  0
 10 12  1  0
 11 13  1  0
  7 14  1  0
 12 15  1  0
 13 15  1  0
  4 16  1  0
  6 17  2  0
 12 18  1  0
 12 19  1  0
  1 20  2  0
  4 21  2  0
 20 21  1  0
 10 22  2  0
 17 22  1  0
M  END
>  <ID>  (1) 
conformer_0

$$$$
