
     RDKit          3D

 18 20  0  0  0  0  0  0  0  0999 V2000
   31.7107   26.4093    0.6804 C   0  0  0  0  0  0  0  0  0  0  0  0
   31.4695   25.4610    1.6412 C   0  0  0  0  0  0  0  0  0  0  0  0
   31.9418   25.4804    2.9672 C   0  0  0  0  0  0  0  0  0  0  0  0
   31.6157   26.6601    3.8133 C   0  0  0  0  0  0  0  0  0  0  0  0
   30.9906   27.7134    0.8641 C   0  0  0  0  0  0  0  0  0  0  0  0
   32.2140   26.8499    5.0808 C   0  0  0  0  0  0  0  0  0  0  0  0
   29.8374   27.9067    0.0411 C   0  0  0  0  0  0  0  0  0  0  0  0
   33.1256   25.7269    5.3813 C   0  0  0  0  0  0  0  0  0  0  0  0
   30.9481   24.1413    1.3855 C   0  0  0  0  0  0  0  0  0  0  0  0
   32.6477   24.3889    3.4738 C   0  0  0  0  0  0  0  0  0  0  0  0
   28.8006   28.6454    0.6645 C   0  0  0  0  0  0  0  0  0  0  0  0
   33.3149   24.5798    4.7063 C   0  0  0  0  0  0  0  0  0  0  0  0
   29.8966   27.4892   -1.1840 C   0  0  0  0  0  0  0  0  0  0  0  0
   28.7072   28.0563   -1.9184 C   0  0  0  0  0  0  0  0  0  0  0  0
   32.4703   23.1191    2.9334 C   0  0  0  0  0  0  0  0  0  0  0  0
   27.7451   28.8709   -0.0215 C   0  0  0  0  0  0  0  0  0  0  0  0
   31.5970   22.9861    1.8280 C   0  0  0  0  0  0  0  0  0  0  0  0
   27.6960   28.6229   -1.4024 C   0  0  0  0  0  0  0  0  0  0  0  0
  1  2  1  0
  2  3  1  0
  3  4  1  0
  1  5  1  0
  4  6  2  0
  5  7  1  0
  6  8  1  0
  2  9  2  0
  3 10  2  0
  7 11  1  0
  8 12  2  0
 10 12  1  0
  7 13  2  0
 13 14  1  0
 10 15  1  0
 11 16  2  0
  9 17  1  0
 15 17  2  0
 14 18  2  0
 16 18  1  0
M  END
>  <ID>  (1) 
conformer_0

$$$$
