
     RDKit          3D

 18 21  0  0  0  0  0  0  0  0999 V2000
   31.3376   23.6386    6.1614 C   0  0  0  0  0  0  0  0  0  0  0  0
   31.2644   24.0537    5.0583 C   0  0  0  0  0  0  0  0  0  0  0  0
   31.1395   25.1474    4.5268 N   0  0  0  0  0  0  0  0  0  0  0  0
   30.9182   25.4878    3.2361 C   0  0  0  0  0  0  0  0  0  0  0  0
   31.8675   23.1423    4.0042 C   0  0  0  0  0  0  0  0  0  0  0  0
   32.3122   22.8344    6.7848 C   0  0  0  0  0  0  0  0  0  0  0  0
   31.3391   24.3465    2.5220 C   0  0  0  0  0  0  0  0  0  0  0  0
   31.7461   23.2941    2.7907 C   0  0  0  0  0  0  0  0  0  0  0  0
   30.5054   26.8117    2.8163 C   0  0  0  0  0  0  0  0  0  0  0  0
   32.6229   21.7614    6.0381 C   0  0  0  0  0  0  0  0  0  0  0  0
   31.1756   24.7461    0.8368 C   0  0  0  0  0  0  0  0  0  0  0  0
   30.4033   27.0435    1.4181 C   0  0  0  0  0  0  0  0  0  0  0  0
   29.9430   28.3215    0.9440 C   0  0  0  0  0  0  0  0  0  0  0  0
   29.7018   28.4828   -0.3369 C   0  0  0  0  0  0  0  0  0  0  0  0
   30.1647   27.6915   -1.3186 C   0  0  0  0  0  0  0  0  0  0  0  0
   30.7346   26.0406    0.5313 C   0  0  0  0  0  0  0  0  0  0  0  0
   30.5811   26.3910   -0.8345 C   0  0  0  0  0  0  0  0  0  0  0  0
   32.5140   21.9399    4.6407 C   0  0  0  0  0  0  0  0  0  0  0  0
  1  2  1  0
  2  3  1  0
  3  4  2  0
  2  5  2  0
  1  6  2  0
  4  7  1  0
  5  8  1  0
  7  8  2  0
  4  9  1  0
  6 10  1  0
  7 11  1  0
  9 12  2  0
 12 13  1  0
 13 14  1  0
 14 15  2  0
 11 16  1  0
 12 16  1  0
 15 17  1  0
 16 17  2  0
  5 18  1  0
 10 18  2  0
M  END
>  <ID>  (1) 
conformer_0

$$$$
