
     RDKit          3D

 19 20  0  0  0  0  0  0  0  0999 V2000
   30.2014   23.4225    1.2336 C   0  0  0  0  0  0  0  0  0  0  0  0
   30.4238   24.7030    1.2381 C   0  0  0  0  0  0  0  0  0  0  0  0
   31.6272   25.3377    1.2390 C   0  0  0  0  0  0  0  0  0  0  0  0
   31.7872   26.5581    1.1425 C   0  0  0  0  0  0  0  0  0  0  0  0
   29.3265   25.6232    1.6160 C   0  0  0  0  0  0  0  0  0  0  0  0
   31.1042   22.5631    2.0068 O   0  0  0  0  0  0  0  0  0  0  0  0
   31.3546   22.9927    3.3001 C   0  0  0  0  0  0  0  0  0  0  0  0
   32.6165   23.4120    3.6637 C   0  0  0  0  0  0  0  0  0  0  0  0
   33.7405   23.0161    3.0936 C   0  0  0  0  0  0  0  0  0  0  0  0
   28.0610   24.9042    1.9073 F   0  0  0  0  0  0  0  0  0  0  0  0
   35.0495   23.4579    3.4724 C   0  0  0  0  0  0  0  0  0  0  0  0
   29.4012   26.9025    1.7597 C   0  0  0  0  0  0  0  0  0  0  0  0
   32.8221   24.2854    4.8177 C   0  0  0  0  0  0  0  0  0  0  0  0
   33.0361   27.2859    0.9286 F   0  0  0  0  0  0  0  0  0  0  0  0
   30.6441   27.4873    1.5442 C   0  0  0  0  0  0  0  0  0  0  0  0
   35.1403   24.3736    4.4692 C   0  0  0  0  0  0  0  0  0  0  0  0
   30.7421   28.8717    1.6257 C   0  0  0  0  0  0  0  0  0  0  0  0
   33.9966   24.8105    5.1535 C   0  0  0  0  0  0  0  0  0  0  0  0
   30.3743   22.8229    4.0371 O   0  0  0  0  0  0  0  0  0  0  0  0
  1  2  1  0
  2  3  1  0
  3  4  2  0
  2  5  2  0
  1  6  1  0
  6  7  1  0
  7  8  1  0
  8  9  2  0
  5 10  1  0
  9 11  1  0
  5 12  1  0
  8 13  1  0
  4 14  1  0
  4 15  1  0
 12 15  2  0
 11 16  2  0
 15 17  1  0
 13 18  2  0
 16 18  1  0
  7 19  2  0
M  END
>  <ID>  (1) 
conformer_0

$$$$
