
     RDKit          3D

 16 17  0  0  0  0  0  0  0  0999 V2000
   31.1917   27.2458    0.0716 C   0  0  0  0  0  0  0  0  0  0  0  0
   31.1454   26.4612    1.0271 C   0  0  0  0  0  0  0  0  0  0  0  0
   31.3926   25.0779    1.1595 C   0  0  0  0  0  0  0  0  0  0  0  0
   32.6662   24.6777    1.6000 C   0  0  0  0  0  0  0  0  0  0  0  0
   33.0685   24.8180    2.9636 C   0  0  0  0  0  0  0  0  0  0  0  0
   30.6198   27.1145    2.2164 C   0  0  0  0  0  0  0  0  0  0  0  0
   30.4500   26.5525    3.5763 C   0  0  0  0  0  0  0  0  0  0  0  0
   32.0072   24.7304    3.9855 C   0  0  0  0  0  0  0  0  0  0  0  0
   30.7404   28.5220    0.3573 N   0  0  0  0  0  0  0  0  0  0  0  0
   31.9440   23.6304    4.7953 O   0  0  0  0  0  0  0  0  0  0  0  0
   34.3057   24.9219    3.3994 C   0  0  0  0  0  0  0  0  0  0  0  0
   34.7122   24.5787    4.6758 C   0  0  0  0  0  0  0  0  0  0  0  0
   31.4803   25.9193    4.4211 N   0  0  0  0  0  0  0  0  0  0  0  0
   30.3456   24.1703    0.8935 C   0  0  0  0  0  0  0  0  0  0  0  0
   28.8728   24.4791    1.0470 C   0  0  0  0  0  0  0  0  0  0  0  0
   30.4482   28.4851    1.7729 N   0  0  0  0  0  0  0  0  0  0  0  0
  1  2  2  0
  2  3  1  0
  3  4  1  0
  4  5  1  0
  2  6  1  0
  6  7  1  0
  5  8  1  0
  1  9  1  0
  8 10  2  0
  5 11  2  3
 11 12  1  0
  7 13  1  0
  8 13  1  0
  3 14  2  3
 14 15  1  0
  6 16  1  0
  9 16  2  0
M  END
>  <ID>  (1) 
conformer_0

$$$$
