
     RDKit          3D

 23 28  0  0  0  0  0  0  0  0999 V2000
   28.8421   28.9654    4.3163 C   0  0  0  0  0  0  0  0  0  0  0  0
   29.2718   28.1102    3.2436 C   0  0  0  0  0  0  0  0  0  0  0  0
   30.4533   27.4687    3.2704 C   0  0  0  0  0  0  0  0  0  0  0  0
   31.2245   27.5049    4.5179 C   0  0  0  0  0  0  0  0  0  0  0  0
   30.9340   26.6072    2.2265 C   0  0  0  0  0  0  0  0  0  0  0  0
   29.9320   25.7437    1.6161 C   0  0  0  0  0  0  0  0  0  0  0  0
   30.1535   24.3881    1.5209 C   0  0  0  0  0  0  0  0  0  0  0  0
   28.5174   25.9921    1.9749 C   0  0  0  0  0  0  0  0  0  0  0  0
   32.4441   26.7977    4.5820 C   0  0  0  0  0  0  0  0  0  0  0  0
   30.7577   28.3006    5.5171 C   0  0  0  0  0  0  0  0  0  0  0  0
   29.9337   26.3320   -0.0161 C   0  0  0  0  0  0  0  0  0  0  0  0
   31.6176   27.5952    1.2791 C   0  0  0  0  0  0  0  0  0  0  0  0
   31.5546   23.9307    1.4906 C   0  0  0  0  0  0  0  0  0  0  0  0
   28.2710   27.4935    2.2552 C   0  0  0  0  0  0  0  0  0  0  0  0
   32.7298   25.7943    3.8355 C   0  0  0  0  0  0  0  0  0  0  0  0
   29.2389   23.4365    1.3899 C   0  0  0  0  0  0  0  0  0  0  0  0
   29.6028   29.0222    5.4462 N   0  0  0  0  0  0  0  0  0  0  0  0
   32.0583   25.6961    2.8159 C   0  0  0  0  0  0  0  0  0  0  0  0
   33.8389   25.0086    4.0109 C   0  0  0  0  0  0  0  0  0  0  0  0
   32.4421   24.5867    2.0506 C   0  0  0  0  0  0  0  0  0  0  0  0
   33.6717   24.0974    2.8887 C   0  0  0  0  0  0  0  0  0  0  0  0
   33.1114   27.0359    5.7326 O   0  0  0  0  0  0  0  0  0  0  0  0
   30.7860   27.5110   -0.0349 C   0  0  0  0  0  0  0  0  0  0  0  0
  1  2  1  0
  2  3  2  0
  3  4  1  0
  3  5  1  0
  5  6  1  0
  6  7  1  0
  6  8  1  0
  4  9  1  0
  4 10  2  0
  6 11  1  0
  5 12  1  0
  7 13  1  0
  2 14  1  0
  8 14  1  0
  9 15  1  0
  7 16  2  0
  1 17  2  0
 10 17  1  0
  5 18  1  0
 15 18  2  0
 15 19  1  0
 13 20  1  0
 18 20  1  0
 19 21  1  0
 20 21  1  0
  9 22  2  0
 11 23  1  0
 12 23  1  0
M  END
>  <ID>  (1) 
conformer_0

$$$$
