
     RDKit          3D

 26 30  0  0  0  0  0  0  0  0999 V2000
   30.7187   27.9112   -0.7935 C   0  0  0  0  0  0  0  0  0  0  0  0
   29.4641   28.3074   -0.9010 C   0  0  0  0  0  0  0  0  0  0  0  0
   30.9435   27.0711    0.2162 C   0  0  0  0  0  0  0  0  0  0  0  0
   32.1878   26.4279    0.5351 C   0  0  0  0  0  0  0  0  0  0  0  0
   29.1317   29.2981   -2.0952 C   0  0  0  0  0  0  0  0  0  0  0  0
   32.3998   26.1342    1.9639 C   0  0  0  0  0  0  0  0  0  0  0  0
   32.6259   24.8054    2.3251 C   0  0  0  0  0  0  0  0  0  0  0  0
   33.4348   24.3759    3.4111 C   0  0  0  0  0  0  0  0  0  0  0  0
   28.4997   28.0644   -0.0281 C   0  0  0  0  0  0  0  0  0  0  0  0
   29.2930   29.1689   -3.1800 N   0  0  0  0  0  0  0  0  0  0  0  0
   29.9067   26.7188    1.2651 C   0  0  0  0  0  0  0  0  0  0  0  0
   34.3728   24.9668    3.9477 C   0  0  0  0  0  0  0  0  0  0  0  0
   28.8415   30.1176   -3.9185 C   0  0  0  0  0  0  0  0  0  0  0  0
   35.0038   24.3326    5.1368 C   0  0  0  0  0  0  0  0  0  0  0  0
   28.4466   30.4638   -1.6929 C   0  0  0  0  0  0  0  0  0  0  0  0
   34.7462   23.1592    5.6274 C   0  0  0  0  0  0  0  0  0  0  0  0
   30.1395   25.7649    2.3356 C   0  0  0  0  0  0  0  0  0  0  0  0
   31.4309   26.6109    2.9614 C   0  0  0  0  0  0  0  0  0  0  0  0
   28.9720   30.3798   -5.2923 C   0  0  0  0  0  0  0  0  0  0  0  0
   28.7446   27.2130    1.0451 C   0  0  0  0  0  0  0  0  0  0  0  0
   31.0119   24.5047    1.9360 C   0  0  0  0  0  0  0  0  0  0  0  0
   35.3642   22.6486    6.7495 C   0  0  0  0  0  0  0  0  0  0  0  0
   33.6131   22.5428    4.9900 C   0  0  0  0  0  0  0  0  0  0  0  0
   33.2078   21.2859    5.4434 O   0  0  0  0  0  0  0  0  0  0  0  0
   32.9866   23.0452    3.8744 C   0  0  0  0  0  0  0  0  0  0  0  0
   28.3393   31.0497   -2.9773 N   0  0  0  0  0  0  0  0  0  0  0  0
  1  2  1  0
  1  3  2  0
  3  4  1  0
  2  5  1  0
  4  6  1  0
  6  7  1  0
  7  8  1  0
  2  9  2  0
  5 10  2  0
  3 11  1  0
  8 12  2  0
 10 13  1  0
 12 14  1  0
  5 15  1  0
 14 16  2  0
 11 17  1  0
  6 18  1  0
 17 18  1  0
 13 19  1  0
  9 20  1  0
 11 20  2  0
  7 21  1  0
 17 21  1  0
 16 22  1  0
 16 23  1  0
 23 24  1  0
  8 25  1  0
 23 25  2  0
 13 26  2  0
 15 26  1  0
M  END
>  <ID>  (1) 
conformer_0

$$$$
