
     RDKit          3D

 24 27  0  0  0  0  0  0  0  0999 V2000
   30.7187   27.9112   -0.7935 C   0  0  0  0  0  0  0  0  0  0  0  0
   29.4641   28.3074   -0.9010 C   0  0  0  0  0  0  0  0  0  0  0  0
   30.9435   27.0711    0.2162 C   0  0  0  0  0  0  0  0  0  0  0  0
   32.1878   26.4279    0.5351 C   0  0  0  0  0  0  0  0  0  0  0  0
   29.1317   29.2981   -2.0952 C   0  0  0  0  0  0  0  0  0  0  0  0
   32.3998   26.1342    1.9639 C   0  0  0  0  0  0  0  0  0  0  0  0
   32.6259   24.8054    2.3251 C   0  0  0  0  0  0  0  0  0  0  0  0
   33.4348   24.3759    3.4111 C   0  0  0  0  0  0  0  0  0  0  0  0
   28.4997   28.0644   -0.0281 C   0  0  0  0  0  0  0  0  0  0  0  0
   29.2930   29.1689   -3.1800 N   0  0  0  0  0  0  0  0  0  0  0  0
   29.9067   26.7188    1.2651 C   0  0  0  0  0  0  0  0  0  0  0  0
   34.3728   24.9668    3.9477 C   0  0  0  0  0  0  0  0  0  0  0  0
   33.0466   23.0326    4.0013 C   0  0  0  0  0  0  0  0  0  0  0  0
   31.9454   22.2638    3.5071 C   0  0  0  0  0  0  0  0  0  0  0  0
   28.9065   29.9579   -4.0918 C   0  0  0  0  0  0  0  0  0  0  0  0
   35.1624   24.5105    5.0671 C   0  0  0  0  0  0  0  0  0  0  0  0
   27.1163   28.7120   -0.1916 O   0  0  0  0  0  0  0  0  0  0  0  0
   28.2112   30.4415   -2.0158 N   0  0  0  0  0  0  0  0  0  0  0  0
   34.8218   23.3144    5.6061 C   0  0  0  0  0  0  0  0  0  0  0  0
   31.1952   22.9265    2.4598 C   0  0  0  0  0  0  0  0  0  0  0  0
   33.8073   22.5860    5.1121 C   0  0  0  0  0  0  0  0  0  0  0  0
   28.3015   30.9185   -3.2204 N   0  0  0  0  0  0  0  0  0  0  0  0
   28.6532   27.3154    1.0953 C   0  0  0  0  0  0  0  0  0  0  0  0
   31.4973   24.1062    1.9518 C   0  0  0  0  0  0  0  0  0  0  0  0
  1  2  1  0
  1  3  2  0
  3  4  1  0
  2  5  1  0
  4  6  1  0
  6  7  1  0
  7  8  1  0
  2  9  2  0
  5 10  2  0
  3 11  1  0
  8 12  2  0
  8 13  1  0
 13 14  1  0
 10 15  1  0
 12 16  1  0
  9 17  1  0
  5 18  1  0
 16 19  2  0
 14 20  2  0
 13 21  2  0
 19 21  1  0
 15 22  2  0
 18 22  1  0
  9 23  1  0
 11 23  2  0
  7 24  2  0
 20 24  1  0
M  END
>  <ID>  (1) 
conformer_0

$$$$
