
     RDKit          3D

 26 30  0  0  0  0  0  0  0  0999 V2000
   30.7187   27.9112   -0.7935 C   0  0  0  0  0  0  0  0  0  0  0  0
   29.4641   28.3074   -0.9010 C   0  0  0  0  0  0  0  0  0  0  0  0
   30.9435   27.0711    0.2162 C   0  0  0  0  0  0  0  0  0  0  0  0
   32.1878   26.4279    0.5351 C   0  0  0  0  0  0  0  0  0  0  0  0
   29.1317   29.2981   -2.0952 C   0  0  0  0  0  0  0  0  0  0  0  0
   32.3998   26.1342    1.9639 C   0  0  0  0  0  0  0  0  0  0  0  0
   32.6259   24.8054    2.3251 C   0  0  0  0  0  0  0  0  0  0  0  0
   33.4348   24.3759    3.4111 C   0  0  0  0  0  0  0  0  0  0  0  0
   28.4997   28.0644   -0.0281 C   0  0  0  0  0  0  0  0  0  0  0  0
   29.2930   29.1689   -3.1800 N   0  0  0  0  0  0  0  0  0  0  0  0
   29.9067   26.7188    1.2651 C   0  0  0  0  0  0  0  0  0  0  0  0
   34.3728   24.9668    3.9477 C   0  0  0  0  0  0  0  0  0  0  0  0
   28.8415   30.1176   -3.9185 C   0  0  0  0  0  0  0  0  0  0  0  0
   35.0038   24.3326    5.1368 C   0  0  0  0  0  0  0  0  0  0  0  0
   34.7486   23.1574    5.6205 C   0  0  0  0  0  0  0  0  0  0  0  0
   31.3759   24.0404    2.2270 C   0  0  0  0  0  0  0  0  0  0  0  0
   30.1207   25.7531    2.3271 C   0  0  0  0  0  0  0  0  0  0  0  0
   33.0670   23.0411    3.9409 C   0  0  0  0  0  0  0  0  0  0  0  0
   28.5814   30.5626   -1.7186 C   0  0  0  0  0  0  0  0  0  0  0  0
   30.2525   24.7162    2.3787 C   0  0  0  0  0  0  0  0  0  0  0  0
   28.9763   23.8677    2.3282 C   0  0  0  0  0  0  0  0  0  0  0  0
   27.1092   28.6989   -0.0969 C   0  0  0  0  0  0  0  0  0  0  0  0
   28.7234   27.3155    1.0373 C   0  0  0  0  0  0  0  0  0  0  0  0
   31.3508   26.6268    2.8337 C   0  0  0  0  0  0  0  0  0  0  0  0
   33.6697   22.4873    5.0091 C   0  0  0  0  0  0  0  0  0  0  0  0
   28.3833   31.1597   -3.2323 C   0  0  0  0  0  0  0  0  0  0  0  0
  1  2  1  0
  1  3  2  0
  3  4  1  0
  2  5  1  0
  4  6  1  0
  6  7  1  0
  7  8  1  0
  2  9  2  0
  5 10  2  0
  3 11  1  0
  8 12  2  0
 10 13  1  0
 12 14  1  0
 14 15  2  0
  7 16  1  0
 11 17  1  0
  8 18  1  0
  5 19  1  0
 16 20  2  0
 17 20  1  0
 20 21  1  0
  9 22  1  0
  9 23  1  0
 11 23  2  0
  6 24  1  0
 17 24  1  0
 15 25  1  0
 18 25  2  0
 13 26  2  0
 19 26  1  0
M  END
>  <ID>  (1) 
conformer_0

$$$$
