
     RDKit          3D

 14 14  0  0  0  0  0  0  0  0999 V2000
   31.1917   27.2458    0.0716 C   0  0  0  0  0  0  0  0  0  0  0  0
   30.1115   27.8440   -0.0609 C   0  0  0  0  0  0  0  0  0  0  0  0
   31.4680   26.4455    1.1677 C   0  0  0  0  0  0  0  0  0  0  0  0
   29.8143   28.7918   -1.1916 C   0  0  0  0  0  0  0  0  0  0  0  0
   29.0426   27.5707    0.8973 C   0  0  0  0  0  0  0  0  0  0  0  0
   29.9511   28.6432   -2.3388 O   0  0  0  0  0  0  0  0  0  0  0  0
   32.6723   25.6873    1.3237 C   0  0  0  0  0  0  0  0  0  0  0  0
   29.1620   26.7918    1.8910 C   0  0  0  0  0  0  0  0  0  0  0  0
   30.3869   26.3062    2.0926 C   0  0  0  0  0  0  0  0  0  0  0  0
   28.7912   29.7505   -1.0346 N   0  0  0  0  0  0  0  0  0  0  0  0
   32.4536   24.2789    1.5701 C   0  0  0  0  0  0  0  0  0  0  0  0
   33.2251   23.8438    2.8497 C   0  0  0  0  0  0  0  0  0  0  0  0
   34.2094   24.5073    3.4156 C   0  0  0  0  0  0  0  0  0  0  0  0
   32.6359   22.7634    3.3946 O   0  0  0  0  0  0  0  0  0  0  0  0
  1  2  1  0
  1  3  2  0
  2  4  1  0
  2  5  2  0
  4  6  2  0
  3  7  1  0
  5  8  1  0
  3  9  1  0
  8  9  2  0
  4 10  1  0
  7 11  1  0
 11 12  1  0
 12 13  1  0
 12 14  2  0
M  END
>  <ID>  (1) 
conformer_0

$$$$
