
     RDKit          3D

 21 23  0  0  0  0  0  0  0  0999 V2000
   31.1917   27.2458    0.0716 C   0  0  0  0  0  0  0  0  0  0  0  0
   30.1115   27.8440   -0.0609 C   0  0  0  0  0  0  0  0  0  0  0  0
   31.2130   26.1376    0.8524 C   0  0  0  0  0  0  0  0  0  0  0  0
   32.3570   25.2195    0.9839 C   0  0  0  0  0  0  0  0  0  0  0  0
   29.9341   25.7499    1.4106 C   0  0  0  0  0  0  0  0  0  0  0  0
   32.3797   24.3088    2.2291 C   0  0  0  0  0  0  0  0  0  0  0  0
   33.3045   24.6512    3.2491 C   0  0  0  0  0  0  0  0  0  0  0  0
   30.1856   29.1419   -1.0018 C   0  0  0  0  0  0  0  0  0  0  0  0
   33.6497   23.8317    4.3175 C   0  0  0  0  0  0  0  0  0  0  0  0
   32.6911   22.5899    4.3450 C   0  0  0  0  0  0  0  0  0  0  0  0
   28.8921   27.5544    0.4801 C   0  0  0  0  0  0  0  0  0  0  0  0
   29.9795   29.0724   -2.1649 O   0  0  0  0  0  0  0  0  0  0  0  0
   27.6838   28.3908    0.3113 O   0  0  0  0  0  0  0  0  0  0  0  0
   32.9137   21.6978    5.4075 C   0  0  0  0  0  0  0  0  0  0  0  0
   31.6758   23.3061    2.2692 C   0  0  0  0  0  0  0  0  0  0  0  0
   34.5716   23.8991    5.3330 C   0  0  0  0  0  0  0  0  0  0  0  0
   33.9731   21.8466    6.2919 C   0  0  0  0  0  0  0  0  0  0  0  0
   28.8358   26.4519    1.2645 C   0  0  0  0  0  0  0  0  0  0  0  0
   31.7744   22.3636    3.3867 C   0  0  0  0  0  0  0  0  0  0  0  0
   34.2168   20.9645    7.3723 O   0  0  0  0  0  0  0  0  0  0  0  0
   34.7511   23.0811    6.2999 C   0  0  0  0  0  0  0  0  0  0  0  0
  1  2  1  0
  1  3  2  0
  3  4  1  0
  3  5  1  0
  4  6  1  0
  6  7  1  0
  2  8  1  0
  7  9  2  0
  9 10  1  0
  2 11  2  0
  8 12  2  0
 11 13  1  0
 10 14  1  0
  6 15  2  0
  9 16  1  0
 14 17  2  0
  5 18  2  0
 11 18  1  0
 10 19  2  0
 15 19  1  0
 17 20  1  0
 16 21  2  0
 17 21  1  0
M  END
>  <ID>  (1) 
conformer_0

$$$$
