
     RDKit          3D

 23 25  0  0  0  0  0  0  0  0999 V2000
   30.4783   28.2072   -1.0637 C   0  0  0  0  0  0  0  0  0  0  0  0
   31.1386   27.6007   -0.0931 C   0  0  0  0  0  0  0  0  0  0  0  0
   30.3822   27.0883    0.9030 C   0  0  0  0  0  0  0  0  0  0  0  0
   28.9946   27.1197    0.8396 C   0  0  0  0  0  0  0  0  0  0  0  0
   28.2062   26.4900    1.9718 C   0  0  0  0  0  0  0  0  0  0  0  0
   30.9715   26.4391    2.0810 N   0  0  0  0  0  0  0  0  0  0  0  0
   31.6215   25.3889    2.0931 C   0  0  0  0  0  0  0  0  0  0  0  0
   31.2745   27.3068    3.1425 C   0  0  0  0  0  0  0  0  0  0  0  0
   28.3853   27.6902   -0.2445 C   0  0  0  0  0  0  0  0  0  0  0  0
   29.0665   28.2288   -1.2169 C   0  0  0  0  0  0  0  0  0  0  0  0
   27.4781   27.4397    2.5997 F   0  0  0  0  0  0  0  0  0  0  0  0
   32.4150   24.9777    3.1275 C   0  0  0  0  0  0  0  0  0  0  0  0
   33.1720   23.6877    3.2982 C   0  0  0  0  0  0  0  0  0  0  0  0
   32.8678   25.9705    4.1568 C   0  0  0  0  0  0  0  0  0  0  0  0
   32.6624   22.6095    2.4780 O   0  0  0  0  0  0  0  0  0  0  0  0
   27.4167   25.5582    1.5892 F   0  0  0  0  0  0  0  0  0  0  0  0
   32.0899   27.1213    4.1991 C   0  0  0  0  0  0  0  0  0  0  0  0
   34.2877   23.5312    3.9753 C   0  0  0  0  0  0  0  0  0  0  0  0
   30.4357   28.5358    3.1235 O   0  0  0  0  0  0  0  0  0  0  0  0
   34.9184   22.3207    3.9414 O   0  0  0  0  0  0  0  0  0  0  0  0
   29.0005   25.8825    2.8577 F   0  0  0  0  0  0  0  0  0  0  0  0
   33.7942   25.5824    4.9795 N   0  0  0  0  0  0  0  0  0  0  0  0
   34.5293   24.4990    4.9754 C   0  0  0  0  0  0  0  0  0  0  0  0
  1  2  1  0
  2  3  2  0
  3  4  1  0
  4  5  1  0
  3  6  1  0
  6  7  1  0
  6  8  1  0
  4  9  2  0
  1 10  2  0
  9 10  1  0
  5 11  1  0
  7 12  1  0
 12 13  2  0
 12 14  1  0
 13 15  1  0
  5 16  1  0
  8 17  2  0
 14 17  1  0
 13 18  1  0
  8 19  1  0
 18 20  1  0
  5 21  1  0
 14 22  2  0
 18 23  2  0
 22 23  1  0
M  END
>  <ID>  (1) 
conformer_0

$$$$
