
     RDKit          3D

 16 17  0  0  0  0  0  0  0  0999 V2000
   31.1917   27.2458    0.0716 C   0  0  0  0  0  0  0  0  0  0  0  0
   30.1115   27.8440   -0.0609 C   0  0  0  0  0  0  0  0  0  0  0  0
   31.4680   26.4455    1.1677 C   0  0  0  0  0  0  0  0  0  0  0  0
   29.8143   28.7918   -1.1916 C   0  0  0  0  0  0  0  0  0  0  0  0
   29.0426   27.5707    0.8973 C   0  0  0  0  0  0  0  0  0  0  0  0
   29.9511   28.6432   -2.3388 O   0  0  0  0  0  0  0  0  0  0  0  0
   32.6723   25.6873    1.3237 C   0  0  0  0  0  0  0  0  0  0  0  0
   27.7749   28.3338    0.6336 O   0  0  0  0  0  0  0  0  0  0  0  0
   32.7498   24.7191    2.3799 C   0  0  0  0  0  0  0  0  0  0  0  0
   29.0702   29.9180   -0.9495 O   0  0  0  0  0  0  0  0  0  0  0  0
   33.9354   23.9588    2.6966 C   0  0  0  0  0  0  0  0  0  0  0  0
   29.2203   26.6938    1.9336 C   0  0  0  0  0  0  0  0  0  0  0  0
   31.5599   24.5333    3.2244 C   0  0  0  0  0  0  0  0  0  0  0  0
   30.3644   26.1262    2.0424 C   0  0  0  0  0  0  0  0  0  0  0  0
   34.6995   24.4916    3.8132 C   0  0  0  0  0  0  0  0  0  0  0  0
   30.4692   25.2574    3.1422 C   0  0  0  0  0  0  0  0  0  0  0  0
  1  2  1  0
  1  3  2  0
  2  4  1  0
  2  5  2  0
  4  6  2  0
  3  7  1  0
  5  8  1  0
  7  9  2  0
  4 10  1  0
  9 11  1  0
  5 12  1  0
  9 13  1  0
  3 14  1  0
 12 14  2  0
 11 15  1  0
 13 16  2  0
 14 16  1  0
M  END
>  <ID>  (1) 
conformer_0

$$$$
