
     RDKit          3D

 18 20  0  0  0  0  0  0  0  0999 V2000
   31.1917   27.2458    0.0716 C   0  0  0  0  0  0  0  0  0  0  0  0
   30.1115   27.8440   -0.0609 C   0  0  0  0  0  0  0  0  0  0  0  0
   31.2130   26.1376    0.8524 C   0  0  0  0  0  0  0  0  0  0  0  0
   32.3570   25.2195    0.9839 C   0  0  0  0  0  0  0  0  0  0  0  0
   29.9341   25.7499    1.4106 C   0  0  0  0  0  0  0  0  0  0  0  0
   32.3797   24.3088    2.2291 C   0  0  0  0  0  0  0  0  0  0  0  0
   33.3045   24.6512    3.2491 C   0  0  0  0  0  0  0  0  0  0  0  0
   28.8206   26.5519    1.2283 C   0  0  0  0  0  0  0  0  0  0  0  0
   29.6100   24.3797    2.2480 C   0  0  0  0  0  0  0  0  0  0  0  0
   31.0884   24.0402    2.9212 C   0  0  0  0  0  0  0  0  0  0  0  0
   30.2178   29.1602   -0.9262 O   0  0  0  0  0  0  0  0  0  0  0  0
   33.8172   23.5950    4.1151 C   0  0  0  0  0  0  0  0  0  0  0  0
   32.5693   23.0005    4.8156 C   0  0  0  0  0  0  0  0  0  0  0  0
   29.4680   29.2264   -2.0817 C   0  0  0  0  0  0  0  0  0  0  0  0
   34.7766   24.1370    5.2012 C   0  0  0  0  0  0  0  0  0  0  0  0
   34.3365   22.4497    3.4139 C   0  0  0  0  0  0  0  0  0  0  0  0
   28.9099   27.6400    0.4757 C   0  0  0  0  0  0  0  0  0  0  0  0
   31.1023   22.9528    3.8688 C   0  0  0  0  0  0  0  0  0  0  0  0
  1  2  1  0
  1  3  2  0
  3  4  1  0
  3  5  1  0
  4  6  1  0
  6  7  1  0
  5  8  2  0
  5  9  1  0
  6 10  1  0
  9 10  1  0
  2 11  1  0
  7 12  1  0
 12 13  1  0
 11 14  1  0
 12 15  1  0
 12 16  1  0
  2 17  2  0
  8 17  1  0
 10 18  1  0
 13 18  1  0
M  END
>  <ID>  (1) 
conformer_0

$$$$
