
     RDKit          3D

 19 21  0  0  0  0  0  0  0  0999 V2000
   28.8421   28.9654    4.3163 C   0  0  0  0  0  0  0  0  0  0  0  0
   29.2718   28.1102    3.2436 C   0  0  0  0  0  0  0  0  0  0  0  0
   30.4533   27.4687    3.2704 C   0  0  0  0  0  0  0  0  0  0  0  0
   31.2245   27.5049    4.5179 C   0  0  0  0  0  0  0  0  0  0  0  0
   30.9340   26.6072    2.2265 C   0  0  0  0  0  0  0  0  0  0  0  0
   29.9320   25.7437    1.6161 C   0  0  0  0  0  0  0  0  0  0  0  0
   30.1535   24.3881    1.5209 C   0  0  0  0  0  0  0  0  0  0  0  0
   28.5174   25.9921    1.9749 C   0  0  0  0  0  0  0  0  0  0  0  0
   32.4441   26.7977    4.5820 C   0  0  0  0  0  0  0  0  0  0  0  0
   30.7577   28.3006    5.5171 C   0  0  0  0  0  0  0  0  0  0  0  0
   29.9337   26.3320   -0.0161 C   0  0  0  0  0  0  0  0  0  0  0  0
   31.6176   27.5952    1.2791 C   0  0  0  0  0  0  0  0  0  0  0  0
   31.5546   23.9307    1.4906 C   0  0  0  0  0  0  0  0  0  0  0  0
   28.4015   28.0646    2.0095 C   0  0  0  0  0  0  0  0  0  0  0  0
   27.6934   26.9889    1.8504 C   0  0  0  0  0  0  0  0  0  0  0  0
   29.6264   28.9993    5.4613 N   0  0  0  0  0  0  0  0  0  0  0  0
   31.0915   27.3117   -0.0479 C   0  0  0  0  0  0  0  0  0  0  0  0
   29.4311   23.5254    0.6426 C   0  0  0  0  0  0  0  0  0  0  0  0
   29.7779   23.8609    2.8420 C   0  0  0  0  0  0  0  0  0  0  0  0
  1  2  1  0
  2  3  2  0
  3  4  1  0
  3  5  1  0
  5  6  1  0
  6  7  1  0
  6  8  1  0
  4  9  1  0
  4 10  2  0
  6 11  1  0
  5 12  1  0
  7 13  1  0
  2 14  1  0
  8 15  1  0
 14 15  1  0
  1 16  2  0
 10 16  1  0
 11 17  1  0
 12 17  1  0
  7 18  1  0
  7 19  1  0
M  END
>  <ID>  (1) 
conformer_0

$$$$
