
     RDKit          3D

 26 31  0  0  0  0  0  0  0  0999 V2000
   30.7187   27.9112   -0.7935 C   0  0  0  0  0  0  0  0  0  0  0  0
   29.4641   28.3074   -0.9010 C   0  0  0  0  0  0  0  0  0  0  0  0
   30.9435   27.0711    0.2162 C   0  0  0  0  0  0  0  0  0  0  0  0
   32.1878   26.4279    0.5351 C   0  0  0  0  0  0  0  0  0  0  0  0
   29.1317   29.2981   -2.0952 C   0  0  0  0  0  0  0  0  0  0  0  0
   32.3998   26.1342    1.9639 C   0  0  0  0  0  0  0  0  0  0  0  0
   32.6259   24.8054    2.3251 C   0  0  0  0  0  0  0  0  0  0  0  0
   33.4348   24.3759    3.4111 C   0  0  0  0  0  0  0  0  0  0  0  0
   28.4997   28.0644   -0.0281 C   0  0  0  0  0  0  0  0  0  0  0  0
   29.2930   29.1689   -3.1800 N   0  0  0  0  0  0  0  0  0  0  0  0
   29.9067   26.7188    1.2651 C   0  0  0  0  0  0  0  0  0  0  0  0
   34.3728   24.9668    3.9477 C   0  0  0  0  0  0  0  0  0  0  0  0
   33.0466   23.0326    4.0013 C   0  0  0  0  0  0  0  0  0  0  0  0
   31.9454   22.2638    3.5071 C   0  0  0  0  0  0  0  0  0  0  0  0
   28.9065   29.9579   -4.0918 C   0  0  0  0  0  0  0  0  0  0  0  0
   35.1624   24.5105    5.0671 C   0  0  0  0  0  0  0  0  0  0  0  0
   28.3044   30.4683   -1.9197 C   0  0  0  0  0  0  0  0  0  0  0  0
   31.1113   23.0459    2.5316 C   0  0  0  0  0  0  0  0  0  0  0  0
   30.1689   25.8253    2.3430 C   0  0  0  0  0  0  0  0  0  0  0  0
   28.2757   30.9393   -3.2388 N   0  0  0  0  0  0  0  0  0  0  0  0
   28.7134   27.2583    1.0926 C   0  0  0  0  0  0  0  0  0  0  0  0
   33.9816   22.7273    4.8608 C   0  0  0  0  0  0  0  0  0  0  0  0
   31.3622   26.5435    2.8400 C   0  0  0  0  0  0  0  0  0  0  0  0
   34.8685   23.3432    5.5064 C   0  0  0  0  0  0  0  0  0  0  0  0
   29.9156   22.4538    2.0951 C   0  0  0  0  0  0  0  0  0  0  0  0
   31.4047   24.3219    2.0368 C   0  0  0  0  0  0  0  0  0  0  0  0
  1  2  1  0
  1  3  2  0
  3  4  1  0
  2  5  1  0
  4  6  1  0
  6  7  1  0
  7  8  1  0
  2  9  2  0
  5 10  2  0
  3 11  1  0
  8 12  2  0
  8 13  1  0
 13 14  1  0
 10 15  1  0
 12 16  1  0
  5 17  1  0
 14 18  2  0
 11 19  1  0
 15 20  2  0
 17 20  1  0
  9 21  1  0
 11 21  2  0
 13 22  2  0
  6 23  1  0
 19 23  1  0
 16 24  2  0
 22 24  1  0
 18 25  1  0
  7 26  1  0
 18 26  1  0
 19 26  1  0
M  END
>  <ID>  (1) 
conformer_0

$$$$
