
     RDKit          3D

 25 30  0  0  0  0  0  0  0  0999 V2000
   30.7187   27.9112   -0.7935 C   0  0  0  0  0  0  0  0  0  0  0  0
   29.4641   28.3074   -0.9010 C   0  0  0  0  0  0  0  0  0  0  0  0
   30.9435   27.0711    0.2162 C   0  0  0  0  0  0  0  0  0  0  0  0
   32.1878   26.4279    0.5351 C   0  0  0  0  0  0  0  0  0  0  0  0
   29.1317   29.2981   -2.0952 C   0  0  0  0  0  0  0  0  0  0  0  0
   32.3998   26.1342    1.9639 C   0  0  0  0  0  0  0  0  0  0  0  0
   32.6259   24.8054    2.3251 C   0  0  0  0  0  0  0  0  0  0  0  0
   33.4348   24.3759    3.4111 C   0  0  0  0  0  0  0  0  0  0  0  0
   28.4997   28.0644   -0.0281 C   0  0  0  0  0  0  0  0  0  0  0  0
   29.2930   29.1689   -3.1800 N   0  0  0  0  0  0  0  0  0  0  0  0
   29.9067   26.7188    1.2651 C   0  0  0  0  0  0  0  0  0  0  0  0
   34.3728   24.9668    3.9477 C   0  0  0  0  0  0  0  0  0  0  0  0
   32.8759   23.1891    4.1639 C   0  0  0  0  0  0  0  0  0  0  0  0
   27.1395   28.7109   -0.2001 O   0  0  0  0  0  0  0  0  0  0  0  0
   30.1369   25.8028    2.3658 C   0  0  0  0  0  0  0  0  0  0  0  0
   28.8831   30.1144   -3.9449 N   0  0  0  0  0  0  0  0  0  0  0  0
   28.2345   30.8637   -3.1527 C   0  0  0  0  0  0  0  0  0  0  0  0
   31.2437   26.5520    2.7594 C   0  0  0  0  0  0  0  0  0  0  0  0
   28.6455   27.2939    1.0210 C   0  0  0  0  0  0  0  0  0  0  0  0
   31.7259   22.4655    3.6744 C   0  0  0  0  0  0  0  0  0  0  0  0
   35.0997   24.5412    5.0943 C   0  0  0  0  0  0  0  0  0  0  0  0
   30.9508   23.1484    2.9889 C   0  0  0  0  0  0  0  0  0  0  0  0
   28.3153   30.4463   -1.9079 N   0  0  0  0  0  0  0  0  0  0  0  0
   33.8072   22.9824    5.1187 N   0  0  0  0  0  0  0  0  0  0  0  0
   30.9422   24.4503    2.1881 C   0  0  0  0  0  0  0  0  0  0  0  0
  1  2  1  0
  1  3  2  0
  3  4  1  0
  2  5  1  0
  4  6  1  0
  6  7  1  0
  7  8  1  0
  2  9  2  0
  5 10  2  0
  3 11  1  0
  8 12  2  0
  8 13  1  0
  9 14  1  0
 11 15  1  0
 10 16  1  0
 16 17  2  0
  6 18  1  0
 15 18  1  0
  9 19  1  0
 11 19  2  0
 13 20  1  0
 12 21  1  0
 20 22  2  0
  5 23  1  0
 17 23  1  0
 13 24  2  0
 21 24  1  0
  7 25  1  0
 15 25  1  0
 22 25  1  0
M  END
>  <ID>  (1) 
conformer_0

$$$$
