
     RDKit          3D

 26 30  0  0  0  0  0  0  0  0999 V2000
   30.7187   27.9112   -0.7935 C   0  0  0  0  0  0  0  0  0  0  0  0
   29.4641   28.3074   -0.9010 C   0  0  0  0  0  0  0  0  0  0  0  0
   30.9435   27.0711    0.2162 C   0  0  0  0  0  0  0  0  0  0  0  0
   32.1878   26.4279    0.5351 C   0  0  0  0  0  0  0  0  0  0  0  0
   29.1317   29.2981   -2.0952 C   0  0  0  0  0  0  0  0  0  0  0  0
   32.3998   26.1342    1.9639 C   0  0  0  0  0  0  0  0  0  0  0  0
   32.6259   24.8054    2.3251 C   0  0  0  0  0  0  0  0  0  0  0  0
   33.4348   24.3759    3.4111 C   0  0  0  0  0  0  0  0  0  0  0  0
   28.4997   28.0644   -0.0281 C   0  0  0  0  0  0  0  0  0  0  0  0
   29.2930   29.1689   -3.1800 N   0  0  0  0  0  0  0  0  0  0  0  0
   29.9067   26.7188    1.2651 C   0  0  0  0  0  0  0  0  0  0  0  0
   34.3728   24.9668    3.9477 C   0  0  0  0  0  0  0  0  0  0  0  0
   28.8415   30.1176   -3.9185 C   0  0  0  0  0  0  0  0  0  0  0  0
   35.0038   24.3326    5.1368 C   0  0  0  0  0  0  0  0  0  0  0  0
   31.4995   23.9910    1.9774 C   0  0  0  0  0  0  0  0  0  0  0  0
   30.5250   24.1437    0.9036 C   0  0  0  0  0  0  0  0  0  0  0  0
   34.7208   23.0911    5.4735 C   0  0  0  0  0  0  0  0  0  0  0  0
   32.9764   22.7831    3.7068 C   0  0  0  0  0  0  0  0  0  0  0  0
   28.3423   30.4781   -1.8901 C   0  0  0  0  0  0  0  0  0  0  0  0
   31.7900   22.5434    2.5487 C   0  0  0  0  0  0  0  0  0  0  0  0
   33.6277   22.4156    4.7570 C   0  0  0  0  0  0  0  0  0  0  0  0
   29.5539   25.3505    1.3912 C   0  0  0  0  0  0  0  0  0  0  0  0
   28.2620   31.0098   -3.2676 N   0  0  0  0  0  0  0  0  0  0  0  0
   28.7189   27.2819    1.0635 C   0  0  0  0  0  0  0  0  0  0  0  0
   28.9168   30.3024   -5.2955 O   0  0  0  0  0  0  0  0  0  0  0  0
   27.6231   32.2902   -3.6123 C   0  0  0  0  0  0  0  0  0  0  0  0
  1  2  1  0
  1  3  2  0
  3  4  1  0
  2  5  1  0
  4  6  1  0
  6  7  1  0
  7  8  1  0
  2  9  2  0
  5 10  2  0
  3 11  1  0
  8 12  2  0
 10 13  1  0
 12 14  1  0
  7 15  2  0
 15 16  1  0
 14 17  2  0
  8 18  1  0
  5 19  1  0
 15 20  1  0
 18 20  1  0
 17 21  1  0
 18 21  2  0
 11 22  1  0
 16 22  1  0
 13 23  1  0
 19 23  1  0
  9 24  1  0
 11 24  2  0
 13 25  2  0
 23 26  1  0
M  END
>  <ID>  (1) 
conformer_0

$$$$
