
     RDKit          3D

 25 29  0  0  0  0  0  0  0  0999 V2000
   30.7187   27.9112   -0.7935 C   0  0  0  0  0  0  0  0  0  0  0  0
   29.4641   28.3074   -0.9010 C   0  0  0  0  0  0  0  0  0  0  0  0
   30.9435   27.0711    0.2162 C   0  0  0  0  0  0  0  0  0  0  0  0
   32.1878   26.4279    0.5351 C   0  0  0  0  0  0  0  0  0  0  0  0
   29.1317   29.2981   -2.0952 C   0  0  0  0  0  0  0  0  0  0  0  0
   32.3998   26.1342    1.9639 C   0  0  0  0  0  0  0  0  0  0  0  0
   32.6259   24.8054    2.3251 C   0  0  0  0  0  0  0  0  0  0  0  0
   33.4348   24.3759    3.4111 C   0  0  0  0  0  0  0  0  0  0  0  0
   28.4997   28.0644   -0.0281 C   0  0  0  0  0  0  0  0  0  0  0  0
   29.2930   29.1689   -3.1800 N   0  0  0  0  0  0  0  0  0  0  0  0
   29.9067   26.7188    1.2651 C   0  0  0  0  0  0  0  0  0  0  0  0
   34.3728   24.9668    3.9477 C   0  0  0  0  0  0  0  0  0  0  0  0
   32.8759   23.1891    4.1639 C   0  0  0  0  0  0  0  0  0  0  0  0
   27.1395   28.7109   -0.2001 O   0  0  0  0  0  0  0  0  0  0  0  0
   30.1369   25.8028    2.3658 C   0  0  0  0  0  0  0  0  0  0  0  0
   34.9145   24.2106    5.1776 C   0  0  0  0  0  0  0  0  0  0  0  0
   28.8836   30.1113   -3.9456 C   0  0  0  0  0  0  0  0  0  0  0  0
   30.0960   24.5256    2.1544 C   0  0  0  0  0  0  0  0  0  0  0  0
   31.5647   25.9516    2.9370 C   0  0  0  0  0  0  0  0  0  0  0  0
   28.1335   30.8397   -3.1730 N   0  0  0  0  0  0  0  0  0  0  0  0
   28.6584   27.2384    1.1322 C   0  0  0  0  0  0  0  0  0  0  0  0
   28.2531   30.3019   -1.9539 N   0  0  0  0  0  0  0  0  0  0  0  0
   34.0062   23.0890    5.4088 C   0  0  0  0  0  0  0  0  0  0  0  0
   29.9179   24.0332    0.9066 O   0  0  0  0  0  0  0  0  0  0  0  0
   29.7929   23.5015    3.0538 O   0  0  0  0  0  0  0  0  0  0  0  0
  1  2  1  0
  1  3  2  0
  3  4  1  0
  2  5  1  0
  4  6  1  0
  6  7  1  0
  7  8  1  0
  2  9  2  0
  5 10  2  0
  3 11  1  0
  8 12  2  0
  8 13  1  0
  9 14  1  0
 11 15  1  0
 12 16  1  0
 10 17  1  0
 15 18  1  0
  6 19  1  0
  7 19  1  0
 15 19  1  0
 17 20  2  0
  9 21  1  0
 11 21  2  0
  5 22  1  0
 20 22  1  0
 13 23  1  0
 16 23  1  0
 18 24  2  0
 18 25  1  0
M  END
>  <ID>  (1) 
conformer_0

$$$$
