
     RDKit          3D

 24 28  0  0  0  0  0  0  0  0999 V2000
   30.7187   27.9112   -0.7935 C   0  0  0  0  0  0  0  0  0  0  0  0
   29.4641   28.3074   -0.9010 C   0  0  0  0  0  0  0  0  0  0  0  0
   30.9435   27.0711    0.2162 C   0  0  0  0  0  0  0  0  0  0  0  0
   32.1878   26.4279    0.5351 C   0  0  0  0  0  0  0  0  0  0  0  0
   29.1317   29.2981   -2.0952 C   0  0  0  0  0  0  0  0  0  0  0  0
   32.3998   26.1342    1.9639 C   0  0  0  0  0  0  0  0  0  0  0  0
   32.6259   24.8054    2.3251 C   0  0  0  0  0  0  0  0  0  0  0  0
   33.4348   24.3759    3.4111 C   0  0  0  0  0  0  0  0  0  0  0  0
   28.4997   28.0644   -0.0281 C   0  0  0  0  0  0  0  0  0  0  0  0
   29.2930   29.1689   -3.1800 N   0  0  0  0  0  0  0  0  0  0  0  0
   29.9067   26.7188    1.2651 C   0  0  0  0  0  0  0  0  0  0  0  0
   34.3728   24.9668    3.9477 C   0  0  0  0  0  0  0  0  0  0  0  0
   33.0466   23.0326    4.0013 C   0  0  0  0  0  0  0  0  0  0  0  0
   31.9454   22.2638    3.5071 C   0  0  0  0  0  0  0  0  0  0  0  0
   28.9065   29.9579   -4.0918 C   0  0  0  0  0  0  0  0  0  0  0  0
   35.1624   24.5105    5.0671 C   0  0  0  0  0  0  0  0  0  0  0  0
   27.1163   28.7120   -0.1916 O   0  0  0  0  0  0  0  0  0  0  0  0
   30.1953   25.8044    2.3516 C   0  0  0  0  0  0  0  0  0  0  0  0
   28.1596   30.8610   -3.2582 N   0  0  0  0  0  0  0  0  0  0  0  0
   28.6119   27.2787    1.0061 C   0  0  0  0  0  0  0  0  0  0  0  0
   31.3858   25.3222    2.5088 C   0  0  0  0  0  0  0  0  0  0  0  0
   28.2815   30.4765   -2.0142 N   0  0  0  0  0  0  0  0  0  0  0  0
   33.7679   22.6063    5.0667 C   0  0  0  0  0  0  0  0  0  0  0  0
   34.7996   23.3254    5.6026 C   0  0  0  0  0  0  0  0  0  0  0  0
  1  2  1  0
  1  3  2  0
  3  4  1  0
  2  5  1  0
  4  6  1  0
  6  7  1  0
  7  8  1  0
  2  9  2  0
  5 10  2  0
  3 11  1  0
  8 12  2  0
  8 13  1  0
 13 14  1  0
 10 15  1  0
 12 16  1  0
  9 17  1  0
 11 18  1  0
 15 19  2  0
  9 20  1  0
 11 20  2  0
  6 21  1  0
  7 21  1  0
 18 21  1  0
  5 22  1  0
 19 22  1  0
 13 23  2  0
 16 24  2  0
 23 24  1  0
M  END
>  <ID>  (1) 
conformer_0

$$$$
