
     RDKit          3D

 14 15  0  0  0  0  0  0  0  0999 V2000
   31.1917   27.2458    0.0716 C   0  0  0  0  0  0  0  0  0  0  0  0
   30.1115   27.8440   -0.0609 C   0  0  0  0  0  0  0  0  0  0  0  0
   31.2130   26.1376    0.8524 C   0  0  0  0  0  0  0  0  0  0  0  0
   32.3570   25.2195    0.9839 C   0  0  0  0  0  0  0  0  0  0  0  0
   29.9341   25.7499    1.4106 C   0  0  0  0  0  0  0  0  0  0  0  0
   32.3797   24.3088    2.2291 C   0  0  0  0  0  0  0  0  0  0  0  0
   33.3045   24.6512    3.2491 C   0  0  0  0  0  0  0  0  0  0  0  0
   28.8206   26.5519    1.2283 C   0  0  0  0  0  0  0  0  0  0  0  0
   33.7051   23.8162    4.2512 C   0  0  0  0  0  0  0  0  0  0  0  0
   32.8031   22.4895    4.1537 C   0  0  0  0  0  0  0  0  0  0  0  0
   28.9547   27.7411    0.4158 C   0  0  0  0  0  0  0  0  0  0  0  0
   31.7401   23.2216    2.2628 C   0  0  0  0  0  0  0  0  0  0  0  0
   34.6133   24.0398    5.4499 C   0  0  0  0  0  0  0  0  0  0  0  0
   31.9362   22.2956    3.3109 C   0  0  0  0  0  0  0  0  0  0  0  0
  1  2  1  0
  1  3  2  0
  3  4  1  0
  3  5  1  0
  4  6  1  0
  6  7  1  0
  5  8  2  0
  7  9  2  0
  9 10  1  0
  2 11  2  0
  8 11  1  0
  6 12  2  0
  9 13  1  0
 10 14  2  0
 12 14  1  0
M  END
>  <ID>  (1) 
conformer_0

$$$$
