
     RDKit          3D

 12 13  0  0  0  0  0  0  0  0999 V2000
   29.9295   23.7107    1.1181 C   0  0  0  0  0  0  0  0  0  0  0  0
   30.7278   24.7163    1.2434 C   0  0  0  0  0  0  0  0  0  0  0  0
   30.4781   25.9302    0.8185 C   0  0  0  0  0  0  0  0  0  0  0  0
   29.2693   26.5528    0.6321 C   0  0  0  0  0  0  0  0  0  0  0  0
   31.6281   26.9890    0.6341 C   0  0  0  0  0  0  0  0  0  0  0  0
   32.1648   24.4596    1.5027 C   0  0  0  0  0  0  0  0  0  0  0  0
   28.1078   26.0170    1.1097 O   0  0  0  0  0  0  0  0  0  0  0  0
   31.2870   28.2713    0.0885 O   0  0  0  0  0  0  0  0  0  0  0  0
   32.7588   26.7517    1.4451 C   0  0  0  0  0  0  0  0  0  0  0  0
   29.9732   28.5304   -0.2115 C   0  0  0  0  0  0  0  0  0  0  0  0
   29.0930   27.7769    0.0515 C   0  0  0  0  0  0  0  0  0  0  0  0
   33.0848   25.4417    1.7808 C   0  0  0  0  0  0  0  0  0  0  0  0
  1  2  1  0
  2  3  1  0
  3  4  1  0
  3  5  2  0
  2  6  2  0
  4  7  2  0
  5  8  1  0
  5  9  1  0
  8 10  1  0
  4 11  1  0
 10 11  2  0
  6 12  1  0
  9 12  2  0
M  END
>  <ID>  (1) 
conformer_0

$$$$
