
     RDKit          3D

 15 16  0  0  0  0  0  0  0  0999 V2000
   31.7107   26.4093    0.6804 C   0  0  0  0  0  0  0  0  0  0  0  0
   31.4695   25.4610    1.6412 C   0  0  0  0  0  0  0  0  0  0  0  0
   31.9418   25.4804    2.9672 C   0  0  0  0  0  0  0  0  0  0  0  0
   31.6157   26.6601    3.8133 C   0  0  0  0  0  0  0  0  0  0  0  0
   30.9906   27.7134    0.8641 C   0  0  0  0  0  0  0  0  0  0  0  0
   32.2140   26.8499    5.0808 C   0  0  0  0  0  0  0  0  0  0  0  0
   29.8374   27.9067    0.0411 C   0  0  0  0  0  0  0  0  0  0  0  0
   33.1256   25.7269    5.3813 C   0  0  0  0  0  0  0  0  0  0  0  0
   30.9481   24.1413    1.3855 C   0  0  0  0  0  0  0  0  0  0  0  0
   32.6477   24.3889    3.4738 C   0  0  0  0  0  0  0  0  0  0  0  0
   28.8006   28.6454    0.6645 C   0  0  0  0  0  0  0  0  0  0  0  0
   33.3149   24.5798    4.7063 C   0  0  0  0  0  0  0  0  0  0  0  0
   30.2423   28.4505   -1.2259 C   0  0  0  0  0  0  0  0  0  0  0  0
   32.5024   23.0509    2.8889 C   0  0  0  0  0  0  0  0  0  0  0  0
   31.6659   23.0072    1.7848 C   0  0  0  0  0  0  0  0  0  0  0  0
  1  2  1  0
  2  3  1  0
  3  4  1  0
  1  5  1  0
  4  6  2  0
  5  7  1  0
  6  8  1  0
  2  9  2  0
  3 10  2  0
  7 11  1  0
  8 12  2  0
 10 12  1  0
  7 13  1  0
 10 14  1  0
  9 15  1  0
 14 15  2  0
M  END
>  <ID>  (1) 
conformer_0

$$$$
