
     RDKit          3D

 15 16  0  0  0  0  0  0  0  0999 V2000
   31.1917   27.2458    0.0716 C   0  0  0  0  0  0  0  0  0  0  0  0
   30.1115   27.8440   -0.0609 C   0  0  0  0  0  0  0  0  0  0  0  0
   31.2130   26.1376    0.8524 C   0  0  0  0  0  0  0  0  0  0  0  0
   32.3570   25.2195    0.9839 C   0  0  0  0  0  0  0  0  0  0  0  0
   29.9341   25.7499    1.4106 C   0  0  0  0  0  0  0  0  0  0  0  0
   32.3797   24.3088    2.2291 C   0  0  0  0  0  0  0  0  0  0  0  0
   33.3045   24.6512    3.2491 C   0  0  0  0  0  0  0  0  0  0  0  0
   28.8206   26.5519    1.2283 C   0  0  0  0  0  0  0  0  0  0  0  0
   33.7051   23.8162    4.2512 C   0  0  0  0  0  0  0  0  0  0  0  0
   28.9767   27.7529    0.4063 C   0  0  0  0  0  0  0  0  0  0  0  0
   31.5713   23.2284    2.3597 C   0  0  0  0  0  0  0  0  0  0  0  0
   32.7253   22.6458    4.4689 C   0  0  0  0  0  0  0  0  0  0  0  0
   31.7310   22.3209    3.5006 C   0  0  0  0  0  0  0  0  0  0  0  0
   34.4686   24.0524    5.3824 O   0  0  0  0  0  0  0  0  0  0  0  0
   35.6360   24.6199    5.1652 C   0  0  0  0  0  0  0  0  0  0  0  0
  1  2  1  0
  1  3  2  0
  3  4  1  0
  3  5  1  0
  4  6  1  0
  6  7  1  0
  5  8  2  0
  7  9  2  0
  2 10  2  0
  8 10  1  0
  6 11  2  0
  9 12  1  0
 11 13  1  0
 12 13  2  0
  9 14  1  0
 14 15  1  0
M  END
>  <ID>  (1) 
conformer_0

$$$$
