
     RDKit          3D

 26 30  0  0  0  0  0  0  0  0999 V2000
   30.7187   27.9112   -0.7935 C   0  0  0  0  0  0  0  0  0  0  0  0
   29.4641   28.3074   -0.9010 C   0  0  0  0  0  0  0  0  0  0  0  0
   30.9435   27.0711    0.2162 C   0  0  0  0  0  0  0  0  0  0  0  0
   32.1878   26.4279    0.5351 C   0  0  0  0  0  0  0  0  0  0  0  0
   29.1317   29.2981   -2.0952 C   0  0  0  0  0  0  0  0  0  0  0  0
   32.3998   26.1342    1.9639 C   0  0  0  0  0  0  0  0  0  0  0  0
   32.6259   24.8054    2.3251 C   0  0  0  0  0  0  0  0  0  0  0  0
   33.4348   24.3759    3.4111 C   0  0  0  0  0  0  0  0  0  0  0  0
   28.4997   28.0644   -0.0281 C   0  0  0  0  0  0  0  0  0  0  0  0
   29.2930   29.1689   -3.1800 N   0  0  0  0  0  0  0  0  0  0  0  0
   29.9067   26.7188    1.2651 C   0  0  0  0  0  0  0  0  0  0  0  0
   34.3728   24.9668    3.9477 C   0  0  0  0  0  0  0  0  0  0  0  0
   28.8415   30.1176   -3.9185 C   0  0  0  0  0  0  0  0  0  0  0  0
   28.3003   30.4460   -1.8573 C   0  0  0  0  0  0  0  0  0  0  0  0
   33.0349   23.0365    4.0070 C   0  0  0  0  0  0  0  0  0  0  0  0
   28.9736   30.3706   -5.3192 N   0  0  0  0  0  0  0  0  0  0  0  0
   32.1455   23.7425    1.5944 C   0  0  0  0  0  0  0  0  0  0  0  0
   28.2095   31.1057   -3.1096 N   0  0  0  0  0  0  0  0  0  0  0  0
   35.1345   24.5607    5.0991 C   0  0  0  0  0  0  0  0  0  0  0  0
   30.1864   25.8510    2.3698 O   0  0  0  0  0  0  0  0  0  0  0  0
   31.8616   22.3964    3.5997 C   0  0  0  0  0  0  0  0  0  0  0  0
   28.6880   27.2858    1.1670 C   0  0  0  0  0  0  0  0  0  0  0  0
   31.2865   26.5045    3.0673 C   0  0  0  0  0  0  0  0  0  0  0  0
   34.6754   23.5466    5.6911 C   0  0  0  0  0  0  0  0  0  0  0  0
   31.6544   22.5436    2.2166 C   0  0  0  0  0  0  0  0  0  0  0  0
   33.5950   22.7351    5.2838 C   0  0  0  0  0  0  0  0  0  0  0  0
  1  2  1  0
  1  3  2  0
  3  4  1  0
  2  5  1  0
  4  6  1  0
  6  7  1  0
  7  8  1  0
  2  9  2  0
  5 10  2  0
  3 11  1  0
  8 12  2  0
 10 13  1  0
  5 14  1  0
  8 15  1  0
 13 16  1  0
  7 17  2  0
 13 18  2  0
 14 18  1  0
 12 19  1  0
 11 20  1  0
 15 21  1  0
  9 22  1  0
 11 22  2  0
  6 23  1  0
 20 23  1  0
 19 24  2  0
 17 25  1  0
 21 25  2  0
 15 26  2  0
 24 26  1  0
M  END
>  <ID>  (1) 
conformer_0

$$$$
