
     RDKit          3D

 17 18  0  0  0  0  0  0  0  0999 V2000
   31.7107   26.4093    0.6804 C   0  0  0  0  0  0  0  0  0  0  0  0
   30.9583   27.5360    0.4348 C   0  0  0  0  0  0  0  0  0  0  0  0
   30.8976   25.2470    0.8298 C   0  0  0  0  0  0  0  0  0  0  0  0
   31.5360   23.9240    1.0885 C   0  0  0  0  0  0  0  0  0  0  0  0
   32.4646   23.8893    2.2730 C   0  0  0  0  0  0  0  0  0  0  0  0
   29.5244   25.2638    0.9183 C   0  0  0  0  0  0  0  0  0  0  0  0
   32.2451   22.9507    3.2265 C   0  0  0  0  0  0  0  0  0  0  0  0
   33.6041   24.7049    2.4754 C   0  0  0  0  0  0  0  0  0  0  0  0
   31.0223   22.1106    3.1808 O   0  0  0  0  0  0  0  0  0  0  0  0
   29.5382   27.6320    0.5158 C   0  0  0  0  0  0  0  0  0  0  0  0
   32.9233   22.7985    4.4467 C   0  0  0  0  0  0  0  0  0  0  0  0
   28.8805   28.9602    0.3385 C   0  0  0  0  0  0  0  0  0  0  0  0
   34.3849   24.5154    3.8082 C   0  0  0  0  0  0  0  0  0  0  0  0
   28.5315   29.5345    1.2348 O   0  0  0  0  0  0  0  0  0  0  0  0
   33.9916   23.6264    4.6832 C   0  0  0  0  0  0  0  0  0  0  0  0
   28.8436   26.4625    0.7738 C   0  0  0  0  0  0  0  0  0  0  0  0
   28.4758   29.1870   -0.8588 O   0  0  0  0  0  0  0  0  0  0  0  0
  1  2  2  0
  1  3  1  0
  3  4  1  0
  4  5  1  0
  3  6  2  0
  5  7  1  0
  5  8  2  0
  7  9  1  0
  2 10  1  0
  7 11  2  0
 10 12  1  0
  8 13  1  0
 12 14  1  0
 11 15  1  0
 13 15  2  0
  6 16  1  0
 10 16  2  0
 12 17  2  0
M  END
>  <ID>  (1) 
conformer_0

$$$$
