
     RDKit          3D

 26 30  0  0  0  0  0  0  0  0999 V2000
   30.7187   27.9112   -0.7935 C   0  0  0  0  0  0  0  0  0  0  0  0
   29.4641   28.3074   -0.9010 C   0  0  0  0  0  0  0  0  0  0  0  0
   30.9435   27.0711    0.2162 C   0  0  0  0  0  0  0  0  0  0  0  0
   32.1878   26.4279    0.5351 C   0  0  0  0  0  0  0  0  0  0  0  0
   29.1317   29.2981   -2.0952 C   0  0  0  0  0  0  0  0  0  0  0  0
   32.3998   26.1342    1.9639 C   0  0  0  0  0  0  0  0  0  0  0  0
   32.6259   24.8054    2.3251 C   0  0  0  0  0  0  0  0  0  0  0  0
   33.4348   24.3759    3.4111 C   0  0  0  0  0  0  0  0  0  0  0  0
   28.4997   28.0644   -0.0281 C   0  0  0  0  0  0  0  0  0  0  0  0
   29.2930   29.1689   -3.1800 N   0  0  0  0  0  0  0  0  0  0  0  0
   29.9067   26.7188    1.2651 C   0  0  0  0  0  0  0  0  0  0  0  0
   34.3728   24.9668    3.9477 C   0  0  0  0  0  0  0  0  0  0  0  0
   32.8759   23.1891    4.1639 C   0  0  0  0  0  0  0  0  0  0  0  0
   27.1395   28.7109   -0.2001 O   0  0  0  0  0  0  0  0  0  0  0  0
   30.1369   25.8028    2.3658 C   0  0  0  0  0  0  0  0  0  0  0  0
   33.6211   22.6922    5.2176 C   0  0  0  0  0  0  0  0  0  0  0  0
   28.9558   29.9771   -4.0999 C   0  0  0  0  0  0  0  0  0  0  0  0
   35.1087   24.3518    5.2173 C   0  0  0  0  0  0  0  0  0  0  0  0
   31.0563   24.6998    2.3329 C   0  0  0  0  0  0  0  0  0  0  0  0
   28.4089   30.4987   -1.8576 C   0  0  0  0  0  0  0  0  0  0  0  0
   28.6254   27.2211    0.9408 C   0  0  0  0  0  0  0  0  0  0  0  0
   31.7451   22.5331    3.6343 O   0  0  0  0  0  0  0  0  0  0  0  0
   29.1087   30.3710   -5.3263 C   0  0  0  0  0  0  0  0  0  0  0  0
   31.0016   23.2107    2.6637 C   0  0  0  0  0  0  0  0  0  0  0  0
   34.6531   23.3295    5.7498 C   0  0  0  0  0  0  0  0  0  0  0  0
   28.4359   31.0534   -3.1319 N   0  0  0  0  0  0  0  0  0  0  0  0
  1  2  1  0
  1  3  2  0
  3  4  1  0
  2  5  1  0
  4  6  1  0
  6  7  1  0
  7  8  1  0
  2  9  2  0
  5 10  2  0
  3 11  1  0
  8 12  2  0
  8 13  1  0
  9 14  1  0
 11 15  1  0
 13 16  2  0
 10 17  1  0
 12 18  1  0
  7 19  1  0
 15 19  1  0
  5 20  1  0
  9 21  1  0
 11 21  2  0
 13 22  1  0
 17 23  1  0
 19 24  1  0
 22 24  1  0
 16 25  1  0
 18 25  2  0
 17 26  2  0
 20 26  1  0
M  END
>  <ID>  (1) 
conformer_0

$$$$
