
     RDKit          3D

 25 30  0  0  0  0  0  0  0  0999 V2000
   30.7187   27.9112   -0.7935 C   0  0  0  0  0  0  0  0  0  0  0  0
   29.4641   28.3074   -0.9010 C   0  0  0  0  0  0  0  0  0  0  0  0
   30.9435   27.0711    0.2162 C   0  0  0  0  0  0  0  0  0  0  0  0
   32.1878   26.4279    0.5351 C   0  0  0  0  0  0  0  0  0  0  0  0
   29.1317   29.2981   -2.0952 C   0  0  0  0  0  0  0  0  0  0  0  0
   32.3998   26.1342    1.9639 C   0  0  0  0  0  0  0  0  0  0  0  0
   32.6259   24.8054    2.3251 C   0  0  0  0  0  0  0  0  0  0  0  0
   33.4348   24.3759    3.4111 C   0  0  0  0  0  0  0  0  0  0  0  0
   28.4997   28.0644   -0.0281 C   0  0  0  0  0  0  0  0  0  0  0  0
   29.2930   29.1689   -3.1800 N   0  0  0  0  0  0  0  0  0  0  0  0
   29.9067   26.7188    1.2651 C   0  0  0  0  0  0  0  0  0  0  0  0
   34.3728   24.9668    3.9477 C   0  0  0  0  0  0  0  0  0  0  0  0
   33.0466   23.0326    4.0013 C   0  0  0  0  0  0  0  0  0  0  0  0
   31.9454   22.2638    3.5071 C   0  0  0  0  0  0  0  0  0  0  0  0
   30.0919   25.7661    2.3529 C   0  0  0  0  0  0  0  0  0  0  0  0
   28.8914   30.1253   -3.8993 N   0  0  0  0  0  0  0  0  0  0  0  0
   28.3374   30.4562   -1.9431 C   0  0  0  0  0  0  0  0  0  0  0  0
   31.0936   22.9880    2.6921 C   0  0  0  0  0  0  0  0  0  0  0  0
   28.7729   27.2203    1.1061 C   0  0  0  0  0  0  0  0  0  0  0  0
   34.2338   22.8924    4.6988 N   0  0  0  0  0  0  0  0  0  0  0  0
   31.2631   26.6148    2.6435 C   0  0  0  0  0  0  0  0  0  0  0  0
   28.3297   30.9924   -3.1963 C   0  0  0  0  0  0  0  0  0  0  0  0
   31.3476   24.1861    2.1500 C   0  0  0  0  0  0  0  0  0  0  0  0
   34.9166   23.9294    4.8601 C   0  0  0  0  0  0  0  0  0  0  0  0
   27.4898   31.9993   -3.4955 O   0  0  0  0  0  0  0  0  0  0  0  0
  1  2  1  0
  1  3  2  0
  3  4  1  0
  2  5  1  0
  4  6  1  0
  6  7  1  0
  7  8  1  0
  2  9  2  0
  5 10  2  0
  3 11  1  0
  8 12  2  0
  8 13  1  0
 13 14  1  0
 11 15  1  0
 10 16  1  0
  5 17  1  0
 14 18  2  0
  9 19  1  0
 11 19  2  0
 13 20  2  0
  6 21  1  0
 15 21  1  0
 16 22  1  0
 17 22  1  0
  7 23  2  0
 15 23  1  0
 18 23  1  0
 12 24  1  0
 20 24  1  0
 22 25  2  0
M  END
>  <ID>  (1) 
conformer_0

$$$$
