
     RDKit          3D

 21 24  0  0  0  0  0  0  0  0999 V2000
   28.8421   28.9654    4.3163 C   0  0  0  0  0  0  0  0  0  0  0  0
   29.2718   28.1102    3.2436 C   0  0  0  0  0  0  0  0  0  0  0  0
   30.4533   27.4687    3.2704 C   0  0  0  0  0  0  0  0  0  0  0  0
   31.2245   27.5049    4.5179 C   0  0  0  0  0  0  0  0  0  0  0  0
   30.9340   26.6072    2.2265 C   0  0  0  0  0  0  0  0  0  0  0  0
   29.9320   25.7437    1.6161 C   0  0  0  0  0  0  0  0  0  0  0  0
   30.1535   24.3881    1.5209 C   0  0  0  0  0  0  0  0  0  0  0  0
   28.5174   25.9921    1.9749 C   0  0  0  0  0  0  0  0  0  0  0  0
   32.4441   26.7977    4.5820 C   0  0  0  0  0  0  0  0  0  0  0  0
   32.0852   25.6872    2.6349 C   0  0  0  0  0  0  0  0  0  0  0  0
   29.2532   23.4587    1.0374 C   0  0  0  0  0  0  0  0  0  0  0  0
   32.7019   25.8308    3.7027 C   0  0  0  0  0  0  0  0  0  0  0  0
   31.5183   23.9842    1.8263 C   0  0  0  0  0  0  0  0  0  0  0  0
   32.4228   24.0042    0.6607 C   0  0  0  0  0  0  0  0  0  0  0  0
   32.8513   26.5529    5.9003 O   0  0  0  0  0  0  0  0  0  0  0  0
   30.6887   28.2363    5.4763 C   0  0  0  0  0  0  0  0  0  0  0  0
   29.5692   28.9783    5.4432 C   0  0  0  0  0  0  0  0  0  0  0  0
   33.9155   24.9348    3.8621 C   0  0  0  0  0  0  0  0  0  0  0  0
   28.2786   27.8722    2.0931 C   0  0  0  0  0  0  0  0  0  0  0  0
   31.4481   27.6313    1.2861 C   0  0  0  0  0  0  0  0  0  0  0  0
   31.6785   22.9794    2.7171 C   0  0  0  0  0  0  0  0  0  0  0  0
  1  2  1  0
  2  3  2  0
  3  4  1  0
  3  5  1  0
  5  6  1  0
  6  7  1  0
  6  8  1  0
  4  9  1  0
  5 10  1  0
  7 11  2  0
  9 12  1  0
 10 12  2  0
  7 13  1  0
 10 13  1  0
 13 14  1  0
  9 15  2  0
  4 16  2  0
  1 17  2  0
 16 17  1  0
 12 18  1  0
  2 19  1  0
  8 19  1  0
  5 20  1  0
 13 21  1  0
M  END
>  <ID>  (1) 
conformer_0

$$$$
