
     RDKit          3D

 15 16  0  0  0  0  0  0  0  0999 V2000
   29.9295   23.7107    1.1181 C   0  0  0  0  0  0  0  0  0  0  0  0
   30.7278   24.7163    1.2434 C   0  0  0  0  0  0  0  0  0  0  0  0
   31.7761   24.7674    2.2273 C   0  0  0  0  0  0  0  0  0  0  0  0
   30.7049   25.9526    0.5770 C   0  0  0  0  0  0  0  0  0  0  0  0
   31.9564   23.4533    3.0544 C   0  0  0  0  0  0  0  0  0  0  0  0
   31.0973   22.5008    2.8731 C   0  0  0  0  0  0  0  0  0  0  0  0
   31.2257   21.4071    3.6886 O   0  0  0  0  0  0  0  0  0  0  0  0
   32.5765   25.8361    2.6125 C   0  0  0  0  0  0  0  0  0  0  0  0
   33.0602   25.9925    3.9042 O   0  0  0  0  0  0  0  0  0  0  0  0
   31.5450   27.0256    0.7332 C   0  0  0  0  0  0  0  0  0  0  0  0
   32.3298   27.0843    1.8857 C   0  0  0  0  0  0  0  0  0  0  0  0
   32.4365   26.5893    4.9419 C   0  0  0  0  0  0  0  0  0  0  0  0
   31.2872   28.2268   -0.0247 O   0  0  0  0  0  0  0  0  0  0  0  0
   30.0305   28.5289   -0.4721 C   0  0  0  0  0  0  0  0  0  0  0  0
   30.0908   22.5496    1.8745 C   0  0  0  0  0  0  0  0  0  0  0  0
  1  2  1  0
  2  3  2  0
  2  4  1  0
  3  5  1  0
  5  6  2  0
  6  7  1  0
  3  8  1  0
  8  9  1  0
  4 10  2  0
  8 11  2  0
 10 11  1  0
  9 12  1  0
 10 13  1  0
 13 14  1  0
  1 15  2  0
  6 15  1  0
M  END
>  <ID>  (1) 
conformer_0

$$$$
