
     RDKit          3D

 16 17  0  0  0  0  0  0  0  0999 V2000
   32.4775   22.8962    2.7897 C   0  0  0  0  0  0  0  0  0  0  0  0
   31.8637   23.7460    2.1643 C   0  0  0  0  0  0  0  0  0  0  0  0
   30.5466   23.5343    2.0737 C   0  0  0  0  0  0  0  0  0  0  0  0
   32.2321   24.9285    1.4879 C   0  0  0  0  0  0  0  0  0  0  0  0
   31.4476   26.0043    1.5265 C   0  0  0  0  0  0  0  0  0  0  0  0
   30.0154   22.3165    2.7222 F   0  0  0  0  0  0  0  0  0  0  0  0
   29.3947   24.3810    1.8748 C   0  0  0  0  0  0  0  0  0  0  0  0
   31.7689   27.3958    0.9651 C   0  0  0  0  0  0  0  0  0  0  0  0
   28.1736   24.1666    1.7885 O   0  0  0  0  0  0  0  0  0  0  0  0
   29.8963   25.7521    1.4592 C   0  0  0  0  0  0  0  0  0  0  0  0
   31.5208   26.8587    3.1333 C   0  0  0  0  0  0  0  0  0  0  0  0
   31.0832   27.6354   -0.3133 C   0  0  0  0  0  0  0  0  0  0  0  0
   28.9517   26.7638    1.0467 C   0  0  0  0  0  0  0  0  0  0  0  0
   32.3990   26.3995    3.9428 O   0  0  0  0  0  0  0  0  0  0  0  0
   29.5685   27.3941   -0.1979 C   0  0  0  0  0  0  0  0  0  0  0  0
   30.6604   27.7744    3.4133 O   0  0  0  0  0  0  0  0  0  0  0  0
  1  2  1  0
  2  3  2  0
  2  4  1  0
  4  5  1  0
  3  6  1  0
  3  7  1  0
  5  8  1  0
  7  9  1  0
  5 10  1  0
  7 10  2  0
  5 11  1  0
  8 12  1  0
 10 13  1  0
 11 14  1  0
 12 15  1  0
 13 15  1  0
 11 16  2  0
M  END
>  <ID>  (1) 
conformer_0

$$$$
