
     RDKit          3D

 23 25  0  0  0  0  0  0  0  0999 V2000
   30.4783   28.2072   -1.0637 C   0  0  0  0  0  0  0  0  0  0  0  0
   31.1386   27.6007   -0.0931 C   0  0  0  0  0  0  0  0  0  0  0  0
   30.3822   27.0883    0.9030 C   0  0  0  0  0  0  0  0  0  0  0  0
   28.9946   27.1197    0.8396 C   0  0  0  0  0  0  0  0  0  0  0  0
   28.2062   26.4900    1.9718 C   0  0  0  0  0  0  0  0  0  0  0  0
   30.9715   26.4391    2.0810 N   0  0  0  0  0  0  0  0  0  0  0  0
   31.6215   25.3889    2.0931 C   0  0  0  0  0  0  0  0  0  0  0  0
   31.2745   27.3068    3.1425 C   0  0  0  0  0  0  0  0  0  0  0  0
   28.3853   27.6902   -0.2445 C   0  0  0  0  0  0  0  0  0  0  0  0
   29.0665   28.2288   -1.2169 C   0  0  0  0  0  0  0  0  0  0  0  0
   27.4781   27.4397    2.5997 F   0  0  0  0  0  0  0  0  0  0  0  0
   32.4150   24.9777    3.1275 C   0  0  0  0  0  0  0  0  0  0  0  0
   33.1720   23.6877    3.2982 C   0  0  0  0  0  0  0  0  0  0  0  0
   32.8678   25.9705    4.1568 C   0  0  0  0  0  0  0  0  0  0  0  0
   32.6624   22.6095    2.4780 O   0  0  0  0  0  0  0  0  0  0  0  0
   27.4167   25.5582    1.5892 F   0  0  0  0  0  0  0  0  0  0  0  0
   34.0980   23.4867    4.2586 C   0  0  0  0  0  0  0  0  0  0  0  0
   33.8385   25.6715    5.0450 C   0  0  0  0  0  0  0  0  0  0  0  0
   34.6509   22.1616    4.3244 C   0  0  0  0  0  0  0  0  0  0  0  0
   34.4097   24.4529    5.1543 C   0  0  0  0  0  0  0  0  0  0  0  0
   31.3143   24.5326    1.1702 O   0  0  0  0  0  0  0  0  0  0  0  0
   32.1158   27.1099    4.1720 N   0  0  0  0  0  0  0  0  0  0  0  0
   29.0280   25.9125    2.8421 F   0  0  0  0  0  0  0  0  0  0  0  0
  1  2  1  0
  2  3  2  0
  3  4  1  0
  4  5  1  0
  3  6  1  0
  6  7  1  0
  6  8  1  0
  4  9  2  0
  1 10  2  0
  9 10  1  0
  5 11  1  0
  7 12  1  0
 12 13  2  0
 12 14  1  0
 13 15  1  0
  5 16  1  0
 13 17  1  0
 14 18  2  0
 17 19  1  0
 17 20  2  0
 18 20  1  0
  7 21  2  0
  8 22  2  0
 14 22  1  0
  5 23  1  0
M  END
>  <ID>  (1) 
conformer_0

$$$$
