
     RDKit          3D

 19 20  0  0  0  0  0  0  0  0999 V2000
   30.7187   27.9112   -0.7935 C   0  0  0  0  0  0  0  0  0  0  0  0
   31.2939   27.3661    0.1810 C   0  0  0  0  0  0  0  0  0  0  0  0
   30.5245   26.8272    1.1748 C   0  0  0  0  0  0  0  0  0  0  0  0
   29.1234   26.8075    1.0059 C   0  0  0  0  0  0  0  0  0  0  0  0
   31.0418   26.2228    2.4691 C   0  0  0  0  0  0  0  0  0  0  0  0
   31.3097   27.1428    3.5084 C   0  0  0  0  0  0  0  0  0  0  0  0
   30.5807   28.4636    3.5937 C   0  0  0  0  0  0  0  0  0  0  0  0
   31.3885   24.9443    2.4863 C   0  0  0  0  0  0  0  0  0  0  0  0
   30.7482   29.0099    4.8337 O   0  0  0  0  0  0  0  0  0  0  0  0
   31.7797   26.4411    4.6447 C   0  0  0  0  0  0  0  0  0  0  0  0
   31.9887   24.3983    3.5671 C   0  0  0  0  0  0  0  0  0  0  0  0
   31.2299   23.9433    1.3786 C   0  0  0  0  0  0  0  0  0  0  0  0
   32.2744   23.2767    1.0236 F   0  0  0  0  0  0  0  0  0  0  0  0
   32.1689   25.2262    4.7496 C   0  0  0  0  0  0  0  0  0  0  0  0
   30.2635   23.0567    1.4373 F   0  0  0  0  0  0  0  0  0  0  0  0
   29.8225   28.8426    2.7472 N   0  0  0  0  0  0  0  0  0  0  0  0
   29.3235   27.8551   -1.1048 C   0  0  0  0  0  0  0  0  0  0  0  0
   30.9310   24.6570    0.2499 F   0  0  0  0  0  0  0  0  0  0  0  0
   28.5403   27.2897   -0.0818 C   0  0  0  0  0  0  0  0  0  0  0  0
  1  2  1  0
  2  3  2  0
  3  4  1  0
  3  5  1  0
  5  6  1  0
  6  7  1  0
  5  8  2  0
  7  9  2  0
  6 10  2  0
  8 11  1  0
  8 12  1  0
 12 13  1  0
 10 14  1  0
 11 14  2  0
 12 15  1  0
  7 16  1  0
  1 17  2  0
 12 18  1  0
  4 19  2  0
 17 19  1  0
M  END
>  <ID>  (1) 
conformer_0

$$$$
