
     RDKit          3D

 26 31  0  0  0  0  0  0  0  0999 V2000
   30.7187   27.9112   -0.7935 C   0  0  0  0  0  0  0  0  0  0  0  0
   29.4641   28.3074   -0.9010 C   0  0  0  0  0  0  0  0  0  0  0  0
   30.9435   27.0711    0.2162 C   0  0  0  0  0  0  0  0  0  0  0  0
   32.1878   26.4279    0.5351 C   0  0  0  0  0  0  0  0  0  0  0  0
   29.1317   29.2981   -2.0952 C   0  0  0  0  0  0  0  0  0  0  0  0
   32.3998   26.1342    1.9639 C   0  0  0  0  0  0  0  0  0  0  0  0
   32.6259   24.8054    2.3251 C   0  0  0  0  0  0  0  0  0  0  0  0
   33.4348   24.3759    3.4111 C   0  0  0  0  0  0  0  0  0  0  0  0
   28.4997   28.0644   -0.0281 C   0  0  0  0  0  0  0  0  0  0  0  0
   29.2930   29.1689   -3.1800 N   0  0  0  0  0  0  0  0  0  0  0  0
   29.9067   26.7188    1.2651 C   0  0  0  0  0  0  0  0  0  0  0  0
   34.3728   24.9668    3.9477 C   0  0  0  0  0  0  0  0  0  0  0  0
   33.0466   23.0326    4.0013 C   0  0  0  0  0  0  0  0  0  0  0  0
   31.9454   22.2638    3.5071 C   0  0  0  0  0  0  0  0  0  0  0  0
   28.9065   29.9579   -4.0918 C   0  0  0  0  0  0  0  0  0  0  0  0
   35.1624   24.5105    5.0671 C   0  0  0  0  0  0  0  0  0  0  0  0
   28.3044   30.4683   -1.9197 C   0  0  0  0  0  0  0  0  0  0  0  0
   31.1484   23.0631    2.4689 C   0  0  0  0  0  0  0  0  0  0  0  0
   28.6870   27.2694    1.0517 C   0  0  0  0  0  0  0  0  0  0  0  0
   28.3151   30.9746   -3.2279 N   0  0  0  0  0  0  0  0  0  0  0  0
   30.1220   25.9115    2.4078 C   0  0  0  0  0  0  0  0  0  0  0  0
   31.2892   26.4963    2.7298 C   0  0  0  0  0  0  0  0  0  0  0  0
   31.4250   24.1879    1.9880 C   0  0  0  0  0  0  0  0  0  0  0  0
   33.8058   22.6919    5.0039 C   0  0  0  0  0  0  0  0  0  0  0  0
   30.3176   24.9980    1.8441 C   0  0  0  0  0  0  0  0  0  0  0  0
   34.8637   23.4364    5.5798 C   0  0  0  0  0  0  0  0  0  0  0  0
  1  2  1  0
  1  3  2  0
  3  4  1  0
  2  5  1  0
  4  6  1  0
  6  7  1  0
  7  8  1  0
  2  9  2  0
  5 10  2  0
  3 11  1  0
  8 12  2  0
  8 13  1  0
 13 14  1  0
 10 15  1  0
 12 16  1  0
  5 17  1  0
 14 18  2  0
  9 19  1  0
 11 19  2  0
 15 20  2  0
 17 20  1  0
 11 21  1  0
  6 22  1  0
 21 22  1  0
  7 23  1  0
 18 23  1  0
 13 24  2  0
 21 25  1  0
 23 25  1  0
 16 26  2  0
 24 26  1  0
M  END
>  <ID>  (1) 
conformer_0

$$$$
