
     RDKit          3D

 26 31  0  0  0  0  0  0  0  0999 V2000
   30.7187   27.9112   -0.7935 C   0  0  0  0  0  0  0  0  0  0  0  0
   29.4641   28.3074   -0.9010 C   0  0  0  0  0  0  0  0  0  0  0  0
   30.9435   27.0711    0.2162 C   0  0  0  0  0  0  0  0  0  0  0  0
   32.1878   26.4279    0.5351 C   0  0  0  0  0  0  0  0  0  0  0  0
   29.1317   29.2981   -2.0952 C   0  0  0  0  0  0  0  0  0  0  0  0
   32.3998   26.1342    1.9639 C   0  0  0  0  0  0  0  0  0  0  0  0
   32.6259   24.8054    2.3251 C   0  0  0  0  0  0  0  0  0  0  0  0
   33.4348   24.3759    3.4111 C   0  0  0  0  0  0  0  0  0  0  0  0
   28.4997   28.0644   -0.0281 C   0  0  0  0  0  0  0  0  0  0  0  0
   29.2930   29.1689   -3.1800 N   0  0  0  0  0  0  0  0  0  0  0  0
   29.9067   26.7188    1.2651 C   0  0  0  0  0  0  0  0  0  0  0  0
   34.3728   24.9668    3.9477 C   0  0  0  0  0  0  0  0  0  0  0  0
   32.8759   23.1891    4.1639 C   0  0  0  0  0  0  0  0  0  0  0  0
   27.1395   28.7109   -0.2001 O   0  0  0  0  0  0  0  0  0  0  0  0
   30.1369   25.8028    2.3658 C   0  0  0  0  0  0  0  0  0  0  0  0
   34.9145   24.2106    5.1776 C   0  0  0  0  0  0  0  0  0  0  0  0
   28.8836   30.1113   -3.9456 C   0  0  0  0  0  0  0  0  0  0  0  0
   28.1562   30.3663   -2.0536 N   0  0  0  0  0  0  0  0  0  0  0  0
   31.0126   24.3905    2.4734 C   0  0  0  0  0  0  0  0  0  0  0  0
   28.6726   27.3104    1.0814 C   0  0  0  0  0  0  0  0  0  0  0  0
   28.2356   30.9169   -3.3073 C   0  0  0  0  0  0  0  0  0  0  0  0
   33.3980   22.6051    5.2227 C   0  0  0  0  0  0  0  0  0  0  0  0
   31.4043   26.4199    3.2156 C   0  0  0  0  0  0  0  0  0  0  0  0
   31.6276   22.6019    3.5585 O   0  0  0  0  0  0  0  0  0  0  0  0
   30.9608   23.2876    2.6959 C   0  0  0  0  0  0  0  0  0  0  0  0
   34.4781   23.2336    5.7725 C   0  0  0  0  0  0  0  0  0  0  0  0
  1  2  1  0
  1  3  2  0
  3  4  1  0
  2  5  1  0
  4  6  1  0
  6  7  1  0
  7  8  1  0
  2  9  2  0
  5 10  2  0
  3 11  1  0
  8 12  2  0
  8 13  1  0
  9 14  1  0
 11 15  1  0
 12 16  1  0
 10 17  1  0
  5 18  1  0
  7 19  1  0
 15 19  1  0
  9 20  1  0
 11 20  2  0
 17 21  2  0
 18 21  1  0
 13 22  2  0
  6 23  1  0
 15 23  1  0
 13 24  1  0
 19 25  2  0
 24 25  1  0
 16 26  2  0
 22 26  1  0
M  END
>  <ID>  (1) 
conformer_0

$$$$
