
     RDKit          3D

 24 28  0  0  0  0  0  0  0  0999 V2000
   28.8421   28.9654    4.3163 C   0  0  0  0  0  0  0  0  0  0  0  0
   29.2718   28.1102    3.2436 C   0  0  0  0  0  0  0  0  0  0  0  0
   30.4533   27.4687    3.2704 C   0  0  0  0  0  0  0  0  0  0  0  0
   31.2245   27.5049    4.5179 C   0  0  0  0  0  0  0  0  0  0  0  0
   30.9340   26.6072    2.2265 C   0  0  0  0  0  0  0  0  0  0  0  0
   29.9320   25.7437    1.6161 C   0  0  0  0  0  0  0  0  0  0  0  0
   30.1535   24.3881    1.5209 C   0  0  0  0  0  0  0  0  0  0  0  0
   28.5174   25.9921    1.9749 C   0  0  0  0  0  0  0  0  0  0  0  0
   32.4441   26.7977    4.5820 C   0  0  0  0  0  0  0  0  0  0  0  0
   29.8551   26.3975    0.1151 C   0  0  0  0  0  0  0  0  0  0  0  0
   29.4428   23.5125    1.6177 O   0  0  0  0  0  0  0  0  0  0  0  0
   27.6347   29.5376    4.2370 O   0  0  0  0  0  0  0  0  0  0  0  0
   31.7141   27.5070    1.3202 C   0  0  0  0  0  0  0  0  0  0  0  0
   32.6493   25.8078    3.6571 C   0  0  0  0  0  0  0  0  0  0  0  0
   32.0226   25.5755    2.6065 C   0  0  0  0  0  0  0  0  0  0  0  0
   31.7719   24.3786    1.9164 C   0  0  0  0  0  0  0  0  0  0  0  0
   28.6036   27.0202   -0.2421 C   0  0  0  0  0  0  0  0  0  0  0  0
   33.8597   24.9681    3.7978 C   0  0  0  0  0  0  0  0  0  0  0  0
   29.5051   28.9726    5.4605 C   0  0  0  0  0  0  0  0  0  0  0  0
   34.6871   25.0583    4.6581 O   0  0  0  0  0  0  0  0  0  0  0  0
   33.9926   23.9273    2.9271 O   0  0  0  0  0  0  0  0  0  0  0  0
   27.8418   26.9692    1.1226 C   0  0  0  0  0  0  0  0  0  0  0  0
   30.7965   28.2510    5.5626 C   0  0  0  0  0  0  0  0  0  0  0  0
   28.1303   28.2520    2.0199 C   0  0  0  0  0  0  0  0  0  0  0  0
  1  2  1  0
  2  3  2  0
  3  4  1  0
  3  5  1  0
  5  6  1  0
  6  7  1  0
  6  8  1  0
  4  9  1  0
  6 10  1  0
  7 11  2  0
  1 12  1  0
  5 13  1  0
  9 14  2  0
  5 15  1  0
 14 15  1  0
  7 16  1  0
 15 16  2  0
 10 17  1  0
 14 18  1  0
  1 19  2  0
 18 20  2  0
 18 21  1  0
  8 22  1  0
 17 22  1  0
  4 23  2  0
 19 23  1  0
  2 24  1  0
 22 24  1  0
M  END
>  <ID>  (1) 
conformer_0

$$$$
