
     RDKit          3D

 18 19  0  0  0  0  0  0  0  0999 V2000
   24.8394    9.5184   30.6886 C   0  0  0  0  0  0  0  0  0  0  0  0
   23.8009   10.5212   30.9133 C   0  0  0  0  0  0  0  0  0  0  0  0
   24.6965    8.5468   29.7917 C   0  0  0  0  0  0  0  0  0  0  0  0
   22.7274   10.1285   29.8417 C   0  0  0  0  0  0  0  0  0  0  0  0
   23.6317    5.3596   26.6116 C   0  0  0  0  0  0  0  0  0  0  0  0
   24.4934    7.2537   27.9362 C   0  0  0  0  0  0  0  0  0  0  0  0
   26.9972    7.1300   29.1377 O   0  0  0  0  0  0  0  0  0  0  0  0
   22.0306    7.8116   27.1383 O   0  0  0  0  0  0  0  0  0  0  0  0
   26.0790    5.4343   27.2732 C   0  0  0  0  0  0  0  0  0  0  0  0
   27.5297    5.5028   27.6504 N   0  0  0  0  0  0  0  0  0  0  0  0
   22.3860    5.3774   25.9438 N   0  0  0  0  0  0  0  0  0  0  0  0
   22.8998    7.6550   27.6503 C   0  0  0  0  0  0  0  0  0  0  0  0
   25.1331    4.3683   26.5850 C   0  0  0  0  0  0  0  0  0  0  0  0
   22.1329    3.3972   25.3841 O   0  0  0  0  0  0  0  0  0  0  0  0
   25.6402    7.3113   28.7847 C   0  0  0  0  0  0  0  0  0  0  0  0
   23.1689    8.9391   29.2834 C   0  0  0  0  0  0  0  0  0  0  0  0
   22.5478    3.4996   25.3783 S   0  0  0  0  0  0  0  0  0  0  0  0
   25.1901    6.1970   27.0380 C   0  0  0  0  0  0  0  0  0  0  0  0
  2  1  2  0
  3  1  1  0
  4  2  1  0
 10  9  1  0
 11  5  1  0
 12  6  2  0
 12  8  2  0
 13  5  1  0
 13  9  2  0
 15  3  1  0
 15  6  1  0
 15  7  1  0
 16  3  1  0
 16  4  2  0
 17 11  1  0
 17 14  1  0
 18  5  1  0
 18  6  1  0
 18  9  1  0
M  END
>  <ID>  (1) 
conformer_0

$$$$
