
     RDKit          3D

 21 22  0  0  0  0  0  0  0  0999 V2000
   23.9239   10.7219   31.3924 C   0  0  0  0  0  0  0  0  0  0  0  0
   24.8810    9.2007   29.9315 C   0  0  0  0  0  0  0  0  0  0  0  0
   23.7585    8.7710   29.1947 C   0  0  0  0  0  0  0  0  0  0  0  0
   24.9799    9.8677   31.0343 C   0  0  0  0  0  0  0  0  0  0  0  0
   23.8972    5.4660   26.7663 C   0  0  0  0  0  0  0  0  0  0  0  0
   22.9906    7.7911   27.8750 C   0  0  0  0  0  0  0  0  0  0  0  0
   22.8853   10.6514   30.4253 C   0  0  0  0  0  0  0  0  0  0  0  0
   22.0105    7.3601   27.4795 O   0  0  0  0  0  0  0  0  0  0  0  0
   27.2502    7.4101   29.3780 O   0  0  0  0  0  0  0  0  0  0  0  0
   23.2423    3.5131   25.2548 S   0  0  0  0  0  4  0  0  0  0  0  0
   27.5278    5.9048   28.0170 N   0  0  0  0  0  0  0  0  0  0  0  0
   22.2738    2.8916   26.1376 O   0  0  0  0  0  0  0  0  0  0  0  0
   24.1682    6.1146   27.6309 C   0  0  0  0  0  0  0  0  0  0  0  0
   26.0868    5.8024   27.5218 C   0  0  0  0  0  0  0  0  0  0  0  0
   24.4220    4.0094   25.7863 O   0  0  0  0  0  0  0  0  0  0  0  0
   22.6674    9.6881   29.5334 C   0  0  0  0  0  0  0  0  0  0  0  0
   25.7775    7.5719   28.6467 C   0  0  0  0  0  0  0  0  0  0  0  0
   24.1081    2.6807   24.4267 O   0  0  0  0  0  0  0  0  0  0  0  0
   22.3297    4.1329   24.4031 O   0  0  0  0  0  0  0  0  0  0  0  0
   25.9124    5.2150   26.6659 C   0  0  0  0  0  0  0  0  0  0  0  0
   25.3066    7.1264   28.0205 C   0  0  0  0  0  0  0  0  0  0  0  0
  3  2  2  0
  4  1  2  0
  4  2  1  0
  6  3  1  0
  7  1  1  0
  8  6  2  0
 12 10  1  0
 13  5  1  0
 13  6  1  0
 14 11  1  0
 14 13  1  0
 15  5  1  0
 15 10  1  0
 16  3  1  0
 16  7  2  0
 17  9  1  0
 18 10  1  0
 19 10  1  0
 20 14  1  0
 21 13  1  0
 21 14  1  0
 21 17  1  0
M  END
>  <ID>  (1) 
conformer_0

$$$$
