
     RDKit          3D

 18 21  0  0  0  0  0  0  0  0999 V2000
   23.1716    9.1255   29.1919 C   0  0  0  0  0  0  0  0  0  0  0  0
   24.5320    8.6130   29.4891 C   0  0  0  0  0  0  0  0  0  0  0  0
   24.2857    6.5531   27.6500 C   0  0  0  0  0  0  0  0  0  0  0  0
   23.8365   10.5682   30.9851 C   0  0  0  0  0  0  0  0  0  0  0  0
   23.7497    5.2874   26.6932 C   0  0  0  0  0  3  0  0  0  0  0  0
   25.0447    4.4235   26.2469 C   0  0  0  0  0  0  0  0  0  0  0  0
   26.5762    7.4631   29.4631 O   0  0  0  0  0  0  0  0  0  0  0  0
   22.2123    7.9938   27.4037 O   0  0  0  0  0  0  0  0  0  0  0  0
   22.5522    3.7154   25.4136 S   0  0  0  0  0  4  0  0  0  0  0  0
   22.8159   10.2916   29.9094 C   0  0  0  0  0  0  0  0  0  0  0  0
   21.7369    4.0710   25.2368 O   0  0  0  0  0  0  0  0  0  0  0  0
   22.9525    7.8880   27.9046 C   0  0  0  0  0  0  0  0  0  0  0  0
   25.9946    5.0894   26.7720 C   0  0  0  0  0  0  0  0  0  0  0  0
   25.5573    7.2986   28.8440 C   0  0  0  0  0  0  0  0  0  0  0  0
   25.7221    6.0024   27.4238 C   0  0  0  0  0  0  0  0  0  0  0  0
   27.4160    4.7550   26.5800 N   0  0  0  0  0  0  0  0  0  0  0  0
   24.9479    9.6320   30.7252 C   0  0  0  0  0  0  0  0  0  0  0  0
   23.2527    2.9077   24.9387 O   0  0  0  0  0  0  0  0  0  0  0  0
  2  1  2  0
  5  3  1  0
  6  5  1  0
  9  5  1  0
 10  1  1  0
 10  4  1  0
 11  9  1  0
 12  1  1  0
 12  3  1  0
 12  8  2  0
 13  6  2  0
 14  2  1  0
 14  3  1  0
 14  7  1  0
 15  3  1  0
 15 13  1  0
 15 14  1  0
 16 13  1  0
 17  2  1  0
 17  4  2  0
 18  9  1  0
M  RAD  1   5   2
M  END
>  <ID>  (1) 
conformer_0

$$$$
