
     RDKit          3D

 15 15  0  0  0  0  0  0  0  0999 V2000
   22.9703    9.3259   29.4296 C   0  0  0  0  0  0  0  0  0  0  0  0
   24.4549   10.2291   30.8977 C   0  0  0  0  0  0  0  0  0  0  0  0
   23.0936   10.3285   30.2561 C   0  0  0  0  0  0  0  0  0  0  0  0
   25.6215    5.7769   27.2510 C   0  0  0  0  0  0  0  0  0  0  0  0
   24.4425    5.4284   26.9016 C   0  0  0  0  0  0  0  0  0  0  0  0
   22.1850    7.4749   27.5671 O   0  0  0  0  0  0  0  0  0  0  0  0
   26.9333    7.5844   29.7389 O   0  0  0  0  0  0  0  0  0  0  0  0
   25.6053    7.4577   29.1064 C   0  0  0  0  0  0  0  0  0  0  0  0
   24.9893    9.1327   30.2740 C   0  0  0  0  0  0  0  0  0  0  0  0
   24.2081    2.6114   25.0044 O   0  0  0  0  0  0  0  0  0  0  0  0
   23.8161    3.3594   24.9173 S   0  0  0  0  0  4  0  0  0  0  0  0
   22.4445    4.3149   24.8874 O   0  0  0  0  0  0  0  0  0  0  0  0
   23.1027    7.5992   27.7872 C   0  0  0  0  0  0  0  0  0  0  0  0
   24.2691    8.0020   28.9638 C   0  0  0  0  0  0  0  0  0  0  0  0
   24.0010    5.5383   26.6726 C   0  0  0  0  0  0  0  0  0  0  0  0
  3  1  2  0
  3  2  1  0
  5  4  1  0
  8  4  1  0
  8  7  1  0
  9  2  2  0
 11 10  1  0
 12 11  1  0
 13  6  2  0
 14  1  1  0
 14  8  1  0
 14  9  1  0
 14 13  1  0
 15  5  1  0
 15 11  1  0
M  END
>  <ID>  (1) 
conformer_0

$$$$
