
     RDKit          3D

 19 21  0  0  0  0  0  0  0  0999 V2000
   24.2248   10.4850   31.1655 C   0  0  0  0  0  0  0  0  0  0  0  0
   24.8420    8.5332   29.8909 C   0  0  0  0  0  0  0  0  0  0  0  0
   23.8046    8.4170   28.9763 C   0  0  0  0  0  0  0  0  0  0  0  0
   25.1679    9.4684   30.7899 C   0  0  0  0  0  0  0  0  0  0  0  0
   23.8433    4.9158   26.6023 C   0  0  0  0  0  0  0  0  0  0  0  0
   24.5372    4.8360   26.9391 C   0  0  0  0  0  0  0  0  0  0  0  0
   22.2245    7.5288   27.4564 O   0  0  0  0  0  0  0  0  0  0  0  0
   26.6308    7.0746   29.0060 O   0  0  0  0  0  0  0  0  0  0  0  0
   22.9128    9.7189   29.3437 C   0  0  0  0  0  0  0  0  0  0  0  0
   22.7604    3.7898   24.3808 O   0  0  0  0  0  0  0  0  0  0  0  0
   23.0417    7.6603   27.8344 C   0  0  0  0  0  0  0  0  0  0  0  0
   26.0607    5.2577   27.2554 C   0  0  0  0  0  0  0  0  0  0  0  0
   22.8622    3.4411   25.1641 S   0  0  0  0  0  0  0  0  0  0  0  0
   27.1961    5.6581   27.5903 N   0  0  0  0  0  0  0  0  0  0  0  0
   22.3594    4.7963   26.1209 N   0  0  0  0  0  0  0  0  0  0  0  0
   23.2355   10.4849   30.2149 C   0  0  0  0  0  0  0  0  0  0  0  0
   25.3966    7.0874   28.6109 C   0  0  0  0  0  0  0  0  0  0  0  0
   24.5388    6.4044   27.6055 C   0  0  0  0  0  0  0  0  0  0  0  0
   25.9507    4.0309   26.2485 C   0  0  0  0  0  0  0  0  0  0  0  0
  3  2  2  0
  4  1  2  0
  4  2  1  0
  6  5  1  0
  9  3  1  0
 11  3  1  0
 11  7  2  0
 12  6  1  0
 13 10  1  0
 14 12  1  0
 15  5  1  0
 15 13  1  0
 16  1  1  0
 16  9  2  0
 17  2  1  0
 17  8  1  0
 18  6  1  0
 18 12  1  0
 18 17  1  0
 19  6  1  0
 19 12  1  0
M  END
>  <ID>  (1) 
conformer_0

$$$$
