
     RDKit          3D

 21 24  0  0  0  0  0  0  0  0999 V2000
   23.2063   10.6342   30.6570 C   0  0  0  0  0  0  0  0  0  0  0  0
   24.9120    9.1046   30.1487 C   0  0  0  0  0  3  0  0  0  0  0  0
   24.5467    7.4404   28.3980 C   0  0  0  0  0  0  0  0  0  0  0  0
   24.7725    6.2111   27.3030 C   0  0  0  0  0  0  0  0  0  0  0  0
   23.5837    5.6296   26.5998 C   0  0  0  0  0  0  0  0  0  0  0  0
   25.0309    4.6164   26.4216 C   0  0  0  0  0  0  0  0  0  0  0  0
   22.0089    7.9332   27.5834 O   0  0  0  0  0  0  0  0  0  0  0  0
   26.7270    7.5707   29.7626 O   0  0  0  0  0  0  0  0  0  0  0  0
   22.9814    7.9135   27.9799 C   0  0  0  0  0  0  0  0  0  0  0  0
   25.7449    5.4201   27.3764 C   0  0  0  0  0  0  0  0  0  0  0  0
   24.5481   10.2459   31.0594 C   0  0  0  0  0  0  0  0  0  0  0  0
   21.7471    3.7982   25.4847 O   0  0  0  0  0  0  0  0  0  0  0  0
   22.5654    5.8050   25.9580 N   0  0  0  0  0  0  0  0  0  0  0  0
   25.9481    7.3125   28.7971 C   0  0  0  0  0  0  0  0  0  0  0  0
   27.0260    5.6632   28.0535 N   0  0  0  0  0  0  0  0  0  0  0  0
   22.7314    3.6226   25.2956 S   0  0  0  0  0  4  0  0  0  0  0  0
   23.5020    8.7219   29.1959 C   0  0  0  0  0  0  0  0  0  0  0  0
   22.6287    9.8735   29.6158 C   0  0  0  0  0  0  0  0  0  0  0  0
   25.5035    8.4978   30.0451 C   0  0  0  0  0  0  0  0  0  0  0  0
   23.4723    2.5733   25.3048 O   0  0  0  0  0  0  0  0  0  0  0  0
   23.3274    3.5237   24.2095 F   0  0  0  0  0  0  0  0  0  0  0  0
  4  3  1  0
  5  4  1  0
  6  5  2  0
  9  3  1  0
  9  7  2  0
 10  4  1  0
 10  6  1  0
 11  1  2  0
 11  2  1  0
 13  5  1  0
 14  3  1  0
 14  8  1  0
 15 10  1  0
 16 12  1  0
 16 13  1  0
 17  2  1  0
 17  3  1  0
 17  9  1  0
 18  1  1  0
 18 17  1  0
 19  2  1  0
 19  8  1  0
 20 16  1  0
 21 16  1  0
M  RAD  1   2   2
M  END
>  <ID>  (1) 
conformer_0

$$$$
