
     RDKit          3D

 18 18  0  0  0  0  0  0  0  0999 V2000
   25.0380    4.6441   26.2283 C   0  0  0  0  0  0  0  0  0  0  0  0
   24.7753    8.6603   29.7354 C   0  0  0  0  0  0  0  0  0  0  0  0
   24.9859    9.7068   30.7537 C   0  0  0  0  0  0  0  0  0  0  0  0
   23.7770   10.5012   30.9396 C   0  0  0  0  0  0  0  0  0  0  0  0
   23.5144    5.6177   26.7936 C   0  0  0  0  0  0  0  0  0  0  0  0
   21.3661    7.3560   27.6489 O   0  0  0  0  0  0  0  0  0  0  0  0
   26.7613    7.0336   29.5302 O   0  0  0  0  0  0  0  0  0  0  0  0
   25.6957    7.2453   28.7962 C   0  0  0  0  0  0  0  0  0  0  0  0
   22.7944   10.0380   29.8540 C   0  0  0  0  0  0  0  0  0  0  0  0
   24.6299    6.5657   27.7241 C   0  0  0  0  0  0  0  0  0  0  0  0
   22.5546    7.4098   27.7542 C   0  0  0  0  0  0  0  0  0  0  0  0
   23.6826    3.2911   24.2591 O   0  0  0  0  0  0  0  0  0  0  0  0
   22.3332    5.6289   26.5039 N   0  0  0  0  0  0  0  0  0  0  0  0
   24.9303    4.3694   25.9929 C   0  0  0  0  0  0  0  0  0  0  0  0
   23.3841    8.8480   29.1671 C   0  0  2  0  0  0  0  0  0  0  0  0
   26.1727    5.4905   27.0951 C   0  0  0  0  0  0  0  0  0  0  0  0
   23.1554    3.5633   25.1713 S   0  0  0  0  0  0  0  0  0  0  0  0
   22.0055    3.8275   25.0973 O   0  0  0  0  0  0  0  0  0  0  0  0
  3  2  2  0
  4  3  1  0
  5  1  1  0
  8  2  1  0
  8  7  1  0
  9  4  2  0
 10  5  2  0
 10  8  2  0
 11  6  2  0
 13  5  1  0
 14  1  2  3
 15  2  1  0
 15  9  1  0
 15 11  1  1
 16  1  1  0
 17 12  1  0
 17 14  1  0
 18 17  1  0
M  END
>  <ID>  (1) 
conformer_0

$$$$
