
     RDKit          3D

 15 16  0  0  0  0  0  0  0  0999 V2000
   23.7255    8.6382   29.4266 C   0  0  0  0  0  0  0  0  0  0  0  0
   22.8423    9.9418   29.5835 C   0  0  0  0  0  0  0  0  0  0  0  0
   24.8396    6.7730   27.3761 C   0  0  0  0  0  0  0  0  0  0  0  0
   23.7457    5.4510   26.5470 C   0  0  0  0  0  0  0  0  0  0  0  0
   23.4607   10.7558   30.6300 C   0  0  0  0  0  0  0  0  0  0  0  0
   24.3760   10.1712   31.4209 C   0  0  0  0  0  0  0  0  0  0  0  0
   26.9025    7.3235   29.1813 O   0  0  0  0  0  0  0  0  0  0  0  0
   21.9142    7.6373   27.5218 O   0  0  0  0  0  0  0  0  0  0  0  0
   27.4830    5.6640   28.1337 N   0  0  0  0  0  0  0  0  0  0  0  0
   23.0169    7.9762   27.9926 C   0  0  0  0  0  0  0  0  0  0  0  0
   25.9224    5.6298   27.4997 C   0  0  0  0  0  0  0  0  0  0  0  0
   25.3164    5.1123   26.7052 C   0  0  0  0  0  0  0  0  0  0  0  0
   22.8695    2.9528   25.0624 O   0  0  0  0  0  0  0  0  0  0  0  0
   24.4309    8.8124   30.7857 C   0  0  0  0  0  0  0  0  0  0  0  0
   24.3758    3.5586   24.2690 O   0  0  0  0  0  0  0  0  0  0  0  0
  2  1  2  0
  4  3  1  0
  5  2  1  0
  6  5  2  0
  9  7  1  0
 10  1  1  0
 10  3  1  0
 10  8  2  0
 11  3  1  0
 11  9  1  0
 12  4  1  0
 12 11  1  0
 14  1  1  0
 14  6  1  0
 15  4  1  0
 15 13  1  0
M  END
>  <ID>  (1) 
conformer_0

$$$$
