
     RDKit          3D

 19 19  0  0  0  0  0  0  0  0999 V2000
   23.7036   10.5989   30.8258 C   0  0  0  0  0  0  0  0  0  0  0  0
   24.6049    8.7016   29.7435 C   0  0  0  0  0  0  0  0  0  0  0  0
   24.9344    9.8026   30.7710 C   0  0  0  0  0  0  0  0  0  0  0  0
   22.7097   10.0964   29.8525 C   0  0  0  0  0  0  0  0  0  0  0  0
   23.5099    5.3831   26.7159 C   0  0  1  0  0  0  0  0  0  0  0  0
   21.7090    7.6093   28.0307 O   0  0  0  0  0  0  0  0  0  0  0  0
   26.8640    7.6448   29.5185 O   0  0  0  0  0  0  0  0  0  0  0  0
   22.7207    7.5676   28.1963 C   0  0  0  0  0  0  0  0  0  0  0  0
   24.0203    6.2419   27.4014 C   0  0  0  0  0  0  0  0  0  0  0  0
   25.7057    7.5375   28.8003 C   0  0  1  0  0  0  0  0  0  0  0  0
   23.2469    3.6785   24.8306 S   0  0  0  0  0  0  0  0  0  0  0  0
   21.8879    3.8399   25.4293 O   0  0  0  0  0  0  0  0  0  0  0  0
   27.3150    5.7674   27.5955 N   0  0  0  0  0  0  0  0  0  0  0  0
   25.0423    4.8971   26.3938 C   0  0  0  0  0  0  0  0  0  0  0  0
   25.8489    5.3353   27.0287 C   0  0  0  0  0  0  0  0  0  0  0  0
   23.7615    3.2105   24.2661 O   0  0  0  0  0  0  0  0  0  0  0  0
   23.2485    8.7768   29.2235 C   0  0  0  0  0  0  0  0  0  0  0  0
   24.9544    7.0186   28.1363 C   0  0  0  0  0  0  0  0  0  0  0  0
   27.0271    4.2673   26.7871 F   0  0  0  0  0  0  0  0  0  0  0  0
  3  1  2  0
  3  2  1  0
  4  1  1  0
  8  6  1  0
  5  9  1  6
 10  2  1  0
 10  7  1  1
 11  5  1  0
 12 11  1  0
 14  5  1  0
 15 13  1  0
 15 14  2  3
 16 11  1  0
 17  2  2  0
 17  4  1  0
 17  8  1  0
 18  9  3  0
 18 10  1  0
 19 15  1  0
M  END
>  <ID>  (1) 
conformer_0

$$$$
