
     RDKit          3D

 22 25  0  0  0  0  0  0  0  0999 V2000
   22.8048    9.4650   29.3047 C   0  0  0  0  0  0  0  0  0  0  0  0
   22.9677   10.4810   30.2774 C   0  0  0  0  0  0  0  0  0  0  0  0
   25.1037    8.6102   29.8559 C   0  0  0  0  0  0  0  0  0  0  0  0
   23.5866    6.3517   27.1251 C   0  0  0  0  0  0  0  0  0  0  0  0
   25.1803    9.6322   30.8900 C   0  0  0  0  0  0  0  0  0  0  0  0
   24.0556   10.4907   31.1604 C   0  0  0  0  0  0  0  0  0  0  0  0
   23.4744    3.9758   23.4384 O   0  0  0  0  0  0  0  0  0  0  0  0
   27.6493    5.4768   28.1886 N   0  0  0  0  0  0  0  0  0  0  0  0
   27.1374    7.2296   29.4465 O   0  0  0  0  0  0  0  0  0  0  0  0
   22.0709    7.7552   27.6165 O   0  0  0  0  0  0  0  0  0  0  0  0
   21.5032    3.6591   24.9072 O   0  0  0  0  0  0  0  0  0  0  0  0
   26.5574    6.7087   28.7289 C   0  0  0  0  0  0  0  0  0  0  0  0
   24.4859    7.1481   27.9351 C   0  0  0  0  0  3  0  0  0  0  0  0
   23.2227    7.8832   28.0059 C   0  0  0  0  0  0  0  0  0  0  0  0
   22.8243    3.7467   25.0414 S   0  0  0  0  0  4  0  0  0  0  0  0
   25.5586    5.9449   27.7711 C   0  0  0  0  0  0  0  0  0  0  0  0
   22.7187    5.6830   26.0946 N   0  0  0  0  0  0  0  0  0  0  0  0
   23.7478    4.8972   26.1523 C   0  0  0  0  0  0  0  0  0  0  0  0
   23.2573    2.8340   24.9691 O   0  0  0  0  0  0  0  0  0  0  0  0
   24.9910    4.4581   26.4205 C   0  0  0  0  0  3  0  0  0  0  0  0
   23.8946    8.7898   29.3854 C   0  0  0  0  0  0  0  0  0  0  0  0
   25.7445    4.9932   27.3316 C   0  0  0  0  0  0  0  0  0  0  0  0
  2  1  2  0
  5  3  1  0
  6  2  1  0
  6  5  2  0
 12  8  1  0
 12  9  2  0
 13  4  1  0
 14  4  1  0
 14 10  1  0
 14 13  1  0
 15  7  1  0
 15 11  1  0
 16 12  1  0
 16 13  1  0
 17  4  1  0
 18  4  1  0
 18 15  1  0
 18 17  1  0
 19 15  1  0
 20 18  1  0
 21  1  1  0
 21  3  2  0
 21 14  1  0
 22 16  2  0
 22 20  1  0
M  RAD  2  13   2  20   2
M  END
>  <ID>  (1) 
conformer_0

$$$$
