
     RDKit          3D

 20 20  0  0  0  0  0  0  0  0999 V2000
   24.5289    7.3473   28.3350 C   0  0  1  0  0  0  0  0  0  0  0  0
   24.7224    6.2147   27.1980 C   0  0  2  0  0  0  0  0  0  0  0  0
   22.6455   10.1340   29.9015 C   0  0  0  0  0  0  0  0  0  0  0  0
   23.2405    9.0377   29.3342 C   0  0  0  0  0  0  0  0  0  0  0  0
   23.4038    5.5356   26.6993 C   0  0  0  0  0  0  0  0  0  0  0  0
   26.6375    7.5526   29.5589 O   0  0  0  0  0  0  0  0  0  0  0  0
   25.7376    5.0082   26.6747 C   0  0  0  0  0  0  0  0  0  0  0  0
   25.9676    7.1740   28.7514 C   0  0  0  0  0  0  0  0  0  0  0  0
   22.1544    7.7856   27.3964 O   0  0  0  0  0  0  0  0  0  0  0  0
   24.8475    8.9399   30.0089 C   0  0  0  0  0  0  0  0  0  0  0  0
   23.5599    3.2665   24.8102 S   0  0  0  0  0  4  0  0  0  0  0  0
   23.1618    7.8418   28.0413 C   0  0  0  0  0  0  0  0  0  0  0  0
   27.4077    6.0786   28.0777 N   0  0  0  0  0  0  0  0  0  0  0  0
   24.6049    3.2034   24.1183 O   0  0  0  0  0  0  0  0  0  0  0  0
   22.4306    3.5310   24.1525 O   0  0  0  0  0  0  0  0  0  0  0  0
   22.6736    5.1692   26.2902 N   0  0  0  0  0  0  0  0  0  0  0  0
   25.3905    5.2141   26.9417 C   0  0  0  0  0  0  0  0  0  0  0  0
   24.8782    9.8502   31.0037 C   0  0  0  0  0  0  0  0  0  0  0  0
   23.5307   10.6047   31.0243 C   0  0  0  0  0  0  0  0  0  0  0  0
   23.6628    2.1696   25.4149 O   0  0  0  0  0  0  0  0  0  0  0  0
  2  1  1  0
  4  3  2  0
  2  5  1  1
  1  8  1  6
  8  6  2  0
 10  4  1  0
 12  1  1  0
 12  4  1  0
 12  9  2  0
 13  8  1  0
 14 11  1  0
 15 11  1  0
 16  5  1  0
 16 11  1  0
 17  2  1  0
 17  7  2  3
 18 10  2  0
 19  3  1  0
 19 18  1  0
 20 11  1  0
M  END
>  <ID>  (1) 
conformer_0

$$$$
