
     RDKit          3D

 19 20  0  0  0  0  0  0  0  0999 V2000
   24.9305    9.2775   30.4958 C   0  0  0  0  0  0  0  0  0  0  0  0
   24.3366   10.3322   31.1947 C   0  0  0  0  0  0  0  0  0  0  0  0
   24.8533    6.5823   27.3861 C   0  0  0  0  0  0  0  0  0  0  0  0
   23.0749   10.4514   30.5109 C   0  0  0  0  0  0  0  0  0  0  0  0
   24.0808    5.2330   26.4605 C   0  0  0  0  0  0  0  0  0  0  0  0
   26.6040    7.4358   29.4498 O   0  0  0  0  0  0  0  0  0  0  0  0
   25.5992    4.8319   26.4361 C   0  0  0  0  0  0  0  0  0  0  0  0
   21.7336    7.6174   27.8876 O   0  0  0  0  0  0  0  0  0  0  0  0
   27.5185    5.8381   27.8036 N   0  0  0  0  0  0  0  0  0  0  0  0
   24.1828    8.3933   29.2208 C   0  0  0  0  0  0  0  0  0  0  0  0
   22.6794    7.6678   27.8823 C   0  0  0  0  0  0  0  0  0  0  0  0
   26.2111    5.7012   27.4299 C   0  0  0  0  0  0  0  0  0  0  0  0
   22.5225    4.1510   24.1652 O   0  0  0  0  0  0  0  0  0  0  0  0
   25.3080    7.5777   28.7328 C   0  0  0  0  0  0  0  0  0  0  0  0
   23.1375    3.8140   25.2220 S   0  0  0  0  0  4  0  0  0  0  0  0
   22.8416    9.4759   29.5395 C   0  0  0  0  0  0  0  0  0  0  0  0
   24.4208    2.8578   24.4816 O   0  0  0  0  0  0  0  0  0  0  0  0
   22.6432    5.8077   26.8353 N   0  0  0  0  0  0  0  0  0  0  0  0
   22.4542    2.8724   25.9006 O   0  0  0  0  0  0  0  0  0  0  0  0
  2  1  2  0
  4  2  1  0
  5  3  1  0
  7  5  1  0
 10  1  1  0
 11  8  2  0
 11 10  1  0
 12  3  1  0
 12  7  2  0
 12  9  1  0
 14  3  1  0
 14  6  1  0
 14 10  1  0
 15  5  1  0
 15 13  1  0
 16  4  2  0
 16 10  1  0
 17 15  1  0
 18  5  1  0
 19 15  1  0
M  END
>  <ID>  (1) 
conformer_0

$$$$
