
     RDKit          3D

 17 17  0  0  0  0  0  0  0  0999 V2000
   24.2375    8.4477   29.2408 C   0  0  0  0  0  0  0  0  0  0  0  0
   24.9190    9.1819   30.5222 C   0  0  0  0  0  0  0  0  0  0  0  0
   24.7107    6.8211   27.5137 C   0  0  0  0  0  0  0  0  0  0  0  0
   23.5643    5.3830   26.5358 C   0  0  0  0  0  3  0  0  0  0  0  0
   24.1536   10.2692   31.1498 C   0  0  0  0  0  0  0  0  0  0  0  0
   22.9330    9.4421   29.2217 C   0  0  0  0  0  0  0  0  0  0  0  0
   22.7198    3.3575   24.6472 O   0  0  0  0  0  0  0  0  0  0  0  0
   26.7541    7.4811   29.6663 O   0  0  0  0  0  0  0  0  0  0  0  0
   22.3013    7.7521   26.9693 O   0  0  0  0  0  0  0  0  0  0  0  0
   27.3077    5.6755   27.9564 N   0  0  0  0  0  0  0  0  0  0  0  0
   23.0317    7.6458   27.4112 C   0  0  0  0  0  0  0  0  0  0  0  0
   25.8494    7.4767   29.1139 C   0  0  0  0  0  0  0  0  0  0  0  0
   25.6954    5.4544   27.3701 C   0  0  0  0  0  0  0  0  0  0  0  0
   25.4430    5.1476   26.5854 C   0  0  0  0  0  0  0  0  0  0  0  0
   22.3629    5.6624   26.2682 N   0  0  0  0  0  0  0  0  0  0  0  0
   23.3503    3.4619   24.9592 S   0  0  0  0  0  3  0  0  0  0  0  0
   23.0020   10.4288   30.2566 C   0  0  0  0  0  0  0  0  0  0  0  0
  2  1  2  0
  5  2  1  0
  6  1  1  0
 11  3  1  0
 11  9  2  0
 12  1  1  0
 12  3  1  0
 12  8  2  0
 13  3  1  0
 13 10  1  0
 14  4  1  0
 14 13  1  0
 15  4  1  0
 16  4  1  0
 16  7  1  0
 17  5  2  0
 17  6  1  0
M  RAD  2   4   2  16   2
M  END
>  <ID>  (1) 
conformer_0

$$$$
