
     RDKit          3D

 19 19  0  0  0  0  0  0  0  0999 V2000
   23.6320   10.7219   30.8665 C   0  0  0  0  0  0  0  0  0  0  0  0
   24.6246    9.7768   30.9527 C   0  0  0  0  0  0  0  0  0  0  0  0
   23.2525    9.0178   29.2703 C   0  0  0  0  0  0  0  0  0  0  0  0
   23.4608    5.6009   26.8590 C   0  0  1  0  0  0  0  0  0  0  0  0
   22.7678   10.1519   29.6439 C   0  0  0  0  0  0  0  0  0  0  0  0
   24.7190    8.7942   29.9396 C   0  0  0  0  0  0  0  0  0  0  0  0
   26.9058    7.2609   29.7344 O   0  0  0  0  0  0  0  0  0  0  0  0
   23.0443    7.8715   28.0003 C   0  0  0  0  0  0  0  0  0  0  0  0
   22.0552    8.0514   27.4674 O   0  0  0  0  0  0  0  0  0  0  0  0
   24.8815    4.7561   26.4029 C   0  0  0  0  0  0  0  0  0  0  0  0
   22.0822    3.9535   24.6461 O   0  0  0  0  0  0  0  0  0  0  0  0
   27.5229    5.7965   27.5051 N   0  0  0  0  0  0  0  0  0  0  0  0
   25.6538    5.4233   27.0349 C   0  0  0  0  0  0  0  0  0  0  0  0
   26.4905    6.9160   28.7654 C   0  0  0  0  0  0  0  0  0  0  0  0
   22.7734    3.7285   25.1787 S   0  0  0  0  0  4  0  0  0  0  0  0
   25.3509    6.3157   27.5917 C   0  0  0  0  0  0  0  0  0  0  0  0
   23.3989    2.5920   25.1578 O   0  0  0  0  0  0  0  0  0  0  0  0
   22.5773    5.9789   27.2595 N   0  0  0  0  0  0  0  0  0  0  0  0
   24.4554    7.3983   28.2387 C   0  0  0  0  0  0  0  0  0  0  0  0
  2  1  2  0
  5  1  1  0
  5  3  1  0
  6  2  1  0
  6  3  2  0
  8  3  1  0
  9  8  2  0
 10  4  1  0
 13 10  2  3
 13 12  1  0
 14  7  2  0
 15  4  1  0
 15 11  1  0
 16 13  1  0
 16 14  2  0
 17 15  1  0
  4 18  1  1
 19  8  1  0
 19 16  1  0
M  END
>  <ID>  (1) 
conformer_0

$$$$
