
     RDKit          3D

 18 18  0  0  0  0  0  0  0  0999 V2000
   22.8677    9.7277   29.5797 C   0  0  0  0  0  0  0  0  0  0  0  0
   24.9433    9.3537   30.4733 C   0  0  0  0  0  0  0  0  0  0  0  0
   24.1640    8.6482   29.3272 C   0  0  0  0  0  0  0  0  0  0  0  0
   24.4332   10.3498   31.3022 C   0  0  0  0  0  0  0  0  0  0  0  0
   23.7916    5.5094   26.4591 C   0  0  0  0  0  0  0  0  0  0  0  0
   24.6286    6.8095   27.7453 C   0  0  2  0  0  0  0  0  0  0  0  0
   22.0577    7.6160   27.5523 O   0  0  0  0  0  0  0  0  0  0  0  0
   26.5650    7.2080   29.6013 O   0  0  0  0  0  0  0  0  0  0  0  0
   23.3392    3.2191   24.9390 S   0  0  0  0  0  0  0  0  0  0  0  0
   25.3384    5.1531   26.6044 C   0  0  0  0  0  0  0  0  0  0  0  0
   22.6364    5.3988   25.8730 N   0  0  0  0  0  0  0  0  0  0  0  0
   22.9349    7.7783   27.9775 C   0  0  0  0  0  0  0  0  0  0  0  0
   25.8822    5.6396   27.3942 C   0  0  0  0  0  0  0  0  0  0  0  0
   24.0283    3.1844   24.0467 O   0  0  0  0  0  0  0  0  0  0  0  0
   25.4762    7.5710   29.0406 C   0  0  0  0  0  0  0  0  0  0  0  0
   23.2356   10.6682   30.6705 C   0  0  0  0  0  0  0  0  0  0  0  0
   27.2138    5.8435   27.8284 N   0  0  0  0  0  0  0  0  0  0  0  0
   23.1993    2.3817   25.7420 O   0  0  0  0  0  0  0  0  0  0  0  0
  3  1  2  0
  3  2  1  0
  4  2  2  0
 10  5  1  0
 11  5  1  0
 11  9  1  0
  6 12  1  1
 12  7  2  0
 13  6  1  0
 13 10  2  3
 14  9  1  0
 15  3  1  0
 15  6  1  0
 15  8  2  0
 16  1  1  0
 16  4  1  0
 17 13  1  0
 18  9  1  0
M  END
>  <ID>  (1) 
conformer_0

$$$$
