
     RDKit          3D

 19 19  0  0  0  0  0  0  0  0999 V2000
   24.7972    9.8343   30.7515 C   0  0  0  0  0  0  0  0  0  0  0  0
   23.5182   10.6248   30.8333 C   0  0  0  0  0  0  0  0  0  0  0  0
   23.1755    8.9936   29.2141 C   0  0  0  0  0  0  0  0  0  0  0  0
   22.6155   10.0421   29.7348 C   0  0  0  0  0  0  0  0  0  0  0  0
   23.6317    5.4823   26.7129 C   0  0  0  0  0  0  0  0  0  0  0  0
   24.5286    7.5623   28.5381 C   0  0  0  0  0  0  0  0  0  0  0  0
   27.4881    5.4513   27.1658 N   0  0  0  0  0  0  0  0  0  0  0  0
   27.1233    7.2624   29.2227 O   0  0  0  0  0  0  0  0  0  0  0  0
   22.0505    8.0121   27.4000 O   0  0  0  0  0  0  0  0  0  0  0  0
   24.9537    5.9834   27.2682 C   0  0  0  0  0  0  0  0  0  0  0  0
   22.6871    3.7712   25.6225 S   0  0  0  0  0  4  0  0  0  0  0  0
   26.1765    6.9944   28.5947 C   0  0  0  0  0  0  0  0  0  0  0  0
   23.0408    7.9014   27.8697 C   0  0  0  0  0  0  0  0  0  0  0  0
   25.7648    5.2874   26.9125 C   0  0  0  0  0  0  0  0  0  0  0  0
   22.1311    4.5472   24.7509 O   0  0  0  0  0  0  0  0  0  0  0  0
   22.0395    3.1577   26.8897 O   0  0  0  0  0  0  0  0  0  0  0  0
   24.7952    8.9233   29.9727 C   0  0  0  0  0  0  0  0  0  0  0  0
   23.3706    2.8664   24.8286 O   0  0  0  0  0  0  0  0  0  0  0  0
   25.3793    4.4613   26.1968 C   0  0  0  0  0  0  0  0  0  0  0  0
  2  1  2  0
  4  2  1  0
  4  3  2  0
 10  5  1  0
 11  5  1  0
 12  6  2  0
 12  8  1  0
 12 10  1  0
 13  3  1  0
 13  6  2  0
 13  9  1  0
 14  7  1  0
 14 10  2  3
 15 11  1  0
 16 11  1  0
 17  1  1  0
 17  3  1  0
 18 11  1  0
 19 14  1  0
M  END
>  <ID>  (1) 
conformer_0

$$$$
