
     RDKit          3D

 20 22  0  0  0  0  0  0  0  0999 V2000
   24.7756    8.7851   30.0460 C   0  0  0  0  0  0  0  0  0  0  0  0
   24.7453    9.6603   30.9726 C   0  0  0  0  0  0  0  0  0  0  0  0
   24.3395    7.5521   28.5590 C   0  0  0  0  0  0  0  0  0  0  0  0
   24.1465    4.9114   26.3608 C   0  0  0  0  0  0  0  0  0  0  0  0
   22.7077   10.0115   29.8298 C   0  0  0  0  0  0  0  0  0  0  0  0
   25.4670    4.6793   26.2137 C   0  0  0  0  0  0  0  0  0  0  0  0
   26.7495    7.4972   29.6167 O   0  0  0  0  0  0  0  0  0  0  0  0
   21.7539    7.5661   27.6750 O   0  0  0  0  0  0  0  0  0  0  0  0
   26.3557    5.7226   27.3849 C   0  0  0  0  0  0  0  0  0  0  0  0
   22.7717    7.6670   28.0260 C   0  0  0  0  0  0  0  0  0  0  0  0
   25.2346    6.1949   27.3636 C   0  0  0  0  0  0  0  0  0  0  0  0
   23.0672    3.5657   25.0301 S   0  0  0  0  0  4  0  0  0  0  0  0
   25.5911    7.5109   28.9322 C   0  0  0  0  0  0  0  0  0  0  0  0
   22.2823    4.2184   24.6534 O   0  0  0  0  0  0  0  0  0  0  0  0
   27.4908    5.6437   27.6962 N   0  0  0  0  0  0  0  0  0  0  0  0
   22.5980    5.4792   26.4817 N   0  0  0  0  0  0  0  0  0  0  0  0
   23.0357    8.9481   29.3318 C   0  0  0  0  0  0  0  0  0  0  0  0
   23.6678    2.7672   25.4670 O   0  0  0  0  0  0  0  0  0  0  0  0
   23.3898    6.0673   27.0895 C   0  0  0  0  0  0  0  0  0  0  0  0
   23.5739   10.5158   30.9821 C   0  0  0  0  0  0  0  0  0  0  0  0
  2  1  2  0
  6  4  2  0
  9  6  1  0
 10  3  1  0
 10  8  1  0
 11  9  2  0
 12  4  1  0
 13  1  1  0
 13  3  1  0
 13  7  1  0
 14 12  1  0
 15  9  1  0
 17  1  1  0
 17  5  1  0
 17 10  1  0
 18 12  1  0
 19  4  1  0
 19 10  1  0
 19 11  1  0
 19 16  1  0
 20  2  1  0
 20  5  2  0
M  END
>  <ID>  (1) 
conformer_0

$$$$
