
     RDKit          3D

 19 21  0  0  0  0  0  0  0  0999 V2000
   23.8316    8.6566   29.2870 C   0  0  0  0  0  0  0  0  0  0  0  0
   24.3876   10.0443   31.2247 C   0  0  0  0  0  0  0  0  0  0  0  0
   25.6490    5.5832   26.8144 C   0  0  0  0  0  0  0  0  0  0  0  0
   23.5398    6.1934   26.9278 C   0  0  0  0  0  0  0  0  0  0  0  0
   23.3216   10.6485   30.6930 C   0  0  0  0  0  0  0  0  0  0  0  0
   26.9043    7.0124   29.0567 O   0  0  0  0  0  0  0  0  0  0  0  0
   24.7835    6.7457   27.7975 C   0  0  0  0  0  0  0  0  0  0  0  0
   22.3901    7.5633   27.4682 O   0  0  0  0  0  0  0  0  0  0  0  0
   27.9905    5.1695   27.3887 N   0  0  0  0  0  0  0  0  0  0  0  0
   22.9733    3.6064   24.1379 O   0  0  0  0  0  0  0  0  0  0  0  0
   23.3771    7.7285   28.0965 C   0  0  0  0  0  0  0  0  0  0  0  0
   22.7039    3.5584   25.1524 S   0  0  0  0  0  4  0  0  0  0  0  0
   22.6725   10.0002   29.5527 C   0  0  0  0  0  0  0  0  0  0  0  0
   26.3378    5.2684   27.1135 C   0  0  0  0  0  0  0  0  0  0  0  0
   26.1517    6.9040   28.4172 C   0  0  0  0  0  3  0  0  0  0  0  0
   24.8079    8.8229   30.3234 C   0  0  0  0  0  0  0  0  0  0  0  0
   21.6816    3.4003   25.5597 O   0  0  0  0  0  0  0  0  0  0  0  0
   25.4431    4.2630   25.8857 C   0  0  0  0  0  0  0  0  0  0  0  0
   23.9983    4.7869   26.0784 C   0  0  0  0  0  0  0  0  0  0  0  0
  5  2  2  0
  7  3  1  0
  7  4  1  0
 11  1  1  0
 11  4  1  0
 11  7  1  0
 11  8  1  0
 12 10  1  0
 13  1  2  0
 13  5  1  0
 14  3  1  0
 14  9  1  0
 15  6  2  0
 15  7  1  0
 16  1  1  0
 16  2  1  0
 17 12  1  0
 18  3  1  0
 19  4  1  0
 19 12  1  0
 19 18  2  0
M  RAD  1  15   2
M  END
>  <ID>  (1) 
conformer_0

$$$$
