
     RDKit          3D

 17 18  0  0  0  0  0  0  0  0999 V2000
   23.9927    8.3154   29.0462 C   0  0  0  0  0  0  0  0  0  0  0  0
   24.3728   10.1553   31.1477 C   0  0  0  0  0  0  0  0  0  0  0  0
   23.2057   10.5747   30.4978 C   0  0  0  0  0  0  0  0  0  0  0  0
   24.7562    9.1205   30.3000 C   0  0  0  0  0  0  0  0  0  0  0  0
   24.2727    4.9869   26.4412 C   0  0  0  0  0  0  0  0  0  0  0  0
   22.8778    9.5786   29.4719 C   0  0  0  0  0  0  0  0  0  0  0  0
   22.0219    7.2955   27.0824 O   0  0  0  0  0  0  0  0  0  0  0  0
   26.8264    7.3922   29.0927 O   0  0  0  0  0  0  0  0  0  0  0  0
   23.4342    7.6862   27.9786 C   0  0  2  0  0  0  0  0  0  0  0  0
   23.9186    6.0031   27.0842 C   0  0  0  0  0  0  0  0  0  0  0  0
   22.4260    3.6452   25.1977 O   0  0  0  0  0  0  0  0  0  0  0  0
   22.4518    5.1294   26.1621 C   0  0  0  0  0  0  0  0  0  0  0  0
   27.0677    5.5277   27.2083 N   0  0  0  0  0  0  0  0  0  0  0  0
   25.9620    5.6782   27.2858 C   0  0  0  0  0  0  0  0  0  0  0  0
   23.4226    3.4587   25.1821 S   0  0  0  0  0  4  0  0  0  0  0  0
   24.8658    3.2268   25.0939 O   0  0  0  0  0  0  0  0  0  0  0  0
   24.9334    6.5575   27.7059 C   0  0  1  0  0  0  0  0  0  0  0  0
  3  2  2  0
  4  1  2  0
  4  2  1  0
  6  1  1  0
  6  3  1  0
  9  1  1  0
  9  7  1  1
 10  5  2  3
 12  5  1  0
 14  8  2  0
 14 13  1  0
 15  5  1  0
 15 11  1  0
 15 12  1  0
 16 15  1  0
 17  9  1  0
 17 10  1  0
 17 14  1  6
M  END
>  <ID>  (1) 
conformer_0

$$$$
