
     RDKit          3D

 17 18  0  0  0  0  0  0  0  0999 V2000
   24.9364    9.0218   30.3331 C   0  0  0  0  0  0  0  0  0  0  0  0
   24.8671    6.5835   27.5903 C   0  0  0  0  0  0  0  0  0  0  0  0
   24.4577   10.1557   31.1352 C   0  0  0  0  0  0  0  0  0  0  0  0
   24.4984    4.5791   26.2848 C   0  0  0  0  0  0  0  0  0  0  0  0
   23.2835   10.5563   30.5201 C   0  0  0  0  0  0  0  0  0  0  0  0
   27.1143    7.0216   28.8343 O   0  0  0  0  0  0  0  0  0  0  0  0
   21.9092    7.8069   27.4852 O   0  0  0  0  0  0  0  0  0  0  0  0
   25.5871    5.2256   26.9713 C   0  0  0  0  0  0  0  0  0  0  0  0
   24.0757    8.4733   29.1584 C   0  0  0  0  0  0  0  0  0  0  0  0
   22.9115    7.9049   27.8768 C   0  0  0  0  0  0  0  0  0  0  0  0
   22.5092    5.7788   26.2450 N   0  0  0  0  0  0  0  0  0  0  0  0
   23.0236    3.2219   24.6339 O   0  0  0  0  0  0  0  0  0  0  0  0
   25.7562    7.1665   28.4712 C   0  0  0  0  0  0  0  0  0  0  0  0
   27.7882    5.4667   27.6637 N   0  0  0  0  0  0  0  0  0  0  0  0
   23.2630    3.3658   24.9643 S   0  0  0  0  0  0  0  0  0  0  0  0
   22.8994    9.6545   29.4703 C   0  0  0  0  0  0  0  0  0  0  0  0
   23.4009    5.8220   26.7501 C   0  0  0  0  0  0  0  0  0  0  0  0
  3  1  2  0
  5  3  1  0
  8  2  1  0
  8  4  2  0
  9  1  1  0
 10  7  2  0
 10  9  1  0
 13  2  1  0
 13  6  1  0
 13  9  1  0
 14  6  1  0
 15  4  1  0
 15 12  1  0
 16  5  2  0
 16  9  1  0
 17  2  2  0
 17  4  1  0
 17 11  1  0
M  END
>  <ID>  (1) 
conformer_0

$$$$
