
     RDKit          3D

 15 15  0  0  0  0  0  0  0  0999 V2000
   24.7083    8.8834   30.0975 C   0  0  1  0  0  0  0  0  0  0  0  0
   24.3399   10.0447   30.9761 C   0  0  0  0  0  0  0  0  0  0  0  0
   23.1986    9.1358   29.3060 C   0  0  0  0  0  0  0  0  0  0  0  0
   23.5373    5.3794   26.7566 C   0  0  0  0  0  0  0  0  0  0  0  0
   23.0485   10.2909   30.1889 C   0  0  0  0  0  0  0  0  0  0  0  0
   21.9487    7.3825   27.4984 O   0  0  0  0  0  0  0  0  0  0  0  0
   24.3949    7.3456   28.2929 C   0  0  0  0  0  0  0  0  0  0  0  0
   22.7359    7.5528   27.8319 C   0  0  0  0  0  0  0  0  0  0  0  0
   25.3410    5.8569   27.0431 C   0  0  0  0  0  0  0  0  0  0  0  0
   23.1563    3.3717   25.0889 O   0  0  0  0  0  0  0  0  0  0  0  0
   26.7893    7.2733   29.1107 O   0  0  0  0  0  0  0  0  0  0  0  0
   25.4580    5.5679   27.2606 C   0  0  0  0  0  0  0  0  0  0  0  0
   23.1514    3.7356   25.3708 S   0  0  0  0  0  0  0  0  0  0  0  0
   27.6007    6.0767   27.8922 N   0  0  0  0  0  0  0  0  0  0  0  0
   25.3826    7.4972   28.6596 C   0  0  2  0  0  0  0  0  0  0  0  0
  1  2  1  6
  3  1  1  0
  5  2  1  0
  5  3  2  0
  8  6  2  0
  8  7  2  0
  9  4  1  0
  9  7  1  0
 12  9  2  3
 13  4  1  0
 13 10  1  0
 14 11  1  0
 15  1  1  0
 15  7  1  0
 15 11  1  1
M  END
>  <ID>  (1) 
conformer_0

$$$$
