
     RDKit          3D

 19 20  0  0  0  0  0  0  0  0999 V2000
   24.6466    8.7019   29.6716 C   0  0  0  0  0  0  0  0  0  0  0  0
   23.8988   10.5954   31.0475 C   0  0  0  0  0  0  0  0  0  0  0  0
   23.3190    5.5849   26.8590 C   0  0  0  0  0  0  0  0  0  0  0  0
   24.0547    6.9787   27.7361 C   0  0  0  0  0  0  0  0  0  0  0  0
   22.8122   10.3172   29.9940 C   0  0  0  0  0  0  0  0  0  0  0  0
   27.0032    7.1578   29.1080 O   0  0  0  0  0  0  0  0  0  0  0  0
   22.0081    7.8799   27.3826 O   0  0  0  0  0  0  0  0  0  0  0  0
   24.8660    9.6410   30.7003 C   0  0  0  0  0  0  0  0  0  0  0  0
   22.9585    7.7714   27.9058 C   0  0  0  0  0  0  0  0  0  0  0  0
   22.4383    3.9196   24.7190 O   0  0  0  0  0  0  0  0  0  0  0  0
   23.3145    3.3544   25.0701 S   0  0  0  0  0  4  0  0  0  0  0  0
   24.2862    4.4282   26.2364 C   0  0  0  0  0  0  0  0  0  0  0  0
   26.1270    7.0115   28.5261 C   0  0  0  0  0  0  0  0  0  0  0  0
   24.2548    2.6866   24.7658 O   0  0  0  0  0  0  0  0  0  0  0  0
   24.1815    4.2746   26.3779 N   0  0  0  0  0  0  0  0  0  0  0  0
   23.1325    9.1622   29.3132 C   0  0  0  0  0  0  0  0  0  0  0  0
   26.4630    4.2255   26.5198 F   0  0  0  0  0  0  0  0  0  0  0  0
   25.3320    6.1154   27.2409 C   0  0  0  0  0  0  0  0  0  0  0  0
   25.7226    5.2972   27.1956 C   0  0  0  0  0  0  0  0  0  0  0  0
  4  3  2  0
  5  2  2  0
  8  1  2  0
  8  2  1  0
  9  4  1  0
  9  7  2  0
 11 10  1  0
 12  3  1  0
 12 11  1  0
 13  6  2  0
 14 11  1  0
 15 12  1  0
 16  1  1  0
 16  5  1  0
 16  9  1  0
 18  4  1  0
 18 13  1  0
 19 12  1  0
 19 17  1  0
 19 18  2  0
M  END
>  <ID>  (1) 
conformer_0

$$$$
