
     RDKit          3D

 16 18  0  0  0  0  0  0  0  0999 V2000
   24.4184    8.3879   29.3700 C   0  0  0  0  0  0  0  0  0  0  0  0
   25.3318    9.1270   30.3981 C   0  0  0  0  0  0  0  0  0  0  0  0
   24.0811    6.3177   27.5646 C   0  0  0  0  0  0  0  0  0  0  0  0
   23.3801   10.4556   30.5708 C   0  0  0  0  0  0  0  0  0  0  0  0
   25.0891    4.5539   26.5673 C   0  0  0  0  0  0  0  0  0  0  0  0
   21.8690    7.3460   27.5616 O   0  0  0  0  0  0  0  0  0  0  0  0
   25.5105    7.2564   28.6994 C   0  0  0  0  0  0  0  0  0  0  0  0
   23.1634    9.4557   29.5461 C   0  0  0  0  0  0  0  0  0  0  0  0
   25.2545    5.1067   26.8867 C   0  0  0  0  0  0  0  0  0  0  0  0
   26.8853    7.0680   28.9257 O   0  0  0  0  0  0  0  0  0  0  0  0
   23.7731    3.6083   24.1684 O   0  0  0  0  0  0  0  0  0  0  0  0
   22.8020    7.2012   27.7525 C   0  0  0  0  0  0  0  0  0  0  0  0
   23.3519    5.1365   26.3269 C   0  0  0  0  0  0  0  0  0  0  0  0
   26.7341    6.1845   27.7890 N   0  0  0  0  0  0  0  0  0  0  0  0
   24.6666   10.1924   31.1971 C   0  0  0  0  0  0  0  0  0  0  0  0
   21.9589    3.9265   25.3617 O   0  0  0  0  0  0  0  0  0  0  0  0
  2  1  2  0
  7  1  1  0
  7  3  1  0
  8  1  1  0
  8  4  1  0
  9  3  1  0
  9  5  2  0
 10  7  1  0
 12  3  1  0
 12  6  2  0
 13  3  1  0
 13  5  1  0
 13 11  1  0
 14  7  1  0
 14 10  1  0
 15  2  1  0
 15  4  2  0
 16 13  1  0
M  END
>  <ID>  (1) 
conformer_0

$$$$
