
     RDKit          3D

 21 21  0  0  0  0  0  0  0  0999 V2000
   25.0631    9.6601   30.7885 C   0  0  0  0  0  0  0  0  0  0  0  0
   23.5750    8.7513   29.3907 C   0  0  0  0  0  0  0  0  0  0  0  0
   25.6568    6.3987   27.7695 C   0  0  1  0  0  0  0  0  0  0  0  0
   24.0958   10.6233   31.1588 C   0  0  0  0  0  0  0  0  0  0  0  0
   22.5982    9.6424   29.3580 C   0  0  0  0  0  0  0  0  0  0  0  0
   27.1150    7.1534   29.3545 O   0  0  0  0  0  0  0  0  0  0  0  0
   23.1557    3.5706   24.9531 S   0  0  0  0  0  4  0  0  0  0  0  0
   23.7889    5.2108   26.7234 C   0  0  0  0  0  0  0  0  0  0  0  0
   25.7222    4.5329   26.4459 C   0  0  0  0  0  0  0  0  0  0  0  0
   22.0286    7.8679   27.2147 O   0  0  0  0  0  0  0  0  0  0  0  0
   22.4201    4.6161   24.6050 O   0  0  0  0  0  0  0  0  0  0  0  0
   22.8424    7.7317   27.7552 C   0  0  0  0  0  0  0  0  0  0  0  0
   27.4142    5.5313   27.8752 N   0  0  0  0  0  0  0  0  0  0  0  0
   26.1850    7.0295   28.7763 C   0  0  0  0  0  0  0  0  0  0  0  0
   26.0382    5.3403   27.3249 C   0  0  0  0  0  0  0  0  0  0  0  0
   24.1962    7.0450   27.9235 C   0  0  1  0  0  0  0  0  0  0  0  0
   24.8676    8.7192   29.8181 C   0  0  0  0  0  0  0  0  0  0  0  0
   23.9973    3.0680   24.2706 O   0  0  0  0  0  0  0  0  0  0  0  0
   23.7994    5.3536   26.9592 C   0  0  0  0  0  0  0  0  0  0  0  0
   22.3173    2.7592   25.6469 O   0  0  0  0  0  0  0  0  0  0  0  0
   22.9478   10.6562   30.3421 C   0  0  0  0  0  0  0  0  0  0  0  0
  4  1  2  0
  5  2  1  0
  8  7  1  0
 11  7  1  0
 12  2  1  0
 12 10  2  0
  3 14  1  1
 14  6  2  0
 15  3  1  0
 15  9  2  3
 15 13  1  0
 16  3  1  0
 16 12  1  0
 17  1  1  0
 17  2  2  0
 18  7  1  0
 19  8  1  0
 16 19  1  6
 20  7  1  0
 21  4  1  0
 21  5  2  0
M  END
>  <ID>  (1) 
conformer_0

$$$$
