
     RDKit          3D

 16 17  0  0  0  0  0  0  0  0999 V2000
   24.2857   10.0424   31.1469 C   0  0  0  0  0  0  0  0  0  0  0  0
   23.2127   10.4209   30.3219 C   0  0  0  0  0  0  0  0  0  0  0  0
   24.7678    8.8618   30.4728 C   0  0  0  0  0  0  0  0  0  0  0  0
   24.0659    8.0548   29.1202 C   0  0  0  0  0  0  0  0  0  0  0  0
   23.6193    5.4514   26.7384 C   0  0  0  0  0  0  0  0  0  0  0  0
   24.5751    6.7272   27.7893 C   0  0  0  0  0  0  0  0  0  0  0  0
   22.7329    7.6504   27.9932 C   0  0  0  0  0  3  0  0  0  0  0  0
   21.9218    7.5357   27.6214 O   0  0  0  0  0  0  0  0  0  0  0  0
   26.8215    7.0416   29.4174 O   0  0  0  0  0  0  0  0  0  0  0  0
   22.3743    4.0253   24.5228 O   0  0  0  0  0  0  0  0  0  0  0  0
   25.9484    5.9370   27.3811 C   0  0  0  0  0  0  0  0  0  0  0  0
   25.2099    5.2491   26.5820 C   0  0  0  0  0  0  0  0  0  0  0  0
   23.5217    3.4603   24.7770 S   0  0  0  0  0  4  0  0  0  0  0  0
   24.2824    2.8681   24.9052 O   0  0  0  0  0  0  0  0  0  0  0  0
   22.9638    9.4277   29.3785 C   0  0  0  0  0  0  0  0  0  0  0  0
   25.6661    7.3038   28.9929 C   0  0  0  0  0  0  0  0  0  0  0  0
  2  1  1  0
  3  1  2  0
  4  3  1  0
  6  5  1  0
  7  4  1  0
  8  7  2  0
 11  6  1  0
 12  5  1  0
 12 11  2  0
 13  5  1  0
 13 10  1  0
 14 13  1  0
 15  2  2  0
 15  4  1  0
 16  4  1  0
 16  6  1  0
 16  9  2  0
M  RAD  1   7   2
M  END
>  <ID>  (1) 
conformer_0

$$$$
