
     RDKit          3D

 17 17  0  0  0  0  0  0  0  0999 V2000
   24.5706    8.6728   29.7725 C   0  0  0  0  0  0  0  0  0  0  0  0
   24.7637    9.5492   31.0349 C   0  0  0  0  0  0  0  0  0  0  0  0
   23.9652    5.3980   26.5971 C   0  0  2  0  0  0  0  0  0  0  0  0
   25.6133    5.0739   26.6066 C   0  0  0  0  0  0  0  0  0  0  0  0
   23.8553   10.5830   31.1694 C   0  0  0  0  0  0  0  0  0  0  0  0
   23.2720    3.4694   25.1315 S   0  0  0  0  0  0  0  0  0  0  0  0
   22.8535   10.3894   30.0064 C   0  0  0  0  0  0  0  0  0  0  0  0
   26.8192    7.1715   28.9907 O   0  0  0  0  0  0  0  0  0  0  0  0
   21.6399    7.0911   27.5129 O   0  0  0  0  0  0  0  0  0  0  0  0
   22.2049    3.7031   25.0775 O   0  0  0  0  0  0  0  0  0  0  0  0
   26.0414    5.8148   27.5798 C   0  0  0  0  0  0  0  0  0  0  0  0
   22.6720    7.4881   27.5908 C   0  0  0  0  0  0  0  0  0  0  0  0
   24.8532    6.8053   27.7977 C   0  0  0  0  0  0  0  0  0  0  0  0
   22.8447    6.0397   26.3869 N   0  0  0  0  0  0  0  0  0  0  0  0
   24.1812    2.9473   24.5932 O   0  0  0  0  0  0  0  0  0  0  0  0
   23.2559    9.1989   29.2426 C   0  0  0  0  0  0  0  0  0  0  0  0
   25.0757    7.6089   28.6255 C   0  0  1  0  0  0  0  0  0  0  0  0
  2  1  2  0
  3  4  1  6
  5  2  1  0
  6  3  1  0
  7  5  2  0
 10  6  1  0
 11  4  1  0
 12  9  1  0
 13 11  2  3
 14  3  1  0
 14 12  1  0
 15  6  1  0
 16  1  1  0
 16  7  1  0
 17  1  1  0
 17  8  1  1
 17 13  1  0
M  END
>  <ID>  (1) 
conformer_0

$$$$
