
     RDKit          3D

 15 15  0  0  0  0  0  0  0  0999 V2000
   24.0071    8.6259   29.3436 C   0  0  0  0  0  0  0  0  0  0  0  0
   23.6987   10.4090   30.7495 C   0  0  0  0  0  0  0  0  0  0  0  0
   24.7279    6.4171   27.6756 C   0  0  0  0  0  0  0  0  0  0  0  0
   23.4157    5.3688   26.3699 C   0  0  1  0  0  0  0  0  0  0  0  0
   22.7779    9.7315   29.6819 C   0  0  0  0  0  0  0  0  0  0  0  0
   25.3109    4.8039   26.3915 C   0  0  0  0  0  0  0  0  0  0  0  0
   27.0753    7.1574   29.1065 O   0  0  0  0  0  0  0  0  0  0  0  0
   21.6898    7.9766   27.2454 O   0  0  0  0  0  0  0  0  0  0  0  0
   22.9812    3.5208   24.5816 O   0  0  0  0  0  0  0  0  0  0  0  0
   24.8323    9.5007   30.3970 C   0  0  0  0  0  0  0  0  0  0  0  0
   27.4149    5.4992   28.0314 N   0  0  0  0  0  0  0  0  0  0  0  0
   22.8472    7.6398   27.8183 C   0  0  0  0  0  0  0  0  0  0  0  0
   22.2630    5.7977   26.5431 N   0  0  0  0  0  0  0  0  0  0  0  0
   25.4385    5.3566   27.0668 C   0  0  0  0  0  0  0  0  0  0  0  0
   26.5548    6.5402   28.4937 C   0  0  0  0  0  0  0  0  0  0  0  0
  5  1  2  0
  5  2  1  0
  6  4  1  0
  4  9  1  1
 10  1  1  0
 10  2  2  0
 12  1  1  0
 12  8  2  0
 13  4  1  0
 13 12  1  0
 14  3  1  0
 14  6  2  3
 15  3  1  0
 15  7  2  0
 15 11  1  0
M  END
>  <ID>  (1) 
conformer_0

$$$$
