
     RDKit          3D

 19 20  0  0  0  0  0  0  0  0999 V2000
   24.3256    8.9016   29.6628 C   0  0  0  0  0  0  0  0  0  0  0  0
   24.8462    9.6641   30.6515 C   0  0  0  0  0  0  0  0  0  0  0  0
   24.6676    7.2901   28.0912 C   0  0  0  0  0  0  0  0  0  0  0  0
   23.8057   10.5905   31.0704 C   0  0  0  0  0  0  0  0  0  0  0  0
   23.4183    5.9843   26.7538 C   0  0  0  0  0  0  0  0  0  0  0  0
   21.9136    7.7163   27.5311 O   0  0  0  0  0  0  0  0  0  0  0  0
   26.9403    7.3420   29.1393 O   0  0  0  0  0  0  0  0  0  0  0  0
   22.9114    9.1682   29.2366 C   0  0  0  0  0  0  0  0  0  0  0  0
   22.6303    7.5969   27.7687 C   0  0  0  0  0  0  0  0  0  0  0  0
   25.8276    5.0576   27.1548 C   0  0  0  0  0  0  0  0  0  0  0  0
   22.5030    5.6098   26.0352 N   0  0  0  0  0  0  0  0  0  0  0  0
   26.1495    5.9452   27.8339 C   0  0  0  0  0  0  0  0  0  0  0  0
   24.3121    3.2225   24.5229 O   0  0  0  0  0  0  0  0  0  0  0  0
   25.5981    7.5393   28.7934 C   0  0  1  0  0  0  0  0  0  0  0  0
   22.6964   10.3508   30.0587 C   0  0  0  0  0  0  0  0  0  0  0  0
   24.2540    3.2626   24.8363 S   0  0  0  0  0  0  0  0  0  0  0  0
   27.3263    5.6227   27.9195 N   0  0  0  0  0  0  0  0  0  0  0  0
   24.8053    4.4102   26.4558 C   0  0  2  0  0  0  0  0  0  0  0  0
   24.2747    5.6465   26.9010 C   0  0  0  0  0  0  0  0  0  0  0  0
  2  1  2  0
  4  2  1  0
  8  1  1  0
  9  5  1  0
  9  6  1  0
 11  5  1  0
 12 10  2  3
 14  1  1  0
 14  3  1  6
 14  7  1  0
 14 12  1  0
 15  4  2  0
 15  8  1  0
 16 13  1  0
 17 12  1  0
 18 10  1  0
 18 16  1  6
 19  5  1  0
 19 10  1  0
 19 18  1  0
M  END
>  <ID>  (1) 
conformer_0

$$$$
