
     RDKit          3D

 17 21  0  0  0  0  0  0  0  0999 V2000
   24.8804    9.0919   30.6943 C   0  0  0  0  0  0  0  0  0  0  0  0
   24.6455    8.4734   29.5578 C   0  0  0  0  0  0  0  0  0  0  0  0
   22.9367   10.2058   29.8381 C   0  0  0  0  0  0  0  0  0  0  0  0
   24.5599    6.9081   28.0284 C   0  0  0  0  0  0  0  0  0  0  0  0
   23.2813    6.1188   27.0304 C   0  0  0  0  0  0  0  0  0  0  0  0
   26.9199    7.3982   29.4987 O   0  0  0  0  0  0  0  0  0  0  0  0
   22.2400    7.4023   27.4124 O   0  0  0  0  0  0  0  0  0  0  0  0
   27.1170    5.8298   27.9296 N   0  0  0  0  0  0  0  0  0  0  0  0
   26.1424    6.9314   28.7004 C   0  0  0  0  0  0  0  0  0  0  0  0
   23.2732    9.0886   29.0078 C   0  0  0  0  0  0  0  0  0  0  0  0
   23.2550    7.7448   27.7057 C   0  0  0  0  0  0  0  0  0  0  0  0
   22.3583    3.9897   24.7311 O   0  0  0  0  0  0  0  0  0  0  0  0
   23.9106   10.2523   30.9901 C   0  0  0  0  0  0  0  0  0  0  0  0
   25.8267    5.5946   27.3394 C   0  0  0  0  0  0  0  0  0  0  0  0
   23.6588    3.5194   25.3356 N   0  0  0  0  0  0  0  0  0  0  0  0
   24.9888    5.1104   26.7879 C   0  0  0  0  0  3  0  0  0  0  0  0
   24.0000    4.7021   26.0203 C   0  0  0  0  0  0  0  0  0  0  0  0
  2  1  2  0
  5  4  1  0
  9  4  1  0
  9  6  1  0
  9  8  1  0
 10  2  1  0
 10  3  2  0
 11  4  1  0
 11  5  1  0
 11  7  1  0
 11 10  1  0
 13  1  1  0
 13  3  1  0
 14  4  1  0
 14  8  1  0
 14  9  1  0
 15 12  1  0
 16 14  1  0
 17  5  1  0
 17 15  1  0
 17 16  2  0
M  RAD  1  16   2
M  END
>  <ID>  (1) 
conformer_0

$$$$
