
     RDKit          3D

 15 15  0  0  0  0  0  0  0  0999 V2000
   23.9362   10.4918   31.0394 C   0  0  0  0  0  0  0  0  0  0  0  0
   23.9977    8.8544   29.5248 C   0  0  0  0  0  0  0  0  0  0  0  0
   24.6658    7.3725   28.2631 C   0  0  0  0  0  0  0  0  0  0  0  0
   23.5035    5.6561   26.8131 C   0  0  0  0  0  0  0  0  0  0  0  0
   24.9015    9.4323   30.4885 C   0  0  0  0  0  0  0  0  0  0  0  0
   22.8141   10.1514   30.0574 C   0  0  0  0  0  0  0  0  0  0  0  0
   22.0580    7.3275   27.3848 O   0  0  0  0  0  0  0  0  0  0  0  0
   22.5883    4.0924   24.3139 O   0  0  0  0  0  0  0  0  0  0  0  0
   24.3376    7.7188   28.4011 C   0  0  0  0  0  0  0  0  0  0  0  0
   25.2990    5.0979   26.6428 C   0  0  1  0  0  0  0  0  0  0  0  0
   26.7419    7.4380   29.3039 O   0  0  0  0  0  0  0  0  0  0  0  0
   26.6303    4.4301   26.0895 F   0  0  0  0  0  0  0  0  0  0  0  0
   25.1886    5.8402   27.0717 C   0  0  2  0  0  0  0  0  0  0  0  0
   22.6469    2.9194   26.2982 O   0  0  0  0  0  0  0  0  0  0  0  0
   24.8079    2.9956   24.6693 O   0  0  0  0  0  0  0  0  0  0  0  0
  5  1  2  0
  5  2  1  0
  6  1  1  0
  6  2  2  0
  8  4  1  0
  9  2  1  0
  9  3  2  3
  9  7  1  0
 11  3  1  0
 12 10  1  0
 13  3  1  0
 13  4  1  6
 13 10  1  0
 14  4  1  0
 10 15  1  6
M  END
>  <ID>  (1) 
conformer_0

$$$$
