
     RDKit          3D

 18 18  0  0  0  0  0  0  0  0999 V2000
   23.3963    8.9371   29.1904 C   0  0  0  0  0  0  0  0  0  0  0  0
   24.9074    9.7320   30.8363 C   0  0  0  0  0  0  0  0  0  0  0  0
   24.4865    7.0823   27.8755 C   0  0  0  0  0  0  0  0  0  0  0  0
   23.5224    5.6104   26.5238 C   0  0  0  0  0  0  0  0  0  0  0  0
   23.7763   10.4947   30.9551 C   0  0  0  0  0  0  0  0  0  0  0  0
   22.7878   10.1019   29.8958 C   0  0  0  0  0  0  0  0  0  0  0  0
   22.1401    7.9860   27.2886 O   0  0  0  0  0  0  0  0  0  0  0  0
   22.2800    4.1372   24.6087 O   0  0  0  0  0  0  0  0  0  0  0  0
   22.8627    7.9659   27.7572 C   0  0  0  0  0  0  0  0  0  0  0  0
   26.7154    7.2098   29.0936 O   0  0  0  0  0  0  0  0  0  0  0  0
   22.9544    3.5455   25.5349 S   0  0  0  0  0  4  0  0  0  0  0  0
   25.4542    5.7901   26.8674 C   0  0  0  0  0  0  0  0  0  0  0  0
   25.4752    5.4999   26.8307 C   0  0  0  0  0  0  0  0  0  0  0  0
   24.0371    2.6381   24.9115 O   0  0  0  0  0  0  0  0  0  0  0  0
   27.4252    6.0312   27.4655 N   0  0  0  0  0  0  0  0  0  0  0  0
   22.2328    2.8965   26.4029 O   0  0  0  0  0  0  0  0  0  0  0  0
   24.7701    8.5814   29.5886 C   0  0  0  0  0  0  0  0  0  0  0  0
   25.7268    7.0926   28.3842 C   0  0  0  0  0  0  0  0  0  0  0  0
  5  2  2  0
  6  1  2  0
  6  5  1  0
  9  1  1  0
  9  3  1  0
  9  7  2  0
 11  4  1  0
 11  8  1  0
 12  3  1  0
 12  4  1  0
 13 12  1  0
 14 11  1  0
 15 13  1  0
 16 11  1  0
 17  1  1  0
 17  2  1  0
 18  3  2  0
 18 10  2  0
M  END
>  <ID>  (1) 
conformer_0

$$$$
