
     RDKit          3D

 21 21  0  0  0  0  0  0  0  0999 V2000
   22.9172   10.5716   30.1704 C   0  0  0  0  0  0  0  0  0  0  0  0
   24.8352    9.5933   30.9929 C   0  0  0  0  0  0  0  0  0  0  0  0
   24.7609    8.5434   29.8913 C   0  0  0  0  0  0  0  0  0  0  0  0
   23.9687   10.6146   31.0724 C   0  0  0  0  0  0  0  0  0  0  0  0
   24.2704    5.3636   26.7359 C   0  0  0  0  0  0  0  0  0  0  0  0
   24.2045    6.5145   27.9231 C   0  0  0  0  0  0  0  0  0  0  0  0
   21.8854    7.6899   27.6094 O   0  0  0  0  0  0  0  0  0  0  0  0
   23.0762    7.5909   27.9950 C   0  0  0  0  0  0  0  0  0  0  0  0
   26.9616    7.6464   29.4939 O   0  0  0  0  0  0  0  0  0  0  0  0
   23.0029    3.5978   25.2621 S   0  0  0  0  0  4  0  0  0  0  0  0
   25.7159    4.7794   26.2906 C   0  0  0  0  0  0  0  0  0  0  0  0
   27.5060    5.8835   28.1609 N   0  0  0  0  0  0  0  0  0  0  0  0
   26.3926    6.0087   27.7779 C   0  0  0  0  0  0  0  0  0  0  0  0
   21.8278    3.4996   26.0730 O   0  0  0  0  0  0  0  0  0  0  0  0
   22.6706    5.9044   26.5332 N   0  0  0  0  0  0  0  0  0  0  0  0
   24.5061    2.7759   24.8329 O   0  0  0  0  0  0  0  0  0  0  0  0
   23.7963    4.3264   25.6140 O   0  0  0  0  0  0  0  0  0  0  0  0
   23.6976    8.4927   29.2290 C   0  0  0  0  0  0  0  0  0  0  0  0
   22.6616    9.5355   29.3337 C   0  0  0  0  0  0  0  0  0  0  0  0
   25.6303    6.3867   27.4680 C   0  0  0  0  0  0  0  0  0  0  0  0
   22.4163    3.5621   24.1474 O   0  0  0  0  0  0  0  0  0  0  0  0
  3  2  2  0
  4  1  2  0
  4  2  1  0
  6  5  1  0
  8  6  1  0
  8  7  2  0
  9  3  1  0
 11  5  1  0
 13 12  1  0
 14 10  1  0
 15  5  1  0
 16 10  1  0
 17  5  1  0
 17 10  1  0
 18  3  1  0
 18  8  1  0
 19  1  1  0
 19 18  2  0
 20  6  1  0
 20 13  1  0
 21 10  1  0
M  END
>  <ID>  (1) 
conformer_0

$$$$
