
     RDKit          3D

 20 21  0  0  0  0  0  0  0  0999 V2000
   24.9134    9.0085   30.0823 C   0  0  0  0  0  0  0  0  0  0  0  0
   24.8927    9.8316   30.9536 C   0  0  0  0  0  0  0  0  0  0  0  0
   23.6995    4.8112   26.2770 C   0  0  0  0  0  0  0  0  0  0  0  0
   24.8737    6.6886   27.3636 C   0  0  0  0  0  0  0  0  0  0  0  0
   23.7144   10.6720   31.1056 C   0  0  0  0  0  0  0  0  0  0  0  0
   22.8578   10.3664   29.9397 C   0  0  0  0  0  0  0  0  0  0  0  0
   22.0734    7.7516   27.1848 O   0  0  0  0  0  0  0  0  0  0  0  0
   23.3955    3.3200   25.3095 S   0  0  0  0  0  4  0  0  0  0  0  0
   26.7564    7.2837   29.4005 O   0  0  0  0  0  0  0  0  0  0  0  0
   25.9299    7.1639   28.8790 C   0  0  0  0  0  0  0  0  0  0  0  0
   23.8951    2.4446   25.1725 O   0  0  0  0  0  0  0  0  0  0  0  0
   25.2774    4.8942   26.9757 C   0  0  0  0  0  0  0  0  0  0  0  0
   27.2132    5.7818   27.9273 N   0  0  0  0  0  0  0  0  0  0  0  0
   23.0829    7.9436   28.0166 C   0  0  0  0  0  0  0  0  0  0  0  0
   23.2760    6.5522   26.7654 C   0  0  0  0  0  0  0  0  0  0  0  0
   24.1068    8.2686   28.9110 C   0  0  0  0  0  0  0  0  0  0  0  0
   22.5340    6.0735   26.0309 N   0  0  0  0  0  0  0  0  0  0  0  0
   22.4355    3.8780   24.6843 O   0  0  0  0  0  0  0  0  0  0  0  0
   25.4127    5.6825   27.3505 C   0  0  0  0  0  0  0  0  0  0  0  0
   22.9165    9.3983   29.2793 C   0  0  0  0  0  0  0  0  0  0  0  0
  2  1  2  0
  5  2  1  0
  6  5  2  0
  8  3  1  0
 10  4  2  0
 10  9  2  0
 11  8  1  0
 12  3  1  0
 14  7  1  0
 15  4  1  0
 15  7  1  0
 16  1  1  0
 16 14  1  0
 17  3  1  0
 17 15  1  0
 18  8  1  0
 19  4  1  0
 19 12  2  0
 19 13  1  0
 20  6  1  0
 20 16  2  0
M  END
>  <ID>  (1) 
conformer_0

$$$$
