
     RDKit          3D

 16 17  0  0  0  0  0  0  0  0999 V2000
   22.9082    9.4704   29.3749 C   0  0  0  0  0  0  0  0  0  0  0  0
   24.2606   10.2825   31.1149 C   0  0  0  0  0  0  0  0  0  0  0  0
   24.8993    4.8568   26.3485 C   0  0  0  0  0  0  0  0  0  0  0  0
   23.0218   10.4803   30.3745 C   0  0  0  0  0  0  0  0  0  0  0  0
   23.6570    5.4888   26.7749 C   0  0  0  0  0  0  0  0  0  0  0  0
   27.1005    5.7590   27.3557 N   0  0  0  0  0  0  0  0  0  0  0  0
   24.2116    8.5479   29.2900 C   0  0  0  0  0  0  0  0  0  0  0  0
   24.7118    6.5790   27.8361 C   0  0  1  0  0  0  0  0  0  0  0  0
   22.1957    7.6667   27.5843 O   0  0  0  0  0  0  0  0  0  0  0  0
   25.9727    5.7271   27.2992 C   0  0  1  0  0  0  0  0  0  0  0  0
   23.5404    7.6911   28.1312 C   0  0  0  0  0  0  0  0  0  0  0  0
   26.7913    7.1924   29.3172 O   0  0  0  0  0  0  0  0  0  0  0  0
   23.0255    3.5279   25.2285 S   0  0  0  0  0  0  0  0  0  0  0  0
   23.5484    3.0361   24.6702 O   0  0  0  0  0  0  0  0  0  0  0  0
   24.9873    9.2396   30.3969 C   0  0  0  0  0  0  0  0  0  0  0  0
   21.8625    3.4198   25.8883 O   0  0  0  0  0  0  0  0  0  0  0  0
  4  1  2  0
  4  2  1  0
  5  3  2  0
  7  1  1  0
  8  5  1  0
 10  3  1  0
 10  6  1  6
 10  8  1  0
 11  7  2  3
  8 11  1  6
 11  9  1  0
 12  6  1  0
 13  3  1  0
 14 13  1  0
 15  2  2  0
 15  7  1  0
 16 13  1  0
M  END
>  <ID>  (1) 
conformer_0

$$$$
