
     RDKit          3D

 18 18  0  0  0  0  0  0  0  0999 V2000
   24.0806    8.5436   29.2479 C   0  0  1  0  0  0  0  0  0  0  0  0
   23.1860   10.4711   30.5530 C   0  0  0  0  0  0  0  0  0  0  0  0
   24.8342    6.7533   27.7470 C   0  0  0  0  0  0  0  0  0  0  0  0
   22.8856    9.6239   29.4751 C   0  0  0  0  0  3  0  0  0  0  0  0
   23.7955    5.3622   26.5637 C   0  0  0  0  0  0  0  0  0  0  0  0
   27.1414    7.0092   28.9387 O   0  0  0  0  0  0  0  0  0  0  0  0
   25.0387    9.1160   30.3818 C   0  0  0  0  0  0  0  0  0  0  0  0
   21.8539    7.8035   27.5030 O   0  0  0  0  0  0  0  0  0  0  0  0
   27.5572    5.0463   27.4284 N   0  0  0  0  0  0  0  0  0  0  0  0
   22.8430    7.7529   27.8055 C   0  0  0  0  0  0  0  0  0  0  0  0
   26.1302    5.2454   27.0268 C   0  0  0  0  0  0  0  0  0  0  0  0
   22.4437    5.6918   26.3269 N   0  0  0  0  0  0  0  0  0  0  0  0
   25.1172    5.1825   26.6236 C   0  0  0  0  0  0  0  0  0  0  0  0
   22.3551    3.1385   25.1770 N   0  0  0  0  0  0  0  0  0  0  0  0
   24.4365   10.1576   31.2205 C   0  0  0  0  0  0  0  0  0  0  0  0
   23.3780    3.2076   24.6011 O   0  0  0  0  0  0  0  0  0  0  0  0
   25.5338    7.2835   28.5125 C   0  0  2  0  0  0  0  0  0  0  0  0
   22.4432    3.9897   25.6732 C   0  0  0  0  0  0  0  0  0  0  0  0
  4  1  1  0
  4  2  1  0
  7  1  1  0
  1 10  1  1
 10  8  2  0
 11  9  1  0
 12  5  1  0
 13  3  2  3
 13  5  1  0
 13 11  1  0
 15  2  2  0
 15  7  1  0
 16 14  1  0
 17  1  1  0
 17  3  1  0
 17  6  1  1
 18 12  1  0
 18 14  1  0
M  RAD  1   4   2
M  END
>  <ID>  (1) 
conformer_0

$$$$
