
     RDKit          3D

 18 18  0  0  0  0  0  0  0  0999 V2000
   23.9019    8.6135   29.3366 C   0  0  0  0  0  0  0  0  0  0  0  0
   24.6795    9.9764   31.2175 C   0  0  0  0  0  0  0  0  0  0  0  0
   24.7198    7.0487   27.6403 C   0  0  0  0  0  0  0  0  0  0  0  0
   23.5486    5.4658   26.4942 C   0  0  0  0  0  0  0  0  0  0  0  0
   22.9257    9.8355   29.6644 C   0  0  0  0  0  0  0  0  0  0  0  0
   22.1790    7.5485   27.4280 O   0  0  0  0  0  0  0  0  0  0  0  0
   26.8692    7.2905   29.4223 O   0  0  0  0  0  0  0  0  0  0  0  0
   25.0226    8.9069   30.1628 C   0  0  0  0  0  0  0  0  0  0  0  0
   25.6582    5.3298   27.2718 C   0  0  0  0  0  0  0  0  0  0  0  0
   23.0221    7.7311   27.9569 C   0  0  0  0  0  0  0  0  0  0  0  0
   22.6015    3.8560   24.3909 O   0  0  0  0  0  0  0  0  0  0  0  0
   26.9776    4.9981   27.7550 N   0  0  0  0  0  0  0  0  0  0  0  0
   24.8181    5.6030   26.6759 C   0  0  0  0  0  0  0  0  0  0  0  0
   25.5591    7.5028   28.8177 C   0  0  0  0  0  0  0  0  0  0  0  0
   23.3939    3.6163   25.1149 S   0  0  0  0  0  4  0  0  0  0  0  0
   22.7149    3.2874   26.8972 O   0  0  0  0  0  0  0  0  0  0  0  0
   23.5185   10.5575   30.8246 C   0  0  0  0  0  0  0  0  0  0  0  0
   24.5833    2.9945   24.9220 O   0  0  0  0  0  0  0  0  0  0  0  0
  5  1  2  0
  8  1  1  0
  8  2  1  0
 10  1  1  0
 10  3  1  0
 10  6  2  0
 12  9  1  0
 13  3  1  0
 13  4  1  0
 13  9  1  0
 14  3  1  0
 14  7  1  0
 15  4  1  0
 15 11  1  0
 16 15  1  0
 17  2  2  0
 17  5  1  0
 18 15  1  0
M  END
>  <ID>  (1) 
conformer_0

$$$$
