
     RDKit          3D

 17 17  0  0  0  0  0  0  0  0999 V2000
   23.0612    9.0607   29.5501 C   0  0  0  0  0  0  0  0  0  0  0  0
   25.1533    9.2715   30.3977 C   0  0  0  0  0  0  0  0  0  0  0  0
   24.3755    8.3004   29.4077 C   0  0  0  0  0  0  0  0  0  0  0  0
   24.0323    6.5927   27.4803 C   0  0  2  0  0  0  0  0  0  0  0  0
   23.8724    5.1501   26.3847 C   0  0  0  0  0  0  0  0  0  0  0  0
   25.9420    4.9894   26.3807 C   0  0  0  0  0  0  0  0  0  0  0  0
   23.1848    3.4835   25.1538 S   0  0  0  0  0  0  0  0  0  0  0  0
   21.8393    7.7129   27.4714 O   0  0  0  0  0  0  0  0  0  0  0  0
   22.6898    7.4135   27.7482 C   0  0  0  0  0  0  0  0  0  0  0  0
   27.0578    6.9485   29.0088 O   0  0  0  0  0  0  0  0  0  0  0  0
   24.4609   10.2629   31.1837 C   0  0  0  0  0  0  0  0  0  0  0  0
   21.9978    3.9906   25.2199 O   0  0  0  0  0  0  0  0  0  0  0  0
   26.0202    5.6162   27.2762 C   0  0  0  0  0  0  0  0  0  0  0  0
   25.4335    6.5449   27.4158 C   0  0  2  0  0  0  0  0  0  0  0  0
   23.1904   10.3101   30.5043 C   0  0  0  0  0  0  0  0  0  0  0  0
   25.4217    7.3822   28.7123 C   0  0  2  0  0  0  0  0  0  0  0  0
   23.6738    2.8969   24.7745 O   0  0  0  0  0  0  0  0  0  0  0  0
  3  1  2  0
  3  2  1  0
  4  5  1  6
  7  5  1  0
  9  4  1  0
  9  8  2  0
 11  2  2  0
 12  7  1  0
 13  6  2  3
 14  4  1  0
 14 13  1  1
 15  1  1  0
 15 11  1  0
 16  3  1  0
 16 10  1  6
 16 14  1  0
 17  7  1  0
M  END
>  <ID>  (1) 
conformer_0

$$$$
