
     RDKit          3D

 21 24  0  0  0  0  0  0  0  0999 V2000
   24.8193    9.4435   30.9138 C   0  0  0  0  0  0  0  0  0  0  0  0
   22.9656   10.4373   30.0319 C   0  0  0  0  0  0  0  0  0  0  0  0
   24.8107    8.7569   30.0218 C   0  0  0  0  0  0  0  0  0  0  0  0
   23.9146   10.6187   31.1271 C   0  0  0  0  0  0  0  0  0  0  0  0
   23.2841    5.8911   27.2583 C   0  0  0  0  0  0  0  0  0  0  0  0
   24.2966    5.3882   27.0651 C   0  0  0  0  0  0  0  0  0  0  0  0
   26.7900    7.1176   29.6981 O   0  0  0  0  0  0  0  0  0  0  0  0
   22.9344    7.9521   27.9048 C   0  0  0  0  0  0  0  0  0  0  0  0
   21.9663    7.6362   27.5410 O   0  0  0  0  0  0  0  0  0  0  0  0
   22.1927    2.9972   25.8288 O   0  0  0  0  0  0  0  0  0  0  0  0
   23.1217    3.5018   24.9814 S   0  0  0  0  0  4  0  0  0  0  0  0
   25.8668    4.3944   26.1942 C   0  0  0  0  0  0  0  0  0  0  0  0
   26.0988    7.0779   28.9652 C   0  0  0  0  0  0  0  0  0  0  0  0
   26.1570    5.6570   27.3238 C   0  0  0  0  0  0  0  0  0  0  0  0
   22.9968    9.5330   29.2963 C   0  0  0  0  0  3  0  0  0  0  0  0
   27.2603    6.2183   27.7063 N   0  0  0  0  0  0  0  0  0  0  0  0
   22.5145    4.2555   23.9976 O   0  0  0  0  0  0  0  0  0  0  0  0
   23.8434    8.0233   28.8673 C   0  0  0  0  0  0  0  0  0  0  0  0
   25.1785    6.6710   27.9084 C   0  0  0  0  0  0  0  0  0  0  0  0
   24.2787    3.0590   24.3744 O   0  0  0  0  0  0  0  0  0  0  0  0
   24.4336    4.6492   26.2068 C   0  0  0  0  0  0  0  0  0  0  0  0
  3  1  2  0
  4  1  1  0
  4  2  2  0
  6  5  1  0
  9  8  2  0
 11 10  1  0
 13  7  1  0
 14  6  1  0
 14 12  1  0
 15  2  1  0
 16 13  1  0
 16 14  1  0
 17 11  1  0
 18  3  1  0
 18  8  1  0
 18 15  1  0
 19  6  1  0
 19 13  1  0
 19 14  1  0
 19 18  1  0
 20 11  1  0
 21  6  1  0
 21 11  1  0
 21 12  2  0
M  RAD  1  15   2
M  END
>  <ID>  (1) 
conformer_0

$$$$
