
     RDKit          3D

 16 16  0  0  0  0  0  0  0  0999 V2000
   24.6638    8.6046   29.6444 C   0  0  0  0  0  0  0  0  0  0  0  0
   24.8898    4.7478   26.8739 C   0  0  0  0  0  0  0  0  0  0  0  0
   23.0511   10.4524   30.2599 C   0  0  0  0  0  0  0  0  0  0  0  0
   24.1304   10.5001   31.2709 C   0  0  0  0  0  0  0  0  0  0  0  0
   23.5117    5.4214   26.5627 C   0  0  0  0  0  0  0  0  0  0  0  0
   21.8836    7.6586   27.7028 O   0  0  0  0  0  0  0  0  0  0  0  0
   25.0480    9.4394   30.8218 C   0  0  0  0  0  0  0  0  0  0  0  0
   27.0961    6.9163   29.2100 O   0  0  0  0  0  0  0  0  0  0  0  0
   23.2640    7.8505   27.8866 C   0  0  2  0  0  0  0  0  0  0  0  0
   25.9185    5.4666   27.7075 C   0  0  1  0  0  0  0  0  0  0  0  0
   22.4726    5.3395   25.8335 N   0  0  0  0  0  0  0  0  0  0  0  0
   24.0055    6.9396   27.7282 C   0  0  0  0  0  0  0  0  0  0  0  0
   22.7899    3.4804   24.5013 O   0  0  0  0  0  0  0  0  0  0  0  0
   27.1954    5.1947   27.9875 N   0  0  0  0  0  0  0  0  0  0  0  0
   23.2086    9.3210   29.4078 C   0  0  0  0  0  0  0  0  0  0  0  0
   25.5478    6.4166   27.6654 C   0  0  1  0  0  0  0  0  0  0  0  0
  4  3  2  0
  5  2  2  3
  7  1  2  0
  7  4  1  0
  9  6  1  1
 10  2  1  0
 11  5  1  0
 12  9  1  0
 13 11  1  0
 10 14  1  6
 15  1  1  0
 15  3  1  0
 15  9  1  0
 16  8  1  1
 16 10  1  0
 16 12  1  0
M  END
>  <ID>  (1) 
conformer_0

$$$$
