
     RDKit          3D

 17 17  0  0  0  0  0  0  0  0999 V2000
   23.8922    8.3490   29.1374 C   0  0  0  0  0  0  0  0  0  0  0  0
   24.4137   10.1042   31.0320 C   0  0  0  0  0  0  0  0  0  0  0  0
   25.0640    6.8020   27.8815 C   0  0  0  0  0  0  0  0  0  0  0  0
   23.4622    5.5425   26.8790 C   0  0  0  0  0  0  0  0  0  0  0  0
   23.1339   10.4093   30.4981 C   0  0  0  0  0  0  0  0  0  0  0  0
   22.7345    9.5355   29.4849 C   0  0  0  0  0  3  0  0  0  0  0  0
   21.7452    7.7487   27.6537 O   0  0  0  0  0  0  0  0  0  0  0  0
   26.7365    7.2868   29.3222 O   0  0  0  0  0  1  0  0  0  0  0  0
   22.7294    7.7253   27.8765 C   0  0  0  0  0  0  0  0  0  0  0  0
   25.9289    7.1264   28.7302 C   0  0  0  0  0  0  0  0  0  0  0  0
   25.4850    5.2902   26.8037 C   0  0  0  0  0  0  0  0  0  0  0  0
   25.0765    4.8559   26.7446 C   0  0  0  0  0  0  0  0  0  0  0  0
   22.4524    3.3578   25.6394 O   0  0  0  0  0  0  0  0  0  0  0  0
   23.3370    3.5344   24.9551 S   0  0  0  0  0  4  0  0  0  0  0  0
   27.7268    5.7151   27.7743 N   0  0  0  0  0  0  0  0  0  0  0  0
   24.8614    9.0174   30.2063 C   0  0  0  0  0  0  0  0  0  0  0  0
   24.1064    3.0545   24.4945 O   0  0  0  0  0  0  0  0  0  0  0  0
  5  2  2  0
  6  1  1  0
  6  5  1  0
  9  1  1  0
  9  7  2  0
 10  1  1  0
 10  3  1  0
 10  8  1  0
 11  3  1  0
 12  4  1  0
 12 11  1  0
 14  4  1  0
 14 13  1  0
 15 10  1  0
 16  1  1  0
 16  2  1  0
 17 14  1  0
M  RAD  2   6   2   8   2
M  END
>  <ID>  (1) 
conformer_0

$$$$
