
     RDKit          3D

 16 16  0  0  0  0  0  0  0  0999 V2000
   24.8281    9.0650   30.2185 C   0  0  0  0  0  0  0  0  0  0  0  0
   24.4115   10.1923   30.9984 C   0  0  0  0  0  0  0  0  0  0  0  0
   23.2194    5.8176   26.6249 C   0  0  0  0  0  0  0  0  0  0  0  0
   24.2895    8.0369   28.8195 C   0  0  0  0  0  0  0  0  0  0  0  0
   22.9040    9.3859   29.5229 C   0  0  0  0  0  0  0  0  0  0  0  0
   23.1098   10.4313   30.4683 C   0  0  0  0  0  0  0  0  0  0  0  0
   27.2601    7.5129   29.6588 O   0  0  0  0  0  0  0  0  0  0  0  0
   27.0214    5.4846   28.0592 N   0  0  0  0  0  0  0  0  0  0  0  0
   26.4790    6.7577   28.6371 C   0  0  0  0  0  0  0  0  0  0  0  0
   22.1250    7.3988   27.2039 O   0  0  0  0  0  0  0  0  0  0  0  0
   22.3762    3.8155   24.9961 O   0  0  0  0  0  0  0  0  0  0  0  0
   23.0937    7.7388   27.7742 C   0  0  0  0  0  0  0  0  0  0  0  0
   24.9660    6.3112   27.1978 C   0  0  1  0  0  0  0  0  0  0  0  0
   24.6505    5.1119   26.5573 C   0  0  0  0  0  0  0  0  0  0  0  0
   22.4938    5.5367   25.7118 N   0  0  0  0  0  0  0  0  0  0  0  0
   22.5897    3.8746   25.1546 S   0  0  0  0  0  0  0  0  0  0  0  0
  2  1  1  0
  4  1  2  3
  6  2  2  3
  6  5  1  0
  9  7  2  0
  9  8  1  0
 10  3  1  0
 12  4  1  0
 12 10  1  0
 13  3  1  0
 13  9  1  1
 14  3  1  0
 14 13  1  0
 15  3  1  0
 16 11  1  0
 16 15  1  0
M  END
>  <ID>  (1) 
conformer_0

$$$$
