
     RDKit          3D

 20 22  0  0  0  0  0  0  0  0999 V2000
   23.8920   10.7247   31.1931 C   0  0  0  0  0  0  0  0  0  0  0  0
   22.9357   10.4988   30.1028 C   0  0  0  0  0  0  0  0  0  0  0  0
   23.7699    8.2797   28.9594 C   0  0  0  0  0  0  0  0  0  0  0  0
   22.8476    9.6084   29.2883 C   0  0  0  0  0  3  0  0  0  0  0  0
   23.5082    5.6668   26.8885 C   0  0  0  0  0  0  0  0  0  0  0  0
   26.1536    5.0020   26.5686 C   0  0  0  0  0  0  0  0  0  0  0  0
   22.0012    7.2840   27.5341 O   0  0  0  0  0  0  0  0  0  0  0  0
   22.7895    7.6135   27.8216 C   0  0  0  0  0  0  0  0  0  0  0  0
   26.4251    6.2161   27.7148 C   0  0  0  0  0  0  0  0  0  0  0  0
   23.1126    3.5939   25.2331 S   0  0  0  0  0  4  0  0  0  0  0  0
   24.4139    5.9233   27.0408 C   0  0  0  0  0  0  0  0  0  0  0  0
   23.6175    3.2531   24.5849 O   0  0  0  0  0  0  0  0  0  0  0  0
   27.3632    6.2893   27.9910 N   0  0  0  0  0  0  0  0  0  0  0  0
   26.7506    7.7188   29.3555 O   0  0  0  0  0  0  0  0  0  0  0  0
   24.7259    8.8793   29.9616 C   0  0  0  0  0  0  0  0  0  0  0  0
   25.1498    7.6720   28.8251 C   0  0  0  0  0  0  0  0  0  0  0  0
   25.0712    4.5317   26.3641 C   0  0  0  0  0  0  0  0  0  0  0  0
   25.2578    6.9678   27.7494 C   0  0  0  0  0  0  0  0  0  0  0  0
   21.8985    3.7978   25.2008 O   0  0  0  0  0  0  0  0  0  0  0  0
   24.6283    9.4944   31.1076 C   0  0  0  0  0  0  0  0  0  0  0  0
  2  1  2  0
  4  2  1  0
  4  3  1  0
  8  3  1  0
  8  7  2  0
  9  6  2  0
 11  5  1  0
 12 10  1  0
 13  9  1  0
 15  3  1  0
 16  3  1  0
 16 14  1  0
 16 15  1  0
 17  6  1  0
 17 10  1  0
 17 11  1  0
 18  9  1  0
 18 11  2  0
 18 16  1  0
 19 10  1  0
 20  1  1  0
 20 15  2  0
M  RAD  1   4   2
M  END
>  <ID>  (1) 
conformer_0

$$$$
