
     RDKit          3D

 16 16  0  0  0  0  0  0  0  0999 V2000
   24.1141    8.4008   29.2241 C   0  0  0  0  0  0  0  0  0  0  0  0
   24.5700   10.1943   31.0732 C   0  0  0  0  0  0  0  0  0  0  0  0
   23.3304    5.4025   26.3078 C   0  0  0  0  0  0  0  0  0  0  0  0
   24.7774    6.7797   27.5535 C   0  0  0  0  0  0  0  0  0  0  0  0
   25.1421    9.1543   30.2863 C   0  0  0  0  0  0  0  0  0  0  0  0
   23.2094   10.3886   30.5905 C   0  0  0  0  0  0  0  0  0  0  0  0
   21.8507    7.7384   27.8248 O   0  0  0  0  0  0  0  0  0  0  0  0
   27.4740    5.9214   28.1102 N   0  0  0  0  0  0  0  0  0  0  0  0
   22.8835    7.8587   28.1201 C   0  0  0  0  0  0  0  0  0  0  0  0
   25.1637    5.0621   26.4391 C   0  0  0  0  0  0  0  0  0  0  0  0
   26.9486    7.2175   29.1889 O   0  0  0  0  0  0  0  0  0  0  0  0
   25.2616    5.7477   27.0750 C   0  0  0  0  0  0  0  0  0  0  0  0
   22.6405    2.8853   25.5366 O   0  0  0  0  0  0  0  0  0  0  0  0
   22.4230    5.4794   26.0233 N   0  0  0  0  0  0  0  0  0  0  0  0
   22.8681    9.5014   29.6037 C   0  0  0  0  0  0  0  0  0  0  0  0
   26.0373    7.0647   28.6559 C   0  0  0  0  0  0  0  0  0  0  0  0
  5  1  2  0
  5  2  1  0
  6  2  2  0
  9  1  1  0
  9  4  1  0
  9  7  2  0
 10  3  1  0
 11  8  1  0
 12  4  1  0
 12 10  1  0
 14  3  1  0
 14 13  1  0
 15  1  1  0
 15  6  1  0
 16  4  1  0
 16 11  1  0
M  END
>  <ID>  (1) 
conformer_0

$$$$
