
     RDKit          3D

 18 18  0  0  0  0  0  0  0  0999 V2000
   23.8550   10.4791   31.0704 C   0  0  0  0  0  0  0  0  0  0  0  0
   22.8825   10.0054   29.9990 C   0  0  0  0  0  0  0  0  0  0  0  0
   23.3029    5.3004   26.5545 C   0  0  2  0  0  0  0  0  0  0  0  0
   25.0301    8.8039   29.9002 C   0  0  0  0  0  0  0  0  0  0  0  0
   24.9983    4.9917   27.0150 C   0  0  0  0  0  0  0  0  0  0  0  0
   27.0985    6.3584   28.0422 N   0  0  0  0  0  0  0  0  0  0  0  0
   25.2112    9.6884   30.8612 C   0  0  0  0  0  0  0  0  0  0  0  0
   26.7191    7.0736   29.9016 O   0  0  0  0  0  0  0  0  0  0  0  0
   22.0574    7.7037   27.4179 O   0  0  0  0  0  0  0  0  0  0  0  0
   26.0959    7.1715   28.9613 C   0  0  0  0  0  0  0  0  0  0  0  0
   23.1340    7.9182   27.8453 C   0  0  0  0  0  0  0  0  0  0  0  0
   24.2529    2.7855   24.5661 O   0  0  0  0  0  0  0  0  0  0  0  0
   24.5349    5.8229   27.3441 C   0  0  0  0  0  0  0  0  0  0  0  0
   23.4294    3.1951   24.9422 S   0  0  0  0  0  0  0  0  0  0  0  0
   23.4710    8.9794   29.3397 C   0  0  0  0  0  0  0  0  0  0  0  0
   24.5564    7.0771   28.2091 C   0  0  1  0  0  0  0  0  0  0  0  0
   22.3332    3.9147   25.0425 O   0  0  0  0  0  0  0  0  0  0  0  0
   22.4989    5.7306   26.0846 N   0  0  0  0  0  0  0  0  0  0  0  0
  2  1  2  0
  7  1  1  0
  7  4  1  0
 10  6  1  0
 10  8  2  0
 11  9  2  0
 13  3  1  0
 13  5  2  3
 14  3  1  0
 14 12  1  0
 15  2  1  0
 15  4  2  0
 15 11  1  0
 16 10  1  6
 16 11  1  0
 16 13  1  0
 17 14  1  0
  3 18  1  6
M  END
>  <ID>  (1) 
conformer_0

$$$$
