
     RDKit          3D

 18 20  0  0  0  0  0  0  0  0999 V2000
   22.9884    9.2340   29.1572 C   0  0  0  0  0  0  0  0  0  0  0  0
   23.4814   10.7974   30.7723 C   0  0  0  0  0  0  0  0  0  0  0  0
   24.1055    8.0308   29.0532 C   0  0  0  0  0  0  0  0  0  0  0  0
   22.7386   10.2970   29.5857 C   0  0  0  0  0  0  0  0  0  0  0  0
   23.5838    5.4900   26.5334 C   0  0  0  0  0  0  0  0  0  0  0  0
   21.8870    7.7615   27.5659 O   0  0  0  0  0  0  0  0  0  0  0  0
   23.2212    3.5538   24.9712 S   0  0  0  0  0  4  0  0  0  0  0  0
   22.9818    7.8182   27.9292 C   0  0  0  0  0  0  0  0  0  0  0  0
   26.0024    5.7752   27.6392 C   0  0  0  0  0  0  0  0  0  0  0  0
   26.8316    7.5380   29.4304 O   0  0  0  0  0  0  0  0  0  0  0  0
   24.7277    8.8436   30.3271 C   0  0  0  0  0  0  0  0  0  0  0  0
   27.1938    5.6215   28.0144 N   0  0  0  0  0  0  0  0  0  0  0  0
   22.0738    3.8935   25.1363 O   0  0  0  0  0  0  0  0  0  0  0  0
   23.7897    6.2193   27.2893 C   0  0  0  0  0  0  0  0  0  0  0  0
   25.2377    4.9786   26.3249 C   0  0  0  0  0  0  0  0  0  0  0  0
   23.8878    2.7639   24.6608 O   0  0  0  0  0  0  0  0  0  0  0  0
   25.4435    6.5667   27.2949 C   0  0  0  0  0  0  0  0  0  0  0  0
   24.4923    9.9167   31.0715 C   0  0  0  0  0  0  0  0  0  0  0  0
  3  1  2  0
  4  1  1  0
  4  2  2  0
  7  5  1  0
  8  1  1  0
  8  3  1  0
  8  6  1  0
 11  3  1  0
 11 10  1  0
 12  9  1  0
 13  7  1  0
 14  5  2  0
 14  8  1  0
 15  5  1  0
 15  9  1  0
 16  7  1  0
 17  9  2  0
 17 14  1  0
 18  2  1  0
 18 11  2  0
M  END
>  <ID>  (1) 
conformer_0

$$$$
