
     RDKit          3D

 18 18  0  0  0  0  0  0  0  0999 V2000
   23.8948    8.2113   29.1605 C   0  0  0  0  0  0  0  0  0  0  0  0
   23.1218   10.3885   30.2934 C   0  0  0  0  0  0  0  0  0  0  0  0
   25.3371    5.2223   26.8918 C   0  0  0  0  0  0  0  0  0  0  0  0
   22.7657    9.4568   29.3370 C   0  0  0  0  0  0  0  0  0  0  0  0
   23.8306    5.2759   26.6085 C   0  0  2  0  0  0  0  0  0  0  0  0
   21.5617    7.6831   28.0794 O   0  0  0  0  0  0  0  0  0  0  0  0
   27.3112    7.5713   29.8088 O   0  0  0  0  0  0  0  0  0  0  0  0
   24.3648   10.0275   30.9353 C   0  0  0  0  0  0  0  0  0  0  0  0
   22.7402    7.6618   28.0451 C   0  0  0  0  0  0  0  0  0  0  0  0
   23.3900    3.3549   24.6138 S   0  0  0  0  0  0  0  0  0  0  0  0
   22.5550    5.9506   26.3212 N   0  0  0  0  0  0  0  0  0  0  0  0
   26.0554    5.5815   27.6295 C   0  0  0  0  0  0  0  0  0  0  0  0
   24.1562    2.6167   24.2559 O   0  0  0  0  0  0  0  0  0  0  0  0
   25.0135    6.6541   27.6845 C   0  0  0  0  0  0  0  0  0  0  0  0
   27.4789    6.1506   28.3447 N   0  0  0  0  0  0  0  0  0  0  0  0
   24.8512    8.8643   30.1546 C   0  0  0  0  0  0  0  0  0  0  0  0
   26.3492    7.3443   29.0912 C   0  0  0  0  0  0  0  0  0  0  0  0
   22.2753    3.7563   24.9760 O   0  0  0  0  0  0  0  0  0  0  0  0
  4  1  2  0
  4  2  1  0
  5  3  1  6
  8  2  2  0
  9  1  1  0
  9  6  2  0
 10  5  1  0
 11  5  1  0
 11  9  1  0
 12  3  1  0
 13 10  1  0
 14 12  1  0
 15 12  2  3
 16  1  1  0
 16  8  1  0
 17  7  1  0
 17 15  1  0
 18 10  1  0
M  END
>  <ID>  (1) 
conformer_0

$$$$
