
     RDKit          3D

 17 18  0  0  0  0  0  0  0  0999 V2000
   24.3489   10.5634   31.0243 C   0  0  0  0  0  0  0  0  0  0  0  0
   24.5646    8.6159   29.4702 C   0  0  0  0  0  0  0  0  0  0  0  0
   24.2235    7.0481   28.2540 C   0  0  1  0  0  0  0  0  0  0  0  0
   23.2137    5.5754   26.7811 C   0  0  0  0  0  0  0  0  0  0  0  0
   23.0707   10.4640   30.2941 C   0  0  0  0  0  0  0  0  0  0  0  0
   23.0927    9.3793   29.4636 C   0  0  0  0  0  0  0  0  0  0  0  0
   22.7882    8.0041   28.1064 C   0  0  0  0  0  0  0  0  0  0  0  0
   26.6358    7.1187   29.2692 O   0  0  0  0  0  0  0  0  0  0  0  0
   23.2502    3.6227   25.1315 S   0  0  0  0  0  0  0  0  0  0  0  0
   22.2150    8.0438   27.3415 O   0  0  0  0  0  0  0  0  0  0  0  0
   21.9942    3.7269   25.1333 O   0  0  0  0  0  0  0  0  0  0  0  0
   25.0633    5.7129   27.2594 C   0  0  0  0  0  0  0  0  0  0  0  0
   24.2034    3.0948   24.5604 O   0  0  0  0  0  0  0  0  0  0  0  0
   25.1238    5.4558   27.1665 C   0  0  0  0  0  0  0  0  0  0  0  0
   25.5840    7.3613   28.7358 C   0  0  0  0  0  0  0  0  0  0  0  0
   24.0470    3.7476   26.1213 O   0  0  0  0  0  0  0  0  0  0  0  0
   25.2367    9.5459   30.5608 C   0  0  0  0  0  0  0  0  0  0  0  0
  5  1  2  0
  6  2  2  0
  6  5  1  0
  7  3  1  0
  7  6  1  0
 10  7  2  0
 11  9  1  0
  3 12  1  6
 12  4  1  0
 13  9  1  0
 14 12  2  3
 15  2  1  0
 15  3  1  0
 15  8  2  0
 16  4  1  0
 16  9  1  0
 17  1  1  0
 17  2  1  0
M  END
>  <ID>  (1) 
conformer_0

$$$$
