
     RDKit          3D

 20 21  0  0  0  0  0  0  0  0999 V2000
   24.6404    8.9378   29.9362 C   0  0  0  0  0  0  0  0  0  0  0  0
   25.1640    9.6187   30.7855 C   0  0  0  0  0  0  0  0  0  0  0  0
   23.4924    8.7288   29.1860 C   0  0  0  0  0  0  0  0  0  0  0  0
   24.1068   10.4720   31.4028 C   0  0  0  0  0  0  0  0  0  0  0  0
   23.0220   10.6388   30.5770 C   0  0  0  0  0  0  0  0  0  0  0  0
   23.8976    5.6228   26.8617 C   0  0  0  0  0  0  0  0  0  0  0  0
   23.0253    7.7502   27.8645 C   0  0  0  0  0  0  0  0  0  0  0  0
   22.2379    3.5036   24.7605 O   0  0  0  0  0  0  0  0  0  0  0  0
   21.9309    7.7413   27.4858 O   0  0  0  0  0  0  0  0  0  0  0  0
   26.9953    7.1039   29.1596 O   0  0  0  0  0  0  0  0  0  0  0  0
   23.3645    3.7572   25.2229 P   0  0  0  0  0  0  0  0  0  0  0  0
   26.2799    6.0624   27.7903 C   0  0  0  0  0  0  0  0  0  0  0  0
   24.0623    3.3225   26.1564 O   0  0  0  0  0  0  0  0  0  0  0  0
   24.2654    6.2795   27.4849 C   0  0  0  0  0  3  0  0  0  0  0  0
   22.5527    5.8970   26.1680 N   0  0  0  0  0  0  0  0  0  0  0  0
   24.2569    3.2740   24.2286 O   0  0  0  0  0  0  0  0  0  0  0  0
   22.5669    9.8378   29.5941 C   0  0  0  0  0  0  0  0  0  0  0  0
   27.5342    6.0378   27.7823 N   0  0  0  0  0  0  0  0  0  0  0  0
   25.6537    5.0798   26.9916 C   0  0  0  0  0  0  0  0  0  0  0  0
   25.1080    7.3888   28.2147 C   0  0  0  0  0  3  0  0  0  0  0  0
  2  1  2  0
  3  1  1  0
  4  2  1  0
  5  4  2  0
  7  3  1  0
  9  7  2  0
 11  8  1  0
 12 10  1  0
 13  6  1  0
 13 11  1  0
 14  6  1  0
 14  7  1  0
 15  6  1  0
 16 11  1  0
 17  3  2  0
 17  5  1  0
 18 12  1  0
 19  6  1  0
 19 12  1  0
 20 12  1  0
 20 14  1  0
M  RAD  2  14   2  20   2
M  END
>  <ID>  (1) 
conformer_0

$$$$
