
     RDKit          3D

 16 16  0  0  0  0  0  0  0  0999 V2000
   24.9208    8.9693   30.1668 C   0  0  0  0  0  0  0  0  0  0  0  0
   23.7451    8.8021   29.2556 C   0  0  0  0  0  0  0  0  0  0  0  0
   25.0145    6.9961   28.1013 C   0  0  0  0  0  0  0  0  0  0  0  0
   24.6443    9.9810   31.1885 C   0  0  0  0  0  0  0  0  0  0  0  0
   23.8344    5.5013   26.6298 C   0  0  0  0  0  0  0  0  0  0  0  0
   22.8341    9.9287   29.5869 C   0  0  0  0  0  0  0  0  0  0  0  0
   26.1323    5.7441   27.5065 C   0  0  0  0  0  0  0  0  0  0  0  0
   26.0250    4.9167   26.7422 C   0  0  0  0  0  0  0  0  0  0  0  0
   22.7829    7.8326   27.6690 C   0  0  0  0  0  0  0  0  0  0  0  0
   21.8151    7.7077   27.1614 O   0  0  0  0  0  0  0  0  0  0  0  0
   22.3305    4.3724   24.5643 O   0  0  0  0  0  0  0  0  0  0  0  0
   23.1236    3.4086   25.2096 S   0  0  0  0  0  0  0  0  0  0  0  0
   23.4610   10.6366   30.8195 C   0  0  0  0  0  0  0  0  0  0  0  0
   22.8062    2.3697   25.4527 O   0  0  0  0  0  0  0  0  0  0  0  0
   25.3862    7.5505   28.9777 C   0  0  0  0  0  0  0  0  0  0  0  0
   24.2104    5.5452   26.8062 C   0  0  0  0  0  0  0  0  0  0  0  0
  2  1  2  0
  4  1  1  0
  6  2  1  0
  7  3  1  0
  8  7  1  0
  9  2  1  0
 10  9  2  0
 12  5  1  0
 12 11  1  0
 13  4  1  0
 13  6  2  0
 14 12  1  0
 15  1  1  0
 15  3  2  3
 16  5  1  0
 16  8  2  3
M  END
>  <ID>  (1) 
conformer_0

$$$$
