
     RDKit          3D

 20 21  0  0  0  0  0  0  0  0999 V2000
   23.1209   10.6393   30.6506 C   0  0  0  0  0  0  0  0  0  0  0  0
   23.5335    8.7554   29.3289 C   0  0  0  0  0  0  0  0  0  0  0  0
   24.0927    6.8130   27.7149 C   0  0  0  0  0  0  0  0  0  0  0  0
   22.6337    9.8007   29.5591 C   0  0  0  0  0  0  0  0  0  0  0  0
   23.6129    5.7363   26.6422 C   0  0  0  0  0  0  0  0  0  0  0  0
   23.0379    3.6517   25.0967 S   0  0  0  0  0  4  0  0  0  0  0  0
   26.7863    7.1804   29.6337 O   0  0  0  0  0  0  0  0  0  0  0  0
   22.0788    7.5892   27.4733 O   0  0  0  0  0  0  0  0  0  0  0  0
   24.3127   10.4572   31.2126 C   0  0  0  0  0  0  0  0  0  0  0  0
   25.3179    4.9574   26.5328 C   0  0  0  0  0  0  0  0  0  0  0  0
   21.9028    3.1756   25.5948 O   0  0  0  0  0  0  0  0  0  0  0  0
   23.0932    7.7161   28.0141 C   0  0  0  0  0  0  0  0  0  0  0  0
   24.6200    2.9179   24.9961 O   0  0  0  0  0  0  0  0  0  0  0  0
   27.3267    5.4142   27.9656 N   0  0  0  0  0  0  0  0  0  0  0  0
   26.1484    6.9196   28.8156 C   0  0  0  0  0  0  0  0  0  0  0  0
   25.5456    5.3477   27.1293 C   0  0  0  0  0  0  0  0  0  0  0  0
   24.7733    8.7358   29.6590 C   0  0  0  0  0  0  0  0  0  0  0  0
   25.2672    9.6524   30.6378 C   0  0  0  0  0  0  0  0  0  0  0  0
   25.4629    6.6373   27.9123 C   0  0  0  0  0  0  0  0  0  0  0  0
   22.7688    4.0489   24.1265 O   0  0  0  0  0  0  0  0  0  0  0  0
  4  1  2  0
  4  2  1  0
  5  3  1  0
  6  5  1  0
  9  1  1  0
 10  5  2  0
 11  6  1  0
 12  2  1  0
 12  3  1  0
 12  8  2  0
 13  6  1  0
 15  7  2  0
 16 10  1  0
 16 14  1  0
 17  2  2  0
 18  9  2  0
 18 17  1  0
 19  3  1  0
 19 15  2  0
 19 16  1  0
 20  6  1  0
M  END
>  <ID>  (1) 
conformer_0

$$$$
