
     RDKit          3D

 20 24  0  0  0  0  0  0  0  0999 V2000
   24.8488    9.8175   30.8464 C   0  0  0  0  0  0  0  0  0  0  0  0
   23.7479   10.6269   31.1928 C   0  0  0  0  0  0  0  0  0  0  0  0
   22.8166   10.2408   29.9829 C   0  0  0  0  0  3  0  0  0  0  0  0
   24.8701    8.9582   30.0415 C   0  0  0  0  0  0  0  0  0  0  0  0
   23.8603    5.4653   26.7477 C   0  0  0  0  0  0  0  0  0  0  0  0
   26.9322    7.1162   29.5951 O   0  0  0  0  0  0  0  0  0  0  0  0
   23.0266    8.1318   27.8296 C   0  0  0  0  0  0  0  0  0  0  0  0
   24.2687    7.8597   28.6530 C   0  0  0  0  0  0  0  0  0  0  0  0
   27.3337    5.8690   27.7552 N   0  0  0  0  0  0  0  0  0  0  0  0
   24.0718    3.3016   23.9820 O   0  0  0  0  0  0  0  0  0  0  0  0
   21.9689    8.2156   27.7017 O   0  0  0  0  0  0  0  0  0  0  0  0
   22.6267    5.4073   26.2202 N   0  0  0  0  0  0  0  0  0  0  0  0
   25.2907    4.7732   26.4685 C   0  0  0  0  0  0  0  0  0  0  0  0
   26.0711    5.6725   27.4091 C   0  0  0  0  0  0  0  0  0  0  0  0
   22.4221    3.6174   25.1753 N   0  0  0  0  0  0  0  0  0  0  0  0
   23.4318    3.5544   24.8988 P   0  0  0  0  0  0  0  0  0  0  0  0
   26.4256    6.9783   28.8992 C   0  0  0  0  0  0  0  0  0  0  0  0
   21.7819    3.2664   25.0993 O   0  0  0  0  0  0  0  0  0  0  0  0
   23.1176    9.1706   29.4164 C   0  0  0  0  0  0  0  0  0  0  0  0
   24.6778    6.3173   27.5222 C   0  0  0  0  0  0  0  0  0  0  0  0
  2  1  2  0
  3  2  1  0
  4  1  1  0
  8  4  1  0
  8  7  1  0
 11  7  1  0
 12  5  1  0
 13  5  1  0
 14  9  1  0
 14 13  2  0
 16 10  1  0
 16 12  1  0
 16 15  1  0
 17  6  1  0
 17  9  1  0
 18 15  1  0
 19  3  1  0
 19  4  1  0
 19  7  1  0
 19  8  1  0
 20  5  1  0
 20  8  1  0
 20 13  1  0
 20 14  1  0
M  RAD  1   3   2
M  END
>  <ID>  (1) 
conformer_0

$$$$
