
     RDKit          3D

 15 16  0  0  0  0  0  0  0  0999 V2000
   24.4867   10.1976   30.9956 C   0  0  0  0  0  0  0  0  0  0  0  0
   24.8771    9.2073   30.1758 C   0  0  0  0  0  0  0  0  0  0  0  0
   24.8921    6.5113   27.5299 C   0  0  0  0  0  0  0  0  0  0  0  0
   23.2339   10.5279   30.5422 C   0  0  0  0  0  0  0  0  0  0  0  0
   23.8213    5.3705   26.6165 C   0  0  0  0  0  0  0  0  0  0  0  0
   25.3752    4.6186   26.6646 C   0  0  0  0  0  0  0  0  0  0  0  0
   26.5295    7.3204   29.5240 O   0  0  0  0  0  0  0  0  0  0  0  0
   21.9290    7.3104   27.3754 O   0  0  0  0  0  0  0  0  0  0  0  0
   22.6431    5.0257   25.8567 N   0  0  0  0  0  0  0  0  0  0  0  0
   23.1310    7.7840   27.9486 C   0  0  0  0  0  0  0  0  0  0  0  0
   24.1475    8.2376   28.9162 C   0  0  0  0  0  0  0  0  0  0  0  0
   26.0602    5.5110   27.3715 C   0  0  0  0  0  0  0  0  0  0  0  0
   22.7679    3.2261   24.8904 S   0  0  0  0  0  0  0  0  0  0  0  0
   22.8670    9.5584   29.5201 C   0  0  0  0  0  3  0  0  0  0  0  0
   27.6862    5.1252   27.1973 F   0  0  0  0  0  0  0  0  0  0  0  0
  2  1  2  0
  4  1  1  0
  5  3  1  0
  6  5  1  0
  9  5  1  0
 10  3  1  0
 10  8  1  0
 11  2  1  0
 11  7  1  0
 11 10  1  0
 12  3  1  0
 12  6  2  0
 13  9  1  0
 14  4  1  0
 14 11  1  0
 15 12  1  0
M  RAD  1  14   2
M  END
>  <ID>  (1) 
conformer_0

$$$$
