
     RDKit          3D

 17 17  0  0  0  0  0  0  0  0999 V2000
   24.1703    8.3094   29.2676 C   0  0  2  0  0  0  0  0  0  0  0  0
   24.9441    8.9254   30.3008 C   0  0  0  0  0  3  0  0  0  0  0  0
   24.8955    6.7931   27.5224 C   0  0  0  0  0  0  0  0  0  0  0  0
   23.6915    5.2365   26.7380 C   0  0  1  0  0  0  0  0  0  0  0  0
   24.3973   10.1324   31.1629 C   0  0  0  0  0  0  0  0  0  0  0  0
   27.1683    7.0352   29.1698 O   0  0  0  0  0  0  0  0  0  0  0  0
   26.0323    5.6968   27.3014 C   0  0  0  0  0  0  0  0  0  0  0  0
   21.9242    7.4713   27.7443 O   0  0  0  0  0  0  0  0  0  0  0  0
   22.8628    9.4162   29.5006 C   0  0  0  0  0  0  0  0  0  0  0  0
   22.7310    7.6883   27.9237 C   0  0  0  0  0  0  0  0  0  0  0  0
   23.2669    3.8219   24.1159 O   0  0  0  0  0  0  0  0  0  0  0  0
   23.3099    3.5725   25.4392 S   0  0  0  0  0  0  0  0  0  0  0  0
   25.3952    5.1680   26.7443 C   0  0  0  0  0  0  0  0  0  0  0  0
   22.5220    5.7385   26.4838 N   0  0  0  0  0  0  0  0  0  0  0  0
   23.2147   10.4250   30.5152 C   0  0  0  0  0  0  0  0  0  0  0  0
   22.8223    2.8616   25.9287 O   0  0  0  0  0  0  0  0  0  0  0  0
   25.6400    7.4276   28.7125 C   0  0  2  0  0  0  0  0  0  0  0  0
  2  1  1  0
  5  2  1  0
  7  3  2  3
  9  1  1  0
  1 10  1  1
 10  8  2  0
 12  4  1  0
 12 11  1  0
 13  4  1  0
 13  7  1  0
  4 14  1  6
 15  5  2  0
 15  9  1  0
 16 12  1  0
 17  1  1  0
 17  3  1  0
 17  6  1  1
M  RAD  1   2   2
M  END
>  <ID>  (1) 
conformer_0

$$$$
