
     RDKit          3D

 17 19  0  0  0  0  0  0  0  0999 V2000
   22.8221   10.3112   30.1625 C   0  0  0  0  0  0  0  0  0  0  0  0
   24.8166    8.4524   29.7556 C   0  0  0  0  0  0  0  0  0  0  0  0
   25.3651    4.4579   26.0386 C   0  0  0  0  0  0  0  0  0  0  0  0
   23.1767    8.9951   29.4843 C   0  0  0  0  0  0  0  0  0  0  0  0
   23.8175    5.1919   26.7239 C   0  0  0  0  0  0  0  0  0  0  0  0
   26.9599    6.9895   29.1205 O   0  0  0  0  0  0  0  0  0  0  0  0
   24.3082    7.1031   28.2531 C   0  0  0  0  0  0  0  0  0  0  0  0
   21.8349    7.8099   27.9210 O   0  0  0  0  0  0  0  0  0  0  0  0
   22.7616    7.6526   28.1315 C   0  0  0  0  0  0  0  0  0  0  0  0
   22.9643    3.2995   24.4157 O   0  0  0  0  0  0  0  0  0  0  0  0
   25.9172    5.9102   27.5531 C   0  0  0  0  0  0  0  0  0  0  0  0
   22.5547    5.2625   26.9253 N   0  0  0  0  0  0  0  0  0  0  0  0
   25.1583    5.6745   27.0969 C   0  0  0  0  0  0  0  0  0  0  0  0
   23.0188    3.5228   24.9768 S   0  0  0  0  0  0  0  0  0  0  0  0
   25.9980    7.4249   28.8821 C   0  0  0  0  0  0  0  0  0  0  0  0
   23.9835   10.3792   31.1235 C   0  0  0  0  0  0  0  0  0  0  0  0
   25.0650    9.4469   30.8137 C   0  0  0  0  0  0  0  0  0  0  0  0
  4  1  2  0
  4  2  1  0
  5  3  1  0
  9  4  1  0
  9  7  1  0
  9  8  2  0
 12  5  1  0
 13  3  2  0
 13  5  1  0
 13 11  1  0
 14  5  1  0
 14 10  1  0
 15  2  1  0
 15  6  1  0
 15  7  1  0
 15 11  1  0
 16  1  1  0
 17  2  2  0
 17 16  1  0
M  END
>  <ID>  (1) 
conformer_0

$$$$
