
     RDKit          3D

 19 19  0  0  0  0  0  0  0  0999 V2000
   23.1921    8.9209   29.3686 C   0  0  0  0  0  0  0  0  0  0  0  0
   24.7725    8.8544   29.8003 C   0  0  0  0  0  0  0  0  0  0  0  0
   24.4377    7.2946   28.0338 C   0  0  0  0  0  0  0  0  0  0  0  0
   23.7830    5.4747   26.6564 C   0  0  0  0  0  0  0  0  0  0  0  0
   22.6821    9.9753   29.8986 C   0  0  0  0  0  0  0  0  0  0  0  0
   23.6383   10.5762   30.9225 C   0  0  0  0  0  0  0  0  0  0  0  0
   27.0899    7.3553   29.3558 O   0  0  0  0  0  0  0  0  0  0  0  0
   21.9764    8.2357   27.4455 O   0  0  0  0  0  0  0  0  0  0  0  0
   26.1699    5.5409   27.2075 C   0  0  0  0  0  0  0  0  0  0  0  0
   22.6225    7.8460   27.9640 C   0  0  0  0  0  0  0  0  0  0  0  0
   25.0128    4.8402   26.4399 C   0  0  0  0  0  0  0  0  0  0  0  0
   22.5120    5.8467   26.7123 N   0  0  0  0  0  0  0  0  0  0  0  0
   22.0982    3.3380   25.2511 O   0  0  0  0  0  0  0  0  0  0  0  0
   27.3824    5.5178   27.5779 N   0  0  0  0  0  0  0  0  0  0  0  0
   23.0361    3.1964   25.2100 S   0  0  0  0  0  4  0  0  0  0  0  0
   24.9198    9.8484   30.6974 C   0  0  0  0  0  0  0  0  0  0  0  0
   25.9538    7.3907   28.9692 C   0  0  0  0  0  0  0  0  0  0  0  0
   23.8309    2.4009   24.8887 O   0  0  0  0  0  0  0  0  0  0  0  0
   25.5689    6.4492   27.1670 C   0  0  0  0  0  0  0  0  0  0  0  0
  2  1  2  0
  5  1  1  0
  6  5  1  0
 10  1  1  0
 10  3  1  0
 10  8  1  0
 11  4  1  0
 11  9  1  0
 12  4  1  0
 14  9  1  0
 15 11  1  0
 15 13  1  0
 16  2  1  0
 16  6  2  0
 17  3  2  0
 17  7  2  0
 18 15  1  0
 19  3  1  0
 19  9  1  0
M  END
>  <ID>  (1) 
conformer_0

$$$$
