
     RDKit          3D

 18 18  0  0  0  0  0  0  0  0999 V2000
   24.8385    8.9749   30.3283 C   0  0  0  0  0  3  0  0  0  0  0  0
   22.7854    9.6312   29.6128 C   0  0  0  0  0  0  0  0  0  0  0  0
   23.8865    8.3258   29.1033 C   0  0  2  0  0  0  0  0  0  0  0  0
   23.4471    5.8636   26.8067 C   0  0  0  0  0  0  0  0  0  0  0  0
   24.4394   10.0438   31.1787 C   0  0  0  0  0  0  0  0  0  0  0  0
   23.2314   10.5051   30.6570 C   0  0  0  0  0  0  0  0  0  0  0  0
   22.8388    7.8387   28.0266 C   0  0  0  0  0  0  0  0  0  0  0  0
   21.7920    7.5760   27.7094 O   0  0  0  0  0  0  0  0  0  0  0  0
   27.4129    6.9111   28.7921 O   0  0  0  0  0  0  0  0  0  0  0  0
   21.8920    3.5580   25.3955 O   0  0  0  0  0  0  0  0  0  0  0  0
   24.9233    7.2621   28.1781 C   0  0  2  0  0  0  0  0  0  0  0  0
   22.5560    5.8644   26.3130 N   0  0  0  0  0  0  0  0  0  0  0  0
   24.0517    3.3475   26.7090 O   0  0  0  0  0  0  0  0  0  0  0  0
   25.4215    5.6143   26.9714 C   0  0  0  0  0  0  0  0  0  0  0  0
   22.8272    3.6511   25.3999 S   0  0  0  0  0  4  0  0  0  0  0  0
   25.1348    5.9051   27.0968 C   0  0  0  0  0  0  0  0  0  0  0  0
   23.7701    3.1468   24.7330 O   0  0  0  0  0  0  0  0  0  0  0  0
   26.7092    6.6634   28.4409 C   0  0  0  0  0  0  0  0  0  0  0  0
  3  1  1  0
  3  2  1  0
  5  1  1  0
  6  2  2  0
  6  5  1  0
  3  7  1  1
  8  7  2  0
 11  3  1  0
 12  4  1  0
 15 10  1  0
 15 12  1  0
 15 13  1  0
 16  4  1  0
 16 11  1  0
 16 14  2  3
 17 15  1  0
 18  9  2  0
 11 18  1  1
M  RAD  1   1   2
M  END
>  <ID>  (1) 
conformer_0

$$$$
