
     RDKit          3D

 17 17  0  0  0  0  0  0  0  0999 V2000
   24.8330    9.2759   30.7191 C   0  0  0  0  0  0  0  0  0  0  0  0
   24.4387    8.4265   29.4337 C   0  0  0  0  0  0  0  0  0  0  0  0
   24.5887    7.0652   27.8960 C   0  0  0  0  0  3  0  0  0  0  0  0
   24.0798   10.3260   31.2293 C   0  0  0  0  0  0  0  0  0  0  0  0
   23.9872    5.5811   26.7387 C   0  0  2  0  0  0  0  0  0  0  0  0
   26.8770    7.0352   29.3647 O   0  0  0  0  0  0  0  0  0  0  0  0
   21.9421    7.8973   27.4023 O   0  0  0  0  0  0  0  0  0  0  0  0
   23.0237   10.3813   30.2238 C   0  0  0  0  0  0  0  0  0  0  0  0
   26.1627    6.0955   27.8381 C   0  0  1  0  0  0  0  0  0  0  0  0
   23.0389    7.7151   27.7605 C   0  0  0  0  0  0  0  0  0  0  0  0
   22.0775    3.6236   25.2728 O   0  0  0  0  0  0  0  0  0  0  0  0
   23.3158    3.5918   25.3183 S   0  0  0  0  0  0  0  0  0  0  0  0
   22.4862    6.0089   26.3284 N   0  0  0  0  0  0  0  0  0  0  0  0
   25.3446    5.5579   26.9775 C   0  0  0  0  0  0  0  0  0  0  0  0
   27.3739    5.8652   27.8556 N   0  0  0  0  0  0  0  0  0  0  0  0
   23.9851    3.0673   24.6649 O   0  0  0  0  0  0  0  0  0  0  0  0
   23.0572    9.2648   29.3297 C   0  0  0  0  0  0  0  0  0  0  0  0
  2  1  2  0
  4  1  1  0
  8  4  1  0
  9  3  1  0
  9  6  1  0
 10  3  2  3
 10  7  1  0
 12  5  1  0
 12 11  1  0
  5 13  1  6
 14  5  1  0
 14  9  1  0
  9 15  1  6
 16 12  1  0
 17  2  1  0
 17  8  2  0
 17 10  1  0
M  RAD  1   3   2
M  END
>  <ID>  (1) 
conformer_0

$$$$
