
     RDKit          3D

 18 19  0  0  0  0  0  0  0  0999 V2000
   22.8456   10.2947   30.1364 C   0  0  0  0  0  0  0  0  0  0  0  0
   24.8609    8.7352   29.8055 C   0  0  0  0  0  0  0  0  0  0  0  0
   23.9725    5.9471   26.9198 C   0  0  0  0  0  0  0  0  0  0  0  0
   24.8834    9.4438   30.8315 C   0  0  0  0  0  0  0  0  0  0  0  0
   23.9317   10.4170   31.0787 C   0  0  0  0  0  0  0  0  0  0  0  0
   23.8971    5.1260   26.5954 C   0  0  0  0  0  0  0  0  0  0  0  0
   22.0688    7.4183   26.9670 O   0  0  0  0  0  0  0  0  0  0  0  0
   25.5426    4.5523   26.6414 C   0  0  0  0  0  0  0  0  0  0  0  0
   23.1156    7.5671   27.5694 C   0  0  0  0  0  0  0  0  0  0  0  0
   22.1603    3.6900   24.8994 O   0  0  0  0  0  0  0  0  0  0  0  0
   23.2056    3.6156   25.1921 S   0  0  0  0  0  4  0  0  0  0  0  0
   26.0101    5.6296   27.5034 C   0  0  0  0  0  0  0  0  0  0  0  0
   26.9268    7.6436   29.6190 O   0  0  0  0  0  0  0  0  0  0  0  0
   27.3346    5.5623   27.5201 F   0  0  0  0  0  0  0  0  0  0  0  0
   23.8594    8.2996   28.8374 C   0  0  0  0  0  0  0  0  0  0  0  0
   22.7863    9.3512   29.3286 C   0  0  0  0  0  0  0  0  0  0  0  0
   25.1858    6.7419   27.6575 C   0  0  0  0  0  0  0  0  0  0  0  0
   24.0188    3.0128   24.8271 O   0  0  0  0  0  0  0  0  0  0  0  0
  4  2  2  0
  5  1  2  0
  5  4  1  0
  6  3  2  0
  8  6  1  0
  9  3  1  0
  9  7  2  0
 11  6  1  0
 11 10  1  0
 12  8  2  0
 13  2  1  0
 14 12  1  0
 15  2  1  0
 15  9  1  0
 16  1  1  0
 16 15  2  0
 17  3  1  0
 17 12  1  0
 18 11  1  0
M  END
>  <ID>  (1) 
conformer_0

$$$$
