
     RDKit          3D

 19 21  0  0  0  0  0  0  0  0999 V2000
   25.0826    9.5233   30.3108 C   0  0  0  0  0  0  0  0  0  0  0  0
   24.4883   10.5199   31.2356 C   0  0  0  0  0  0  0  0  0  0  0  0
   24.2038    6.6156   27.3459 C   0  0  0  0  0  0  0  0  0  0  0  0
   23.5571    5.0827   26.4520 C   0  0  0  0  0  0  0  0  0  0  0  0
   23.2137   10.6750   30.7323 C   0  0  0  0  0  0  0  0  0  0  0  0
   27.1230    6.8284   29.0453 O   0  0  0  0  0  0  0  0  0  0  0  0
   21.7970    7.7223   27.6011 O   0  0  0  0  0  0  0  0  0  0  0  0
   25.4292    4.7902   26.3244 C   0  0  0  0  0  0  0  0  0  0  0  0
   24.1232    8.8728   29.4152 C   0  0  0  0  0  0  0  0  0  0  0  0
   25.8886    5.2524   27.2991 C   0  0  0  0  0  0  0  0  0  0  0  0
   22.1509    5.2705   26.3948 N   0  0  0  0  0  0  0  0  0  0  0  0
   23.0802    3.4608   24.2882 O   0  0  0  0  0  0  0  0  0  0  0  0
   27.4559    5.2223   27.6556 N   0  0  0  0  0  0  0  0  0  0  0  0
   22.7001    7.6188   27.7741 C   0  0  0  0  0  0  0  0  0  0  0  0
   23.0134    3.5455   25.0550 S   0  0  0  0  0  4  0  0  0  0  0  0
   22.1455    3.3776   26.5589 O   0  0  0  0  0  0  0  0  0  0  0  0
   22.8473    9.6227   29.6516 C   0  0  0  0  0  0  0  0  0  0  0  0
   24.0882    7.9609   27.9428 C   0  0  0  0  0  0  0  0  0  0  0  0
   25.5704    6.3650   27.2607 C   0  0  0  0  0  0  0  0  0  0  0  0
  2  1  2  0
  4  3  1  0
  5  2  1  0
  8  4  1  0
  9  1  1  0
 10  8  2  0
 11  4  1  0
 13 10  1  0
 14  3  1  0
 14  7  2  0
 15  4  1  0
 15 12  1  0
 16 15  1  0
 17  5  2  0
 17  9  1  0
 18  3  1  0
 18  9  1  0
 18 14  1  0
 19  3  1  0
 19  6  1  0
 19 10  1  0
M  END
>  <ID>  (1) 
conformer_0

$$$$
