
     RDKit          3D

 17 18  0  0  0  0  0  0  0  0999 V2000
   23.2131   10.5858   30.4673 C   0  0  0  0  0  0  0  0  0  0  0  0
   24.0053    8.6838   29.1027 C   0  0  0  0  0  0  0  0  0  0  0  0
   24.8821    6.6993   27.5660 C   0  0  0  0  0  0  0  0  0  0  0  0
   24.6914    4.4640   26.4982 C   0  0  0  0  0  0  0  0  0  0  0  0
   22.7923    9.6869   29.3496 C   0  0  0  0  0  0  0  0  0  0  0  0
   21.8776    7.3671   27.5324 O   0  0  0  0  0  0  0  0  0  0  0  0
   26.9143    7.2994   29.3921 O   0  0  0  0  0  0  0  0  0  0  0  0
   24.9561    9.1531   30.1278 C   0  0  0  0  0  0  0  0  0  0  0  0
   26.0140    7.1298   28.6784 C   0  0  0  0  0  0  0  0  0  0  0  0
   23.4305    3.3757   24.9683 S   0  0  0  0  0  0  0  0  0  0  0  0
   25.7012    5.1911   27.2925 C   0  0  0  0  0  0  0  0  0  0  0  0
   22.9748    7.6465   27.8542 C   0  0  0  0  0  0  0  0  0  0  0  0
   22.9252    3.1475   24.6735 O   0  0  0  0  0  0  0  0  0  0  0  0
   24.4190   10.2317   31.0406 C   0  0  0  0  0  0  0  0  0  0  0  0
   27.6407    5.8205   28.1653 N   0  0  0  0  0  0  0  0  0  0  0  0
   23.9232    4.3547   25.6465 N   0  0  0  0  0  0  0  0  0  0  0  0
   23.7389    5.9080   26.5914 C   0  0  0  0  0  0  0  0  0  0  0  0
  5  1  2  0
  5  2  1  0
  8  2  2  0
  9  3  1  0
  9  7  1  0
 11  3  1  0
 11  4  1  0
 12  2  1  0
 12  3  1  0
 12  6  2  0
 13 10  1  0
 14  1  1  0
 14  8  1  0
 15  9  1  0
 16  4  1  0
 16 10  1  0
 17  3  1  0
 17  4  2  0
M  END
>  <ID>  (1) 
conformer_0

$$$$
