
     RDKit          3D

 16 15  0  0  0  0  0  0  0  0999 V2000
   24.4947    8.7248   29.8515 C   0  0  0  0  0  3  0  0  0  0  0  0
   22.7019    9.6709   29.3042 C   0  0  0  0  0  0  0  0  0  0  0  0
   24.2443    7.6431   28.5045 C   0  0  0  0  0  0  0  0  0  0  0  0
   24.0869    5.4311   26.5602 C   0  0  0  0  0  0  0  0  0  0  0  0
   23.1144   10.6147   30.4143 C   0  0  0  0  0  0  0  0  0  0  0  0
   22.1158    7.2307   27.4860 O   0  0  0  0  0  0  0  0  0  0  0  0
   26.7578    7.1982   29.8504 O   0  0  0  0  0  0  0  0  0  0  0  0
   23.1889    7.5853   27.8319 C   0  0  0  0  0  0  0  0  0  0  0  0
   24.3405    9.9021   30.8302 C   0  0  0  0  0  0  0  0  0  0  0  0
   25.9779    5.9316   27.7460 C   0  0  0  0  0  0  0  0  0  0  0  0
   22.2430    3.6621   24.8409 O   0  0  0  0  0  0  0  0  0  0  0  0
   23.2704    3.5368   25.1827 S   0  0  0  0  0  0  0  0  0  0  0  0
   26.9908    6.0475   28.3242 N   0  0  0  0  0  0  0  0  0  0  0  0
   25.0969    6.1496   27.3531 C   0  0  2  0  0  0  0  0  0  0  0  0
   23.4332    4.8573   25.8077 O   0  0  0  0  0  0  0  0  0  0  0  0
   24.3150    3.1143   24.5882 O   0  0  0  0  0  0  0  0  0  0  0  0
  3  1  1  0
  5  2  1  0
  8  3  2  0
  8  6  2  0
  9  1  2  3
  9  5  1  0
 12 11  1  0
 13  7  1  0
 13 10  1  0
 14  3  1  0
 14  4  1  1
 14 10  1  0
 15  4  1  0
 15 12  1  0
 16 12  1  0
M  RAD  1   1   2
M  END
>  <ID>  (1) 
conformer_0

$$$$
