
     RDKit          3D

 16 16  0  0  0  0  0  0  0  0999 V2000
   24.6965   10.2083   30.9927 C   0  0  0  0  0  0  0  0  0  0  0  0
   24.8965    9.2143   30.0082 C   0  0  0  0  0  0  0  0  0  0  0  0
   23.7159    5.4588   26.5990 C   0  0  0  0  0  0  0  0  0  0  0  0
   24.7973    7.1058   27.9971 C   0  0  1  0  0  0  0  0  0  0  0  0
   23.4039   10.7506   30.8678 C   0  0  0  0  0  0  0  0  0  0  0  0
   22.6320   10.0124   29.7224 C   0  0  0  0  0  0  0  0  0  0  0  0
   26.9349    7.4547   29.4281 O   0  0  0  0  0  0  0  0  0  0  0  0
   22.6920    3.3944   24.9793 S   0  0  0  0  0  3  0  0  0  0  0  0
   22.1172    7.4405   27.5121 O   0  0  0  0  0  0  0  0  0  0  0  0
   23.2539    7.9679   27.9192 C   0  0  1  0  0  0  0  0  0  0  0  0
   22.2515    3.5214   24.6030 O   0  0  0  0  0  0  0  0  0  0  0  0
   25.3852    5.1012   27.0514 C   0  0  0  0  0  0  0  0  0  0  0  0
   26.4506    7.0075   28.7512 C   0  0  0  0  0  0  0  0  0  0  0  0
   25.0406    5.4578   26.9570 C   0  0  0  0  0  0  0  0  0  0  0  0
   23.5905    8.9419   29.2134 C   0  0  0  0  0  0  0  0  0  0  0  0
   23.2924    2.5008   25.8527 O   0  0  0  0  0  1  0  0  0  0  0  0
  2  1  2  0
  5  1  1  0
  6  5  1  0
  8  3  1  0
 10  4  1  0
 10  9  1  1
 11  8  1  0
  4 13  1  1
 13  7  2  0
 14  3  1  0
 14  4  1  0
 14 12  2  3
 15  2  1  0
 15  6  2  0
 15 10  1  0
 16  8  1  0
M  RAD  2   8   2  16   2
M  END
>  <ID>  (1) 
conformer_0

$$$$
