
     RDKit          3D

 18 20  0  0  0  0  0  0  0  0999 V2000
   23.3307    8.8055   29.2957 C   0  0  0  0  0  0  0  0  0  0  0  0
   23.5014   10.5394   30.9135 C   0  0  0  0  0  0  0  0  0  0  0  0
   25.9328    5.5980   26.8645 C   0  0  0  0  0  0  0  0  0  0  0  0
   22.5742   10.0316   29.7920 C   0  0  0  0  0  0  0  0  0  0  0  0
   23.4003    5.8443   26.7165 C   0  0  0  0  0  0  0  0  0  0  0  0
   26.8742    7.3392   29.1690 O   0  0  0  0  0  0  0  0  0  0  0  0
   24.6799    8.6278   29.9193 C   0  0  0  0  0  0  0  0  0  0  0  0
   22.2158    3.7434   24.8765 O   0  0  0  0  0  0  0  0  0  0  0  0
   22.8891    7.7472   28.0506 C   0  0  0  0  0  0  0  0  0  0  0  0
   24.7464    7.1781   27.8105 C   0  0  0  0  0  0  0  0  0  0  0  0
   26.2593    6.1477   27.6965 C   0  0  0  0  0  0  0  0  0  0  0  0
   22.5705    6.3799   26.8157 N   0  0  0  0  0  0  0  0  0  0  0  0
   24.3195    2.8976   24.9105 O   0  0  0  0  0  0  0  0  0  0  0  0
   24.5961    9.7198   30.9853 C   0  0  0  0  0  0  0  0  0  0  0  0
   22.2057    7.4031   28.0190 O   0  0  0  0  0  0  0  0  0  0  0  0
   25.3227    7.5494   28.7105 C   0  0  0  0  0  0  0  0  0  0  0  0
   24.2620    4.9957   26.2862 C   0  0  0  0  0  0  0  0  0  0  0  0
   24.8903    4.5784   26.1494 C   0  0  0  0  0  0  0  0  0  0  0  0
  4  1  1  0
  4  2  2  0
  7  1  1  0
  9  1  2  0
 10  9  1  0
 11  3  1  0
 11 10  1  0
 12  5  1  0
 14  2  1  0
 14  7  2  0
 15  9  1  0
 15 12  1  0
 16  6  1  0
 16  7  1  0
 16 10  2  0
 17  5  1  0
 17  8  1  0
 18  3  1  0
 18 13  1  0
 18 17  2  0
M  END
>  <ID>  (1) 
conformer_0

$$$$
