
     RDKit          3D

 18 18  0  0  0  0  0  0  0  0999 V2000
   24.4116    9.9975   31.2133 C   0  0  0  0  0  0  0  0  0  0  0  0
   23.3097   10.1793   30.4180 C   0  0  0  0  0  0  0  0  0  0  0  0
   24.3053    8.3875   29.2954 C   0  0  0  0  0  0  0  0  0  0  0  0
   23.5716    5.3953   26.6361 C   0  0  0  0  0  0  0  0  0  0  0  0
   25.0915    8.9144   30.4177 C   0  0  0  0  0  0  0  0  0  0  0  0
   26.9386    7.3896   29.7437 O   0  0  0  0  0  0  0  0  0  0  0  0
   23.0093    3.3959   24.4291 O   0  0  0  0  0  0  0  0  0  0  0  0
   21.8764    7.5830   27.2957 O   0  0  0  0  0  0  0  0  0  0  0  0
   25.7378    5.4268   27.2095 C   0  0  2  0  0  0  0  0  0  0  0  0
   24.7868    6.7191   27.7530 C   0  0  0  0  0  0  0  0  0  0  0  0
   22.9925    7.5820   27.8536 C   0  0  0  0  0  0  0  0  0  0  0  0
   23.0375    9.2586   29.2172 C   0  0  0  0  0  0  0  0  0  0  0  0
   25.7953    7.4541   29.0920 C   0  0  0  0  0  0  0  0  0  0  0  0
   22.4478    5.4758   26.4066 N   0  0  0  0  0  0  0  0  0  0  0  0
   27.3941    5.6815   27.9237 N   0  0  0  0  0  0  0  0  0  0  0  0
   22.0281    9.2836   28.5050 O   0  0  0  0  0  0  0  0  0  0  0  0
   23.0026    3.6139   25.0976 S   0  0  0  0  0  0  0  0  0  0  0  0
   25.5450    4.9808   26.6479 C   0  0  0  0  0  0  0  0  0  0  0  0
  2  1  2  0
  5  1  1  0
  5  3  1  0
 10  9  1  0
 11  8  2  0
 11 10  1  0
 12  2  1  0
 12  3  2  0
 13  3  1  0
 13  6  1  0
 13 10  2  3
 14  4  1  0
  9 15  1  6
 16 12  1  0
 17  7  1  0
 17 14  1  0
 18  4  1  0
 18  9  1  0
M  END
>  <ID>  (1) 
conformer_0

$$$$
