
     RDKit          3D

 19 20  0  0  0  0  0  0  0  0999 V2000
   24.7262    9.6829   31.0528 C   0  0  0  0  0  0  0  0  0  0  0  0
   23.5965   10.5943   31.0922 C   0  0  0  0  0  0  0  0  0  0  0  0
   24.7390    8.8917   30.1828 C   0  0  0  0  0  0  0  0  0  0  0  0
   22.7090   10.1523   29.8745 C   0  0  0  0  0  0  0  0  0  0  0  0
   23.3975    6.0550   26.3525 C   0  0  0  0  0  0  0  0  0  0  0  0
   22.0337    7.7758   27.4223 O   0  0  0  0  0  0  0  0  0  0  0  0
   25.7519    7.5131   28.9939 C   0  0  0  0  0  3  0  0  0  0  0  0
   24.5589    6.5577   27.2151 C   0  0  0  0  0  0  0  0  0  0  0  0
   26.8423    7.5376   29.6982 O   0  0  0  0  0  0  0  0  0  0  0  0
   22.9978    7.7623   27.8307 C   0  0  0  0  0  3  0  0  0  0  0  0
   22.5964    5.7631   25.6549 N   0  0  0  0  0  0  0  0  0  0  0  0
   25.5474    5.0494   26.6647 C   0  0  0  0  0  0  0  0  0  0  0  0
   22.2286    3.5140   25.3873 O   0  0  0  0  0  0  0  0  0  0  0  0
   24.4955    4.4993   26.2523 C   0  0  0  0  0  0  0  0  0  0  0  0
   23.1901    3.5832   25.3208 S   0  0  0  0  0  4  0  0  0  0  0  0
   24.4308    7.7473   28.6609 C   0  0  0  0  0  0  0  0  0  0  0  0
   23.0586    9.0691   29.3677 C   0  0  0  0  0  0  0  0  0  0  0  0
   24.0452    2.9650   24.7731 O   0  0  0  0  0  0  0  0  0  0  0  0
   26.0262    5.7924   27.4144 C   0  0  0  0  0  0  0  0  0  0  0  0
  2  1  2  0
  3  1  1  0
  4  2  1  0
  8  5  2  0
  9  7  2  0
 10  6  2  0
 11  5  1  0
 14  5  1  0
 14 12  1  0
 15 13  1  0
 15 14  1  0
 16  3  1  0
 16  7  1  0
 16  8  1  0
 16 10  1  0
 17  3  1  0
 17  4  2  0
 18 15  1  0
 19  8  1  0
 19 12  2  0
M  RAD  2   7   2  10   2
M  END
>  <ID>  (1) 
conformer_0

$$$$
