
     RDKit          3D

 21 22  0  0  0  0  0  0  0  0999 V2000
   23.0552   10.6431   30.5486 C   0  0  0  0  0  0  0  0  0  0  0  0
   24.4865    8.6844   29.6501 C   0  0  0  0  0  0  0  0  0  0  0  0
   23.9791    6.6612   27.5585 C   0  0  0  0  0  0  0  0  0  0  0  0
   25.1313    9.5216   30.4397 C   0  0  0  0  0  0  0  0  0  0  0  0
   23.2528    5.4648   26.6413 C   0  0  0  0  0  0  0  0  0  0  0  0
   24.2868    4.5295   26.1728 C   0  0  0  0  0  0  0  0  0  0  0  0
   27.1204    7.0050   29.2814 O   0  0  0  0  0  0  0  0  0  0  0  0
   21.8023    7.5570   27.4925 O   0  0  0  0  0  0  0  0  0  0  0  0
   22.9882    7.6874   28.0119 C   0  0  0  0  0  0  0  0  0  0  0  0
   24.2757   10.4787   31.1233 C   0  0  0  0  0  0  0  0  0  0  0  0
   22.8380    3.7418   24.0508 O   0  0  0  0  0  0  0  0  0  0  0  0
   27.7273    5.4883   27.6874 N   0  0  0  0  0  0  0  0  0  0  0  0
   25.6034    5.2637   26.9262 C   0  0  0  0  0  0  0  0  0  0  0  0
   23.3336    2.6597   25.0965 O   0  0  0  0  0  0  0  0  0  0  0  0
   22.1898    5.2370   26.3945 N   0  0  0  0  0  0  0  0  0  0  0  0
   26.5375    6.6502   28.4732 C   0  0  0  0  0  0  0  0  0  0  0  0
   25.3792    6.7635   27.9044 C   0  0  0  0  0  0  0  0  0  0  0  0
   23.4124    3.5626   24.9428 C   0  0  0  0  0  0  0  0  0  0  0  0
   23.2469    8.7334   29.2029 C   0  0  0  0  0  0  0  0  0  0  0  0
   22.4180    9.8329   29.5684 C   0  0  0  0  0  0  0  0  0  0  0  0
   25.8052    5.1755   26.6404 C   0  0  0  0  0  0  0  0  0  0  0  0
  4  2  2  0
  5  3  2  0
  6  5  1  0
  9  3  1  0
  9  8  1  0
 10  1  2  0
 10  4  1  0
 13  6  2  0
 15  5  1  0
 16  7  2  0
 16 12  1  0
 17  3  1  0
 17 13  1  0
 17 16  1  0
 18  6  1  0
 18 11  1  0
 18 14  2  0
 19  2  1  0
 19  9  1  0
 20  1  1  0
 20 19  2  0
 21 13  1  0
M  END
>  <ID>  (1) 
conformer_0

$$$$
