
     RDKit          3D

 20 22  0  0  0  0  0  0  0  0999 V2000
   22.7686   10.2909   30.1272 C   0  0  0  0  0  0  0  0  0  0  0  0
   23.9229    8.2427   29.0936 C   0  0  0  0  0  0  0  0  0  0  0  0
   25.6885    4.8936   26.5994 C   0  0  0  0  0  0  0  0  0  0  0  0
   23.3965    6.2591   27.0914 C   0  0  0  0  0  0  0  0  0  0  0  0
   24.9265    9.8056   30.8168 C   0  0  0  0  0  0  0  0  0  0  0  0
   22.3529    7.3782   27.4167 O   0  0  0  0  0  0  0  0  0  0  0  0
   27.0986    7.3188   29.4099 O   0  0  0  0  0  0  0  0  0  0  0  0
   23.7940   10.5643   31.0773 C   0  0  0  0  0  0  0  0  0  0  0  0
   22.1513    3.5733   24.8350 O   0  0  0  0  0  0  0  0  0  0  0  0
   27.6268    6.0868   27.8779 N   0  0  0  0  0  0  0  0  0  0  0  0
   23.5233    3.2168   25.1069 S   0  0  0  0  0  4  0  0  0  0  0  0
   26.1213    6.1220   27.7646 C   0  0  0  0  0  0  0  0  0  0  0  0
   22.9724    7.8259   28.0816 C   0  0  0  0  0  0  0  0  0  0  0  0
   23.1622    5.2136   26.2585 C   0  0  0  0  0  0  0  0  0  0  0  0
   24.9107    8.8657   29.8500 C   0  0  0  0  0  0  0  0  0  0  0  0
   25.0528    6.4137   27.6909 C   0  0  0  0  0  0  0  0  0  0  0  0
   24.1633    4.7286   26.2782 C   0  0  0  0  0  0  0  0  0  0  0  0
   25.7916    7.4252   28.7182 C   0  0  0  0  0  0  0  0  0  0  0  0
   23.9388    2.5825   24.8759 O   0  0  0  0  0  0  0  0  0  0  0  0
   22.7219    9.2577   29.3785 C   0  0  0  0  0  0  0  0  0  0  0  0
  6  4  1  0
  8  1  2  0
  8  5  1  0
 11  9  1  0
 12  3  2  0
 12 10  1  0
 13  2  1  0
 13  6  1  0
 14  4  1  0
 15  2  1  0
 15  5  2  0
 16  4  2  0
 16 12  1  0
 17  3  1  0
 17 11  1  0
 17 14  2  0
 18  7  1  0
 18 16  1  0
 19 11  1  0
 20  1  1  0
 20  2  2  0
 20 13  1  0
M  END
>  <ID>  (1) 
conformer_0

$$$$
