
     RDKit          3D

 16 17  0  0  0  0  0  0  0  0999 V2000
   24.7812    8.7295   29.9016 C   0  0  0  0  0  0  0  0  0  0  0  0
   22.7088   10.0433   29.8501 C   0  0  0  0  0  0  0  0  0  0  0  0
   23.7667    5.2767   26.5705 C   0  0  2  0  0  0  0  0  0  0  0  0
   23.5932   10.5724   30.9410 C   0  0  0  0  0  0  0  0  0  0  0  0
   24.6059    6.7948   27.7810 C   0  0  0  0  0  0  0  0  0  0  0  0
   23.2216    3.2662   24.5891 S   0  0  0  0  0  0  0  0  0  0  0  0
   24.8484    9.8202   30.9552 C   0  0  0  0  0  0  0  0  0  0  0  0
   21.9392    7.5304   27.6055 O   0  0  0  0  0  0  0  0  0  0  0  0
   26.8177    7.2199   29.3224 O   0  0  0  0  0  0  0  0  0  0  0  0
   23.0392    7.6982   27.7831 C   0  0  0  0  0  0  0  0  0  0  0  0
   25.6334    5.5369   27.2918 C   0  0  0  0  0  0  0  0  0  0  0  0
   22.5868    5.5897   26.1602 N   0  0  0  0  0  0  0  0  0  0  0  0
   23.4405    2.9145   24.5471 O   0  0  0  0  0  0  0  0  0  0  0  0
   25.6113    4.9338   26.7112 C   0  0  0  0  0  0  0  0  0  0  0  0
   25.4830    7.5161   28.8881 C   0  0  2  0  0  0  0  0  0  0  0  0
   23.4012    8.9025   29.2665 C   0  0  1  0  0  0  0  0  0  0  0  0
  4  2  2  0
  6  3  1  0
  7  1  2  0
  7  4  1  0
 10  5  1  0
 10  8  2  0
 11  5  2  3
  3 12  1  6
 13  6  1  0
 14  3  1  0
 14 11  1  0
 15  1  1  0
 15  5  1  0
 15  9  1  1
 16  1  1  0
 16  2  1  6
 16 10  1  0
M  END
>  <ID>  (1) 
conformer_0

$$$$
