
     RDKit          3D

 18 19  0  0  0  0  0  0  0  0999 V2000
   24.5669    8.6417   29.6153 C   0  0  0  0  0  0  0  0  0  0  0  0
   24.9645    9.6039   30.7221 C   0  0  0  0  0  0  0  0  0  0  0  0
   24.2604    6.8904   27.9816 C   0  0  1  0  0  0  0  0  0  0  0  0
   23.2264    5.9291   26.7590 C   0  0  0  0  0  0  0  0  0  0  0  0
   23.8995   10.4505   31.0993 C   0  0  0  0  0  0  0  0  0  0  0  0
   22.7597   10.1225   30.1745 C   0  0  0  0  0  0  0  0  0  0  0  0
   26.6925    7.2893   29.0948 O   0  0  0  0  0  0  0  0  0  0  0  0
   21.5634    7.6519   27.6304 O   0  0  0  0  0  0  0  0  0  0  0  0
   25.8265    7.2608   28.7096 C   0  0  0  0  0  0  0  0  0  0  0  0
   22.4970    7.4637   27.7617 C   0  0  0  0  0  3  0  0  0  0  0  0
   24.2959    4.4689   26.2357 C   0  0  0  0  0  0  0  0  0  0  0  0
   22.3707    3.6610   25.0157 O   0  0  0  0  0  0  0  0  0  0  0  0
   25.1533    5.4089   27.0667 C   0  0  0  0  0  0  0  0  0  0  0  0
   22.1744    5.9430   26.1397 N   0  0  0  0  0  0  0  0  0  0  0  0
   23.0821    8.9529   29.3789 C   0  0  0  0  0  0  0  0  0  0  0  0
   23.6213    3.4498   25.2599 S   0  0  0  0  0  0  0  0  0  0  0  0
   24.5516    3.2135   24.7594 O   0  0  0  0  0  0  0  0  0  0  0  0
   25.7780    5.5112   27.2257 C   0  0  0  0  0  0  0  0  0  0  0  0
  2  1  2  0
  4  3  1  0
  5  2  1  0
  6  5  2  0
  9  1  1  0
  9  3  1  0
  9  7  2  0
  3 10  1  1
 10  8  2  0
 11  4  2  0
 13  3  1  0
 13 11  1  0
 14  4  1  0
 15  1  1  0
 15  6  1  0
 16 11  1  0
 16 12  1  0
 17 16  1  0
 18 13  2  3
M  RAD  1  10   2
M  END
>  <ID>  (1) 
conformer_0

$$$$
