
     RDKit          3D

 19 20  0  0  0  0  0  0  0  0999 V2000
   23.2121    9.0652   29.3585 C   0  0  0  0  0  3  0  0  0  0  0  0
   24.3984   10.2061   31.3274 C   0  0  0  0  0  0  0  0  0  0  0  0
   24.4649    6.7697   27.7781 C   0  0  0  0  0  0  0  0  0  0  0  0
   23.5425    5.6585   26.7025 C   0  0  0  0  0  0  0  0  0  0  0  0
   22.6649    9.9808   29.6137 C   0  0  0  0  0  0  0  0  0  0  0  0
   22.1078    7.8680   27.3367 O   0  0  0  0  0  0  0  0  0  0  0  0
   26.9445    7.2818   29.3331 O   0  0  0  0  0  0  0  0  0  0  0  0
   27.4050    5.2206   27.7019 N   0  0  0  0  0  0  0  0  0  0  0  0
   23.2298   10.7664   30.8169 C   0  0  0  0  0  0  0  0  0  0  0  0
   22.9488    7.8148   27.8435 C   0  0  0  0  0  0  0  0  0  0  0  0
   22.1497    3.2982   24.8150 O   0  0  0  0  0  0  0  0  0  0  0  0
   22.4108    5.4315   26.0346 N   0  0  0  0  0  0  0  0  0  0  0  0
   25.5307    5.3232   27.1973 C   0  0  0  0  0  0  0  0  0  0  0  0
   22.9613    3.4176   24.9901 S   0  0  0  0  0  4  0  0  0  0  0  0
   25.3521    5.4602   27.0785 C   0  0  0  0  0  0  0  0  0  0  0  0
   26.2246    7.0224   28.6278 C   0  0  0  0  0  0  0  0  0  0  0  0
   24.6015    8.1365   28.9746 C   0  0  0  0  0  0  0  0  0  0  0  0
   24.9308    9.2482   30.4146 C   0  0  0  0  0  0  0  0  0  0  0  0
   24.1797    3.0431   24.9125 O   0  0  0  0  0  0  0  0  0  0  0  0
  4  3  1  0
  5  1  2  0
  9  2  2  0
  9  5  1  0
 10  3  1  0
 10  6  2  0
 12  4  1  0
 13  8  1  0
 14 11  1  0
 14 12  1  0
 15  3  1  0
 15  4  1  0
 15 13  1  0
 16  7  1  0
 17  1  1  0
 17  3  1  0
 17 16  1  0
 18  2  1  0
 18 17  1  0
 19 14  1  0
M  RAD  1   1   2
M  END
>  <ID>  (1) 
conformer_0

$$$$
