
     RDKit          3D

 16 17  0  0  0  0  0  0  0  0999 V2000
   24.4519   10.2848   31.0187 C   0  0  0  0  0  0  0  0  0  0  0  0
   23.8970    8.3640   29.2830 C   0  0  0  0  0  0  0  0  0  0  0  0
   24.8310    6.5916   27.8436 C   0  0  0  0  0  0  0  0  0  0  0  0
   22.7988    9.5295   29.5234 C   0  0  0  0  0  0  0  0  0  0  0  0
   24.0174    5.4016   26.6363 C   0  0  0  0  0  0  0  0  0  0  0  0
   25.7470    5.2281   26.7506 C   0  0  0  0  0  0  0  0  0  0  0  0
   21.6027    7.5096   27.6917 O   0  0  0  0  0  0  0  0  0  0  0  0
   23.1584   10.5369   30.4576 C   0  0  0  0  0  0  0  0  0  0  0  0
   22.9375    3.4513   24.8340 O   0  0  0  0  0  0  0  0  0  0  0  0
   22.8716    7.3964   28.1473 C   0  0  0  0  0  0  0  0  0  0  0  0
   26.3753    5.5579   27.3251 C   0  0  0  0  0  0  0  0  0  0  0  0
   27.8663    5.8310   27.8614 N   0  0  0  0  0  0  0  0  0  0  0  0
   22.4028    5.4537   26.4472 N   0  0  0  0  0  0  0  0  0  0  0  0
   27.1581    7.2968   29.2483 O   0  0  0  0  0  0  0  0  0  0  0  0
   24.9158    9.1897   30.3164 C   0  0  0  0  0  0  0  0  0  0  0  0
   23.0984    3.7738   25.3454 S   0  0  0  0  0  0  0  0  0  0  0  0
  4  2  2  0
  5  3  2  0
  6  5  1  0
  8  1  2  0
  8  4  1  0
 10  2  1  0
 10  3  1  0
 10  7  1  0
 11  3  1  0
 11  6  2  0
 12 11  1  0
 13  5  1  0
 14 12  1  0
 15  1  1  0
 15  2  1  0
 16  9  1  0
 16 13  1  0
M  END
>  <ID>  (1) 
conformer_0

$$$$
