
     RDKit          3D

 18 19  0  0  0  0  0  0  0  0999 V2000
   22.7849    9.9052   29.7691 C   0  0  0  0  0  0  0  0  0  0  0  0
   24.7315    7.1115   27.9821 C   0  0  0  0  0  0  0  0  0  0  0  0
   25.4717    4.5556   26.3042 C   0  0  0  0  0  0  0  0  0  0  0  0
   23.3574    8.7110   29.2605 C   0  0  0  0  0  0  0  0  0  0  0  0
   23.4984    5.5641   26.3326 C   0  0  0  0  0  3  0  0  0  0  0  0
   27.1004    5.4710   27.8888 N   0  0  0  0  0  0  0  0  0  0  0  0
   21.8384    7.7187   27.5876 O   0  0  0  0  0  0  0  0  0  0  0  0
   26.6531    6.9977   29.5519 O   0  0  0  0  0  0  0  0  0  0  0  0
   24.8428    8.6696   29.8963 C   0  0  0  0  0  0  0  0  0  0  0  0
   24.3399    5.7151   26.5161 C   0  0  0  0  0  0  0  0  0  0  0  0
   23.0082    7.8214   27.8755 C   0  0  0  0  0  0  0  0  0  0  0  0
   23.0048    3.7035   25.0489 S   0  0  0  0  0  3  0  0  0  0  0  0
   25.9250    7.0694   28.7210 C   0  0  0  0  0  0  0  0  0  0  0  0
   25.7102    5.3873   27.1741 C   0  0  0  0  0  0  0  0  0  0  0  0
   23.3911    3.2400   24.6471 O   0  0  0  0  0  0  0  0  0  0  0  0
   23.7532   10.4799   30.8070 C   0  0  0  0  0  0  0  0  0  0  0  0
   25.0656    9.7146   30.6835 C   0  0  0  0  0  0  0  0  0  0  0  0
   21.8556    4.1941   25.5864 O   0  0  0  0  0  0  0  0  0  0  0  0
  4  1  2  0
  9  4  1  0
 10  2  1  0
 10  3  1  0
 10  5  1  0
 11  2  1  0
 11  4  1  0
 11  7  2  0
 12  5  1  0
 13  2  2  0
 13  8  2  0
 14  3  2  0
 14  6  1  0
 14 10  1  0
 15 12  1  0
 16  1  1  0
 17  9  2  0
 17 16  1  0
 18 12  1  0
M  RAD  2   5   2  12   2
M  END
>  <ID>  (1) 
conformer_0

$$$$
