
     RDKit          3D

 18 19  0  0  0  0  0  0  0  0999 V2000
   25.4093    4.9933   26.9125 C   0  0  0  0  0  3  0  0  0  0  0  0
   24.6205    9.9170   31.0249 C   0  0  0  0  0  0  0  0  0  0  0  0
   23.9549    6.4356   27.5296 C   0  0  0  0  0  0  0  0  0  0  0  0
   22.8382    9.8192   29.4424 C   0  0  0  0  0  0  0  0  0  0  0  0
   23.8859    5.3457   26.5505 C   0  0  0  0  0  0  0  0  0  0  0  0
   27.0724    7.0212   29.3478 O   0  0  0  0  0  0  0  0  0  0  0  0
   24.8534    8.6164   30.2606 C   0  0  0  0  0  0  0  0  0  0  0  0
   21.9039    7.9015   27.5889 O   0  0  0  0  0  0  0  0  0  0  0  0
   22.8909    7.6707   27.8158 C   0  0  0  0  0  0  0  0  0  0  0  0
   23.0089    3.4523   24.8807 S   0  0  0  0  0  0  0  0  0  0  0  0
   26.1677    5.7567   27.8176 C   0  0  0  0  0  0  0  0  0  0  0  0
   27.7549    5.7568   27.9509 N   0  0  0  0  0  0  0  0  0  0  0  0
   22.5430    3.3927   24.4968 O   0  0  0  0  0  0  0  0  0  0  0  0
   23.7958    8.4872   29.1765 C   0  0  0  0  0  0  0  0  0  0  0  0
   22.6458    5.4252   26.0667 N   0  0  0  0  0  0  0  0  0  0  0  0
   23.7119    3.3555   25.1604 N   0  0  0  0  0  0  0  0  0  0  0  0
   23.4995   10.5723   30.4848 C   0  0  0  0  0  0  0  0  0  0  0  0
   25.2166    6.8311   28.0278 C   0  0  0  0  0  0  0  0  0  0  0  0
  5  1  1  0
  5  3  1  0
  7  2  2  0
  9  3  1  0
  9  8  2  0
 11  1  1  0
 12  6  1  0
 12 11  1  0
 13 10  1  0
 14  4  2  0
 14  7  1  0
 14  9  1  0
 15  5  1  0
 16  5  1  0
 16 10  1  0
 17  2  1  0
 17  4  1  0
 18  3  2  0
 18 11  1  0
M  RAD  1   1   2
M  END
>  <ID>  (1) 
conformer_0

$$$$
