
     RDKit          3D

 15 15  0  0  0  0  0  0  0  0999 V2000
   23.7272    8.8397   29.4085 C   0  0  0  0  0  0  0  0  0  0  0  0
   23.5960   10.7162   30.9699 C   0  0  0  0  0  0  0  0  0  0  0  0
   25.0280    6.0114   27.2743 C   0  0  0  0  0  0  0  0  0  0  0  0
   23.5080    5.6786   26.7872 C   0  0  0  0  0  0  0  0  0  0  0  0
   22.9427   10.0691   29.7542 C   0  0  0  0  0  0  0  0  0  0  0  0
   23.4112    3.6869   25.1538 S   0  0  0  0  0  4  0  0  0  0  0  0
   27.1628    6.8202   28.8458 O   0  0  0  0  0  0  0  0  0  0  0  0
   24.9385    8.9058   30.2575 C   0  0  0  0  0  0  0  0  0  0  0  0
   23.2374    8.0096   28.3333 C   0  0  0  0  0  0  0  0  0  0  0  0
   21.8982    7.9533   27.8006 O   0  0  0  0  0  0  0  0  0  0  0  0
   22.3620    4.0243   24.6118 O   0  0  0  0  0  0  0  0  0  0  0  0
   25.5697    5.5034   27.4900 C   0  0  0  0  0  0  0  0  0  0  0  0
   24.1452    2.5823   25.1197 O   0  0  0  0  0  0  0  0  0  0  0  0
   24.2719    7.0986   27.9751 C   0  0  0  0  0  0  0  0  0  0  0  0
   24.7334    9.9716   31.2882 C   0  0  0  0  0  0  0  0  0  0  0  0
  4  3  1  0
  5  1  2  0
  5  2  1  0
  6  4  1  0
  8  1  1  0
  9  1  1  0
 10  9  1  0
 11  6  1  0
 12  3  1  0
 12  7  1  0
 13  6  1  0
 14  3  2  0
 14  9  2  0
 15  2  2  0
 15  8  1  0
M  END
>  <ID>  (1) 
conformer_0

$$$$
