
     RDKit          3D

 16 17  0  0  0  0  0  0  0  0999 V2000
   24.9390    9.2650   30.3265 C   0  0  0  0  0  3  0  0  0  0  0  0
   24.2174    8.3160   29.0969 C   0  0  0  0  0  0  0  0  0  0  0  0
   25.1122    4.8142   26.6796 C   0  0  0  0  0  0  0  0  0  0  0  0
   22.9837   10.3810   30.2641 C   0  0  0  0  0  0  0  0  0  0  0  0
   23.7892    5.4183   26.7565 C   0  0  0  0  0  0  0  0  0  0  0  0
   26.6373    7.4927   29.9354 O   0  0  0  0  0  0  0  0  0  0  0  0
   22.1092    7.3531   27.6206 O   0  0  0  0  0  0  0  0  0  0  0  0
   22.9216    9.3656   29.3274 C   0  0  0  0  0  0  0  0  0  0  0  0
   25.7150    7.5040   29.2051 C   0  0  0  0  0  0  0  0  0  0  0  0
   24.8266    6.5584   27.7460 C   0  0  0  0  0  0  0  0  0  0  0  0
   23.1573    7.6570   27.8711 C   0  0  0  0  0  0  0  0  0  0  0  0
   25.9134    5.4225   27.4331 C   0  0  0  0  0  0  0  0  0  0  0  0
   22.4496    3.3069   25.3397 O   0  0  0  0  0  0  0  0  0  0  0  0
   24.2844   10.3017   30.9471 C   0  0  0  0  0  0  0  0  0  0  0  0
   22.8948    3.4934   25.2767 S   0  0  0  0  0  0  0  0  0  0  0  0
   27.2511    6.1083   28.0542 N   0  0  0  0  0  0  0  0  0  0  0  0
  2  1  1  0
  5  3  2  0
  8  2  1  0
  8  4  2  0
  9  2  1  0
  9  6  2  0
 10  5  1  0
 10  9  1  0
 11  2  1  0
 11  7  2  0
 12  3  1  0
 12 10  1  0
 14  1  1  0
 14  4  1  0
 15  5  1  0
 15 13  1  0
 16 12  1  0
M  RAD  1   1   2
M  END
>  <ID>  (1) 
conformer_0

$$$$
