
     RDKit          3D

 18 19  0  0  0  0  0  0  0  0999 V2000
   24.8210    9.2020   30.4621 C   0  0  0  0  0  0  0  0  0  0  0  0
   24.2265   10.3090   31.0970 C   0  0  0  0  0  0  0  0  0  0  0  0
   24.0658    8.4185   29.2660 C   0  0  0  0  0  0  0  0  0  0  0  0
   22.8380    9.4739   29.4030 C   0  0  0  0  0  0  0  0  0  0  0  0
   23.9905    5.5204   26.5559 C   0  0  0  0  0  0  0  0  0  0  0  0
   21.8628    7.7481   27.4153 O   0  0  0  0  0  0  0  0  0  0  0  0
   22.9607    3.5409   25.3755 N   0  0  0  0  0  0  0  0  0  0  0  0
   24.6294    6.8988   27.4785 C   0  0  0  0  0  0  0  0  0  0  0  0
   26.1722    6.0879   27.6456 C   0  0  0  0  0  0  0  0  0  0  0  0
   27.2451    7.1692   29.2703 O   0  0  0  0  0  0  0  0  0  0  0  0
   25.4678    5.3447   26.7008 C   0  0  0  0  0  0  0  0  0  0  0  0
   27.5877    5.6814   27.9330 N   0  0  0  0  0  0  0  0  0  0  0  0
   22.9775    7.7726   27.8459 C   0  0  0  0  0  0  0  0  0  0  0  0
   22.6554    5.2356   26.1398 N   0  0  0  0  0  0  0  0  0  0  0  0
   23.0583    3.5245   24.8302 S   0  0  0  0  0  0  0  0  0  0  0  0
   23.0678    3.3624   24.1658 O   0  0  0  0  0  0  0  0  0  0  0  0
   23.0721   10.5115   30.3332 C   0  0  0  0  0  0  0  0  0  0  0  0
   22.8772    3.8220   25.5053 C   0  0  0  0  0  0  0  0  0  0  0  0
  2  1  2  0
  3  1  1  0
  4  3  1  0
  8  5  2  0
  9  8  1  0
 11  5  1  0
 11  9  1  0
 12  9  1  0
 12 10  1  0
 13  3  1  0
 13  6  2  0
 13  8  1  0
 14  5  1  0
 15  7  1  0
 16 15  1  0
 17  2  1  0
 17  4  2  0
 18  7  1  0
 18 14  1  0
M  END
>  <ID>  (1) 
conformer_0

$$$$
