
     RDKit          3D

 18 19  0  0  0  0  0  0  0  0999 V2000
   24.5873    8.5817   29.5759 C   0  0  0  0  0  0  0  0  0  0  0  0
   23.7854   10.5572   30.8653 C   0  0  0  0  0  0  0  0  0  0  0  0
   24.5280    7.1227   27.9320 C   0  0  0  0  0  0  0  0  0  0  0  0
   22.7542   10.3014   29.8223 C   0  0  0  0  0  0  0  0  0  0  0  0
   23.7922    5.3774   26.6089 C   0  0  0  0  0  0  0  0  0  0  0  0
   26.9319    7.4647   29.5565 O   0  0  0  0  0  0  0  0  0  0  0  0
   21.8686    7.8722   27.4965 O   0  0  0  0  0  0  0  0  0  0  0  0
   22.9335    7.8537   27.6517 C   0  0  0  0  0  0  0  0  0  0  0  0
   24.8437    9.5368   30.6701 C   0  0  0  0  0  0  0  0  0  0  0  0
   25.9242    7.4256   28.8851 C   0  0  0  0  0  0  0  0  0  0  0  0
   22.2625    3.8958   24.7797 O   0  0  0  0  0  0  0  0  0  0  0  0
   27.0381    5.4458   27.9360 N   0  0  0  0  0  0  0  0  0  0  0  0
   22.9830    3.3903   25.2128 S   0  0  0  0  0  4  0  0  0  0  0  0
   25.7758    5.3758   27.4397 C   0  0  0  0  0  0  0  0  0  0  0  0
   25.1943    5.5258   26.9371 C   0  0  0  0  0  0  0  0  0  0  0  0
   23.1642    9.1204   29.1372 C   0  0  0  0  0  0  0  0  0  0  0  0
   22.6025    6.0402   26.2409 N   0  0  0  0  0  0  0  0  0  0  0  0
   23.8980    2.6105   25.0546 O   0  0  0  0  0  0  0  0  0  0  0  0
  4  2  2  0
  8  3  1  0
  8  7  2  0
  9  1  2  0
  9  2  1  0
 10  1  1  0
 10  3  1  0
 10  6  2  0
 13  5  1  0
 13 11  1  0
 14 12  1  0
 15  3  1  0
 15  5  1  0
 15 14  1  0
 16  1  1  0
 16  4  1  0
 16  8  1  0
 17  5  1  0
 18 13  1  0
M  END
>  <ID>  (1) 
conformer_0

$$$$
