
     RDKit          3D

 17 20  0  0  0  0  0  0  0  0999 V2000
   23.6246   10.5220   30.9973 C   0  0  0  0  0  0  0  0  0  0  0  0
   25.1117    9.0328   30.0990 C   0  0  0  0  0  3  0  0  0  0  0  0
   24.4920    6.4535   27.6485 C   0  0  0  0  0  0  0  0  0  0  0  0
   24.5746    5.1650   26.4203 C   0  0  0  0  0  0  0  0  0  0  0  0
   23.4176    4.0094   25.4959 N   0  0  0  0  0  0  0  0  0  0  0  0
   24.9138    9.7854   30.9313 C   0  0  0  0  0  0  0  0  0  0  0  0
   22.1458    7.9302   27.5036 O   0  0  0  0  0  0  0  0  0  0  0  0
   26.5436    6.8070   28.6243 C   0  0  0  0  0  0  0  0  0  0  0  0
   22.8038   10.0183   29.8183 C   0  0  0  0  0  0  0  0  0  0  0  0
   23.1510    7.8877   27.9567 C   0  0  0  0  0  0  0  0  0  0  0  0
   27.0830    7.1862   29.1122 O   0  0  0  0  0  0  0  0  0  0  0  0
   25.6765    5.5383   26.9386 C   0  0  0  0  0  0  0  0  0  0  0  0
   22.0943    5.1582   26.2024 N   0  0  0  0  0  0  0  0  0  0  0  0
   22.0458    3.5432   25.3035 S   0  0  0  0  0  0  0  0  0  0  0  0
   24.6024    7.8867   28.8050 C   0  0  0  0  0  0  0  0  0  0  0  0
   23.2844    9.0333   29.2945 C   0  0  0  0  0  0  0  0  0  0  0  0
   23.2766    5.9080   26.8188 C   0  0  0  0  0  0  0  0  0  0  0  0
  5  4  1  0
  6  1  2  0
  6  2  1  0
  9  1  1  0
 10  7  2  0
 11  8  2  0
 12  3  1  0
 12  4  1  0
 12  8  2  0
 14  5  1  0
 14 13  1  0
 15  2  1  0
 15  3  1  0
 15 10  1  0
 16  9  2  0
 16 10  1  0
 16 15  1  0
 17  3  1  0
 17  4  2  0
 17 13  1  0
M  RAD  1   2   2
M  END
>  <ID>  (1) 
conformer_0

$$$$
