
     RDKit          3D

 20 21  0  0  0  0  0  0  0  0999 V2000
   24.4772    8.1288   29.2009 C   0  0  0  0  0  0  0  0  0  0  0  0
   25.0649    9.7126   30.7701 C   0  0  0  0  0  0  0  0  0  0  0  0
   24.7438    6.4539   27.3444 C   0  0  0  0  0  0  0  0  0  0  0  0
   23.4500    6.1043   26.7574 C   0  0  0  0  0  0  0  0  0  0  0  0
   23.9967   10.6623   31.0669 C   0  0  0  0  0  0  0  0  0  0  0  0
   23.0849    7.7660   28.0435 C   0  0  0  0  0  3  0  0  0  0  0  0
   25.3939    4.7705   26.2970 C   0  0  0  0  0  0  0  0  0  0  0  0
   22.2858    7.6172   27.7573 O   0  0  0  0  0  0  0  0  0  0  0  0
   22.7828    3.3501   24.1395 O   0  0  0  0  0  0  0  0  0  0  0  0
   27.2647    5.4237   27.5895 N   0  0  0  0  0  0  0  0  0  0  0  0
   26.0912    5.6941   27.4151 C   0  0  0  0  0  0  0  0  0  0  0  0
   26.9446    7.0122   29.1214 O   0  0  0  0  0  0  0  0  0  0  0  0
   22.8413   10.2549   30.1445 C   0  0  0  0  0  0  0  0  0  0  0  0
   25.4046    8.9433   30.3779 C   0  0  0  0  0  0  0  0  0  0  0  0
   22.8953    3.4365   24.8727 S   0  0  0  0  0  3  0  0  0  0  0  0
   22.7102    5.7394   26.0056 N   0  0  0  0  0  0  0  0  0  0  0  0
   21.6028    3.5126   25.3493 O   0  0  0  0  0  1  0  0  0  0  0  0
   25.2514    7.3361   28.7401 C   0  0  0  0  0  0  0  0  0  0  0  0
   23.2157    9.1998   29.5340 C   0  0  0  0  0  0  0  0  0  0  0  0
   24.2353    4.6172   26.1559 C   0  0  0  0  0  0  0  0  0  0  0  0
  4  3  2  0
  5  2  1  0
  6  1  1  0
  8  6  2  0
 11  3  1  0
 11  7  1  0
 11 10  1  0
 13  5  1  0
 14  1  1  0
 14  2  2  0
 15  9  1  0
 16  4  1  0
 17 15  1  0
 18  1  1  0
 18  3  1  0
 18 12  1  0
 19  1  1  0
 19 13  2  0
 20  4  1  0
 20  7  2  0
 20 15  1  0
M  RAD  3   6   2  15   2  17   2
M  END
>  <ID>  (1) 
conformer_0

$$$$
