
     RDKit          3D

 21 21  0  0  0  0  0  0  0  0999 V2000
   22.6316    9.9095   29.3764 C   0  0  0  0  0  0  0  0  0  0  0  0
   23.2564    8.6537   29.0284 C   0  0  0  0  0  0  0  0  0  0  0  0
   23.7358    6.3129   26.7825 C   0  0  1  0  0  0  0  0  0  0  0  0
   23.8475    4.4048   25.7938 C   0  0  0  0  0  0  0  0  0  0  0  0
   24.4660   10.2594   30.9997 C   0  0  0  0  0  0  0  0  0  0  0  0
   23.2884   10.6023   30.3200 C   0  0  0  0  0  0  0  0  0  0  0  0
   21.9553    7.4873   27.5774 O   0  0  0  0  0  0  0  0  0  0  0  0
   27.0327    7.2237   29.2553 O   0  0  0  0  0  0  0  0  0  0  0  0
   26.0927    6.9847   28.7412 C   0  0  0  0  0  0  0  0  0  0  0  0
   22.6832    7.7649   27.8800 C   0  0  0  0  0  0  0  0  0  0  0  0
   22.1587    3.9616   24.7063 O   0  0  0  0  0  0  0  0  0  0  0  0
   24.2746    3.9253   25.9432 N   0  0  0  0  0  0  0  0  0  0  0  0
   27.3497    5.4690   27.7806 N   0  0  0  0  0  0  0  0  0  0  0  0
   23.0677    3.4645   24.9518 S   0  0  0  0  0  0  0  0  0  0  0  0
   25.6118    5.1274   27.3037 C   0  0  0  0  0  0  0  0  0  0  0  0
   25.3426    9.1595   30.2951 C   0  0  0  0  0  0  0  0  0  0  0  0
   24.4225    8.4311   29.8159 C   0  0  0  0  0  0  0  0  0  0  0  0
   24.8906    6.8969   28.1402 C   0  0  0  0  0  0  0  0  0  0  0  0
   23.2538    5.7724   26.8033 C   0  0  0  0  0  0  0  0  0  0  0  0
   23.7216    2.7560   24.6314 O   0  0  0  0  0  0  0  0  0  0  0  0
   25.5160    5.4511   26.9525 C   0  0  0  0  0  0  0  0  0  0  0  0
  2  1  2  0
  6  1  1  0
  6  5  2  0
  9  8  2  0
 10  2  1  0
 10  3  1  0
 10  7  2  0
 12  4  2  3
 14  4  1  0
 14 11  1  0
 15 13  1  0
 16  5  1  0
 17  2  1  0
 17 16  2  0
 18  3  1  0
 18  9  2  0
  3 19  1  1
 19  4  1  0
 20 14  1  0
 21 15  1  0
 21 18  1  0
M  END
>  <ID>  (1) 
conformer_0

$$$$
