
     RDKit          3D

 19 20  0  0  0  0  0  0  0  0999 V2000
   24.8644    9.2689   30.1394 C   0  0  0  0  0  0  0  0  0  0  0  0
   24.0640    8.3271   29.1526 C   0  0  0  0  0  0  0  0  0  0  0  0
   25.5108    4.5487   26.1516 C   0  0  0  0  0  0  0  0  0  0  0  0
   22.6828    9.2966   29.3748 C   0  0  0  0  0  0  0  0  0  0  0  0
   23.9097    5.2792   26.6512 C   0  0  0  0  0  0  0  0  0  0  0  0
   22.0014    7.4086   27.6138 O   0  0  0  0  0  0  0  0  0  0  0  0
   24.8964    6.3125   27.4402 C   0  0  0  0  0  0  0  0  0  0  0  0
   22.8570   10.3432   30.2254 C   0  0  0  0  0  0  0  0  0  0  0  0
   26.7822    7.2457   29.2459 O   0  0  0  0  0  0  0  0  0  0  0  0
   22.3060    4.0683   24.5096 O   0  0  0  0  0  0  0  0  0  0  0  0
   22.7749    7.5788   28.0255 C   0  0  0  0  0  3  0  0  0  0  0  0
   23.0360    3.5937   25.5358 S   0  0  0  0  0  4  0  0  0  0  0  0
   26.1118    5.5419   27.0580 C   0  0  0  0  0  0  0  0  0  0  0  0
   24.2044   10.3342   30.8251 C   0  0  0  0  0  0  0  0  0  0  0  0
   25.4044    7.3020   28.6236 C   0  0  0  0  0  0  0  0  0  0  0  0
   27.2180    5.8961   27.4750 N   0  0  0  0  0  0  0  0  0  0  0  0
   22.5211    2.9511   26.5254 O   0  0  0  0  0  0  0  0  0  0  0  0
   23.9875    2.7329   24.8627 O   0  0  0  0  0  0  0  0  0  0  0  0
   27.5745    5.2657   26.7907 F   0  0  0  0  0  0  0  0  0  0  0  0
  2  1  1  0
  4  2  1  0
  5  3  1  0
  7  5  1  0
  8  4  2  0
 11  2  1  0
 11  6  2  0
 12  5  1  0
 12 10  1  0
 13  3  2  0
 13  7  1  0
 14  1  2  0
 14  8  1  0
 15  2  1  0
 15  7  1  0
 15  9  1  0
 16 13  1  0
 17 12  1  0
 18 12  1  0
 19 16  1  0
M  RAD  1  11   2
M  END
>  <ID>  (1) 
conformer_0

$$$$
