
     RDKit          3D

 20 21  0  0  0  0  0  0  0  0999 V2000
   25.3242    9.1935   30.5170 C   0  0  0  0  0  0  0  0  0  0  0  0
   24.5589   10.1446   31.2890 C   0  0  0  0  0  0  0  0  0  0  0  0
   25.0668    7.0197   28.0518 C   0  0  0  0  0  0  0  0  0  0  0  0
   23.6812    5.2801   26.4077 C   0  0  0  0  0  0  0  0  0  0  0  0
   22.6629    9.9088   29.7632 C   0  0  0  0  0  0  0  0  0  0  0  0
   23.3580   10.5277   30.8057 C   0  0  0  0  0  0  0  0  0  0  0  0
   27.0275    7.4731   29.4505 O   0  0  0  0  0  0  0  0  0  0  0  0
   21.8647    7.1751   27.1525 O   0  0  0  0  0  0  0  0  0  0  0  0
   25.6925    7.5009   29.0534 C   0  0  0  0  0  0  0  0  0  0  0  0
   25.6653    5.0878   26.6363 C   0  0  0  0  0  0  0  0  0  0  0  0
   22.9532    7.5048   27.5823 C   0  0  0  0  0  0  0  0  0  0  0  0
   25.7434    5.7158   27.2914 C   0  0  0  0  0  0  0  0  0  0  0  0
   27.2596    5.9259   27.7896 N   0  0  0  0  0  0  0  0  0  0  0  0
   22.0185    3.9202   25.2797 O   0  0  0  0  0  0  0  0  0  0  0  0
   23.3914    3.6104   25.0111 S   0  0  0  0  0  4  0  0  0  0  0  0
   23.8410    4.4407   24.3082 O   0  0  0  0  0  0  0  0  0  0  0  0
   23.8894    2.6498   24.8538 O   0  0  0  0  0  0  0  0  0  0  0  0
   23.3033    8.7005   29.1658 C   0  0  0  0  0  0  0  0  0  0  0  0
   23.9579    6.4110   26.9895 C   0  0  0  0  0  0  0  0  0  0  0  0
   24.5232    8.4597   29.7611 C   0  0  0  0  0  0  0  0  0  0  0  0
  2  1  2  0
  6  2  1  0
  6  5  2  0
  9  3  1  0
  9  7  1  0
 11  8  1  0
 12  3  1  0
 12 10  1  0
 13 12  1  0
 15  4  1  0
 15 14  1  0
 16 15  1  0
 17 15  1  0
 18  5  1  0
 19  3  1  0
 19  4  1  0
 19 11  1  0
 19 12  1  0
 20  1  1  0
 20  9  1  0
 20 18  2  0
M  END
>  <ID>  (1) 
conformer_0

$$$$
