
     RDKit          3D

 17 18  0  0  0  0  0  0  0  0999 V2000
   23.6138    8.9920   29.0126 C   0  0  0  0  0  0  0  0  0  0  0  0
   23.0131   10.1862   29.6350 C   0  0  0  0  0  0  0  0  0  0  0  0
   23.8059   10.5683   30.8515 C   0  0  0  0  0  0  0  0  0  0  0  0
   25.0440    4.8492   27.0461 C   0  0  0  0  0  0  0  0  0  0  0  0
   23.8400    5.3798   26.7237 C   0  0  0  0  0  0  0  0  0  0  0  0
   21.9930    7.9723   27.3397 O   0  0  0  0  0  0  0  0  0  0  0  0
   24.8863    9.6601   30.8657 C   0  0  0  0  0  0  0  0  0  0  0  0
   23.1164    2.3736   25.6432 O   0  0  0  0  0  0  0  0  0  0  0  0
   23.1220    7.8470   27.7764 C   0  0  0  0  0  0  0  0  0  0  0  0
   27.1747    5.9657   28.0144 N   0  0  0  0  0  0  0  0  0  0  0  0
   25.8826    5.9272   27.8799 C   0  0  0  0  0  0  0  0  0  0  0  0
   22.5802    5.7983   26.4430 N   0  0  0  0  0  0  0  0  0  0  0  0
   23.0081    3.5175   25.1443 S   0  0  0  0  0  4  0  0  0  0  0  0
   24.5927    6.8564   27.6889 C   0  0  0  0  0  0  0  0  0  0  0  0
   26.5770    6.9564   29.2836 O   0  0  0  0  0  0  0  0  0  0  0  0
   24.8722    8.7139   29.6592 C   0  0  0  0  0  0  0  0  0  0  0  0
   22.4350    3.8032   24.4307 O   0  0  0  0  0  0  0  0  0  0  0  0
  2  1  2  0
  3  2  1  0
  5  4  1  0
  7  3  2  0
  9  1  1  0
  9  6  2  0
 11  4  1  0
 11 10  1  0
 12  5  1  0
 13  5  1  0
 13  8  1  0
 14  5  1  0
 14  9  1  0
 14 11  1  0
 15 10  1  0
 16  1  1  0
 16  7  1  0
 17 13  1  0
M  END
>  <ID>  (1) 
conformer_0

$$$$
