
     RDKit          3D

 21 25  0  0  0  0  0  0  0  0999 V2000
   24.2155    8.3259   29.0213 C   0  0  0  0  0  0  0  0  0  0  0  0
   23.6598   10.5681   31.1241 C   0  0  0  0  0  0  0  0  0  0  0  0
   24.6257    4.3155   26.0434 C   0  0  0  0  0  0  0  0  0  0  0  0
   23.8748    4.5769   26.0681 C   0  0  0  0  0  0  0  0  0  0  0  0
   22.9626    9.2595   29.2678 C   0  0  0  0  0  0  0  0  0  0  0  0
   24.8591    6.3922   27.6912 C   0  0  0  0  0  0  0  0  0  0  0  0
   21.9836    7.8051   27.7424 O   0  0  0  0  0  0  0  0  0  0  0  0
   25.0660    9.0886   30.0046 C   0  0  0  0  0  0  0  0  0  0  0  0
   23.0518    7.9852   28.0613 C   0  0  0  0  0  0  0  0  0  0  0  0
   27.2349    7.0021   28.7106 O   0  0  0  0  0  0  0  0  0  0  0  0
   22.9035    3.3880   25.0423 S   0  0  0  0  0  4  0  0  0  0  0  0
   23.6289    2.9266   24.6495 O   0  0  0  0  0  0  0  0  0  0  0  0
   26.0078    7.0258   28.4443 C   0  0  0  0  0  0  0  0  0  0  0  0
   26.0143    5.7285   27.2084 C   0  0  0  0  0  0  0  0  0  0  0  0
   27.0401    6.0548   27.5544 N   0  0  0  0  0  0  0  0  0  0  0  0
   24.7800    9.8433   30.9930 C   0  0  0  0  0  0  0  0  0  0  0  0
   22.6618    5.7312   26.6635 N   0  0  0  0  0  0  0  0  0  0  0  0
   23.5387    6.0599   27.1704 C   0  0  0  0  0  0  0  0  0  0  0  0
   25.9762    4.7367   26.4678 C   0  0  0  0  0  3  0  0  0  0  0  0
   21.9329    3.5607   25.9048 O   0  0  0  0  0  0  0  0  0  0  0  0
   22.7724   10.2739   29.9523 C   0  0  0  0  0  0  0  0  0  0  0  0
  4  3  2  0
  5  1  1  0
  8  1  2  0
  9  1  1  0
  9  5  1  0
  9  7  1  0
 11  4  1  0
 12 11  1  0
 13  6  1  0
 13 10  1  0
 14  6  1  0
 14 13  1  0
 15 10  1  0
 15 14  1  0
 16  2  2  0
 16  8  1  0
 17  4  1  0
 18  6  2  0
 18  9  1  0
 18 17  1  0
 19  3  1  0
 19 14  1  0
 20 11  1  0
 21  2  1  0
 21  5  2  0
M  RAD  1  19   2
M  END
>  <ID>  (1) 
conformer_0

$$$$
