
     RDKit          3D

 16 16  0  0  0  0  0  0  0  0999 V2000
   22.9660   10.3279   30.2738 C   0  0  0  0  0  0  0  0  0  0  0  0
   24.4960    8.3967   29.3882 C   0  0  0  0  0  0  0  0  0  0  0  0
   24.9034    6.9617   27.6862 C   0  0  0  0  0  0  0  0  0  0  0  0
   25.1577    9.3670   30.5449 C   0  0  0  0  0  0  0  0  0  0  0  0
   23.8573    5.4453   26.7830 C   0  0  0  0  0  0  0  0  0  0  0  0
   21.9626    7.6565   27.5783 O   0  0  0  0  0  0  0  0  0  0  0  0
   24.2477   10.3730   31.0539 C   0  0  0  0  0  0  0  0  0  0  0  0
   22.9770    3.8073   25.1074 S   0  0  0  0  0  4  0  0  0  0  0  0
   23.0636    7.8342   27.8551 C   0  0  0  0  0  0  0  0  0  0  0  0
   23.6706    3.3092   24.2923 O   0  0  0  0  0  0  0  0  0  0  0  0
   27.8405    5.6296   28.5188 N   0  0  0  0  0  0  0  0  0  0  0  0
   25.7038    5.6128   27.0831 C   0  0  0  0  0  0  0  0  0  0  0  0
   22.6713    5.7793   26.2146 N   0  0  0  0  0  0  0  0  0  0  0  0
   25.9437    6.0989   28.1383 C   0  0  0  0  0  0  0  0  0  0  0  0
   23.1493    9.2074   29.3436 C   0  0  0  0  0  0  0  0  0  0  0  0
   21.8437    3.4785   25.4968 O   0  0  0  0  0  0  0  0  0  0  0  0
  4  2  2  0
  7  1  2  0
  7  4  1  0
  9  3  1  0
  9  6  2  0
 10  8  1  0
 12  5  1  0
 13  5  1  0
 13  8  1  0
 14  3  1  0
 14 11  1  0
 14 12  1  0
 15  1  1  0
 15  2  1  0
 15  9  1  0
 16  8  1  0
M  END
>  <ID>  (1) 
conformer_0

$$$$
