
     RDKit          3D

 18 19  0  0  0  0  0  0  0  0999 V2000
   24.4542   10.1792   31.1488 C   0  0  0  0  0  0  0  0  0  0  0  0
   24.0188    8.4340   29.3656 C   0  0  0  0  0  0  0  0  0  0  0  0
   25.4628    5.1072   26.5835 C   0  0  0  0  0  0  0  0  0  0  0  0
   23.1596   10.4567   30.6234 C   0  0  0  0  0  0  0  0  0  0  0  0
   23.8635    5.3243   26.4633 C   0  0  0  0  0  0  0  0  0  0  0  0
   23.3615    3.3239   25.0772 S   0  0  0  0  0  4  0  0  0  0  0  0
   26.9057    7.3275   29.1589 O   0  0  0  0  0  0  0  0  0  0  0  0
   22.7322    9.5352   29.5995 C   0  0  0  0  0  3  0  0  0  0  0  0
   21.7955    7.4542   27.5153 O   0  0  0  0  0  0  0  0  0  0  0  0
   22.7486    7.6900   27.9181 C   0  0  0  0  0  0  0  0  0  0  0  0
   22.3564    3.9764   24.6843 O   0  0  0  0  0  0  0  0  0  0  0  0
   24.9366    6.6581   27.4186 C   0  0  0  0  0  0  0  0  0  0  0  0
   25.9993    5.4779   27.1859 C   0  0  0  0  0  0  0  0  0  0  0  0
   27.3985    5.8888   27.6776 N   0  0  0  0  0  0  0  0  0  0  0  0
   25.5085    7.4820   28.7085 C   0  0  0  0  0  0  0  0  0  0  0  0
   25.0158    9.0525   30.3385 C   0  0  0  0  0  0  0  0  0  0  0  0
   22.7965    6.1092   26.4154 N   0  0  0  0  0  0  0  0  0  0  0  0
   23.4339    2.3234   25.0169 O   0  0  0  0  0  0  0  0  0  0  0  0
  4  1  2  0
  5  3  1  0
  6  5  1  0
  8  2  1  0
  8  4  1  0
 10  2  1  0
 10  9  2  0
 11  6  1  0
 12  5  1  0
 13  3  1  0
 13 12  1  0
 14 13  1  0
 15  2  1  0
 15  7  1  0
 15 12  1  0
 16  1  1  0
 16  2  1  0
 17  5  1  0
 18  6  1  0
M  RAD  1   8   2
M  END
>  <ID>  (1) 
conformer_0

$$$$
