
     RDKit          3D

 19 19  0  0  0  0  0  0  0  0999 V2000
   24.6437    9.9582   30.8955 C   0  0  0  0  0  0  0  0  0  0  0  0
   23.2009    9.0436   29.2853 C   0  0  0  0  0  0  0  0  0  0  0  0
   24.5421    7.0072   28.0983 C   0  0  0  0  0  0  0  0  0  0  0  0
   23.5293   10.7815   30.8350 C   0  0  0  0  0  0  0  0  0  0  0  0
   22.6431   10.2260   29.6789 C   0  0  0  0  0  0  0  0  0  0  0  0
   23.6665    5.8816   26.8890 C   0  0  0  0  0  0  0  0  0  0  0  0
   26.9397    6.9912   29.1842 O   0  0  0  0  0  0  0  0  0  0  0  0
   21.9262    7.6890   27.2161 O   0  0  0  0  0  0  0  0  0  0  0  0
   26.4447    5.1824   26.6026 C   0  0  0  0  0  0  0  0  0  0  0  0
   22.7109    7.5640   27.7125 C   0  0  0  0  0  0  0  0  0  0  0  0
   23.2586    3.6568   25.4846 S   0  0  0  0  0  4  0  0  0  0  0  0
   22.2595    3.4577   26.5544 O   0  0  0  0  0  0  0  0  0  0  0  0
   24.5800    2.8499   24.9522 O   0  0  0  0  0  0  0  0  0  0  0  0
   26.3680    5.9911   27.6641 C   0  0  0  0  0  0  0  0  0  0  0  0
   24.5564    8.8767   30.0320 C   0  0  0  0  0  0  0  0  0  0  0  0
   25.0146    7.4197   28.7548 C   0  0  0  0  0  0  0  0  0  0  0  0
   24.5612    5.5060   26.9349 C   0  0  0  0  0  0  0  0  0  0  0  0
   22.6457    4.0761   24.5137 O   0  0  0  0  0  0  0  0  0  0  0  0
   25.1252    4.4678   26.2733 C   0  0  2  0  0  0  0  0  0  0  0  0
  4  1  2  0
  5  2  2  0
  5  4  1  0
  6  3  1  0
 10  3  2  0
 10  8  2  0
 12 11  1  0
 13 11  1  0
 14  7  2  0
 14  9  2  0
 15  1  1  0
 15  2  1  0
 16  3  1  0
 16 15  1  0
 17  6  2  3
 18 11  1  0
 19  9  1  0
 19 11  1  6
 19 17  1  0
M  END
>  <ID>  (1) 
conformer_0

$$$$
