
     RDKit          3D

 16 16  0  0  0  0  0  0  0  0999 V2000
   24.3103    8.3773   29.3323 C   0  0  0  0  0  0  0  0  0  0  0  0
   23.1778   10.4064   30.5663 C   0  0  0  0  0  0  0  0  0  0  0  0
   24.3936    6.8320   27.7337 C   0  0  0  0  0  0  0  0  0  0  0  0
   25.1959    9.2722   30.3679 C   0  0  0  0  0  0  0  0  0  0  0  0
   23.6010    5.4296   26.5637 C   0  0  0  0  0  0  0  0  0  0  0  0
   23.0369    3.5600   25.0380 S   0  0  0  0  0  4  0  0  0  0  0  0
   22.0337    7.5966   28.0038 O   0  0  0  0  0  0  0  0  0  0  0  0
   23.2982    7.7242   28.3167 C   0  0  0  0  0  0  0  0  0  0  0  0
   24.5510   10.2352   31.1141 C   0  0  0  0  0  0  0  0  0  0  0  0
   25.9130    5.6988   27.2396 C   0  0  0  0  0  0  0  0  0  0  0  0
   24.9471    5.3966   26.7298 C   0  0  0  0  0  0  0  0  0  0  0  0
   23.8105    3.3958   24.2654 O   0  0  0  0  0  0  0  0  0  0  0  0
   23.7558    2.7274   26.1444 O   0  0  0  0  0  0  0  0  0  0  0  0
   22.9684    9.4278   29.6206 C   0  0  0  0  0  0  0  0  0  0  0  0
   26.8185    7.2251   28.8602 O   0  0  0  0  0  0  0  0  0  0  0  0
   21.8635    3.4507   25.0707 O   0  0  0  0  0  0  0  0  0  0  0  0
  4  1  2  0
  6  5  1  0
  8  1  1  0
  8  3  2  3
  8  7  1  0
  9  2  2  0
  9  4  1  0
 11  3  1  0
 11  5  1  0
 11 10  2  3
 12  6  1  0
 13  6  1  0
 14  1  1  0
 14  2  1  0
 15 10  1  0
 16  6  1  0
M  END
>  <ID>  (1) 
conformer_0

$$$$
