
     RDKit          3D

 22 23  0  0  0  0  0  0  0  0999 V2000
   23.6815    8.5006   29.2325 C   0  0  0  0  0  0  0  0  0  0  0  0
   24.9662    8.7678   30.0106 C   0  0  0  0  0  0  0  0  0  0  0  0
   23.9113    6.2925   27.1022 C   0  0  0  0  0  0  0  0  0  0  0  0
   23.0555   10.5562   30.2877 C   0  0  0  0  0  0  0  0  0  0  0  0
   23.5206    5.3031   26.4869 C   0  0  0  0  0  0  0  0  0  0  0  0
   22.8723    9.6076   29.3366 C   0  0  0  0  0  0  0  0  0  0  0  0
   21.7003    7.6560   27.7062 O   0  0  0  0  0  0  0  0  0  0  0  0
   26.8567    7.3101   29.4558 O   0  0  0  0  0  0  0  0  0  0  0  0
   25.7941    5.0820   26.6590 C   0  0  0  0  0  0  0  0  0  0  0  0
   25.7163    7.2817   28.8853 C   0  0  0  0  0  0  0  0  0  0  0  0
   23.1577    2.1709   25.5097 O   0  0  0  0  0  0  0  0  0  0  0  0
   26.9193    6.0775   27.9871 N   0  0  0  0  0  0  0  0  0  0  0  0
   23.8760    3.2787   25.1217 S   0  0  0  0  0  6  0  0  0  0  0  0
   22.7213    7.6239   27.7835 C   0  0  0  0  0  0  0  0  0  0  0  0
   25.1946    2.7583   24.7803 O   0  0  0  0  0  0  0  0  0  0  0  0
   23.8081    3.6845   23.2483 O   0  0  0  0  0  0  0  0  0  0  0  0
   25.4246    5.5274   27.1829 C   0  0  0  0  0  0  0  0  0  0  0  0
   22.4042    5.5044   26.4057 N   0  0  0  0  0  0  0  0  0  0  0  0
   25.1583    9.6071   30.7834 C   0  0  0  0  0  0  0  0  0  0  0  0
   24.1207   10.5808   31.1986 C   0  0  0  0  0  0  0  0  0  0  0  0
   22.3508    4.0709   24.9379 O   0  0  0  0  0  0  0  0  0  0  0  0
   24.8200    7.0867   28.1231 C   0  0  0  0  0  0  0  0  0  0  0  0
  2  1  2  0
  5  3  1  0
  6  1  1  0
  6  4  2  0
 10  2  1  0
 10  8  2  0
 13  5  1  0
 13 11  1  0
 14  1  1  0
 14  7  2  0
 15 13  1  0
 16 13  1  0
 17  3  1  0
 17  9  1  0
 17 12  1  0
 18  5  1  0
 19  2  1  0
 20  4  1  0
 20 19  2  0
 21 13  1  0
 22  3  1  0
 22 10  1  0
 22 17  1  0
M  END
>  <ID>  (1) 
conformer_0

$$$$
