
     RDKit          3D

 17 17  0  0  0  0  0  0  0  0999 V2000
   24.1508    8.3116   29.0651 C   0  0  0  0  0  0  0  0  0  0  0  0
   25.1083    9.1462   30.3231 C   0  0  0  0  0  3  0  0  0  0  0  0
   24.7650    6.6073   27.4192 C   0  0  0  0  0  0  0  0  0  0  0  0
   22.9735    9.4958   29.4936 C   0  0  0  0  0  0  0  0  0  0  0  0
   23.4816    5.3665   26.4774 C   0  0  0  0  0  0  0  0  0  0  0  0
   26.7164    7.4823   29.3652 O   0  0  0  0  0  0  0  0  0  0  0  0
   21.7469    7.9090   28.0991 O   0  0  0  0  0  0  0  0  0  0  0  0
   24.9205    4.8495   26.6962 C   0  0  0  0  0  0  0  0  0  0  0  0
   22.9048    3.2253   24.7867 O   0  0  0  0  0  0  0  0  0  0  0  0
   22.1746    5.9405   26.3147 N   0  0  0  0  0  0  0  0  0  0  0  0
   22.7824    7.7495   27.8339 C   0  0  0  0  0  0  0  0  0  0  0  0
   23.1564   10.3972   30.4255 C   0  0  0  0  0  0  0  0  0  0  0  0
   25.7376    7.4194   28.6879 C   0  0  0  0  0  0  0  0  0  0  0  0
   27.4383    5.5388   27.3402 N   0  0  0  0  0  0  0  0  0  0  0  0
   25.6165    5.0971   26.9070 C   0  0  0  0  0  0  0  0  0  0  0  0
   24.4495   10.2149   31.1055 C   0  0  0  0  0  0  0  0  0  0  0  0
   26.5763    3.9030   26.2674 F   0  0  0  0  0  0  0  0  0  0  0  0
  2  1  1  0
  4  1  1  0
  8  5  1  0
  9  5  1  0
 10  5  1  0
 11  1  1  0
 11  7  2  0
 12  4  1  0
 13  1  1  0
 13  3  1  0
 13  6  2  0
 15  3  1  0
 15  8  1  0
 15 14  1  0
 16  2  1  0
 16 12  2  0
 17 15  1  0
M  RAD  1   2   2
M  END
>  <ID>  (1) 
conformer_0

$$$$
