
     RDKit          3D

 18 18  0  0  0  0  0  0  0  0999 V2000
   23.6161    8.9069   29.2469 C   0  0  0  0  0  0  0  0  0  0  0  0
   25.4234    6.1792   27.9370 C   0  0  0  0  0  0  0  0  0  0  0  0
   23.6772   10.5245   30.8899 C   0  0  0  0  0  0  0  0  0  0  0  0
   24.6116    9.5950   31.1166 C   0  0  0  0  0  0  0  0  0  0  0  0
   23.8305    5.3677   26.6401 C   0  0  0  0  0  0  0  0  0  0  0  0
   23.0236    3.6659   25.1132 S   0  0  0  0  0  0  0  0  0  0  0  0
   26.6886    6.9139   29.6652 O   0  0  0  0  0  0  0  0  0  0  0  0
   21.8609    7.6576   27.4773 O   0  0  0  0  0  0  0  0  0  0  0  0
   22.8934    9.9783   29.6058 C   0  0  0  0  0  0  0  0  0  0  0  0
   22.8953    7.7833   27.7384 C   0  0  0  0  0  0  0  0  0  0  0  0
   22.2759    4.1217   24.9088 O   0  0  0  0  0  0  0  0  0  0  0  0
   27.6087    5.8246   27.5289 N   0  0  0  0  0  0  0  0  0  0  0  0
   26.1837    5.3394   26.9486 C   0  0  0  0  0  0  0  0  0  0  0  0
   25.2284    4.9363   26.4992 C   0  0  0  0  0  0  0  0  0  0  0  0
   25.9144    6.9490   28.9849 C   0  0  0  0  0  0  0  0  0  0  0  0
   24.8100    8.6295   29.9842 C   0  0  0  0  0  0  0  0  0  0  0  0
   24.0869    6.8244   28.0322 C   0  0  0  0  0  0  0  0  0  0  0  0
   23.7669    3.0635   24.4622 O   0  0  0  0  0  0  0  0  0  0  0  0
  4  3  2  0
  6  5  1  0
  9  1  2  0
  9  3  1  0
 10  1  1  0
 10  8  1  0
 11  6  1  0
 13  2  1  0
 13 12  1  0
 14  5  1  0
 14 13  2  3
 15  2  1  0
 15  7  2  0
 16  1  1  0
 16  4  1  0
 17  2  2  0
 17 10  2  0
 18  6  1  0
M  END
>  <ID>  (1) 
conformer_0

$$$$
