
     RDKit          3D

 19 20  0  0  0  0  0  0  0  0999 V2000
   23.7969   10.5960   31.1714 C   0  0  0  0  0  0  0  0  0  0  0  0
   25.0014    9.9531   30.9973 C   0  0  0  0  0  0  0  0  0  0  0  0
   24.9002    9.0634   30.0124 C   0  0  0  0  0  0  0  0  0  0  0  0
   22.9209   10.0643   29.9626 C   0  0  0  0  0  0  0  0  0  0  0  0
   23.1255    3.5699   25.1483 S   0  0  0  0  0  4  0  0  0  0  0  0
   24.2618    6.3504   27.3612 C   0  0  0  0  0  3  0  0  0  0  0  0
   26.4101    5.9574   27.7685 C   0  0  0  0  0  0  0  0  0  0  0  0
   27.1157    7.2524   29.4635 O   0  0  0  0  0  0  0  0  0  0  0  0
   23.0041    7.5587   27.8301 C   0  0  0  0  0  0  0  0  0  0  0  0
   27.6660    5.6702   27.9652 N   0  0  0  0  0  0  0  0  0  0  0  0
   25.8460    5.1669   26.6713 C   0  0  0  0  0  3  0  0  0  0  0  0
   21.9953    7.7527   27.4744 O   0  0  0  0  0  0  0  0  0  0  0  0
   22.3181    3.6385   24.4546 O   0  0  0  0  0  0  0  0  0  0  0  0
   22.3426    5.7229   26.1824 N   0  0  0  0  0  0  0  0  0  0  0  0
   24.0404    5.3309   26.8615 C   0  0  0  0  0  0  0  0  0  0  0  0
   23.5815    8.8644   29.3709 C   0  0  0  0  0  0  0  0  0  0  0  0
   25.0376    7.2073   28.2568 C   0  0  0  0  0  0  0  0  0  0  0  0
   23.4382    3.6710   26.6731 O   0  0  0  0  0  0  0  0  0  0  0  0
   23.8414    2.7179   25.0117 O   0  0  0  0  0  0  0  0  0  0  0  0
  2  1  2  0
  3  2  1  0
  4  1  1  0
  8  7  1  0
  9  6  1  0
 10  7  1  0
 11  7  1  0
 12  9  2  0
 13  5  1  0
 15  6  1  0
 15 11  1  0
 15 14  1  0
 16  3  2  0
 16  4  1  0
 16  9  1  0
 17  6  1  0
 17  7  1  0
 18  5  1  0
 18 15  1  0
 19  5  1  0
M  RAD  2   6   2  11   2
M  END
>  <ID>  (1) 
conformer_0

$$$$
