
     RDKit          3D

 18 18  0  0  0  0  0  0  0  0999 V2000
   24.5663    8.4154   29.5339 C   0  0  0  0  0  0  0  0  0  0  0  0
   24.3292    5.0189   26.0813 C   0  0  0  0  0  0  0  0  0  0  0  0
   24.2081   10.3104   31.2848 C   0  0  0  0  0  0  0  0  0  0  0  0
   24.9266    9.2862   30.6213 C   0  0  0  0  0  0  0  0  0  0  0  0
   23.4517    5.5209   26.3641 C   0  0  0  0  0  0  0  0  0  0  0  0
   26.9547    7.1573   29.2701 O   0  0  0  0  0  0  0  0  0  0  0  0
   22.0225    7.3304   27.6936 O   0  0  0  0  0  0  0  0  0  0  0  0
   23.2258    3.3306   24.3872 O   0  0  0  0  0  0  0  0  0  0  0  0
   23.0885   10.2531   30.2903 C   0  0  0  0  0  0  0  0  0  0  0  0
   26.3086    6.0619   27.7961 C   0  0  0  0  0  0  0  0  0  0  0  0
   23.0893    7.5983   27.9506 C   0  0  0  0  0  0  0  0  0  0  0  0
   24.4255    7.1061   27.6453 C   0  0  0  0  0  0  0  0  0  0  0  0
   22.8027    3.6631   25.0306 S   0  0  0  0  0  0  0  0  0  0  0  0
   27.3296    5.7965   27.7966 N   0  0  0  0  0  0  0  0  0  0  0  0
   23.1225    8.9817   29.4279 C   0  0  0  0  0  0  0  0  0  0  0  0
   25.2290    4.5301   26.0626 C   0  0  0  0  0  0  0  0  0  0  0  0
   25.6960    5.9895   27.1819 C   0  0  0  0  0  0  0  0  0  0  0  0
   21.7975    3.8971   25.3619 O   0  0  0  0  0  0  0  0  0  0  0  0
  4  1  2  0
  4  3  1  0
  5  2  2  3
  9  3  2  0
 10  6  2  0
 11  7  1  0
 12 11  2  0
 13  2  1  0
 13  8  1  0
 14 10  1  0
 15  1  1  0
 15  9  1  0
 15 11  1  0
 16  2  1  0
 17 10  1  0
 17 12  2  0
 17 16  1  0
 18 13  1  0
M  END
>  <ID>  (1) 
conformer_0

$$$$
