
     RDKit          3D

 17 19  0  0  0  0  0  0  0  0999 V2000
   23.1182   10.3207   30.3086 C   0  0  0  0  0  0  0  0  0  0  0  0
   24.1045    8.2415   29.0634 C   0  0  0  0  0  0  0  0  0  0  0  0
   24.5081    6.3681   27.1850 C   0  0  0  0  0  0  0  0  0  0  0  0
   24.5120   10.1252   30.8260 C   0  0  0  0  0  0  0  0  0  0  0  0
   23.5201    5.1947   26.4939 C   0  0  0  0  0  0  0  0  0  0  0  0
   25.0983    8.9902   30.0924 C   0  0  0  0  0  3  0  0  0  0  0  0
   21.7386    7.7109   27.4529 O   0  0  0  0  0  0  0  0  0  0  0  0
   22.8956    7.5406   27.6720 C   0  0  0  0  0  0  0  0  0  0  0  0
   25.3465    4.5830   26.2470 C   0  0  0  0  0  0  0  0  0  0  0  0
   27.1768    7.4966   29.5425 O   0  0  0  0  0  0  0  0  0  0  0  0
   25.7077    5.5675   27.2508 C   0  0  0  0  0  3  0  0  0  0  0  0
   22.2772    3.9892   24.7062 O   0  0  0  0  0  0  0  0  0  0  0  0
   27.0313    5.8631   28.0767 S   0  0  0  0  0  3  0  0  0  0  0  0
   22.8918    3.5121   24.9957 S   0  0  0  0  0  4  0  0  0  0  0  0
   22.8597    9.4042   29.3888 C   0  0  0  0  0  0  0  0  0  0  0  0
   25.8870    7.5683   29.2255 C   0  0  0  0  0  0  0  0  0  0  0  0
   23.7090    2.5082   25.2134 O   0  0  0  0  0  0  0  0  0  0  0  0
  4  1  2  0
  5  3  1  0
  6  2  1  0
  6  4  1  0
  8  2  1  0
  8  7  2  0
  9  5  1  0
 11  3  1  0
 11  9  1  0
 13 10  1  0
 13 11  1  0
 14  5  1  0
 14 12  1  0
 15  1  1  0
 15  2  1  0
 16  2  1  0
 16  6  1  0
 16 10  1  0
 17 14  1  0
M  RAD  3   6   2  11   2  13   2
M  END
>  <ID>  (1) 
conformer_0

$$$$
