
     RDKit          3D

 18 18  0  0  0  0  0  0  0  0999 V2000
   25.0890    9.5507   30.5509 C   0  0  0  0  0  0  0  0  0  0  0  0
   24.2242   10.4489   31.1356 C   0  0  0  0  0  0  0  0  0  0  0  0
   24.6496    6.9008   27.7470 C   0  0  0  0  0  0  0  0  0  0  0  0
   23.5103    5.6227   26.5915 C   0  0  0  0  0  0  0  0  0  0  0  0
   23.0124   10.4493   30.3543 C   0  0  0  0  0  0  0  0  0  0  0  0
   24.3982    8.6579   29.4202 C   0  0  0  0  0  0  0  0  0  0  0  0
   26.9830    7.0472   29.2841 O   0  0  0  0  0  0  0  0  0  0  0  0
   21.8069    7.7216   27.7202 O   0  0  0  0  0  0  0  0  0  0  0  0
   22.9453    7.8696   27.9296 C   0  0  0  0  0  0  0  0  0  0  0  0
   27.6384    5.4672   27.8705 N   0  0  0  0  0  0  0  0  0  0  0  0
   25.3158    5.2701   27.0494 C   0  0  0  0  0  0  0  0  0  0  0  0
   22.0145    4.1466   25.2099 O   0  0  0  0  0  0  0  0  0  0  0  0
   26.6432    6.6465   28.2756 C   0  0  0  0  0  0  0  0  0  0  0  0
   22.7925    6.6594   26.0671 N   0  0  0  0  0  0  0  0  0  0  0  0
   25.3087    5.2467   27.2464 C   0  0  0  0  0  0  0  0  0  0  0  0
   22.9525    3.8071   25.3028 S   0  0  0  0  0  4  0  0  0  0  0  0
   22.9905    9.2965   29.3935 C   0  0  0  0  0  0  0  0  0  0  0  0
   23.6486    2.7636   25.1815 O   0  0  0  0  0  0  0  0  0  0  0  0
  2  1  2  0
  5  2  1  0
  6  1  1  0
  9  3  1  0
  9  8  2  0
 11  4  1  0
 13  7  1  0
 13 10  1  0
 14  4  1  0
 15  3  1  0
 15 11  1  0
 15 13  1  0
 16  4  1  0
 16 12  1  0
 17  5  2  0
 17  6  1  0
 17  9  1  0
 18 16  1  0
M  END
>  <ID>  (1) 
conformer_0

$$$$
