
     RDKit          3D

 20 21  0  0  0  0  0  0  0  0999 V2000
   23.9675    8.3101   29.0722 C   0  0  0  0  0  0  0  0  0  0  0  0
   24.9024    9.1281   29.9704 C   0  0  0  0  0  3  0  0  0  0  0  0
   23.7233    5.9195   27.1055 C   0  0  0  0  0  0  0  0  0  0  0  0
   24.7579    9.8176   30.9845 C   0  0  0  0  0  0  0  0  0  0  0  0
   24.0861    5.2166   26.5870 C   0  0  0  0  0  0  0  0  0  0  0  0
   22.2270    7.7131   27.6626 O   0  0  0  0  0  0  0  0  0  0  0  0
   26.7042    7.4601   29.5068 O   0  0  0  0  0  0  0  0  0  0  0  0
   23.1787    3.3405   25.1016 S   0  0  0  0  0  4  0  0  0  0  0  0
   27.4195    6.0672   27.6664 N   0  0  0  0  0  0  0  0  0  0  0  0
   22.7586    9.4288   29.3477 C   0  0  0  0  0  0  0  0  0  0  0  0
   25.6161    4.9093   26.3864 C   0  0  0  0  0  0  0  0  0  0  0  0
   23.0177    7.8459   27.9547 C   0  0  0  0  0  0  0  0  0  0  0  0
   22.8184    2.1732   25.9780 O   0  0  0  0  0  0  0  0  0  0  0  0
   26.1764    5.8498   27.3856 C   0  0  0  0  0  0  0  0  0  0  0  0
   24.4770    3.0371   24.3828 O   0  0  0  0  0  0  0  0  0  0  0  0
   25.4680    7.4758   28.8459 C   0  0  0  0  0  0  0  0  0  0  0  0
   23.6981   10.7289   31.1132 C   0  0  0  0  0  0  0  0  0  0  0  0
   25.1090    6.5910   27.8696 C   0  0  0  0  0  0  0  0  0  0  0  0
   22.1078    3.8418   24.8464 O   0  0  0  0  0  0  0  0  0  0  0  0
   22.7217   10.3735   30.0510 C   0  0  0  0  0  0  0  0  0  0  0  0
  2  1  1  0
  4  2  1  0
  5  3  2  0
  8  5  1  0
 10  1  1  0
 11  5  1  0
 12  1  1  0
 12  6  2  0
 13  8  1  0
 14  9  1  0
 14 11  2  0
 15  8  1  0
 16  1  1  0
 16  7  1  0
 17  4  2  0
 18  3  1  0
 18 14  1  0
 18 16  1  0
 19  8  1  0
 20 10  2  0
 20 17  1  0
M  RAD  1   2   2
M  END
>  <ID>  (1) 
conformer_0

$$$$
