
     RDKit          3D

 18 18  0  0  0  0  0  0  0  0999 V2000
   25.0211    8.9736   30.7107 C   0  0  0  0  0  0  0  0  0  0  0  0
   24.3673    8.3688   29.4138 C   0  0  0  0  0  0  0  0  0  0  0  0
   24.7308    7.0692   27.6561 C   0  0  1  0  0  0  0  0  0  0  0  0
   23.5702    5.6034   26.6362 C   0  0  0  0  0  0  0  0  0  0  0  0
   24.3658   10.0568   31.3842 C   0  0  0  0  0  0  0  0  0  0  0  0
   26.8084    7.5369   29.7885 O   0  0  0  0  0  0  0  0  0  0  0  0
   22.1427    7.6826   27.5063 O   0  0  0  0  0  0  0  0  0  0  0  0
   22.3261    3.4555   24.3861 O   0  0  0  0  0  0  0  0  0  0  0  0
   23.2944   10.4162   30.5166 C   0  0  0  0  0  0  0  0  0  0  0  0
   23.1371    7.9230   27.8910 C   0  0  0  0  0  0  0  0  0  0  0  0
   22.5869    5.3447   25.9578 N   0  0  0  0  0  0  0  0  0  0  0  0
   25.8312    7.6523   29.1222 C   0  0  0  0  0  0  0  0  0  0  0  0
   25.6648    5.5860   27.1533 C   0  0  1  0  0  0  0  0  0  0  0  0
   25.3831    5.5160   26.8537 C   0  0  0  0  0  0  0  0  0  0  0  0
   27.5451    6.1019   27.8319 N   0  0  0  0  0  0  0  0  0  0  0  0
   22.9809    3.2624   25.1532 S   0  0  0  0  0  0  0  0  0  0  0  0
   23.1027    9.4339   29.4789 C   0  0  0  0  0  0  0  0  0  0  0  0
   23.9618    2.6588   25.3181 O   0  0  0  0  0  0  0  0  0  0  0  0
  2  1  2  0
  5  1  1  0
  9  5  1  0
  3 10  1  1
 10  7  2  0
 11  4  1  0
 12  2  1  0
 12  3  1  0
 12  6  2  0
 13  3  1  0
 14  4  2  3
 14 13  1  0
 13 15  1  6
 16  8  1  0
 16 11  1  0
 17  2  1  0
 17  9  2  0
 18 16  1  0
M  END
>  <ID>  (1) 
conformer_0

$$$$
