
     RDKit          3D

 17 17  0  0  0  0  0  0  0  0999 V2000
   24.8865   10.0802   30.9258 C   0  0  0  0  0  0  0  0  0  0  0  0
   23.5353    8.8705   29.3379 C   0  0  0  0  0  0  0  0  0  0  0  0
   24.8507    7.1032   28.0744 C   0  0  0  0  0  0  0  0  0  0  0  0
   23.6493   10.6743   31.0162 C   0  0  0  0  0  0  0  0  0  0  0  0
   25.3208    4.6415   26.8883 C   0  0  0  0  0  0  0  0  0  0  0  0
   26.9146    7.2152   29.1224 O   0  0  0  0  0  0  0  0  0  0  0  0
   21.9089    7.4654   27.3772 O   0  0  0  0  0  0  0  0  0  0  0  0
   22.7656   10.0284   29.9124 C   0  0  0  0  0  0  0  0  0  0  0  0
   22.9716    7.6931   27.9155 C   0  0  0  0  0  0  0  0  0  0  0  0
   22.3957    4.1054   24.8425 O   0  0  0  0  0  0  0  0  0  0  0  0
   24.9275    9.1077   29.9540 C   0  0  0  0  0  0  0  0  0  0  0  0
   23.6374    3.2117   25.2723 S   0  0  0  0  0  0  0  0  0  0  0  0
   25.8849    7.1911   28.4211 C   0  0  0  0  0  0  0  0  0  0  0  0
   24.1772    5.5052   27.0894 C   0  0  0  0  0  0  0  0  0  0  0  0
   24.0807    2.6903   25.0132 O   0  0  0  0  0  0  0  0  0  0  0  0
   25.9708    5.4093   27.0283 C   0  0  0  0  0  0  0  0  0  0  0  0
   23.5897    5.6973   26.8141 C   0  0  0  0  0  0  0  0  0  0  0  0
  4  1  2  0
  8  2  2  0
  8  4  1  0
  9  2  1  0
  9  3  1  0
  9  7  2  0
 11  1  1  0
 11  2  1  0
 12  5  1  0
 12 10  1  0
 13  3  2  0
 13  6  2  0
 14  3  1  0
 14  5  1  0
 15 12  1  0
 16  5  2  3
 17 14  2  3
M  END
>  <ID>  (1) 
conformer_0

$$$$
