
     RDKit          3D

 19 21  0  0  0  0  0  0  0  0999 V2000
   23.6498   10.7145   30.8336 C   0  0  0  0  0  0  0  0  0  0  0  0
   23.1965    9.1540   29.2468 C   0  0  0  0  0  0  0  0  0  0  0  0
   24.4328    7.9197   28.9948 C   0  0  0  0  0  0  0  0  0  0  0  0
   24.8614    9.9223   30.9098 C   0  0  0  0  0  0  0  0  0  0  0  0
   25.6127    5.1257   27.0938 C   0  0  0  0  0  0  0  0  0  0  0  0
   27.1033    7.5519   29.7486 O   0  0  0  0  0  0  0  0  0  0  0  0
   22.8334   10.2009   29.6452 C   0  0  0  0  0  0  0  0  0  0  0  0
   22.0286    7.6339   27.2666 O   0  0  0  0  0  0  0  0  0  0  0  0
   25.9439    7.3081   29.1392 C   0  0  0  0  0  0  0  0  0  0  0  0
   22.8906    3.4960   24.8761 S   0  0  0  0  0  4  0  0  0  0  0  0
   23.1215    7.4930   27.6599 C   0  0  0  0  0  0  0  0  0  0  0  0
   23.3081    3.0802   24.1461 O   0  0  0  0  0  0  0  0  0  0  0  0
   23.8857    6.0588   27.2046 C   0  0  0  0  0  0  0  0  0  0  0  0
   22.3349    5.3479   25.8212 N   0  0  0  0  0  0  0  0  0  0  0  0
   25.9756    6.3434   27.6240 C   0  0  0  0  0  0  0  0  0  0  0  0
   21.9361    3.4207   25.6989 O   0  0  0  0  0  0  0  0  0  0  0  0
   25.3404    4.7572   26.2299 C   0  0  0  0  0  0  0  0  0  0  0  0
   23.6081    5.3951   26.5126 C   0  0  0  0  0  0  0  0  0  0  0  0
   25.0480    8.9674   30.2414 C   0  0  0  0  0  3  0  0  0  0  0  0
  3  2  1  0
  4  1  2  0
  7  1  1  0
  7  2  2  0
  9  3  1  0
  9  6  1  0
 11  3  1  0
 11  8  2  0
 12 10  1  0
 13  5  1  0
 13 11  1  0
 14 10  1  0
 15  5  1  0
 15  9  1  0
 16 10  1  0
 17  5  1  0
 18 13  1  0
 18 14  1  0
 18 17  1  0
 19  3  1  0
 19  4  1  0
M  RAD  1  19   2
M  END
>  <ID>  (1) 
conformer_0

$$$$
