
     RDKit          3D

 22 24  0  0  0  0  0  0  0  0999 V2000
   24.6049   10.1302   31.3632 C   0  0  0  0  0  0  0  0  0  0  0  0
   23.5405   10.7807   30.8545 C   0  0  0  0  0  0  0  0  0  0  0  0
   25.2842    9.3072   30.2347 C   0  0  0  0  0  0  0  0  0  0  0  0
   23.4273    6.1624   26.9199 C   0  0  0  0  0  0  0  0  0  0  0  0
   25.6024    4.2602   26.2273 C   0  0  0  0  0  0  0  0  0  0  0  0
   23.5683    3.3408   24.9867 S   0  0  0  0  0  4  0  0  0  0  0  0
   24.3203    8.5952   29.8185 C   0  0  0  0  0  0  0  0  0  0  0  0
   21.9713    7.7444   27.5311 O   0  0  0  0  0  0  0  0  0  0  0  0
   26.6272    7.2220   29.2701 O   0  0  0  0  0  0  0  0  0  0  0  0
   24.5132    7.2997   27.9925 C   0  0  0  0  0  0  0  0  0  0  0  0
   22.8625    7.7559   27.8781 C   0  0  0  0  0  0  0  0  0  0  0  0
   23.1015    2.2565   25.6738 O   0  0  0  0  0  0  0  0  0  0  0  0
   22.6471    5.9154   26.1999 N   0  0  0  0  0  0  0  0  0  0  0  0
   26.0015    5.7253   27.3080 C   0  0  0  0  0  0  0  0  0  0  0  0
   25.6168    7.2997   28.7444 C   0  0  0  0  0  0  0  0  0  0  0  0
   26.9765    6.0609   27.5545 N   0  0  0  0  0  0  0  0  0  0  0  0
   22.5655    4.2061   24.3147 O   0  0  0  0  0  0  0  0  0  0  0  0
   23.0847    9.0775   29.1774 C   0  0  0  0  0  0  0  0  0  0  0  0
   22.6403   10.1497   29.9121 C   0  0  0  0  0  0  0  0  0  0  0  0
   24.5513    2.9775   24.2860 O   0  0  0  0  0  0  0  0  0  0  0  0
   24.2330    4.5964   26.1667 C   0  0  0  0  0  0  0  0  0  0  0  0
   24.9118    5.7598   26.9151 C   0  0  0  0  0  0  0  0  0  0  0  0
  2  1  2  0
  3  1  1  0
  7  3  2  0
 10  4  1  0
 11  8  2  0
 11 10  1  0
 12  6  1  0
 13  4  1  0
 15  9  2  0
 15 10  2  0
 16 14  1  0
 17  6  1  0
 18  7  1  0
 18 11  1  0
 19  2  1  0
 19 18  2  0
 20  6  1  0
 21  4  1  0
 21  5  1  0
 21  6  1  0
 22  4  1  0
 22  5  1  0
 22 14  1  0
 22 21  1  0
M  END
>  <ID>  (1) 
conformer_0

$$$$
