
     RDKit          3D

 26 26  0  0  0  0  0  0  0  0999 V2000
   30.6992   27.6502   34.5847 C   0  0  0  0  0  0  0  0  0  0  0  0
   32.9005   27.0854   33.1790 C   0  0  0  0  0  0  0  0  0  0  0  0
   34.7391   28.1683   34.4437 C   0  0  0  0  0  0  0  0  0  0  0  0
   30.2420   27.1163   31.8732 N   0  0  0  0  0  0  0  0  0  0  0  0
   28.9493   26.9026   31.4203 C   0  0  0  0  0  0  0  0  0  0  0  0
   34.3193   27.3734   35.2979 C   0  0  0  0  0  0  0  0  0  0  0  0
   26.9283   28.1431   34.1927 N   0  0  0  0  0  0  0  0  0  0  0  0
   29.7145   27.9031   35.0680 N   0  0  0  0  0  0  0  0  0  0  0  0
   33.4187   26.4104   34.8883 O   0  0  0  0  0  0  0  0  0  0  0  0
   33.6503   28.7725   41.2719 P   0  0  0  0  0  4  0  0  0  0  0  0
   28.3110   27.6589   33.6932 C   0  0  0  0  0  0  0  0  0  0  0  0
   31.4532   27.3922   33.6865 N   0  0  0  0  0  0  0  0  0  0  0  0
   33.8352   27.5192   41.9760 O   0  0  0  0  0  0  0  0  0  0  0  0
   33.6409   27.5879   37.4360 O   0  0  0  0  0  0  0  0  0  0  0  0
   34.3877   27.1776   31.9551 O   0  0  0  0  0  0  0  0  0  0  0  0
   35.2776   29.0690   33.8200 O   0  0  0  0  0  0  0  0  0  0  0  0
   34.1194   30.3149   40.0299 O   0  0  0  0  0  0  0  0  0  0  0  0
   32.8416   29.4767   41.4088 O   0  0  0  0  0  1  0  0  0  0  0  0
   27.9958   27.3825   32.2187 N   0  0  0  0  0  0  0  0  0  0  0  0
   34.6479   27.1716   36.8123 C   0  0  0  0  0  0  0  0  0  0  0  0
   31.9088   28.2318   38.9746 O   0  0  0  0  0  1  0  0  0  0  0  0
   33.1312   28.3417   38.6049 P   0  0  1  0  0  4  0  0  0  0  0  0
   34.2191   28.1517   39.7597 O   0  0  0  0  0  0  0  0  0  0  0  0
   29.8217   27.3820   33.2310 C   0  0  2  0  0  0  0  0  0  0  0  0
   33.1380   29.6769   38.1173 O   0  0  0  0  0  0  0  0  0  0  0  0
   33.6299   27.8542   33.0092 C   0  0  1  0  0  0  0  0  0  0  0  0
  5  4  2  0
  6  3  2  3
  8  1  2  3
  9  6  1  0
 11  7  1  0
 12  1  1  0
 12  2  1  0
 13 10  1  0
 16  3  1  0
 17 10  1  0
 18 10  1  0
 19  5  1  0
 19 11  2  0
 20  6  1  0
 20 14  1  0
 22 14  1  0
 22 21  1  1
 23 10  1  0
 23 22  1  0
 24  1  1  6
 24  4  1  0
 24 11  1  0
 25 22  1  0
 26  2  1  0
 26  3  1  0
 26 15  1  6
M  RAD  4  10   2  18   2  21   2  22   2
M  END
>  <ID>  (1) 
conformer_0

$$$$
