
     RDKit          3D

 26 28  0  0  0  0  0  0  0  0999 V2000
   30.4373   27.2233   32.6668 C   0  0  0  0  0  0  0  0  0  0  0  0
   34.3284   27.4765   35.5681 C   0  0  0  0  0  0  0  0  0  0  0  0
   34.9067   28.2956   34.7909 C   0  0  0  0  0  0  0  0  0  0  0  0
   29.0984   26.5606   30.9961 C   0  0  0  0  0  0  0  0  0  0  0  0
   28.1002   27.2700   31.8805 N   0  0  0  0  0  0  0  0  0  0  0  0
   29.6965   28.0244   34.9282 N   0  0  0  0  0  0  0  0  0  0  0  0
   34.9063   27.5257   37.0129 C   0  0  0  0  0  0  0  0  0  0  0  0
   26.9794   28.0406   33.8093 N   0  0  0  0  0  0  0  0  0  0  0  0
   34.0100   27.9020   42.6354 O   0  0  0  0  0  0  0  0  0  0  0  0
   28.1772   27.6133   33.1623 C   0  0  0  0  0  0  0  0  0  0  0  0
   33.4524   26.5638   35.2331 O   0  0  0  0  0  0  0  0  0  0  0  0
   32.9280   28.5748   38.5667 P   0  0  0  0  0  0  0  0  0  0  0  0
   33.7211   27.9420   37.8026 O   0  0  0  0  0  0  0  0  0  0  0  0
   31.5613   27.3933   33.8457 N   0  0  0  0  0  0  0  0  0  0  0  0
   33.7088   29.9691   39.0668 O   0  0  0  0  0  0  0  0  0  0  0  0
   35.0102   29.5991   34.0610 O   0  0  0  0  0  0  0  0  0  0  0  0
   34.3329   26.8515   32.2482 O   0  0  0  0  0  0  0  0  0  0  0  0
   30.4557   26.9108   31.7722 N   0  0  0  0  0  0  0  0  0  0  0  0
   36.1309   27.5058   33.8601 O   0  0  0  0  0  0  0  0  0  0  0  0
   33.4031   27.4895   40.4756 O   0  0  0  0  0  0  0  0  0  0  0  0
   29.3312   27.6675   33.7407 C   0  0  0  0  0  0  0  0  0  0  0  0
   31.7027   28.3030   38.5609 O   0  0  0  0  0  0  0  0  0  0  0  0
   33.6649   28.2888   41.2622 P   0  0  0  0  0  0  0  0  0  0  0  0
   33.8256   27.9525   33.5982 C   0  0  0  0  0  0  0  0  0  0  0  0
   33.0149   26.9595   33.4813 C   0  0  0  0  0  0  0  0  0  0  0  0
   30.8221   27.7490   35.0043 C   0  0  0  0  0  0  0  0  0  0  0  0
  3  2  1  0
  5  4  2  0
  7  2  1  0
 10  5  1  0
 10  8  1  0
 11  2  1  0
 13  7  1  0
 13 12  1  0
 14  1  1  0
 15 12  1  0
 16  3  1  0
 18  1  2  0
 18  4  1  0
 19  3  1  0
 21  1  1  0
 21  6  1  0
 21 10  2  0
 22 12  1  0
 23  9  1  0
 23 20  1  0
 23 22  1  0
 24  3  1  0
 25 11  1  0
 25 14  1  0
 25 17  1  0
 25 24  1  0
 26  6  2  0
 26 14  1  0
M  END
>  <ID>  (1) 
conformer_0

$$$$
