
     RDKit          3D

 24 26  0  0  0  0  0  0  0  0999 V2000
   33.0721   27.0539   33.5791 C   0  0  0  0  0  0  0  0  0  0  0  0
   29.2435   26.8873   31.3801 C   0  0  0  0  0  0  0  0  0  0  0  0
   34.0583   27.7592   33.9411 C   0  0  0  0  0  0  0  0  0  0  0  0
   30.0288   27.3612   33.2102 C   0  0  0  0  0  0  0  0  0  0  0  0
   28.1439   27.3971   31.9297 N   0  0  0  0  0  0  0  0  0  0  0  0
   26.8645   28.3350   33.6723 N   0  0  0  0  0  0  0  0  0  0  0  0
   33.8171   28.4920   41.2744 P   0  0  0  0  0  4  0  0  0  0  0  0
   33.4831   26.2475   34.9644 O   0  0  0  0  0  0  0  0  0  0  0  0
   29.4400   27.9567   34.9041 N   0  0  0  0  0  0  0  0  0  0  0  0
   34.7182   27.7732   35.1308 C   0  0  0  0  0  0  0  0  0  0  0  0
   28.3741   27.8199   33.4715 C   0  0  0  0  0  0  0  0  0  0  0  0
   33.4388   27.6813   42.1949 O   0  0  0  0  0  0  0  0  0  0  0  0
   31.3644   27.2290   33.8821 N   0  0  0  0  0  0  0  0  0  0  0  0
   33.0611   29.9343   38.3188 O   0  0  0  0  0  0  0  0  0  0  0  0
   31.7098   28.6899   39.6708 O   0  0  0  0  0  1  0  0  0  0  0  0
   34.4143   27.2295   32.2034 O   0  0  0  0  0  0  0  0  0  0  0  0
   35.0955   28.6720   41.3982 O   0  0  0  0  0  0  0  0  0  0  0  0
   32.8633   28.6323   38.5820 P   0  0  0  0  0  0  0  0  0  0  0  0
   30.4075   26.9717   31.7783 N   0  0  0  0  0  0  0  0  0  0  0  0
   33.1377   27.7275   37.3872 O   0  0  0  0  0  0  0  0  0  0  0  0
   35.8655   28.1951   33.7984 O   0  0  0  0  0  0  0  0  0  0  0  0
   34.2843   27.3080   36.5054 C   0  0  0  0  0  0  0  0  0  0  0  0
   30.5622   27.6705   34.7436 C   0  0  0  0  0  0  0  0  0  0  0  0
   33.8156   28.0655   39.5605 O   0  0  0  0  0  0  0  0  0  0  0  0
  3  1  1  0
  5  2  2  0
  8  1  1  0
 10  3  1  0
 11  4  1  0
 11  5  1  0
 11  6  1  0
 11  9  1  0
 12  7  1  0
 13  1  1  0
 13  4  1  0
 15  7  1  0
 16  3  1  0
 17  7  1  0
 18 14  1  0
 19  2  1  0
 19  4  1  0
 20 18  1  0
 21 10  1  0
 22 10  1  0
 22 20  1  0
 23  4  1  0
 23  9  2  0
 23 13  1  0
 24  7  1  0
 24 18  1  0
M  RAD  2   7   2  15   2
M  END
>  <ID>  (1) 
conformer_0

$$$$
