
     RDKit          3D

 24 24  0  0  0  0  0  0  0  0999 V2000
   29.6821   27.3264   32.9242 C   0  0  0  0  0  0  0  0  0  0  0  0
   34.0435   27.1431   36.2622 C   0  0  0  0  0  0  0  0  0  0  0  0
   35.0033   28.0631   36.0467 C   0  0  0  0  0  0  0  0  0  0  0  0
   28.8935   26.7260   31.3072 C   0  0  0  0  0  0  0  0  0  0  0  0
   27.8677   27.4438   32.1269 N   0  0  0  0  0  0  0  0  0  0  0  0
   29.7479   27.9303   34.8184 N   0  0  0  0  0  0  0  0  0  0  0  0
   28.2384   27.7963   33.5518 C   0  0  0  0  0  0  0  0  0  0  0  0
   33.7784   28.6595   41.1442 P   0  0  1  0  0  4  0  0  0  0  0  0
   27.0140   28.3207   34.3075 N   0  0  0  0  0  0  0  0  0  0  0  0
   33.7225   27.6650   42.1190 O   0  0  0  0  0  0  0  0  0  0  0  0
   34.5006   28.0917   34.3732 C   0  0  0  0  0  0  0  0  0  0  0  0
   33.5516   26.4050   35.0729 O   0  0  0  0  0  0  0  0  0  0  0  0
   33.4074   30.0265   38.4551 O   0  0  0  0  0  0  0  0  0  0  0  0
   32.7071   27.9950   39.3983 O   0  0  0  0  0  0  0  0  0  0  0  0
   34.3183   27.3219   32.1868 O   0  0  0  0  0  0  0  0  0  0  0  0
   31.4653   27.1539   33.6335 N   0  0  0  0  0  0  0  0  0  0  0  0
   30.1912   26.8322   31.6422 N   0  0  0  0  0  0  0  0  0  0  0  0
   35.3892   29.0784   34.2809 O   0  0  0  0  0  0  0  0  0  0  0  0
   33.0000   28.4880   38.3845 P   0  0  0  0  0  0  0  0  0  0  0  0
   33.9220   29.6910   41.3004 O   0  0  0  0  0  1  0  0  0  0  0  0
   30.6865   27.5064   34.3024 C   0  0  0  0  0  0  0  0  0  0  0  0
   33.3532   27.8369   37.3408 O   0  0  0  0  0  0  0  0  0  0  0  0
   33.7811   27.6230   33.5998 C   0  0  1  0  0  0  0  0  0  0  0  0
   32.7876   26.7685   33.1878 C   0  0  0  0  0  0  0  0  0  0  0  0
  3  2  1  0
  5  4  2  0
  7  1  2  0
  7  5  1  0
  9  7  1  0
  8 10  1  1
 11  3  1  0
 12  2  2  0
 14  8  1  0
 17  1  1  0
 17  4  1  0
 18 11  1  0
 19 13  1  0
 19 14  1  0
 20  8  1  0
 21  1  1  0
 21  6  2  3
 21 16  1  0
 22  2  1  0
 22 19  1  0
 23 11  1  0
 23 15  1  6
 24 16  1  0
 24 23  1  0
M  RAD  2   8   2  20   2
M  END
>  <ID>  (1) 
conformer_0

$$$$
