
     RDKit          3D

 25 26  0  0  0  0  0  0  0  0999 V2000
   28.2962   27.5771   32.7890 C   0  0  0  0  0  0  0  0  0  0  0  0
   34.0891   28.1496   34.0723 C   0  0  0  0  0  0  0  0  0  0  0  0
   33.1598   27.2470   33.5754 C   0  0  0  0  0  0  0  0  0  0  0  0
   28.2465   27.2341   31.6219 N   0  0  0  0  0  0  0  0  0  0  0  0
   29.2849   27.7898   33.6546 C   0  0  0  0  0  0  0  0  0  0  0  0
   29.6029   27.9788   34.8052 N   0  0  0  0  0  0  0  0  0  0  0  0
   33.0065   28.1799   38.7518 P   0  0  0  0  0  0  0  0  0  0  0  0
   26.9750   28.1248   33.3880 N   0  0  0  0  0  0  0  0  0  0  0  0
   31.5675   27.3933   33.8107 N   0  0  0  0  0  0  0  0  0  0  0  0
   33.5120   26.3419   34.9499 O   0  0  0  0  0  0  0  0  0  0  0  0
   34.7176   27.9490   35.3587 C   0  0  0  0  0  0  0  0  0  0  0  0
   31.6584   28.4741   38.6296 O   0  0  0  0  0  0  0  0  0  0  0  0
   33.5936   27.3878   42.5555 O   0  0  0  0  0  0  0  0  0  0  0  0
   35.0042   28.6262   41.5077 O   0  0  0  0  0  1  0  0  0  0  0  0
   29.3547   26.6447   30.8933 C   0  0  0  0  0  0  0  0  0  0  0  0
   30.5868   27.0654   31.5532 N   0  0  0  0  0  0  0  0  0  0  0  0
   35.6208   29.2462   35.1735 O   0  0  0  0  0  0  0  0  0  0  0  0
   34.2095   29.4382   38.9570 O   0  0  0  0  0  0  0  0  0  0  0  0
   33.9107   28.2358   41.3991 P   0  0  0  0  0  4  0  0  0  0  0  0
   34.5202   28.5085   32.7805 O   0  0  0  0  0  0  0  0  0  0  0  0
   33.5274   27.5713   37.6350 O   0  0  0  0  0  0  0  0  0  0  0  0
   30.8549   27.7367   34.9419 C   0  0  0  0  0  0  0  0  0  0  0  0
   34.5906   27.0756   36.5255 C   0  0  0  0  0  0  0  0  0  0  0  0
   33.3058   27.8071   40.1118 O   0  0  0  0  0  0  0  0  0  0  0  0
   30.5254   27.3668   32.6992 C   0  0  0  0  0  0  0  0  0  0  0  0
  3  2  1  0
  4  1  2  0
  5  1  1  0
  6  5  1  0
  8  1  1  0
  9  3  1  0
 10  3  1  0
 11  2  1  0
 12  7  1  0
 15  4  1  0
 16 15  2  0
 17 11  1  0
 18  7  1  0
 19 12  1  0
 19 13  1  0
 19 14  1  0
 20  2  1  0
 21  7  1  0
 22  6  2  0
 22  9  1  0
 23 11  1  0
 23 21  1  0
 24 19  1  0
 25  5  2  0
 25  9  1  0
 25 16  1  0
M  RAD  2  14   2  19   2
M  END
>  <ID>  (1) 
conformer_0

$$$$
