
     RDKit          3D

 25 25  0  0  0  0  0  0  0  0999 V2000
   34.1097   27.8202   33.9855 C   0  0  1  0  0  0  0  0  0  0  0  0
   29.9190   27.4751   33.0552 C   0  0  0  0  0  0  0  0  0  0  0  0
   33.2731   27.0240   33.4870 C   0  0  0  0  0  0  0  0  0  0  0  0
   28.1526   27.3743   31.8208 N   0  0  0  0  0  0  0  0  0  0  0  0
   30.6891   27.7020   34.3545 C   0  0  0  0  0  0  0  0  0  0  0  0
   29.6794   28.0488   34.8015 N   0  0  0  0  0  0  0  0  0  0  0  0
   33.8277   28.4592   41.3785 P   0  0  0  0  0  4  0  0  0  0  0  0
   26.9385   28.2295   33.5864 N   0  0  0  0  0  0  0  0  0  0  0  0
   33.3912   26.2256   34.9530 O   0  0  0  0  0  0  0  0  0  0  0  0
   31.6177   27.3765   33.7423 N   0  0  0  0  0  0  0  0  0  0  0  0
   28.4066   27.7891   33.3221 C   0  0  0  0  0  0  0  0  0  0  0  0
   33.5291   27.4732   42.2372 O   0  0  0  0  0  0  0  0  0  0  0  0
   35.1581   28.6784   41.9079 O   0  0  0  0  0  1  0  0  0  0  0  0
   34.6112   28.1266   35.2161 C   0  0  2  0  0  0  0  0  0  0  0  0
   34.2942   26.9464   32.0775 O   0  0  0  0  0  0  0  0  0  0  0  0
   32.5357   28.4083   38.6598 P   0  0  0  0  0  0  0  0  0  0  0  0
   30.5221   27.0045   31.6451 N   0  0  0  0  0  0  0  0  0  0  0  0
   31.1809   28.4079   38.9943 O   0  0  0  0  0  0  0  0  0  0  0  0
   35.8872   28.7399   35.6191 O   0  0  0  0  0  0  0  0  0  0  0  0
   33.7701   29.8394   39.1971 O   0  0  0  0  0  0  0  0  0  0  0  0
   33.0726   27.7648   37.2812 O   0  0  0  0  0  0  0  0  0  0  0  0
   29.2785   26.8679   31.3217 C   0  0  0  0  0  0  0  0  0  0  0  0
   34.4926   27.2541   36.3026 C   0  0  0  0  0  0  0  0  0  0  0  0
   35.5642   28.2850   33.4699 O   0  0  0  0  0  0  0  0  0  0  0  0
   32.9827   27.7715   39.5373 O   0  0  0  0  0  0  0  0  0  0  0  0
  3  1  1  0
  5  2  1  0
  6  5  2  3
  9  3  1  0
 10  3  1  0
 10  5  1  0
 11  2  2  0
 11  4  1  0
 11  8  1  0
 12  7  1  0
 13  7  1  0
 14  1  1  0
 15  3  1  0
 17  2  1  0
 18  7  1  0
 14 19  1  6
 20 16  1  0
 21 16  1  0
 22  4  2  0
 22 17  1  0
 23 14  1  0
 23 21  1  0
  1 24  1  6
 25  7  1  0
 25 16  1  0
M  RAD  2   7   2  13   2
M  END
>  <ID>  (1) 
conformer_0

$$$$
