
     RDKit          3D

 25 26  0  0  0  0  0  0  0  0999 V2000
   28.3638   27.8618   33.6216 C   0  0  0  0  0  0  0  0  0  0  0  0
   34.6628   27.9513   35.2195 C   0  0  2  0  0  0  0  0  0  0  0  0
   34.0637   27.6278   33.9825 C   0  0  1  0  0  0  0  0  0  0  0  0
   30.7322   27.9967   34.6905 C   0  0  0  0  0  0  0  0  0  0  0  0
   27.9574   27.4446   32.1061 N   0  0  0  0  0  0  0  0  0  0  0  0
   31.4170   27.5069   33.9892 N   0  0  0  0  0  0  0  0  0  0  0  0
   26.8621   28.3602   33.9483 N   0  0  0  0  0  0  0  0  0  0  0  0
   29.6160   28.1874   35.1823 N   0  0  0  0  0  0  0  0  0  0  0  0
   33.4073   26.4657   35.0834 O   0  0  0  0  0  0  0  0  0  0  0  0
   33.9134   28.2614   41.2988 P   0  0  1  0  0  4  0  0  0  0  0  0
   29.8357   27.5286   33.4515 C   0  0  2  0  0  0  0  0  0  0  0  0
   32.9723   27.0277   33.4611 C   0  0  2  0  0  0  0  0  0  0  0  0
   33.4555   27.6628   42.3889 O   0  0  0  0  0  0  0  0  0  0  0  0
   33.9117   27.7563   37.7762 O   0  0  0  0  0  0  0  0  0  0  0  0
   34.4504   27.1104   32.3365 O   0  0  0  0  0  0  0  0  0  0  0  0
   34.4383   29.7548   39.8964 O   0  0  0  0  0  0  0  0  0  0  0  0
   30.1885   26.9279   31.9136 N   0  0  0  0  0  0  0  0  0  0  0  0
   34.7776   28.2240   41.0571 O   0  0  0  0  0  1  0  0  0  0  0  0
   35.6551   28.5726   34.1541 O   0  0  0  0  0  0  0  0  0  0  0  0
   33.4317   28.5684   38.5663 P   0  0  0  0  0  5  0  0  0  0  0  0
   32.2269   28.0973   39.0075 O   0  0  0  0  0  0  0  0  0  0  0  0
   28.9670   26.8388   31.5530 C   0  0  0  0  0  0  0  0  0  0  0  0
   34.6438   27.3567   36.5078 C   0  0  0  0  0  0  0  0  0  0  0  0
   33.0831   28.2559   40.4680 N   0  0  0  0  0  0  0  0  0  0  0  0
   33.2781   29.6247   37.9873 O   0  0  0  0  0  0  0  0  0  0  0  0
  3  2  1  0
  5  1  2  0
  6  4  1  0
  7  1  1  0
  8  4  2  3
  9  3  1  0
 11  1  1  0
 11  4  1  6
 12  3  1  0
 12  6  1  1
 12  9  1  0
 10 13  1  1
  3 15  1  6
 17 11  1  0
 18 10  1  0
  2 19  1  6
 20 14  1  0
 20 16  1  0
 21 20  1  0
 22  5  1  0
 22 17  2  0
 23  2  1  0
 23 14  1  0
 24 10  1  0
 24 20  1  0
 25 20  1  0
M  RAD  2  10   2  18   2
M  END
>  <ID>  (1) 
conformer_0

$$$$
