
     RDKit          3D

 24 24  0  0  0  0  0  0  0  0999 V2000
   34.7547   27.8111   35.2235 C   0  0  2  0  0  0  0  0  0  0  0  0
   28.9341   26.7797   31.2539 C   0  0  0  0  0  0  0  0  0  0  0  0
   34.0147   27.6988   33.9789 C   0  0  1  0  0  0  0  0  0  0  0  0
   30.6559   27.5816   34.2681 C   0  0  0  0  0  0  0  0  0  0  0  0
   28.0197   27.2618   31.9001 N   0  0  0  0  0  0  0  0  0  0  0  0
   29.7834   27.9866   34.8040 N   0  0  0  0  0  0  0  0  0  0  0  0
   33.3676   26.3335   34.9560 O   0  0  0  0  0  0  0  0  0  0  0  0
   26.9459   28.0520   33.8521 N   0  0  0  0  0  0  0  0  0  0  0  0
   31.5112   27.2738   33.6259 N   0  0  0  0  0  0  0  0  0  0  0  0
   33.0358   28.5437   38.6401 P   0  0  0  0  0  0  0  0  0  0  0  0
   33.0469   27.1990   33.2196 C   0  0  1  0  0  0  0  0  0  0  0  0
   33.4229   27.5632   37.3233 O   0  0  0  0  0  0  0  0  0  0  0  0
   33.4061   29.7716   38.4696 O   0  0  0  0  0  0  0  0  0  0  0  0
   28.3550   27.6726   33.4516 C   0  0  0  0  0  0  0  0  0  0  0  0
   31.4156   28.6700   38.8312 O   0  0  0  0  0  1  0  0  0  0  0  0
   34.2260   27.1448   32.1978 O   0  0  0  0  0  0  0  0  0  0  0  0
   34.9712   28.4845   41.2978 O   0  0  0  0  0  0  0  0  0  0  0  0
   33.4291   27.9063   42.5193 O   0  0  0  0  0  0  0  0  0  0  0  0
   33.9475   28.5974   41.3899 P   0  0  0  0  0  4  0  0  0  0  0  0
   30.1926   27.0167   31.5689 N   0  0  0  0  0  0  0  0  0  0  0  0
   35.6060   28.4041   33.9049 O   0  0  0  0  0  0  0  0  0  0  0  0
   29.9385   27.3469   32.9116 C   0  0  0  0  0  0  0  0  0  0  0  0
   34.6560   27.3364   36.4408 C   0  0  0  0  0  0  0  0  0  0  0  0
   34.3868   27.9152   39.2263 O   0  0  0  0  0  0  0  0  0  0  0  0
  3  1  1  0
  5  2  2  0
  6  4  2  3
  3  7  1  6
  9  4  1  0
 11  3  1  0
 11  9  1  0
 12 10  1  0
 13 10  1  0
 14  5  1  0
 14  8  1  0
 11 16  1  6
 19 15  1  0
 19 17  1  0
 19 18  1  0
 20  2  1  0
  1 21  1  6
 22  4  1  0
 22 14  2  0
 22 20  1  0
 23  1  1  0
 23 12  1  0
 24 10  1  0
 24 19  1  0
M  RAD  2  15   2  19   2
M  END
>  <ID>  (1) 
conformer_0

$$$$
