
     RDKit          3D

 23 23  0  0  0  0  0  0  0  0999 V2000
   28.2881   27.7050   33.6190 C   0  0  0  0  0  0  0  0  0  0  0  0
   34.6322   27.9954   35.1990 C   0  0  0  0  0  0  0  0  0  0  0  0
   34.0012   27.8792   33.8812 C   0  0  0  0  0  0  0  0  0  0  0  0
   29.7973   27.3338   33.2372 C   0  0  0  0  0  0  0  0  0  0  0  0
   27.8431   27.3785   32.2033 N   0  0  0  0  0  0  0  0  0  0  0  0
   26.8497   28.1069   34.2613 N   0  0  0  0  0  0  0  0  0  0  0  0
   33.4860   26.3907   34.9276 O   0  0  0  0  0  0  0  0  0  0  0  0
   34.3654   27.4207   36.5400 C   0  0  0  0  0  0  0  0  0  0  0  0
   33.9844   28.4149   41.2804 P   0  0  0  0  0  0  0  0  0  0  0  0
   31.4316   27.3316   33.9270 N   0  0  0  0  0  0  0  0  0  0  0  0
   29.7233   28.1051   35.0115 N   0  0  0  0  0  0  0  0  0  0  0  0
   33.7131   27.6017   42.3415 O   0  0  0  0  0  0  0  0  0  0  0  0
   28.8914   26.7930   31.4572 C   0  0  0  0  0  0  0  0  0  0  0  0
   31.7094   28.4659   38.9173 O   0  0  0  0  0  0  0  0  0  0  0  0
   33.4308   30.0928   38.5633 O   0  0  0  0  0  0  0  0  0  0  0  0
   34.3339   27.2133   32.1357 O   0  0  0  0  0  0  0  0  0  0  0  0
   30.0831   26.7882   31.8274 N   0  0  0  0  0  0  0  0  0  0  0  0
   34.7757   28.3273   40.4180 O   0  0  0  0  0  0  0  0  0  0  0  0
   35.4397   28.9345   34.0036 O   0  0  0  0  0  0  0  0  0  0  0  0
   33.0467   28.7501   38.5296 P   0  0  0  0  0  0  0  0  0  0  0  0
   33.5823   28.0099   37.7670 O   0  0  0  0  0  0  0  0  0  0  0  0
   33.0991   27.1730   33.4023 C   0  0  0  0  0  0  0  0  0  0  0  0
   30.6566   27.6637   34.5433 C   0  0  0  0  0  0  0  0  0  0  0  0
  3  2  2  3
  4  1  2  0
  5  1  1  0
  6  1  1  0
  8  2  1  0
 12  9  1  0
 13  5  1  0
 14  9  1  0
 17  4  1  0
 17 13  2  0
 18  9  1  0
 19  2  1  0
 20 14  1  0
 20 15  1  0
 21  8  1  0
 21 20  1  0
 22  3  1  0
 22  7  1  0
 22 10  1  0
 22 16  1  0
 23  4  1  0
 23 10  1  0
 23 11  2  3
M  END
>  <ID>  (1) 
conformer_0

$$$$
