
     RDKit          3D

 25 26  0  0  0  0  0  0  0  0999 V2000
   33.9295   27.7591   33.6889 C   0  0  0  0  0  0  0  0  0  0  0  0
   30.0136   27.3673   33.0867 C   0  0  0  0  0  0  0  0  0  0  0  0
   34.5346   27.7862   34.8479 C   0  0  0  0  0  0  0  0  0  0  0  0
   28.9851   26.8814   31.4680 C   0  0  0  0  0  0  0  0  0  0  0  0
   30.2488   27.0274   31.6633 N   0  0  0  0  0  0  0  0  0  0  0  0
   33.8956   28.6466   41.2324 P   0  0  0  0  0  4  0  0  0  0  0  0
   33.2668   26.0664   34.8705 O   0  0  0  0  0  0  0  0  0  0  0  0
   29.5414   27.9265   34.9242 N   0  0  0  0  0  0  0  0  0  0  0  0
   26.9829   28.2848   33.9439 N   0  0  0  0  0  0  0  0  0  0  0  0
   31.4047   27.2357   33.7203 N   0  0  0  0  0  0  0  0  0  0  0  0
   32.7254   28.5366   38.3169 P   0  0  0  0  0  4  0  0  0  0  0  0
   33.0557   26.9353   33.4415 C   0  0  0  0  0  0  0  0  0  0  0  0
   33.7236   27.8881   42.3156 O   0  0  0  0  0  0  0  0  0  0  0  0
   28.3845   27.7398   33.5065 C   0  0  0  0  0  0  0  0  0  0  0  0
   32.1037   29.4187   37.8700 O   0  0  0  0  0  1  0  0  0  0  0  0
   35.2954   28.7800   41.0839 O   0  0  0  0  0  1  0  0  0  0  0  0
   34.4320   27.0979   32.0598 O   0  0  0  0  0  0  0  0  0  0  0  0
   33.6937   30.3883   39.4954 O   0  0  0  0  0  0  0  0  0  0  0  0
   28.0350   27.4047   32.0851 N   0  0  0  0  0  0  0  0  0  0  0  0
   33.1892   27.7423   39.2631 O   0  0  0  0  0  0  0  0  0  0  0  0
   30.6274   27.5312   34.5923 C   0  0  0  0  0  0  0  0  0  0  0  0
   32.7685   29.1889   40.8298 N   0  0  0  0  0  0  0  0  0  0  0  0
   35.5935   27.9708   33.6347 O   0  0  0  0  0  0  0  0  0  0  0  0
   34.3067   27.2506   36.1636 C   0  0  0  0  0  0  0  0  0  0  0  0
   33.2186   27.9747   36.7909 O   0  0  0  0  0  0  0  0  0  0  0  0
  3  1  1  0
  5  2  2  0
  5  4  1  0
 10  2  1  0
 12  1  1  0
 12  7  1  0
 12 10  1  0
 13  6  1  0
 14  2  1  0
 14  8  1  0
 14  9  1  0
 15 11  1  0
 16  6  1  0
 17  1  1  0
 19  4  2  0
 19 14  1  0
 20  6  1  0
 20 11  1  0
 21  8  2  0
 21 10  1  0
 22  6  1  0
 22 18  1  0
 23  3  1  0
 24  3  1  0
 25 11  1  0
 25 24  1  0
M  RAD  4   6   2  11   2  15   2  16   2
M  END
>  <ID>  (1) 
conformer_0

$$$$
