
     RDKit          3D

 25 26  0  0  0  0  0  0  0  0999 V2000
   29.2624   26.7988   31.0644 C   0  0  0  0  0  0  0  0  0  0  0  0
   34.5576   27.2761   36.4491 C   0  0  0  0  0  0  0  0  0  0  0  0
   34.7565   27.9005   35.4201 C   0  0  0  0  0  0  0  0  0  0  0  0
   29.4346   27.6648   33.6314 C   0  0  0  0  0  0  0  0  0  0  0  0
   28.2279   27.3603   31.8265 N   0  0  0  0  0  0  0  0  0  0  0  0
   27.0317   28.2675   33.6471 N   0  0  0  0  0  0  0  0  0  0  0  0
   33.7238   28.3237   41.0850 P   0  0  0  0  0  0  0  0  0  0  0  0
   33.4531   26.1485   35.2514 O   0  0  0  0  0  0  0  0  0  0  0  0
   29.6323   27.9116   34.9060 N   0  0  0  0  0  0  0  0  0  0  0  0
   34.0992   27.7210   34.1240 C   0  0  0  0  0  0  0  0  0  0  0  0
   34.5074   27.4281   32.6493 O   0  0  0  0  0  0  0  0  0  0  0  0
   28.2662   27.6907   33.0629 C   0  0  0  0  0  0  0  0  0  0  0  0
   31.6091   27.3169   33.9695 N   0  0  0  0  0  0  0  0  0  0  0  0
   31.5811   28.2028   38.6428 O   0  0  0  0  0  1  0  0  0  0  0  0
   33.8796   27.8944   42.2390 O   0  0  0  0  0  0  0  0  0  0  0  0
   30.6818   27.1648   31.7359 N   0  0  0  0  0  0  0  0  0  0  0  0
   33.2594   29.8550   38.5909 O   0  0  0  0  0  0  0  0  0  0  0  0
   35.9753   28.2231   34.6668 O   0  0  0  0  0  0  0  0  0  0  0  0
   32.8547   28.4036   38.4693 P   0  0  0  0  0  4  0  0  0  0  0  0
   33.5369   27.8145   37.4753 O   0  0  0  0  0  0  0  0  0  0  0  0
   34.7817   28.3679   40.1430 O   0  0  0  0  0  0  0  0  0  0  0  0
   30.9243   27.6796   35.0403 C   0  0  0  0  0  0  0  0  0  0  0  0
   33.1437   26.8790   33.8830 C   0  0  0  0  0  0  0  0  0  0  0  0
   32.8091   27.3582   40.0946 O   0  0  0  0  0  0  0  0  0  0  0  0
   30.6649   27.3733   32.6776 C   0  0  0  0  0  0  0  0  0  0  0  0
  3  2  1  0
  5  1  2  0
  9  4  1  0
 10  3  1  0
 11 10  1  0
 12  4  2  0
 12  5  1  0
 12  6  1  0
 15  7  1  0
 16  1  1  0
 18  3  1  0
 19 14  1  0
 19 17  1  0
 20  2  1  0
 20 19  1  0
 21  7  1  0
 22  9  2  0
 22 13  1  0
 23  8  1  0
 23 10  1  0
 23 13  1  0
 24  7  1  0
 24 19  1  0
 25  4  1  0
 25 13  1  0
 25 16  2  0
M  RAD  2  14   2  19   2
M  END
>  <ID>  (1) 
conformer_0

$$$$
