
     RDKit          3D

 24 25  0  0  0  0  0  0  0  0999 V2000
   34.2132   27.7801   34.0724 C   0  0  0  0  0  0  0  0  0  0  0  0
   29.7999   27.4266   33.1394 C   0  0  0  0  0  0  0  0  0  0  0  0
   33.3296   26.9871   33.6267 C   0  0  0  0  0  0  0  0  0  0  0  0
   30.7604   27.6101   34.3521 C   0  0  0  0  0  0  0  0  0  0  0  0
   28.0183   27.3816   32.0173 N   0  0  0  0  0  0  0  0  0  0  0  0
   33.7754   28.6359   41.2346 P   0  0  0  0  0  4  0  0  0  0  0  0
   29.7094   27.9635   34.8502 N   0  0  0  0  0  0  0  0  0  0  0  0
   34.6591   27.9843   35.3740 C   0  0  0  0  0  0  0  0  0  0  0  0
   33.4660   27.4651   41.9964 O   0  0  0  0  0  0  0  0  0  0  0  0
   33.5804   26.2227   35.1620 O   0  0  0  0  0  0  0  0  0  0  0  0
   29.1087   26.8308   31.3065 C   0  0  0  0  0  0  0  0  0  0  0  0
   31.5689   27.3037   33.9694 N   0  0  0  0  0  0  0  0  0  0  0  0
   27.1211   28.3545   33.9379 N   0  0  0  0  0  0  0  0  0  0  0  0
   31.3332   28.5364   38.9014 O   0  0  0  0  0  1  0  0  0  0  0  0
   34.8030   27.5776   32.5818 O   0  0  0  0  0  0  0  0  0  0  0  0
   35.2104   28.4981   41.2972 O   0  0  0  0  0  0  0  0  0  0  0  0
   30.4253   27.0719   31.8845 N   0  0  0  0  0  0  0  0  0  0  0  0
   33.8095   30.1949   39.0332 O   0  0  0  0  0  0  0  0  0  0  0  0
   35.4748   29.1520   34.9744 O   0  0  0  0  0  0  0  0  0  0  0  0
   32.7374   28.5234   38.6286 P   0  0  0  0  0  0  0  0  0  0  0  0
   33.3844   27.7093   37.2940 O   0  0  0  0  0  0  0  0  0  0  0  0
   34.3065   27.2099   36.6318 C   0  0  0  0  0  0  0  0  0  0  0  0
   28.4115   27.8065   33.4706 C   0  0  0  0  0  0  0  0  0  0  0  0
   33.2665   28.1787   39.4797 O   0  0  0  0  0  0  0  0  0  0  0  0
  3  1  1  0
  4  2  1  0
  7  4  2  0
  8  1  1  0
  9  6  1  0
 10  3  1  0
 11  5  2  0
 12  3  1  0
 12  4  1  0
 14  6  1  0
 15  1  1  0
 16  6  1  0
 17  2  2  0
 17 11  1  0
 19  8  1  0
 20 18  1  0
 21 20  1  0
 22  8  1  0
 22 21  1  0
 23  2  1  0
 23  5  1  0
 23  7  1  0
 23 13  1  0
 24  6  1  0
 24 20  1  0
M  RAD  2   6   2  14   2
M  END
>  <ID>  (1) 
conformer_0

$$$$
