
     RDKit          3D

 26 27  0  0  0  0  0  0  0  0999 V2000
   34.6491   27.8291   35.2388 C   0  0  0  0  0  0  0  0  0  0  0  0
   30.2550   27.2354   32.9322 C   0  0  0  0  0  0  0  0  0  0  0  0
   33.9566   27.4433   33.9166 C   0  0  0  0  0  0  0  0  0  0  0  0
   27.8395   27.4583   31.9766 N   0  0  0  0  0  0  0  0  0  0  0  0
   28.0164   27.7662   33.4106 C   0  0  0  0  0  0  0  0  0  0  0  0
   33.5257   26.0775   34.9891 O   0  0  0  0  0  0  0  0  0  0  0  0
   31.4601   27.2041   33.8921 N   0  0  0  0  0  0  0  0  0  0  0  0
   26.8104   28.2402   33.9339 N   0  0  0  0  0  0  0  0  0  0  0  0
   33.1142   26.8286   33.4490 C   0  0  0  0  0  0  0  0  0  0  0  0
   33.3225   28.6006   38.5385 P   0  0  0  0  0  0  0  0  0  0  0  0
   29.5650   27.9089   34.9741 N   0  0  0  0  0  0  0  0  0  0  0  0
   29.1799   27.6618   33.5540 C   0  0  0  0  0  0  0  0  0  0  0  0
   33.6189   29.8753   38.2914 O   0  0  0  0  0  0  0  0  0  0  0  0
   33.5472   27.6830   42.3592 O   0  0  0  0  0  0  0  0  0  0  0  0
   34.1668   26.8188   32.1115 O   0  0  0  0  0  0  0  0  0  0  0  0
   33.4576   27.6703   37.0207 O   0  0  0  0  0  0  0  0  0  0  0  0
   35.1796   28.8847   41.4952 O   0  0  0  0  0  1  0  0  0  0  0  0
   30.0614   27.1370   31.7897 N   0  0  0  0  0  0  0  0  0  0  0  0
   33.8154   28.6711   41.4526 P   0  0  0  0  0  4  0  0  0  0  0  0
   31.4055   28.7885   39.1072 O   0  0  0  0  0  0  0  0  0  0  0  0
   35.2392   28.3560   33.5397 O   0  0  0  0  0  0  0  0  0  0  0  0
   34.5682   27.2164   36.4637 C   0  0  0  0  0  0  0  0  0  0  0  0
   28.8680   26.9166   31.1613 C   0  0  0  0  0  0  0  0  0  0  0  0
   35.1967   28.3524   38.3062 O   0  0  0  0  0  0  0  0  0  0  0  0
   33.0987   27.6766   39.5111 O   0  0  0  0  0  0  0  0  0  0  0  0
   30.9421   27.5808   34.8774 C   0  0  0  0  0  0  0  0  0  0  0  0
  3  1  1  0
  5  4  2  0
  7  2  1  0
  8  5  1  0
  9  3  1  0
  9  6  1  0
  9  7  1  0
 12  2  2  0
 12  5  1  0
 12 11  1  0
 13 10  1  0
 15  9  1  0
 16 10  1  0
 18  2  1  0
 19 14  1  0
 19 17  1  0
 20 19  1  0
 21  3  1  0
 22  1  1  0
 22 16  1  0
 23  4  1  0
 23 18  2  0
 24 22  1  0
 25 10  1  0
 25 19  1  0
 26  7  1  0
 26 11  2  0
M  RAD  2  17   2  19   2
M  END
>  <ID>  (1) 
conformer_0

$$$$
