
     RDKit          3D

 25 28  0  0  0  0  0  0  0  0999 V2000
   33.9634   27.1884   36.2123 C   0  0  0  0  0  0  0  0  0  0  0  0
   28.8383   26.9020   31.6533 C   0  0  0  0  0  0  0  0  0  0  0  0
   35.0021   27.7276   35.3857 C   0  0  0  0  0  0  0  0  0  0  0  0
   30.4554   27.7648   34.6637 C   0  0  0  0  0  0  0  0  0  0  0  0
   29.4877   28.0894   35.0027 N   0  0  0  0  0  0  0  0  0  0  0  0
   30.0630   27.0848   31.8516 N   0  0  0  0  0  0  0  0  0  0  0  0
   33.7820   28.6080   41.2266 P   0  0  0  0  0  4  0  0  0  0  0  0
   33.4277   27.5684   42.0236 O   0  0  0  0  0  0  0  0  0  0  0  0
   33.7992   28.3878   34.4378 C   0  0  0  0  0  0  0  0  0  0  0  0
   26.7426   28.2108   33.9366 N   0  0  0  0  0  0  0  0  0  0  0  0
   31.3646   27.3597   33.7507 N   0  0  0  0  0  0  0  0  0  0  0  0
   31.4481   28.2140   38.5302 O   0  0  0  0  0  1  0  0  0  0  0  0
   34.7599   26.8756   32.6254 O   0  0  0  0  0  0  0  0  0  0  0  0
   34.8850   28.5666   41.2768 O   0  0  0  0  0  0  0  0  0  0  0  0
   28.2026   27.8169   33.7199 C   0  0  0  0  0  0  0  0  0  0  0  0
   33.1346   27.8701   36.7388 O   0  0  0  0  0  0  0  0  0  0  0  0
   33.5574   30.1224   38.6176 O   0  0  0  0  0  0  0  0  0  0  0  0
   32.8680   28.6437   38.3918 P   0  0  0  0  0  0  0  0  0  0  0  0
   32.9562   26.4022   34.6733 O   0  0  0  0  0  0  0  0  0  0  0  0
   35.6108   28.3801   34.0317 O   0  0  0  0  0  0  0  0  0  0  0  0
   27.9581   27.4697   32.1505 N   0  0  0  0  0  0  0  0  0  0  0  0
   30.0185   27.4262   33.2634 C   0  0  0  0  0  0  0  0  0  0  0  0
   33.6269   28.1900   39.0421 O   0  0  0  0  0  0  0  0  0  0  0  0
   33.9822   27.2295   33.6642 C   0  0  0  0  0  0  0  0  0  0  0  0
   32.5323   27.0028   33.1647 C   0  0  0  0  0  0  0  0  0  0  0  0
  3  1  1  0
  5  4  2  0
  6  2  2  0
  8  7  1  0
  9  3  1  0
 11  4  1  0
 12  7  1  0
 14  7  1  0
 15  5  1  0
 15 10  1  0
 16  1  1  0
 18 16  1  0
 18 17  1  0
 20  3  1  0
 21  2  1  0
 21 15  1  0
 22  4  1  0
 22  6  1  0
 22 11  1  0
 22 15  1  0
 23  7  1  0
 23 18  1  0
 24  9  1  0
 24 13  1  0
 24 19  1  0
 25 11  1  0
 25 19  1  0
 25 24  1  0
M  RAD  2   7   2  12   2
M  END
>  <ID>  (1) 
conformer_0

$$$$
