
     RDKit          3D

 24 25  0  0  0  0  0  0  0  0999 V2000
   33.0452   27.0818   33.5973 C   0  0  1  0  0  0  0  0  0  0  0  0
   29.2809   27.1760   31.6039 C   0  0  0  0  0  0  0  0  0  0  0  0
   33.9819   27.7322   34.0120 C   0  0  1  0  0  0  0  0  0  0  0  0
   30.0491   27.4585   33.3721 C   0  0  1  0  0  0  0  0  0  0  0  0
   30.4819   27.2629   31.7577 N   0  0  0  0  0  0  0  0  0  0  0  0
   29.5694   27.8755   35.1112 N   0  0  0  0  0  0  0  0  0  0  0  0
   26.9216   28.0715   33.6516 N   0  0  0  0  0  0  0  0  0  0  0  0
   33.3472   26.2823   35.0108 O   0  0  0  0  0  0  0  0  0  0  0  0
   34.6419   27.7624   35.2237 C   0  0  1  0  0  0  0  0  0  0  0  0
   34.0802   28.7453   40.9365 P   0  0  0  0  0  4  0  0  0  0  0  0
   35.3069   29.0530   41.1951 O   0  0  0  0  0  1  0  0  0  0  0  0
   31.7647   28.3150   39.2168 O   0  0  0  0  0  0  0  0  0  0  0  0
   28.3601   27.7375   33.5834 C   0  0  0  0  0  3  0  0  0  0  0  0
   31.4596   27.2154   33.9607 N   0  0  0  0  0  0  0  0  0  0  0  0
   33.4963   30.0278   38.9942 O   0  0  0  0  0  0  0  0  0  0  0  0
   34.4818   27.4013   32.3519 O   0  0  0  0  0  0  0  0  0  0  0  0
   28.2480   27.4946   31.9237 N   0  0  0  0  0  0  0  0  0  0  0  0
   33.4382   27.6410   37.3861 O   0  0  0  0  0  0  0  0  0  0  0  0
   33.6337   27.6112   42.0165 O   0  0  0  0  0  0  0  0  0  0  0  0
   30.5890   27.6199   34.9907 C   0  0  0  0  0  0  0  0  0  0  0  0
   34.6054   27.4533   36.5319 C   0  0  0  0  0  0  0  0  0  0  0  0
   32.9941   28.3779   38.5383 P   0  0  0  0  0  0  0  0  0  0  0  0
   33.9796   28.0134   39.6774 O   0  0  0  0  0  0  0  0  0  0  0  0
   35.8785   27.7764   33.9270 O   0  0  0  0  0  0  0  0  0  0  0  0
  3  1  1  0
  5  2  2  0
  5  4  1  0
  1  8  1  1
  9  3  1  0
 11 10  1  0
 12 10  1  0
  4 13  1  1
 13  7  1  0
 14  1  1  0
 14  4  1  0
  3 16  1  6
 17  2  1  0
 17 13  1  0
 19 10  1  0
 20  4  1  0
 20  6  2  3
 20 14  1  0
 21  9  1  0
 21 18  1  0
 22 12  1  0
 22 15  1  0
 22 18  1  0
 23 10  1  0
  9 24  1  6
M  RAD  3  10   2  11   2  13   2
M  END
>  <ID>  (1) 
conformer_0

$$$$
