
     RDKit          3D

 23 26  0  0  0  0  0  0  0  0999 V2000
   29.2297   26.7880   31.4422 C   0  0  0  0  0  0  0  0  0  0  0  0
   33.8697   27.9216   33.6873 C   0  0  0  0  0  0  0  0  0  0  0  0
   32.9563   27.1821   33.5127 C   0  0  0  0  0  0  0  0  0  0  0  0
   29.3394   27.9472   35.0298 N   0  0  0  0  0  0  0  0  0  0  0  0
   30.3425   27.7789   34.7045 C   0  0  0  0  0  0  0  0  0  0  0  0
   28.0444   27.2495   31.9347 N   0  0  0  0  0  0  0  0  0  0  0  0
   26.8141   28.2247   33.8907 N   0  0  0  0  0  0  0  0  0  0  0  0
   33.1648   26.6947   35.1214 O   0  0  0  0  0  0  0  0  0  0  0  0
   28.2444   27.7285   33.5823 C   0  0  0  0  0  0  0  0  0  0  0  0
   34.6107   27.9797   35.0291 C   0  0  0  0  0  0  0  0  0  0  0  0
   33.5329   29.9248   38.5497 O   0  0  0  0  0  0  0  0  0  0  0  0
   33.4862   28.6371   38.5452 P   0  0  0  0  0  0  0  0  0  0  0  0
   34.6120   27.2946   32.4727 O   0  0  0  0  0  0  0  0  0  0  0  0
   33.8564   27.7823   37.6994 O   0  0  0  0  0  0  0  0  0  0  0  0
   31.2973   27.3538   33.9170 N   0  0  0  0  0  0  0  0  0  0  0  0
   33.6826   27.7465   42.1180 O   0  0  0  0  0  0  0  0  0  0  0  0
   30.3628   26.8857   31.7415 N   0  0  0  0  0  0  0  0  0  0  0  0
   34.9903   28.2164   39.8745 O   0  0  0  0  0  1  0  0  0  0  0  0
   32.2221   29.3687   41.4412 O   0  0  0  0  0  0  0  0  0  0  0  0
   29.8844   27.3134   33.1469 C   0  0  0  0  0  0  0  0  0  0  0  0
   34.1652   27.3518   36.3790 C   0  0  0  0  0  0  0  0  0  0  0  0
   31.8755   28.3359   38.7210 O   0  0  0  0  0  0  0  0  0  0  0  0
   33.7154   28.7520   41.1902 P   0  0  0  0  0  4  0  0  0  0  0  0
  3  2  1  0
  5  4  1  0
  6  1  2  0
  8  3  1  0
  9  4  1  0
  9  6  1  0
  9  7  1  0
 10  2  1  0
 12 11  1  0
 13  2  1  0
 14 12  1  0
 15  3  1  0
 15  5  1  0
 17  1  1  0
 20  5  1  0
 20  9  1  0
 20 15  1  0
 20 17  1  0
 21  8  1  0
 21 10  1  0
 21 14  1  0
 22 12  1  0
 23 16  1  0
 23 18  1  0
 23 19  1  0
 23 22  1  0
M  RAD  2  18   2  23   2
M  END
>  <ID>  (1) 
conformer_0

$$$$
