
     RDKit          3D

 23 25  0  0  0  0  0  0  0  0999 V2000
   30.5238   27.6038   34.9546 C   0  0  0  0  0  0  0  0  0  0  0  0
   34.1373   27.5546   33.9038 C   0  0  0  0  0  0  0  0  0  0  0  0
   34.5420   27.7761   35.1478 C   0  0  0  0  0  0  0  0  0  0  0  0
   28.0329   27.6026   32.1724 N   0  0  0  0  0  0  0  0  0  0  0  0
   30.1377   27.4779   33.3424 C   0  0  0  0  0  0  0  0  0  0  0  0
   29.5015   27.8086   35.2571 N   0  0  0  0  0  0  0  0  0  0  0  0
   32.9318   28.4222   38.6705 P   0  0  0  0  0  0  0  0  0  0  0  0
   34.6036   27.5256   36.6612 C   0  0  0  0  0  0  0  0  0  0  0  0
   26.8372   28.4454   33.9590 N   0  0  0  0  0  0  0  0  0  0  0  0
   33.2776   26.4500   35.1911 O   0  0  0  0  0  0  0  0  0  0  0  0
   31.3420   27.2353   33.8912 N   0  0  0  0  0  0  0  0  0  0  0  0
   32.3833   27.8936   39.6237 O   0  0  0  0  0  0  0  0  0  0  0  0
   28.3579   27.9552   33.7812 C   0  0  0  0  0  0  0  0  0  0  0  0
   34.6951   28.6016   40.7209 O   0  0  0  0  0  0  0  0  0  0  0  0
   33.4058   30.0338   39.1474 O   0  0  0  0  0  0  0  0  0  0  0  0
   34.4894   27.2649   32.1980 O   0  0  0  0  0  0  0  0  0  0  0  0
   33.6369   27.5545   42.3631 O   0  0  0  0  0  0  0  0  0  0  0  0
   35.1318   29.0438   33.9417 O   0  0  0  0  0  0  0  0  0  0  0  0
   30.2209   27.1396   31.7976 N   0  0  0  0  0  0  0  0  0  0  0  0
   33.3857   27.8512   37.7692 O   0  0  0  0  0  0  0  0  0  0  0  0
   33.1143   26.9670   33.5075 C   0  0  0  0  0  0  0  0  0  0  0  0
   33.7715   28.6429   41.1524 P   0  0  0  0  0  0  0  0  0  0  0  0
   29.1108   27.2335   31.9081 C   0  0  0  0  0  0  0  0  0  0  0  0
  3  2  1  0
  5  1  1  0
  6  1  2  0
  8  3  1  0
 10  3  1  0
 11  1  1  0
 11  5  1  0
 12  7  1  0
 13  4  2  0
 13  6  1  0
 13  9  1  0
 15  7  1  0
 16  2  1  0
 18  2  1  0
 19  5  1  0
 20  7  1  0
 20  8  1  0
 21  2  1  0
 21 10  1  0
 21 11  1  0
 22 12  1  0
 22 14  1  0
 22 17  1  0
 23  4  1  0
 23 19  1  0
M  END
>  <ID>  (1) 
conformer_0

$$$$
