
     RDKit          3D

 24 26  0  0  0  0  0  0  0  0999 V2000
   34.0711   27.7569   34.0870 C   0  0  0  0  0  0  0  0  0  0  0  0
   29.2802   27.0177   31.5829 C   0  0  0  0  0  0  0  0  0  0  0  0
   33.2438   26.8746   33.5456 C   0  0  0  0  0  0  0  0  0  0  0  0
   30.6861   27.7586   34.9307 C   0  0  0  0  0  0  0  0  0  0  0  0
   28.1336   27.4289   31.9907 N   0  0  0  0  0  0  0  0  0  0  0  0
   29.5873   28.0187   35.1039 N   0  0  0  0  0  0  0  0  0  0  0  0
   26.9567   28.2882   33.7700 N   0  0  0  0  0  0  0  0  0  0  0  0
   32.9453   28.4762   38.8154 P   0  0  0  0  0  0  0  0  0  0  0  0
   33.3804   26.2131   35.2524 O   0  0  0  0  0  0  0  0  0  0  0  0
   34.5018   27.7752   35.3439 C   0  0  0  0  0  0  0  0  0  0  0  0
   33.4801   27.7944   42.6410 O   0  0  0  0  0  0  0  0  0  0  0  0
   33.6369   27.8199   37.6774 O   0  0  0  0  0  0  0  0  0  0  0  0
   31.5524   27.3763   33.8747 N   0  0  0  0  0  0  0  0  0  0  0  0
   28.5196   27.8325   33.5255 C   0  0  0  0  0  0  0  0  0  0  0  0
   34.7998   27.0678   32.6058 O   0  0  0  0  0  0  0  0  0  0  0  0
   33.3250   27.7649   40.2842 O   0  0  0  0  0  1  0  0  0  0  0  0
   35.3163   28.9566   34.4519 O   0  0  0  0  0  0  0  0  0  0  0  0
   33.4427   29.8503   39.1092 O   0  0  0  0  0  0  0  0  0  0  0  0
   33.7552   28.5034   41.5533 P   0  0  0  0  0  4  0  0  0  0  0  0
   30.3849   27.1509   31.8927 N   0  0  0  0  0  0  0  0  0  0  0  0
   34.8945   28.6870   41.7284 O   0  0  0  0  0  0  0  0  0  0  0  0
   31.7450   28.1054   38.8690 O   0  0  0  0  0  0  0  0  0  0  0  0
   30.1449   27.6031   33.3158 C   0  0  0  0  0  0  0  0  0  0  0  0
   34.3320   27.2212   36.6206 C   0  0  0  0  0  0  0  0  0  0  0  0
  3  1  1  0
  5  2  2  0
  6  4  2  0
  9  3  1  0
 10  1  1  0
 12  8  1  0
 13  3  1  0
 13  4  1  0
 14  5  1  0
 14  6  1  0
 14  7  1  0
 15  1  1  0
 17 10  1  0
 18  8  1  0
 19 11  1  0
 19 16  1  0
 20  2  1  0
 21 19  1  0
 22  8  1  0
 22 19  1  0
 23  4  1  0
 23 13  1  0
 23 14  1  0
 23 20  1  0
 24 10  1  0
 24 12  1  0
M  RAD  2  16   2  19   2
M  END
>  <ID>  (1) 
conformer_0

$$$$
