
     RDKit          3D

 23 23  0  0  0  0  0  0  0  0999 V2000
   34.5498   27.5667   36.6237 C   0  0  0  0  0  0  0  0  0  0  0  0
   28.9019   26.8123   31.3201 C   0  0  0  0  0  0  0  0  0  0  0  0
   34.7176   27.8404   35.2770 C   0  0  0  0  0  0  0  0  0  0  0  0
   30.5649   27.6825   34.5215 C   0  0  0  0  0  0  0  0  0  0  0  0
   27.9178   27.3945   32.1167 N   0  0  0  0  0  0  0  0  0  0  0  0
   34.0076   27.5379   34.0284 C   0  0  0  0  0  0  0  0  0  0  0  0
   33.2062   26.5055   35.1565 O   0  0  0  0  0  0  0  0  0  0  0  0
   31.4099   27.2443   33.8323 N   0  0  0  0  0  0  0  0  0  0  0  0
   26.9001   28.1472   34.0830 N   0  0  0  0  0  0  0  0  0  0  0  0
   31.7178   28.3088   39.0158 O   0  0  0  0  0  0  0  0  0  0  0  0
   33.5075   27.5159   41.8595 O   0  0  0  0  0  0  0  0  0  0  0  0
   28.2546   27.7220   33.4965 C   0  0  0  0  0  0  0  0  0  0  0  0
   33.7819   28.4719   40.9844 P   0  0  0  0  0  0  0  0  0  0  0  0
   29.8462   27.9417   34.9235 N   0  0  0  0  0  0  0  0  0  0  0  0
   35.0214   28.4905   40.4363 O   0  0  0  0  0  0  0  0  0  0  0  0
   34.0833   27.3426   32.1290 O   0  0  0  0  0  0  0  0  0  0  0  0
   33.5613   29.9553   38.7420 O   0  0  0  0  0  0  0  0  0  0  0  0
   30.1690   26.9785   31.6821 N   0  0  0  0  0  0  0  0  0  0  0  0
   33.6753   28.0140   37.9433 O   0  0  0  0  0  0  0  0  0  0  0  0
   32.9998   27.0854   33.4145 C   0  0  1  0  0  0  0  0  0  0  0  0
   35.5226   28.3350   33.7972 O   0  0  0  0  0  0  0  0  0  0  0  0
   29.8943   27.3046   32.9990 C   0  0  0  0  0  0  0  0  0  0  0  0
   33.1100   28.5705   38.4865 P   0  0  0  0  0  0  0  0  0  0  0  0
  3  1  1  0
  5  2  2  0
  6  3  1  0
  7  6  1  0
  8  4  1  0
 12  5  1  0
 12  9  1  0
 13 10  1  0
 13 11  1  0
 14  4  2  3
 15 13  1  0
 18  2  1  0
 19  1  1  0
 20  6  1  0
 20  8  1  0
 20 16  1  6
 21  6  1  0
 22  4  1  0
 22 12  2  0
 22 18  1  0
 23 10  1  0
 23 17  1  0
 23 19  1  0
M  END
>  <ID>  (1) 
conformer_0

$$$$
