
     RDKit          3D

 22 23  0  0  0  0  0  0  0  0999 V2000
   33.0506   26.9220   33.7577 C   0  0  1  0  0  0  0  0  0  0  0  0
   29.7932   27.3544   33.0997 C   0  0  0  0  0  0  0  0  0  0  0  0
   33.9576   27.9162   34.0246 C   0  0  1  0  0  0  0  0  0  0  0  0
   30.5799   26.9465   31.9750 N   0  0  0  0  0  0  0  0  0  0  0  0
   29.7581   27.9426   34.9753 N   0  0  0  0  0  0  0  0  0  0  0  0
   29.4618   26.8172   31.2747 C   0  0  0  0  0  0  0  0  0  0  0  0
   33.8341   28.4318   41.2576 P   0  0  0  0  0  4  0  0  0  0  0  0
   27.0832   28.2248   33.7623 N   0  0  0  0  0  0  0  0  0  0  0  0
   33.2651   29.7594   38.1773 O   0  0  0  0  0  0  0  0  0  0  0  0
   34.6442   27.8198   35.1911 C   0  0  0  0  0  0  0  0  0  0  0  0
   33.3870   26.3759   35.2852 O   0  0  0  0  0  0  0  0  0  0  0  0
   33.7755   27.6907   42.1870 O   0  0  0  0  0  0  0  0  0  0  0  0
   28.2866   27.7787   33.5734 C   0  0  1  0  0  0  0  0  0  0  0  0
   33.7628   27.6825   38.1563 O   0  0  0  0  0  0  0  0  0  0  0  0
   28.2153   27.3316   31.9821 N   0  0  0  0  0  0  0  0  0  0  0  0
   34.8036   29.2972   41.3860 O   0  0  0  0  0  1  0  0  0  0  0  0
   33.0596   28.5922   38.3082 P   0  0  0  0  0  0  0  0  0  0  0  0
   31.5615   28.3035   38.4644 O   0  0  0  0  0  0  0  0  0  0  0  0
   34.8168   28.0196   33.1753 O   0  0  0  0  0  0  0  0  0  0  0  0
   31.5247   27.2417   34.0694 N   0  0  0  0  0  0  0  0  0  0  0  0
   30.4405   27.7259   34.6628 C   0  0  0  0  0  0  0  0  0  0  0  0
   34.3750   27.0804   36.5123 C   0  0  2  0  0  0  0  0  0  0  0  0
  3  1  1  0
  4  2  2  0
  6  4  1  0
 10  3  1  0
 11  1  1  0
 12  7  1  0
 13  2  1  0
 13  8  1  6
 15  6  2  0
 15 13  1  0
 16  7  1  0
 17  9  1  0
 17 14  1  0
 18  7  1  0
 18 17  1  0
  3 19  1  6
  1 20  1  1
 21  2  1  0
 21  5  2  3
 21 20  1  0
 22 10  1  0
 22 11  1  0
 22 14  1  1
M  RAD  2   7   2  16   2
M  END
>  <ID>  (1) 
conformer_0

$$$$
