
     RDKit          3D

 23 24  0  0  0  0  0  0  0  0999 V2000
   28.3572   27.7128   33.3861 C   0  0  0  0  0  0  0  0  0  0  0  0
   34.1888   27.7360   34.0527 C   0  0  2  0  0  0  0  0  0  0  0  0
   34.9821   28.0527   35.2387 C   0  0  1  0  0  0  0  0  0  0  0  0
   30.7106   27.6930   34.7746 C   0  0  0  0  0  0  0  0  0  0  0  0
   27.9768   27.2731   31.8435 N   0  0  0  0  0  0  0  0  0  0  0  0
   29.5299   27.9681   34.9431 N   0  0  0  0  0  0  0  0  0  0  0  0
   31.5274   27.3418   34.0727 N   0  0  0  0  0  0  0  0  0  0  0  0
   26.7691   28.1631   33.5958 N   0  0  0  0  0  0  0  0  0  0  0  0
   33.8680   28.5696   41.3815 P   0  0  2  0  0  4  0  0  0  0  0  0
   33.4578   26.3777   35.2819 O   0  0  0  0  0  0  0  0  0  0  0  0
   33.1593   27.0003   33.6815 C   0  0  2  0  0  0  0  0  0  0  0  0
   33.9729   27.5112   37.9158 O   0  0  0  0  0  0  0  0  0  0  0  0
   29.7357   27.4711   33.3065 C   0  0  0  0  0  0  0  0  0  0  0  0
   34.9504   28.5551   41.6380 O   0  0  0  0  0  1  0  0  0  0  0  0
   30.2863   27.0415   31.7862 N   0  0  0  0  0  0  0  0  0  0  0  0
   34.5250   26.9821   32.5446 O   0  0  0  0  0  0  0  0  0  0  0  0
   34.0481   29.6790   38.8744 O   0  0  0  0  0  0  0  0  0  0  0  0
   35.4599   29.2985   34.6129 O   0  0  0  0  0  0  0  0  0  0  0  0
   33.3774   27.6316   42.4463 O   0  0  0  0  0  0  0  0  0  0  0  0
   33.3692   28.3154   38.6992 P   0  0  0  0  0  0  0  0  0  0  0  0
   29.0545   26.8106   31.3192 C   0  0  0  0  0  0  0  0  0  0  0  0
   34.5965   27.3076   36.3834 C   0  0  2  0  0  0  0  0  0  0  0  0
   32.2392   28.3360   38.4300 O   0  0  0  0  0  0  0  0  0  0  0  0
  3  2  1  0
  5  1  2  0
  6  4  1  0
  7  4  2  3
  8  1  1  0
 11  2  1  0
 11  7  1  0
 11 10  1  1
 13  1  1  0
 13  6  1  0
  9 14  1  6
 15 13  2  0
  2 16  1  6
  3 18  1  1
 19  9  1  0
 20 12  1  0
 20 17  1  0
 21  5  1  0
 21 15  1  0
 22  3  1  0
 22 10  1  0
 22 12  1  1
 23  9  1  0
 23 20  1  0
M  RAD  2   9   2  14   2
M  END
>  <ID>  (1) 
conformer_0

$$$$
