
     RDKit          3D

 24 25  0  0  0  0  0  0  0  0999 V2000
   34.4985   27.1931   36.4343 C   0  0  2  0  0  0  0  0  0  0  0  0
   28.3293   27.7404   33.5091 C   0  0  0  0  0  0  0  0  0  0  0  0
   35.0080   27.8804   35.3766 C   0  0  2  0  0  0  0  0  0  0  0  0
   29.8226   27.4964   33.4388 C   0  0  0  0  0  0  0  0  0  0  0  0
   28.0332   27.3910   32.0301 N   0  0  0  0  0  0  0  0  0  0  0  0
   26.9080   28.1879   33.9446 N   0  0  0  0  0  0  0  0  0  0  0  0
   33.9626   28.7565   40.9813 P   0  0  1  0  0  4  0  0  0  0  0  0
   34.1106   27.7308   34.2326 C   0  0  1  0  0  0  0  0  0  0  0  0
   33.5457   26.3501   35.4770 O   0  0  0  0  0  0  0  0  0  0  0  0
   29.1174   26.8696   31.3908 C   0  0  0  0  0  0  0  0  0  0  0  0
   29.7806   27.9641   35.0965 N   0  0  0  0  0  0  0  0  0  0  0  0
   33.4280   27.5667   37.8649 O   0  0  0  0  0  0  0  0  0  0  0  0
   30.4959   27.1611   32.1754 N   0  0  0  0  0  0  0  0  0  0  0  0
   34.3312   27.2699   32.5902 O   0  0  0  0  0  0  0  0  0  0  0  0
   31.5986   27.3930   34.3427 N   0  0  0  0  0  0  0  0  0  0  0  0
   33.6113   28.0141   41.9985 O   0  0  0  0  0  0  0  0  0  0  0  0
   35.0726   28.2577   40.7393 O   0  0  0  0  0  1  0  0  0  0  0  0
   33.6829   29.7269   38.5840 O   0  0  0  0  0  0  0  0  0  0  0  0
   36.2404   28.0706   34.9053 O   0  0  0  0  0  0  0  0  0  0  0  0
   32.7721   28.4525   38.5094 P   0  0  0  0  0  0  0  0  0  0  0  0
   30.8708   27.6583   34.9837 C   0  0  0  0  0  0  0  0  0  0  0  0
   31.6873   28.1092   38.8713 O   0  0  0  0  0  0  0  0  0  0  0  0
   33.0619   27.1179   33.8545 C   0  0  1  0  0  0  0  0  0  0  0  0
   32.6649   29.7032   40.7461 C   0  0  0  0  0  0  0  0  0  0  0  0
  3  1  1  0
  4  2  1  0
  5  2  2  0
  6  2  1  0
  8  3  1  0
  9  1  1  0
 10  5  1  0
 11  4  1  0
  1 12  1  1
 13  4  2  0
 13 10  1  0
  8 14  1  6
  7 16  1  6
 17  7  1  0
  3 19  1  6
 20 12  1  0
 20 18  1  0
 21 11  2  3
 21 15  1  0
 22 20  1  0
 23  8  1  0
 23  9  1  0
 23 15  1  1
 24  7  1  0
 24 22  1  0
M  RAD  2   7   2  17   2
M  END
>  <ID>  (1) 
conformer_0

$$$$
