
     RDKit          3D

 24 26  0  0  0  0  0  0  0  0999 V2000
   28.9933   26.8121   31.3104 C   0  0  0  0  0  0  0  0  0  0  0  0
   34.5732   28.2382   34.9329 C   0  0  0  0  0  0  0  0  0  0  0  0
   34.3947   27.2735   36.1283 C   0  0  0  0  0  0  0  0  0  0  0  0
   29.7817   27.2909   32.9730 C   0  0  0  0  0  3  0  0  0  0  0  0
   27.9524   27.4350   32.0154 N   0  0  0  0  0  0  0  0  0  0  0  0
   28.3056   27.7680   33.5089 C   0  0  0  0  0  0  0  0  0  0  0  0
   31.4612   27.1201   33.6926 N   0  0  0  0  0  0  0  0  0  0  0  0
   29.6276   27.9196   34.7543 N   0  0  0  0  0  0  0  0  0  0  0  0
   33.7340   28.5207   41.2500 P   0  0  0  0  0  4  0  0  0  0  0  0
   31.6578   28.3836   38.5089 O   0  0  0  0  0  0  0  0  0  0  0  0
   34.0245   27.7956   33.8058 C   0  0  0  0  0  0  0  0  0  0  0  0
   33.4488   26.2765   35.0268 O   0  0  0  0  0  0  0  0  0  0  0  0
   34.0689   26.9998   32.0578 O   0  0  0  0  0  0  0  0  0  0  0  0
   30.3342   26.8155   31.6157 N   0  0  0  0  0  0  0  0  0  0  0  0
   33.7779   27.6455   42.1791 O   0  0  0  0  0  0  0  0  0  0  0  0
   34.3906   28.9618   40.7838 O   0  0  0  0  0  1  0  0  0  0  0  0
   26.8372   28.3671   34.0662 N   0  0  0  0  0  0  0  0  0  0  0  0
   32.8237   28.5291   38.3424 P   0  0  0  0  0  0  0  0  0  0  0  0
   33.2129   30.2879   38.4484 O   0  0  0  0  0  0  0  0  0  0  0  0
   30.6572   27.4409   34.2406 C   0  0  0  0  0  0  0  0  0  0  0  0
   33.7127   27.9335   38.9157 O   0  0  0  0  0  0  0  0  0  0  0  0
   33.0786   26.7959   33.4194 C   0  0  0  0  0  0  0  0  0  0  0  0
   35.4358   28.1149   33.1408 O   0  0  0  0  0  0  0  0  0  0  0  0
   33.1755   28.1441   36.6971 O   0  0  0  0  0  0  0  0  0  0  0  0
  3  2  1  0
  5  1  2  0
  6  4  1  0
  6  5  1  0
  8  6  1  0
 10  9  1  0
 11  2  1  0
 12  3  1  0
 14  1  1  0
 14  4  1  0
 15  9  1  0
 16  9  1  0
 17  6  1  0
 18 10  1  0
 19 18  1  0
 20  4  1  0
 20  7  1  0
 20  8  2  0
 21  9  1  0
 22  7  1  0
 22 11  1  0
 22 12  1  0
 22 13  1  0
 23 11  1  0
 24  3  1  0
 24 18  1  0
M  RAD  3   4   2   9   2  16   2
M  END
>  <ID>  (1) 
conformer_0

$$$$
