
     RDKit          3D

 23 23  0  0  0  0  0  0  0  0999 V2000
   33.0962   27.2268   33.7159 C   0  0  2  0  0  0  0  0  0  0  0  0
   28.3248   27.7791   33.6151 C   0  0  0  0  0  0  0  0  0  0  0  0
   34.2354   27.9632   33.8766 C   0  0  1  0  0  0  0  0  0  0  0  0
   29.7575   27.3826   33.4911 C   0  0  0  0  0  0  0  0  0  0  0  0
   27.8768   27.4601   32.1620 N   0  0  0  0  0  0  0  0  0  0  0  0
   29.5620   27.9874   35.2162 N   0  0  0  0  0  0  0  0  0  0  0  0
   33.8730   28.5793   41.4466 P   0  0  0  0  0  0  0  0  0  0  0  0
   26.8945   28.3574   34.1155 N   0  0  0  0  0  0  0  0  0  0  0  0
   31.3739   27.2799   34.0998 N   0  0  0  0  0  0  0  0  0  0  0  0
   34.8678   27.9568   35.1037 C   0  0  2  0  0  0  0  0  0  0  0  0
   28.9187   27.0413   31.5619 C   0  0  0  0  0  0  0  0  0  0  0  0
   33.7517   27.6336   42.3526 O   0  0  0  0  0  0  0  0  0  0  0  0
   33.3342   26.4503   35.0959 O   0  0  0  0  0  0  0  0  0  0  0  0
   35.1658   27.2096   32.6722 O   0  0  0  0  0  0  0  0  0  0  0  0
   31.9776   28.3109   39.3489 O   0  0  0  0  0  0  0  0  0  0  0  0
   33.6764   29.8698   38.8874 O   0  0  0  0  0  0  0  0  0  0  0  0
   30.0847   27.0761   31.9925 N   0  0  0  0  0  0  0  0  0  0  0  0
   34.7038   28.3044   40.6292 O   0  0  0  0  0  0  0  0  0  0  0  0
   33.1234   28.5142   38.8372 P   0  0  0  0  0  0  0  0  0  0  0  0
   33.4495   27.7389   37.8601 O   0  0  0  0  0  0  0  0  0  0  0  0
   30.6659   27.6193   34.9549 C   0  0  0  0  0  0  0  0  0  0  0  0
   34.4081   27.3675   36.4264 C   0  0  0  0  0  0  0  0  0  0  0  0
   35.8137   28.9922   34.9486 O   0  0  0  0  0  0  0  0  0  0  0  0
  3  1  1  0
  4  2  2  0
  5  2  1  0
  8  2  1  0
  9  1  1  0
 10  3  1  0
 11  5  1  0
 12  7  1  0
  1 13  1  1
  3 14  1  6
 15  7  1  0
 17  4  1  0
 17 11  2  0
 18  7  1  0
 19 15  1  0
 19 16  1  0
 20 19  1  0
 21  4  1  0
 21  6  2  3
 21  9  1  0
 22 10  1  0
 22 20  1  0
 10 23  1  1
M  END
>  <ID>  (1) 
conformer_0

$$$$
