
     RDKit          3D

 25 26  0  0  0  0  0  0  0  0999 V2000
   34.3225   27.1175   36.6018 C   0  0  0  0  0  0  0  0  0  0  0  0
   34.4972   27.4075   35.2966 C   0  0  0  0  0  0  0  0  0  0  0  0
   29.1514   26.9651   31.3985 C   0  0  0  0  0  0  0  0  0  0  0  0
   30.5951   27.7278   34.5457 C   0  0  0  0  0  0  0  0  0  0  0  0
   28.2462   27.3765   31.9851 N   0  0  0  0  0  0  0  0  0  0  0  0
   31.3948   27.3174   33.5824 N   0  0  0  0  0  0  0  0  0  0  0  0
   26.9048   28.1638   33.5970 N   0  0  0  0  0  0  0  0  0  0  0  0
   33.1284   26.1215   34.8876 O   0  0  0  0  0  0  0  0  0  0  0  0
   33.8464   27.5733   34.0658 C   0  0  0  0  0  0  0  0  0  0  0  0
   33.4578   28.6854   40.9231 P   0  0  0  0  0  5  0  0  0  0  0  0
   29.5926   27.9415   34.6693 N   0  0  0  0  0  0  0  0  0  0  0  0
   35.9581   27.5483   35.0893 O   0  0  0  0  0  0  0  0  0  0  0  0
   33.8898   27.7664   41.8243 O   0  0  0  0  0  0  0  0  0  0  0  0
   34.6467   27.2937   32.6442 O   0  0  0  0  0  0  0  0  0  0  0  0
   33.1877   27.5699   39.2915 O   0  0  0  0  0  0  0  0  0  0  0  0
   28.4515   27.7493   33.3326 C   0  0  0  0  0  0  0  0  0  0  0  0
   32.2085   29.0339   40.4200 O   0  0  0  0  0  0  0  0  0  0  0  0
   33.8610   29.9104   39.2267 O   0  0  0  0  0  0  0  0  0  0  0  0
   30.4087   27.1189   31.6412 N   0  0  0  0  0  0  0  0  0  0  0  0
   31.9897   29.2986   37.8267 O   0  0  0  0  0  0  0  0  0  0  0  0
   32.6872   28.4143   38.4533 P   0  0  0  0  0  0  0  0  0  0  0  0
   32.9451   27.1364   33.3677 C   0  0  0  0  0  0  0  0  0  0  0  0
   33.2385   29.5215   42.2356 C   0  0  0  0  0  0  0  0  0  0  0  0
   30.3971   27.4132   32.9257 C   0  0  0  0  0  0  0  0  0  0  0  0
   33.2122   27.5067   36.9919 O   0  0  0  0  0  0  0  0  0  0  0  0
  2  1  1  0
  5  3  1  0
  6  4  1  0
  9  2  1  0
  9  8  1  0
 11  4  2  0
 12  2  1  0
 13 10  1  0
 14  9  1  0
 15 10  1  0
 16  5  2  0
 16  7  1  0
 16 11  1  0
 17 10  1  0
 19  3  1  0
 20 10  1  0
 21 18  1  0
 21 20  1  0
 22  6  1  0
 22  9  1  0
 23 10  1  0
 24  4  1  0
 24  6  1  0
 24 19  2  0
 25  1  1  0
 25 21  1  0
M  END
>  <ID>  (1) 
conformer_0

$$$$
