
     RDKit          3D

 23 25  0  0  0  0  0  0  0  0999 V2000
   28.4703   27.8302   33.4758 C   0  0  0  0  0  0  0  0  0  0  0  0
   34.1025   27.8927   34.3150 C   0  0  1  0  0  0  0  0  0  0  0  0
   33.0571   27.0613   33.8149 C   0  0  1  0  0  0  0  0  0  0  0  0
   30.6208   27.7519   34.9713 C   0  0  0  0  0  0  0  0  0  0  0  0
   28.1541   27.4129   31.9357 N   0  0  0  0  0  0  0  0  0  0  0  0
   26.8074   28.2379   33.6279 N   0  0  0  0  0  0  0  0  0  0  0  0
   33.5172   26.2988   35.3148 O   0  0  0  0  0  0  0  0  0  0  0  0
   33.3860   28.3295   38.9152 P   0  0  0  0  0  0  0  0  0  0  0  0
   31.4531   27.3253   34.0526 N   0  0  0  0  0  0  0  0  0  0  0  0
   34.7837   28.0467   35.4600 C   0  0  1  0  0  0  0  0  0  0  0  0
   29.5450   28.1118   35.0619 N   0  0  0  0  0  0  0  0  0  0  0  0
   32.8911   27.7447   39.5356 O   0  0  0  0  0  0  0  0  0  0  0  0
   29.9812   27.5391   33.3621 C   0  0  2  0  0  0  0  0  0  0  0  0
   33.7170   27.5967   42.1996 O   0  0  0  0  0  0  0  0  0  0  0  0
   34.7460   27.4240   32.9043 O   0  0  0  0  0  0  0  0  0  0  0  0
   35.5376   29.2560   34.9243 O   0  0  0  0  0  0  0  0  0  0  0  0
   33.9300   29.7197   41.5748 O   0  0  0  0  0  1  0  0  0  0  0  0
   33.6625   29.6719   38.9343 O   0  0  0  0  0  0  0  0  0  0  0  0
   30.3373   27.0198   31.8733 N   0  0  0  0  0  0  0  0  0  0  0  0
   29.0954   26.9320   31.4947 C   0  0  0  0  0  0  0  0  0  0  0  0
   33.6770   28.6216   41.4825 P   0  0  0  0  0  4  0  0  0  0  0  0
   34.4463   27.1647   36.6656 C   0  0  1  0  0  0  0  0  0  0  0  0
   33.8256   27.6100   37.7935 O   0  0  0  0  0  0  0  0  0  0  0  0
  3  2  1  0
  5  1  2  0
  6  1  1  0
  7  3  1  0
  3  9  1  1
  9  4  1  0
 10  2  1  0
 11  4  2  3
 12  8  1  0
 13  1  1  0
 13  4  1  0
 13  9  1  1
  2 15  1  6
 10 16  1  1
 18  8  1  0
 19 13  1  0
 20  5  1  0
 20 19  2  0
 21 12  1  0
 21 14  1  0
 21 17  1  0
 22  7  1  0
 22 10  1  0
 23  8  1  0
 22 23  1  1
M  RAD  2  17   2  21   2
M  END
>  <ID>  (1) 
conformer_0

$$$$
