
     RDKit          3D

 25 25  0  0  0  0  0  0  0  0999 V2000
   28.4389   27.7377   33.5392 C   0  0  0  0  0  0  0  0  0  0  0  0
   34.8018   27.9127   35.4180 C   0  0  0  0  0  0  0  0  0  0  0  0
   34.2293   27.8241   34.0552 C   0  0  0  0  0  0  0  0  0  0  0  0
   29.9041   27.4680   33.2412 C   0  0  0  0  0  0  0  0  0  0  0  0
   29.8491   28.0897   35.1160 N   0  0  0  0  0  0  0  0  0  0  0  0
   27.9933   27.3465   32.0471 N   0  0  0  0  0  0  0  0  0  0  0  0
   33.9021   28.5119   41.0878 P   0  0  0  0  0  5  0  0  0  0  0  0
   33.2500   27.1577   33.4669 C   0  0  0  0  0  0  0  0  0  0  0  0
   27.0500   28.0825   34.0228 N   0  0  0  0  0  0  0  0  0  0  0  0
   29.1087   26.7649   31.3991 C   0  0  0  0  0  0  0  0  0  0  0  0
   33.4639   26.3025   35.0352 O   0  0  0  0  0  0  0  0  0  0  0  0
   33.4662   27.7326   42.0862 O   0  0  0  0  0  0  0  0  0  0  0  0
   33.2085   27.6724   37.3607 O   0  0  0  0  0  0  0  0  0  0  0  0
   35.3603   28.4214   40.7984 O   0  0  0  0  0  0  0  0  0  0  0  0
   31.6241   27.3908   33.9330 N   0  0  0  0  0  0  0  0  0  0  0  0
   35.5115   29.2207   34.4670 O   0  0  0  0  0  0  0  0  0  0  0  0
   32.5864   28.2542   38.6056 P   0  0  0  0  0  0  0  0  0  0  0  0
   34.4775   27.5948   32.3260 O   0  0  0  0  0  0  0  0  0  0  0  0
   33.6312   29.8602   41.1794 O   0  0  0  0  0  0  0  0  0  0  0  0
   30.2149   27.0463   31.7493 N   0  0  0  0  0  0  0  0  0  0  0  0
   31.3237   28.5743   38.8616 O   0  0  0  0  0  0  0  0  0  0  0  0
   30.8037   27.7774   34.7073 C   0  0  0  0  0  0  0  0  0  0  0  0
   34.6148   27.5272   36.7188 C   0  0  0  0  0  0  0  0  0  0  0  0
   33.1413   27.5367   39.6176 O   0  0  0  0  0  0  0  0  0  0  0  0
   33.4596   29.7573   38.7777 O   0  0  0  0  0  0  0  0  0  0  0  0
  3  2  2  3
  4  1  2  0
  6  1  1  0
  8  3  1  0
  9  1  1  0
 10  6  1  0
 11  8  1  0
 12  7  1  0
 14  7  1  0
 15  8  1  0
 16  2  1  0
 17 13  1  0
 18  8  1  0
 19  7  1  0
 20  4  1  0
 20 10  2  0
 21  7  1  0
 21 17  1  0
 22  4  1  0
 22  5  2  3
 22 15  1  0
 23  2  1  0
 23 13  1  0
 24  7  1  0
 25 17  1  0
M  END
>  <ID>  (1) 
conformer_0

$$$$
