
     RDKit          3D

 25 26  0  0  0  0  0  0  0  0999 V2000
   33.8927   27.6055   33.8151 C   0  0  0  0  0  0  0  0  0  0  0  0
   28.8542   26.9196   31.3277 C   0  0  0  0  0  0  0  0  0  0  0  0
   32.9531   26.9331   33.1916 C   0  0  0  0  0  0  0  0  0  0  0  0
   30.8150   27.8080   34.8204 C   0  0  0  0  0  0  0  0  0  0  0  0
   30.1348   27.0986   31.6485 N   0  0  0  0  0  0  0  0  0  0  0  0
   33.7713   28.5661   41.3555 P   0  0  0  0  0  4  0  0  0  0  0  0
   34.3880   27.6407   34.9011 C   0  0  0  0  0  0  0  0  0  0  0  0
   26.7854   28.1956   33.9685 N   0  0  0  0  0  0  0  0  0  0  0  0
   29.7388   28.0780   34.8523 N   0  0  0  0  0  0  0  0  0  0  0  0
   33.1251   26.2252   34.7960 O   0  0  0  0  0  0  0  0  0  0  0  0
   31.4026   27.3318   33.5685 N   0  0  0  0  0  0  0  0  0  0  0  0
   33.4132   27.7794   42.1242 O   0  0  0  0  0  0  0  0  0  0  0  0
   29.1886   27.6974   33.6584 C   0  0  0  0  0  0  0  0  0  0  0  0
   34.8385   29.2998   41.6609 O   0  0  0  0  0  1  0  0  0  0  0  0
   33.3651   27.8859   36.7368 O   0  0  0  0  0  0  0  0  0  0  0  0
   35.7519   27.7691   33.9452 O   0  0  0  0  0  0  0  0  0  0  0  0
   33.3230   28.4030   38.3588 P   0  0  0  0  0  4  0  0  0  0  0  0
   33.2900   29.6841   38.4158 O   0  0  0  0  0  0  0  0  0  0  0  0
   27.9726   27.5209   32.1025 N   0  0  0  0  0  0  0  0  0  0  0  0
   34.1919   26.6314   32.1061 O   0  0  0  0  0  0  0  0  0  0  0  0
   33.4450   28.2456   40.2128 N   0  0  0  0  0  0  0  0  0  0  0  0
   34.5693   27.1491   36.3273 C   0  0  0  0  0  0  0  0  0  0  0  0
   27.9224   27.8441   33.3978 C   0  0  0  0  0  0  0  0  0  0  0  0
   30.4554   27.4389   32.7479 C   0  0  0  0  0  0  0  0  0  0  0  0
   33.8565   28.1379   38.7346 O   0  0  0  0  0  1  0  0  0  0  0  0
  3  1  1  0
  5  2  2  0
  7  1  1  0
  9  4  2  0
 10  3  1  0
 11  3  1  0
 11  4  1  0
 12  6  1  0
 13  9  1  0
 14  6  1  0
 16  7  1  0
 17 15  1  0
 18 17  1  0
 19  2  1  0
 20  3  1  0
 21  6  1  0
 21 17  1  0
 22  7  1  0
 22 15  1  0
 23  8  1  0
 23 13  1  0
 23 19  2  0
 24  5  1  0
 24 11  1  0
 24 13  2  0
 25 17  1  0
M  RAD  4   6   2  14   2  17   2  25   2
M  END
>  <ID>  (1) 
conformer_0

$$$$
