
     RDKit          3D

 25 27  0  0  0  0  0  0  0  0999 V2000
   33.9714   27.4788   33.8580 C   0  0  0  0  0  0  0  0  0  0  0  0
   28.9348   26.8381   31.2892 C   0  0  0  0  0  0  0  0  0  0  0  0
   34.7157   27.8762   35.0385 C   0  0  0  0  0  0  0  0  0  0  0  0
   29.3420   27.8001   34.0004 C   0  0  0  0  0  0  0  0  0  0  0  0
   27.9683   27.4895   32.2010 N   0  0  0  0  0  0  0  0  0  0  0  0
   29.7215   28.0557   35.0944 N   0  0  0  0  0  0  0  0  0  0  0  0
   33.5229   26.3320   35.2464 O   0  0  0  0  0  0  0  0  0  0  0  0
   33.0880   26.9478   33.3156 C   0  0  0  0  0  0  0  0  0  0  0  0
   26.8006   28.2207   34.0758 N   0  0  0  0  0  0  0  0  0  0  0  0
   33.4822   28.4405   38.6040 P   0  0  0  0  0  0  0  0  0  0  0  0
   33.6433   27.6512   42.1843 O   0  0  0  0  0  0  0  0  0  0  0  0
   28.0676   27.7347   33.3735 C   0  0  0  0  0  0  0  0  0  0  0  0
   32.3135   27.5682   39.1408 O   0  0  0  0  0  0  0  0  0  0  0  0
   33.2321   29.6477   38.1754 O   0  0  0  0  0  0  0  0  0  0  0  0
   35.0389   28.6493   40.1565 O   0  0  0  0  0  1  0  0  0  0  0  0
   34.4277   26.9618   32.2401 O   0  0  0  0  0  0  0  0  0  0  0  0
   35.0581   29.1260   34.0350 O   0  0  0  0  0  0  0  0  0  0  0  0
   31.4684   27.2931   33.8699 N   0  0  0  0  0  0  0  0  0  0  0  0
   30.1605   27.0649   31.7667 N   0  0  0  0  0  0  0  0  0  0  0  0
   31.0749   27.7940   35.3165 C   0  0  0  0  0  0  0  0  0  0  0  0
   33.6936   28.3927   41.2227 P   0  0  0  0  0  4  0  0  0  0  0  0
   34.0738   27.7285   37.7040 O   0  0  0  0  0  0  0  0  0  0  0  0
   32.8300   28.9805   40.8467 N   0  0  0  0  0  0  0  0  0  0  0  0
   34.6661   27.3256   36.3196 C   0  0  0  0  0  0  0  0  0  0  0  0
   30.4090   27.3117   33.0464 C   0  0  0  0  0  0  0  0  0  0  0  0
  3  1  1  0
  5  2  2  0
  6  4  1  0
  7  1  1  0
  8  1  1  0
 12  4  2  0
 12  5  1  0
 12  9  1  0
 13 10  1  0
 14 10  1  0
 16  8  1  0
 17  3  1  0
 18  8  1  0
 19  2  1  0
 20  6  2  0
 20 18  1  0
 21 11  1  0
 21 13  1  0
 21 15  1  0
 22 10  1  0
 23 21  1  0
 24  3  1  0
 24  7  1  0
 24 22  1  0
 25  4  1  0
 25 18  1  0
 25 19  2  0
M  RAD  2  15   2  21   2
M  END
>  <ID>  (1) 
conformer_0

$$$$
