
     RDKit          3D

 24 24  0  0  0  0  0  0  0  0999 V2000
   28.4503   27.8857   33.3892 C   0  0  0  0  0  0  0  0  0  0  0  0
   34.1355   27.7687   33.8180 C   0  0  1  0  0  0  0  0  0  0  0  0
   33.0921   26.9825   33.7123 C   0  0  1  0  0  0  0  0  0  0  0  0
   30.5976   27.7901   34.8670 C   0  0  0  0  0  0  0  0  0  0  0  0
   30.6254   27.2164   31.9173 N   0  0  0  0  0  0  0  0  0  0  0  0
   32.9428   28.3778   38.7154 P   0  0  0  0  0  0  0  0  0  0  0  0
   29.5107   28.0103   35.0875 N   0  0  0  0  0  0  0  0  0  0  0  0
   27.0939   28.2672   33.4227 N   0  0  0  0  0  0  0  0  0  0  0  0
   33.4686   26.4594   35.1446 O   0  0  0  0  0  0  0  0  0  0  0  0
   31.4391   28.4552   38.7171 O   0  0  0  0  0  0  0  0  0  0  0  0
   31.4822   27.3759   34.1955 N   0  0  0  0  0  0  0  0  0  0  0  0
   33.5356   29.5453   38.7210 O   0  0  0  0  0  0  0  0  0  0  0  0
   29.8833   27.6359   33.3469 C   0  0  0  0  0  0  0  0  0  0  0  0
   34.6847   28.2528   35.0507 C   0  0  2  0  0  0  0  0  0  0  0  0
   34.5773   27.3410   32.3594 O   0  0  0  0  0  0  0  0  0  0  0  0
   28.3311   27.4872   31.7370 N   0  0  0  0  0  0  0  0  0  0  0  0
   33.4878   28.0807   42.5213 O   0  0  0  0  0  0  0  0  0  0  0  0
   35.3061   29.3855   34.1879 O   0  0  0  0  0  0  0  0  0  0  0  0
   33.1542   27.2917   40.4088 O   0  0  0  0  0  1  0  0  0  0  0  0
   33.6214   28.1975   41.4489 P   0  0  0  0  0  4  0  0  0  0  0  0
   33.5229   27.6169   37.6730 O   0  0  0  0  0  0  0  0  0  0  0  0
   29.3662   27.0437   31.4311 C   0  0  0  0  0  0  0  0  0  0  0  0
   34.6616   27.5520   36.2627 C   0  0  0  0  0  0  0  0  0  0  0  0
   34.6760   28.4404   41.1008 O   0  0  0  0  0  0  0  0  0  0  0  0
  3  2  1  0
  7  4  2  3
  8  1  1  0
  3  9  1  1
 10  6  1  0
 11  3  1  0
 11  4  1  0
 12  6  1  0
 13  1  2  0
 13  4  1  0
 13  5  1  0
 14  2  1  0
  2 15  1  1
 16  1  1  0
 14 18  1  6
 20 10  1  0
 20 17  1  0
 20 19  1  0
 21  6  1  0
 22  5  2  0
 22 16  1  0
 23 14  1  0
 23 21  1  0
 24 20  1  0
M  RAD  2  19   2  20   2
M  END
>  <ID>  (1) 
conformer_0

$$$$
