
     RDKit          3D

 25 25  0  0  0  0  0  0  0  0999 V2000
   29.1662   27.2791   31.8723 C   0  0  0  0  0  0  0  0  0  0  0  0
   33.8870   27.8109   33.6970 C   0  0  0  0  0  0  0  0  0  0  0  0
   34.2874   28.0017   34.9494 C   0  0  0  0  0  0  0  0  0  0  0  0
   30.2800   27.4994   33.3931 C   0  0  0  0  0  0  0  0  0  0  0  0
   28.1006   27.5753   32.2275 N   0  0  0  0  0  0  0  0  0  0  0  0
   33.3533   26.1969   34.7614 O   0  0  0  0  0  0  0  0  0  0  0  0
   26.7820   28.2961   33.7763 N   0  0  0  0  0  0  0  0  0  0  0  0
   33.5275   27.0071   41.6552 O   0  0  0  0  0  0  0  0  0  0  0  0
   31.2728   27.2903   33.7795 N   0  0  0  0  0  0  0  0  0  0  0  0
   29.4802   27.9044   35.1490 N   0  0  0  0  0  0  0  0  0  0  0  0
   33.2045   28.6031   38.2962 P   0  0  0  0  0  0  0  0  0  0  0  0
   34.2979   27.2559   36.1989 C   0  0  0  0  0  0  0  0  0  0  0  0
   33.4324   30.1083   38.5101 O   0  0  0  0  0  0  0  0  0  0  0  0
   31.6113   28.4172   38.8060 O   0  0  0  0  0  0  0  0  0  0  0  0
   34.3186   27.4205   32.1278 O   0  0  0  0  0  0  0  0  0  0  0  0
   34.2091   28.1905   38.7898 O   0  0  0  0  0  0  0  0  0  0  0  0
   28.3355   27.8931   33.7611 C   0  0  0  0  0  0  0  0  0  0  0  0
   34.8527   29.2051   33.9132 O   0  0  0  0  0  0  0  0  0  0  0  0
   33.0506   27.9641   36.9404 O   0  0  0  0  0  0  0  0  0  0  0  0
   33.8397   28.2862   41.0217 P   0  0  0  0  0  5  0  0  0  0  0  0
   33.1695   29.0545   41.6348 O   0  0  0  0  0  0  0  0  0  0  0  0
   30.1288   27.2644   31.8930 N   0  0  0  0  0  0  0  0  0  0  0  0
   32.8495   26.9309   33.4951 C   0  0  0  0  0  0  0  0  0  0  0  0
   30.4621   27.7220   34.9468 C   0  0  0  0  0  0  0  0  0  0  0  0
   35.1566   28.6100   40.7654 O   0  0  0  0  0  0  0  0  0  0  0  0
  3  2  1  0
  5  1  1  0
  9  4  1  0
 12  3  1  0
 13 11  1  0
 15  2  1  0
 16 11  1  0
 17  5  2  0
 17  7  1  0
 17 10  1  0
 18  3  1  0
 19 11  1  0
 19 12  1  0
 20  8  1  0
 20 14  1  0
 20 16  1  0
 21 20  1  0
 22  1  1  0
 22  4  2  0
 23  2  1  0
 23  6  1  0
 23  9  1  0
 24  9  1  0
 24 10  2  0
 25 20  1  0
M  END
>  <ID>  (1) 
conformer_0

$$$$
