
     RDKit          3D

 24 25  0  0  0  0  0  0  0  0999 V2000
   32.9705   27.0391   33.3947 C   0  0  0  0  0  0  0  0  0  0  0  0
   28.3317   27.8448   33.8102 C   0  0  0  0  0  3  0  0  0  0  0  0
   34.2340   27.7518   33.8638 C   0  0  2  0  0  0  0  0  0  0  0  0
   34.9888   27.6707   35.0064 C   0  0  0  0  0  0  0  0  0  0  0  0
   30.4487   27.8688   35.0032 C   0  0  0  0  0  0  0  0  0  0  0  0
   30.1264   27.0366   31.9311 N   0  0  0  0  0  0  0  0  0  0  0  0
   29.5745   28.1129   35.4184 N   0  0  0  0  0  0  0  0  0  0  0  0
   33.4237   28.4920   41.2859 P   0  0  0  0  0  4  0  0  0  0  0  0
   33.4073   26.5388   35.2319 O   0  0  0  0  0  0  0  0  0  0  0  0
   33.6169   27.4671   38.0161 O   0  0  0  0  0  0  0  0  0  0  0  0
   26.7655   28.2705   33.7391 N   0  0  0  0  0  0  0  0  0  0  0  0
   34.5614   28.2807   41.1440 O   0  0  0  0  0  1  0  0  0  0  0  0
   29.7795   27.4983   33.5557 C   0  0  2  0  0  0  0  0  0  0  0  0
   33.5588   29.6938   38.4507 O   0  0  0  0  0  0  0  0  0  0  0  0
   31.2892   27.2694   33.9435 N   0  0  0  0  0  0  0  0  0  0  0  0
   35.2668   29.1790   34.0806 O   0  0  0  0  0  0  0  0  0  0  0  0
   34.0846   27.1313   32.1181 O   0  0  0  0  0  0  0  0  0  0  0  0
   33.1300   27.1113   41.9852 O   0  0  0  0  0  0  0  0  0  0  0  0
   31.6444   28.1479   38.5654 O   0  0  0  0  0  1  0  0  0  0  0  0
   34.7677   27.0670   36.5646 C   0  0  0  0  0  0  0  0  0  0  0  0
   33.0612   28.2958   38.5540 P   0  0  2  0  0  4  0  0  0  0  0  0
   28.0306   27.4581   32.1698 N   0  0  0  0  0  0  0  0  0  0  0  0
   28.8863   26.9047   31.6706 C   0  0  0  0  0  0  0  0  0  0  0  0
   32.8261   29.4097   41.7815 O   0  0  0  0  0  0  0  0  0  0  0  0
  3  1  1  0
  4  3  1  0
  7  5  2  3
  9  1  1  0
 11  2  1  0
 12  8  1  0
 13  2  1  1
 13  5  1  0
 13  6  1  0
 15  1  1  0
 15  5  1  0
 15 13  1  0
  3 16  1  1
 17  1  1  0
 18  8  1  0
 20  4  1  0
 20 10  1  0
 21  8  1  0
 21 10  1  0
 21 14  1  6
 21 19  1  0
 22  2  1  0
 23  6  2  0
 23 22  1  0
 24  8  1  0
M  RAD  5   2   2   8   2  12   2  19   2  21   2
M  END
>  <ID>  (1) 
conformer_0

$$$$
