
     RDKit          3D

 24 25  0  0  0  0  0  0  0  0999 V2000
   33.1666   27.0236   33.5106 C   0  0  2  0  0  0  0  0  0  0  0  0
   28.4327   27.7513   33.3147 C   0  0  0  0  0  0  0  0  0  0  0  0
   34.0442   27.7844   33.7492 C   0  0  0  0  0  0  0  0  0  0  0  0
   28.0381   27.4138   31.8141 N   0  0  0  0  0  0  0  0  0  0  0  0
   29.9033   27.4770   33.1024 C   0  0  1  0  0  0  0  0  0  0  0  0
   29.7734   27.9331   34.8829 N   0  0  0  0  0  0  0  0  0  0  0  0
   33.8060   28.5797   41.2763 P   0  0  0  0  0  4  0  0  0  0  0  0
   33.5195   26.2278   34.9748 O   0  0  0  0  0  0  0  0  0  0  0  0
   27.0646   28.2271   33.7036 N   0  0  0  0  0  0  0  0  0  0  0  0
   33.4944   27.4981   42.1902 O   0  0  0  0  0  0  0  0  0  0  0  0
   34.6110   27.9666   35.2058 C   0  0  0  0  0  0  0  0  0  0  0  0
   35.1616   28.5021   41.2000 O   0  0  0  0  0  1  0  0  0  0  0  0
   29.2563   26.8896   31.1686 C   0  0  0  0  0  0  0  0  0  0  0  0
   32.7525   28.1627   38.5453 P   0  0  0  0  0  0  0  0  0  0  0  0
   33.8703   27.4210   32.0177 O   0  0  0  0  0  0  0  0  0  0  0  0
   32.8129   29.1064   37.9544 O   0  0  0  0  0  0  0  0  0  0  0  0
   31.6297   28.1568   39.1676 O   0  0  0  0  0  0  0  0  0  0  0  0
   31.6111   27.2676   34.0933 N   0  0  0  0  0  0  0  0  0  0  0  0
   34.9775   28.9971   33.8034 O   0  0  0  0  0  0  0  0  0  0  0  0
   30.2838   27.3129   31.6938 N   0  0  0  0  0  0  0  0  0  0  0  0
   33.2132   27.3692   37.6421 O   0  0  0  0  0  0  0  0  0  0  0  0
   30.7440   27.6523   34.6633 C   0  0  0  0  0  0  0  0  0  0  0  0
   33.7847   30.0886   39.9575 O   0  0  0  0  0  0  0  0  0  0  0  0
   34.3643   27.0974   36.3764 C   0  0  1  0  0  0  0  0  0  0  0  0
  3  1  1  0
  4  2  2  0
  5  2  1  0
  8  1  1  0
  9  2  1  0
 10  7  1  0
 11  3  2  0
 12  7  1  0
 13  4  1  0
  1 15  1  6
 16 14  1  0
 17  7  1  0
 17 14  1  0
 18  1  1  0
 19  3  1  0
 20  5  1  0
 20 13  2  0
 21 14  1  0
  5 22  1  6
 22  6  2  3
 22 18  1  0
 23  7  1  0
 24  8  1  0
 24 11  1  0
 24 21  1  1
M  RAD  2   7   2  12   2
M  END
>  <ID>  (1) 
conformer_0

$$$$
