
     RDKit          3D

 25 26  0  0  0  0  0  0  0  0999 V2000
   34.0260   27.7995   33.8529 C   0  0  1  0  0  0  0  0  0  0  0  0
   29.8778   27.7010   33.3646 C   0  0  0  0  0  0  0  0  0  0  0  0
   33.0693   26.9527   33.4611 C   0  0  1  0  0  0  0  0  0  0  0  0
   28.8967   27.0024   31.7277 C   0  0  0  0  0  0  0  0  0  0  0  0
   27.9612   27.4888   32.1286 N   0  0  0  0  0  0  0  0  0  0  0  0
   33.4686   28.6116   38.9509 P   0  0  0  0  0  5  0  0  0  0  0  0
   34.6373   28.1774   35.0341 C   0  0  0  0  0  0  0  0  0  0  0  0
   29.8154   28.3478   35.0512 N   0  0  0  0  0  0  0  0  0  0  0  0
   26.8334   28.3986   33.9098 N   0  0  0  0  0  0  0  0  0  0  0  0
   33.5052   26.4432   35.1636 O   0  0  0  0  0  0  0  0  0  0  0  0
   33.4416   27.6542   42.3341 O   0  0  0  0  0  0  0  0  0  0  0  0
   31.3825   27.5010   33.8460 N   0  0  0  0  0  0  0  0  0  0  0  0
   34.0312   26.6422   31.9917 O   0  0  0  0  0  0  0  0  0  0  0  0
   35.3745   29.5309   35.1704 O   0  0  0  0  0  0  0  0  0  0  0  0
   28.3537   27.9850   33.6546 C   0  0  0  0  0  0  0  0  0  0  0  0
   33.8420   30.1321   38.6537 O   0  0  0  0  0  0  0  0  0  0  0  0
   33.1095   27.9853   40.3446 O   0  0  0  0  0  0  0  0  0  0  0  0
   32.3016   28.2050   38.3964 O   0  0  0  0  0  0  0  0  0  0  0  0
   33.9170   27.7484   37.8697 O   0  0  0  0  0  0  0  0  0  0  0  0
   33.3662   28.1734   41.4268 P   0  0  0  0  0  0  0  0  0  0  0  0
   30.0806   27.1075   31.9243 N   0  0  0  0  0  0  0  0  0  0  0  0
   35.2007   28.5041   39.9264 O   0  0  0  0  0  0  0  0  0  0  0  0
   30.6984   27.9525   34.7208 C   0  0  0  0  0  0  0  0  0  0  0  0
   34.6119   27.1331   36.3734 C   0  0  2  0  0  0  0  0  0  0  0  0
   35.3869   28.0515   33.1156 O   0  0  0  0  0  0  0  0  0  0  0  0
  3  1  1  0
  5  4  2  0
  7  1  1  0
 10  3  1  0
 12  3  1  0
  3 13  1  6
 14  7  1  0
 15  2  2  0
 15  5  1  0
 15  9  1  0
 16  6  1  0
 17  6  1  0
 18  6  1  0
 19  6  1  0
 20 11  1  0
 20 17  1  0
 21  2  1  0
 21  4  1  0
 22 20  1  0
 23  2  1  0
 23  8  2  3
 23 12  1  0
 24  7  1  0
 24 10  1  0
 24 19  1  1
  1 25  1  6
M  END
>  <ID>  (1) 
conformer_0

$$$$
