
     RDKit          3D

 25 27  0  0  0  0  0  0  0  0999 V2000
   30.7342   27.9414   35.0754 C   0  0  0  0  0  0  0  0  0  0  0  0
   33.9114   27.5666   33.2329 C   0  0  0  0  0  0  0  0  0  0  0  0
   32.9423   27.0901   33.5218 C   0  0  0  0  0  0  0  0  0  0  0  0
   29.1086   26.7427   31.0746 C   0  0  0  0  0  0  0  0  0  0  0  0
   34.5897   28.0863   34.6172 C   0  0  0  0  0  0  0  0  0  0  0  0
   26.9067   28.1116   33.5963 N   0  0  0  0  0  0  0  0  0  0  0  0
   29.6340   27.9597   34.9657 N   0  0  0  0  0  0  0  0  0  0  0  0
   28.0454   27.3127   31.8930 N   0  0  0  0  0  0  0  0  0  0  0  0
   33.2911   28.5451   39.0356 P   0  0  0  0  0  0  0  0  0  0  0  0
   33.4162   26.4244   35.1874 O   0  0  0  0  0  0  0  0  0  0  0  0
   31.9521   28.4912   39.2332 O   0  0  0  0  0  0  0  0  0  0  0  0
   28.1971   27.6651   33.0579 C   0  0  0  0  0  0  0  0  0  0  0  0
   33.4247   27.4341   41.8392 O   0  0  0  0  0  0  0  0  0  0  0  0
   33.8402   30.2027   39.2696 O   0  0  0  0  0  0  0  0  0  0  0  0
   31.4661   27.4079   33.7963 N   0  0  0  0  0  0  0  0  0  0  0  0
   35.3444   28.9640   34.0775 O   0  0  0  0  0  0  0  0  0  0  0  0
   34.3955   27.3684   32.0860 O   0  0  0  0  0  0  0  0  0  0  0  0
   34.2978   28.3162   40.2206 O   0  0  0  0  0  0  0  0  0  0  0  0
   30.3153   27.1727   31.7641 N   0  0  0  0  0  0  0  0  0  0  0  0
   33.6793   27.8746   37.8422 O   0  0  0  0  0  0  0  0  0  0  0  0
   34.4030   27.3701   35.6776 C   0  0  0  0  0  0  0  0  0  0  0  0
   29.0082   27.7836   34.0038 C   0  0  0  0  0  0  0  0  0  0  0  0
   33.5100   28.7704   41.5692 P   0  0  0  0  0  0  0  0  0  0  0  0
   30.3661   27.3934   32.9058 C   0  0  0  0  0  0  0  0  0  0  0  0
   34.4241   27.3419   37.1073 C   0  0  0  0  0  0  0  0  0  0  0  0
  3  2  1  0
  5  2  1  0
  7  1  2  0
  8  4  2  0
 10  3  1  0
 11  9  1  0
 12  6  1  0
 12  8  1  0
 14  9  1  0
 15  1  1  0
 15  3  1  0
 16  5  1  0
 17  2  1  0
 19  4  1  0
 20  9  1  0
 21  5  1  0
 21 10  1  0
 22  7  1  0
 22 12  2  0
 23 11  1  0
 23 13  1  0
 23 18  1  0
 24 15  1  0
 24 19  2  0
 24 22  1  0
 25 20  1  0
 25 21  1  0
M  END
>  <ID>  (1) 
conformer_0

$$$$
