
     RDKit          3D

 25 26  0  0  0  0  0  0  0  0999 V2000
   29.2334   27.7850   33.7853 C   0  0  0  0  0  0  0  0  0  0  0  0
   33.2551   27.0958   33.4960 C   0  0  0  0  0  0  0  0  0  0  0  0
   34.0191   27.9408   33.9415 C   0  0  0  0  0  0  0  0  0  0  0  0
   30.7284   27.7562   35.3673 C   0  0  0  0  0  0  0  0  0  0  0  0
   29.5180   27.9774   35.1140 N   0  0  0  0  0  0  0  0  0  0  0  0
   28.0225   27.4396   31.9538 N   0  0  0  0  0  0  0  0  0  0  0  0
   33.8756   28.6405   41.5375 P   0  0  0  0  0  4  0  0  0  0  0  0
   34.4539   28.0263   35.1861 C   0  0  0  0  0  0  0  0  0  0  0  0
   26.8648   28.1805   33.8386 N   0  0  0  0  0  0  0  0  0  0  0  0
   33.3996   26.3166   34.9294 O   0  0  0  0  0  0  0  0  0  0  0  0
   33.6850   27.7406   42.5615 O   0  0  0  0  0  0  0  0  0  0  0  0
   28.0647   27.7454   33.2872 C   0  0  0  0  0  0  0  0  0  0  0  0
   34.0764   27.7444   39.9300 O   0  0  0  0  0  1  0  0  0  0  0  0
   31.4380   27.3716   33.9874 N   0  0  0  0  0  0  0  0  0  0  0  0
   33.6793   29.8768   39.0122 O   0  0  0  0  0  0  0  0  0  0  0  0
   34.1517   27.0598   32.0423 O   0  0  0  0  0  0  0  0  0  0  0  0
   34.8417   29.1303   41.6489 O   0  0  0  0  0  0  0  0  0  0  0  0
   30.2777   27.0834   31.9454 N   0  0  0  0  0  0  0  0  0  0  0  0
   33.2701   28.3350   38.8574 P   0  0  0  0  0  0  0  0  0  0  0  0
   29.1326   26.8504   31.2255 C   0  0  0  0  0  0  0  0  0  0  0  0
   33.5831   27.8077   37.4893 O   0  0  0  0  0  0  0  0  0  0  0  0
   34.3536   27.2617   36.5793 C   0  0  0  0  0  0  0  0  0  0  0  0
   31.9682   27.9279   39.1087 O   0  0  0  0  0  0  0  0  0  0  0  0
   35.6420   27.7263   33.2770 O   0  0  0  0  0  0  0  0  0  0  0  0
   30.4747   27.3296   33.2568 C   0  0  0  0  0  0  0  0  0  0  0  0
  3  2  1  0
  5  1  1  0
  5  4  2  0
  8  3  1  0
 10  2  1  0
 11  7  1  0
 12  1  2  0
 12  6  1  0
 12  9  1  0
 13  7  1  0
 14  2  1  0
 14  4  1  0
 16  2  1  0
 17  7  1  0
 19 15  1  0
 20  6  2  0
 20 18  1  0
 21 19  1  0
 22  8  1  0
 22 21  1  0
 23  7  1  0
 23 19  1  0
 24  3  1  0
 25  1  1  0
 25 14  1  0
 25 18  2  0
M  RAD  2   7   2  13   2
M  END
>  <ID>  (1) 
conformer_0

$$$$
