
     RDKit          3D

 23 23  0  0  0  0  0  0  0  0999 V2000
   28.4634   27.8326   33.5395 C   0  0  0  0  0  0  0  0  0  0  0  0
   33.1309   26.9712   33.7076 C   0  0  1  0  0  0  0  0  0  0  0  0
   34.1386   27.7093   33.9120 C   0  0  1  0  0  0  0  0  0  0  0  0
   28.2078   27.4164   31.9796 N   0  0  0  0  0  0  0  0  0  0  0  0
   30.0695   27.5506   33.3750 C   0  0  0  0  0  0  0  0  0  0  0  0
   26.9688   28.3329   33.5863 N   0  0  0  0  0  0  0  0  0  0  0  0
   33.4306   26.3316   35.0883 O   0  0  0  0  0  0  0  0  0  0  0  0
   29.5357   28.0414   35.1289 N   0  0  0  0  0  0  0  0  0  0  0  0
   33.9435   28.3845   41.2755 P   0  0  0  0  0  0  0  0  0  0  0  0
   31.5287   27.4134   34.0844 N   0  0  0  0  0  0  0  0  0  0  0  0
   34.7254   27.9833   35.1663 C   0  0  1  0  0  0  0  0  0  0  0  0
   33.6279   27.9946   42.4015 O   0  0  0  0  0  0  0  0  0  0  0  0
   34.7826   27.4012   32.4504 O   0  0  0  0  0  0  0  0  0  0  0  0
   33.7981   29.9184   38.9674 O   0  0  0  0  0  0  0  0  0  0  0  0
   31.4637   28.9480   38.3237 O   0  0  0  0  0  1  0  0  0  0  0  0
   29.2169   26.9611   31.5539 C   0  0  0  0  0  0  0  0  0  0  0  0
   32.7326   28.6785   38.4778 P   0  0  2  0  0  4  0  0  0  0  0  0
   30.4636   27.1654   31.9325 N   0  0  0  0  0  0  0  0  0  0  0  0
   33.7651   27.7366   40.0246 O   0  0  0  0  0  0  0  0  0  0  0  0
   35.1959   29.1579   33.9869 O   0  0  0  0  0  0  0  0  0  0  0  0
   33.1641   27.9233   37.5553 O   0  0  0  0  0  0  0  0  0  0  0  0
   34.4756   27.2675   36.3877 C   0  0  0  0  0  0  0  0  0  0  0  0
   30.6679   27.7921   34.7680 C   0  0  0  0  0  0  0  0  0  0  0  0
  3  2  1  0
  4  1  2  0
  5  1  1  0
  6  1  1  0
  2  7  1  1
 10  2  1  0
 11  3  1  0
 12  9  1  0
  3 13  1  6
 16  4  1  0
 17 14  1  6
 17 15  1  0
 18  5  1  0
 18 16  2  0
 19  9  1  0
 19 17  1  0
 11 20  1  1
 21 17  1  0
 22 11  1  0
 22 21  1  0
 23  5  1  0
 23  8  2  3
 23 10  1  0
M  RAD  2  15   2  17   2
M  END
>  <ID>  (1) 
conformer_0

$$$$
