
     RDKit          3D

 25 27  0  0  0  0  0  0  0  0999 V2000
   30.5077   27.7105   34.4347 C   0  0  0  0  0  0  0  0  0  0  0  0
   34.6867   27.8409   35.1748 C   0  0  0  0  0  0  0  0  0  0  0  0
   34.1202   27.8834   33.8809 C   0  0  0  0  0  0  0  0  0  0  0  0
   28.2078   27.4150   31.9290 N   0  0  0  0  0  0  0  0  0  0  0  0
   29.2518   27.1129   31.5224 C   0  0  0  0  0  0  0  0  0  0  0  0
   29.6936   27.9043   34.8613 N   0  0  0  0  0  0  0  0  0  0  0  0
   26.9975   28.1079   33.7666 N   0  0  0  0  0  0  0  0  0  0  0  0
   33.9281   28.7229   40.8022 P   0  0  0  0  0  4  0  0  0  0  0  0
   33.2983   26.2078   34.9618 O   0  0  0  0  0  0  0  0  0  0  0  0
   35.0526   28.9210   41.0635 O   0  0  0  0  0  1  0  0  0  0  0  0
   34.6433   26.8906   32.2653 O   0  0  0  0  0  0  0  0  0  0  0  0
   33.1985   27.0818   33.4208 C   0  0  0  0  0  0  0  0  0  0  0  0
   28.4497   27.7816   33.5269 C   0  0  0  0  0  3  0  0  0  0  0  0
   31.0024   28.6699   38.5476 O   0  0  0  0  0  0  0  0  0  0  0  0
   31.6452   27.3595   33.6296 N   0  0  0  0  0  0  0  0  0  0  0  0
   35.9102   27.6943   36.1961 O   0  0  0  0  0  0  0  0  0  0  0  0
   33.6029   27.6683   42.0379 O   0  0  0  0  0  0  0  0  0  0  0  0
   33.5849   29.9826   38.6874 O   0  0  0  0  0  0  0  0  0  0  0  0
   32.3867   28.4779   38.3888 P   0  0  0  0  0  0  0  0  0  0  0  0
   30.5381   27.1332   31.6697 N   0  0  0  0  0  0  0  0  0  0  0  0
   32.9779   27.8848   39.4038 O   0  0  0  0  0  0  0  0  0  0  0  0
   34.2746   27.1363   36.3054 C   0  0  0  0  0  0  0  0  0  0  0  0
   35.0443   28.8122   33.5513 O   0  0  0  0  0  0  0  0  0  0  0  0
   30.3214   27.4310   32.9199 C   0  0  0  0  0  0  0  0  0  0  0  0
   32.6193   27.8338   37.0740 O   0  0  0  0  0  0  0  0  0  0  0  0
  3  2  1  0
  5  4  2  0
  6  1  2  0
 10  8  1  0
 12  3  1  0
 12  9  1  0
 12 11  1  0
 13  4  1  0
 13  6  1  0
 13  7  1  0
 14  8  1  0
 15  1  1  0
 15 12  1  0
 16  2  1  0
 17  8  1  0
 19 18  1  0
 20  5  1  0
 21  8  1  0
 21 19  1  0
 22  2  1  0
 23  3  1  0
 24  1  1  0
 24  5  1  0
 24 15  1  0
 24 20  1  0
 25 19  1  0
 25 22  1  0
M  RAD  3   8   2  10   2  13   2
M  END
>  <ID>  (1) 
conformer_0

$$$$
