
     RDKit          3D

 24 24  0  0  0  0  0  0  0  0999 V2000
   29.8848   27.5191   33.1547 C   0  0  0  0  0  0  0  0  0  0  0  0
   34.0084   27.6597   33.7712 C   0  0  1  0  0  0  0  0  0  0  0  0
   34.4876   27.3106   36.5618 C   0  0  0  0  0  0  0  0  0  0  0  0
   29.2489   26.8925   31.2720 C   0  0  0  0  0  0  0  0  0  0  0  0
   28.1022   27.2190   31.6712 N   0  0  0  0  0  0  0  0  0  0  0  0
   26.9346   28.1356   33.4812 N   0  0  0  0  0  0  0  0  0  0  0  0
   29.5270   28.0050   34.9605 N   0  0  0  0  0  0  0  0  0  0  0  0
   33.4318   26.3497   35.0594 O   0  0  0  0  0  0  0  0  0  0  0  0
   34.0796   28.6563   41.4150 P   0  0  1  0  0  4  0  0  0  0  0  0
   33.1617   26.9760   33.4400 C   0  0  0  0  0  0  0  0  0  0  0  0
   33.3826   27.5517   38.2606 O   0  0  0  0  0  0  0  0  0  0  0  0
   34.2913   27.1940   31.8926 O   0  0  0  0  0  0  0  0  0  0  0  0
   28.4289   27.7620   33.3347 C   0  0  0  0  0  0  0  0  0  0  0  0
   31.4902   27.3844   33.9622 N   0  0  0  0  0  0  0  0  0  0  0  0
   33.7442   27.7736   42.5002 O   0  0  0  0  0  0  0  0  0  0  0  0
   35.0678   28.6662   41.0873 O   0  0  0  0  0  1  0  0  0  0  0  0
   33.6172   29.8640   38.9496 O   0  0  0  0  0  0  0  0  0  0  0  0
   32.8209   28.2873   38.7319 P   0  0  1  0  0  4  0  0  0  0  0  0
   30.3740   27.1073   31.6477 N   0  0  0  0  0  0  0  0  0  0  0  0
   31.4093   28.4240   38.4771 O   0  0  0  0  0  1  0  0  0  0  0  0
   32.8268   28.8028   40.5092 N   0  0  0  0  0  0  0  0  0  0  0  0
   34.5407   27.8981   35.1052 C   0  0  0  0  0  0  0  0  0  0  0  0
   30.6245   27.7591   34.6576 C   0  0  0  0  0  0  0  0  0  0  0  0
   35.4868   28.1959   33.3639 O   0  0  0  0  0  0  0  0  0  0  0  0
  5  4  2  0
 10  2  1  0
 10  8  1  0
 11  3  1  0
 12 10  1  0
 13  1  2  0
 13  5  1  0
 13  6  1  0
 14 10  1  0
  9 15  1  6
 16  9  1  0
 18 11  1  0
 18 17  1  6
 19  1  1  0
 19  4  1  0
 20 18  1  0
 21  9  1  0
 21 18  1  0
 22  2  1  0
 22  3  1  0
 23  1  1  0
 23  7  2  3
 23 14  1  0
  2 24  1  6
M  RAD  4   9   2  16   2  18   2  20   2
M  END
>  <ID>  (1) 
conformer_0

$$$$
