
     RDKit          3D

 25 27  0  0  0  0  0  0  0  0999 V2000
   34.6642   28.0091   35.0874 C   0  0  2  0  0  0  0  0  0  0  0  0
   28.3617   27.8445   33.5176 C   0  0  0  0  0  3  0  0  0  0  0  0
   33.9507   27.6855   33.8689 C   0  0  1  0  0  0  0  0  0  0  0  0
   29.8786   27.4770   33.4012 C   0  0  1  0  0  0  0  0  0  0  0  0
   28.0836   27.4923   31.9925 N   0  0  0  0  0  0  0  0  0  0  0  0
   29.4835   28.0229   35.1313 N   0  0  0  0  0  0  0  0  0  0  0  0
   33.4270   26.2166   34.8491 O   0  0  0  0  0  0  0  0  0  0  0  0
   26.8607   28.3813   33.6749 N   0  0  0  0  0  0  0  0  0  0  0  0
   31.4259   27.1889   33.9186 N   0  0  0  0  0  0  0  0  0  0  0  0
   34.1202   28.6720   41.3672 P   0  0  0  0  0  5  0  0  0  0  0  0
   35.4465   29.0864   41.8707 O   0  0  0  0  0  0  0  0  0  0  0  0
   32.9117   26.8419   33.4171 C   0  0  1  0  0  0  0  0  0  0  0  0
   29.1160   26.9847   31.5129 C   0  0  0  0  0  0  0  0  0  0  0  0
   33.5611   27.6877   37.0758 O   0  0  0  0  0  0  0  0  0  0  0  0
   34.5337   27.5868   32.4346 O   0  0  0  0  0  0  0  0  0  0  0  0
   33.6072   27.3563   42.2855 O   0  0  0  0  0  0  0  0  0  0  0  0
   35.5805   29.0546   34.6214 O   0  0  0  0  0  0  0  0  0  0  0  0
   33.7477   29.7754   38.8418 O   0  0  0  0  0  0  0  0  0  0  0  0
   33.1773   28.4022   38.6426 P   0  0  0  0  0  0  0  0  0  0  0  0
   31.5994   28.2105   39.0313 O   0  0  0  0  0  0  0  0  0  0  0  0
   30.2370   27.0511   31.8088 N   0  0  0  0  0  0  0  0  0  0  0  0
   33.2961   29.8278   41.2994 O   0  0  0  0  0  0  0  0  0  0  0  0
   30.6655   27.6985   34.8234 C   0  0  0  0  0  0  0  0  0  0  0  0
   33.8412   27.8367   39.3219 O   0  0  0  0  0  0  0  0  0  0  0  0
   34.6092   27.3630   36.2626 C   0  0  0  0  0  0  0  0  0  0  0  0
  3  1  1  0
  4  2  1  1
  5  2  1  0
  7  3  1  0
  8  2  1  0
  9  4  1  0
 11 10  1  0
 12  3  1  0
 12  7  1  0
 12  9  1  1
 13  5  1  0
  3 15  1  6
 16 10  1  0
  1 17  1  6
 19 14  1  0
 19 18  1  0
 20 10  1  0
 21  4  1  0
 21 13  2  0
 22 10  1  0
 23  4  1  0
 23  6  2  3
 23  9  1  0
 24 10  1  0
 24 19  1  0
 25  1  1  0
 25 14  1  0
M  RAD  1   2   2
M  END
>  <ID>  (1) 
conformer_0

$$$$
