
     RDKit          3D

 24 26  0  0  0  0  0  0  0  0999 V2000
   30.4918   27.7615   34.7301 C   0  0  0  0  0  0  0  0  0  0  0  0
   33.0173   26.9463   33.3267 C   0  0  0  0  0  0  0  0  0  0  0  0
   34.0355   27.7375   33.8618 C   0  0  0  0  0  0  0  0  0  0  0  0
   34.5410   27.8592   35.0218 C   0  0  0  0  0  0  0  0  0  0  0  0
   30.0868   27.4334   33.1430 C   0  0  0  0  0  0  0  0  0  0  0  0
   29.4855   28.0107   34.8895 N   0  0  0  0  0  0  0  0  0  0  0  0
   26.8603   28.1953   33.6483 N   0  0  0  0  0  0  0  0  0  0  0  0
   28.1412   27.4389   31.8985 N   0  0  0  0  0  0  0  0  0  0  0  0
   32.8341   28.2926   38.6862 P   0  0  0  0  0  0  0  0  0  0  0  0
   33.4219   26.4159   35.0993 O   0  0  0  0  0  0  0  0  0  0  0  0
   28.3295   27.8021   33.4649 C   0  0  0  0  0  0  0  0  0  0  0  0
   32.3798   28.9941   38.1128 O   0  0  0  0  0  0  0  0  0  0  0  0
   31.3082   27.2205   33.5719 N   0  0  0  0  0  0  0  0  0  0  0  0
   34.5712   27.2304   32.1680 O   0  0  0  0  0  0  0  0  0  0  0  0
   34.6680   28.3834   41.0212 O   0  0  0  0  0  0  0  0  0  0  0  0
   32.3078   27.7401   39.5438 O   0  0  0  0  0  0  0  0  0  0  0  0
   35.6335   28.8464   34.1493 O   0  0  0  0  0  0  0  0  0  0  0  0
   34.4853   27.2190   36.7061 C   0  0  0  0  0  0  0  0  0  0  0  0
   33.1844   29.5711   41.8474 C   0  0  0  0  0  0  0  0  0  0  0  0
   30.3527   27.0228   31.5173 N   0  0  0  0  0  0  0  0  0  0  0  0
   33.3749   28.1588   42.5025 O   0  0  0  0  0  0  0  0  0  0  0  0
   29.3608   26.8918   31.4485 C   0  0  0  0  0  0  0  0  0  0  0  0
   33.7027   28.8212   41.1592 P   0  0  0  0  0  0  0  0  0  0  0  0
   33.6649   27.6573   37.8793 O   0  0  0  0  0  0  0  0  0  0  0  0
  3  2  1  0
  4  3  1  0
  5  1  1  0
  6  1  2  0
 10  4  1  0
 11  5  1  0
 11  6  1  0
 11  7  1  0
 11  8  1  0
 12  9  1  0
 13  1  1  0
 13  2  1  0
 13  5  1  0
 14  3  1  0
 16  9  1  0
 17  4  1  0
 18  4  1  0
 19 15  1  0
 20  5  1  0
 22  8  2  0
 22 20  1  0
 23 16  1  0
 23 19  1  0
 23 21  1  0
 24  9  1  0
 24 18  1  0
M  END
>  <ID>  (1) 
conformer_0

$$$$
