
     RDKit          3D

 25 26  0  0  0  0  0  0  0  0999 V2000
   33.9834   27.8783   33.6747 C   0  0  0  0  0  0  0  0  0  0  0  0
   29.8511   27.4680   33.2665 C   0  0  0  0  0  0  0  0  0  0  0  0
   32.9150   26.9897   33.5388 C   0  0  0  0  0  0  0  0  0  0  0  0
   30.5801   27.8407   34.6180 C   0  0  0  0  0  0  0  0  0  0  0  0
   27.9520   27.3344   32.1303 N   0  0  0  0  0  0  0  0  0  0  0  0
   33.2816   26.3048   34.7657 O   0  0  0  0  0  0  0  0  0  0  0  0
   31.2546   27.4319   33.9241 N   0  0  0  0  0  0  0  0  0  0  0  0
   33.8665   28.6794   41.0321 P   0  0  0  0  0  5  0  0  0  0  0  0
   34.6119   28.0343   34.9624 C   0  0  0  0  0  0  0  0  0  0  0  0
   33.1338   27.9978   39.7317 O   0  0  0  0  0  0  0  0  0  0  0  0
   29.3516   27.9365   34.9642 N   0  0  0  0  0  0  0  0  0  0  0  0
   35.1027   28.5637   40.8606 O   0  0  0  0  0  0  0  0  0  0  0  0
   26.7580   28.2591   33.8681 N   0  0  0  0  0  0  0  0  0  0  0  0
   34.3504   26.8748   32.1018 O   0  0  0  0  0  0  0  0  0  0  0  0
   33.6970   27.5146   42.2515 O   0  0  0  0  0  0  0  0  0  0  0  0
   28.7703   26.8667   31.5679 C   0  0  0  0  0  0  0  0  0  0  0  0
   33.4743   29.6463   38.0192 O   0  0  0  0  0  0  0  0  0  0  0  0
   32.9188   28.5439   38.4509 P   0  0  0  0  0  0  0  0  0  0  0  0
   30.0462   27.0620   31.7596 N   0  0  0  0  0  0  0  0  0  0  0  0
   31.5540   28.6347   38.3874 O   0  0  0  0  0  0  0  0  0  0  0  0
   34.1380   30.4808   39.9585 O   0  0  0  0  0  0  0  0  0  0  0  0
   28.2562   27.7177   33.5970 C   0  0  0  0  0  0  0  0  0  0  0  0
   34.3563   27.0040   36.2533 C   0  0  0  0  0  0  0  0  0  0  0  0
   34.7847   28.7989   32.7949 O   0  0  0  0  0  0  0  0  0  0  0  0
   33.1297   27.7528   37.0493 O   0  0  0  0  0  0  0  0  0  0  0  0
  3  1  1  0
  4  2  1  0
  6  3  1  0
  7  3  1  0
  7  4  1  0
  9  1  1  0
 10  8  1  0
 11  4  2  0
 12  8  1  0
 14  1  1  0
 15  8  1  0
 16  5  2  0
 18 17  1  0
 19  2  2  0
 19 16  1  0
 20  8  1  0
 20 18  1  0
 21  8  1  0
 22  2  1  0
 22  5  1  0
 22 11  1  0
 22 13  1  0
 23  9  1  0
 24  1  1  0
 25 18  1  0
 25 23  1  0
M  END
>  <ID>  (1) 
conformer_0

$$$$
