
     RDKit          3D

 24 25  0  0  0  0  0  0  0  0999 V2000
   33.0982   27.1556   33.4701 C   0  0  0  0  0  0  0  0  0  0  0  0
   29.0678   26.7552   31.2328 C   0  0  0  0  0  0  0  0  0  0  0  0
   33.9818   27.8966   33.8001 C   0  0  0  0  0  0  0  0  0  0  0  0
   29.9566   27.4320   33.0170 C   0  0  0  0  0  3  0  0  0  0  0  0
   28.1139   27.1281   31.7462 N   0  0  0  0  0  0  0  0  0  0  0  0
   33.4031   26.2591   34.9547 O   0  0  0  0  0  0  0  0  0  0  0  0
   31.4095   27.3481   33.8195 N   0  0  0  0  0  0  0  0  0  0  0  0
   29.4958   27.9068   34.7899 N   0  0  0  0  0  0  0  0  0  0  0  0
   26.9327   28.0002   33.4710 N   0  0  0  0  0  0  0  0  0  0  0  0
   34.5884   27.8636   35.2063 C   0  0  0  0  0  0  0  0  0  0  0  0
   33.9342   28.7949   41.3232 P   0  0  0  0  0  4  0  0  0  0  0  0
   28.4790   27.5892   33.2404 C   0  0  0  0  0  0  0  0  0  0  0  0
   34.5658   27.7609   32.3594 O   0  0  0  0  0  0  0  0  0  0  0  0
   33.7256   27.8005   40.2902 O   0  0  0  0  0  1  0  0  0  0  0  0
   35.6172   28.8425   34.8619 O   0  0  0  0  0  0  0  0  0  0  0  0
   30.3247   27.1502   31.5777 N   0  0  0  0  0  0  0  0  0  0  0  0
   33.6935   27.8892   42.2334 O   0  0  0  0  0  0  0  0  0  0  0  0
   35.3890   29.2492   40.3980 O   0  0  0  0  0  0  0  0  0  0  0  0
   33.1231   28.3318   38.7949 P   0  0  0  0  0  0  0  0  0  0  0  0
   33.5022   29.8525   38.7661 O   0  0  0  0  0  0  0  0  0  0  0  0
   33.5280   27.5165   37.7541 O   0  0  0  0  0  0  0  0  0  0  0  0
   34.4117   27.2037   36.4478 C   0  0  0  0  0  0  0  0  0  0  0  0
   31.7572   28.3266   39.0112 O   0  0  0  0  0  0  0  0  0  0  0  0
   30.5727   27.6168   34.6151 C   0  0  0  0  0  0  0  0  0  0  0  0
  3  1  1  0
  5  2  2  0
  6  1  1  0
  7  1  1  0
  7  4  1  0
 10  3  1  0
 12  4  1  0
 12  5  1  0
 12  8  1  0
 12  9  1  0
 13  3  1  0
 14 11  1  0
 15 10  1  0
 16  2  1  0
 16  4  1  0
 17 11  1  0
 18 11  1  0
 20 19  1  0
 21 19  1  0
 22 10  1  0
 22 21  1  0
 23 11  1  0
 23 19  1  0
 24  7  1  0
 24  8  2  0
M  RAD  3   4   2  11   2  14   2
M  END
>  <ID>  (1) 
conformer_0

$$$$
