
     RDKit          3D

 27 29  0  0  0  0  0  0  0  0999 V2000
   34.1186   27.2267   34.8066 C   0  0  1  0  0  0  0  0  0  0  0  0
   29.1579   26.7746   31.1326 C   0  0  0  0  0  0  0  0  0  0  0  0
   34.7123   27.6059   36.4158 C   0  0  1  0  0  0  0  0  0  0  0  0
   34.7412   28.3677   35.0182 C   0  0  1  0  0  0  0  0  0  0  0  0
   30.4696   26.9698   31.6263 N   0  0  0  0  0  0  0  0  0  0  0  0
   29.8933   27.3224   32.9924 C   0  0  0  0  0  0  0  0  0  0  0  0
   26.9303   28.1295   33.6783 N   0  0  0  0  0  0  0  0  0  0  0  0
   29.6275   27.9323   34.7613 N   0  0  0  0  0  0  0  0  0  0  0  0
   32.8741   28.3761   38.3851 P   0  0  0  0  0  0  0  0  0  0  0  0
   33.2129   26.4408   34.7755 O   0  0  0  0  0  0  0  0  0  0  0  0
   35.4355   28.1299   33.2872 O   0  0  0  0  0  0  0  0  0  0  0  0
   28.2656   27.7019   33.3123 C   0  0  0  0  0  0  0  0  0  0  0  0
   33.3330   27.7704   42.6165 O   0  0  0  0  0  0  0  0  0  0  0  0
   31.8544   27.7269   39.0042 O   0  0  0  0  0  0  0  0  0  0  0  0
   34.9986   28.5657   41.7907 O   0  0  0  0  0  0  0  0  0  0  0  0
   34.1863   26.7541   32.0595 O   0  0  0  0  0  0  0  0  0  0  0  0
   31.3541   27.2669   33.6994 N   0  0  0  0  0  0  0  0  0  0  0  0
   28.1556   27.2938   31.8427 N   0  0  0  0  0  0  0  0  0  0  0  0
   33.4626   29.9284   38.6755 O   0  0  0  0  0  0  0  0  0  0  0  0
   33.3566   27.9319   36.9970 O   0  0  0  0  0  0  0  0  0  0  0  0
   32.8975   29.2644   41.0727 N   0  0  0  0  0  0  0  0  0  0  0  0
   33.6564   28.4934   41.2530 P   0  0  1  0  0  4  0  0  0  0  0  0
   30.5707   27.7024   34.6264 C   0  0  0  0  0  0  0  0  0  0  0  0
   33.7201   27.6618   33.2506 C   0  0  0  0  0  0  0  0  0  0  0  0
   32.6266   26.7548   33.1999 C   0  0  1  0  0  0  0  0  0  0  0  0
   33.7578   27.7747   39.5476 O   0  0  0  0  0  1  0  0  0  0  0  0
   35.5424   29.3320   35.1630 O   0  0  0  0  0  0  0  0  0  0  0  0
  3  1  1  0
  4  1  1  0
  4  3  1  0
  5  2  2  0
  6  5  1  0
  1 10  1  1
 12  6  2  0
 12  7  1  0
 14  9  1  0
 17  6  1  0
 18  2  1  0
 18 12  1  0
 19  9  1  0
  3 20  1  1
 20  9  1  0
 21 15  1  0
 22 13  1  1
 22 14  1  0
 22 21  1  0
 23  8  2  3
 23 17  1  0
 24  1  1  0
 24 11  1  0
 24 16  1  0
 25 10  1  0
 25 17  1  1
 25 24  1  0
 26 22  1  0
  4 27  1  6
M  RAD  2  22   2  26   2
M  END
>  <ID>  (1) 
conformer_0

$$$$
