
     RDKit          3D

 23 23  0  0  0  0  0  0  0  0999 V2000
   33.2788   26.9404   33.5807 C   0  0  1  0  0  0  0  0  0  0  0  0
   28.7443   27.7355   33.4039 C   0  0  0  0  0  0  0  0  0  0  0  0
   34.2902   27.6013   34.1692 C   0  0  1  0  0  0  0  0  0  0  0  0
   30.1423   27.3783   33.3682 C   0  0  0  0  0  0  0  0  0  0  0  0
   28.3167   27.2791   31.8290 N   0  0  0  0  0  0  0  0  0  0  0  0
   29.8081   28.0286   35.0139 N   0  0  0  0  0  0  0  0  0  0  0  0
   27.2500   28.2600   33.6063 N   0  0  0  0  0  0  0  0  0  0  0  0
   34.7306   27.8605   35.5060 C   0  0  1  0  0  0  0  0  0  0  0  0
   33.4840   26.3493   35.2593 O   0  0  0  0  0  0  0  0  0  0  0  0
   33.7801   28.5905   41.7112 P   0  0  0  0  0  0  0  0  0  0  0  0
   31.6501   27.2573   34.2718 N   0  0  0  0  0  0  0  0  0  0  0  0
   33.7965   27.7956   42.3305 O   0  0  0  0  0  0  0  0  0  0  0  0
   35.6397   29.0422   34.8052 O   0  0  0  0  0  0  0  0  0  0  0  0
   31.7232   28.2665   39.3915 O   0  0  0  0  0  1  0  0  0  0  0  0
   29.3892   26.8504   31.3068 C   0  0  0  0  0  0  0  0  0  0  0  0
   34.7747   27.5240   32.6079 O   0  0  0  0  0  0  0  0  0  0  0  0
   30.5183   27.0391   31.8953 N   0  0  0  0  0  0  0  0  0  0  0  0
   33.3746   30.0092   39.2849 O   0  0  0  0  0  0  0  0  0  0  0  0
   34.3137   27.4954   36.9447 C   0  0  0  0  0  0  0  0  0  0  0  0
   33.1346   28.5177   39.1121 P   0  0  1  0  0  4  0  0  0  0  0  0
   30.9009   27.6289   34.9655 C   0  0  0  0  0  0  0  0  0  0  0  0
   34.0371   28.2629   39.7647 O   0  0  0  0  0  0  0  0  0  0  0  0
   33.0140   27.9069   37.6565 O   0  0  0  0  0  0  0  0  0  0  0  0
  3  1  1  0
  4  2  2  0
  5  2  1  0
  7  2  1  0
  8  3  1  0
  1  9  1  1
 11  1  1  0
 12 10  1  0
  8 13  1  1
 15  5  1  0
  3 16  1  6
 17  4  1  0
 17 15  2  0
 19  8  1  0
 20 14  1  1
 20 18  1  0
 21  4  1  0
 21  6  2  3
 21 11  1  0
 22 10  1  0
 22 20  1  0
 23 19  1  0
 23 20  1  0
M  RAD  2  14   2  20   2
M  END
>  <ID>  (1) 
conformer_0

$$$$
