
     RDKit          3D

 25 25  0  0  0  0  0  0  0  0999 V2000
   29.1455   26.9575   31.5477 C   0  0  0  0  0  0  0  0  0  0  0  0
   34.4749   28.1786   34.9126 C   0  0  2  0  0  0  0  0  0  0  0  0
   34.4873   27.5966   35.8023 C   0  0  0  0  0  0  0  0  0  0  0  0
   30.1637   27.5393   33.4975 C   0  0  0  0  0  0  0  0  0  0  0  0
   30.3436   27.0864   31.9389 N   0  0  0  0  0  0  0  0  0  0  0  0
   33.9014   28.5961   40.8300 P   0  0  0  0  0  0  0  0  0  0  0  0
   29.6685   28.0229   35.2841 N   0  0  0  0  0  0  0  0  0  0  0  0
   33.3344   26.3208   34.9348 O   0  0  0  0  0  0  0  0  0  0  0  0
   31.5570   27.3749   34.2009 N   0  0  0  0  0  0  0  0  0  0  0  0
   27.0903   28.3136   33.8992 N   0  0  0  0  0  0  0  0  0  0  0  0
   33.3725   28.0208   37.7232 O   0  0  0  0  0  0  0  0  0  0  0  0
   28.5849   27.8960   33.6372 C   0  0  0  0  0  0  0  0  0  0  0  0
   34.9795   28.4604   40.7577 O   0  0  0  0  0  0  0  0  0  0  0  0
   35.2800   28.2156   32.9173 O   0  0  0  0  0  0  0  0  0  0  0  0
   34.0031   27.6079   33.5533 C   0  0  0  0  0  0  0  0  0  0  0  0
   33.8584   30.2502   39.6228 O   0  0  0  0  0  0  0  0  0  0  0  0
   33.7157   26.9618   31.8062 O   0  0  0  0  0  0  0  0  0  0  0  0
   28.2115   27.4458   32.1206 N   0  0  0  0  0  0  0  0  0  0  0  0
   32.8538   28.3266   38.5798 P   0  0  0  0  0  0  0  0  0  0  0  0
   30.7799   27.7909   34.9600 C   0  0  0  0  0  0  0  0  0  0  0  0
   33.2133   29.4119   42.3251 C   0  0  0  0  0  0  0  0  0  0  0  0
   32.9942   27.6260   40.1082 O   0  0  0  0  0  0  0  0  0  0  0  0
   31.6607   28.8482   38.4644 O   0  0  0  0  0  0  0  0  0  0  0  0
   32.9592   26.7746   33.5604 C   0  0  1  0  0  0  0  0  0  0  0  0
   35.3625   29.3503   34.7870 O   0  0  0  0  0  0  0  0  0  0  0  0
  3  2  1  0
  5  1  2  0
  5  4  1  0
 12  4  2  0
 12 10  1  0
 13  6  1  0
 15  2  1  0
 15 14  1  0
 16  6  1  0
 17 15  1  0
 18  1  1  0
 18 12  1  0
 19  3  1  0
 19 11  1  0
 20  4  1  0
 20  7  2  3
 20  9  1  0
 21 13  1  0
 22  6  1  0
 22 19  1  0
 23 11  1  0
 24  8  1  1
 24  9  1  0
 24 15  1  0
  2 25  1  6
M  END
>  <ID>  (1) 
conformer_0

$$$$
