
     RDKit          3D

 25 25  0  0  0  0  0  0  0  0999 V2000
   34.6222   27.3777   36.0276 C   0  0  0  0  0  0  0  0  0  0  0  0
   28.9555   26.8410   31.4389 C   0  0  0  0  0  0  0  0  0  0  0  0
   34.7838   28.0098   34.9123 C   0  0  1  0  0  0  0  0  0  0  0  0
   29.8207   27.3737   33.2465 C   0  0  0  0  0  0  0  0  0  0  0  0
   30.1844   26.8842   31.8216 N   0  0  0  0  0  0  0  0  0  0  0  0
   33.3171   26.1943   34.8569 O   0  0  0  0  0  0  0  0  0  0  0  0
   29.6885   28.0945   35.0765 N   0  0  0  0  0  0  0  0  0  0  0  0
   33.8158   28.5562   41.2967 P   0  0  0  0  0  0  0  0  0  0  0  0
   26.8127   28.1948   33.9526 N   0  0  0  0  0  0  0  0  0  0  0  0
   33.4909   27.6476   42.5075 O   0  0  0  0  0  0  0  0  0  0  0  0
   31.5486   28.0716   38.9285 O   0  0  0  0  0  0  0  0  0  0  0  0
   33.7390   27.6389   33.7590 C   0  0  1  0  0  0  0  0  0  0  0  0
   33.9131   27.2029   32.1269 O   0  0  0  0  0  0  0  0  0  0  0  0
   28.2972   27.7593   33.5483 C   0  0  0  0  0  0  0  0  0  0  0  0
   31.3281   27.1699   33.9561 N   0  0  0  0  0  0  0  0  0  0  0  0
   33.1515   29.3932   38.1775 O   0  0  0  0  0  0  0  0  0  0  0  0
   35.0821   28.3268   40.9378 O   0  0  0  0  0  0  0  0  0  0  0  0
   32.8866   28.2998   38.6027 P   0  0  0  0  0  5  0  0  0  0  0  0
   34.7370   29.1138   33.7198 O   0  0  0  0  0  0  0  0  0  0  0  0
   33.4114   27.5181   37.5088 O   0  0  0  0  0  0  0  0  0  0  0  0
   33.2763   28.2237   40.1843 N   0  0  0  0  0  0  0  0  0  0  0  0
   34.0767   30.1102   40.9228 O   0  0  0  0  0  0  0  0  0  0  0  0
   28.0512   27.3803   32.0623 N   0  0  0  0  0  0  0  0  0  0  0  0
   30.5917   27.6378   34.6936 C   0  0  0  0  0  0  0  0  0  0  0  0
   32.7668   26.8693   33.5165 C   0  0  2  0  0  0  0  0  0  0  0  0
  3  1  1  0
  5  2  2  0
  5  4  1  0
 10  8  1  0
 12  3  1  0
 12 13  1  6
 14  4  2  0
 14  9  1  0
 18 11  1  0
 18 16  1  0
 18 17  1  0
  3 19  1  1
 20  1  1  0
 20 18  1  0
 21  8  1  0
 21 18  1  0
 22  8  1  0
 23  2  1  0
 23 14  1  0
 24  4  1  0
 24  7  2  3
 24 15  1  0
 25  6  1  1
 25 12  1  0
 25 15  1  0
M  END
>  <ID>  (1) 
conformer_0

$$$$
