
     RDKit          3D

 23 24  0  0  0  0  0  0  0  0999 V2000
   33.7963   27.7431   33.9676 C   0  0  0  0  0  0  0  0  0  0  0  0
   30.2574   27.5500   33.3852 C   0  0  1  0  0  0  0  0  0  0  0  0
   34.6381   28.0038   35.3054 C   0  0  1  0  0  0  0  0  0  0  0  0
   30.3270   27.2374   31.7946 N   0  0  0  0  0  2  0  0  0  0  0  0
   29.2197   27.2492   31.6853 C   0  0  0  0  0  0  0  0  0  0  0  0
   33.5528   28.4335   41.2619 P   0  0  0  0  0  0  0  0  0  0  0  0
   33.4966   26.3450   35.0543 O   0  0  0  0  0  0  0  0  0  0  0  0
   29.8097   27.9610   35.3443 N   0  0  0  0  0  0  0  0  0  0  0  0
   33.3545   27.8623   42.3793 O   0  0  0  0  0  0  0  0  0  0  0  0
   27.1184   28.0369   34.0571 N   0  0  0  0  0  0  0  0  0  0  0  0
   33.0315   27.1183   33.2073 C   0  0  1  0  0  0  0  0  0  0  0  0
   31.6093   27.3543   33.7287 N   0  0  0  0  0  0  0  0  0  0  0  0
   28.5526   27.8316   33.7435 C   0  0  0  0  0  0  0  0  0  0  0  0
   33.3758   27.5883   37.9649 O   0  0  0  0  0  0  0  0  0  0  0  0
   34.1978   27.1721   32.2072 O   0  0  0  0  0  0  0  0  0  0  0  0
   35.2481   29.3317   35.0146 O   0  0  0  0  0  0  0  0  0  0  0  0
   34.5305   28.3168   40.7128 O   0  0  0  0  0  0  0  0  0  0  0  0
   33.4297   29.8270   38.9613 O   0  0  0  0  0  0  0  0  0  0  0  0
   32.7486   28.5062   38.7526 P   0  0  0  0  0  0  0  0  0  0  0  0
   28.2242   27.5882   32.1020 N   0  0  0  0  0  0  0  0  0  0  0  0
   34.6190   27.4119   36.3855 C   0  0  0  0  0  0  0  0  0  0  0  0
   31.7332   28.1450   38.9567 O   0  0  0  0  0  0  0  0  0  0  0  0
   30.7139   27.7635   35.0725 C   0  0  0  0  0  0  0  0  0  0  0  0
  3  1  1  0
  2  4  1  6
  5  4  1  0
  7  1  1  0
  9  6  1  0
 11  1  1  0
 12  2  1  0
 12 11  1  0
 13  2  1  0
 13 10  1  0
 11 15  1  6
  3 16  1  1
 17  6  1  0
 19 14  1  0
 19 18  1  0
 20  5  2  0
 20 13  1  0
 21  3  1  0
 21 14  1  0
 22  6  1  0
 22 19  1  0
 23  2  1  0
 23  8  2  3
 23 12  1  0
M  RAD  1   4   2
M  END
>  <ID>  (1) 
conformer_0

$$$$
