
     RDKit          3D

 25 26  0  0  0  0  0  0  0  0999 V2000
   34.0130   27.6207   33.8696 C   0  0  0  0  0  0  0  0  0  0  0  0
   28.3335   27.7364   33.5180 C   0  0  0  0  0  0  0  0  0  0  0  0
   34.6095   28.0753   35.0266 C   0  0  0  0  0  0  0  0  0  0  0  0
   27.9795   27.4370   32.1468 N   0  0  0  0  0  2  0  0  0  0  0  0
   30.6513   27.6613   34.5325 C   0  0  0  0  0  0  0  0  0  0  0  0
   31.4489   27.3239   33.8269 N   0  0  0  0  0  0  0  0  0  0  0  0
   33.4811   26.2945   34.9855 O   0  0  0  0  0  0  0  0  0  0  0  0
   33.1106   27.0906   33.3774 C   0  0  0  0  0  0  0  0  0  0  0  0
   33.8196   28.6344   41.3857 P   0  0  0  0  0  4  0  0  0  0  0  0
   26.7697   28.2331   33.7351 N   0  0  0  0  0  0  0  0  0  0  0  0
   29.6866   28.0810   34.8348 N   0  0  0  0  0  0  0  0  0  0  0  0
   33.6740   27.8211   42.2503 O   0  0  0  0  0  0  0  0  0  0  0  0
   33.3152   27.7070   37.1175 O   0  0  0  0  0  0  0  0  0  0  0  0
   28.8710   26.8457   31.6263 C   0  0  0  0  0  0  0  0  0  0  0  0
   33.7191   26.5616   31.9102 O   0  0  0  0  0  0  0  0  0  0  0  0
   34.8991   28.7224   41.2458 O   0  0  0  0  0  1  0  0  0  0  0  0
   34.0015   30.1255   39.1838 O   0  0  0  0  0  0  0  0  0  0  0  0
   35.2826   29.3867   34.9909 O   0  0  0  0  0  0  0  0  0  0  0  0
   30.0381   26.9404   31.8003 N   0  0  0  0  0  0  0  0  0  0  0  0
   33.2027   28.3841   38.5909 P   0  0  0  0  0  0  0  0  0  0  0  0
   31.8304   28.7256   38.7733 O   0  0  0  0  0  0  0  0  0  0  0  0
   29.9869   27.3811   33.2713 C   0  0  0  0  0  0  0  0  0  0  0  0
   34.4685   27.4674   36.3170 C   0  0  0  0  0  0  0  0  0  0  0  0
   35.2386   27.7178   32.8098 O   0  0  0  0  0  0  0  0  0  0  0  0
   34.0378   27.9504   39.1191 O   0  0  0  0  0  0  0  0  0  0  0  0
  3  1  1  0
  4  2  1  0
  6  5  1  0
  7  1  1  0
  8  1  1  0
  8  6  1  0
 10  2  1  0
 11  2  1  0
 11  5  2  0
 12  9  1  0
 14  4  1  0
 15  8  1  0
 16  9  1  0
 18  3  1  0
 19 14  2  0
 20 13  1  0
 20 17  1  0
 21  9  1  0
 22  2  1  0
 22  5  1  0
 22 19  1  0
 23  3  1  0
 23 13  1  0
 24  1  1  0
 25  9  1  0
 25 20  1  0
M  RAD  3   4   2   9   2  16   2
M  END
>  <ID>  (1) 
conformer_0

$$$$
