
     RDKit          3D

 24 25  0  0  0  0  0  0  0  0999 V2000
   29.1439   26.9752   31.3857 C   0  0  0  0  0  0  0  0  0  0  0  0
   34.2683   27.7537   34.1847 C   0  0  1  0  0  0  0  0  0  0  0  0
   34.8898   27.7205   35.3385 C   0  0  2  0  0  0  0  0  0  0  0  0
   29.9724   27.4847   33.3114 C   0  0  0  0  0  0  0  0  0  0  0  0
   28.1534   27.3760   31.9620 N   0  0  0  0  0  0  0  0  0  0  0  0
   33.9586   28.8094   40.9567 P   0  0  0  0  0  4  0  0  0  0  0  0
   26.9519   28.2582   33.7860 N   0  0  0  0  0  0  0  0  0  0  0  0
   33.6481   27.6945   41.7745 O   0  0  0  0  0  0  0  0  0  0  0  0
   31.5707   27.3440   34.0407 N   0  0  0  0  0  0  0  0  0  0  0  0
   33.1958   27.0676   33.6147 C   0  0  2  0  0  0  0  0  0  0  0  0
   33.5347   26.3261   35.1257 O   0  0  0  0  0  0  0  0  0  0  0  0
   29.7219   27.9619   34.9124 N   0  0  0  0  0  0  0  0  0  0  0  0
   28.4202   27.7785   33.4195 C   0  0  0  0  0  0  0  0  0  0  0  0
   31.3410   28.3861   38.7008 O   0  0  0  0  0  1  0  0  0  0  0  0
   33.5786   30.0984   38.8066 O   0  0  0  0  0  0  0  0  0  0  0  0
   34.8852   29.3067   41.2467 O   0  0  0  0  0  0  0  0  0  0  0  0
   36.0181   28.3347   34.7212 O   0  0  0  0  0  0  0  0  0  0  0  0
   34.5379   27.4479   32.5450 O   0  0  0  0  0  0  0  0  0  0  0  0
   30.4147   27.0902   31.8783 N   0  0  0  0  0  0  0  0  0  0  0  0
   32.7774   28.4113   38.4461 P   0  0  0  0  0  0  0  0  0  0  0  0
   33.2024   27.5837   37.2173 O   0  0  0  0  0  0  0  0  0  0  0  0
   33.5399   27.9626   39.4283 O   0  0  0  0  0  0  0  0  0  0  0  0
   34.4859   27.1495   36.6231 C   0  0  0  0  0  0  0  0  0  0  0  0
   30.8701   27.7047   34.6998 C   0  0  0  0  0  0  0  0  0  0  0  0
  3  2  1  0
  5  1  2  0
  8  6  1  0
 10  2  1  0
 10  9  1  1
 11  2  1  0
 11 10  1  0
 13  4  2  0
 13  5  1  0
 13  7  1  0
 14  6  1  0
 16  6  1  0
  3 17  1  6
  2 18  1  6
 19  1  1  0
 19  4  1  0
 20 15  1  0
 21 20  1  0
 22  6  1  0
 22 20  1  0
 23  3  1  0
 23 21  1  0
 24  4  1  0
 24  9  1  0
 24 12  2  3
M  RAD  2   6   2  14   2
M  END
>  <ID>  (1) 
conformer_0

$$$$
