
     RDKit          3D

 25 26  0  0  0  0  0  0  0  0999 V2000
   29.2668   27.6294   33.7340 C   0  0  0  0  0  0  0  0  0  0  0  0
   33.1609   26.9899   33.1933 C   0  0  2  0  0  0  0  0  0  0  0  0
   34.0645   27.7019   33.7214 C   0  0  0  0  0  0  0  0  0  0  0  0
   28.2011   27.7416   33.3917 C   0  0  0  0  0  0  0  0  0  0  0  0
   30.2903   27.0222   31.8556 N   0  0  0  0  0  0  0  0  0  0  0  0
   29.7947   27.9612   35.0793 N   0  0  0  0  0  0  0  0  0  0  0  0
   33.4334   26.4380   35.1005 O   0  0  0  0  0  0  0  0  0  0  0  0
   33.7539   28.3993   41.0458 P   0  0  1  0  0  4  0  0  0  0  0  0
   26.9700   28.2261   33.8479 N   0  0  0  0  0  0  0  0  0  0  0  0
   34.5802   27.9413   34.9688 C   0  0  0  0  0  0  0  0  0  0  0  0
   33.5291   27.5377   41.8627 O   0  0  0  0  0  0  0  0  0  0  0  0
   34.6382   26.9573   32.1686 O   0  0  0  0  0  0  0  0  0  0  0  0
   29.0619   26.8789   31.1476 C   0  0  0  0  0  0  0  0  0  0  0  0
   33.3471   27.6965   38.1084 O   0  0  0  0  0  0  0  0  0  0  0  0
   32.5006   28.6817   38.2673 P   0  0  2  0  0  4  0  0  0  0  0  0
   35.0078   28.6742   41.1518 O   0  0  0  0  0  1  0  0  0  0  0  0
   31.5058   27.1477   33.7108 N   0  0  0  0  0  0  0  0  0  0  0  0
   35.3896   28.9009   33.7472 O   0  0  0  0  0  0  0  0  0  0  0  0
   28.0913   27.3897   32.0058 N   0  0  0  0  0  0  0  0  0  0  0  0
   33.5238   29.9541   38.7508 O   0  0  0  0  0  0  0  0  0  0  0  0
   31.7438   28.7891   39.4911 O   0  0  0  0  0  0  0  0  0  0  0  0
   34.4157   27.2722   36.3263 C   0  0  1  0  0  0  0  0  0  0  0  0
   30.5359   27.1390   33.0102 C   0  0  0  0  0  0  0  0  0  0  0  0
   32.1566   28.9957   37.0396 O   0  0  0  0  0  1  0  0  0  0  0  0
   30.9239   27.6698   35.1494 C   0  0  0  0  0  0  0  0  0  0  0  0
  3  2  1  0
  4  1  2  0
  6  1  1  0
  9  4  1  0
 10  3  2  3
  8 11  1  6
  2 12  1  6
 13  5  1  0
 15 14  1  0
 16  8  1  0
 17  2  1  0
 18 10  1  0
 19  4  1  0
 19 13  2  0
 15 20  1  1
 21  8  1  0
 21 15  1  0
 22  7  1  6
 22 10  1  0
 22 14  1  0
 23  1  1  0
 23  5  2  0
 23 17  1  0
 24 15  1  0
 25  6  2  0
 25 17  1  0
M  RAD  4   8   2  15   2  16   2  24   2
M  END
>  <ID>  (1) 
conformer_0

$$$$
