
     RDKit          3D

 23 24  0  0  0  0  0  0  0  0999 V2000
   34.0703   27.4605   33.7809 C   0  0  1  0  0  0  0  0  0  0  0  0
   28.4508   27.8081   33.5903 C   0  0  0  0  0  3  0  0  0  0  0  0
   32.9511   26.8527   33.5726 C   0  0  0  0  0  0  0  0  0  0  0  0
   30.2235   26.8837   31.9209 N   0  0  0  0  0  0  0  0  0  0  0  0
   29.8912   27.4636   33.5692 C   0  0  0  0  0  0  0  0  0  0  0  0
   26.8580   28.3460   33.7314 N   0  0  0  0  0  0  0  0  0  0  0  0
   29.4417   28.1689   35.3977 N   0  0  0  0  0  0  0  0  0  0  0  0
   33.3031   26.5301   35.4018 O   0  0  0  0  0  0  0  0  0  0  0  0
   34.6134   27.8079   35.1384 C   0  0  1  0  0  0  0  0  0  0  0  0
   34.1300   28.5065   40.9555 P   0  0  1  0  0  4  0  0  0  0  0  0
   33.5343   28.1626   41.8954 O   0  0  0  0  0  0  0  0  0  0  0  0
   29.1419   26.8265   31.4793 C   0  0  0  0  0  0  0  0  0  0  0  0
   35.3347   29.0808   34.8506 O   0  0  0  0  0  0  0  0  0  0  0  0
   33.5648   28.0927   38.1107 O   0  0  0  0  0  0  0  0  0  0  0  0
   34.0885   27.0299   32.1570 O   0  0  0  0  0  0  0  0  0  0  0  0
   31.2341   27.2913   34.1545 N   0  0  0  0  0  0  0  0  0  0  0  0
   34.8446   28.6448   40.2063 O   0  0  0  0  0  1  0  0  0  0  0  0
   32.6886   30.0748   38.4395 O   0  0  0  0  0  0  0  0  0  0  0  0
   28.1585   27.3698   31.9768 N   0  0  0  0  0  0  0  0  0  0  0  0
   30.5878   27.9060   35.3008 C   0  0  0  0  0  0  0  0  0  0  0  0
   32.8298   28.6736   38.5295 P   0  0  0  0  0  0  0  0  0  0  0  0
   31.6129   28.2308   39.0197 O   0  0  0  0  0  0  0  0  0  0  0  0
   34.3417   27.4754   36.3711 C   0  0  1  0  0  0  0  0  0  0  0  0
  3  1  1  0
  5  2  1  0
  5  4  1  0
  6  2  1  0
  9  1  1  0
 10 11  1  6
 12  4  2  0
  9 13  1  1
  1 15  1  1
 16  3  1  0
 16  5  1  0
 17 10  1  0
 19  2  1  0
 19 12  1  0
 20  5  1  0
 20  7  2  3
 20 16  1  0
 21 14  1  0
 21 18  1  0
 22 10  1  0
 22 21  1  0
 23  8  1  6
 23  9  1  0
 23 14  1  0
M  RAD  3   2   2  10   2  17   2
M  END
>  <ID>  (1) 
conformer_0

$$$$
