
     RDKit          3D

 23 23  0  0  0  0  0  0  0  0999 V2000
   30.0609   27.6046   33.7844 C   0  0  0  0  0  0  0  0  0  0  0  0
   34.0779   27.8268   33.7200 C   0  0  1  0  0  0  0  0  0  0  0  0
   33.1613   27.1337   33.5141 C   0  0  1  0  0  0  0  0  0  0  0  0
   30.9191   27.8630   35.2973 C   0  0  0  0  0  0  0  0  0  0  0  0
   28.0685   27.5368   32.1803 N   0  0  0  0  0  0  0  0  0  0  0  0
   26.8692   28.2944   33.8507 N   0  0  0  0  0  0  0  0  0  0  0  0
   33.3976   26.3677   34.9908 O   0  0  0  0  0  0  0  0  0  0  0  0
   29.6564   28.0489   35.4456 N   0  0  0  0  0  0  0  0  0  0  0  0
   34.7539   27.8835   34.9168 C   0  0  0  0  0  0  0  0  0  0  0  0
   31.4792   27.4852   34.2500 N   0  0  0  0  0  0  0  0  0  0  0  0
   35.1568   28.8535   41.3114 O   0  0  0  0  0  0  0  0  0  0  0  0
   33.9382   28.5321   41.1164 P   0  0  0  0  0  0  0  0  0  0  0  0
   32.0654   28.5054   38.5636 O   0  0  0  0  0  1  0  0  0  0  0  0
   34.4820   27.0202   32.2066 O   0  0  0  0  0  0  0  0  0  0  0  0
   29.0319   27.1881   31.7688 C   0  0  0  0  0  0  0  0  0  0  0  0
   33.9156   29.6917   39.2177 O   0  0  0  0  0  0  0  0  0  0  0  0
   30.1944   27.2603   32.1528 N   0  0  0  0  0  0  0  0  0  0  0  0
   33.6060   27.7710   42.4203 O   0  0  0  0  0  0  0  0  0  0  0  0
   28.5072   27.8652   33.7038 C   0  0  2  0  0  0  0  0  0  0  0  0
   34.5822   27.2946   36.2941 C   0  0  0  0  0  0  0  0  0  0  0  0
   33.1535   28.3776   38.5829 P   0  0  2  0  0  4  0  0  0  0  0  0
   33.5124   27.7217   37.2018 O   0  0  0  0  0  0  0  0  0  0  0  0
   33.7616   27.7096   39.7744 O   0  0  0  0  0  0  0  0  0  0  0  0
  3  2  1  0
  3  7  1  1
  8  4  2  3
  9  2  1  0
 10  1  1  0
 10  3  1  0
 10  4  1  0
 12 11  1  0
  2 14  1  6
 15  5  2  0
 17  1  2  0
 17 15  1  0
 18 12  1  0
 19  1  1  0
 19  5  1  0
 19  6  1  6
 20  9  1  0
 21 13  1  1
 21 16  1  0
 22 20  1  0
 22 21  1  0
 23 12  1  0
 23 21  1  0
M  RAD  2  13   2  21   2
M  END
>  <ID>  (1) 
conformer_0

$$$$
