
     RDKit          3D

 25 25  0  0  0  0  0  0  0  0999 V2000
   28.5881   27.6791   33.2092 C   0  0  0  0  0  0  0  0  0  0  0  0
   34.0419   27.7642   33.8610 C   0  0  2  0  0  0  0  0  0  0  0  0
   33.0660   26.9282   33.6555 C   0  0  2  0  0  0  0  0  0  0  0  0
   28.2388   27.2595   31.6779 N   0  0  0  0  0  0  0  0  0  0  0  0
   30.0000   27.4184   33.1402 C   0  0  1  0  0  0  0  0  0  0  0  0
   31.5716   27.3113   33.9443 N   0  0  0  0  0  0  0  0  0  0  0  0
   33.6248   28.7358   40.9824 P   0  0  0  0  0  5  0  0  0  0  0  0
   33.4721   26.2167   34.8951 O   0  0  0  0  0  0  0  0  0  0  0  0
   29.7452   27.9564   34.8088 N   0  0  0  0  0  0  0  0  0  0  0  0
   27.1321   28.1249   33.4491 N   0  0  0  0  0  0  0  0  0  0  0  0
   34.2229   27.2858   32.2963 O   0  0  0  0  0  0  0  0  0  0  0  0
   29.4162   26.8064   31.1967 C   0  0  0  0  0  0  0  0  0  0  0  0
   30.6056   27.0378   31.7118 N   0  0  0  0  0  0  0  0  0  0  0  0
   33.4270   28.0284   42.1519 O   0  0  0  0  0  0  0  0  0  0  0  0
   31.3377   28.1335   38.5909 O   0  0  0  0  0  0  0  0  0  0  0  0
   34.7724   27.8754   35.1636 C   0  0  1  0  0  0  0  0  0  0  0  0
   33.3370   29.2982   38.0734 O   0  0  0  0  0  0  0  0  0  0  0  0
   34.9231   28.5878   40.9436 O   0  0  0  0  0  0  0  0  0  0  0  0
   35.3662   28.9819   35.1633 O   0  0  0  0  0  0  0  0  0  0  0  0
   32.7625   28.0594   38.3673 P   0  0  0  0  0  0  0  0  0  0  0  0
   33.3168   27.3545   37.1382 O   0  0  0  0  0  0  0  0  0  0  0  0
   30.8338   27.6645   34.6745 C   0  0  0  0  0  0  0  0  0  0  0  0
   33.5517   30.1275   40.3481 O   0  0  0  0  0  0  0  0  0  0  0  0
   33.0867   27.4475   39.6709 O   0  0  0  0  0  0  0  0  0  0  0  0
   34.5695   27.1143   36.3012 C   0  0  0  0  0  0  0  0  0  0  0  0
  3  2  1  0
  4  1  2  0
  5  1  1  0
  6  3  1  0
  3  8  1  1
 10  1  1  0
  2 11  1  6
 12  4  1  0
 13  5  1  0
 13 12  2  0
 14  7  1  0
 15  7  1  0
 16  2  1  0
 18  7  1  0
 16 19  1  1
 20 15  1  0
 20 17  1  0
 21 20  1  0
  5 22  1  6
 22  6  1  0
 22  9  2  3
 23  7  1  0
 24  7  1  0
 25 16  1  0
 25 21  1  0
M  END
>  <ID>  (1) 
conformer_0

$$$$
