
     RDKit          3D

 26 28  0  0  0  0  0  0  0  0999 V2000
   28.4555   27.8350   33.3399 C   0  0  0  0  0  0  0  0  0  0  0  0
   34.3586   27.4197   35.7867 C   0  0  0  0  0  0  0  0  0  0  0  0
   34.6547   28.0351   34.8054 C   0  0  0  0  0  0  0  0  0  0  0  0
   29.8895   27.5880   33.2151 C   0  0  0  0  0  0  0  0  0  0  0  0
   30.3060   27.0722   31.5932 N   0  0  0  0  0  0  0  0  0  0  0  0
   29.3904   27.9998   34.9612 N   0  0  0  0  0  0  0  0  0  0  0  0
   26.9078   28.2764   33.5407 N   0  0  0  0  0  0  0  0  0  0  0  0
   34.1103   28.6993   41.3528 P   0  0  0  0  0  5  0  0  0  0  0  0
   33.2196   26.1809   34.7341 O   0  0  0  0  0  0  0  0  0  0  0  0
   33.7344   27.6603   42.4539 O   0  0  0  0  0  0  0  0  0  0  0  0
   29.0854   26.8938   31.2924 C   0  0  0  0  0  0  0  0  0  0  0  0
   33.9179   27.8402   33.6745 C   0  0  0  0  0  0  0  0  0  0  0  0
   32.8425   28.2337   38.6599 P   0  0  0  0  0  0  0  0  0  0  0  0
   31.3905   27.3147   33.8380 N   0  0  0  0  0  0  0  0  0  0  0  0
   33.0859   27.5653   39.5091 O   0  0  0  0  0  0  0  0  0  0  0  0
   35.2961   28.6608   41.1573 O   0  0  0  0  0  0  0  0  0  0  0  0
   36.1199   27.1486   35.4333 O   0  0  0  0  0  0  0  0  0  0  0  0
   34.8718   27.3344   32.3703 O   0  0  0  0  0  0  0  0  0  0  0  0
   34.1541   29.8306   39.0374 O   0  0  0  0  0  0  0  0  0  0  0  0
   28.1082   27.3466   31.7287 N   0  0  0  0  0  0  0  0  0  0  0  0
   30.5746   27.7218   34.9403 C   0  0  0  0  0  0  0  0  0  0  0  0
   31.5954   28.8845   38.3147 O   0  0  0  0  0  0  0  0  0  0  0  0
   33.0441   27.6796   37.1668 O   0  0  0  0  0  0  0  0  0  0  0  0
   34.9966   29.3249   33.5571 O   0  0  0  0  0  0  0  0  0  0  0  0
   32.8027   26.8340   33.4783 C   0  0  0  0  0  0  0  0  0  0  0  0
   33.7440   29.9940   41.3387 O   0  0  0  0  0  0  0  0  0  0  0  0
  3  2  1  0
  4  1  1  0
  5  4  1  0
  6  1  1  0
  7  1  1  0
 10  8  1  0
 11  5  2  0
 12  3  1  0
 14  4  1  0
 15  8  1  0
 15 13  1  0
 16  8  1  0
 17  2  1  0
 18 12  1  0
 19 13  1  0
 20  1  1  0
 20 11  1  0
 21  4  1  0
 21  6  2  0
 21 14  1  0
 22  8  1  0
 23  2  1  0
 23 13  1  0
 24  3  1  0
 25  9  1  0
 25 12  1  0
 25 14  1  0
 26  8  1  0
M  END
>  <ID>  (1) 
conformer_0

$$$$
