
     RDKit          3D

 25 26  0  0  0  0  0  0  0  0999 V2000
   29.0943   26.7245   31.1905 C   0  0  0  0  0  0  0  0  0  0  0  0
   34.6522   27.3438   36.4540 C   0  0  0  0  0  0  0  0  0  0  0  0
   34.7133   28.0307   35.3366 C   0  0  0  0  0  0  0  0  0  0  0  0
   29.3500   27.7422   33.8171 C   0  0  0  0  0  0  0  0  0  0  0  0
   29.7154   27.9921   35.0801 N   0  0  0  0  0  0  0  0  0  0  0  0
   27.9154   27.5188   32.1818 N   0  0  0  0  0  0  0  0  0  0  0  0
   28.0709   27.7782   33.3256 C   0  0  0  0  0  0  0  0  0  0  0  0
   31.4577   27.3148   33.7664 N   0  0  0  0  0  0  0  0  0  0  0  0
   26.8864   28.2886   34.1156 N   0  0  0  0  0  0  0  0  0  0  0  0
   33.9592   28.7007   41.2545 P   0  0  0  0  0  4  0  0  0  0  0  0
   31.8498   28.7533   38.8301 O   0  0  0  0  0  1  0  0  0  0  0  0
   33.3291   27.6378   41.9498 O   0  0  0  0  0  0  0  0  0  0  0  0
   34.0062   27.6428   34.2329 C   0  0  0  0  0  0  0  0  0  0  0  0
   33.4433   26.2961   35.1884 O   0  0  0  0  0  0  0  0  0  0  0  0
   30.4003   26.9283   31.5759 N   0  0  0  0  0  0  0  0  0  0  0  0
   35.1592   28.4328   41.5942 O   0  0  0  0  0  0  0  0  0  0  0  0
   34.2923   27.2852   32.4745 O   0  0  0  0  0  0  0  0  0  0  0  0
   33.0486   28.3400   38.7156 P   0  0  0  0  0  0  0  0  0  0  0  0
   30.9129   27.6720   34.9831 C   0  0  0  0  0  0  0  0  0  0  0  0
   33.9660   29.8923   39.1214 O   0  0  0  0  0  0  0  0  0  0  0  0
   35.1743   28.9033   33.9976 O   0  0  0  0  0  0  0  0  0  0  0  0
   33.4653   27.5941   37.1674 O   0  0  0  0  0  0  0  0  0  0  0  0
   33.0683   26.9976   33.4903 C   0  0  0  0  0  0  0  0  0  0  0  0
   30.3519   27.2139   32.6585 C   0  0  0  0  0  0  0  0  0  0  0  0
   33.6292   27.6973   39.2520 O   0  0  0  0  0  0  0  0  0  0  0  0
  3  2  1  0
  5  4  1  0
  6  1  2  0
  7  4  2  0
  7  6  1  0
  9  7  1  0
 11 10  1  0
 12 10  1  0
 13  3  1  0
 14 13  1  0
 15  1  1  0
 16 10  1  0
 19  5  2  0
 19  8  1  0
 20 18  1  0
 21  3  1  0
 22  2  1  0
 22 18  1  0
 23  8  1  0
 23 13  1  0
 23 17  1  0
 24  4  1  0
 24  8  1  0
 24 15  2  0
 25 10  1  0
 25 18  1  0
M  RAD  2  10   2  11   2
M  END
>  <ID>  (1) 
conformer_0

$$$$
