
     RDKit          3D

 24 25  0  0  0  0  0  0  0  0999 V2000
   33.3130   27.1114   33.5670 C   0  0  1  0  0  0  0  0  0  0  0  0
   29.2918   26.6548   31.2153 C   0  0  0  0  0  0  0  0  0  0  0  0
   33.9945   28.0425   33.8181 C   0  0  1  0  0  0  0  0  0  0  0  0
   28.1498   27.1994   31.7658 N   0  0  0  0  0  0  0  0  0  0  0  0
   29.9713   27.4127   33.2147 C   0  0  0  0  0  0  0  0  0  0  0  0
   29.6306   28.0380   34.9762 N   0  0  0  0  0  0  0  0  0  0  0  0
   27.0508   28.1635   33.7038 N   0  0  0  0  0  0  0  0  0  0  0  0
   33.8259   28.4758   41.5053 P   0  0  0  0  0  4  0  0  0  0  0  0
   34.4929   27.7682   35.1300 C   0  0  2  0  0  0  0  0  0  0  0  0
   33.5767   26.3278   35.2618 O   0  0  0  0  0  0  0  0  0  0  0  0
   28.5738   27.6314   33.3150 C   0  0  0  0  0  0  0  0  0  0  0  0
   31.6204   27.5446   34.2315 N   0  0  0  0  0  0  0  0  0  0  0  0
   34.9047   28.4413   41.3362 O   0  0  0  0  0  1  0  0  0  0  0  0
   34.1154   27.0523   31.9983 O   0  0  0  0  0  0  0  0  0  0  0  0
   33.0539   29.4664   38.3774 O   0  0  0  0  0  0  0  0  0  0  0  0
   30.4093   26.8559   31.7569 N   0  0  0  0  0  0  0  0  0  0  0  0
   33.6280   27.5438   38.0415 O   0  0  0  0  0  0  0  0  0  0  0  0
   33.3441   27.3823   42.2744 O   0  0  0  0  0  0  0  0  0  0  0  0
   33.0387   28.2292   38.6907 P   0  0  0  0  0  0  0  0  0  0  0  0
   30.7625   27.8172   34.8509 C   0  0  0  0  0  0  0  0  0  0  0  0
   31.7342   27.9429   38.8919 O   0  0  0  0  0  0  0  0  0  0  0  0
   34.6937   29.0923   33.3434 O   0  0  0  0  0  0  0  0  0  0  0  0
   33.3960   29.8465   41.5872 O   0  0  0  0  0  0  0  0  0  0  0  0
   34.3948   27.1390   36.4998 C   0  0  2  0  0  0  0  0  0  0  0  0
  3  1  1  0
  4  2  2  0
  9  3  1  0
  9 10  1  6
 11  4  1  0
 11  5  2  0
 11  7  1  0
 12  1  1  0
 13  8  1  0
  1 14  1  6
 16  2  1  0
 16  5  1  0
 18  8  1  0
 19 15  1  0
 19 17  1  0
 20  5  1  0
 20  6  2  3
 20 12  1  0
 21  8  1  0
 21 19  1  0
  3 22  1  6
 23  8  1  0
 24  9  1  0
 24 10  1  0
 24 17  1  1
M  RAD  2   8   2  13   2
M  END
>  <ID>  (1) 
conformer_0

$$$$
