
     RDKit          3D

 27 28  0  0  0  0  0  0  0  0999 V2000
   28.8815   27.0952   31.5328 C   0  0  0  0  0  0  0  0  0  0  0  0
   34.1530   27.7724   33.8073 C   0  0  0  0  0  0  0  0  0  0  0  0
   33.2443   27.0878   33.3671 C   0  0  0  0  0  0  0  0  0  0  0  0
   29.2864   27.7255   34.1183 C   0  0  0  0  0  0  0  0  0  0  0  0
   29.8612   27.9256   35.2762 N   0  0  0  0  0  0  0  0  0  0  0  0
   27.8959   27.6436   32.4161 N   0  0  0  0  0  0  0  0  0  0  0  0
   34.6467   27.8311   35.0762 C   0  0  0  0  0  0  0  0  0  0  0  0
   33.7884   28.6138   41.1825 P   0  0  0  0  0  4  0  0  0  0  0  0
   33.6010   26.1906   34.9610 O   0  0  0  0  0  0  0  0  0  0  0  0
   26.8637   28.2128   34.3945 N   0  0  0  0  0  0  0  0  0  0  0  0
   28.0773   27.7854   33.6787 C   0  0  0  0  0  0  0  0  0  0  0  0
   34.4147   27.2520   32.0090 O   0  0  0  0  0  0  0  0  0  0  0  0
   31.6445   27.2662   34.0482 N   0  0  0  0  0  0  0  0  0  0  0  0
   31.2432   28.2670   38.4106 O   0  0  0  0  0  1  0  0  0  0  0  0
   33.7448   27.5776   42.3203 O   0  0  0  0  0  0  0  0  0  0  0  0
   35.0362   29.1969   41.4818 O   0  0  0  0  0  1  0  0  0  0  0  0
   30.0679   27.1758   32.0301 N   0  0  0  0  0  0  0  0  0  0  0  0
   33.1976   29.7911   38.8140 O   0  0  0  0  0  0  0  0  0  0  0  0
   32.7438   28.3028   38.4462 P   0  0  2  0  0  4  0  0  0  0  0  0
   35.6560   28.6904   34.0794 O   0  0  0  0  0  0  0  0  0  0  0  0
   30.4583   27.2757   33.2698 C   0  0  0  0  0  0  0  0  0  0  0  0
   34.4334   27.3397   36.5581 C   0  0  0  0  0  0  0  0  0  0  0  0
   33.5785   28.1088   40.3513 N   0  0  0  0  0  0  0  0  0  0  0  0
   32.8030   29.4547   41.5055 O   0  0  0  0  0  0  0  0  0  0  0  0
   33.1158   27.9038   37.0112 O   0  0  0  0  0  0  0  0  0  0  0  0
   33.0187   27.4106   39.1522 O   0  0  0  0  0  0  0  0  0  0  0  0
   31.1785   27.6156   35.2541 C   0  0  0  0  0  0  0  0  0  0  0  0
  3  2  1  0
  5  4  1  0
  6  1  2  0
  7  2  2  3
  9  3  1  0
 11  4  2  0
 11  6  1  0
 11 10  1  0
 12  3  1  0
 13  3  1  0
 15  8  1  0
 16  8  1  0
 17  1  1  0
 19 14  1  6
 19 18  1  0
 20  7  1  0
 21  4  1  0
 21 13  1  0
 21 17  2  0
 22  7  1  0
 23  8  1  0
 24  8  1  0
 25 19  1  0
 25 22  1  0
 26 19  1  0
 26 23  1  0
 27  5  2  0
 27 13  1  0
M  RAD  4   8   2  14   2  16   2  19   2
M  END
>  <ID>  (1) 
conformer_0

$$$$
