
     RDKit          3D

 25 26  0  0  0  0  0  0  0  0999 V2000
   33.0540   27.1776   33.5922 C   0  0  0  0  0  0  0  0  0  0  0  0
   28.3035   27.8091   33.6174 C   0  0  0  0  0  0  0  0  0  0  0  0
   33.9499   27.9265   33.9793 C   0  0  0  0  0  0  0  0  0  0  0  0
   29.8584   27.4919   33.2537 C   0  0  0  0  0  3  0  0  0  0  0  0
   27.8636   27.5243   32.2059 N   0  0  0  0  0  0  0  0  0  0  0  0
   31.3984   27.4732   34.0343 N   0  0  0  0  0  0  0  0  0  0  0  0
   33.5419   28.2724   41.4471 P   0  0  0  0  0  4  0  0  0  0  0  0
   33.4446   27.3948   42.4634 O   0  0  0  0  0  0  0  0  0  0  0  0
   34.6821   27.9694   35.2035 C   0  0  0  0  0  0  0  0  0  0  0  0
   33.3053   26.1296   34.9592 O   0  0  0  0  0  0  0  0  0  0  0  0
   29.6155   28.0864   34.9878 N   0  0  0  0  0  0  0  0  0  0  0  0
   33.7287   27.8849   39.1680 O   0  0  0  0  0  0  0  0  0  0  0  0
   28.8895   26.9178   31.4500 C   0  0  0  0  0  0  0  0  0  0  0  0
   34.0678   26.8660   32.1047 O   0  0  0  0  0  0  0  0  0  0  0  0
   34.7799   28.6002   41.2275 O   0  0  0  0  0  1  0  0  0  0  0  0
   33.1587   29.9185   38.5003 O   0  0  0  0  0  0  0  0  0  0  0  0
   26.8795   28.2318   34.2607 N   0  0  0  0  0  0  0  0  0  0  0  0
   34.9502   28.7082   33.1825 O   0  0  0  0  0  0  0  0  0  0  0  0
   30.0986   27.0030   31.8269 N   0  0  0  0  0  0  0  0  0  0  0  0
   32.9614   28.4565   38.6280 P   0  0  0  0  0  0  0  0  0  0  0  0
   31.4371   28.1452   38.5047 O   0  0  0  0  0  0  0  0  0  0  0  0
   30.6714   27.7804   34.6599 C   0  0  0  0  0  0  0  0  0  0  0  0
   34.3963   27.3368   36.4567 C   0  0  0  0  0  0  0  0  0  0  0  0
   35.3196   29.4416   35.4339 O   0  0  0  0  0  0  0  0  0  0  0  0
   33.2670   27.6876   36.9556 O   0  0  0  0  0  0  0  0  0  0  0  0
  3  1  1  0
  4  2  1  0
  5  2  1  0
  6  1  1  0
  8  7  1  0
  9  3  1  0
 10  1  1  0
 11  2  1  0
 12  7  1  0
 13  5  1  0
 14  1  1  0
 15  7  1  0
 17  2  1  0
 18  3  1  0
 19  4  1  0
 19 13  2  0
 20 12  1  0
 20 16  1  0
 21  7  1  0
 22  4  1  0
 22  6  1  0
 22 11  2  0
 23  9  1  0
 24  9  1  0
 25 20  1  0
 25 23  1  0
M  RAD  3   4   2   7   2  15   2
M  END
>  <ID>  (1) 
conformer_0

$$$$
