
     RDKit          3D

 23 24  0  0  0  0  0  0  0  0999 V2000
   33.1530   27.1548   33.4066 C   0  0  1  0  0  0  0  0  0  0  0  0
   29.1516   27.1851   31.7142 C   0  0  0  0  0  0  0  0  0  0  0  0
   33.9978   28.2179   33.7073 C   0  0  0  0  0  0  0  0  0  0  0  0
   29.9779   27.5223   33.4636 C   0  0  2  0  0  0  0  0  0  0  0  0
   28.1047   27.5342   32.0747 N   0  0  0  0  0  0  0  0  0  0  0  0
   34.6082   27.8564   34.9121 C   0  0  0  0  0  0  0  0  0  0  0  0
   33.4656   26.3335   34.8271 O   0  0  0  0  0  0  0  0  0  0  0  0
   26.7889   28.0132   33.8951 N   0  0  0  0  0  0  0  0  0  0  0  0
   32.9470   29.5807   38.2692 O   0  0  0  0  0  0  0  0  0  0  0  0
   31.5325   27.3239   33.7958 N   0  0  0  0  0  0  0  0  0  0  0  0
   32.7955   28.3760   38.4836 P   0  0  0  0  0  0  0  0  0  0  0  0
   33.5977   27.4019   42.3377 O   0  0  0  0  0  0  0  0  0  0  0  0
   29.6717   27.9303   35.1177 N   0  0  0  0  0  0  0  0  0  0  0  0
   33.7491   27.5925   37.7897 O   0  0  0  0  0  0  0  0  0  0  0  0
   28.2920   27.7430   33.6441 C   0  0  0  0  0  3  0  0  0  0  0  0
   35.2124   29.4033   33.7386 O   0  0  0  0  0  0  0  0  0  0  0  0
   30.2374   27.2110   31.8808 N   0  0  0  0  0  0  0  0  0  0  0  0
   34.6491   28.5855   40.4954 O   0  0  0  0  0  0  0  0  0  0  0  0
   34.8534   27.3738   32.3114 O   0  0  0  0  0  0  0  0  0  0  0  0
   34.4639   27.0081   36.3740 C   0  0  0  0  0  0  0  0  0  0  0  0
   33.5805   28.2112   41.1611 P   0  0  0  0  0  0  0  0  0  0  0  0
   30.8026   27.6385   34.8494 C   0  0  0  0  0  0  0  0  0  0  0  0
   32.1924   27.7300   39.2444 O   0  0  0  0  0  0  0  0  0  0  0  0
  3  1  1  0
  5  2  2  0
  6  3  1  0
  1  7  1  1
 10  1  1  0
 10  4  1  0
 11  9  1  0
 14 11  1  0
 15  4  1  0
 15  5  1  0
 15  8  1  0
 16  3  1  0
 17  2  1  0
  4 17  1  6
 19  3  1  0
 20  6  1  0
 20 14  1  0
 21 12  1  0
 21 18  1  0
 22  4  1  0
 22 10  1  0
 22 13  2  3
 23 11  1  0
 23 21  1  0
M  RAD  1  15   2
M  END
>  <ID>  (1) 
conformer_0

$$$$
