
     RDKit          3D

 24 26  0  0  0  0  0  0  0  0999 V2000
   34.5729   27.5975   35.2680 C   0  0  0  0  0  0  0  0  0  0  0  0
   28.9152   26.9174   31.4279 C   0  0  0  0  0  0  0  0  0  0  0  0
   33.9737   27.6913   34.0644 C   0  0  0  0  0  0  0  0  0  0  0  0
   30.2638   27.0443   31.5775 N   0  0  0  0  0  0  0  0  0  0  0  0
   30.5330   27.6106   34.5469 C   0  0  0  0  0  0  0  0  0  0  0  0
   29.5934   27.9210   34.8471 N   0  0  0  0  0  0  0  0  0  0  0  0
   33.3085   26.1506   34.9597 O   0  0  0  0  0  0  0  0  0  0  0  0
   33.5048   27.4286   41.9539 O   0  0  0  0  0  0  0  0  0  0  0  0
   26.8574   28.1833   33.7217 N   0  0  0  0  0  0  0  0  0  0  0  0
   32.9514   26.9746   33.3502 C   0  0  0  0  0  0  0  0  0  0  0  0
   31.4243   27.1672   33.6023 N   0  0  0  0  0  0  0  0  0  0  0  0
   32.8846   28.6323   38.4589 P   0  0  0  0  0  0  0  0  0  0  0  0
   28.3845   27.7501   33.4091 C   0  0  0  0  0  0  0  0  0  0  0  0
   35.2984   28.9158   34.6874 O   0  0  0  0  0  0  0  0  0  0  0  0
   34.7332   28.8447   41.4453 O   0  0  0  0  0  1  0  0  0  0  0  0
   33.1973   27.8428   37.2233 O   0  0  0  0  0  0  0  0  0  0  0  0
   34.2236   30.0314   38.8600 O   0  0  0  0  0  0  0  0  0  0  0  0
   34.5712   27.5968   32.7255 O   0  0  0  0  0  0  0  0  0  0  0  0
   33.8079   28.4750   41.0727 P   0  0  0  0  0  4  0  0  0  0  0  0
   28.0788   27.3487   31.9119 N   0  0  0  0  0  0  0  0  0  0  0  0
   31.5370   28.8774   38.7739 O   0  0  0  0  0  0  0  0  0  0  0  0
   34.3158   27.0818   36.5014 C   0  0  0  0  0  0  0  0  0  0  0  0
   30.1080   27.4011   32.9655 C   0  0  0  0  0  0  0  0  0  0  0  0
   33.7533   28.2199   39.3718 O   0  0  0  0  0  0  0  0  0  0  0  0
  3  1  1  0
  4  2  2  0
  6  5  2  0
 10  3  1  0
 10  7  1  0
 11  5  1  0
 11 10  1  0
 13  6  1  0
 13  9  1  0
 14  1  1  0
 16 12  1  0
 17 12  1  0
 18  3  1  0
 19  8  1  0
 19 15  1  0
 20  2  1  0
 20 13  1  0
 21 19  1  0
 22  1  1  0
 22 16  1  0
 23  4  1  0
 23  5  1  0
 23 11  1  0
 23 13  1  0
 24 12  1  0
 24 19  1  0
M  RAD  2  15   2  19   2
M  END
>  <ID>  (1) 
conformer_0

$$$$
