
     RDKit          3D

 25 26  0  0  0  0  0  0  0  0999 V2000
   33.1724   26.9242   33.5878 C   0  0  1  0  0  0  0  0  0  0  0  0
   28.2920   27.7902   33.5804 C   0  0  0  0  0  0  0  0  0  0  0  0
   33.8958   27.7844   33.8400 C   0  0  0  0  0  0  0  0  0  0  0  0
   29.8242   27.3315   33.1699 C   0  0  0  0  0  0  0  0  0  0  0  0
   27.8276   27.4341   32.1606 N   0  0  0  0  0  0  0  0  0  0  0  0
   33.9445   28.6505   41.4924 P   0  0  1  0  0  4  0  0  0  0  0  0
   27.1089   28.3113   34.1529 N   0  0  0  0  0  0  0  0  0  0  0  0
   29.7725   28.0377   35.0843 N   0  0  0  0  0  0  0  0  0  0  0  0
   34.0328   28.0025   38.2458 O   0  0  0  0  0  0  0  0  0  0  0  0
   34.5134   27.4185   36.3501 C   0  0  1  0  0  0  0  0  0  0  0  0
   28.9818   26.7337   31.4710 C   0  0  0  0  0  0  0  0  0  0  0  0
   33.4582   26.8026   35.5712 O   0  0  0  0  0  0  0  0  0  0  0  0
   35.0647   28.4966   41.1853 O   0  0  0  0  0  1  0  0  0  0  0  0
   33.3427   27.7266   42.4272 O   0  0  0  0  0  0  0  0  0  0  0  0
   31.4805   27.4519   34.0296 N   0  0  0  0  0  0  0  0  0  0  0  0
   33.1483   28.5269   38.5888 P   0  0  2  0  0  4  0  0  0  0  0  0
   32.8382   29.5577   38.0018 O   0  0  0  0  0  0  0  0  0  0  0  0
   34.1901   27.0348   32.2060 O   0  0  0  0  0  0  0  0  0  0  0  0
   35.1807   29.1764   34.1523 O   0  0  0  0  0  0  0  0  0  0  0  0
   30.0197   26.6784   31.9230 N   0  0  0  0  0  0  0  0  0  0  0  0
   31.8873   28.1157   38.6541 O   0  0  0  0  0  1  0  0  0  0  0  0
   34.1420   30.3907   39.8061 O   0  0  0  0  0  0  0  0  0  0  0  0
   30.6938   27.7060   34.4835 C   0  0  0  0  0  0  0  0  0  0  0  0
   34.4556   28.2508   35.0201 C   0  0  2  0  0  0  0  0  0  0  0  0
   33.1198   28.8822   40.7035 N   0  0  0  0  0  0  0  0  0  0  0  0
  3  1  1  0
  4  2  2  0
  5  2  1  0
  7  2  1  0
 10  9  1  1
 11  5  1  0
 12 10  1  0
  6 13  1  6
 14  6  1  0
 15  1  1  0
 16  6  1  0
 16  9  1  0
 16 17  1  6
  1 18  1  6
 20  4  1  0
 20 11  2  0
 21 16  1  0
 23  4  1  0
 23  8  2  3
 23 15  1  0
 24  3  1  0
 24 10  1  0
 24 12  1  0
 24 19  1  1
 25  6  1  0
 25 22  1  0
M  RAD  4   6   2  13   2  16   2  21   2
M  END
>  <ID>  (1) 
conformer_0

$$$$
