
     RDKit          3D

 22 23  0  0  0  0  0  0  0  0999 V2000
   30.5726   27.8404   35.1376 C   0  0  0  0  0  0  0  0  0  0  0  0
   32.9968   27.0025   33.2791 C   0  0  0  0  0  0  0  0  0  0  0  0
   34.0514   27.5480   33.6312 C   0  0  1  0  0  0  0  0  0  0  0  0
   28.4797   27.7600   33.7370 C   0  0  0  0  0  0  0  0  0  0  0  0
   28.0948   27.3376   32.0825 N   0  0  0  0  0  0  0  0  0  0  0  0
   29.5826   28.1211   35.2887 N   0  0  0  0  0  0  0  0  0  0  0  0
   33.9087   28.8094   41.2029 P   0  0  1  0  0  4  0  0  0  0  0  0
   33.5240   26.3788   35.1734 O   0  0  0  0  0  0  0  0  0  0  0  0
   34.7370   27.9171   34.8788 C   0  0  0  0  0  0  0  0  0  0  0  0
   29.9288   27.4229   33.5339 C   0  0  0  0  0  0  0  0  0  0  0  0
   33.2649   29.7354   38.2906 O   0  0  0  0  0  0  0  0  0  0  0  0
   33.9730   27.7568   41.8636 O   0  0  0  0  0  0  0  0  0  0  0  0
   31.3880   27.2480   33.7886 N   0  0  0  0  0  0  0  0  0  0  0  0
   33.8965   27.5035   37.9215 O   0  0  0  0  0  0  0  0  0  0  0  0
   34.5303   27.0027   32.1282 O   0  0  0  0  0  0  0  0  0  0  0  0
   34.3734   29.8310   41.1219 O   0  0  0  0  0  1  0  0  0  0  0  0
   33.3358   28.3195   38.5839 P   0  0  0  0  0  0  0  0  0  0  0  0
   31.8967   27.9332   38.9805 O   0  0  0  0  0  0  0  0  0  0  0  0
   26.8049   28.2490   33.6426 N   0  0  0  0  0  0  0  0  0  0  0  0
   30.1595   26.9635   31.7870 N   0  0  0  0  0  0  0  0  0  0  0  0
   29.1646   26.8514   31.6349 C   0  0  0  0  0  0  0  0  0  0  0  0
   34.6100   27.2395   36.3153 C   0  0  1  0  0  0  0  0  0  0  0  0
  3  2  1  0
  5  4  2  0
  6  1  2  3
  9  3  1  0
 10  1  1  0
 10  4  1  0
  7 12  1  6
 13  1  1  0
 13  2  1  0
 13 10  1  0
  3 15  1  1
 16  7  1  0
 17 11  1  0
 17 14  1  0
 18  7  1  0
 18 17  1  0
 19  4  1  0
 20 10  1  0
 21  5  1  0
 21 20  2  0
 22  8  1  6
 22  9  1  0
 22 14  1  0
M  RAD  2   7   2  16   2
M  END
>  <ID>  (1) 
conformer_0

$$$$
