
     RDKit          3D

 25 26  0  0  0  0  0  0  0  0999 V2000
   29.1043   26.8369   31.4577 C   0  0  0  0  0  0  0  0  0  0  0  0
   34.0529   28.0675   33.5878 C   0  0  0  0  0  0  0  0  0  0  0  0
   35.1183   28.2638   35.4016 C   0  0  0  0  0  0  0  0  0  0  0  0
   30.3211   26.9204   31.8815 N   0  0  0  0  0  0  0  0  0  0  0  0
   29.7416   27.8062   34.1284 C   0  0  0  0  0  0  0  0  0  0  0  0
   30.0083   28.2072   35.3008 N   0  0  0  0  0  0  0  0  0  0  0  0
   32.7390   28.6230   38.4768 P   0  0  0  0  0  5  0  0  0  0  0  0
   33.5269   26.4357   35.0312 O   0  0  0  0  0  0  0  0  0  0  0  0
   32.9237   26.9476   33.2589 C   0  0  0  0  0  0  0  0  0  0  0  0
   33.4787   27.5542   41.6418 O   0  0  0  0  0  0  0  0  0  0  0  0
   31.6456   28.1820   39.2059 O   0  0  0  0  0  0  0  0  0  0  0  0
   31.6757   27.3113   33.9658 N   0  0  0  0  0  0  0  0  0  0  0  0
   30.7126   27.2311   33.2092 C   0  0  0  0  0  0  0  0  0  0  0  0
   35.9996   28.4107   34.3152 O   0  0  0  0  0  0  0  0  0  0  0  0
   28.3225   27.5201   32.3551 N   0  0  0  0  0  0  0  0  0  0  0  0
   31.1157   27.9894   35.4947 C   0  0  0  0  0  0  0  0  0  0  0  0
   34.6956   27.6735   32.4291 O   0  0  0  0  0  0  0  0  0  0  0  0
   33.6774   29.9284   39.4445 O   0  0  0  0  0  0  0  0  0  0  0  0
   33.5033   27.6844   37.5654 O   0  0  0  0  0  0  0  0  0  0  0  0
   33.5081   28.4617   41.0087 P   0  0  0  0  0  0  0  0  0  0  0  0
   32.3018   29.5508   37.7390 O   0  0  0  0  0  0  0  0  0  0  0  0
   34.2631   28.4695   40.5158 O   0  0  0  0  0  0  0  0  0  0  0  0
   34.1756   27.3558   34.9893 C   0  0  0  0  0  0  0  0  0  0  0  0
   34.8082   27.4188   36.9312 C   0  0  0  0  0  0  0  0  0  0  0  0
   28.4885   27.7464   33.3213 C   0  0  0  0  0  0  0  0  0  0  0  0
  4  1  2  0
  6  5  1  0
  9  2  1  0
 12  9  1  0
 13  4  1  0
 13  5  2  0
 13 12  1  0
 14  3  1  0
 15  1  1  0
 16  6  2  0
 16 12  1  0
 17  2  1  0
 18  7  1  0
 19  7  1  0
 20  7  1  0
 20 10  1  0
 21  7  1  0
 21 11  1  0
 22 20  1  0
 23  2  1  0
 23  3  1  0
 23  8  2  0
 24  3  1  0
 24 19  1  0
 25  5  1  0
 25 15  2  0
M  END
>  <ID>  (1) 
conformer_0

$$$$
