
     RDKit          3D

 22 23  0  0  0  0  0  0  0  0999 V2000
   34.2493   27.7327   34.5179 C   0  0  2  0  0  0  0  0  0  0  0  0
   29.0361   26.9861   31.7154 C   0  0  0  0  0  0  0  0  0  0  0  0
   34.3418   27.3436   35.8798 C   0  0  2  0  0  0  0  0  0  0  0  0
   27.8605   27.4821   32.2083 N   0  0  0  0  0  0  0  0  0  0  0  0
   30.0635   27.5510   33.3658 C   0  0  0  0  0  0  0  0  0  0  0  0
   33.9496   28.5640   41.1231 P   0  0  2  0  0  4  0  0  0  0  0  0
   29.5633   28.0966   35.1662 N   0  0  0  0  0  0  0  0  0  0  0  0
   33.2765   26.2181   35.0323 O   0  0  0  0  0  0  0  0  0  0  0  0
   26.8032   28.2873   34.0478 N   0  0  0  0  0  0  0  0  0  0  0  0
   31.4061   27.4218   34.0858 N   0  0  0  0  0  0  0  0  0  0  0  0
   35.3122   28.7224   41.0711 O   0  0  0  0  0  1  0  0  0  0  0  0
   33.2937   27.1830   33.6438 C   0  0  1  0  0  0  0  0  0  0  0  0
   33.7536   27.9309   42.3003 O   0  0  0  0  0  0  0  0  0  0  0  0
   28.3612   27.8338   33.6892 C   0  0  0  0  0  0  0  0  0  0  0  0
   32.7989   28.6593   38.4608 P   0  0  0  0  0  5  0  0  0  0  0  0
   31.7980   28.9881   38.7074 O   0  0  0  0  0  0  0  0  0  0  0  0
   34.3004   27.2161   32.2726 O   0  0  0  0  0  0  0  0  0  0  0  0
   34.0319   29.5081   38.8557 O   0  0  0  0  0  0  0  0  0  0  0  0
   35.4102   28.7482   34.2506 O   0  0  0  0  0  0  0  0  0  0  0  0
   30.0947   27.0808   31.8743 N   0  0  0  0  0  0  0  0  0  0  0  0
   30.7077   27.8319   34.8759 C   0  0  0  0  0  0  0  0  0  0  0  0
   32.7899   28.0986   37.1939 O   0  0  0  0  0  0  0  0  0  0  0  0
  3  1  1  0
  4  2  2  0
  8  3  1  0
 10  5  1  0
  6 11  1  6
 12  1  1  0
 12  8  1  0
 12 10  1  0
 13  6  1  0
 14  4  1  0
 14  5  2  0
 14  9  1  0
  3 15  1  1
 15  6  1  0
 16 15  1  0
 12 17  1  6
 18 15  1  0
  1 19  1  6
 20  2  1  0
 20  5  1  0
 21  7  2  3
 21 10  1  0
 22 16  1  0
M  RAD  2   6   2  11   2
M  END
>  <ID>  (1) 
conformer_0

$$$$
