
     RDKit          3D

 23 24  0  0  0  0  0  0  0  0999 V2000
   34.7045   27.8589   35.3890 C   0  0  0  0  0  0  0  0  0  0  0  0
   30.6242   27.6965   34.4742 C   0  0  0  0  0  0  0  0  0  0  0  0
   33.9721   27.7436   34.0636 C   0  0  0  0  0  0  0  0  0  0  0  0
   29.3129   26.7990   31.4979 C   0  0  0  0  0  0  0  0  0  0  0  0
   28.1368   27.2881   31.9573 N   0  0  0  0  0  0  0  0  0  0  0  0
   31.6650   27.1306   33.6997 N   0  0  0  0  0  0  0  0  0  0  0  0
   27.0605   28.1195   33.7711 N   0  0  0  0  0  0  0  0  0  0  0  0
   29.8980   28.0625   34.9967 N   0  0  0  0  0  0  0  0  0  0  0  0
   33.5815   26.2384   35.0637 O   0  0  0  0  0  0  0  0  0  0  0  0
   33.7771   28.4763   41.2843 P   0  0  2  0  0  4  0  0  0  0  0  0
   33.5027   27.6839   42.5222 O   0  0  0  0  0  0  0  0  0  0  0  0
   28.4693   27.6960   33.5057 C   0  0  0  0  0  3  0  0  0  0  0  0
   33.0784   26.9557   33.4461 C   0  0  2  0  0  0  0  0  0  0  0  0
   33.5196   27.8336   39.1829 O   0  0  0  0  0  0  0  0  0  0  0  0
   35.0962   28.8016   33.8159 O   0  0  0  0  0  0  0  0  0  0  0  0
   34.9633   28.3837   41.2657 O   0  0  0  0  0  1  0  0  0  0  0  0
   30.3967   26.8308   31.7412 N   0  0  0  0  0  0  0  0  0  0  0  0
   32.9956   29.4569   40.9611 N   0  0  0  0  0  0  0  0  0  0  0  0
   33.0173   28.7495   38.5342 P   0  0  0  0  0  0  0  0  0  0  0  0
   32.7749   29.6659   38.9251 O   0  0  0  0  0  0  0  0  0  0  0  0
   30.2325   27.2418   33.1284 C   0  0  1  0  0  0  0  0  0  0  0  0
   34.4800   27.2633   36.5137 C   0  0  0  0  0  0  0  0  0  0  0  0
   32.9953   28.7075   37.2635 O   0  0  0  0  0  0  0  0  0  0  0  0
  3  1  2  3
  5  4  2  0
  6  2  1  0
  8  2  2  3
 11 10  1  0
 12  5  1  0
 12  7  1  0
 13  3  1  0
 13  6  1  0
 13  9  1  1
 14 10  1  0
 15  3  1  0
 16 10  1  0
 17  4  1  0
 10 18  1  1
 19 14  1  0
 20 19  1  0
 21  2  1  0
 21  6  1  0
 21 12  1  0
 21 17  1  6
 22  1  1  0
 23 19  1  0
 23 22  1  0
M  RAD  3  10   2  12   2  16   2
M  END
>  <ID>  (1) 
conformer_0

$$$$
