
     RDKit          3D

 24 25  0  0  0  0  0  0  0  0999 V2000
   29.9926   27.3967   33.1094 C   0  0  0  0  0  0  0  0  0  0  0  0
   34.8196   28.1596   35.2703 C   0  0  0  0  0  0  0  0  0  0  0  0
   34.1216   27.7750   34.1109 C   0  0  0  0  0  0  0  0  0  0  0  0
   29.3957   26.7448   31.3814 C   0  0  0  0  0  0  0  0  0  0  0  0
   28.2156   27.2095   31.7892 N   0  0  0  0  0  0  0  0  0  0  0  0
   29.8784   28.1922   34.7930 N   0  0  0  0  0  0  0  0  0  0  0  0
   26.9682   28.0846   33.5789 N   0  0  0  0  0  0  0  0  0  0  0  0
   33.8945   28.6602   41.4882 P   0  0  2  0  0  4  0  0  0  0  0  0
   33.4526   26.3704   35.1154 O   0  0  0  0  0  0  0  0  0  0  0  0
   28.4884   27.7114   33.3712 C   0  0  0  0  0  0  0  0  0  0  0  0
   33.1942   27.0132   33.4841 C   0  0  1  0  0  0  0  0  0  0  0  0
   33.6980   27.4992   37.8977 O   0  0  0  0  0  0  0  0  0  0  0  0
   31.7526   27.3185   33.8020 N   0  0  0  0  0  0  0  0  0  0  0  0
   33.9458   29.5755   38.7844 O   0  0  0  0  0  0  0  0  0  0  0  0
   34.6347   27.0750   32.5531 O   0  0  0  0  0  0  0  0  0  0  0  0
   33.6302   27.8287   42.5553 O   0  0  0  0  0  0  0  0  0  0  0  0
   35.5005   29.2168   34.8374 O   0  0  0  0  0  0  0  0  0  0  0  0
   34.9971   28.9705   41.3311 O   0  0  0  0  0  1  0  0  0  0  0  0
   33.2924   28.2449   38.7266 P   0  0  0  0  0  0  0  0  0  0  0  0
   31.8049   28.3305   38.6687 O   0  0  0  0  0  0  0  0  0  0  0  0
   30.5575   26.8878   31.8076 N   0  0  0  0  0  0  0  0  0  0  0  0
   30.7208   27.7673   34.5099 C   0  0  0  0  0  0  0  0  0  0  0  0
   33.0279   28.4127   40.4215 N   0  0  0  0  0  0  0  0  0  0  0  0
   34.4675   27.2527   36.3305 C   0  0  2  0  0  0  0  0  0  0  0  0
  3  2  2  0
  5  4  2  0
 10  1  2  0
 10  5  1  0
 10  7  1  0
 11  3  1  0
 11  9  1  0
 13 11  1  0
 11 15  1  6
 16  8  1  0
 17  2  1  0
 18  8  1  0
 19 12  1  0
 19 14  1  0
 20  8  1  0
 20 19  1  0
 21  1  1  0
 21  4  1  0
 22  1  1  0
 22  6  2  3
 22 13  1  0
  8 23  1  1
 24  2  1  0
 24  9  1  0
 24 12  1  1
M  RAD  2   8   2  18   2
M  END
>  <ID>  (1) 
conformer_0

$$$$
