
     RDKit          3D

 26 26  0  0  0  0  0  0  0  0999 V2000
   34.6269   28.0514   34.9184 C   0  0  2  0  0  0  0  0  0  0  0  0
   28.8553   26.9564   31.6546 C   0  0  0  0  0  0  0  0  0  0  0  0
   33.9234   27.5843   33.7339 C   0  0  0  0  0  0  0  0  0  0  0  0
   29.7543   27.5949   33.5566 C   0  0  0  0  0  0  0  0  0  0  0  0
   30.1773   27.0862   31.9876 N   0  0  0  0  0  0  0  0  0  0  0  0
   33.9069   28.5556   40.9343 P   0  0  0  0  0  5  0  0  0  0  0  0
   29.6914   28.1549   35.2611 N   0  0  0  0  0  0  0  0  0  0  0  0
   33.4323   26.3940   34.9353 O   0  0  0  0  0  0  0  0  0  0  0  0
   32.8976   27.0143   33.3547 C   0  0  1  0  0  0  0  0  0  0  0  0
   28.2759   27.8741   33.7122 C   0  0  0  0  0  0  0  0  0  0  0  0
   31.3616   27.4604   34.0847 N   0  0  0  0  0  0  0  0  0  0  0  0
   26.8410   28.3591   34.0866 N   0  0  0  0  0  0  0  0  0  0  0  0
   31.3642   28.2844   38.5241 O   0  0  0  0  0  0  0  0  0  0  0  0
   33.3903   27.6030   42.0574 O   0  0  0  0  0  0  0  0  0  0  0  0
   33.7760   26.9398   31.7891 O   0  0  0  0  0  0  0  0  0  0  0  0
   33.1185   27.8823   39.7416 O   0  0  0  0  0  0  0  0  0  0  0  0
   32.6477   28.2372   38.3945 P   0  0  0  0  0  0  0  0  0  0  0  0
   34.6649   29.8327   40.0351 O   0  0  0  0  0  0  0  0  0  0  0  0
   27.9712   27.5052   32.2387 N   0  0  0  0  0  0  0  0  0  0  0  0
   35.9999   28.2169   35.7696 O   0  0  0  0  0  0  0  0  0  0  0  0
   30.7135   27.9007   34.9543 C   0  0  0  0  0  0  0  0  0  0  0  0
   33.1690   29.5720   38.2040 O   0  0  0  0  0  0  0  0  0  0  0  0
   33.2681   27.5312   37.2367 O   0  0  0  0  0  0  0  0  0  0  0  0
   35.2979   28.0662   32.9497 O   0  0  0  0  0  0  0  0  0  0  0  0
   34.6054   27.4106   36.0588 C   0  0  0  0  0  0  0  0  0  0  0  0
   34.8142   28.4630   41.2684 O   0  0  0  0  0  0  0  0  0  0  0  0
  3  1  1  0
  5  2  2  0
  5  4  1  0
  8  3  1  0
  9  3  1  0
 10  4  2  0
 11  9  1  0
 12 10  1  0
 13  6  1  0
 14  6  1  0
  9 15  1  6
 16  6  1  0
 17 13  1  0
 18  6  1  0
 19  2  1  0
 19 10  1  0
  1 20  1  6
 21  4  1  0
 21  7  2  3
 21 11  1  0
 22 17  1  0
 23 17  1  0
 24  3  1  0
 25  1  1  0
 25 23  1  0
 26  6  1  0
M  END
>  <ID>  (1) 
conformer_0

$$$$
