
     RDKit          3D

 24 26  0  0  0  0  0  0  0  0999 V2000
   32.9878   27.0041   33.3341 C   0  0  0  0  0  0  0  0  0  0  0  0
   29.3295   26.6229   30.9193 C   0  0  0  0  0  0  0  0  0  0  0  0
   33.8279   27.7381   33.8553 C   0  0  0  0  0  0  0  0  0  0  0  0
   30.4223   27.7293   34.5382 C   0  0  0  0  0  0  0  0  0  0  0  0
   30.5474   26.8072   31.2301 N   0  0  0  0  0  0  0  0  0  0  0  0
   33.3458   26.3113   35.0172 O   0  0  0  0  0  0  0  0  0  0  0  0
   29.4053   27.9226   34.6447 N   0  0  0  0  0  0  0  0  0  0  0  0
   32.7988   28.5077   38.5093 P   0  0  0  0  0  0  0  0  0  0  0  0
   28.5903   27.5223   32.9939 C   0  0  0  0  0  0  0  0  0  0  0  0
   34.5245   27.9452   35.0843 C   0  0  0  0  0  0  0  0  0  0  0  0
   33.4195   27.3494   41.8872 O   0  0  0  0  0  0  0  0  0  0  0  0
   31.2699   28.3969   38.7985 O   0  0  0  0  0  1  0  0  0  0  0  0
   31.3090   27.2622   33.5627 N   0  0  0  0  0  0  0  0  0  0  0  0
   33.0622   29.9476   38.2093 O   0  0  0  0  0  0  0  0  0  0  0  0
   28.2847   27.1497   31.6789 N   0  0  0  0  0  0  0  0  0  0  0  0
   34.7057   28.9336   41.4509 O   0  0  0  0  0  0  0  0  0  0  0  0
   34.3012   27.3453   32.2670 O   0  0  0  0  0  0  0  0  0  0  0  0
   33.4275   28.5652   41.3901 P   0  0  0  0  0  4  0  0  0  0  0  0
   35.0198   29.2108   34.2628 O   0  0  0  0  0  0  0  0  0  0  0  0
   33.2689   27.7385   37.2388 O   0  0  0  0  0  0  0  0  0  0  0  0
   30.2236   27.2604   32.7203 C   0  0  0  0  0  0  0  0  0  0  0  0
   26.7164   28.0236   33.3798 N   0  0  0  0  0  0  0  0  0  0  0  0
   34.4271   27.3458   36.3405 C   0  0  0  0  0  0  0  0  0  0  0  0
   33.4711   28.2780   39.5051 O   0  0  0  0  0  0  0  0  0  0  0  0
  3  1  1  0
  5  2  2  0
  6  1  1  0
  7  4  2  0
  9  7  1  0
 10  3  1  0
 13  1  1  0
 13  4  1  0
 14  8  1  0
 15  2  1  0
 15  9  1  0
 17  3  1  0
 18 11  1  0
 18 12  1  0
 18 16  1  0
 19 10  1  0
 20  8  1  0
 21  4  1  0
 21  5  1  0
 21  9  1  0
 21 13  1  0
 22  9  1  0
 23 10  1  0
 23 20  1  0
 24  8  1  0
 24 18  1  0
M  RAD  2  12   2  18   2
M  END
>  <ID>  (1) 
conformer_0

$$$$
