
     RDKit          3D

 25 26  0  0  0  0  0  0  0  0999 V2000
   29.2463   27.1245   31.4429 C   0  0  0  0  0  0  0  0  0  0  0  0
   34.4832   27.1984   36.2534 C   0  0  0  0  0  0  0  0  0  0  0  0
   34.7341   27.8628   35.2432 C   0  0  1  0  0  0  0  0  0  0  0  0
   29.8982   27.4917   33.2038 C   0  0  0  0  0  0  0  0  0  0  0  0
   28.1573   27.5929   32.0830 N   0  0  0  0  0  0  0  0  0  0  0  0
   32.9355   28.4125   38.3285 P   0  0  0  0  0  0  0  0  0  0  0  0
   31.4261   27.1242   33.9547 N   0  0  0  0  0  0  0  0  0  0  0  0
   33.1366   26.1449   34.9743 O   0  0  0  0  0  0  0  0  0  0  0  0
   33.4062   26.9479   41.4254 O   0  0  0  0  0  0  0  0  0  0  0  0
   35.1443   28.5638   41.5042 O   0  0  0  0  0  1  0  0  0  0  0  0
   32.8729   26.7057   33.5904 C   0  0  2  0  0  0  0  0  0  0  0  0
   29.7031   27.8493   35.0222 N   0  0  0  0  0  0  0  0  0  0  0  0
   34.1298   26.8843   32.4056 O   0  0  0  0  0  0  0  0  0  0  0  0
   33.4200   27.5364   37.1163 O   0  0  0  0  0  0  0  0  0  0  0  0
   28.2488   27.8522   33.4536 C   0  0  0  0  0  0  0  0  0  0  0  0
   33.7835   28.5489   41.2258 P   0  0  0  0  0  4  0  0  0  0  0  0
   26.8658   28.2927   33.8190 N   0  0  0  0  0  0  0  0  0  0  0  0
   35.8852   27.9372   34.8747 O   0  0  0  0  0  0  0  0  0  0  0  0
   30.5536   27.1843   31.8737 N   0  0  0  0  0  0  0  0  0  0  0  0
   31.7038   28.9615   39.3203 O   0  0  0  0  0  0  0  0  0  0  0  0
   34.0961   28.3158   39.2205 O   0  0  0  0  0  0  0  0  0  0  0  0
   33.1294   28.9076   41.9819 O   0  0  0  0  0  0  0  0  0  0  0  0
   30.5507   27.5939   34.6030 C   0  0  0  0  0  0  0  0  0  0  0  0
   33.9911   27.4691   34.0218 C   0  0  1  0  0  0  0  0  0  0  0  0
   32.2862   29.3938   37.2974 O   0  0  0  0  0  0  0  0  0  0  0  0
  3  2  1  0
  5  1  2  0
 11  7  1  1
 11  8  1  0
 14  2  1  0
 14  6  1  0
 15  4  2  0
 15  5  1  0
 16  9  1  0
 16 10  1  0
 17 15  1  0
  3 18  1  6
 19  1  1  0
 19  4  1  0
 21  6  1  0
 21 16  1  0
 22 16  1  0
 23  4  1  0
 23  7  1  0
 23 12  2  3
 24  3  1  0
 24  8  1  0
 24 11  1  0
 24 13  1  6
 25  6  1  0
 25 20  1  0
M  RAD  2  10   2  16   2
M  END
>  <ID>  (1) 
conformer_0

$$$$
