
     RDKit          3D

 24 25  0  0  0  0  0  0  0  0999 V2000
   34.0318   27.8795   33.9843 C   0  0  0  0  0  0  0  0  0  0  0  0
   29.0633   27.0043   31.3680 C   0  0  0  0  0  0  0  0  0  0  0  0
   33.0221   27.0008   33.4755 C   0  0  0  0  0  0  0  0  0  0  0  0
   29.9301   27.4634   33.1344 C   0  0  0  0  0  3  0  0  0  0  0  0
   28.0405   27.4599   31.9599 N   0  0  0  0  0  0  0  0  0  0  0  0
   26.7484   28.2551   33.6164 N   0  0  0  0  0  0  0  0  0  0  0  0
   34.5951   27.7715   35.1073 C   0  0  0  0  0  0  0  0  0  0  0  0
   33.7302   28.5653   41.4377 P   0  0  0  0  0  4  0  0  0  0  0  0
   29.5308   27.9266   34.8321 N   0  0  0  0  0  0  0  0  0  0  0  0
   33.2737   26.2020   34.9329 O   0  0  0  0  0  0  0  0  0  0  0  0
   33.5026   29.9506   38.5996 O   0  0  0  0  0  0  0  0  0  0  0  0
   31.4123   27.2577   33.8785 N   0  0  0  0  0  0  0  0  0  0  0  0
   31.5237   28.5106   38.5172 O   0  0  0  0  0  1  0  0  0  0  0  0
   28.2313   27.8111   33.4527 C   0  0  0  0  0  0  0  0  0  0  0  0
   33.6210   27.8388   42.4437 O   0  0  0  0  0  0  0  0  0  0  0  0
   34.1837   27.2315   32.1661 O   0  0  0  0  0  0  0  0  0  0  0  0
   35.0276   28.5429   40.9972 O   0  0  0  0  0  0  0  0  0  0  0  0
   33.0058   28.4922   38.5518 P   0  0  0  0  0  0  0  0  0  0  0  0
   35.7221   28.3513   34.3411 O   0  0  0  0  0  0  0  0  0  0  0  0
   30.3224   27.2146   31.7447 N   0  0  0  0  0  0  0  0  0  0  0  0
   34.4226   27.1233   36.4316 C   0  0  0  0  0  0  0  0  0  0  0  0
   33.3232   27.8026   37.1012 O   0  0  0  0  0  0  0  0  0  0  0  0
   30.5500   27.6545   34.6258 C   0  0  0  0  0  0  0  0  0  0  0  0
   33.5574   27.8326   39.3687 O   0  0  0  0  0  0  0  0  0  0  0  0
  3  1  1  0
  5  2  2  0
  7  1  1  0
 10  3  1  0
 12  3  1  0
 13  8  1  0
 14  4  1  0
 14  5  1  0
 14  6  1  0
 14  9  1  0
 15  8  1  0
 16  3  1  0
 17  8  1  0
 18 11  1  0
 19  7  1  0
 20  2  1  0
 20  4  1  0
 21  7  1  0
 22 18  1  0
 22 21  1  0
 23  4  1  0
 23  9  2  0
 23 12  1  0
 24  8  1  0
 24 18  1  0
M  RAD  3   4   2   8   2  13   2
M  END
>  <ID>  (1) 
conformer_0

$$$$
