
     RDKit          3D

 25 26  0  0  0  0  0  0  0  0999 V2000
   29.3361   27.7121   33.6658 C   0  0  0  0  0  0  0  0  0  0  0  0
   33.9708   27.8792   33.8316 C   0  0  0  0  0  0  0  0  0  0  0  0
   33.0567   26.8932   33.7567 C   0  0  0  0  0  0  0  0  0  0  0  0
   29.3471   26.9698   31.1569 C   0  0  0  0  0  0  0  0  0  0  0  0
   28.2037   27.3927   31.7772 N   0  0  0  0  0  0  0  0  0  0  0  0
   27.0157   28.2546   33.6462 N   0  0  0  0  0  0  0  0  0  0  0  0
   29.5944   27.9093   35.0628 N   0  0  0  0  0  0  0  0  0  0  0  0
   33.3721   26.1055   34.9678 O   0  0  0  0  0  0  0  0  0  0  0  0
   33.9791   28.6430   40.6552 P   0  0  0  0  0  4  0  0  0  0  0  0
   31.5807   27.2107   33.9630 N   0  0  0  0  0  0  0  0  0  0  0  0
   28.2663   27.8101   33.2157 C   0  0  0  0  0  0  0  0  0  0  0  0
   34.5855   27.7967   35.0989 C   0  0  0  0  0  0  0  0  0  0  0  0
   32.3119   27.4526   39.3755 O   0  0  0  0  0  0  0  0  0  0  0  0
   34.2361   29.3127   42.0714 C   0  0  0  0  0  0  0  0  0  0  0  0
   34.7140   27.6111   32.5719 O   0  0  0  0  0  0  0  0  0  0  0  0
   33.0928   29.6019   38.8448 O   0  0  0  0  0  0  0  0  0  0  0  0
   34.6525   28.4862   39.9668 O   0  0  0  0  0  1  0  0  0  0  0  0
   33.9166   27.7898   42.4983 O   0  0  0  0  0  0  0  0  0  0  0  0
   30.4868   27.2384   31.8368 N   0  0  0  0  0  0  0  0  0  0  0  0
   35.5193   28.8550   34.4882 O   0  0  0  0  0  0  0  0  0  0  0  0
   30.8664   27.6361   35.2397 C   0  0  0  0  0  0  0  0  0  0  0  0
   33.4511   27.6738   37.5492 O   0  0  0  0  0  0  0  0  0  0  0  0
   32.9032   28.1503   38.4573 P   0  0  0  0  0  0  0  0  0  0  0  0
   34.4148   27.1966   36.2477 C   0  0  0  0  0  0  0  0  0  0  0  0
   30.6409   27.3385   33.1036 C   0  0  0  0  0  0  0  0  0  0  0  0
  3  2  1  0
  5  4  2  0
  7  1  1  0
  8  3  1  0
 10  3  1  0
 11  1  2  0
 11  5  1  0
 11  6  1  0
 12  2  1  0
 13  9  1  0
 14  9  1  0
 15  2  1  0
 17  9  1  0
 18 14  1  0
 19  4  1  0
 20 12  1  0
 21  7  2  0
 21 10  1  0
 23 13  1  0
 23 16  1  0
 23 22  1  0
 24 12  1  0
 24 22  1  0
 25  1  1  0
 25 10  1  0
 25 19  2  0
M  RAD  2   9   2  17   2
M  END
>  <ID>  (1) 
conformer_0

$$$$
