
     RDKit          3D

 27 28  0  0  0  0  0  0  0  0999 V2000
   34.4304   27.3370   36.2336 C   0  0  0  0  0  0  0  0  0  0  0  0
   28.1152   27.6794   33.2471 C   0  0  0  0  0  0  0  0  0  0  0  0
   34.8480   27.8867   35.0911 C   0  0  0  0  0  0  0  0  0  0  0  0
   28.0541   27.3353   31.9234 N   0  0  0  0  0  0  0  0  0  0  0  0
   30.9224   27.6174   34.8273 C   0  0  0  0  0  0  0  0  0  0  0  0
   31.5386   27.2373   33.8528 N   0  0  0  0  0  0  0  0  0  0  0  0
   26.8853   28.1208   33.7820 N   0  0  0  0  0  0  0  0  0  0  0  0
   33.3484   26.1791   34.8901 O   0  0  0  0  0  0  0  0  0  0  0  0
   33.7515   28.5400   41.1547 P   0  0  0  0  0  4  0  0  0  0  0  0
   29.7594   27.9847   34.8838 N   0  0  0  0  0  0  0  0  0  0  0  0
   34.1106   27.8898   34.0092 C   0  0  0  0  0  0  0  0  0  0  0  0
   33.4720   27.9325   42.7059 O   0  0  0  0  0  0  0  0  0  0  0  0
   29.0069   26.7671   31.0122 C   0  0  0  0  0  0  0  0  0  0  0  0
   34.1729   26.9918   32.1310 O   0  0  0  0  0  0  0  0  0  0  0  0
   33.5630   29.9462   38.7395 O   0  0  0  0  0  0  0  0  0  0  0  0
   33.3189   27.8915   36.9486 O   0  0  0  0  0  0  0  0  0  0  0  0
   30.2736   26.9055   31.6473 N   0  0  0  0  0  0  0  0  0  0  0  0
   33.2178   27.6447   39.4338 O   0  0  0  0  0  0  0  0  0  0  0  0
   35.4652   29.4048   35.1559 O   0  0  0  0  0  0  0  0  0  0  0  0
   32.7956   28.4685   38.3803 P   0  0  0  0  0  4  0  0  0  0  0  0
   31.4549   28.4048   38.1737 O   0  0  0  0  0  1  0  0  0  0  0  0
   32.5332   29.4634   40.9175 N   0  0  0  0  0  0  0  0  0  0  0  0
   29.3095   27.6366   33.5978 C   0  0  0  0  0  0  0  0  0  0  0  0
   33.1385   27.0571   33.6284 C   0  0  0  0  0  0  0  0  0  0  0  0
   34.6034   28.2858   41.0953 O   0  0  0  0  0  1  0  0  0  0  0  0
   35.6467   28.0136   33.2906 O   0  0  0  0  0  0  0  0  0  0  0  0
   30.4046   27.0635   32.7715 C   0  0  0  0  0  0  0  0  0  0  0  0
  3  1  1  0
  4  2  2  0
  6  5  1  0
  7  2  1  0
 10  5  2  0
 11  3  1  0
 12  9  1  0
 13  4  1  0
 16  1  1  0
 17 13  2  0
 18  9  1  0
 19  3  1  0
 20 15  1  0
 20 16  1  0
 20 18  1  0
 21 20  1  0
 22  9  1  0
 23  2  1  0
 23 10  1  0
 24  6  1  0
 24  8  1  0
 24 11  1  0
 24 14  1  0
 25  9  1  0
 26 11  1  0
 27  6  1  0
 27 17  1  0
 27 23  2  0
M  RAD  4   9   2  20   2  21   2  25   2
M  END
>  <ID>  (1) 
conformer_0

$$$$
