
     RDKit          3D

 28 31  0  0  0  0  0  0  0  0999 V2000
   29.3675   26.9043   31.5286 C   0  0  0  0  0  0  0  0  0  0  0  0
   33.0175   26.9588   33.5569 C   0  0  0  0  0  0  0  0  0  0  0  0
   33.7342   27.8723   33.8340 C   0  0  0  0  0  0  0  0  0  0  0  0
   30.6136   27.8319   35.1421 C   0  0  0  0  0  0  0  0  0  0  0  0
   28.1024   27.2945   31.8942 N   0  0  0  0  0  0  0  0  0  0  0  0
   33.9781   28.3178   41.1671 P   0  0  0  0  0  5  0  0  0  0  0  0
   27.0162   28.0818   33.6830 N   0  0  0  0  0  0  0  0  0  0  0  0
   31.5451   27.3717   34.1133 N   0  0  0  0  0  0  0  0  0  0  0  0
   34.5953   28.2024   34.8202 C   0  0  0  0  0  0  0  0  0  0  0  0
   33.5723   26.3228   35.0191 O   0  0  0  0  0  0  0  0  0  0  0  0
   33.6545   27.2928   42.1842 O   0  0  0  0  0  0  0  0  0  0  0  0
   33.1290   29.5332   37.8016 O   0  0  0  0  0  0  0  0  0  0  0  0
   33.9840   26.7305   32.2173 O   0  0  0  0  0  0  0  0  0  0  0  0
   34.5616   29.4260   33.8136 O   0  0  0  0  0  0  0  0  0  0  0  0
   28.4806   27.6802   33.4102 C   0  0  0  0  0  0  0  0  0  0  0  0
   32.0733   27.7024   38.9687 O   0  0  0  0  0  1  0  0  0  0  0  0
   34.8267   28.1455   39.1253 O   0  0  0  0  0  0  0  0  0  0  0  0
   30.0864   28.1162   35.6903 N   0  0  0  0  0  0  0  0  0  0  0  0
   33.0351   28.4374   38.3766 P   0  0  0  0  0  4  0  0  0  0  0  0
   35.1783   28.6071   41.4605 O   0  0  0  0  0  0  0  0  0  0  0  0
   29.0914   27.8200   34.2008 C   0  0  0  0  0  0  0  0  0  0  0  0
   30.3108   27.0218   31.7878 N   0  0  0  0  0  2  0  0  0  0  0  0
   33.0221   28.0943   40.3937 N   0  0  0  0  0  0  0  0  0  0  0  0
   30.3473   27.4143   33.3497 C   0  0  0  0  0  0  0  0  0  0  0  0
   33.9260   30.0633   39.9337 O   0  0  0  0  0  0  0  0  0  0  0  0
   31.5606   28.9999   37.0263 O   0  0  0  0  0  0  0  0  0  0  0  0
   34.4307   27.1042   36.2118 C   0  0  0  0  0  0  0  0  0  0  0  0
   33.7155   27.4899   37.1547 O   0  0  0  0  0  0  0  0  0  0  0  0
  3  2  1  0
  5  1  2  0
  8  2  1  0
  8  4  1  0
  9  3  2  0
 10  2  1  0
 11  6  1  0
 13  2  1  0
 14  9  1  0
 15  5  1  0
 15  7  1  0
 17  6  1  0
 18  4  1  0
 19 12  1  0
 19 16  1  0
 19 17  1  0
 20  6  1  0
 21  4  1  0
 21 15  2  0
 22  1  1  0
 23  6  1  0
 24  4  1  0
 24  8  1  0
 24 21  1  0
 24 22  1  0
 25  6  1  0
 26 18  1  0
 27  9  1  0
 27 10  1  0
 28 19  1  0
 28 27  1  0
M  RAD  3  16   2  19   2  22   2
M  END
>  <ID>  (1) 
conformer_0

$$$$
