
     RDKit          3D

 26 27  0  0  0  0  0  0  0  0999 V2000
   33.7225   27.9531   34.0351 C   0  0  0  0  0  0  0  0  0  0  0  0
   29.1427   26.6682   31.0673 C   0  0  0  0  0  0  0  0  0  0  0  0
   34.8567   27.6660   34.8360 C   0  0  0  0  0  0  0  0  0  0  0  0
   28.0858   27.3324   31.9689 N   0  0  0  0  0  0  0  0  0  0  0  0
   29.4327   27.7081   33.6969 C   0  0  0  0  0  0  0  0  0  0  0  0
   29.5776   28.0350   35.0392 N   0  0  0  0  0  0  0  0  0  0  0  0
   26.9626   28.1770   33.8753 N   0  0  0  0  0  0  0  0  0  0  0  0
   33.3593   26.2914   34.8969 O   0  0  0  0  0  0  0  0  0  0  0  0
   33.8657   28.6318   40.8124 P   0  0  0  0  0  4  0  0  0  0  0  0
   31.4691   27.3638   33.8220 N   0  0  0  0  0  0  0  0  0  0  0  0
   35.2955   28.8321   41.2099 O   0  0  0  0  0  1  0  0  0  0  0  0
   28.1694   27.6490   33.2187 C   0  0  0  0  0  0  0  0  0  0  0  0
   33.1754   27.1278   33.3485 C   0  0  0  0  0  0  0  0  0  0  0  0
   33.5111   28.3531   39.8497 O   0  0  0  0  0  0  0  0  0  0  0  0
   30.2767   26.9224   31.7436 N   0  0  0  0  0  0  0  0  0  0  0  0
   33.5580   27.6926   42.0269 O   0  0  0  0  0  0  0  0  0  0  0  0
   34.5781   27.0291   32.2035 O   0  0  0  0  0  0  0  0  0  0  0  0
   31.8256   29.2120   38.1276 O   0  0  0  0  0  0  0  0  0  0  0  0
   32.3279   28.4176   38.5391 P   0  0  0  0  0  0  0  0  0  0  0  0
   36.1596   28.0699   34.5240 O   0  0  0  0  0  0  0  0  0  0  0  0
   30.8564   27.7172   35.0799 C   0  0  0  0  0  0  0  0  0  0  0  0
   33.0622   27.6844   37.1685 O   0  0  0  0  0  0  0  0  0  0  0  0
   34.5618   27.4417   36.0568 C   0  0  0  0  0  0  0  0  0  0  0  0
   34.5448   29.0854   33.2967 O   0  0  0  0  0  0  0  0  0  0  0  0
   31.7345   27.6705   39.0695 O   0  0  0  0  0  0  0  0  0  0  0  0
   30.5413   27.1491   32.7873 C   0  0  0  0  0  0  0  0  0  0  0  0
  3  1  1  0
  4  2  2  0
  6  5  1  0
 11  9  1  0
 12  4  1  0
 12  5  2  0
 12  7  1  0
 13  1  1  0
 13  8  1  0
 13 10  1  0
 14  9  1  0
 15  2  1  0
 16  9  1  0
 17 13  1  0
 19 18  1  0
 20  3  1  0
 21  6  2  0
 21 10  1  0
 22 19  1  0
 23  3  1  0
 23 22  1  0
 24  1  1  0
 25  9  1  0
 25 19  1  0
 26  5  1  0
 26 10  1  0
 26 15  2  0
M  RAD  2   9   2  11   2
M  END
>  <ID>  (1) 
conformer_0

$$$$
