
     RDKit          3D

 25 25  0  0  0  0  0  0  0  0999 V2000
   28.4248   27.7380   33.3615 C   0  0  0  0  0  0  0  0  0  0  0  0
   34.8396   28.0947   35.1756 C   0  0  2  0  0  0  0  0  0  0  0  0
   34.6627   27.1735   36.2551 C   0  0  0  0  0  0  0  0  0  0  0  0
   29.8842   27.4525   33.3623 C   0  0  0  0  0  0  0  0  0  0  0  0
   28.1334   27.2962   31.8603 N   0  0  0  0  0  0  0  0  0  0  0  0
   33.6851   28.4552   41.1917 P   0  0  0  0  0  4  0  0  0  0  0  0
   26.9355   28.1582   33.5376 N   0  0  0  0  0  0  0  0  0  0  0  0
   32.8946   29.6311   38.2705 O   0  0  0  0  0  0  0  0  0  0  0  0
   33.4176   26.1915   35.1360 O   0  0  0  0  0  0  0  0  0  0  0  0
   33.8140   27.6873   42.2855 O   0  0  0  0  0  0  0  0  0  0  0  0
   29.1651   26.8166   31.3627 C   0  0  0  0  0  0  0  0  0  0  0  0
   29.7428   28.0500   34.8880 N   0  0  0  0  0  0  0  0  0  0  0  0
   31.6699   27.3724   34.2497 N   0  0  0  0  0  0  0  0  0  0  0  0
   31.6001   27.9244   38.7101 O   0  0  0  0  0  0  0  0  0  0  0  0
   34.2059   27.8365   33.9860 C   0  0  0  0  0  0  0  0  0  0  0  0
   34.7405   27.1593   32.5086 O   0  0  0  0  0  0  0  0  0  0  0  0
   30.3408   27.0017   32.0148 N   0  0  0  0  0  0  0  0  0  0  0  0
   32.7517   28.4471   38.4879 P   0  0  0  0  0  0  0  0  0  0  0  0
   34.3997   28.1773   39.8432 O   0  0  0  0  0  1  0  0  0  0  0  0
   36.3979   27.2267   34.4799 O   0  0  0  0  0  0  0  0  0  0  0  0
   35.0335   29.2843   33.7906 O   0  0  0  0  0  0  0  0  0  0  0  0
   32.9520   29.1428   41.5655 O   0  0  0  0  0  0  0  0  0  0  0  0
   33.4140   27.5795   37.2398 O   0  0  0  0  0  0  0  0  0  0  0  0
   30.8514   27.7309   34.6934 C   0  0  0  0  0  0  0  0  0  0  0  0
   33.1918   26.9907   33.9184 C   0  0  1  0  0  0  0  0  0  0  0  0
  3  2  1  0
  4  1  2  0
  5  1  1  0
  7  1  1  0
 10  6  1  0
 11  5  1  0
 14  6  1  0
 15  2  1  0
 16 15  1  0
 17  4  1  0
 17 11  2  0
 18  8  1  0
 18 14  1  0
 19  6  1  0
  2 20  1  6
 21 15  1  0
 22  6  1  0
 23  3  1  0
 23 18  1  0
 24  4  1  0
 24 12  2  3
 24 13  1  0
 25  9  1  1
 25 13  1  0
 25 15  1  0
M  RAD  2   6   2  19   2
M  END
>  <ID>  (1) 
conformer_0

$$$$
