
     RDKit          3D

 23 26  0  0  0  0  0  0  0  0999 V2000
   29.1270   27.0578   31.6156 C   0  0  0  0  0  0  0  0  0  0  0  0
   33.0806   27.1749   33.5944 C   0  0  0  0  0  0  0  0  0  0  0  0
   34.1291   27.7640   33.9900 C   0  0  0  0  0  0  0  0  0  0  0  0
   28.0664   27.4626   32.1030 N   0  0  0  0  0  0  0  0  0  0  0  0
   30.0115   27.5264   33.3112 C   0  0  0  0  0  0  0  0  0  0  0  0
   29.5665   27.9312   35.1320 N   0  0  0  0  0  0  0  0  0  0  0  0
   31.4784   27.3769   33.9222 N   0  0  0  0  0  0  0  0  0  0  0  0
   26.8139   28.1928   33.8822 N   0  0  0  0  0  0  0  0  0  0  0  0
   33.8191   28.3923   41.4652 P   0  0  0  0  0  0  0  0  0  0  0  0
   33.3838   26.3425   35.1961 O   0  0  0  0  0  0  0  0  0  0  0  0
   33.6383   27.5346   42.3664 O   0  0  0  0  0  0  0  0  0  0  0  0
   34.5245   27.7657   35.2148 C   0  0  0  0  0  0  0  0  0  0  0  0
   28.3344   27.8189   33.6933 C   0  0  0  0  0  0  0  0  0  0  0  0
   32.2210   28.0874   39.4530 O   0  0  0  0  0  0  0  0  0  0  0  0
   34.7450   28.4660   40.5968 O   0  0  0  0  0  0  0  0  0  0  0  0
   33.3721   30.0973   38.6820 O   0  0  0  0  0  0  0  0  0  0  0  0
   34.6189   27.5558   32.4057 O   0  0  0  0  0  0  0  0  0  0  0  0
   30.3195   27.1505   31.7312 N   0  0  0  0  0  0  0  0  0  0  0  0
   35.1994   29.0400   34.4510 O   0  0  0  0  0  0  0  0  0  0  0  0
   33.8561   27.9287   37.8969 O   0  0  0  0  0  0  0  0  0  0  0  0
   33.4132   28.6466   38.8020 P   0  0  0  0  0  0  0  0  0  0  0  0
   30.5910   27.7104   34.8081 C   0  0  0  0  0  0  0  0  0  0  0  0
   34.3667   27.3175   36.5305 C   0  0  0  0  0  0  0  0  0  0  0  0
  3  2  1  0
  4  1  2  0
  7  2  1  0
  7  5  1  0
 10  2  1  0
 11  9  1  0
 12  3  1  0
 12 10  1  0
 13  4  1  0
 13  5  1  0
 13  6  1  0
 13  8  1  0
 14  9  1  0
 15  9  1  0
 17  3  1  0
 18  1  1  0
 18  5  1  0
 19 12  1  0
 21 14  1  0
 21 16  1  0
 21 20  1  0
 22  5  1  0
 22  6  2  0
 22  7  1  0
 23 12  1  0
 23 20  1  0
M  END
>  <ID>  (1) 
conformer_0

$$$$
