
     RDKit          3D

 25 26  0  0  0  0  0  0  0  0999 V2000
   32.9203   26.9917   33.5125 C   0  0  0  0  0  0  0  0  0  0  0  0
   29.1620   26.9712   31.2604 C   0  0  0  0  0  0  0  0  0  0  0  0
   33.8994   27.9131   33.7411 C   0  0  0  0  0  0  0  0  0  0  0  0
   30.3387   27.0342   31.6135 N   0  0  0  0  0  0  0  0  0  0  0  0
   29.8642   27.4773   33.1057 C   0  0  0  0  0  3  0  0  0  0  0  0
   33.2458   26.1103   34.6907 O   0  0  0  0  0  0  0  0  0  0  0  0
   34.5688   27.7173   34.9053 C   0  0  0  0  0  0  0  0  0  0  0  0
   33.7716   28.4810   41.4933 P   0  0  0  0  0  5  0  0  0  0  0  0
   26.7641   28.1782   33.4377 N   0  0  0  0  0  0  0  0  0  0  0  0
   29.3593   27.9495   34.7723 N   0  0  0  0  0  0  0  0  0  0  0  0
   33.7885   27.5718   42.6020 O   0  0  0  0  0  0  0  0  0  0  0  0
   33.2234   29.6022   38.2952 O   0  0  0  0  0  0  0  0  0  0  0  0
   31.3191   27.2976   33.8451 N   0  0  0  0  0  0  0  0  0  0  0  0
   34.3084   27.5479   32.1105 O   0  0  0  0  0  0  0  0  0  0  0  0
   28.3158   27.7673   33.2386 C   0  0  0  0  0  0  0  0  0  0  0  0
   33.5338   27.6113   36.7283 O   0  0  0  0  0  0  0  0  0  0  0  0
   35.1988   28.7638   41.0058 O   0  0  0  0  0  0  0  0  0  0  0  0
   33.1846   28.4053   38.5157 P   0  0  0  0  0  0  0  0  0  0  0  0
   28.1192   27.3627   31.7020 N   0  0  0  0  0  0  0  0  0  0  0  0
   31.6529   27.7832   39.0266 O   0  0  0  0  0  0  0  0  0  0  0  0
   34.5472   27.0103   36.3627 C   0  0  0  0  0  0  0  0  0  0  0  0
   35.2170   28.8343   33.6111 O   0  0  0  0  0  0  0  0  0  0  0  0
   30.5805   27.6928   34.6111 C   0  0  0  0  0  0  0  0  0  0  0  0
   32.7961   28.8953   40.8141 N   0  0  0  0  0  0  0  0  0  0  0  0
   33.9460   27.7751   39.0843 O   0  0  0  0  0  0  0  0  0  0  0  0
  3  1  1  0
  4  2  2  0
  5  4  1  0
  6  1  1  0
  7  3  1  0
 11  8  1  0
 13  1  1  0
 14  3  1  0
 15  5  1  0
 15  9  1  0
 15 10  1  0
 17  8  1  0
 18 12  1  0
 18 16  1  0
 19  2  1  0
 19 15  1  0
 20  8  1  0
 21  7  1  0
 21 16  1  0
 22  3  1  0
 23  5  1  0
 23 10  2  0
 23 13  1  0
 24  8  1  0
 25  8  1  0
 25 18  1  0
M  RAD  1   5   2
M  END
>  <ID>  (1) 
conformer_0

$$$$
