
     RDKit          3D

 25 27  0  0  0  0  0  0  0  0999 V2000
   29.2399   26.8596   31.3010 C   0  0  0  0  0  0  0  0  0  0  0  0
   33.7261   27.5880   33.9658 C   0  0  0  0  0  0  0  0  0  0  0  0
   34.4421   27.9075   35.1866 C   0  0  0  0  0  0  0  0  0  0  0  0
   30.5657   27.5736   34.7599 C   0  0  0  0  0  0  0  0  0  0  0  0
   28.0603   27.3374   31.7788 N   0  0  0  0  0  0  0  0  0  0  0  0
   26.8603   28.2133   33.5332 N   0  0  0  0  0  0  0  0  0  0  0  0
   29.3543   27.9423   34.8598 N   0  0  0  0  0  0  0  0  0  0  0  0
   33.3404   26.2008   35.2754 O   0  0  0  0  0  0  0  0  0  0  0  0
   31.3074   27.2166   34.0321 N   0  0  0  0  0  0  0  0  0  0  0  0
   34.0703   28.7126   41.2389 P   0  0  0  0  0  5  0  0  0  0  0  0
   31.4807   28.6760   38.7101 O   0  0  0  0  0  0  0  0  0  0  0  0
   32.9374   26.8327   33.6325 C   0  0  0  0  0  0  0  0  0  0  0  0
   28.3648   27.6999   33.3286 C   0  0  0  0  0  0  0  0  0  0  0  0
   33.3188   30.1240   38.4532 O   0  0  0  0  0  0  0  0  0  0  0  0
   33.9686   26.9512   32.3408 O   0  0  0  0  0  0  0  0  0  0  0  0
   33.5485   28.0358   42.7209 O   0  0  0  0  0  0  0  0  0  0  0  0
   33.1600   27.6502   39.8140 O   0  0  0  0  0  0  0  0  0  0  0  0
   35.1703   28.7210   34.2034 O   0  0  0  0  0  0  0  0  0  0  0  0
   30.2653   27.0199   31.6236 N   0  0  0  0  0  0  0  0  0  0  0  0
   29.9068   27.3492   33.1661 C   0  0  0  0  0  3  0  0  0  0  0  0
   33.0182   28.6358   38.6595 P   0  0  0  0  0  0  0  0  0  0  0  0
   33.2315   27.8992   37.3272 O   0  0  0  0  0  0  0  0  0  0  0  0
   34.4557   30.0442   40.6761 O   0  0  0  0  0  0  0  0  0  0  0  0
   34.3198   27.3761   36.2856 C   0  0  0  0  0  0  0  0  0  0  0  0
   34.6653   28.1056   41.5372 O   0  0  0  0  0  0  0  0  0  0  0  0
  3  2  2  0
  5  1  2  0
  7  4  2  0
  9  4  1  0
 11 10  1  0
 12  2  1  0
 12  8  1  0
 12  9  1  0
 13  5  1  0
 13  6  1  0
 13  7  1  0
 15 12  1  0
 16 10  1  0
 17 10  1  0
 18  3  1  0
 19  1  1  0
 20  9  1  0
 20 13  1  0
 20 19  1  0
 21 14  1  0
 21 17  1  0
 22 21  1  0
 23 10  1  0
 24  3  1  0
 24  8  1  0
 24 22  1  0
 25 10  1  0
M  RAD  1  20   2
M  END
>  <ID>  (1) 
conformer_0

$$$$
