
     RDKit          3D

 25 27  0  0  0  0  0  0  0  0999 V2000
   34.2942   27.4774   36.2746 C   0  0  0  0  0  0  0  0  0  0  0  0
   30.2936   27.7077   34.5102 C   0  0  0  0  0  0  0  0  0  0  0  0
   34.6647   27.9806   35.0115 C   0  0  0  0  0  0  0  0  0  0  0  0
   28.1645   27.2511   31.8381 N   0  0  0  0  0  0  0  0  0  0  0  0
   29.1028   26.8687   31.3077 C   0  0  0  0  0  0  0  0  0  0  0  0
   33.7883   28.5608   41.5096 P   0  0  0  0  0  4  0  0  0  0  0  0
   29.3508   27.9520   34.8723 N   0  0  0  0  0  0  0  0  0  0  0  0
   26.7296   28.1460   33.6544 N   0  0  0  0  0  0  0  0  0  0  0  0
   33.6329   27.4326   42.5142 O   0  0  0  0  0  0  0  0  0  0  0  0
   33.9309   27.7251   33.8366 C   0  0  0  0  0  0  0  0  0  0  0  0
   28.1794   27.7196   33.4376 C   0  0  0  0  0  0  0  0  0  0  0  0
   32.8299   27.6468   39.2519 O   0  0  0  0  0  0  0  0  0  0  0  0
   32.6504   28.5592   38.4952 P   0  0  0  0  0  5  0  0  0  0  0  0
   34.5600   27.0456   32.4687 O   0  0  0  0  0  0  0  0  0  0  0  0
   33.1490   26.5156   34.9966 O   0  0  0  0  0  0  0  0  0  0  0  0
   34.7033   29.5331   42.2687 O   0  0  0  0  0  1  0  0  0  0  0  0
   33.2451   29.9466   38.3577 O   0  0  0  0  0  0  0  0  0  0  0  0
   31.2566   27.2770   33.6290 N   0  0  0  0  0  0  0  0  0  0  0  0
   35.1079   29.3035   34.3299 O   0  0  0  0  0  0  0  0  0  0  0  0
   34.9857   28.3488   40.2912 O   0  0  0  0  0  0  0  0  0  0  0  0
   30.3573   26.9308   31.5619 N   0  0  0  0  0  2  0  0  0  0  0  0
   33.2044   27.9792   36.9163 O   0  0  0  0  0  0  0  0  0  0  0  0
   32.9525   27.1171   33.3097 C   0  0  0  0  0  0  0  0  0  0  0  0
   29.9534   27.2884   32.9529 C   0  0  0  0  0  0  0  0  0  0  0  0
   31.2551   28.6569   38.1095 O   0  0  0  0  0  0  0  0  0  0  0  0
  3  1  1  0
  5  4  2  0
  7  2  2  0
  9  6  1  0
 10  3  1  0
 11  4  1  0
 11  7  1  0
 11  8  1  0
 13  6  1  0
 13 12  1  0
 14 10  1  0
 16  6  1  0
 17 13  1  0
 18  2  1  0
 19  3  1  0
 20  6  1  0
 21  5  1  0
 22  1  1  0
 22 13  1  0
 23 10  1  0
 23 15  1  0
 23 18  1  0
 24  2  1  0
 24 11  1  0
 24 18  1  0
 24 21  1  0
 25 12  1  0
M  RAD  3   6   2  16   2  21   2
M  END
>  <ID>  (1) 
conformer_0

$$$$
