
     RDKit          3D

 24 24  0  0  0  0  0  0  0  0999 V2000
   29.5895   27.4458   33.1461 C   0  0  0  0  0  0  0  0  0  0  0  0
   34.7206   27.9576   35.2183 C   0  0  0  0  0  0  0  0  0  0  0  0
   34.0283   27.8114   33.9284 C   0  0  0  0  0  0  0  0  0  0  0  0
   27.8822   27.4628   32.0775 N   0  0  0  0  0  0  0  0  0  0  0  0
   30.6159   27.5482   34.1530 C   0  0  0  0  0  0  0  0  0  0  0  0
   31.4453   27.3608   33.7873 N   0  0  0  0  0  0  0  0  0  0  0  0
   32.9078   28.5759   38.2650 P   0  0  0  0  0  0  0  0  0  0  0  0
   33.5698   26.4048   35.0563 O   0  0  0  0  0  0  0  0  0  0  0  0
   26.8920   28.1998   34.1408 N   0  0  0  0  0  0  0  0  0  0  0  0
   28.9385   26.8475   31.4049 C   0  0  0  0  0  0  0  0  0  0  0  0
   33.0583   27.1214   33.4987 C   0  0  0  0  0  0  0  0  0  0  0  0
   33.5740   27.5510   42.2054 O   0  0  0  0  0  0  0  0  0  0  0  0
   35.5547   28.9514   34.1653 O   0  0  0  0  0  0  0  0  0  0  0  0
   29.6753   27.9858   34.8405 N   0  0  0  0  0  0  0  0  0  0  0  0
   33.8906   28.2861   41.1957 P   0  0  0  0  0  4  0  0  0  0  0  0
   34.1653   27.2301   32.2507 O   0  0  0  0  0  0  0  0  0  0  0  0
   33.1465   28.2536   36.8738 O   0  0  0  0  0  0  0  0  0  0  0  0
   35.0703   28.4098   41.3403 O   0  0  0  0  0  1  0  0  0  0  0  0
   33.3867   29.8942   38.6792 O   0  0  0  0  0  0  0  0  0  0  0  0
   30.1407   26.9285   31.8479 N   0  0  0  0  0  0  0  0  0  0  0  0
   33.9140   27.8663   39.2542 O   0  0  0  0  0  0  0  0  0  0  0  0
   28.1556   27.8286   33.6196 C   0  0  0  0  0  0  0  0  0  0  0  0
   34.6450   27.4579   36.3096 C   0  0  0  0  0  0  0  0  0  0  0  0
   31.7979   27.8728   38.7042 O   0  0  0  0  0  0  0  0  0  0  0  0
  3  2  2  3
  5  1  1  0
  6  5  1  0
 10  4  2  0
 11  3  1  0
 11  6  1  0
 11  8  1  0
 13  2  1  0
 14  5  2  3
 15 12  1  0
 16 11  1  0
 17  7  1  0
 18 15  1  0
 19  7  1  0
 20  1  2  0
 20 10  1  0
 21 15  1  0
 22  1  1  0
 22  4  1  0
 22  9  1  0
 23  2  1  0
 23 17  1  0
 24  7  1  0
 24 15  1  0
M  RAD  2  15   2  18   2
M  END
>  <ID>  (1) 
conformer_0

$$$$
