
     RDKit          3D

 25 27  0  0  0  0  0  0  0  0999 V2000
   34.0301   27.8060   33.9534 C   0  0  1  0  0  0  0  0  0  0  0  0
   33.1378   27.0109   33.4729 C   0  0  2  0  0  0  0  0  0  0  0  0
   30.1226   27.7289   33.3577 C   0  0  2  0  0  0  0  0  0  0  0  0
   30.7266   27.8652   34.6895 C   0  0  0  0  0  0  0  0  0  0  0  0
   28.1367   27.4193   32.1124 N   0  0  0  0  0  0  0  0  0  0  0  0
   32.9946   28.2184   38.6003 P   0  0  0  0  0  0  0  0  0  0  0  0
   29.8424   28.1431   35.0908 N   0  0  0  0  0  0  0  0  0  0  0  0
   31.5662   27.5032   33.8638 N   0  0  0  0  0  0  0  0  0  0  0  0
   33.5831   26.3679   35.1563 O   0  0  0  0  0  0  0  0  0  0  0  0
   26.9597   28.4572   33.5873 N   0  0  0  0  0  0  0  0  0  0  0  0
   33.4824   27.6241   42.2374 O   0  0  0  0  0  0  0  0  0  0  0  0
   34.6576   27.8624   35.1234 C   0  0  1  0  0  0  0  0  0  0  0  0
   33.8100   27.4792   38.1249 O   0  0  0  0  0  0  0  0  0  0  0  0
   33.0904   29.3045   37.9611 O   0  0  0  0  0  0  0  0  0  0  0  0
   34.8276   28.5477   40.8381 O   0  0  0  0  0  1  0  0  0  0  0  0
   35.3704   28.2609   33.2337 O   0  0  0  0  0  0  0  0  0  0  0  0
   35.0896   29.4686   35.2331 O   0  0  0  0  0  0  0  0  0  0  0  0
   28.4454   27.9655   33.6218 C   0  0  0  0  0  0  0  0  0  0  0  0
   33.8036   28.4176   41.2524 P   0  0  0  0  0  4  0  0  0  0  0  0
   30.3145   27.1387   31.7960 N   0  0  0  0  0  0  0  0  0  0  0  0
   31.7156   27.7673   38.8595 O   0  0  0  0  0  0  0  0  0  0  0  0
   29.1000   27.0842   31.8567 C   0  0  0  0  0  0  0  0  0  0  0  0
   34.7497   27.2492   36.4294 C   0  0  0  0  0  0  0  0  0  0  0  0
   33.5170   29.9792   39.9979 O   0  0  0  0  0  0  0  0  0  0  0  0
   34.0375   26.9424   31.9879 O   0  0  0  0  0  0  0  0  0  0  0  0
  2  1  1  0
  4  3  1  0
  7  4  2  3
  8  2  1  0
  8  3  1  0
  8  4  1  0
  9  2  1  0
 12  1  1  0
 12  9  1  0
 13  6  1  0
 14  6  1  0
  1 16  1  6
 12 17  1  1
 18  3  1  0
 18  5  2  0
 18 10  1  0
 19 11  1  0
 19 15  1  0
  3 20  1  6
 21  6  1  0
 21 19  1  0
 22  5  1  0
 22 20  1  0
 23 12  1  0
 23 13  1  0
 24 19  1  0
  2 25  1  6
M  RAD  2  15   2  19   2
M  END
>  <ID>  (1) 
conformer_0

$$$$
