
     RDKit          3D

 27 28  0  0  0  0  0  0  0  0999 V2000
   30.3415   27.8431   34.2813 C   0  0  0  0  0  0  0  0  0  0  0  0
   34.5319   28.0910   35.1215 C   0  0  0  0  0  0  0  0  0  0  0  0
   33.9649   28.0164   33.9929 C   0  0  0  0  0  0  0  0  0  0  0  0
   29.4655   27.9333   34.6533 N   0  0  0  0  0  0  0  0  0  0  0  0
   30.6460   27.5956   32.6975 C   0  0  0  0  0  0  0  0  0  0  0  0
   30.5175   27.2381   31.4364 N   0  0  0  0  0  0  0  0  0  0  0  0
   33.7755   28.5777   41.4704 P   0  0  0  0  0  5  0  0  0  0  0  0
   31.5941   27.5407   33.4045 N   0  0  0  0  0  0  0  0  0  0  0  0
   33.5419   27.5324   42.7572 O   0  0  0  0  0  0  0  0  0  0  0  0
   33.3333   26.3156   34.8412 O   0  0  0  0  0  0  0  0  0  0  0  0
   26.8908   28.2007   33.3193 N   0  0  0  0  0  0  0  0  0  0  0  0
   34.2854   26.6794   32.1073 O   0  0  0  0  0  0  0  0  0  0  0  0
   33.1667   27.0126   33.3974 C   0  0  0  0  0  0  0  0  0  0  0  0
   35.0696   28.8669   41.8794 O   0  0  0  0  0  0  0  0  0  0  0  0
   33.4277   27.6423   39.9352 O   0  0  0  0  0  0  0  0  0  0  0  0
   32.8172   28.2955   38.5893 P   0  0  0  0  0  5  0  0  0  0  0  0
   32.6351   29.4583   38.0064 O   0  0  0  0  0  0  0  0  0  0  0  0
   35.2940   28.3990   33.1386 O   0  0  0  0  0  0  0  0  0  0  0  0
   28.4323   27.7962   33.3385 C   0  0  0  0  0  0  0  0  0  0  0  0
   28.1978   27.3157   31.7553 N   0  0  0  0  0  0  0  0  0  0  0  0
   31.2862   27.8774   38.5678 O   0  0  0  0  0  0  0  0  0  0  0  0
   33.3853   27.5678   37.4153 O   0  0  0  0  0  0  0  0  0  0  0  0
   34.3596   29.6197   39.5272 O   0  0  0  0  0  0  0  0  0  0  0  0
   34.4524   27.1232   36.1926 C   0  0  0  0  0  0  0  0  0  0  0  0
   32.5642   29.3548   41.1897 N   0  0  0  0  0  0  0  0  0  0  0  0
   29.1258   27.1540   31.7840 C   0  0  0  0  0  0  0  0  0  0  0  0
   35.3729   29.3723   35.1058 O   0  0  0  0  0  0  0  0  0  0  0  0
  3  2  1  0
  4  1  1  0
  6  5  1  0
  8  1  1  0
  8  5  1  0
  9  7  1  0
 13  3  1  0
 13  8  1  0
 13 10  1  0
 13 12  1  0
 14  7  1  0
 15  7  1  0
 17 16  1  0
 18  3  1  0
 19  4  2  0
 19 11  1  0
 20 19  1  0
 21  7  1  0
 21 16  1  0
 22 16  1  0
 23 16  1  0
 24  2  1  0
 24 22  1  0
 25  7  1  0
 26  5  1  0
 26  6  2  0
 26 20  1  0
 27  2  1  0
M  END
>  <ID>  (1) 
conformer_0

$$$$
