
     RDKit          3D

 26 27  0  0  0  0  0  0  0  0999 V2000
   28.1395   27.7592   33.1980 C   0  0  0  0  0  0  0  0  0  0  0  0
   33.0790   26.9383   33.6890 C   0  0  0  0  0  0  0  0  0  0  0  0
   34.0331   27.6178   33.6071 C   0  0  0  0  0  0  0  0  0  0  0  0
   30.9167   27.9372   35.3179 C   0  0  0  0  0  0  0  0  0  0  0  0
   28.1103   27.3768   31.9876 N   0  0  0  0  0  0  0  0  0  0  0  0
   26.8531   28.2740   33.6535 N   0  0  0  0  0  0  0  0  0  0  0  0
   33.2769   26.2069   34.9461 O   0  0  0  0  0  0  0  0  0  0  0  0
   33.8562   28.6525   41.1373 P   0  0  0  0  0  5  0  0  0  0  0  0
   31.3913   27.4093   34.2881 N   0  0  0  0  0  0  0  0  0  0  0  0
   29.5572   28.1427   35.2261 N   0  0  0  0  0  0  0  0  0  0  0  0
   33.5113   27.4769   37.1538 O   0  0  0  0  0  0  0  0  0  0  0  0
   29.1762   27.7701   33.9799 C   0  0  0  0  0  0  0  0  0  0  0  0
   34.6209   27.8584   34.8853 C   0  0  0  0  0  0  0  0  0  0  0  0
   34.1435   27.9164   39.3215 O   0  0  0  0  0  0  0  0  0  0  0  0
   33.4234   27.7990   42.0676 O   0  0  0  0  0  0  0  0  0  0  0  0
   34.3579   26.9182   32.1219 O   0  0  0  0  0  0  0  0  0  0  0  0
   33.1344   29.4166   38.1062 O   0  0  0  0  0  0  0  0  0  0  0  0
   31.7536   28.1107   39.0080 O   0  0  0  0  0  0  0  0  0  0  0  0
   30.2300   27.1448   32.0626 N   0  0  0  0  0  0  0  0  0  0  0  0
   33.1920   28.2198   38.5690 P   0  0  0  0  0  0  0  0  0  0  0  0
   35.2776   28.7645   33.6186 O   0  0  0  0  0  0  0  0  0  0  0  0
   29.1001   26.7703   31.2717 C   0  0  0  0  0  0  0  0  0  0  0  0
   33.7924   30.3340   40.1012 O   0  0  0  0  0  0  0  0  0  0  0  0
   34.5491   27.2463   36.1956 C   0  0  0  0  0  0  0  0  0  0  0  0
   34.9970   28.7795   41.2304 O   0  0  0  0  0  0  0  0  0  0  0  0
   30.3890   27.4390   33.4088 C   0  0  0  0  0  0  0  0  0  0  0  0
  3  2  1  0
  5  1  2  0
  6  1  1  0
  7  2  1  0
  9  2  1  0
  9  4  1  0
 10  4  2  0
 12  1  1  0
 12 10  1  0
 13  3  1  0
 14  8  1  0
 15  8  1  0
 16  3  1  0
 18  8  1  0
 20 11  1  0
 20 14  1  0
 20 17  1  0
 21 13  1  0
 22  5  1  0
 22 19  2  0
 23  8  1  0
 24 11  1  0
 24 13  1  0
 25  8  1  0
 26  9  1  0
 26 12  2  0
 26 19  1  0
M  END
>  <ID>  (1) 
conformer_0

$$$$
