
     RDKit          3D

 24 26  0  0  0  0  0  0  0  0999 V2000
   28.6080   27.7920   33.2586 C   0  0  0  0  0  0  0  0  0  0  0  0
   34.5303   27.7242   35.3942 C   0  0  0  0  0  0  0  0  0  0  0  0
   33.9142   27.6315   34.0404 C   0  0  0  0  0  0  0  0  0  0  0  0
   28.2944   27.4421   31.8596 N   0  0  0  0  0  2  0  0  0  0  0  0
   30.1960   27.4863   33.1847 C   0  0  0  0  0  0  0  0  0  0  0  0
   33.5346   28.5642   41.4146 P   0  0  0  0  0  4  0  0  0  0  0  0
   27.0235   28.2810   33.4499 N   0  0  0  0  0  0  0  0  0  0  0  0
   33.6426   26.2094   35.3903 O   0  0  0  0  0  0  0  0  0  0  0  0
   29.5328   28.0279   34.8725 N   0  0  0  0  0  0  0  0  0  0  0  0
   34.1466   26.6702   32.4482 O   0  0  0  0  0  0  0  0  0  0  0  0
   33.1480   26.9095   33.6895 C   0  0  0  0  0  0  0  0  0  0  0  0
   31.4826   27.3555   33.9301 N   0  0  0  0  0  0  0  0  0  0  0  0
   33.4666   27.8270   42.3721 O   0  0  0  0  0  0  0  0  0  0  0  0
   33.5068   27.7079   37.6093 O   0  0  0  0  0  0  0  0  0  0  0  0
   29.4154   26.9200   31.2816 C   0  0  0  0  0  0  0  0  0  0  0  0
   34.9169   29.0426   34.3552 O   0  0  0  0  0  0  0  0  0  0  0  0
   33.2116   30.2424   38.7858 O   0  0  0  0  0  0  0  0  0  0  0  0
   30.4591   27.0611   31.7796 N   0  0  0  0  0  0  0  0  0  0  0  0
   34.3627   28.9663   41.3416 O   0  0  0  0  0  1  0  0  0  0  0  0
   32.8066   28.4247   38.6794 P   0  0  0  0  0  0  0  0  0  0  0  0
   30.6798   27.7334   34.8793 C   0  0  0  0  0  0  0  0  0  0  0  0
   31.6356   28.5131   38.6953 O   0  0  0  0  0  0  0  0  0  0  0  0
   34.5324   27.2851   36.6679 C   0  0  0  0  0  0  0  0  0  0  0  0
   33.2688   27.8039   39.9024 O   0  0  0  0  0  0  0  0  0  0  0  0
  3  2  1  0
  4  1  1  0
  5  1  1  0
  7  1  1  0
  8  2  1  0
  9  1  1  0
 11  3  1  0
 11 10  1  0
 12  5  1  0
 12 11  1  0
 13  6  1  0
 15  4  1  0
 16  2  1  0
 18  5  1  0
 18 15  2  0
 19  6  1  0
 20 14  1  0
 20 17  1  0
 21  5  1  0
 21  9  2  0
 21 12  1  0
 22  6  1  0
 22 20  1  0
 23  2  1  0
 23 14  1  0
 24  6  1  0
M  RAD  3   4   2   6   2  19   2
M  END
>  <ID>  (1) 
conformer_0

$$$$
