
     RDKit          3D

 26 27  0  0  0  0  0  0  0  0999 V2000
   32.8956   27.0101   33.2756 C   0  0  1  0  0  0  0  0  0  0  0  0
   29.7768   27.5245   33.4592 C   0  0  0  0  0  0  0  0  0  0  0  0
   33.9475   27.9843   33.5456 C   0  0  0  0  0  0  0  0  0  0  0  0
   29.1519   27.0618   31.7899 C   0  0  0  0  0  0  0  0  0  0  0  0
   29.6210   28.0344   35.2689 N   0  0  0  0  0  0  0  0  0  0  0  0
   33.7632   28.7850   41.5714 P   0  0  0  0  0  5  0  0  0  0  0  0
   26.8186   28.3445   34.1818 N   0  0  0  0  0  0  0  0  0  0  0  0
   33.3421   26.2477   34.5735 O   0  0  0  0  0  0  0  0  0  0  0  0
   27.9158   27.5261   32.2593 N   0  0  0  0  0  0  0  0  0  0  0  0
   31.3456   27.3174   33.6095 N   0  0  0  0  0  0  0  0  0  0  0  0
   34.6396   27.7126   34.9051 C   0  0  0  0  0  0  0  0  0  0  0  0
   28.1410   27.8980   33.7124 C   0  0  0  0  0  3  0  0  0  0  0  0
   33.1117   28.1916   38.5818 P   0  0  0  0  0  5  0  0  0  0  0  0
   33.9095   27.6063   42.5326 O   0  0  0  0  0  0  0  0  0  0  0  0
   32.9517   27.5067   39.4033 O   0  0  0  0  0  0  0  0  0  0  0  0
   34.4328   29.1559   32.8505 O   0  0  0  0  0  0  0  0  0  0  0  0
   34.0667   30.0704   42.1532 O   0  0  0  0  0  0  0  0  0  0  0  0
   35.2188   28.6748   41.0135 O   0  0  0  0  0  0  0  0  0  0  0  0
   30.1191   26.9759   31.8536 N   0  0  0  0  0  0  0  0  0  0  0  0
   33.3715   27.5567   37.0386 O   0  0  0  0  0  0  0  0  0  0  0  0
   35.7849   28.8030   34.6900 O   0  0  0  0  0  0  0  0  0  0  0  0
   33.9903   29.4044   38.8649 O   0  0  0  0  0  0  0  0  0  0  0  0
   34.4065   26.8567   36.1120 C   0  0  0  0  0  0  0  0  0  0  0  0
   30.5310   27.7767   34.7233 C   0  0  0  0  0  0  0  0  0  0  0  0
   31.8110   28.8108   38.3404 O   0  0  0  0  0  0  0  0  0  0  0  0
   32.5340   29.1607   42.3703 O   0  0  0  0  0  0  0  0  0  0  0  0
  3  1  1  0
  1  8  1  1
  9  4  2  0
 10  1  1  0
 10  2  1  0
 11  3  2  3
 12  2  1  0
 12  7  1  0
 12  9  1  0
 13  6  1  0
 14  6  1  0
 15 13  1  0
 16  3  1  0
 17  6  1  0
 18  6  1  0
 19  2  1  0
 19  4  1  0
 20 13  1  0
 21 11  1  0
 22 13  1  0
 23 11  1  0
 23 20  1  0
 24  2  1  0
 24  5  2  3
 24 10  1  0
 25 15  1  0
 26  6  1  0
M  RAD  1  12   2
M  END
>  <ID>  (1) 
conformer_0

$$$$
