
     RDKit          3D

 25 25  0  0  0  0  0  0  0  0999 V2000
   28.4873   27.7438   33.4948 C   0  0  0  0  0  0  0  0  0  0  0  0
   34.1177   27.6335   34.1016 C   0  0  1  0  0  0  0  0  0  0  0  0
   33.1117   26.9321   33.6020 C   0  0  1  0  0  0  0  0  0  0  0  0
   28.1425   27.3816   31.9127 N   0  0  0  0  0  0  0  0  0  0  0  0
   29.9821   27.4361   33.2696 C   0  0  1  0  0  0  0  0  0  0  0  0
   29.7450   28.0879   35.0487 N   0  0  0  0  0  0  0  0  0  0  0  0
   27.0054   28.0835   33.7830 N   0  0  0  0  0  0  0  0  0  0  0  0
   33.9940   28.7376   41.3243 P   0  0  0  0  0  4  0  0  0  0  0  0
   34.6272   27.5485   35.3733 C   0  0  0  0  0  0  0  0  0  0  0  0
   33.4756   26.2940   35.4449 O   0  0  0  0  0  0  0  0  0  0  0  0
   33.6285   27.5435   42.1727 O   0  0  0  0  0  0  0  0  0  0  0  0
   31.5165   27.2694   34.1030 N   0  0  0  0  0  0  0  0  0  0  0  0
   29.2203   26.8479   31.3509 C   0  0  0  0  0  0  0  0  0  0  0  0
   31.5572   28.2731   38.9593 O   0  0  0  0  0  0  0  0  0  0  0  0
   35.2798   28.6449   40.9535 O   0  0  0  0  0  1  0  0  0  0  0  0
   35.3533   28.9929   35.3225 O   0  0  0  0  0  0  0  0  0  0  0  0
   33.5600   29.9760   38.8889 O   0  0  0  0  0  0  0  0  0  0  0  0
   33.7293   26.7419   32.0208 O   0  0  0  0  0  0  0  0  0  0  0  0
   30.3886   27.0212   31.8105 N   0  0  0  0  0  0  0  0  0  0  0  0
   32.9641   28.4475   38.8385 P   0  0  0  0  0  5  0  0  0  0  0  0
   30.6730   27.7615   34.7204 C   0  0  0  0  0  0  0  0  0  0  0  0
   34.5263   27.1893   36.8491 C   0  0  0  0  0  0  0  0  0  0  0  0
   33.3681   27.6312   38.5532 O   0  0  0  0  0  0  0  0  0  0  0  0
   33.1049   29.5901   41.6930 O   0  0  0  0  0  0  0  0  0  0  0  0
   35.1865   28.1157   33.1765 O   0  0  0  0  0  0  0  0  0  0  0  0
  3  2  1  0
  4  1  2  0
  5  1  1  0
  7  1  1  0
  9  2  1  0
 10  9  1  0
 11  8  1  0
 12  3  1  0
 13  4  1  0
 15  8  1  0
 16  9  1  0
  3 18  1  6
 19  5  1  0
 19 13  2  0
 20  8  1  0
 20 17  1  0
  5 21  1  6
 21  6  2  3
 21 12  1  0
 22  9  1  0
 22 20  1  0
 23 14  1  0
 23 20  1  0
 24  8  1  0
  2 25  1  6
M  RAD  2   8   2  15   2
M  END
>  <ID>  (1) 
conformer_0

$$$$
