
     RDKit          3D

 25 26  0  0  0  0  0  0  0  0999 V2000
   34.7063   27.8333   35.2423 C   0  0  1  0  0  0  0  0  0  0  0  0
   29.0682   26.8675   31.3183 C   0  0  0  0  0  0  0  0  0  0  0  0
   34.0271   27.5793   34.0847 C   0  0  1  0  0  0  0  0  0  0  0  0
   29.7543   27.4066   33.0119 C   0  0  0  0  0  0  0  0  0  0  0  0
   27.9660   27.4033   31.9223 N   0  0  0  0  0  0  0  0  0  0  0  0
   26.9002   28.3481   33.7853 N   0  0  0  0  0  0  0  0  0  0  0  0
   29.6654   28.0011   34.7503 N   0  0  0  0  0  0  0  0  0  0  0  0
   31.4056   27.1447   33.7577 N   0  0  0  0  0  0  0  0  0  0  0  0
   33.9552   28.7739   41.0927 P   0  0  1  0  0  4  0  0  0  0  0  0
   33.3889   26.1987   34.9561 O   0  0  0  0  0  0  0  0  0  0  0  0
   28.3173   27.7890   33.3330 C   0  0  0  0  0  0  0  0  0  0  0  0
   33.0272   26.8473   33.5187 C   0  0  2  0  0  0  0  0  0  0  0  0
   33.7988   27.6518   41.8793 O   0  0  0  0  0  0  0  0  0  0  0  0
   35.3208   28.9944   34.5859 O   0  0  0  0  0  0  0  0  0  0  0  0
   31.6009   28.3473   39.1536 O   0  0  0  0  0  1  0  0  0  0  0  0
   33.5975   29.9270   38.5819 O   0  0  0  0  0  0  0  0  0  0  0  0
   34.3712   27.2674   32.4295 O   0  0  0  0  0  0  0  0  0  0  0  0
   30.3651   26.9685   31.6662 N   0  0  0  0  0  0  0  0  0  0  0  0
   33.3278   27.5681   37.1194 O   0  0  0  0  0  0  0  0  0  0  0  0
   33.0183   28.2938   38.5612 P   0  0  0  0  0  0  0  0  0  0  0  0
   35.3063   29.4044   41.8606 O   0  0  0  0  0  0  0  0  0  0  0  0
   30.5879   27.5118   34.3431 C   0  0  0  0  0  0  0  0  0  0  0  0
   34.4650   27.2154   36.4779 C   0  0  0  0  0  0  0  0  0  0  0  0
   33.8924   29.7183   41.6997 C   0  0  0  0  0  0  0  0  0  0  0  0
   33.6475   27.8720   39.2068 O   0  0  0  0  0  0  0  0  0  0  0  0
  3  1  1  0
  5  2  2  0
 10  3  1  0
 11  4  2  0
 11  5  1  0
 11  6  1  0
 12  3  1  0
 12  8  1  1
 12 10  1  0
  9 13  1  1
  1 14  1  1
 15  9  1  0
  3 17  1  6
 18  2  1  0
 18  4  1  0
 20 16  1  0
 20 19  1  0
 22  4  1  0
 22  7  2  3
 22  8  1  0
 23  1  1  0
 23 19  1  0
 24  9  1  0
 24 21  1  0
 25  9  1  0
 25 20  1  0
M  RAD  2   9   2  15   2
M  END
>  <ID>  (1) 
conformer_0

$$$$
