
     RDKit          3D

 25 26  0  0  0  0  0  0  0  0999 V2000
   34.1180   27.9305   33.8080 C   0  0  0  0  0  0  0  0  0  0  0  0
   29.7183   27.4749   33.1857 C   0  0  0  0  0  3  0  0  0  0  0  0
   34.6974   27.8506   35.0133 C   0  0  0  0  0  0  0  0  0  0  0  0
   30.5414   27.6876   34.4924 C   0  0  0  0  0  0  0  0  0  0  0  0
   27.9001   27.3951   31.9321 N   0  0  0  0  0  0  0  0  0  0  0  0
   29.3982   27.9747   34.8410 N   0  0  0  0  0  0  0  0  0  0  0  0
   33.9581   28.4837   41.4327 P   0  0  0  0  0  5  0  0  0  0  0  0
   33.2904   26.3688   34.8916 O   0  0  0  0  0  0  0  0  0  0  0  0
   34.3522   27.2328   36.3858 C   0  0  0  0  0  0  0  0  0  0  0  0
   26.7731   28.2825   33.7017 N   0  0  0  0  0  0  0  0  0  0  0  0
   31.3716   27.3046   33.8059 N   0  0  0  0  0  0  0  0  0  0  0  0
   33.5817   29.7290   38.3388 O   0  0  0  0  0  0  0  0  0  0  0  0
   33.0502   28.4975   38.4918 P   0  0  0  0  0  0  0  0  0  0  0  0
   28.1942   27.7964   33.4883 C   0  0  0  0  0  0  0  0  0  0  0  0
   33.6350   27.6212   42.5284 O   0  0  0  0  0  0  0  0  0  0  0  0
   33.3651   27.6949   37.3237 O   0  0  0  0  0  0  0  0  0  0  0  0
   35.0253   29.0305   41.5885 O   0  0  0  0  0  0  0  0  0  0  0  0
   34.5171   27.1641   32.2606 O   0  0  0  0  0  0  0  0  0  0  0  0
   31.5272   28.9441   38.3316 O   0  0  0  0  0  0  0  0  0  0  0  0
   30.1431   27.0848   31.6662 N   0  0  0  0  0  0  0  0  0  0  0  0
   35.3520   29.1433   34.0883 O   0  0  0  0  0  0  0  0  0  0  0  0
   32.7363   28.4307   40.2096 N   0  0  0  0  0  0  0  0  0  0  0  0
   33.0378   27.1123   33.4970 C   0  0  0  0  0  0  0  0  0  0  0  0
   28.9529   26.9619   31.4560 C   0  0  0  0  0  0  0  0  0  0  0  0
   34.4201   27.8639   39.6675 O   0  0  0  0  0  0  0  0  0  0  0  0
  3  1  1  0
  4  2  1  0
  6  4  2  0
  9  3  1  0
 11  4  1  0
 13 12  1  0
 14  2  1  0
 14  5  1  0
 14  6  1  0
 14 10  1  0
 15  7  1  0
 16  9  1  0
 16 13  1  0
 17  7  1  0
 18  1  1  0
 19  7  1  0
 19 13  1  0
 20  2  1  0
 21  3  1  0
 22  7  1  0
 23  1  1  0
 23  8  1  0
 23 11  1  0
 24  5  2  0
 24 20  1  0
 25  7  1  0
M  RAD  1   2   2
M  END
>  <ID>  (1) 
conformer_0

$$$$
