
     RDKit          3D

 27 30  0  0  0  0  0  0  0  0999 V2000
   34.6442   27.6239   36.4923 C   0  0  0  0  0  0  0  0  0  0  0  0
   30.4646   27.6345   34.4466 C   0  0  0  0  0  0  0  0  0  0  0  0
   34.6579   28.0761   35.1809 C   0  0  0  0  0  0  0  0  0  0  0  0
   27.9463   27.4741   31.9713 N   0  0  0  0  0  0  0  0  0  0  0  0
   28.9547   26.8232   31.3200 C   0  0  0  0  0  0  0  0  0  0  0  0
   29.5719   27.9987   34.7954 N   0  0  0  0  0  0  0  0  0  0  0  0
   33.8686   28.4874   41.2244 P   0  0  0  0  0  5  0  0  0  0  0  0
   26.7902   28.3496   33.8106 N   0  0  0  0  0  0  0  0  0  0  0  0
   33.4640   27.7402   42.2435 O   0  0  0  0  0  0  0  0  0  0  0  0
   29.7253   27.4338   32.9684 C   0  0  0  0  0  0  0  0  0  0  0  0
   34.1734   28.2135   39.6396 O   0  0  0  0  0  0  0  0  0  0  0  0
   33.9777   27.7218   34.0677 C   0  0  0  0  0  0  0  0  0  0  0  0
   33.4656   26.3038   35.1690 O   0  0  0  0  0  0  0  0  0  0  0  0
   35.3579   28.7341   41.4540 O   0  0  0  0  0  0  0  0  0  0  0  0
   30.3727   27.0032   31.7320 N   0  0  0  0  0  0  0  0  0  0  0  0
   34.1178   26.8990   32.2571 O   0  0  0  0  0  0  0  0  0  0  0  0
   35.8340   29.2373   35.1941 O   0  0  0  0  0  0  0  0  0  0  0  0
   31.3930   27.1754   33.8043 N   0  0  0  0  0  0  0  0  0  0  0  0
   33.1827   30.3449   39.0256 O   0  0  0  0  0  0  0  0  0  0  0  0
   32.8440   28.4582   38.5300 P   0  0  0  0  0  5  0  0  0  0  0  0
   33.5847   27.9750   37.1828 O   0  0  0  0  0  0  0  0  0  0  0  0
   32.8763   29.7269   41.2093 N   0  0  0  0  0  0  0  0  0  0  0  0
   32.9887   26.8211   33.5807 C   0  0  0  0  0  0  0  0  0  0  0  0
   28.2083   27.8207   33.4585 C   0  0  0  0  0  0  0  0  0  0  0  0
   31.8788   28.9511   37.9323 O   0  0  0  0  0  0  0  0  0  0  0  0
   34.8881   28.7408   33.2111 O   0  0  0  0  0  0  0  0  0  0  0  0
   32.2900   27.4428   39.1769 O   0  0  0  0  0  0  0  0  0  0  0  0
  3  1  1  0
  5  4  2  0
  6  2  2  0
  9  7  1  0
 10  2  1  0
 10  5  1  0
 11  7  1  0
 12  3  1  0
 13 12  1  0
 14  7  1  0
 15  5  1  0
 15 10  1  0
 17  3  1  0
 18  2  1  0
 20 19  1  0
 21  1  1  0
 21 20  1  0
 22  7  1  0
 23 12  1  0
 23 13  1  0
 23 16  1  0
 23 18  1  0
 24  4  1  0
 24  6  1  0
 24  8  1  0
 24 10  1  0
 25 20  1  0
 26 12  1  0
 27  7  1  0
 27 20  1  0
M  END
>  <ID>  (1) 
conformer_0

$$$$
