
     RDKit          3D

 25 26  0  0  0  0  0  0  0  0999 V2000
   28.4156   27.6126   33.2250 C   0  0  0  0  0  0  0  0  0  0  0  0
   34.0419   27.6904   34.1872 C   0  0  1  0  0  0  0  0  0  0  0  0
   33.0785   27.0506   33.6169 C   0  0  2  0  0  0  0  0  0  0  0  0
   29.9517   27.3688   33.1723 C   0  0  0  0  0  0  0  0  0  0  0  0
   28.0762   27.2814   31.7994 N   0  0  0  0  0  0  0  0  0  0  0  0
   34.1284   28.5207   40.9902 P   0  0  0  0  0  4  0  0  0  0  0  0
   31.4081   27.3268   34.0773 N   0  0  0  0  0  0  0  0  0  0  0  0
   34.5025   27.6992   35.6034 C   0  0  0  0  0  0  0  0  0  0  0  0
   33.4241   27.7866   41.9743 O   0  0  0  0  0  0  0  0  0  0  0  0
   33.3745   26.3271   35.2734 O   0  0  0  0  0  0  0  0  0  0  0  0
   35.3442   28.5462   41.2652 O   0  0  0  0  0  1  0  0  0  0  0  0
   31.4398   28.6581   38.9480 O   0  0  0  0  0  0  0  0  0  0  0  0
   26.9244   28.0446   33.5605 N   0  0  0  0  0  0  0  0  0  0  0  0
   29.5792   27.8927   34.8267 N   0  0  0  0  0  0  0  0  0  0  0  0
   29.1065   26.7441   31.1921 C   0  0  0  0  0  0  0  0  0  0  0  0
   34.0241   30.0600   39.2320 O   0  0  0  0  0  0  0  0  0  0  0  0
   33.8438   27.0562   32.1052 O   0  0  0  0  0  0  0  0  0  0  0  0
   35.4716   29.0348   35.6483 O   0  0  0  0  0  0  0  0  0  0  0  0
   30.1834   26.9676   31.7051 N   0  0  0  0  0  0  0  0  0  0  0  0
   32.6964   28.6820   38.7233 P   0  0  0  0  0  0  0  0  0  0  0  0
   33.7184   27.8794   39.5375 O   0  0  0  0  0  0  0  0  0  0  0  0
   30.6806   27.7080   34.6740 C   0  0  0  0  0  0  0  0  0  0  0  0
   33.0062   28.2306   37.3408 O   0  0  0  0  0  0  0  0  0  0  0  0
   34.5338   27.4777   36.9311 C   0  0  0  0  0  0  0  0  0  0  0  0
   35.4127   27.9217   33.5981 O   0  0  0  0  0  0  0  0  0  0  0  0
  3  2  1  0
  4  1  2  0
  5  1  1  0
  7  3  1  0
  8  2  1  0
  9  6  1  0
 10  3  1  0
 10  8  1  0
 11  6  1  0
 12  6  1  0
 13  1  1  0
 15  5  1  0
  3 17  1  6
 18  8  1  0
 19  4  1  0
 19 15  2  0
 20 12  1  0
 20 16  1  0
 21  6  1  0
 22  4  1  0
 22  7  1  0
 22 14  2  3
 23 20  1  0
 24  8  1  0
 24 23  1  0
  2 25  1  6
M  RAD  2   6   2  11   2
M  END
>  <ID>  (1) 
conformer_0

$$$$
