
     RDKit          3D

 26 28  0  0  0  0  0  0  0  0999 V2000
   34.5782   28.1884   35.1530 C   0  0  0  0  0  0  0  0  0  0  0  0
   29.1183   26.8541   31.1129 C   0  0  0  0  0  0  0  0  0  0  0  0
   33.9989   27.7706   33.9208 C   0  0  0  0  0  0  0  0  0  0  0  0
   30.7067   27.6567   34.9536 C   0  0  0  0  0  0  0  0  0  0  0  0
   27.9964   27.3967   31.9104 N   0  0  0  0  0  0  0  0  0  0  0  0
   33.3460   26.2781   35.1416 O   0  0  0  0  0  0  0  0  0  0  0  0
   29.3265   27.8601   34.8827 N   0  0  0  0  0  0  0  0  0  0  0  0
   27.9026   27.7821   33.1852 C   0  0  0  0  0  0  0  0  0  0  0  0
   33.9263   28.7769   40.8565 P   0  0  0  0  0  4  0  0  0  0  0  0
   31.3834   27.2898   33.9569 N   0  0  0  0  0  0  0  0  0  0  0  0
   33.0505   27.0130   33.7249 C   0  0  0  0  0  0  0  0  0  0  0  0
   26.7506   28.2954   33.5500 N   0  0  0  0  0  0  0  0  0  0  0  0
   33.2834   30.1142   38.5185 O   0  0  0  0  0  0  0  0  0  0  0  0
   33.5000   27.5545   41.8327 O   0  0  0  0  0  0  0  0  0  0  0  0
   35.5042   28.2181   33.3443 O   0  0  0  0  0  0  0  0  0  0  0  0
   34.9855   29.1253   40.9956 O   0  0  0  0  0  1  0  0  0  0  0  0
   33.2318   27.7744   37.1049 O   0  0  0  0  0  0  0  0  0  0  0  0
   35.2043   29.5912   35.3755 O   0  0  0  0  0  0  0  0  0  0  0  0
   30.4277   27.0091   31.8086 N   0  0  0  0  0  0  0  0  0  0  0  0
   31.3854   28.3926   38.8450 O   0  0  0  0  0  0  0  0  0  0  0  0
   32.8463   28.5801   38.4293 P   0  0  0  0  0  0  0  0  0  0  0  0
   34.1967   27.3338   36.2960 C   0  0  0  0  0  0  0  0  0  0  0  0
   29.1277   27.6477   33.7285 C   0  0  0  0  0  0  0  0  0  0  0  0
   33.6589   27.9613   39.3148 O   0  0  0  0  0  0  0  0  0  0  0  0
   30.3564   27.2466   32.8400 C   0  0  0  0  0  0  0  0  0  0  0  0
   34.2883   26.7559   32.3320 O   0  0  0  0  0  0  0  0  0  0  0  0
  3  1  1  0
  5  2  2  0
  7  4  2  0
  8  5  1  0
 10  4  1  0
 11  3  1  0
 11  6  1  0
 11 10  1  0
 12  8  1  0
 14  9  1  0
 15  3  1  0
 16  9  1  0
 18  1  1  0
 19  2  1  0
 20  9  1  0
 21 13  1  0
 21 17  1  0
 22  1  1  0
 22  6  1  0
 22 17  1  0
 23  7  1  0
 23  8  2  0
 24  9  1  0
 24 21  1  0
 25 10  1  0
 25 19  2  0
 25 23  1  0
 26 11  1  0
M  RAD  2   9   2  16   2
M  END
>  <ID>  (1) 
conformer_0

$$$$
