
     RDKit          3D

 25 26  0  0  0  0  0  0  0  0999 V2000
   33.9511   27.8439   33.8853 C   0  0  2  0  0  0  0  0  0  0  0  0
   29.1250   26.9069   31.4436 C   0  0  0  0  0  0  0  0  0  0  0  0
   34.5645   27.9519   35.1430 C   0  0  0  0  0  0  0  0  0  0  0  0
   28.1088   27.3988   32.0095 N   0  0  0  0  0  0  0  0  0  0  0  0
   30.6115   27.7661   34.4760 C   0  0  0  0  0  0  0  0  0  0  0  0
   26.9043   28.1021   33.8018 N   0  0  0  0  0  0  0  0  0  0  0  0
   31.5587   27.3318   33.5809 N   0  0  0  0  0  0  0  0  0  0  0  0
   33.7657   28.2679   41.2286 P   0  0  2  0  0  4  0  0  0  0  0  0
   33.3329   26.3840   34.8636 O   0  0  0  0  0  0  0  0  0  0  0  0
   33.0937   27.1011   33.2688 C   0  0  2  0  0  0  0  0  0  0  0  0
   29.6991   28.1010   34.8637 N   0  0  0  0  0  0  0  0  0  0  0  0
   33.5622   27.3283   42.1416 O   0  0  0  0  0  0  0  0  0  0  0  0
   28.3799   27.7660   33.4522 C   0  0  0  0  0  3  0  0  0  0  0  0
   31.3230   28.1655   38.8220 O   0  0  0  0  0  1  0  0  0  0  0  0
   35.2559   28.5078   40.8947 O   0  0  0  0  0  0  0  0  0  0  0  0
   35.7529   28.6909   34.5850 O   0  0  0  0  0  0  0  0  0  0  0  0
   32.9942   29.9554   38.7437 O   0  0  0  0  0  0  0  0  0  0  0  0
   34.6861   27.5873   32.3775 O   0  0  0  0  0  0  0  0  0  0  0  0
   32.6864   28.5066   38.5152 P   0  0  0  0  0  0  0  0  0  0  0  0
   30.2899   26.9495   31.6555 N   0  0  0  0  0  0  0  0  0  0  0  0
   33.7053   27.9223   39.0421 O   0  0  0  0  0  0  0  0  0  0  0  0
   30.2474   27.3631   32.9969 C   0  0  0  0  0  0  0  0  0  0  0  0
   34.4953   27.6816   36.3161 C   0  0  0  0  0  0  0  0  0  0  0  0
   32.9810   29.0869   41.3766 O   0  0  0  0  0  0  0  0  0  0  0  0
   32.7677   28.0976   37.0360 O   0  0  0  0  0  0  0  0  0  0  0  0
  3  1  1  0
  4  2  2  0
  7  5  1  0
 10  1  1  0
 10  7  1  0
 10  9  1  1
 11  5  2  3
  8 12  1  1
 13  4  1  0
 13  6  1  0
 14  8  1  0
 16  3  1  0
  1 18  1  6
 19 17  1  0
 20  2  1  0
 21  8  1  0
 21 19  1  0
 22  5  1  0
 22  7  1  0
 22 13  1  0
 22 20  1  0
 23  3  1  0
 24  8  1  0
 24 15  1  0
 25 19  1  0
 25 23  1  0
M  RAD  3   8   2  13   2  14   2
M  END
>  <ID>  (1) 
conformer_0

$$$$
