
     RDKit          3D

 25 25  0  0  0  0  0  0  0  0999 V2000
   33.0913   27.0501   33.5325 C   0  0  1  0  0  0  0  0  0  0  0  0
   28.2984   27.7152   33.3847 C   0  0  0  0  0  0  0  0  0  0  0  0
   34.1943   27.4934   33.7742 C   0  0  0  0  0  0  0  0  0  0  0  0
   29.7983   27.4446   33.1576 C   0  0  0  0  0  0  0  0  0  0  0  0
   27.9688   27.3344   31.9005 N   0  0  0  0  0  0  0  0  0  0  0  0
   33.3072   26.1925   34.9631 O   0  0  0  0  0  0  0  0  0  0  0  0
   29.5627   28.0341   34.8359 N   0  0  0  0  0  0  0  0  0  0  0  0
   26.8245   28.1063   33.6350 N   0  0  0  0  0  0  0  0  0  0  0  0
   34.6464   27.6219   35.0716 C   0  0  0  0  0  0  0  0  0  0  0  0
   33.6297   28.2628   41.4480 P   0  0  0  0  0  4  0  0  0  0  0  0
   29.0204   26.7707   31.3559 C   0  0  0  0  0  0  0  0  0  0  0  0
   31.4325   27.2867   33.9814 N   0  0  0  0  0  0  0  0  0  0  0  0
   33.6435   27.7196   42.7751 O   0  0  0  0  0  0  0  0  0  0  0  0
   31.6415   28.9479   38.1544 O   0  0  0  0  0  0  0  0  0  0  0  0
   33.5693   30.0805   38.8961 O   0  0  0  0  0  0  0  0  0  0  0  0
   30.1694   26.9733   31.6968 N   0  0  0  0  0  0  0  0  0  0  0  0
   33.1814   27.5974   39.7068 O   0  0  0  0  0  0  0  0  0  0  0  0
   34.2136   27.3335   32.0556 O   0  0  0  0  0  0  0  0  0  0  0  0
   33.1037   28.6894   38.5131 P   0  0  0  0  0  0  0  0  0  0  0  0
   30.6428   27.6795   34.5960 C   0  0  0  0  0  0  0  0  0  0  0  0
   34.3894   27.4001   36.4756 C   0  0  2  0  0  0  0  0  0  0  0  0
   34.8656   28.3421   41.0488 O   0  0  0  0  0  1  0  0  0  0  0  0
   33.5015   28.1583   37.3419 O   0  0  0  0  0  0  0  0  0  0  0  0
   35.8442   27.8262   33.6742 O   0  0  0  0  0  0  0  0  0  0  0  0
   32.5295   29.1575   41.6002 O   0  0  0  0  0  0  0  0  0  0  0  0
  3  1  1  0
  4  2  2  0
  5  2  1  0
  1  6  1  1
  8  2  1  0
  9  3  1  0
 11  5  1  0
 12  1  1  0
 13 10  1  0
 16  4  1  0
 16 11  2  0
 17 10  1  0
 18  3  1  0
 19 15  1  0
 19 17  1  0
 20  4  1  0
 20  7  2  3
 20 12  1  0
 21  9  1  0
 21 14  1  6
 22 10  1  0
 23 19  1  0
 23 21  1  0
 24  3  1  0
 25 10  1  0
M  RAD  2  10   2  22   2
M  END
>  <ID>  (1) 
conformer_0

$$$$
