
     RDKit          3D

 25 27  0  0  0  0  0  0  0  0999 V2000
   30.1795   27.5114   33.1908 C   0  0  0  0  0  0  0  0  0  0  0  0
   33.9342   27.7484   34.0487 C   0  0  0  0  0  0  0  0  0  0  0  0
   34.3841   27.7080   35.3402 C   0  0  0  0  0  0  0  0  0  0  0  0
   28.1108   27.4922   32.2326 N   0  0  0  0  0  0  0  0  0  0  0  0
   29.0553   26.9704   31.4592 C   0  0  0  0  0  0  0  0  0  0  0  0
   29.7177   28.1292   34.9365 N   0  0  0  0  0  0  0  0  0  0  0  0
   34.1072   28.6796   40.8692 P   0  0  0  0  0  4  0  0  0  0  0  0
   33.4759   27.7894   41.7740 O   0  0  0  0  0  0  0  0  0  0  0  0
   26.9152   28.1693   34.0155 N   0  0  0  0  0  0  0  0  0  0  0  0
   33.4192   26.3089   35.2366 O   0  0  0  0  0  0  0  0  0  0  0  0
   33.0689   26.9962   33.3752 C   0  0  0  0  0  0  0  0  0  0  0  0
   33.2219   27.7449   37.3370 O   0  0  0  0  0  0  0  0  0  0  0  0
   35.2360   28.9148   41.0127 O   0  0  0  0  0  1  0  0  0  0  0  0
   34.1463   26.9783   32.1252 O   0  0  0  0  0  0  0  0  0  0  0  0
   28.4790   27.8030   33.5569 C   0  0  0  0  0  0  0  0  0  0  0  0
   33.5738   30.1180   40.4981 O   0  0  0  0  0  0  0  0  0  0  0  0
   30.2710   27.0732   31.8145 N   0  0  0  0  0  0  0  0  0  0  0  0
   31.4436   27.3669   33.7537 N   0  0  0  0  0  0  0  0  0  0  0  0
   32.7365   28.2107   38.5259 P   0  0  0  0  0  4  0  0  0  0  0  0
   31.4427   27.8694   38.7818 O   0  0  0  0  0  1  0  0  0  0  0  0
   30.5965   27.9523   34.8979 C   0  0  0  0  0  0  0  0  0  0  0  0
   35.1650   28.3545   33.8664 O   0  0  0  0  0  0  0  0  0  0  0  0
   32.8386   29.7756   38.3524 O   0  0  0  0  0  0  0  0  0  0  0  0
   34.4764   27.3187   36.6958 C   0  0  0  0  0  0  0  0  0  0  0  0
   33.8495   27.8633   39.4069 O   0  0  0  0  0  0  0  0  0  0  0  0
  3  2  1  0
  5  4  2  0
  8  7  1  0
 10  3  1  0
 11  2  1  0
 13  7  1  0
 14 11  1  0
 15  1  1  0
 15  4  1  0
 15  6  1  0
 15  9  1  0
 16  7  1  0
 17  1  1  0
 17  5  1  0
 18  1  1  0
 18 11  1  0
 19 12  1  0
 20 19  1  0
 21  1  1  0
 21  6  2  0
 21 18  1  0
 22  2  1  0
 23 19  1  0
 24  3  1  0
 24 12  1  0
 25  7  1  0
 25 19  1  0
M  RAD  4   7   2  13   2  19   2  20   2
M  END
>  <ID>  (1) 
conformer_0

$$$$
