
     RDKit          3D

 25 25  0  0  0  0  0  0  0  0999 V2000
   28.4062   27.6553   33.2482 C   0  0  0  0  0  0  0  0  0  0  0  0
   34.0017   27.7644   34.0488 C   0  0  2  0  0  0  0  0  0  0  0  0
   33.1765   27.0494   33.4544 C   0  0  0  0  0  0  0  0  0  0  0  0
   28.2155   27.2576   31.6493 N   0  0  0  0  0  0  0  0  0  0  0  0
   30.6827   27.5909   34.3462 C   0  0  0  0  0  0  0  0  0  0  0  0
   29.5749   27.9485   34.7790 N   0  0  0  0  0  0  0  0  0  0  0  0
   26.9567   28.0093   33.5423 N   0  0  0  0  0  0  0  0  0  0  0  0
   31.5737   27.2931   33.7867 N   0  0  0  0  0  0  0  0  0  0  0  0
   32.7735   28.3544   38.4271 P   0  0  0  0  0  0  0  0  0  0  0  0
   34.6562   27.8723   35.3103 C   0  0  0  0  0  0  0  0  0  0  0  0
   33.3142   26.4276   35.1559 O   0  0  0  0  0  0  0  0  0  0  0  0
   34.4396   26.8880   32.4684 O   0  0  0  0  0  0  0  0  0  0  0  0
   33.4743   27.8122   42.4711 O   0  0  0  0  0  0  0  0  0  0  0  0
   34.8899   28.3037   40.7230 O   0  0  0  0  0  0  0  0  0  0  0  0
   33.1982   29.6752   38.1275 O   0  0  0  0  0  0  0  0  0  0  0  0
   29.3728   26.9055   31.1408 C   0  0  0  0  0  0  0  0  0  0  0  0
   30.4679   26.9898   31.5121 N   0  0  0  0  0  0  0  0  0  0  0  0
   31.2679   28.4585   38.5305 O   0  0  0  0  0  0  0  0  0  0  0  0
   34.8041   29.3246   34.1195 O   0  0  0  0  0  0  0  0  0  0  0  0
   33.6988   28.5298   41.2983 P   0  0  0  0  0  5  0  0  0  0  0  0
   33.4575   27.6198   37.3353 O   0  0  0  0  0  0  0  0  0  0  0  0
   34.5383   27.3030   36.5538 C   0  0  0  0  0  0  0  0  0  0  0  0
   29.9884   27.3204   32.9890 C   0  0  2  0  0  0  0  0  0  0  0  0
   34.1165   29.9810   40.8801 O   0  0  0  0  0  0  0  0  0  0  0  0
   33.1017   27.6120   39.6342 O   0  0  0  0  0  0  0  0  0  0  0  0
  3  2  1  0
  4  1  2  0
  6  5  2  3
  7  1  1  0
  8  3  1  0
  8  5  1  0
 10  2  1  0
 11  3  1  0
 12  3  1  0
 15  9  1  0
 16  4  1  0
 17 16  2  0
  2 19  1  1
 20 13  1  0
 20 14  1  0
 20 18  1  0
 21  9  1  0
 22 10  1  0
 22 21  1  0
 23  1  1  0
 23  5  1  6
 23 17  1  0
 24 20  1  0
 25  9  1  0
 25 20  1  0
M  END
>  <ID>  (1) 
conformer_0

$$$$
