
     RDKit          3D

 25 26  0  0  0  0  0  0  0  0999 V2000
   29.8095   27.5697   32.9595 C   0  0  0  0  0  0  0  0  0  0  0  0
   34.6211   28.0502   35.0848 C   0  0  0  0  0  0  0  0  0  0  0  0
   34.2981   27.4340   36.1987 C   0  0  2  0  0  0  0  0  0  0  0  0
   29.0819   26.7622   31.1818 C   0  0  0  0  0  0  0  0  0  0  0  0
   30.3586   27.2171   31.8517 N   0  0  0  0  0  0  0  0  0  0  0  0
   33.8414   28.1138   41.4543 P   0  0  0  0  0  0  0  0  0  0  0  0
   26.8959   28.1141   33.7819 N   0  0  0  0  0  0  0  0  0  0  0  0
   29.7612   28.0726   34.8974 N   0  0  0  0  0  0  0  0  0  0  0  0
   33.5427   27.3787   42.6184 O   0  0  0  0  0  0  0  0  0  0  0  0
   33.2469   26.5051   34.9897 O   0  0  0  0  0  0  0  0  0  0  0  0
   35.0727   28.5832   41.5428 O   0  0  0  0  0  0  0  0  0  0  0  0
   33.9656   27.9067   33.8548 C   0  0  0  0  0  0  0  0  0  0  0  0
   32.7581   28.3105   38.5139 P   0  0  0  0  0  5  0  0  0  0  0  0
   28.3094   27.7596   33.4073 C   0  0  1  0  0  0  0  0  0  0  0  0
   31.5733   27.7833   39.0036 O   0  0  0  0  0  0  0  0  0  0  0  0
   34.3021   27.0361   32.1921 O   0  0  0  0  0  0  0  0  0  0  0  0
   33.9168   29.1665   38.9999 O   0  0  0  0  0  0  0  0  0  0  0  0
   35.5387   28.8732   34.3224 O   0  0  0  0  0  0  0  0  0  0  0  0
   31.4340   27.6038   33.8562 N   0  0  0  0  0  0  0  0  0  0  0  0
   28.0852   27.3435   31.8888 N   0  0  0  0  0  0  0  0  0  0  0  0
   30.5154   27.9036   34.6561 C   0  0  0  0  0  0  0  0  0  0  0  0
   33.5362   27.4028   39.9034 O   0  0  0  0  0  0  0  0  0  0  0  0
   33.3566   27.5805   37.2288 O   0  0  0  0  0  0  0  0  0  0  0  0
   33.0544   27.2526   33.4292 C   0  0  1  0  0  0  0  0  0  0  0  0
   32.2557   29.5925   37.8397 O   0  0  0  0  0  0  0  0  0  0  0  0
  3  2  1  0
  5  1  2  0
  5  4  1  0
  9  6  1  0
 10  3  1  0
 11  6  1  0
 12  2  2  0
 14  1  1  0
 14  7  1  6
 15 13  1  0
 17 13  1  0
 18  2  1  0
 20  4  2  0
 20 14  1  0
 21  1  1  0
 21  8  2  3
 21 19  1  0
 22  6  1  0
 22 13  1  0
  3 23  1  1
 23 13  1  0
 24 10  1  0
 24 12  1  0
 24 16  1  6
 24 19  1  0
 25 15  1  0
M  END
>  <ID>  (1) 
conformer_0

$$$$
