
     RDKit          3D

 25 27  0  0  0  0  0  0  0  0999 V2000
   34.8033   27.9708   35.1665 C   0  0  0  0  0  0  0  0  0  0  0  0
   28.4950   27.7408   33.4101 C   0  0  0  0  0  0  0  0  0  0  0  0
   34.0015   27.9029   33.7760 C   0  0  0  0  0  0  0  0  0  0  0  0
   28.2171   27.3208   31.8681 N   0  0  0  0  0  2  0  0  0  0  0  0
   29.9424   27.4461   33.2636 C   0  0  0  0  0  0  0  0  0  0  0  0
   29.5622   28.0389   34.9353 N   0  0  0  0  0  0  0  0  0  0  0  0
   27.0061   28.2725   33.6975 N   0  0  0  0  0  0  0  0  0  0  0  0
   33.8108   28.5148   41.2303 P   0  0  0  0  0  0  0  0  0  0  0  0
   33.4779   26.3262   35.0911 O   0  0  0  0  0  0  0  0  0  0  0  0
   29.3346   26.7904   31.2375 C   0  0  0  0  0  0  0  0  0  0  0  0
   31.5218   27.3852   34.1260 N   0  0  0  0  0  0  0  0  0  0  0  0
   34.3686   27.1515   36.4203 C   0  0  0  0  0  0  0  0  0  0  0  0
   34.6004   28.1963   40.9526 O   0  0  0  0  0  0  0  0  0  0  0  0
   35.4204   28.4724   33.2491 O   0  0  0  0  0  0  0  0  0  0  0  0
   32.8496   29.1548   38.0293 O   0  0  0  0  0  0  0  0  0  0  0  0
   30.5028   27.0357   31.9991 N   0  0  0  0  0  0  0  0  0  0  0  0
   34.0851   26.9945   32.1199 O   0  0  0  0  0  0  0  0  0  0  0  0
   33.6152   27.4826   37.6430 O   0  0  0  0  0  0  0  0  0  0  0  0
   33.5742   27.5783   42.2636 O   0  0  0  0  0  0  0  0  0  0  0  0
   33.1543   28.3815   38.7454 P   0  0  0  0  0  5  0  0  0  0  0  0
   30.7073   27.6892   34.8051 C   0  0  0  0  0  0  0  0  0  0  0  0
   31.8060   28.2578   38.9375 O   0  0  0  0  0  0  0  0  0  0  0  0
   33.0662   27.0834   33.7792 C   0  0  0  0  0  0  0  0  0  0  0  0
   34.2929   29.9342   39.3769 O   0  0  0  0  0  0  0  0  0  0  0  0
   35.3916   29.3176   35.2698 O   0  0  0  0  0  0  0  0  0  0  0  0
  3  1  1  0
  4  2  1  0
  5  2  1  0
  6  2  1  0
  7  2  1  0
 10  4  1  0
 12  1  1  0
 12  9  1  0
 13  8  1  0
 14  3  1  0
 16  5  1  0
 16 10  2  0
 17  3  1  0
 18 12  1  0
 19  8  1  0
 20 15  1  0
 20 18  1  0
 21  5  1  0
 21  6  2  0
 21 11  1  0
 22  8  1  0
 22 20  1  0
 23  3  1  0
 23  9  1  0
 23 11  1  0
 24 20  1  0
 25  1  1  0
M  RAD  1   4   2
M  END
>  <ID>  (1) 
conformer_0

$$$$
