
     RDKit          3D

 26 27  0  0  0  0  0  0  0  0999 V2000
   34.0370   27.6874   33.9509 C   0  0  0  0  0  0  0  0  0  0  0  0
   30.8111   27.8669   35.1740 C   0  0  0  0  0  0  0  0  0  0  0  0
   34.3392   27.7588   35.2031 C   0  0  0  0  0  0  0  0  0  0  0  0
   30.7191   27.2697   32.9735 C   0  0  0  0  0  0  0  0  0  0  0  0
   28.0351   27.3374   32.0444 N   0  0  0  0  0  0  0  0  0  0  0  0
   26.9130   28.2565   33.8642 N   0  0  0  0  0  0  0  0  0  0  0  0
   29.6607   27.9923   35.1368 N   0  0  0  0  0  0  0  0  0  0  0  0
   33.2024   26.1299   34.8934 O   0  0  0  0  0  0  0  0  0  0  0  0
   31.4744   27.2542   33.5610 N   0  0  0  0  0  0  0  0  0  0  0  0
   33.0804   26.9926   33.3687 C   0  0  0  0  0  0  0  0  0  0  0  0
   33.8741   28.8771   41.3440 P   0  0  0  0  0  5  0  0  0  0  0  0
   28.1712   27.8073   33.4950 C   0  0  0  0  0  0  0  0  0  0  0  0
   35.4171   28.6086   41.4547 O   0  0  0  0  0  0  0  0  0  0  0  0
   31.8003   27.9224   39.1848 O   0  0  0  0  0  0  0  0  0  0  0  0
   34.7295   27.1099   32.4023 O   0  0  0  0  0  0  0  0  0  0  0  0
   32.8536   29.7529   41.5307 O   0  0  0  0  0  0  0  0  0  0  0  0
   33.1652   29.9082   38.7141 O   0  0  0  0  0  0  0  0  0  0  0  0
   30.2428   27.0180   31.7240 N   0  0  0  0  0  0  0  0  0  0  0  0
   35.1887   28.8638   34.0349 O   0  0  0  0  0  0  0  0  0  0  0  0
   33.1136   28.4697   38.6564 P   0  0  0  0  0  0  0  0  0  0  0  0
   33.4145   27.7447   37.2629 O   0  0  0  0  0  0  0  0  0  0  0  0
   29.1108   26.9513   31.4437 C   0  0  0  0  0  0  0  0  0  0  0  0
   34.1733   27.1336   36.4576 C   0  0  0  0  0  0  0  0  0  0  0  0
   33.9730   28.0683   39.5313 O   0  0  0  0  0  0  0  0  0  0  0  0
   33.5158   27.6789   42.1432 O   0  0  0  0  0  0  0  0  0  0  0  0
   29.3638   27.5891   33.7358 C   0  0  0  0  0  0  0  0  0  0  0  0
  3  1  1  0
  7  2  2  0
  9  2  1  0
  9  4  1  0
 10  1  1  0
 10  8  1  0
 10  9  1  0
 12  5  2  0
 12  6  1  0
 13 11  1  0
 14 11  1  0
 15  1  1  0
 16 11  1  0
 18  4  1  0
 19  1  1  0
 20 17  1  0
 21 20  1  0
 22  5  1  0
 22 18  2  0
 23  3  1  0
 23 21  1  0
 24 11  1  0
 24 20  1  0
 25 11  1  0
 26  4  2  0
 26  7  1  0
 26 12  1  0
M  END
>  <ID>  (1) 
conformer_0

$$$$
