
     RDKit          3D

 23 23  0  0  0  0  0  0  0  0999 V2000
   29.1895   26.9238   31.5109 C   0  0  0  0  0  0  0  0  0  0  0  0
   33.1905   27.1138   33.4897 C   0  0  0  0  0  0  0  0  0  0  0  0
   33.9276   27.8643   33.8375 C   0  0  1  0  0  0  0  0  0  0  0  0
   30.0533   27.4420   33.2371 C   0  0  0  0  0  0  0  0  0  0  0  0
   28.1379   27.3144   31.9357 N   0  0  0  0  0  0  0  0  0  0  0  0
   31.5191   27.4400   33.8649 N   0  0  0  0  0  0  0  0  0  0  0  0
   26.9683   28.1882   33.5573 N   0  0  0  0  0  0  0  0  0  0  0  0
   33.7361   28.7570   41.2068 P   0  0  0  0  0  0  0  0  0  0  0  0
   33.4245   26.3169   35.1525 O   0  0  0  0  0  0  0  0  0  0  0  0
   29.7183   27.9394   34.9911 N   0  0  0  0  0  0  0  0  0  0  0  0
   33.5600   27.8542   41.8626 O   0  0  0  0  0  0  0  0  0  0  0  0
   34.4899   27.8862   35.1773 C   0  0  0  0  0  0  0  0  0  0  0  0
   32.0436   27.7979   39.0906 O   0  0  0  0  0  0  0  0  0  0  0  0
   28.4741   27.7388   33.4630 C   0  0  0  0  0  0  0  0  0  0  0  0
   33.3355   29.9169   38.7000 O   0  0  0  0  0  0  0  0  0  0  0  0
   33.9914   26.9748   31.9364 O   0  0  0  0  0  0  0  0  0  0  0  0
   34.8318   29.0172   40.6757 O   0  0  0  0  0  0  0  0  0  0  0  0
   33.1852   28.3923   38.5807 P   0  0  0  0  0  0  0  0  0  0  0  0
   30.3259   27.0594   31.7332 N   0  0  0  0  0  0  0  0  0  0  0  0
   33.7108   27.7192   37.7857 O   0  0  0  0  0  0  0  0  0  0  0  0
   30.6962   27.7365   34.6925 C   0  0  0  0  0  0  0  0  0  0  0  0
   35.2316   28.2161   33.3502 O   0  0  0  0  0  0  0  0  0  0  0  0
   34.5863   27.2934   36.4865 C   0  0  0  0  0  0  0  0  0  0  0  0
  3  2  1  0
  5  1  2  0
  6  2  1  0
  9  2  1  0
 11  8  1  0
 12  3  1  0
 13  8  1  0
 14  4  2  0
 14  5  1  0
 14  7  1  0
 16  2  1  0
 17  8  1  0
 18 13  1  0
 18 15  1  0
 19  1  1  0
 19  4  1  0
 20 18  1  0
 21  4  1  0
 21  6  1  0
 21 10  2  3
  3 22  1  6
 23 12  1  0
 23 20  1  0
M  END
>  <ID>  (1) 
conformer_0

$$$$
