
     RDKit          3D

 14 15  0  0  0  0  0  0  0  0999 V2000
  -14.8046   -6.7781  -21.8322 O   0  0  0  0  0  0  0  0  0  0  0  0
  -14.0046   -6.1781  -22.7322 C   0  0  0  0  0  0  0  0  0  0  0  0
  -13.1046   -6.8781  -23.4322 N   0  0  0  0  0  0  0  0  0  0  0  0
  -14.3046   -4.7781  -22.9322 C   0  0  0  0  0  0  0  0  0  0  0  0
  -14.8046   -3.7781  -22.1322 N   0  0  0  0  0  0  0  0  0  0  0  0
  -14.8046   -2.5781  -22.6322 C   0  0  0  0  0  0  0  0  0  0  0  0
  -12.4046   -6.3781  -24.4322 C   0  0  0  0  0  0  0  0  0  0  0  0
  -11.8046   -7.1781  -25.4322 N   0  0  0  0  0  0  0  0  0  0  0  0
  -12.9046   -5.0781  -24.9322 N   0  0  0  0  0  0  0  0  0  0  0  0
  -13.8046   -4.3781  -24.1322 C   0  0  0  0  0  0  0  0  0  0  0  0
  -14.8046   -3.5781  -24.7322 N   0  0  0  0  0  0  0  0  0  0  0  0
  -15.4046   -2.4781  -24.0322 C   0  0  0  0  0  0  0  0  0  0  0  0
  -14.8046   -3.3781  -26.1322 C   0  0  0  0  0  0  0  0  0  0  0  0
  -14.2046   -1.9781  -23.3322 N   0  0  0  0  0  0  0  0  0  0  0  0
  2  1  2  0
  3  2  1  0
  4  2  1  0
  5  4  2  0
  6  5  1  0
  7  3  2  0
  8  7  1  0
  9  7  1  0
 10  4  1  0
 10  9  1  0
 11 10  1  0
 12  6  2  0
 12 11  1  0
 13 11  1  0
 14  6  1  0
M  END
>  <ID>  (1) 
conformer_0

$$$$
