
     RDKit          3D

 21 24  0  0  0  0  0  0  0  0999 V2000
  -15.0272   -6.4139  -21.4878 O   0  0  0  0  0  0  0  0  0  0  0  0
  -14.7272   -5.2139  -22.0878 C   0  0  0  0  0  0  0  0  0  0  0  0
  -13.9272   -5.0139  -23.1878 C   0  0  0  0  0  3  0  0  0  0  0  0
  -12.9272   -5.5139  -23.9878 C   0  0  0  0  0  0  0  0  0  0  0  0
  -12.7272   -4.8139  -25.0878 N   0  0  0  0  0  0  0  0  0  0  0  0
  -12.7272   -6.7139  -23.4878 N   0  0  0  0  0  0  0  0  0  0  0  0
  -14.5272   -3.9139  -23.9878 N   0  0  0  0  0  0  0  0  0  0  0  0
  -15.2272   -4.0139  -21.6878 N   0  0  0  0  0  0  0  0  0  0  0  0
  -14.9272   -3.1139  -22.6878 C   0  0  0  0  0  0  0  0  0  0  0  0
  -13.6272   -3.6139  -24.9878 C   0  0  0  0  0  0  0  0  0  0  0  0
  -15.0272   -1.7139  -23.0878 C   0  0  0  0  0  0  0  0  0  0  0  0
  -15.0272   -1.5139  -24.4878 C   0  0  0  0  0  0  0  0  0  0  0  0
  -13.8272   -2.8139  -26.1878 C   0  0  0  0  0  0  0  0  0  0  0  0
  -13.8272   -1.4139  -23.9878 N   0  0  0  0  0  0  0  0  0  0  0  0
  -13.2272   -1.5139  -26.2878 C   0  0  0  0  0  0  0  0  0  0  0  0
  -13.7272   -0.2139  -26.0878 O   0  0  0  0  0  0  0  0  0  0  0  0
  -11.8272   -1.5139  -26.4878 C   0  0  0  0  0  0  0  0  0  0  0  0
  -12.7272    0.7861  -26.3878 C   0  0  0  0  0  0  0  0  0  0  0  0
  -13.2272   -0.2139  -23.5878 O   0  0  0  0  0  0  0  0  0  0  0  0
  -11.1272   -0.7139  -25.4878 O   0  0  0  0  0  0  0  0  0  0  0  0
  -11.7272   -6.4139  -24.0878 C   0  0  0  0  0  0  0  0  0  0  0  0
  2  1  2  0
  3  2  1  0
  4  3  1  0
  5  4  1  0
  6  4  1  0
  7  3  1  0
  8  2  1  0
  9  7  1  0
  9  8  1  0
 10  5  2  0
 10  7  1  0
 11  9  1  0
 12 11  1  0
 13 10  1  0
 14 11  1  0
 14 12  1  0
 15 13  1  0
 16 15  1  0
 17 15  1  0
 18 16  1  0
 19 14  1  0
 20 17  1  0
 21  4  1  0
 21  6  2  0
M  END
>  <ID>  (1) 
conformer_0

$$$$
