
     RDKit          3D

 24 27  0  0  0  0  0  0  0  0999 V2000
  -15.1130   -6.2558  -21.5723 O   0  0  0  0  0  0  0  0  0  0  0  0
  -14.4130   -5.2558  -22.3723 C   0  0  0  0  0  0  0  0  0  0  0  0
  -15.0130   -4.1558  -22.8723 C   0  0  0  0  0  0  0  0  0  0  0  0
  -14.5130   -3.4558  -23.9723 N   0  0  0  0  0  0  0  0  0  0  0  0
  -13.6130   -5.5558  -23.3723 C   0  0  0  0  0  0  0  0  0  0  0  0
  -13.2130   -5.0558  -24.5723 N   0  0  0  0  0  0  0  0  0  0  0  0
  -14.2130   -4.1558  -24.9723 C   0  0  0  0  0  0  0  0  0  0  0  0
  -14.9130   -2.0558  -24.0723 C   0  0  0  0  0  0  0  0  0  0  0  0
  -14.8130   -1.6558  -25.4723 C   0  0  0  0  0  0  0  0  0  0  0  0
  -15.0130   -2.0558  -26.6723 O   0  0  0  0  0  0  0  0  0  0  0  0
  -14.3130   -0.2558  -25.4723 C   0  0  0  0  0  0  0  0  0  0  0  0
  -14.2130    0.2442  -24.0723 C   0  0  0  0  0  0  0  0  0  0  0  0
  -15.0130    0.5442  -26.3723 O   0  0  0  0  0  0  0  0  0  0  0  0
  -14.3130   -1.0558  -23.2723 O   0  0  0  0  0  0  0  0  0  0  0  0
  -15.3130    1.2442  -23.9723 C   0  0  0  0  0  0  0  0  0  0  0  0
  -15.5130    1.3442  -22.5723 O   0  0  0  0  0  0  0  0  0  0  0  0
  -16.7130    1.8442  -21.8723 P   0  0  0  0  0  4  0  0  0  0  0  0
  -17.1130    1.7442  -20.5723 O   0  0  0  0  0  1  0  0  0  0  0  0
  -17.4130    2.9442  -22.5723 O   0  0  0  0  0  0  0  0  0  0  0  0
  -13.0130   -6.8558  -23.2723 N   0  0  0  0  0  0  0  0  0  0  0  0
  -11.9130   -6.8558  -24.0723 N   0  0  0  0  0  0  0  0  0  0  0  0
  -12.2130   -5.8558  -24.9723 C   0  0  0  0  0  0  0  0  0  0  0  0
  -11.2130   -5.7558  -24.3723 C   0  0  0  0  0  0  0  0  0  0  0  0
  -17.7130    0.8442  -22.3723 O   0  0  0  0  0  0  0  0  0  0  0  0
  2  1  1  0
  3  2  2  0
  4  3  1  0
  5  2  1  0
  6  5  1  0
  7  4  1  0
  7  6  1  0
  8  4  1  0
  9  8  1  0
 10  9  2  0
 11  9  1  0
 12 11  1  0
 13 11  1  0
 14  8  1  0
 14 12  1  0
 15 12  1  0
 16 15  1  0
 17 16  1  0
 18 17  2  0
 19 17  1  0
 20  5  2  0
 21 20  1  0
 22  6  1  0
 22 21  1  0
 23 21  1  0
 23 22  1  0
 24 17  1  0
M  END
>  <ID>  (1) 
conformer_0

$$$$
