
     RDKit          3D

 22 26  0  0  0  0  0  0  0  0999 V2000
  -12.4811   -5.9907  -24.7122 C   0  0  0  0  0  0  0  0  0  0  0  0
  -12.9811   -4.7907  -24.8122 N   0  0  0  0  0  0  0  0  0  0  0  0
  -12.5811   -6.7907  -23.7122 N   0  0  0  0  0  0  0  0  0  0  0  0
  -13.8811   -4.2907  -24.0122 C   0  0  0  0  0  0  0  0  0  0  0  0
  -14.5811   -3.1907  -23.7122 N   0  0  0  0  0  0  0  0  0  0  0  0
  -15.0811   -3.1907  -22.4122 C   0  0  0  0  0  0  0  0  0  0  0  0
  -14.9811   -4.3907  -21.9122 N   0  0  0  0  0  0  0  0  0  0  0  0
  -14.2811   -5.1907  -22.9122 C   0  0  0  0  0  0  0  0  0  0  0  0
  -13.7811   -6.4907  -22.8122 C   0  0  0  0  0  0  0  0  0  0  0  0
  -14.1811   -7.2907  -21.9122 O   0  0  0  0  0  0  0  0  0  0  0  0
  -14.9811   -2.0907  -24.6122 C   0  0  0  0  0  0  0  0  0  0  0  0
  -14.2811   -1.3907  -25.6122 C   0  0  0  0  0  0  0  0  0  0  0  0
  -11.7811   -6.6907  -25.8122 N   0  0  0  0  0  0  0  0  0  0  0  0
  -14.0811    0.0093  -25.5122 C   0  0  0  0  0  0  0  0  0  0  0  0
  -13.4811    0.6093  -24.3122 C   0  0  0  0  0  0  0  0  0  0  0  0
  -16.3811   -2.0907  -24.7122 O   0  0  0  0  0  0  0  0  0  0  0  0
  -15.2811    0.8093  -25.8122 O   0  0  0  0  0  0  0  0  0  0  0  0
  -15.6811   -1.0907  -23.9122 C   0  0  0  0  0  0  0  0  0  0  0  0
  -12.1811    0.8093  -24.1122 O   0  0  0  0  0  0  0  0  0  0  0  0
  -15.8811    0.1093  -23.5122 C   0  0  0  0  0  0  0  0  0  0  0  0
  -14.8811    0.4093  -22.5122 O   0  0  0  0  0  0  0  0  0  0  0  0
  -14.7811    1.2093  -23.6122 C   0  0  0  0  0  0  0  0  0  0  0  0
  2  1  2  0
  3  1  1  0
  4  2  1  0
  5  4  1  0
  6  5  1  0
  7  6  2  0
  8  4  2  0
  8  7  1  0
  9  3  1  0
  9  8  1  0
 10  9  2  0
 11  5  1  0
 12 11  1  0
 13  1  1  0
 14 12  1  0
 15 14  1  0
 16 11  1  0
 17 14  1  0
 18 11  1  0
 18 16  1  0
 19 15  1  0
 20 18  1  0
 21 20  1  0
 22 15  1  0
 22 20  1  0
 22 21  1  0
M  END
>  <ID>  (1) 
conformer_0

$$$$
