
     RDKit          3D

 19 22  0  0  0  0  0  0  0  0999 V2000
  -12.4811   -5.9907  -24.7122 C   0  0  0  0  0  0  0  0  0  0  0  0
  -12.9811   -4.7907  -24.8122 N   0  0  0  0  0  0  0  0  0  0  0  0
  -12.5811   -6.7907  -23.7122 N   0  0  0  0  0  0  0  0  0  0  0  0
  -13.8811   -4.2907  -24.0122 C   0  0  0  0  0  0  0  0  0  0  0  0
  -14.5811   -3.1907  -23.7122 N   0  0  0  0  0  0  0  0  0  0  0  0
  -15.0811   -3.1907  -22.4122 C   0  0  0  0  0  0  0  0  0  0  0  0
  -14.9811   -4.3907  -21.9122 N   0  0  0  0  0  0  0  0  0  0  0  0
  -14.2811   -5.1907  -22.9122 C   0  0  0  0  0  0  0  0  0  0  0  0
  -13.7811   -6.4907  -22.8122 C   0  0  0  0  0  0  0  0  0  0  0  0
  -14.1811   -7.2907  -21.9122 O   0  0  0  0  0  0  0  0  0  0  0  0
  -14.9811   -2.0907  -24.6122 C   0  0  0  0  0  0  0  0  0  0  0  0
  -14.2811   -1.3907  -25.6122 C   0  0  0  0  0  0  0  0  0  0  0  0
  -11.7811   -6.6907  -25.8122 N   0  0  0  0  0  0  0  0  0  0  0  0
  -14.5811    0.0093  -25.9122 C   0  0  0  0  0  0  0  0  0  0  0  0
  -13.9811    0.9093  -24.9122 C   0  0  0  0  0  0  0  0  0  0  0  0
  -14.2811    0.3093  -23.6122 C   0  0  0  0  0  0  0  0  0  0  0  0
  -15.1811   -0.8907  -23.6122 C   0  0  0  0  0  0  0  0  0  0  0  0
  -13.8811   -0.7907  -23.1122 O   0  0  0  0  0  0  0  0  0  0  0  0
  -14.5811    0.4093  -27.1122 O   0  0  0  0  0  0  0  0  0  0  0  0
  2  1  2  0
  3  1  1  0
  4  2  1  0
  5  4  1  0
  6  5  1  0
  7  6  2  0
  8  4  2  0
  8  7  1  0
  9  3  1  0
  9  8  1  0
 10  9  2  0
 11  5  1  0
 12 11  1  0
 13  1  1  0
 14 12  1  0
 15 14  1  0
 16 15  1  0
 17 11  1  0
 17 16  1  0
 18 16  1  0
 18 17  1  0
 19 14  2  0
M  END
>  <ID>  (1) 
conformer_0

$$$$
