
     RDKit          3D

 10 10  0  0  0  0  0  0  0  0999 V2000
  -14.8158   -6.5884  -21.4875 O   0  0  0  0  0  0  0  0  0  0  0  0
  -14.2158   -5.5884  -22.2875 C   0  0  0  0  0  0  0  0  0  0  0  0
  -14.7158   -4.4884  -22.6875 C   0  0  0  0  0  0  0  0  0  0  0  0
  -14.7158   -4.0884  -23.9875 N   0  0  0  0  0  0  0  0  0  0  0  0
  -13.4158   -5.8884  -23.3875 C   0  0  0  0  0  0  0  0  0  0  0  0
  -12.8158   -4.9884  -24.1875 N   0  0  0  0  0  0  0  0  0  0  0  0
  -13.6158   -4.1884  -24.6875 C   0  0  0  0  0  0  0  0  0  0  0  0
  -15.8158   -3.2884  -24.5875 C   0  0  0  0  0  0  0  0  0  0  0  0
  -15.5158   -3.2884  -25.9875 C   0  0  0  0  0  0  0  0  0  0  0  0
  -14.7158   -2.1884  -26.4875 O   0  0  0  0  0  0  0  0  0  0  0  0
  2  1  1  0
  3  2  1  0
  4  3  1  0
  5  2  2  0
  6  5  1  0
  7  4  1  0
  7  6  2  0
  8  4  1  0
  9  8  1  0
 10  9  1  0
M  END
>  <ID>  (1) 
conformer_0

$$$$
