
     RDKit          3D

 18 22  0  0  0  0  0  0  0  0999 V2000
  -15.0272   -6.4139  -21.4878 O   0  0  0  0  0  0  0  0  0  0  0  0
  -14.7272   -5.2139  -22.0878 C   0  0  0  0  0  0  0  0  0  0  0  0
  -13.9272   -5.0139  -23.1878 C   0  0  0  0  0  0  0  0  0  0  0  0
  -12.9272   -5.5139  -23.9878 C   0  0  0  0  0  0  0  0  0  0  0  0
  -12.9272   -5.0139  -25.1878 N   0  0  0  0  0  0  0  0  0  0  0  0
  -12.7272   -6.7139  -23.4878 N   0  0  0  0  0  0  0  0  0  0  0  0
  -14.6272   -4.0139  -23.9878 N   0  0  0  0  0  0  0  0  0  0  0  0
  -15.3272   -4.0139  -21.5878 N   0  0  0  0  0  0  0  0  0  0  0  0
  -15.1272   -3.2139  -22.6878 C   0  0  0  0  0  0  0  0  0  0  0  0
  -14.7272   -3.2139  -25.0878 C   0  0  0  0  0  0  0  0  0  0  0  0
  -14.9272   -1.8139  -24.6878 C   0  0  0  0  0  0  0  0  0  0  0  0
  -15.0272   -1.8139  -23.0878 C   0  0  0  0  0  0  0  0  0  0  0  0
  -15.6272   -0.9139  -25.3878 O   0  0  0  0  0  0  0  0  0  0  0  0
  -12.0272   -4.9139  -26.2878 C   0  0  0  0  0  0  0  0  0  0  0  0
  -11.7272   -6.2139  -24.0878 C   0  0  0  0  0  0  0  0  0  0  0  0
  -14.4272   -3.5139  -26.2878 O   0  0  0  0  0  0  0  0  0  0  0  0
  -13.2272   -4.2139  -26.1878 C   0  0  0  0  0  0  0  0  0  0  0  0
  -13.9272   -0.9139  -22.8878 O   0  0  0  0  0  0  0  0  0  0  0  0
  2  1  2  0
  3  2  1  0
  4  3  1  0
  5  4  1  0
  6  4  1  0
  7  3  1  0
  8  2  1  0
  9  7  1  0
  9  8  1  0
 10  7  1  0
 11 10  1  0
 12  9  1  0
 12 11  1  0
 13 11  1  0
 14  5  1  0
 15  4  1  0
 15  6  2  0
 16 10  1  0
 17  5  1  0
 17 14  1  0
 17 16  1  0
 18 12  1  0
M  END
>  <ID>  (1) 
conformer_0

$$$$
