
     RDKit          3D

 12 14  0  0  0  0  0  0  0  0999 V2000
  -15.1130   -6.2558  -21.5723 O   0  0  0  0  0  0  0  0  0  0  0  0
  -14.7130   -5.0558  -22.2723 C   0  0  0  0  0  0  0  0  0  0  0  0
  -13.8130   -5.0558  -23.3723 C   0  0  0  0  0  3  0  0  0  0  0  0
  -14.7130   -3.8558  -21.7723 N   0  0  0  0  0  0  0  0  0  0  0  0
  -15.6130   -4.2558  -22.6723 C   0  0  0  0  0  0  0  0  0  0  0  0
  -14.2130   -3.9558  -24.0723 N   0  0  0  0  0  0  0  0  0  0  0  0
  -15.5130   -3.7558  -23.9723 C   0  0  0  0  0  0  0  0  0  0  0  0
  -13.5130   -3.8558  -25.3723 C   0  0  0  0  0  0  0  0  0  0  0  0
  -12.4130   -4.7558  -25.1723 N   0  0  0  0  0  0  0  0  0  0  0  0
  -12.3130   -5.9558  -24.6723 C   0  0  0  0  0  0  0  0  0  0  0  0
  -11.8130   -7.1558  -25.3723 N   0  0  0  0  0  0  0  0  0  0  0  0
  -13.3130   -6.2558  -23.7723 N   0  0  0  0  0  0  0  0  0  0  0  0
  2  1  1  0
  3  2  1  0
  4  2  1  0
  5  2  1  0
  5  4  1  0
  6  3  1  0
  7  5  2  0
  7  6  1  0
  8  6  1  0
  9  8  1  0
 10  9  2  0
 11 10  1  0
 12  3  1  0
 12 10  1  0
M  END
>  <ID>  (1) 
conformer_0

$$$$
