
     RDKit          3D

 12 14  0  0  0  0  0  0  0  0999 V2000
  -15.1130   -6.2558  -21.5723 O   0  0  0  0  0  0  0  0  0  0  0  0
  -14.7130   -5.0558  -22.2723 C   0  0  0  0  0  0  0  0  0  0  0  0
  -13.8130   -5.0558  -23.3723 C   0  0  0  0  0  3  0  0  0  0  0  0
  -14.7130   -3.8558  -21.7723 N   0  0  0  0  0  0  0  0  0  0  0  0
  -15.6130   -4.2558  -22.6723 C   0  0  0  0  0  0  0  0  0  0  0  0
  -14.2130   -3.9558  -24.0723 N   0  0  0  0  0  0  0  0  0  0  0  0
  -15.5130   -3.7558  -23.9723 C   0  0  0  0  0  0  0  0  0  0  0  0
  -13.5130   -3.8558  -25.3723 C   0  0  0  0  0  0  0  0  0  0  0  0
  -12.4130   -4.6558  -25.2723 N   0  0  0  0  0  0  0  0  0  0  0  0
  -12.4130   -6.0558  -24.9723 C   0  0  0  0  0  0  0  0  0  0  0  0
  -11.9130   -7.0558  -25.8723 N   0  0  0  0  0  0  0  0  0  0  0  0
  -13.0130   -6.2558  -23.6723 C   0  0  0  0  0  0  0  0  0  0  0  0
  2  1  1  0
  3  2  1  0
  4  2  1  0
  5  2  1  0
  5  4  1  0
  6  3  1  0
  7  5  2  0
  7  6  1  0
  8  6  1  0
  9  8  1  0
 10  9  1  0
 11 10  1  0
 12  3  1  0
 12 10  1  0
M  END
>  <ID>  (1) 
conformer_0

$$$$
