
     RDKit          3D

 14 14  0  0  0  0  0  0  0  0999 V2000
  -14.8158   -6.5884  -21.4875 O   0  0  0  0  0  0  0  0  0  0  0  0
  -14.2158   -5.5884  -22.2875 C   0  0  0  0  0  0  0  0  0  0  0  0
  -14.7158   -4.4884  -22.6875 C   0  0  0  0  0  0  0  0  0  0  0  0
  -14.7158   -4.0884  -23.9875 N   0  0  0  0  0  0  0  0  0  0  0  0
  -13.4158   -5.8884  -23.3875 C   0  0  0  0  0  0  0  0  0  0  0  0
  -12.8158   -4.9884  -24.1875 N   0  0  0  0  0  0  0  0  0  0  0  0
  -13.7158   -4.3884  -24.7875 C   0  0  0  0  0  0  0  0  0  0  0  0
  -15.8158   -3.2884  -24.5875 C   0  0  0  0  0  0  0  0  0  0  0  0
  -15.2158   -2.3884  -25.5875 C   0  0  0  0  0  0  0  0  0  0  0  0
  -15.2158   -0.9884  -25.0875 C   0  0  0  0  0  0  0  0  0  0  0  0
  -16.2158   -0.0884  -25.3875 C   0  0  0  0  0  0  0  0  0  0  0  0
  -16.4158    0.1116  -26.7875 O   0  0  0  0  0  0  0  0  0  0  0  0
  -13.9158   -0.3884  -25.4875 O   0  0  0  0  0  0  0  0  0  0  0  0
  -15.5158   -2.3884  -26.8875 O   0  0  0  0  0  0  0  0  0  0  0  0
  2  1  1  0
  3  2  1  0
  4  3  1  0
  5  2  2  0
  6  5  1  0
  7  4  1  0
  7  6  2  0
  8  4  1  0
  9  8  1  0
 10  9  1  0
 11 10  1  0
 12 11  1  0
 13 10  1  0
 14  9  1  0
M  END
>  <ID>  (1) 
conformer_0

$$$$
