
     RDKit          3D

 22 25  0  0  0  0  0  0  0  0999 V2000
  -12.4811   -5.9907  -24.7122 C   0  0  0  0  0  0  0  0  0  0  0  0
  -12.9811   -4.7907  -24.8122 N   0  0  0  0  0  0  0  0  0  0  0  0
  -12.5811   -6.7907  -23.7122 N   0  0  0  0  0  0  0  0  0  0  0  0
  -13.8811   -4.2907  -24.0122 C   0  0  0  0  0  0  0  0  0  0  0  0
  -14.5811   -3.1907  -23.7122 N   0  0  0  0  0  0  0  0  0  0  0  0
  -15.0811   -3.1907  -22.4122 C   0  0  0  0  0  0  0  0  0  0  0  0
  -14.9811   -4.3907  -21.9122 N   0  0  0  0  0  0  0  0  0  0  0  0
  -14.2811   -5.1907  -22.9122 C   0  0  0  0  0  0  0  0  0  0  0  0
  -13.7811   -6.4907  -22.8122 C   0  0  0  0  0  0  0  0  0  0  0  0
  -14.1811   -7.2907  -21.9122 O   0  0  0  0  0  0  0  0  0  0  0  0
  -14.9811   -1.9907  -24.5122 C   0  0  0  0  0  0  0  0  0  0  0  0
  -13.9811   -1.4907  -25.5122 C   0  0  0  0  0  0  0  0  0  0  0  0
  -11.7811   -6.6907  -25.8122 N   0  0  0  0  0  0  0  0  0  0  0  0
  -16.2811   -1.7907  -24.8122 O   0  0  0  0  0  0  0  0  0  0  0  0
  -14.5811   -0.2907  -26.0122 C   0  0  0  0  0  0  0  0  0  0  0  0
  -16.6811   -1.5907  -26.1122 C   0  0  0  0  0  0  0  0  0  0  0  0
  -14.3811   -1.2907  -26.9122 O   0  0  0  0  0  0  0  0  0  0  0  0
  -17.4811   -2.4907  -26.9121 C   0  0  0  0  0  0  0  0  0  0  0  0
  -16.4811   -3.0907  -27.8121 O   0  0  0  0  0  0  0  0  0  0  0  0
  -17.0811   -0.1907  -26.3122 C   0  0  0  0  0  0  0  0  0  0  0  0
  -16.7811    0.9093  -25.7122 O   0  0  0  0  0  0  0  0  0  0  0  0
  -15.6811    0.4093  -25.4122 C   0  0  0  0  0  0  0  0  0  0  0  0
  2  1  2  0
  3  1  1  0
  4  2  1  0
  5  4  1  0
  6  5  1  0
  7  6  2  0
  8  4  2  0
  8  7  1  0
  9  3  1  0
  9  8  1  0
 10  9  2  0
 11  5  1  0
 12 11  1  0
 13  1  1  0
 14 11  1  0
 15 12  1  0
 16 14  1  0
 17 12  1  0
 17 15  1  0
 18 16  1  0
 19 18  1  0
 20 16  1  0
 21 20  1  0
 22 15  1  0
 22 21  1  0
M  END
>  <ID>  (1) 
conformer_0

$$$$
