
     RDKit          3D

 22 25  0  0  0  0  0  0  0  0999 V2000
  -12.4811   -5.9907  -24.7122 C   0  0  0  0  0  0  0  0  0  0  0  0
  -12.9811   -4.7907  -24.8122 N   0  0  0  0  0  0  0  0  0  0  0  0
  -12.5811   -6.7907  -23.7122 N   0  0  0  0  0  0  0  0  0  0  0  0
  -13.8811   -4.2907  -24.0122 C   0  0  0  0  0  0  0  0  0  0  0  0
  -14.5811   -3.1907  -23.7122 N   0  0  0  0  0  0  0  0  0  0  0  0
  -15.0811   -3.1907  -22.4122 C   0  0  0  0  0  0  0  0  0  0  0  0
  -14.9811   -4.3907  -21.9122 N   0  0  0  0  0  0  0  0  0  0  0  0
  -14.2811   -5.1907  -22.9122 C   0  0  0  0  0  0  0  0  0  0  0  0
  -13.7811   -6.4907  -22.8122 C   0  0  0  0  0  0  0  0  0  0  0  0
  -14.1811   -7.2907  -21.9122 O   0  0  0  0  0  0  0  0  0  0  0  0
  -14.9811   -1.9907  -24.5122 C   0  0  0  0  0  0  0  0  0  0  0  0
  -13.9811   -1.4907  -25.5122 C   0  0  0  0  0  0  0  0  0  0  0  0
  -11.7811   -6.6907  -25.8122 N   0  0  0  0  0  0  0  0  0  0  0  0
  -12.6811   -1.8907  -25.0122 O   0  0  0  0  0  0  0  0  0  0  0  0
  -16.2811   -1.5907  -24.6122 O   0  0  0  0  0  0  0  0  0  0  0  0
  -16.3811   -0.5907  -25.7122 C   0  0  0  0  0  0  0  0  0  0  0  0
  -14.7811   -0.2907  -25.9122 C   0  0  0  0  0  0  0  0  0  0  0  0
  -14.5811    1.0093  -25.5122 O   0  0  0  0  0  0  0  0  0  0  0  0
  -16.8811    0.6093  -25.0122 C   0  0  0  0  0  0  0  0  0  0  0  0
  -15.7811    1.6093  -24.8122 C   0  0  0  0  0  0  0  0  0  0  0  0
  -18.0811    1.1093  -25.1122 O   0  0  0  0  0  0  0  0  0  0  0  0
  -16.0811    2.8093  -25.2122 O   0  0  0  0  0  0  0  0  0  0  0  0
  2  1  2  0
  3  1  1  0
  4  2  1  0
  5  4  1  0
  6  5  1  0
  7  6  2  0
  8  4  2  0
  8  7  1  0
  9  3  1  0
  9  8  1  0
 10  9  2  0
 11  5  1  0
 12 11  1  0
 13  1  1  0
 14 12  1  0
 15 11  1  0
 16 15  1  0
 17 12  1  0
 17 16  1  0
 18 17  1  0
 19 16  1  0
 20 18  1  0
 20 19  1  0
 21 19  1  0
 22 20  1  0
M  END
>  <ID>  (1) 
conformer_0

$$$$
