
     RDKit          3D

 18 21  0  0  0  0  0  0  0  0999 V2000
  -15.0272   -6.4139  -21.4878 O   0  0  0  0  0  0  0  0  0  0  0  0
  -14.7272   -5.2139  -22.0878 C   0  0  0  0  0  0  0  0  0  0  0  0
  -13.9272   -5.0139  -23.1878 C   0  0  0  0  0  3  0  0  0  0  0  0
  -12.9272   -5.5139  -23.9878 C   0  0  0  0  0  0  0  0  0  0  0  0
  -12.9272   -5.0139  -25.1878 N   0  0  0  0  0  0  0  0  0  0  0  0
  -12.7272   -6.8139  -23.5878 N   0  0  0  0  0  0  0  0  0  0  0  0
  -14.5272   -3.9139  -23.9878 N   0  0  0  0  0  0  0  0  0  0  0  0
  -15.1272   -3.9139  -21.6878 N   0  0  0  0  0  0  0  0  0  0  0  0
  -15.0272   -3.1139  -22.7878 C   0  0  0  0  0  0  0  0  0  0  0  0
  -13.8272   -3.8139  -25.1878 C   0  0  0  0  0  0  0  0  0  0  0  0
  -11.7272   -6.2139  -23.9878 C   0  0  0  0  0  0  0  0  0  0  0  0
  -14.9272   -1.7139  -22.9878 C   0  0  0  0  0  0  0  0  0  0  0  0
  -14.7272   -1.5139  -24.3878 C   0  0  0  0  0  0  0  0  0  0  0  0
  -14.1272   -2.9139  -26.2878 C   0  0  0  0  0  0  0  0  0  0  0  0
  -15.1272   -2.0139  -25.5878 C   0  0  0  0  0  0  0  0  0  0  0  0
  -16.4272   -2.0139  -26.0878 O   0  0  0  0  0  0  0  0  0  0  0  0
  -16.4272   -2.3139  -27.4878 C   0  0  0  0  0  0  0  0  0  0  0  0
  -14.1272   -0.9139  -22.2878 O   0  0  0  0  0  0  0  0  0  0  0  0
  2  1  2  0
  3  2  1  0
  4  3  1  0
  5  4  1  0
  6  4  1  0
  7  3  1  0
  8  2  1  0
  9  7  1  0
  9  8  1  0
 10  5  2  0
 10  7  1  0
 11  4  1  0
 11  6  2  0
 12  9  1  0
 13 12  1  0
 14 10  1  0
 15 13  1  0
 15 14  1  0
 16 15  1  0
 17 16  1  0
 18 12  1  0
M  END
>  <ID>  (1) 
conformer_0

$$$$
