
     RDKit          3D

 22 25  0  0  0  0  0  0  0  0999 V2000
  -12.4811   -5.9907  -24.7122 C   0  0  0  0  0  0  0  0  0  0  0  0
  -12.9811   -4.7907  -24.8122 N   0  0  0  0  0  0  0  0  0  0  0  0
  -12.5811   -6.7907  -23.7122 N   0  0  0  0  0  0  0  0  0  0  0  0
  -13.8811   -4.2907  -24.0122 C   0  0  0  0  0  0  0  0  0  0  0  0
  -14.5811   -3.1907  -23.7122 N   0  0  0  0  0  0  0  0  0  0  0  0
  -15.0811   -3.1907  -22.4122 C   0  0  0  0  0  0  0  0  0  0  0  0
  -14.9811   -4.3907  -21.9122 N   0  0  0  0  0  0  0  0  0  0  0  0
  -14.2811   -5.1907  -22.9122 C   0  0  0  0  0  0  0  0  0  0  0  0
  -13.7811   -6.4907  -22.8122 C   0  0  0  0  0  0  0  0  0  0  0  0
  -14.1811   -7.2907  -21.9122 O   0  0  0  0  0  0  0  0  0  0  0  0
  -15.1811   -2.0907  -24.5122 C   0  0  0  0  0  0  0  0  0  0  0  0
  -14.2811   -1.4907  -25.5122 C   0  0  0  0  0  0  0  0  0  0  0  0
  -11.6811   -6.4907  -25.8122 N   0  0  0  0  0  0  0  0  0  0  0  0
  -14.1811   -0.0907  -25.6122 C   0  0  0  0  0  0  0  0  0  0  0  0
  -13.5811    0.7093  -24.6122 C   0  0  0  0  0  0  0  0  0  0  0  0
  -16.5811   -2.2907  -25.0122 O   0  0  0  0  0  0  0  0  0  0  0  0
  -16.5811   -1.7907  -26.4122 C   0  0  0  0  0  0  0  0  0  0  0  0
  -12.1811    0.5093  -24.2122 O   0  0  0  0  0  0  0  0  0  0  0  0
  -14.1811   -2.2907  -26.7122 O   0  0  0  0  0  0  0  0  0  0  0  0
  -15.4811   -2.7907  -27.0122 C   0  0  0  0  0  0  0  0  0  0  0  0
  -15.4811    0.4093  -26.1122 O   0  0  0  0  0  0  0  0  0  0  0  0
  -16.3811   -0.3907  -26.7122 C   0  0  0  0  0  0  0  0  0  0  0  0
  2  1  2  0
  3  1  1  0
  4  2  1  0
  5  4  1  0
  6  5  1  0
  7  6  2  0
  8  4  2  0
  8  7  1  0
  9  3  1  0
  9  8  1  0
 10  9  2  0
 11  5  1  0
 12 11  1  0
 13  1  1  0
 14 12  1  0
 15 14  1  0
 16 11  1  0
 17 16  1  0
 18 15  1  0
 19 12  1  0
 20 17  1  0
 20 19  1  0
 21 14  1  0
 22 17  1  0
 22 21  1  0
M  END
>  <ID>  (1) 
conformer_0

$$$$
