
     RDKit          3D

 17 18  0  0  0  0  0  0  0  0999 V2000
  -15.1130   -6.2558  -21.5723 O   0  0  0  0  0  0  0  0  0  0  0  0
  -14.4130   -5.2558  -22.3723 C   0  0  0  0  0  0  0  0  0  0  0  0
  -15.0130   -4.1558  -22.8723 C   0  0  0  0  0  0  0  0  0  0  0  0
  -14.5130   -3.4558  -23.9723 N   0  0  0  0  0  0  0  0  0  0  0  0
  -13.6130   -5.5558  -23.3723 C   0  0  0  0  0  0  0  0  0  0  0  0
  -13.2130   -5.0558  -24.5723 N   0  0  0  0  0  0  0  0  0  0  0  0
  -14.2130   -4.1558  -24.9723 C   0  0  0  0  0  0  0  0  0  0  0  0
  -14.9130   -2.0558  -24.0723 C   0  0  0  0  0  0  0  0  0  0  0  0
  -14.8130   -1.6558  -25.4723 C   0  0  0  0  0  0  0  0  0  0  0  0
  -15.0130   -2.0558  -26.6723 O   0  0  0  0  0  0  0  0  0  0  0  0
  -14.3130   -0.2558  -25.4723 C   0  0  0  0  0  0  0  0  0  0  0  0
  -13.9130    0.1442  -24.1723 C   0  0  0  0  0  0  0  0  0  0  0  0
  -14.7130    0.5442  -26.4723 O   0  0  0  0  0  0  0  0  0  0  0  0
  -14.7130    0.0442  -22.9723 C   0  0  0  0  0  0  0  0  0  0  0  0
  -15.6130    0.7442  -22.2723 O   0  0  0  0  0  0  0  0  0  0  0  0
  -13.4130    1.4442  -24.3723 O   0  0  0  0  0  0  0  0  0  0  0  0
  -14.9130   -1.4558  -22.7723 N   0  0  0  0  0  0  0  0  0  0  0  0
  2  1  1  0
  3  2  1  0
  4  3  1  0
  5  2  2  0
  6  5  1  0
  7  4  1  0
  7  6  2  0
  8  4  1  0
  9  8  1  0
 10  9  2  0
 11  9  1  0
 12 11  1  0
 13 11  1  0
 14 12  1  0
 15 14  2  0
 16 12  1  0
 17  8  1  0
 17 14  1  0
M  END
>  <ID>  (1) 
conformer_0

$$$$
