
     RDKit          3D

 13 15  0  0  0  0  0  0  0  0999 V2000
  -15.1130   -6.2558  -21.5723 O   0  0  0  0  0  0  0  0  0  0  0  0
  -14.7130   -5.0558  -22.2723 C   0  0  0  0  0  0  0  0  0  0  0  0
  -13.8130   -5.0558  -23.3723 C   0  0  0  0  0  0  0  0  0  0  0  0
  -12.8130   -5.7558  -24.0723 C   0  0  0  0  0  0  0  0  0  0  0  0
  -12.5130   -4.8558  -25.1723 N   0  0  0  0  0  0  0  0  0  0  0  0
  -12.6130   -7.0558  -24.3723 N   0  0  0  0  0  0  0  0  0  0  0  0
  -14.4130   -4.0558  -24.2723 N   0  0  0  0  0  0  0  0  0  0  0  0
  -14.9130   -3.6558  -21.8723 N   0  0  0  0  0  0  0  0  0  0  0  0
  -15.0130   -3.1558  -23.1723 C   0  0  0  0  0  0  0  0  0  0  0  0
  -15.7130   -3.5558  -24.2723 C   0  0  0  0  0  0  0  0  0  0  0  0
  -11.9130   -7.1558  -25.5723 N   0  0  0  0  0  0  0  0  0  0  0  0
  -11.9130   -5.8558  -26.2723 C   0  0  0  0  0  3  0  0  0  0  0  0
  -10.8130   -5.3558  -27.0723 C   0  0  0  0  0  0  0  0  0  0  0  0
  2  1  2  0
  3  2  1  0
  4  3  1  0
  5  4  2  0
  6  4  1  0
  7  3  1  0
  8  2  1  0
  9  7  1  0
  9  8  1  0
 10  7  1  0
 10  9  1  0
 11  6  2  0
 12  5  1  0
 12 11  1  0
 13 12  1  0
M  END
>  <ID>  (1) 
conformer_0

$$$$
