
     RDKit          3D

 25 29  0  0  0  0  0  0  0  0999 V2000
  -12.4811   -5.9907  -24.7122 C   0  0  0  0  0  0  0  0  0  0  0  0
  -12.9811   -4.7907  -24.8122 N   0  0  0  0  0  0  0  0  0  0  0  0
  -12.5811   -6.7907  -23.7122 N   0  0  0  0  0  0  0  0  0  0  0  0
  -13.8811   -4.2907  -24.0122 C   0  0  0  0  0  0  0  0  0  0  0  0
  -14.5811   -3.1907  -23.7122 N   0  0  0  0  0  0  0  0  0  0  0  0
  -15.0811   -3.1907  -22.4122 C   0  0  0  0  0  0  0  0  0  0  0  0
  -14.9811   -4.3907  -21.9122 N   0  0  0  0  0  0  0  0  0  0  0  0
  -14.2811   -5.1907  -22.9122 C   0  0  0  0  0  0  0  0  0  0  0  0
  -13.7811   -6.4907  -22.8122 C   0  0  0  0  0  0  0  0  0  0  0  0
  -14.1811   -7.2907  -21.9122 O   0  0  0  0  0  0  0  0  0  0  0  0
  -15.0811   -2.3907  -24.8122 C   0  0  0  0  0  0  0  0  0  0  0  0
  -15.1811   -0.9907  -25.1122 C   0  0  0  0  0  0  0  0  0  0  0  0
  -11.8811   -6.5907  -25.9122 N   0  0  0  0  0  0  0  0  0  0  0  0
  -13.9811   -0.1907  -25.4122 C   0  0  0  0  0  0  0  0  0  0  0  0
  -13.5811    0.6093  -24.2122 C   0  0  0  0  0  0  0  0  0  0  0  0
  -14.6811    0.5093  -23.2122 C   0  0  0  0  0  0  0  0  0  0  0  0
  -13.7811   -0.4907  -23.2122 O   0  0  0  0  0  0  0  0  0  0  0  0
  -14.9811    1.4093  -24.2122 C   0  0  0  0  0  0  0  0  0  0  0  0
  -15.7811    1.3093  -25.2122 O   0  0  0  0  0  0  0  0  0  0  0  0
  -15.9811   -1.1907  -24.2122 O   0  0  0  0  0  0  0  0  0  0  0  0
  -13.9811    0.2093  -26.8122 O   0  0  0  0  0  0  0  0  0  0  0  0
  -16.7811    2.3093  -25.5121 P   0  0  0  0  0  4  0  0  0  0  0  0
  -16.5811    3.7093  -25.5121 O   0  0  0  0  0  0  0  0  0  0  0  0
  -18.0811    1.6093  -25.7122 O   0  0  0  0  0  1  0  0  0  0  0  0
  -16.9811    3.0093  -24.2122 O   0  0  0  0  0  0  0  0  0  0  0  0
  2  1  2  0
  3  1  1  0
  4  2  1  0
  5  4  1  0
  6  5  1  0
  7  6  2  0
  8  4  2  0
  8  7  1  0
  9  3  1  0
  9  8  1  0
 10  9  2  0
 11  5  1  0
 12 11  1  0
 13  1  1  0
 14 12  1  0
 15 14  1  0
 16 15  1  0
 17 15  1  0
 17 16  1  0
 18 15  1  0
 18 16  1  0
 19 18  1  0
 20 11  1  0
 20 12  1  0
 21 14  1  0
 22 19  1  0
 23 22  1  0
 24 22  2  0
 25 22  1  0
M  END
>  <ID>  (1) 
conformer_0

$$$$
