
     RDKit          3D

 21 25  0  0  0  0  0  0  0  0999 V2000
  -15.0272   -6.4139  -21.4878 O   0  0  0  0  0  0  0  0  0  0  0  0
  -14.4272   -5.3139  -22.1878 C   0  0  0  0  0  0  0  0  0  0  0  0
  -15.1272   -4.3139  -22.7878 C   0  0  0  0  0  3  0  0  0  0  0  0
  -14.7272   -3.9139  -23.9878 N   0  0  0  0  0  0  0  0  0  0  0  0
  -13.4272   -4.5139  -24.1878 C   0  0  0  0  0  0  0  0  0  0  0  0
  -13.5272   -5.5139  -23.1878 C   0  0  0  0  0  0  0  0  0  0  0  0
  -12.7272   -4.7139  -25.2878 N   0  0  0  0  0  2  0  0  0  0  0  0
  -11.9272   -5.9139  -24.8878 C   0  0  0  0  0  0  0  0  0  0  0  0
  -12.3272   -7.1139  -24.6878 N   0  0  0  0  0  0  0  0  0  0  0  0
  -14.5272   -4.1139  -21.7878 N   0  0  0  0  0  0  0  0  0  0  0  0
  -15.5272   -3.5139  -25.0878 C   0  0  0  0  0  0  0  0  0  0  0  0
  -10.7272   -5.7139  -25.6878 N   0  0  0  0  0  0  0  0  0  0  0  0
  -11.7272   -6.4139  -23.8878 C   0  0  0  0  0  0  0  0  0  0  0  0
  -12.9272   -6.7139  -23.3878 N   0  0  0  0  0  0  0  0  0  0  0  0
  -15.4272   -2.1139  -25.5878 C   0  0  0  0  0  0  0  0  0  0  0  0
  -15.3272   -1.1139  -24.5878 C   0  0  0  0  0  0  0  0  0  0  0  0
  -14.2272   -0.1139  -24.4878 C   0  0  0  0  0  0  0  0  0  0  0  0
  -14.2272    0.3861  -23.0878 O   0  0  0  0  0  0  0  0  0  0  0  0
  -15.6272    0.4861  -22.6878 C   0  0  0  0  0  0  0  0  0  0  0  0
  -16.5272   -0.3139  -24.7878 O   0  0  0  0  0  0  0  0  0  0  0  0
  -16.5272    0.7861  -23.8878 C   0  0  0  0  0  0  0  0  0  0  0  0
  2  1  1  0
  3  2  1  0
  4  3  1  0
  5  4  1  0
  6  2  1  0
  6  5  2  0
  7  5  1  0
  8  7  1  0
  9  8  1  0
 10  2  1  0
 10  3  1  0
 11  4  1  0
 12  8  1  0
 13  8  1  0
 13  9  1  0
 14  6  1  0
 14 13  1  0
 15 11  1  0
 16 15  1  0
 17 16  1  0
 18 17  1  0
 19 18  1  0
 20 16  1  0
 21 19  1  0
 21 20  1  0
M  END
>  <ID>  (1) 
conformer_0

$$$$
