
     RDKit          3D

 18 19  0  0  0  0  0  0  0  0999 V2000
  -15.0272   -6.4139  -21.4878 O   0  0  0  0  0  0  0  0  0  0  0  0
  -14.7272   -5.2139  -22.0878 C   0  0  0  0  0  0  0  0  0  0  0  0
  -13.9272   -5.0139  -23.1878 C   0  0  0  0  0  3  0  0  0  0  0  0
  -12.9272   -5.5139  -23.9878 C   0  0  0  0  0  0  0  0  0  0  0  0
  -12.7272   -4.8139  -25.0878 N   0  0  0  0  0  0  0  0  0  0  0  0
  -12.7272   -6.7139  -23.4878 N   0  0  0  0  0  0  0  0  0  0  0  0
  -14.5272   -4.0139  -24.0878 N   0  0  0  0  0  0  0  0  0  0  0  0
  -13.8272   -3.9139  -25.2878 C   0  0  0  0  0  0  0  0  0  0  0  0
  -15.3272   -4.0139  -21.5878 N   0  0  0  0  0  0  0  0  0  0  0  0
  -14.9272   -2.8139  -22.0878 C   0  0  0  0  0  0  0  0  0  0  0  0
  -15.3272   -1.7139  -22.8878 C   0  0  0  0  0  0  0  0  0  0  0  0
  -14.4272   -0.6139  -23.2878 C   0  0  0  0  0  0  0  0  0  0  0  0
  -14.8272    0.6861  -23.2878 C   0  0  0  0  0  0  0  0  0  0  0  0
  -14.3272    1.5861  -24.1878 N   0  0  0  0  0  0  0  0  0  0  0  0
  -13.0272    1.0861  -24.6878 C   0  0  0  0  0  0  0  0  0  0  0  0
  -15.3272    1.9861  -25.1878 C   0  0  0  0  0  0  0  0  0  0  0  0
  -11.5272   -4.3139  -25.7878 C   0  0  0  0  0  0  0  0  0  0  0  0
  -11.6272   -6.2139  -24.0878 C   0  0  0  0  0  0  0  0  0  0  0  0
  2  1  2  0
  3  2  1  0
  4  3  1  0
  5  4  1  0
  6  4  1  0
  7  3  1  0
  8  5  1  0
  8  7  2  0
  9  2  1  0
 10  9  1  0
 11 10  2  3
 12 11  1  0
 13 12  1  0
 14 13  1  0
 15 14  1  0
 16 14  1  0
 17  5  1  0
 18  4  1  0
 18  6  2  0
M  END
>  <ID>  (1) 
conformer_0

$$$$
