
     RDKit          3D

 18 19  0  0  0  0  0  0  0  0999 V2000
  -14.8158   -6.5884  -21.4875 O   0  0  0  0  0  0  0  0  0  0  0  0
  -14.4158   -5.5884  -22.2875 C   0  0  0  0  0  0  0  0  0  0  0  0
  -15.1158   -4.4884  -22.6875 C   0  0  0  0  0  0  0  0  0  0  0  0
  -14.8158   -4.0884  -24.0875 N   0  0  0  0  0  0  0  0  0  0  0  0
  -13.7158   -4.7884  -24.3875 C   0  0  0  0  0  0  0  0  0  0  0  0
  -13.5158   -5.5884  -23.2875 C   0  0  0  0  0  0  0  0  0  0  0  0
  -12.9158   -4.7884  -25.3875 N   0  0  0  0  0  0  0  0  0  0  0  0
  -12.5158   -6.5884  -23.7875 N   0  0  0  0  0  0  0  0  0  0  0  0
  -11.9158   -5.8884  -24.8875 C   0  0  0  0  0  0  0  0  0  0  0  0
  -15.5158   -3.1884  -24.7875 C   0  0  0  0  0  0  0  0  0  0  0  0
  -15.0158   -2.1884  -25.5875 C   0  0  0  0  0  0  0  0  0  0  0  0
  -15.1158   -0.7884  -25.0875 C   0  0  0  0  0  0  0  0  0  0  0  0
  -14.0158   -0.2884  -24.2875 C   0  0  0  0  0  0  0  0  0  0  0  0
  -13.5158    1.0116  -24.5875 C   0  0  0  0  0  0  0  0  0  0  0  0
  -15.2158    0.2116  -26.1875 O   0  0  0  0  0  0  0  0  0  0  0  0
  -13.9158   -0.6884  -22.8875 O   0  0  0  0  0  0  0  0  0  0  0  0
  -13.9158    2.0116  -25.2875 O   0  0  0  0  0  0  0  0  0  0  0  0
  -15.3158   -0.3884  -27.4875 C   0  0  0  0  0  0  0  0  0  0  0  0
  2  1  1  0
  3  2  2  0
  4  3  1  0
  5  4  1  0
  6  2  1  0
  6  5  2  0
  7  5  1  0
  8  6  1  0
  9  7  1  0
  9  8  2  0
 10  4  1  0
 11 10  1  0
 12 11  1  0
 13 12  1  0
 14 13  1  0
 15 12  1  0
 16 13  1  0
 17 14  2  0
 18 15  1  0
M  END
>  <ID>  (1) 
conformer_0

$$$$
