
     RDKit          3D

 16 17  0  0  0  0  0  0  0  0999 V2000
  -14.8340   -6.5422  -21.4718 O   0  0  0  0  0  0  0  0  0  0  0  0
  -14.3340   -5.5422  -22.3718 C   0  0  0  0  0  0  0  0  0  0  0  0
  -15.0340   -4.4422  -22.5718 C   0  0  0  0  0  0  0  0  0  0  0  0
  -14.6340   -3.7422  -23.7718 N   0  0  0  0  0  0  0  0  0  0  0  0
  -13.5340   -5.5422  -23.3718 C   0  0  0  0  0  0  0  0  0  0  0  0
  -14.1340   -4.2422  -24.8718 C   0  0  0  0  0  0  0  0  0  0  0  0
  -13.1340   -5.0422  -24.5718 N   0  0  0  0  0  0  0  0  0  0  0  0
  -15.3340   -2.4422  -23.8718 C   0  0  0  0  0  0  0  0  0  0  0  0
  -15.2340   -1.9422  -25.2718 C   0  0  0  0  0  0  0  0  0  0  0  0
  -15.1340   -0.5422  -25.3718 C   0  0  0  0  0  0  0  0  0  0  0  0
  -15.9340   -2.5422  -26.2718 O   0  0  0  0  0  0  0  0  0  0  0  0
  -14.9340    0.0578  -24.0718 C   0  0  0  0  0  0  0  0  0  0  0  0
  -16.0340    0.1578  -26.2718 O   0  0  0  0  0  0  0  0  0  0  0  0
  -13.7340    0.8578  -23.9718 C   0  0  0  0  0  0  0  0  0  0  0  0
  -13.6340   -0.5422  -23.5718 O   0  0  0  0  0  0  0  0  0  0  0  0
  -15.6340   -1.7422  -22.7718 O   0  0  0  0  0  0  0  0  0  0  0  0
  2  1  1  0
  3  2  1  0
  4  3  1  0
  5  2  2  0
  6  4  1  0
  7  5  1  0
  7  6  2  0
  8  4  1  0
  9  8  1  0
 10  9  1  0
 11  9  1  0
 12 10  1  0
 13 10  1  0
 14 12  1  0
 15 12  1  0
 15 14  1  0
 16  8  2  0
M  END
>  <ID>  (1) 
conformer_0

$$$$
