
     RDKit          3D

 13 14  0  0  0  0  0  0  0  0999 V2000
  -14.8158   -6.5884  -21.4875 O   0  0  0  0  0  0  0  0  0  0  0  0
  -14.2158   -5.5884  -22.2875 C   0  0  0  0  0  0  0  0  0  0  0  0
  -14.7158   -4.4884  -22.6875 C   0  0  0  0  0  0  0  0  0  0  0  0
  -14.7158   -4.0884  -23.9875 N   0  0  0  0  0  0  0  0  0  0  0  0
  -13.4158   -5.8884  -23.3875 C   0  0  0  0  0  0  0  0  0  0  0  0
  -12.8158   -4.9884  -24.1875 N   0  0  0  0  0  0  0  0  0  0  0  0
  -13.6158   -4.0884  -24.5875 C   0  0  0  0  0  0  0  0  0  0  0  0
  -15.8158   -3.4884  -24.6875 C   0  0  0  0  0  0  0  0  0  0  0  0
  -15.2158   -3.0884  -25.9875 C   0  0  0  0  0  0  0  0  0  0  0  0
  -13.7158   -3.3884  -25.8875 C   0  0  0  0  0  0  0  0  0  0  0  0
  -12.8158   -7.1884  -23.5875 N   0  0  0  0  0  0  0  0  0  0  0  0
  -12.3158   -7.1884  -24.8875 N   0  0  0  0  0  0  0  0  0  0  0  0
  -11.5158   -6.7884  -24.0875 C   0  0  0  0  0  0  0  0  0  0  0  0
  2  1  1  0
  3  2  2  0
  4  3  1  0
  5  2  1  0
  6  5  2  0
  7  4  1  0
  7  6  1  0
  8  4  1  0
  9  8  2  0
 10  7  2  0
 10  9  1  0
 11  5  1  0
 13 11  1  0
 13 12  2  0
M  END
>  <ID>  (1) 
conformer_0

$$$$
