
     RDKit          3D

 18 20  0  0  0  0  0  0  0  0999 V2000
  -15.0272   -6.4139  -21.4878 O   0  0  0  0  0  0  0  0  0  0  0  0
  -14.4272   -5.3139  -22.1878 C   0  0  0  0  0  0  0  0  0  0  0  0
  -15.1272   -4.3139  -22.7878 C   0  0  0  0  0  3  0  0  0  0  0  0
  -14.8272   -4.0139  -24.0878 N   0  0  0  0  0  0  0  0  0  0  0  0
  -13.7272   -4.6139  -24.3878 C   0  0  0  0  0  0  0  0  0  0  0  0
  -13.6272   -5.6139  -23.2878 C   0  0  0  0  0  0  0  0  0  0  0  0
  -12.9272   -4.7139  -25.3878 N   0  0  0  0  0  0  0  0  0  0  0  0
  -12.4272   -6.4139  -23.6878 N   0  0  0  0  0  0  0  0  0  0  0  0
  -12.0272   -5.8139  -24.8878 C   0  0  0  0  0  0  0  0  0  0  0  0
  -14.5272   -4.2139  -21.7878 N   0  0  0  0  0  0  0  0  0  0  0  0
  -15.5272   -3.2139  -25.0878 C   0  0  0  0  0  0  0  0  0  0  0  0
  -14.6272   -2.5139  -25.9878 C   0  0  0  0  0  0  0  0  0  0  0  0
  -14.2272   -1.2139  -25.4878 C   0  0  0  0  0  0  0  0  0  0  0  0
  -15.4272   -0.6139  -24.9878 C   0  0  0  0  0  0  0  0  0  0  0  0
  -15.1272    0.2861  -23.8878 C   0  0  0  0  0  0  0  0  0  0  0  0
  -13.7272    0.3861  -23.5878 O   0  0  0  0  0  0  0  0  0  0  0  0
  -16.4272   -0.4139  -25.8878 O   0  0  0  0  0  0  0  0  0  0  0  0
  -13.4272   -0.4139  -26.2878 O   0  0  0  0  0  0  0  0  0  0  0  0
  2  1  1  0
  3  2  1  0
  4  3  1  0
  5  4  1  0
  6  2  1  0
  6  5  2  0
  7  5  1  0
  8  6  1  0
  9  7  1  0
  9  8  2  0
 10  2  1  0
 10  3  1  0
 11  4  1  0
 12 11  1  0
 13 12  1  0
 14 13  1  0
 15 14  1  0
 16 15  1  0
 17 14  1  0
 18 13  1  0
M  END
>  <ID>  (1) 
conformer_0

$$$$
