
     RDKit          3D

 17 20  0  0  0  0  0  0  0  0999 V2000
  -15.0272   -6.4139  -21.4878 O   0  0  0  0  0  0  0  0  0  0  0  0
  -14.7272   -5.2139  -22.0878 C   0  0  0  0  0  0  0  0  0  0  0  0
  -13.9272   -5.0139  -23.1878 C   0  0  0  0  0  3  0  0  0  0  0  0
  -12.9272   -5.5139  -23.9878 C   0  0  0  0  0  0  0  0  0  0  0  0
  -12.9272   -5.0139  -25.1878 N   0  0  0  0  0  0  0  0  0  0  0  0
  -12.7272   -6.8139  -23.4878 N   0  0  0  0  0  0  0  0  0  0  0  0
  -14.4272   -3.9139  -23.9878 N   0  0  0  0  0  0  0  0  0  0  0  0
  -15.0272   -4.0139  -21.5878 N   0  0  0  0  0  0  0  0  0  0  0  0
  -13.9272   -3.9139  -25.1878 C   0  0  0  0  0  0  0  0  0  0  0  0
  -15.0272   -2.8139  -21.9878 C   0  0  0  0  0  0  0  0  0  0  0  0
  -14.8272   -2.6139  -23.3878 C   0  0  0  0  0  0  0  0  0  0  0  0
  -11.8272   -6.4139  -24.0878 C   0  0  0  0  0  0  0  0  0  0  0  0
  -15.2272   -1.7139  -24.3878 C   0  0  0  0  0  0  0  0  0  0  0  0
  -14.2272   -1.6139  -25.4878 C   0  0  0  0  0  0  0  0  0  0  0  0
  -14.1272   -2.9139  -26.1878 C   0  0  0  0  0  0  0  0  0  0  0  0
  -13.5272   -0.5139  -26.1878 O   0  0  0  0  0  0  0  0  0  0  0  0
  -16.5272   -1.9139  -25.0878 O   0  0  0  0  0  0  0  0  0  0  0  0
  2  1  2  0
  3  2  1  0
  4  3  1  0
  5  4  1  0
  6  4  1  0
  7  3  1  0
  8  2  1  0
  9  5  2  0
  9  7  1  0
 10  8  2  0
 11  7  1  0
 11 10  1  0
 12  4  1  0
 12  6  2  0
 13 11  1  0
 14 13  1  0
 15  9  1  0
 15 14  1  0
 16 14  1  0
 17 13  1  0
M  END
>  <ID>  (1) 
conformer_0

$$$$
