
     RDKit          3D

  7  8  0  0  0  0  0  0  0  0999 V2000
  -15.0272   -6.4139  -21.4878 O   0  0  0  0  0  0  0  0  0  0  0  0
  -14.7272   -5.2139  -22.0878 C   0  0  0  0  0  0  0  0  0  0  0  0
  -13.8272   -5.3139  -23.1878 C   0  0  0  0  0  0  0  0  0  0  0  0
  -14.9272   -3.9139  -21.8878 N   0  0  0  0  0  0  0  0  0  0  0  0
  -14.4272   -4.2139  -23.9878 N   0  0  0  0  0  0  0  0  0  0  0  0
  -14.9272   -3.3139  -23.0878 C   0  0  0  0  0  0  0  0  0  0  0  0
  -15.7272   -3.9139  -24.0878 C   0  0  0  0  0  0  0  0  0  0  0  0
  2  1  2  0
  3  2  1  0
  4  2  1  0
  5  3  1  0
  6  4  1  0
  6  5  1  0
  7  5  1  0
  7  6  1  0
M  END
>  <ID>  (1) 
conformer_0

$$$$
