
     RDKit          3D

  5  4  0  0  0  0  0  0  0  0999 V2000
  -15.5044    2.4270  -19.1610 O   0  0  0  0  0  1  0  0  0  0  0  0
  -16.4044    2.9270  -20.1610 P   0  0  0  0  0  4  0  0  0  0  0  0
  -17.3044    1.8270  -20.4610 O   0  0  0  0  0  0  0  0  0  0  0  0
  -16.3044    3.8270  -21.2610 O   0  0  0  0  0  0  0  0  0  0  0  0
  -17.3044    3.6270  -19.2610 O   0  0  0  0  0  0  0  0  0  0  0  0
  2  1  2  0
  3  2  1  0
  4  2  1  0
  5  2  1  0
M  END
>  <ID>  (1) 
conformer_0

$$$$
