
     RDKit          3D

 11 13  0  0  0  0  0  0  0  0999 V2000
  -14.8158   -6.5884  -21.4875 O   0  0  0  0  0  0  0  0  0  0  0  0
  -14.4158   -5.3884  -22.1875 C   0  0  0  0  0  0  0  0  0  0  0  0
  -15.0158   -4.3884  -22.7875 C   0  0  0  0  0  3  0  0  0  0  0  0
  -14.8158   -4.1884  -24.0875 N   0  0  0  0  0  0  0  0  0  0  0  0
  -13.5158   -4.4884  -24.1875 C   0  0  0  0  0  0  0  0  0  0  0  0
  -12.9158   -4.6884  -25.3875 N   0  0  0  0  0  0  0  0  0  0  0  0
  -13.4158   -5.5884  -23.1875 C   0  0  0  0  0  0  0  0  0  0  0  0
  -12.4158   -6.4884  -23.6875 N   0  0  0  0  0  0  0  0  0  0  0  0
  -12.3158   -5.9884  -24.9875 C   0  0  0  0  0  0  0  0  0  0  0  0
  -14.5158   -4.0884  -21.8875 N   0  0  0  0  0  0  0  0  0  0  0  0
  -15.4158   -3.3884  -25.1875 C   0  0  0  0  0  0  0  0  0  0  0  0
  2  1  1  0
  3  2  1  0
  4  3  1  0
  5  4  1  0
  6  5  2  0
  7  2  1  0
  7  5  1  0
  8  7  1  0
  9  6  1  0
  9  8  2  0
 10  2  1  0
 10  3  1  0
 11  4  1  0
M  END
>  <ID>  (1) 
conformer_0

$$$$
