
     RDKit          3D

 19 22  0  0  0  0  0  0  0  0999 V2000
  -15.0272   -6.4139  -21.4878 O   0  0  0  0  0  0  0  0  0  0  0  0
  -14.7272   -5.2139  -22.0878 C   0  0  0  0  0  0  0  0  0  0  0  0
  -13.9272   -5.0139  -23.1878 C   0  0  0  0  0  0  0  0  0  0  0  0
  -12.9272   -5.5139  -23.9878 C   0  0  0  0  0  0  0  0  0  0  0  0
  -12.9272   -5.0139  -25.1878 N   0  0  0  0  0  0  0  0  0  0  0  0
  -12.7272   -6.8139  -23.5878 N   0  0  0  0  0  0  0  0  0  0  0  0
  -14.5272   -3.9139  -23.9878 N   0  0  0  0  0  0  0  0  0  0  0  0
  -15.0272   -3.9139  -21.6878 N   0  0  0  0  0  0  0  0  0  0  0  0
  -14.9272   -3.1139  -22.7878 C   0  0  0  0  0  0  0  0  0  0  0  0
  -12.0272   -4.7139  -26.2878 C   0  0  0  0  0  0  0  0  0  0  0  0
  -14.6272   -1.8139  -22.8878 N   0  0  0  0  0  2  0  0  0  0  0  0
  -11.7272   -6.2139  -24.1878 C   0  0  0  0  0  0  0  0  0  0  0  0
  -14.4272   -1.5139  -24.2878 C   0  0  0  0  0  0  0  0  0  0  0  0
  -15.8272   -3.4139  -24.0878 C   0  0  0  0  0  0  0  0  0  0  0  0
  -14.0272   -0.2139  -24.6878 C   0  0  0  0  0  0  0  0  0  0  0  0
  -15.4272   -2.2139  -25.0878 C   0  0  0  0  0  0  0  0  0  0  0  0
  -12.8272    0.2861  -24.0878 O   0  0  0  0  0  0  0  0  0  0  0  0
  -12.4272   -4.8139  -27.6878 C   0  0  0  0  0  0  0  0  0  0  0  0
  -12.1272   -6.2139  -27.8878 O   0  0  0  0  0  0  0  0  0  0  0  0
  2  1  2  0
  3  2  1  0
  4  3  1  0
  5  4  1  0
  6  4  1  0
  7  3  1  0
  8  2  1  0
  9  7  1  0
  9  8  1  0
 10  5  1  0
 11  9  1  0
 12  4  1  0
 12  6  2  0
 13 11  1  0
 14  7  1  0
 14  9  1  0
 15 13  1  0
 16 13  2  0
 16 14  1  0
 17 15  1  0
 18 10  1  0
 19 18  1  0
M  END
>  <ID>  (1) 
conformer_0

$$$$
