
     RDKit          3D

 12 14  0  0  0  0  0  0  0  0999 V2000
  -15.1130   -6.2558  -21.5723 O   0  0  0  0  0  0  0  0  0  0  0  0
  -14.7130   -5.0558  -22.2723 C   0  0  0  0  0  0  0  0  0  0  0  0
  -13.8130   -5.0558  -23.3723 C   0  0  0  0  0  0  0  0  0  0  0  0
  -12.8130   -5.7558  -24.0723 C   0  0  0  0  0  0  0  0  0  0  0  0
  -12.5130   -5.0558  -25.1723 N   0  0  0  0  0  0  0  0  0  0  0  0
  -12.7130   -7.0558  -24.3723 N   0  0  0  0  0  0  0  0  0  0  0  0
  -14.3130   -3.9558  -24.1723 N   0  0  0  0  0  0  0  0  0  0  0  0
  -15.0130   -2.9558  -23.3723 C   0  0  0  0  0  0  0  0  0  0  0  0
  -15.2130   -3.7558  -22.1723 C   0  0  0  0  0  0  0  0  0  0  0  0
  -11.9130   -7.2558  -25.4723 N   0  0  0  0  0  0  0  0  0  0  0  0
  -11.8130   -5.9558  -26.0723 C   0  0  0  0  0  0  0  0  0  0  0  0
  -15.7130   -3.8558  -24.3723 C   0  0  0  0  0  0  0  0  0  0  0  0
  2  1  1  0
  3  2  2  0
  4  3  1  0
  5  4  2  0
  6  4  1  0
  7  3  1  0
  8  7  1  0
  9  2  1  0
  9  8  2  0
 10  6  1  0
 11  5  1  0
 11 10  2  0
 12  7  1  0
 12  8  1  0
M  END
>  <ID>  (1) 
conformer_0

$$$$
