
     RDKit          3D

 11 13  0  0  0  0  0  0  0  0999 V2000
  -15.0272   -6.4139  -21.4878 O   0  0  0  0  0  0  0  0  0  0  0  0
  -14.4272   -5.3139  -22.1878 C   0  0  0  0  0  0  0  0  0  0  0  0
  -15.1272   -4.3139  -22.7878 C   0  0  0  0  0  3  0  0  0  0  0  0
  -14.8272   -4.0139  -24.0878 N   0  0  0  0  0  0  0  0  0  0  0  0
  -13.7272   -4.6139  -24.3878 C   0  0  0  0  0  0  0  0  0  0  0  0
  -13.6272   -5.6139  -23.2878 C   0  0  0  0  0  0  0  0  0  0  0  0
  -12.9272   -4.7139  -25.3878 N   0  0  0  0  0  0  0  0  0  0  0  0
  -12.4272   -6.4139  -23.6878 N   0  0  0  0  0  0  0  0  0  0  0  0
  -12.0272   -5.8139  -24.8878 C   0  0  0  0  0  0  0  0  0  0  0  0
  -14.4272   -4.0139  -21.8878 N   0  0  0  0  0  0  0  0  0  0  0  0
  -15.7272   -3.4139  -25.0878 C   0  0  0  0  0  0  0  0  0  0  0  0
  2  1  1  0
  3  2  1  0
  4  3  1  0
  5  4  1  0
  6  2  1  0
  6  5  2  0
  7  5  1  0
  8  6  1  0
  9  7  1  0
  9  8  2  0
 10  2  1  0
 10  3  1  0
 11  4  1  0
M  END
>  <ID>  (1) 
conformer_0

$$$$
