
     RDKit          3D

 15 17  0  0  0  0  0  0  0  0999 V2000
  -15.1130   -6.2558  -21.5723 O   0  0  0  0  0  0  0  0  0  0  0  0
  -14.7130   -5.0558  -22.2723 C   0  0  0  0  0  0  0  0  0  0  0  0
  -13.8130   -5.0558  -23.3723 C   0  0  0  0  0  0  0  0  0  0  0  0
  -12.8130   -5.7558  -24.0723 C   0  0  0  0  0  0  0  0  0  0  0  0
  -12.5130   -4.8558  -25.1723 N   0  0  0  0  0  0  0  0  0  0  0  0
  -12.6130   -7.0558  -24.3723 N   0  0  0  0  0  0  0  0  0  0  0  0
  -14.2130   -3.8558  -24.0723 N   0  0  0  0  0  0  0  0  0  0  0  0
  -15.1130   -2.9558  -23.4723 C   0  0  0  0  0  0  0  0  0  0  0  0
  -15.2130   -3.7558  -22.2723 C   0  0  0  0  0  0  0  0  0  0  0  0
  -13.3130   -3.4558  -25.1723 C   0  0  0  0  0  0  0  0  0  0  0  0
  -11.8130   -7.1558  -25.3723 N   0  0  0  0  0  0  0  0  0  0  0  0
  -11.6130   -6.4558  -26.3723 N   0  0  0  0  0  0  0  0  0  0  0  0
  -12.1130   -5.1558  -26.4723 C   0  0  0  0  0  0  0  0  0  0  0  0
  -14.8130   -1.5558  -23.2723 C   0  0  0  0  0  0  0  0  0  0  0  0
  -13.6130   -0.8558  -23.5723 O   0  0  0  0  0  0  0  0  0  0  0  0
  2  1  1  0
  3  2  2  0
  4  3  1  0
  5  4  1  0
  6  4  1  0
  7  3  1  0
  8  7  1  0
  9  2  1  0
  9  8  2  0
 10  5  1  0
 10  7  1  0
 11  6  1  0
 12 11  2  0
 13  5  1  0
 13 12  1  0
 14  8  1  0
 15 14  1  0
M  END
>  <ID>  (1) 
conformer_0

$$$$
