
     RDKit          3D

 13 15  0  0  0  0  0  0  0  0999 V2000
  -12.4811   -5.9907  -24.7122 C   0  0  0  0  0  0  0  0  0  0  0  0
  -12.9811   -4.7907  -24.8122 N   0  0  0  0  0  0  0  0  0  0  0  0
  -11.7811   -6.5907  -25.6122 N   0  0  0  0  0  0  0  0  0  0  0  0
  -12.7811   -6.7907  -23.5121 N   0  0  0  0  0  0  0  0  0  0  0  0
  -13.8811   -4.3907  -23.7122 C   0  0  0  0  0  0  0  0  0  0  0  0
  -14.5811   -3.3907  -23.6122 N   0  0  0  0  0  0  0  0  0  0  0  0
  -14.8811   -2.1907  -22.9121 C   0  0  0  0  0  0  0  0  0  0  0  0
  -13.7811   -6.5907  -22.6122 C   0  0  0  0  0  0  0  0  0  0  0  0
  -14.1811   -7.4907  -21.7122 O   0  0  0  0  0  0  0  0  0  0  0  0
  -14.1811   -5.3907  -22.8122 C   0  0  0  0  0  0  0  0  0  0  0  0
  -15.1811   -3.3907  -22.3122 C   0  0  0  0  0  0  0  0  0  0  0  0
  -14.6811   -4.3907  -21.7122 N   0  0  0  0  0  0  0  0  0  0  0  0
  -14.0811   -0.9907  -22.6122 O   0  0  0  0  0  0  0  0  0  0  0  0
  2  1  2  0
  3  1  1  0
  4  1  1  0
  5  2  1  0
  6  5  1  0
  7  6  1  0
  8  4  1  0
  9  8  2  0
 10  5  2  0
 10  8  1  0
 11  6  1  0
 11  7  1  0
 12 10  1  0
 12 11  2  0
 13  7  1  0
M  END
>  <ID>  (1) 
conformer_0

$$$$
