
     RDKit          3D

 18 21  0  0  0  0  0  0  0  0999 V2000
  -15.0272   -6.4139  -21.4878 O   0  0  0  0  0  0  0  0  0  0  0  0
  -14.7272   -5.2139  -22.0878 C   0  0  0  0  0  0  0  0  0  0  0  0
  -13.9272   -5.0139  -23.1878 C   0  0  0  0  0  3  0  0  0  0  0  0
  -12.9272   -5.5139  -23.9878 C   0  0  0  0  0  0  0  0  0  0  0  0
  -12.9272   -5.0139  -25.1878 N   0  0  0  0  0  0  0  0  0  0  0  0
  -12.7272   -6.8139  -23.5878 N   0  0  0  0  0  0  0  0  0  0  0  0
  -14.5272   -3.9139  -23.8878 N   0  0  0  0  0  0  0  0  0  0  0  0
  -15.1272   -4.0139  -21.6878 N   0  0  0  0  0  0  0  0  0  0  0  0
  -15.0272   -3.1139  -22.6878 C   0  0  0  0  0  0  0  0  0  0  0  0
  -14.0272   -3.9139  -25.1878 C   0  0  0  0  0  0  0  0  0  0  0  0
  -15.2272   -1.8139  -23.0878 C   0  0  0  0  0  0  0  0  0  0  0  0
  -15.0272   -1.6139  -24.4878 C   0  0  0  0  0  0  0  0  0  0  0  0
  -14.8272   -3.4139  -26.2878 C   0  0  0  0  0  0  0  0  0  0  0  0
  -15.7272   -2.4139  -25.4878 C   0  0  0  0  0  0  0  0  0  0  0  0
  -16.8272   -2.0139  -26.2878 O   0  0  0  0  0  0  0  0  0  0  0  0
  -16.7272   -2.7139  -27.4878 C   0  0  0  0  0  0  0  0  0  0  0  0
  -11.7272   -6.2139  -24.1878 C   0  0  0  0  0  0  0  0  0  0  0  0
  -14.3272   -3.0139  -27.3878 O   0  0  0  0  0  0  0  0  0  0  0  0
  2  1  2  0
  3  2  1  0
  4  3  1  0
  5  4  1  0
  6  4  1  0
  7  3  1  0
  8  2  1  0
  9  7  1  0
  9  8  2  0
 10  5  2  0
 10  7  1  0
 11  9  1  0
 12 11  1  0
 13 10  1  0
 14 12  1  0
 14 13  1  0
 15 14  1  0
 16 15  1  0
 17  4  1  0
 17  6  2  0
 18 13  1  0
M  END
>  <ID>  (1) 
conformer_0

$$$$
