
     RDKit          3D

 21 22  0  0  0  0  0  0  0  0999 V2000
  -14.8340   -6.5422  -21.4718 O   0  0  0  0  0  0  0  0  0  0  0  0
  -14.3340   -5.6422  -22.3718 C   0  0  0  0  0  0  0  0  0  0  0  0
  -14.9340   -4.4422  -22.7718 C   0  0  0  0  0  0  0  0  0  0  0  0
  -14.7340   -3.8422  -23.9718 N   0  0  0  0  0  0  0  0  0  0  0  0
  -13.5340   -5.7422  -23.4718 C   0  0  0  0  0  3  0  0  0  0  0  0
  -12.8340   -4.9422  -24.1718 N   0  0  0  0  0  0  0  0  0  0  0  0
  -13.5340   -3.8422  -24.4718 C   0  0  0  0  0  0  0  0  0  0  0  0
  -15.7340   -3.0422  -24.6718 C   0  0  0  0  0  0  0  0  0  0  0  0
  -15.0340   -2.0422  -25.4718 C   0  0  0  0  0  0  0  0  0  0  0  0
  -15.2340   -0.6422  -25.2718 C   0  0  0  0  0  0  0  0  0  0  0  0
  -14.1340   -0.1422  -24.4718 C   0  0  0  0  0  0  0  0  0  0  0  0
  -14.9340   -2.5422  -26.8718 O   0  0  0  0  0  0  0  0  0  0  0  0
  -15.0340    0.0578  -26.5718 O   0  0  0  0  0  0  0  0  0  0  0  0
  -14.6340    0.8578  -23.4718 C   0  0  0  0  0  0  0  0  0  0  0  0
  -16.0340    0.7578  -23.3718 O   0  0  0  0  0  0  0  0  0  0  0  0
  -16.8340    1.3578  -22.2718 P   0  0  0  0  0  4  0  0  0  0  0  0
  -17.7340    0.4578  -21.5718 O   0  0  0  0  0  1  0  0  0  0  0  0
  -17.4340    2.5578  -22.7718 O   0  0  0  0  0  0  0  0  0  0  0  0
  -15.8340    1.5578  -21.1718 O   0  0  0  0  0  0  0  0  0  0  0  0
  -12.8340   -0.4422  -24.6718 O   0  0  0  0  0  0  0  0  0  0  0  0
  -14.2340   -4.3422  -21.8718 N   0  0  0  0  0  0  0  0  0  0  0  0
  2  1  1  0
  3  2  1  0
  4  3  1  0
  5  2  1  0
  6  5  1  0
  7  4  1  0
  7  6  2  0
  8  4  1  0
  9  8  1  0
 10  9  1  0
 11 10  1  0
 12  9  1  0
 13 10  1  0
 14 11  1  0
 15 14  1  0
 16 15  1  0
 17 16  2  0
 18 16  1  0
 19 16  1  0
 20 11  1  0
 21  2  1  0
 21  3  1  0
M  END
>  <ID>  (1) 
conformer_0

$$$$
