
     RDKit          3D

 15 15  0  0  0  0  0  0  0  0999 V2000
   71.1992   53.8868   46.1594 C   0  0  0  0  0  0  0  0  0  0  0  0
   71.7992   53.8868   44.8594 C   0  0  0  0  0  0  0  0  0  0  0  0
   72.8992   54.4868   44.4594 C   0  0  0  0  0  0  0  0  0  0  0  0
   70.2992   52.8868   46.2594 N   0  0  0  0  0  0  0  0  0  0  0  0
   70.2992   52.0868   45.1594 N   0  0  0  0  0  0  0  0  0  0  0  0
   73.0992   55.2868   43.3594 C   0  0  0  0  0  0  0  0  0  0  0  0
   74.1992   55.9868   43.0594 C   0  0  0  0  0  0  0  0  0  0  0  0
   74.3991   56.4868   41.7594 C   0  0  0  0  0  0  0  0  0  0  0  0
   73.1992   56.0868   41.1594 N   0  0  0  0  0  0  0  0  0  0  0  0
   75.2991   57.1868   41.1594 C   0  0  0  0  0  0  0  0  0  0  0  0
   69.5992   52.5868   47.4594 C   0  0  0  0  0  0  0  0  0  0  0  0
   72.4992   54.8868   41.0594 C   0  0  0  0  0  0  0  0  0  0  0  0
   72.3992   54.0868   39.8594 C   0  0  0  0  0  0  0  0  0  0  0  0
   71.9992   55.9868   41.2594 N   0  0  0  0  0  0  0  0  0  0  0  0
   71.1992   52.6868   44.3594 N   0  0  0  0  0  0  0  0  0  0  0  0
  2  1  2  0
  3  2  1  0
  4  1  1  0
  5  4  1  0
  6  3  2  3
  7  6  1  0
  8  7  1  0
  9  8  1  0
 10  8  2  0
 11  4  1  0
 12  9  1  0
 13 12  1  0
 14 12  1  0
 15  2  1  0
 15  5  2  0
M  END
>  <ID>  (1) 
conformer_0

$$$$
