
     RDKit          3D

 18 21  0  0  0  0  0  0  0  0999 V2000
   71.6620   53.9069   43.3866 C   0  0  0  0  0  0  0  0  0  0  0  0
   72.7620   54.6069   43.6866 C   0  0  0  0  0  0  0  0  0  0  0  0
   73.2620   55.8069   43.0866 C   0  0  0  0  0  0  0  0  0  0  0  0
   73.6620   57.0069   43.6866 C   0  0  0  0  0  0  0  0  0  0  0  0
   72.5620   55.8069   41.7866 C   0  0  0  0  0  0  0  0  0  0  0  0
   73.2620   58.1069   43.0866 N   0  0  0  0  0  0  0  0  0  0  0  0
   72.5620   54.6069   41.2866 N   0  0  0  0  0  0  0  0  0  0  0  0
   72.6620   54.4069   39.8866 C   0  0  0  0  0  0  0  0  0  0  0  0
   71.0620   53.1069   44.3866 C   0  0  0  0  0  0  0  0  0  0  0  0
   71.1620   53.8069   45.5866 C   0  0  0  0  0  0  0  0  0  0  0  0
   71.7620   53.6069   41.9866 N   0  0  0  0  0  0  0  0  0  0  0  0
   71.9621   54.7069   46.1866 C   0  0  0  0  0  0  0  0  0  0  0  0
   73.4620   58.1069   41.7866 C   0  0  0  0  0  0  0  0  0  0  0  0
   73.2620   56.9069   41.1866 N   0  0  0  0  0  0  0  0  0  0  0  0
   70.5620   52.9069   46.5866 N   0  0  0  0  0  0  0  0  0  0  0  0
   72.9621   55.1069   45.1866 C   0  0  0  0  0  0  0  0  0  0  0  0
   73.3621   56.5069   45.0866 N   0  0  0  0  0  0  0  0  0  0  0  0
   69.3621   52.3069   46.0866 C   0  0  0  0  0  0  0  0  0  0  0  0
  2  1  1  0
  3  2  2  0
  4  3  1  0
  5  3  1  0
  6  4  2  0
  7  5  1  0
  8  7  1  0
  9  1  1  0
 10  9  2  0
 11  1  2  0
 11  7  1  0
 12 10  1  0
 13  6  1  0
 14  5  1  0
 14 13  1  0
 15 10  1  0
 16  2  1  0
 16 12  2  0
 17  4  1  0
 17 16  1  0
 18 15  1  0
M  END
>  <ID>  (1) 
conformer_0

$$$$
