
     RDKit          3D

 14 15  0  0  0  0  0  0  0  0999 V2000
   71.1992   53.8868   46.1594 C   0  0  0  0  0  0  0  0  0  0  0  0
   71.7992   53.8868   44.8594 C   0  0  0  0  0  0  0  0  0  0  0  0
   72.8992   54.4868   44.4594 C   0  0  0  0  0  0  0  0  0  0  0  0
   70.2992   52.8868   46.2594 N   0  0  0  0  0  0  0  0  0  0  0  0
   70.2992   52.0868   45.1594 N   0  0  0  0  0  0  0  0  0  0  0  0
   73.0992   55.2868   43.3594 C   0  0  0  0  0  0  0  0  0  0  0  0
   73.6992   56.4868   43.0594 C   0  0  0  0  0  0  0  0  0  0  0  0
   73.3991   57.6868   42.6594 C   0  0  0  0  0  0  0  0  0  0  0  0
   73.1992   58.2868   41.3594 C   0  0  0  0  0  0  0  0  0  0  0  0
   69.6992   52.5868   47.4594 C   0  0  0  0  0  0  0  0  0  0  0  0
   74.1992   58.2868   40.4594 C   0  0  0  0  0  0  0  0  0  0  0  0
   75.3991   58.8868   40.7594 C   0  0  0  0  0  0  0  0  0  0  0  0
   75.1992   57.4868   41.1594 N   0  0  0  0  0  0  0  0  0  0  0  0
   71.0992   52.7868   44.1594 C   0  0  0  0  0  0  0  0  0  0  0  0
  2  1  2  0
  3  2  1  0
  4  1  1  0
  5  4  1  0
  6  3  1  0
  7  6  1  0
  8  7  1  0
  9  8  1  0
 10  4  1  0
 11  9  1  0
 12 11  1  0
 13 11  1  0
 13 12  2  0
 14  2  1  0
 14  5  2  0
M  END
>  <ID>  (1) 
conformer_0

$$$$
