
     RDKit          3D

 10 11  0  0  0  0  0  0  0  0999 V2000
   72.4203   54.6350   44.5044 C   0  0  0  0  0  0  0  0  0  0  0  0
   71.6203   54.7350   45.7044 C   0  0  0  0  0  0  0  0  0  0  0  0
   70.9203   53.5350   45.9044 C   0  0  0  0  0  0  0  0  0  0  0  0
   70.8203   52.7350   44.8045 N   0  0  0  0  0  0  0  0  0  0  0  0
   71.0203   52.9350   43.5045 C   0  0  0  0  0  0  0  0  0  0  0  0
   73.5203   55.3350   44.3044 N   0  0  0  0  0  0  0  0  0  0  0  0
   70.2203   52.1350   42.7045 C   0  0  0  0  0  0  0  0  0  0  0  0
   69.6203   51.0350   43.4045 C   0  0  0  0  0  0  0  0  0  0  0  0
   69.7203   51.7350   44.9044 C   0  0  0  0  0  0  0  0  0  0  0  0
   71.6203   54.2350   43.4044 N   0  0  0  0  0  0  0  0  0  0  0  0
  2  1  2  0
  3  2  1  0
  4  3  1  0
  5  4  1  0
  6  1  1  0
  7  5  1  0
  8  7  1  0
  9  4  1  0
  9  8  1  0
 10  1  1  0
 10  5  2  0
M  END
>  <ID>  (1) 
conformer_0

$$$$
