
     RDKit          3D

 20 22  0  0  0  0  0  0  0  0999 V2000
   72.6632   55.1418   44.5242 N   0  0  0  0  0  4  0  0  0  0  0  0
   71.8632   54.0418   44.6242 C   0  0  0  0  0  0  0  0  0  0  0  0
   71.1632   54.2418   45.7242 C   0  0  0  0  0  0  0  0  0  0  0  0
   72.4632   56.0418   45.5242 N   0  0  0  0  0  0  0  0  0  0  0  0
   70.3632   53.0418   46.1242 C   0  0  0  0  0  0  0  0  0  0  0  0
   70.2632   52.3418   45.0242 N   0  0  0  0  0  0  0  0  0  0  0  0
   69.7632   52.9418   47.1242 O   0  0  0  0  0  0  0  0  0  0  0  0
   73.1632   55.7418   43.3242 C   0  0  0  0  0  0  0  0  0  0  0  0
   73.6632   57.0418   43.6242 C   0  0  0  0  0  0  0  0  0  0  0  0
   73.7632   57.9418   42.5242 C   0  0  0  0  0  0  0  0  0  0  0  0
   73.3632   55.1418   45.6242 C   0  0  0  0  0  0  0  0  0  0  0  0
   69.0632   51.5418   44.7242 C   0  0  0  0  0  0  0  0  0  0  0  0
   72.7632   55.7418   41.9242 C   0  0  0  0  0  0  0  0  0  0  0  0
   73.4632   56.8418   41.2242 C   0  0  0  0  0  0  0  0  0  0  0  0
   73.9632   57.2418   40.1242 N   0  0  0  0  0  0  0  0  0  0  0  0
   74.3632   58.6418   40.2242 C   0  0  0  0  0  0  0  0  0  0  0  0
   75.5632   58.9418   40.8242 C   0  0  0  0  0  0  0  0  0  0  0  0
   71.0632   52.7418   43.8242 C   0  0  0  0  0  0  0  0  0  0  0  0
   75.2632   58.3418   42.1242 N   0  0  0  0  0  0  0  0  0  0  0  0
   75.8632   57.6418   41.3242 N   0  0  0  0  0  0  0  0  0  0  0  0
  2  1  1  0
  3  2  1  0
  5  3  1  0
  6  5  1  0
  7  5  2  0
  8  1  1  0
  9  8  1  0
 10  9  1  0
 11  1  1  0
 11  4  2  0
 12  6  1  0
 13  8  1  0
 14 10  1  0
 14 13  1  0
 15 14  2  0
 16 15  1  0
 17 16  1  0
 18  2  1  0
 18  6  1  0
 19 10  1  0
 19 17  1  0
 20 17  1  0
M  END
>  <ID>  (1) 
conformer_0

$$$$
