
     RDKit          3D

 16 16  0  0  0  0  0  0  0  0999 V2000
   71.3477   54.6162   45.6522 C   0  0  0  0  0  0  0  0  0  0  0  0
   72.5477   54.3162   44.9522 C   0  0  0  0  0  0  0  0  0  0  0  0
   70.6478   53.4162   46.0522 C   0  0  0  0  0  0  0  0  0  0  0  0
   70.7477   52.5162   44.9522 N   0  0  0  0  0  0  0  0  0  0  0  0
   71.0478   52.9162   43.7522 C   0  0  0  0  0  0  0  0  0  0  0  0
   73.5477   55.2162   44.8522 N   0  0  0  0  0  0  0  0  0  0  0  0
   70.3478   52.5162   42.5522 C   0  0  0  0  0  0  0  0  0  0  0  0
   69.8478   51.1162   42.6522 C   0  0  0  0  0  0  0  0  0  0  0  0
   72.1477   53.8162   43.7522 N   0  0  0  0  0  0  0  0  0  0  0  0
   71.0478   52.9162   41.3522 C   0  0  0  0  0  0  0  0  0  0  0  0
   71.3478   54.3162   41.3522 C   0  0  0  0  0  0  0  0  0  0  0  0
   70.3478   55.2162   40.8522 C   0  0  0  0  0  0  0  0  0  0  0  0
   72.7478   54.8162   41.2522 C   0  0  0  0  0  0  0  0  0  0  0  0
   72.7478   56.2162   41.0522 C   0  0  0  0  0  0  0  0  0  0  0  0
   73.3478   57.2162   41.8522 C   0  0  0  0  0  0  0  0  0  0  0  0
   73.7478   57.1162   43.2522 C   0  0  0  0  0  0  0  0  0  0  0  0
  2  1  1  0
  3  1  1  0
  4  3  1  0
  5  4  2  0
  6  2  1  0
  7  5  1  0
  8  7  1  0
  9  2  1  0
  9  5  1  0
 10  7  1  0
 11 10  1  0
 12 11  1  0
 13 11  1  0
 14 13  1  0
 15 14  1  0
 16 15  1  0
M  END
>  <ID>  (1) 
conformer_0

$$$$
