
     RDKit          3D

 11 12  0  0  0  0  0  0  0  0999 V2000
   72.3542   54.3798   44.8751 C   0  0  0  0  0  0  0  0  0  0  0  0
   71.5542   54.0798   43.7751 C   0  0  0  0  0  0  0  0  0  0  0  0
   70.8542   52.8798   43.9751 C   0  0  0  0  0  0  0  0  0  0  0  0
   70.5542   52.7798   45.2751 N   0  0  0  0  0  0  0  0  0  0  0  0
   70.1543   52.1798   42.9751 C   0  0  0  0  0  0  0  0  0  0  0  0
   70.6542   53.5798   46.2751 C   0  0  0  0  0  0  0  0  0  0  0  0
   71.7542   54.3798   46.0751 N   0  0  0  0  0  0  0  0  0  0  0  0
   73.3542   55.1798   44.5751 N   0  0  0  0  0  0  0  0  0  0  0  0
   69.8542   50.7798   43.3751 C   0  0  0  0  0  0  0  0  0  0  0  0
   68.8542   51.7798   43.7751 N   0  0  0  0  0  0  0  0  0  0  0  0
   69.4542   49.8798   42.2751 C   0  0  0  0  0  0  0  0  0  0  0  0
  2  1  2  0
  3  2  1  0
  4  3  2  0
  5  3  1  0
  6  4  1  0
  7  1  1  0
  7  6  2  0
  8  1  1  0
  9  5  1  0
 10  5  1  0
 10  9  1  0
 11  9  1  0
M  END
>  <ID>  (1) 
conformer_0

$$$$
