
     RDKit          3D

 17 19  0  0  0  0  0  0  0  0999 V2000
   71.1992   53.8868   46.1594 C   0  0  0  0  0  0  0  0  0  0  0  0
   71.7992   53.8868   44.8594 C   0  0  0  0  0  0  0  0  0  0  0  0
   72.8992   54.4868   44.4594 C   0  0  0  0  0  0  0  0  0  0  0  0
   70.2992   52.8868   46.2594 N   0  0  0  0  0  0  0  0  0  0  0  0
   70.2992   52.0868   45.1594 N   0  0  0  0  0  0  0  0  0  0  0  0
   73.0992   55.2868   43.3594 C   0  0  0  0  0  0  0  0  0  0  0  0
   73.6992   56.4868   43.0594 C   0  0  0  0  0  0  0  0  0  0  0  0
   73.3991   57.6868   42.6594 C   0  0  0  0  0  0  0  0  0  0  0  0
   73.1992   58.2868   41.3594 C   0  0  0  0  0  0  0  0  0  0  0  0
   74.2991   58.2868   40.5594 C   0  0  0  0  0  0  0  0  0  0  0  0
   69.1992   51.3868   44.8594 C   0  0  0  0  0  0  0  0  0  0  0  0
   69.1992   52.4868   47.0594 C   0  0  0  0  0  0  0  0  0  0  0  0
   68.3992   51.6868   46.0594 C   0  0  0  0  0  0  0  0  0  0  0  0
   75.1992   57.3868   40.9594 N   0  0  0  0  0  0  0  0  0  0  0  0
   74.2991   56.7868   40.4594 C   0  0  0  0  0  0  0  0  0  0  0  0
   73.7991   54.0868   43.6594 N   0  0  0  0  0  0  0  0  0  0  0  0
   73.8991   52.8868   42.8594 C   0  0  0  0  0  0  0  0  0  0  0  0
  2  1  2  3
  3  2  1  0
  4  1  1  0
  5  4  1  0
  6  3  1  0
  7  6  1  0
  8  7  1  0
  9  8  1  0
 10  9  1  0
 11  5  2  0
 12  4  1  0
 13 11  1  0
 13 12  2  0
 14 10  1  0
 15 10  1  0
 15 14  2  0
 16  3  1  0
 16  6  1  0
 17 16  1  0
M  END
>  <ID>  (1) 
conformer_0

$$$$
