
     RDKit          3D

 15 18  0  0  0  0  0  0  0  0999 V2000
   72.6065   54.5916   45.0014 C   0  0  0  0  0  0  0  0  0  0  0  0
   71.4065   53.8916   45.2014 C   0  0  0  0  0  0  0  0  0  0  0  0
   71.1065   52.9916   44.2014 C   0  0  0  0  0  0  0  0  0  0  0  0
   70.0065   52.1916   44.4014 N   0  0  0  0  0  0  0  0  0  0  0  0
   72.9065   54.4916   43.7014 C   0  0  0  0  0  0  0  0  0  0  0  0
   72.2065   52.2916   44.0014 N   0  0  0  0  0  0  0  0  0  0  0  0
   73.5065   55.4916   42.8014 C   0  0  0  0  0  0  0  0  0  0  0  0
   73.2065   55.4916   41.5014 N   0  0  0  0  0  0  0  0  0  0  0  0
   73.4065   56.6917   40.8014 C   0  0  0  0  0  0  0  0  0  0  0  0
   73.8065   57.6917   41.8014 C   0  0  0  0  0  0  0  0  0  0  0  0
   73.7065   56.8917   43.2014 C   0  0  0  0  0  0  0  0  0  0  0  0
   69.9065   50.9916   43.6014 C   0  0  0  0  0  0  0  0  0  0  0  0
   73.6065   53.8917   44.6014 N   0  0  0  0  0  0  0  0  0  0  0  0
   73.2065   53.1916   43.5014 N   0  0  0  0  0  0  0  0  0  0  0  0
   74.8065   56.8917   41.0014 N   0  0  0  0  0  0  0  0  0  0  0  0
  2  1  1  0
  3  2  1  0
  4  3  1  0
  5  1  1  0
  6  3  2  0
  7  5  1  0
  8  7  1  0
  9  8  1  0
 10  9  1  0
 11  7  1  0
 11 10  1  0
 12  4  1  0
 13  1  1  0
 13  5  1  0
 14  5  1  0
 14  6  1  0
 15  9  1  0
 15 10  1  0
M  END
>  <ID>  (1) 
conformer_0

$$$$
