
     RDKit          3D

 17 22  0  0  0  0  0  0  0  0999 V2000
   70.8780   53.8976   45.9661 C   0  0  0  0  0  0  0  0  0  0  0  0
   71.7780   54.1976   44.9661 C   0  0  0  0  0  0  0  0  0  0  0  0
   71.7780   53.5976   43.7661 C   0  0  0  0  0  0  0  0  0  0  0  0
   70.1780   52.7976   45.6661 N   0  0  0  0  0  0  0  0  0  0  0  0
   70.8780   51.8976   44.8661 C   0  0  0  0  0  0  0  0  0  0  0  0
   69.9780   52.4976   44.3661 N   0  0  0  0  0  0  0  0  0  0  0  0
   72.4780   54.3976   42.8661 N   0  0  0  0  0  0  0  0  0  0  0  0
   72.3780   54.8976   41.5661 C   0  0  0  0  0  0  0  0  0  0  0  0
   72.6780   56.0976   41.2661 C   0  0  0  0  0  0  0  0  0  0  0  0
   73.6780   56.4976   40.2661 C   0  0  0  0  0  0  0  0  0  0  0  0
   73.3780   55.2976   39.4661 C   0  0  0  0  0  0  0  0  0  0  0  0
   71.5780   55.7976   41.0661 N   0  0  0  0  0  0  0  0  0  0  0  0
   73.1780   54.1976   40.4661 C   0  0  0  0  0  0  0  0  0  0  0  0
   74.0780   56.3976   41.4661 N   0  0  0  0  0  0  0  0  0  0  0  0
   74.4780   57.4976   42.3661 C   0  0  0  0  0  0  0  0  0  0  0  0
   72.4780   54.3976   39.2661 N   0  0  0  0  0  0  0  0  0  0  0  0
   70.9780   52.4976   43.7661 C   0  0  0  0  0  0  0  0  0  0  0  0
  2  1  1  0
  3  2  2  0
  4  1  1  0
  5  4  2  0
  6  5  1  0
  7  3  1  0
  8  7  1  0
  9  8  1  0
 10  9  1  0
 11 10  1  0
 12  8  1  0
 12  9  1  0
 13  8  1  0
 13 11  1  0
 14  9  1  0
 14 10  1  0
 15 14  1  0
 16 11  1  0
 16 13  1  0
 17  3  1  0
 17  5  1  0
 17  6  2  0
M  END
>  <ID>  (1) 
conformer_0

$$$$
