
     RDKit          3D

 20 22  0  0  0  0  0  0  0  0999 V2000
   71.6620   53.9069   43.3866 C   0  0  0  0  0  0  0  0  0  0  0  0
   72.7620   54.6069   43.6866 C   0  0  0  0  0  0  0  0  0  0  0  0
   73.2620   55.8069   43.0866 C   0  0  0  0  0  0  0  0  0  0  0  0
   73.6620   57.0069   43.6866 C   0  0  0  0  0  0  0  0  0  0  0  0
   72.5620   55.8069   41.7866 C   0  0  0  0  0  0  0  0  0  0  0  0
   73.2620   58.1069   43.0866 N   0  0  0  0  0  0  0  0  0  0  0  0
   72.5620   54.6069   41.2866 N   0  0  0  0  0  0  0  0  0  0  0  0
   72.6620   54.4069   39.8866 C   0  0  0  0  0  0  0  0  0  0  0  0
   71.0620   53.1069   44.3866 C   0  0  0  0  0  0  0  0  0  0  0  0
   71.1620   53.8069   45.5866 C   0  0  0  0  0  0  0  0  0  0  0  0
   73.4620   53.9069   44.7866 C   0  0  0  0  0  0  0  0  0  0  0  0
   71.6620   53.7069   41.9866 N   0  0  0  0  0  0  0  0  0  0  0  0
   70.3620   53.4069   46.6866 O   0  0  0  0  0  0  0  0  0  0  0  0
   72.5620   53.8069   45.9866 C   0  0  0  0  0  0  0  0  0  0  0  0
   73.5620   55.5069   39.4866 C   0  0  0  0  0  0  0  0  0  0  0  0
   72.4621   57.0069   41.2866 N   0  0  0  0  0  0  0  0  0  0  0  0
   72.9621   58.1069   41.7866 C   0  0  0  0  0  0  0  0  0  0  0  0
   74.8621   55.1069   38.8866 C   0  0  0  0  0  0  0  0  0  0  0  0
   72.7620   53.0069   39.3866 C   0  0  0  0  0  0  0  0  0  0  0  0
   71.4620   52.4069   39.3866 O   0  0  0  0  0  0  0  0  0  0  0  0
  2  1  1  0
  3  2  2  0
  4  3  1  0
  5  3  1  0
  6  4  1  0
  7  5  1  0
  8  7  1  0
  9  1  1  0
 10  9  2  0
 11  2  1  0
 12  1  2  0
 12  7  1  0
 13 10  1  0
 14 10  1  0
 14 11  2  0
 15  8  1  0
 16  5  2  0
 17  6  2  0
 17 16  1  0
 18 15  1  0
 19  8  1  0
 20 19  1  0
M  END
>  <ID>  (1) 
conformer_0

$$$$
