
     RDKit          3D

 13 13  0  0  0  0  0  0  0  0999 V2000
   72.6065   54.5916   45.0014 C   0  0  0  0  0  0  0  0  0  0  0  0
   71.4065   53.8916   45.2014 C   0  0  0  0  0  0  0  0  0  0  0  0
   73.1065   54.4916   43.7014 C   0  0  0  0  0  0  0  0  0  0  0  0
   71.2065   53.1916   44.0014 C   0  0  0  0  0  0  0  0  0  0  0  0
   72.2065   53.5916   43.1014 N   0  0  0  0  0  0  0  0  0  0  0  0
   72.2065   53.1916   41.7014 C   0  0  0  0  0  0  0  0  0  0  0  0
   72.1065   51.9916   41.4014 O   0  0  0  0  0  0  0  0  0  0  0  0
   72.5065   54.1916   40.7014 C   0  0  0  0  0  0  0  0  0  0  0  0
   72.5065   55.4916   41.4014 C   0  0  0  0  0  0  0  0  0  0  0  0
   73.3065   56.5916   41.0014 C   0  0  0  0  0  0  0  0  0  0  0  0
   73.3065   57.7916   41.5014 C   0  0  0  0  0  0  0  0  0  0  0  0
   74.4065   58.7916   41.4014 C   0  0  0  0  0  0  0  0  0  0  0  0
   75.1065   59.6916   42.2014 C   0  0  0  0  0  0  0  0  0  0  0  0
  2  1  1  0
  3  1  2  0
  4  2  2  0
  5  3  1  0
  5  4  1  0
  6  5  1  0
  7  6  2  0
  8  6  1  0
  9  8  1  0
 10  9  2  3
 11 10  1  0
 12 11  1  0
 13 12  1  0
M  END
>  <ID>  (1) 
conformer_0

$$$$
