
     RDKit          3D

 18 21  0  0  0  0  0  0  0  0999 V2000
   72.6065   54.5916   45.0014 C   0  0  0  0  0  0  0  0  0  0  0  0
   71.3065   54.0916   45.3014 C   0  0  0  0  0  0  0  0  0  0  0  0
   73.0065   54.6916   43.7014 C   0  0  0  0  0  0  0  0  0  0  0  0
   71.0065   53.6916   46.5014 N   0  0  0  0  0  0  0  0  0  0  0  0
   69.9065   52.6916   46.5014 C   0  0  0  0  0  0  0  0  0  0  0  0
   70.0065   52.0916   45.4014 N   0  0  0  0  0  0  0  0  0  0  0  0
   73.7065   55.6916   43.1014 C   0  0  0  0  0  3  0  0  0  0  0  0
   73.4065   55.8916   41.7014 N   0  0  0  0  0  4  0  0  0  0  0  0
   72.7065   54.7916   41.2014 C   0  0  0  0  0  0  0  0  0  0  0  0
   74.3065   56.3916   40.9014 N   0  0  0  0  0  0  0  0  0  0  0  0
   74.2065   55.9916   39.5014 C   0  0  0  0  0  0  0  0  0  0  0  0
   73.2065   54.8916   39.8014 C   0  0  0  0  0  0  0  0  0  0  0  0
   73.1065   57.0916   41.2014 C   0  0  0  0  0  0  0  0  0  0  0  0
   70.9065   52.8916   44.6014 C   0  0  0  0  0  0  0  0  0  0  0  0
   71.1065   52.6916   47.2014 N   0  0  0  0  0  0  0  0  0  0  0  0
   71.9065   55.1916   40.1014 C   0  0  0  0  0  0  0  0  0  0  0  0
   73.5065   57.7916   42.2014 C   0  0  0  0  0  0  0  0  0  0  0  0
   73.4065   57.1917   43.5014 N   0  0  0  0  0  0  0  0  0  0  0  0
  2  1  1  0
  3  1  1  0
  4  2  1  0
  5  4  1  0
  6  5  2  0
  7  3  1  0
  8  7  1  0
  9  8  1  0
 11 10  1  0
 12  9  1  0
 12 11  1  0
 13  8  1  0
 13 10  1  0
 14  2  1  0
 14  6  1  0
 15  5  1  0
 16  9  1  0
 16 12  1  0
 17 13  2  0
 18  7  1  0
 18 17  1  0
M  END
>  <ID>  (1) 
conformer_0

$$$$
