
     RDKit          3D

 20 23  0  0  0  0  0  0  0  0999 V2000
   70.8780   53.8976   45.9661 C   0  0  0  0  0  0  0  0  0  0  0  0
   71.7780   54.1976   44.9661 C   0  0  0  0  0  0  0  0  0  0  0  0
   71.7780   53.5976   43.7661 C   0  0  0  0  0  0  0  0  0  0  0  0
   70.1780   52.7976   45.6661 N   0  0  0  0  0  0  0  0  0  0  0  0
   70.8780   51.8976   44.8661 C   0  0  0  0  0  0  0  0  0  0  0  0
   69.9780   52.4976   44.3661 N   0  0  0  0  0  0  0  0  0  0  0  0
   72.7780   54.1976   42.8661 N   0  0  0  0  0  0  0  0  0  0  0  0
   73.4780   55.2976   43.5661 C   0  0  0  0  0  3  0  0  0  0  0  0
   72.7780   55.2976   44.8661 N   0  0  0  0  0  0  0  0  0  0  0  0
   73.8780   56.4976   43.0661 C   0  0  0  0  0  0  0  0  0  0  0  0
   73.6780   57.6976   43.8661 O   0  0  0  0  0  0  0  0  0  0  0  0
   73.5780   56.8976   41.6661 C   0  0  0  0  0  0  0  0  0  0  0  0
   74.5780   56.3976   40.6661 C   0  0  0  0  0  0  0  0  0  0  0  0
   73.9780   56.3976   39.3661 O   0  0  0  0  0  0  0  0  0  0  0  0
   72.6780   57.6976   41.2661 O   0  0  0  0  0  0  0  0  0  0  0  0
   74.3780   55.2976   38.6661 C   0  0  0  0  0  0  0  0  0  0  0  0
   71.9780   52.2976   44.0661 N   0  0  0  0  0  0  0  0  0  0  0  0
   73.5780   55.3976   41.1661 C   0  0  0  0  0  0  0  0  0  0  0  0
   72.9780   54.4976   40.3661 O   0  0  0  0  0  0  0  0  0  0  0  0
   73.6780   53.9976   39.2661 C   0  0  0  0  0  0  0  0  0  0  0  0
  2  1  2  0
  3  2  1  0
  4  1  1  0
  5  4  1  0
  6  5  2  0
  7  3  2  0
  8  7  1  0
  9  2  1  0
  9  8  1  0
 10  8  1  0
 11 10  1  0
 12 10  1  0
 13 12  1  0
 14 13  1  0
 15 12  1  0
 16 14  1  0
 17  3  1  0
 17  5  1  0
 18 12  1  0
 18 13  1  0
 19 18  1  0
 20 16  1  0
 20 19  1  0
M  END
>  <ID>  (1) 
conformer_0

$$$$
