
     RDKit          3D

 20 23  0  0  0  0  0  0  0  0999 V2000
   71.6620   53.9069   43.3866 C   0  0  0  0  0  0  0  0  0  0  0  0
   72.7620   54.6069   43.6866 C   0  0  0  0  0  0  0  0  0  0  0  0
   73.2620   55.8069   43.0866 C   0  0  0  0  0  0  0  0  0  0  0  0
   73.6620   57.0069   43.6866 C   0  0  0  0  0  0  0  0  0  0  0  0
   72.5620   55.8069   41.7866 C   0  0  0  0  0  0  0  0  0  0  0  0
   73.2620   58.1069   43.0866 N   0  0  0  0  0  0  0  0  0  0  0  0
   72.5620   54.6069   41.2866 N   0  0  0  0  0  0  0  0  0  0  0  0
   72.6620   54.4069   39.8866 C   0  0  0  0  0  0  0  0  0  0  0  0
   71.1620   53.0069   44.2866 C   0  0  0  0  0  0  0  0  0  0  0  0
   71.6620   53.7069   41.9866 N   0  0  0  0  0  0  0  0  0  0  0  0
   71.1620   53.3069   45.5866 C   0  0  0  0  0  0  0  0  0  0  0  0
   71.4621   54.5069   46.0866 C   0  0  0  0  0  0  0  0  0  0  0  0
   72.8621   56.9069   41.2866 N   0  0  0  0  0  0  0  0  0  0  0  0
   73.2621   58.1069   41.6866 C   0  0  0  0  0  0  0  0  0  0  0  0
   72.4621   55.1069   45.1866 C   0  0  0  0  0  0  0  0  0  0  0  0
   70.4621   52.4069   46.4866 N   0  0  0  0  0  0  0  0  0  0  0  0
   73.1620   56.4069   45.1866 N   0  0  0  0  0  0  0  0  0  0  0  0
   69.1620   51.9069   46.1866 C   0  0  0  0  0  0  0  0  0  0  0  0
   68.3620   51.4069   47.2866 C   0  0  0  0  0  0  0  0  0  0  0  0
   68.9621   51.7069   44.7866 C   0  0  0  0  0  0  0  0  0  0  0  0
  2  1  1  0
  3  2  2  0
  4  3  1  0
  5  3  1  0
  6  4  2  0
  7  5  1  0
  8  7  1  0
  9  1  1  0
 10  1  2  0
 10  7  1  0
 11  9  2  0
 12 11  1  0
 13  5  1  0
 14  6  1  0
 14 13  2  0
 15  2  1  0
 15 12  2  0
 16 11  1  0
 17  4  1  0
 17 15  1  0
 18 16  1  0
 19 18  1  0
 20 18  1  0
M  END
>  <ID>  (1) 
conformer_0

$$$$
