
     RDKit          3D

 14 14  0  0  0  0  0  0  0  0999 V2000
   72.4203   54.6350   44.5044 C   0  0  0  0  0  0  0  0  0  0  0  0
   71.6203   54.7350   45.7044 C   0  0  0  0  0  0  0  0  0  0  0  0
   70.9203   53.5350   45.9044 C   0  0  0  0  0  0  0  0  0  0  0  0
   71.2203   52.5350   45.1045 N   0  0  0  0  0  0  0  0  0  0  0  0
   73.4203   55.4350   44.3044 N   0  0  0  0  0  0  0  0  0  0  0  0
   71.6203   54.2350   43.6044 N   0  0  0  0  0  0  0  0  0  0  0  0
   71.1203   52.9350   43.7044 C   0  0  0  0  0  0  0  0  0  0  0  0
   70.9203   52.1350   42.5044 C   0  0  0  0  0  0  0  0  0  0  0  0
   69.9203   51.0350   42.6044 C   0  0  0  0  0  0  0  0  0  0  0  0
   70.8203   52.8350   41.2044 C   0  0  0  0  0  0  0  0  0  0  0  0
   71.1203   54.2350   41.0044 C   0  0  0  0  0  0  0  0  0  0  0  0
   72.0203   54.7350   40.0044 C   0  0  0  0  0  0  0  0  0  0  0  0
   72.8203   53.5350   39.6044 C   0  0  0  0  0  0  0  0  0  0  0  0
   72.2203   52.2350   39.2044 C   0  0  0  0  0  0  0  0  0  0  0  0
  2  1  1  0
  3  2  2  0
  4  3  1  0
  5  1  2  0
  6  1  1  0
  7  4  2  0
  7  6  1  0
  8  7  1  0
  9  8  1  0
 10  8  1  0
 11 10  1  0
 12 11  1  0
 13 12  1  0
 14 13  1  0
M  END
>  <ID>  (1) 
conformer_0

$$$$
