
     RDKit          3D

 19 21  0  0  0  0  0  0  0  0999 V2000
   71.6620   53.9069   43.3866 C   0  0  0  0  0  0  0  0  0  0  0  0
   72.7620   54.6069   43.6866 C   0  0  0  0  0  0  0  0  0  0  0  0
   73.2620   55.8069   43.0866 C   0  0  0  0  0  0  0  0  0  0  0  0
   73.6620   57.0069   43.6866 C   0  0  0  0  0  0  0  0  0  0  0  0
   72.5620   55.8069   41.7866 C   0  0  0  0  0  0  0  0  0  0  0  0
   73.2620   58.1069   43.0866 N   0  0  0  0  0  0  0  0  0  0  0  0
   72.5620   54.6069   41.2866 N   0  0  0  0  0  0  0  0  0  0  0  0
   72.6620   54.4069   39.8866 C   0  0  0  0  0  0  0  0  0  0  0  0
   71.1620   53.0069   44.2866 C   0  0  0  0  0  0  0  0  0  0  0  0
   71.7620   53.7069   41.9866 N   0  0  0  0  0  0  0  0  0  0  0  0
   71.2620   53.2069   45.5866 C   0  0  0  0  0  0  0  0  0  0  0  0
   71.8620   54.3069   46.1866 C   0  0  0  0  0  0  0  0  0  0  0  0
   73.0620   56.9069   41.0866 N   0  0  0  0  0  0  0  0  0  0  0  0
   73.4621   58.0069   41.6866 C   0  0  0  0  0  0  0  0  0  0  0  0
   72.8620   54.8069   45.2866 C   0  0  0  0  0  0  0  0  0  0  0  0
   70.5620   52.2069   46.3866 N   0  0  0  0  0  0  0  0  0  0  0  0
   69.5620   51.6069   45.5866 C   0  0  0  0  0  0  0  0  0  0  0  0
   69.7620   50.7069   44.8866 O   0  0  0  0  0  0  0  0  0  0  0  0
   68.2620   51.8069   46.2866 C   0  0  0  0  0  0  0  0  0  0  0  0
  2  1  1  0
  3  2  2  0
  4  3  1  0
  5  3  1  0
  6  4  1  0
  7  5  1  0
  8  7  1  0
  9  1  1  0
 10  1  2  0
 10  7  1  0
 11  9  2  0
 12 11  1  0
 13  5  2  0
 14  6  2  0
 14 13  1  0
 15  2  1  0
 15 12  2  0
 16 11  1  0
 17 16  1  0
 18 17  2  0
 19 17  1  0
M  END
>  <ID>  (1) 
conformer_0

$$$$
