
     RDKit          3D

 17 18  0  0  0  0  0  0  0  0999 V2000
   72.6065   54.5916   45.0014 C   0  0  0  0  0  0  0  0  0  0  0  0
   71.3065   54.0916   45.3014 C   0  0  0  0  0  0  0  0  0  0  0  0
   73.0065   54.6916   43.7014 C   0  0  0  0  0  0  0  0  0  0  0  0
   71.0065   53.6916   46.5014 N   0  0  0  0  0  0  0  0  0  0  0  0
   69.9065   52.6916   46.5014 C   0  0  0  0  0  0  0  0  0  0  0  0
   70.0065   52.0916   45.4014 N   0  0  0  0  0  0  0  0  0  0  0  0
   73.7065   55.6916   43.1014 C   0  0  0  0  0  0  0  0  0  0  0  0
   73.4065   55.8916   41.7014 N   0  0  0  0  0  4  0  0  0  0  0  0
   72.7065   54.7916   41.2014 C   0  0  0  0  0  3  0  0  0  0  0  0
   74.3065   56.3916   40.9014 N   0  0  0  0  0  0  0  0  0  0  0  0
   74.5065   55.6916   39.6014 C   0  0  0  0  0  0  0  0  0  0  0  0
   70.9065   52.8916   44.6014 C   0  0  0  0  0  0  0  0  0  0  0  0
   75.1065   57.4916   41.0014 C   0  0  0  0  0  0  0  0  0  0  0  0
   73.4065   54.5916   39.9014 C   0  0  0  0  0  0  0  0  0  0  0  0
   72.3065   55.8916   41.5014 N   0  0  0  0  0  0  0  0  0  0  0  0
   71.1065   52.5916   47.2014 N   0  0  0  0  0  0  0  0  0  0  0  0
   74.7065   58.3916   42.1014 C   0  0  0  0  0  0  0  0  0  0  0  0
  2  1  1  0
  3  1  1  0
  4  2  1  0
  5  4  1  0
  6  5  2  0
  7  3  1  0
  8  7  1  0
  9  8  1  0
 10  8  1  0
 11 10  1  0
 12  2  1  0
 12  6  1  0
 13 10  1  0
 14  9  1  0
 14 11  2  0
 15  9  1  0
 16  5  1  0
 17 13  1  0
M  END
>  <ID>  (1) 
conformer_0

$$$$
