
     RDKit          3D

 11 12  0  0  0  0  0  0  0  0999 V2000
   70.5570   53.2136   46.2723 C   0  0  0  0  0  0  0  0  0  0  0  0
   71.3570   54.3136   45.8723 C   0  0  0  0  0  0  0  0  0  0  0  0
   72.2570   54.1136   44.8723 C   0  0  0  0  0  0  0  0  0  0  0  0
   70.3570   52.4136   45.1723 N   0  0  0  0  0  0  0  0  0  0  0  0
   70.7570   52.6136   43.9723 C   0  0  0  0  0  0  0  0  0  0  0  0
   73.3570   54.9136   44.8723 N   0  0  0  0  0  0  0  0  0  0  0  0
   71.7570   53.5136   43.6723 C   0  0  0  0  0  0  0  0  0  0  0  0
   72.1570   53.6136   42.2723 C   0  0  0  0  0  0  0  0  0  0  0  0
   71.8570   52.3136   41.6723 C   0  0  0  0  0  0  0  0  0  0  0  0
   70.4570   51.8136   41.6723 C   0  0  0  0  0  0  0  0  0  0  0  0
   69.8570   52.4136   42.8723 N   0  0  0  0  0  0  0  0  0  0  0  0
  2  1  1  0
  3  2  1  0
  4  1  1  0
  5  4  2  0
  6  3  1  0
  7  3  1  0
  7  5  1  0
  8  7  1  0
  9  8  1  0
 10  9  1  0
 11  5  1  0
 11 10  1  0
M  END
>  <ID>  (1) 
conformer_0

$$$$
