
     RDKit          3D

 13 15  0  0  0  0  0  0  0  0999 V2000
   72.4203   54.6350   44.5044 C   0  0  0  0  0  0  0  0  0  0  0  0
   71.6203   54.7350   45.7044 C   0  0  0  0  0  0  0  0  0  0  0  0
   70.9203   53.5350   45.9044 C   0  0  0  0  0  0  0  0  0  0  0  0
   70.8203   52.7350   44.8045 N   0  0  0  0  0  0  0  0  0  0  0  0
   71.0203   52.9350   43.5045 C   0  0  0  0  0  0  0  0  0  0  0  0
   73.5203   55.3350   44.3044 N   0  0  0  0  0  0  0  0  0  0  0  0
   70.3203   52.2350   42.5045 C   0  0  0  0  0  0  0  0  0  0  0  0
   70.1203   53.2350   46.9044 O   0  0  0  0  0  0  0  0  0  0  0  0
   71.6203   54.1350   43.4045 N   0  0  0  0  0  0  0  0  0  0  0  0
   69.5203   51.2350   43.2045 C   0  0  0  0  0  0  0  0  0  0  0  0
   69.2203   50.8350   44.4045 C   0  0  0  0  0  0  0  0  0  0  0  0
   70.2203   51.4350   45.3045 C   0  0  0  0  0  0  0  0  0  0  0  0
   68.8203   51.8350   45.5045 C   0  0  0  0  0  0  0  0  0  0  0  0
  2  1  1  0
  3  2  1  0
  4  3  1  0
  5  4  1  0
  6  1  2  0
  7  5  1  0
  8  3  2  0
  9  1  1  0
  9  5  1  0
 10  7  1  0
 11 10  1  0
 12  4  1  0
 12 11  1  0
 13 11  1  0
 13 12  1  0
M  END
>  <ID>  (1) 
conformer_0

$$$$
