
     RDKit          3D

 13 13  0  0  0  0  0  0  0  0999 V2000
   71.5395   54.2989   45.2235 C   0  0  0  0  0  0  0  0  0  0  0  0
   71.8395   53.9989   43.9235 C   0  0  0  0  0  0  0  0  0  0  0  0
   70.8395   53.3989   45.9235 C   0  0  0  0  0  0  0  0  0  0  0  0
   70.6395   52.2989   45.2235 N   0  0  0  0  0  0  0  0  0  0  0  0
   72.8395   54.5989   43.2235 N   0  0  0  0  0  0  0  0  0  0  0  0
   70.3395   51.9989   44.0235 C   0  0  0  0  0  0  0  0  0  0  0  0
   72.7395   54.9989   41.8235 C   0  0  0  0  0  0  0  0  0  0  0  0
   70.0395   50.7989   43.4235 C   0  0  0  0  0  0  0  0  0  0  0  0
   72.9395   56.3989   41.4235 C   0  0  0  0  0  0  0  0  0  0  0  0
   73.0395   57.0989   42.6235 O   0  0  0  0  0  0  0  0  0  0  0  0
   74.1395   57.8989   42.7235 C   0  0  0  0  0  0  0  0  0  0  0  0
   73.9395   56.6989   40.4235 C   0  0  0  0  0  0  0  0  0  0  0  0
   71.0395   53.0989   43.1235 C   0  0  0  0  0  0  0  0  0  0  0  0
  2  1  2  0
  3  1  1  0
  4  3  2  0
  5  2  1  0
  6  4  1  0
  7  5  1  0
  8  6  1  0
  9  7  1  0
 10  9  1  0
 11 10  1  0
 12  9  1  0
 13  2  1  0
 13  6  2  0
M  END
>  <ID>  (1) 
conformer_0

$$$$
