
     RDKit          3D

 16 16  0  0  0  0  0  0  0  0999 V2000
   70.5570   53.2136   46.2723 C   0  0  0  0  0  0  0  0  0  0  0  0
   71.3570   54.3136   45.8723 C   0  0  0  0  0  0  0  0  0  0  0  0
   72.1570   54.1136   44.7723 C   0  0  0  0  0  0  0  0  0  0  0  0
   70.4570   52.3136   45.2723 N   0  0  0  0  0  0  0  0  0  0  0  0
   72.9570   55.2136   44.3723 N   0  0  0  0  0  0  0  0  0  0  0  0
   70.7570   52.3136   44.0723 C   0  0  0  0  0  0  0  0  0  0  0  0
   70.2570   51.5136   42.9723 C   0  0  0  0  0  0  0  0  0  0  0  0
   71.4570   53.5136   43.6723 C   0  0  0  0  0  0  0  0  0  0  0  0
   73.9570   55.1136   43.3723 C   0  0  0  0  0  0  0  0  0  0  0  0
   73.8570   56.1136   42.2723 C   0  0  0  0  0  0  0  0  0  0  0  0
   73.4570   57.5136   42.4723 C   0  0  0  0  0  0  0  0  0  0  0  0
   74.3570   55.7136   40.9723 C   0  0  0  0  0  0  0  0  0  0  0  0
   74.6570   54.1136   43.3723 O   0  0  0  0  0  0  0  0  0  0  0  0
   73.7570   55.0136   39.8723 C   0  0  0  0  0  0  0  0  0  0  0  0
   72.6570   54.1136   40.0723 C   0  0  0  0  0  0  0  0  0  0  0  0
   71.2570   54.6136   39.9723 C   0  0  0  0  0  0  0  0  0  0  0  0
  2  1  2  0
  3  2  1  0
  4  1  1  0
  5  3  1  0
  6  4  2  0
  7  6  1  0
  8  3  2  0
  8  6  1  0
  9  5  1  0
 10  9  1  0
 11 10  1  0
 12 10  1  0
 13  9  2  0
 14 12  1  0
 15 14  1  0
 16 15  1  0
M  END
>  <ID>  (1) 
conformer_0

$$$$
