
     RDKit          3D

 19 21  0  0  0  0  0  0  0  0999 V2000
   70.5570   53.2136   46.2723 C   0  0  0  0  0  0  0  0  0  0  0  0
   71.3570   54.3136   45.8723 C   0  0  0  0  0  0  0  0  0  0  0  0
   72.2570   54.1136   44.8723 C   0  0  0  0  0  0  0  0  0  0  0  0
   70.6570   52.3136   45.2723 N   0  0  0  0  0  0  0  0  0  0  0  0
   70.8570   52.5136   43.9723 C   0  0  0  0  0  0  0  0  0  0  0  0
   73.2570   55.0136   44.5723 N   0  0  0  0  0  0  0  0  0  0  0  0
   70.4570   51.6136   42.9723 C   0  0  0  0  0  0  0  0  0  0  0  0
   71.6570   53.6136   43.6723 C   0  0  0  0  0  0  0  0  0  0  0  0
   73.6570   55.8136   43.3723 C   0  0  0  0  0  0  0  0  0  0  0  0
   73.8570   57.2136   43.5723 C   0  0  0  0  0  0  0  0  0  0  0  0
   73.7570   58.0136   42.3723 C   0  0  0  0  0  0  0  0  0  0  0  0
   73.1570   57.1136   41.3723 C   0  0  0  0  0  0  0  0  0  0  0  0
   72.7570   55.8136   41.9723 C   0  0  0  0  0  0  0  0  0  0  0  0
   69.5570   50.5136   43.3723 C   0  0  0  0  0  0  0  0  0  0  0  0
   71.6570   53.6136   42.1723 C   0  0  0  0  0  0  0  0  0  0  0  0
   72.6570   54.5136   41.6723 N   0  0  0  0  0  0  0  0  0  0  0  0
   70.4570   54.2136   41.7723 O   0  0  0  0  0  0  0  0  0  0  0  0
   71.3570   51.2136   41.9723 F   0  0  0  0  0  0  0  0  0  0  0  0
   70.4570   54.6136   40.3723 C   0  0  0  0  0  0  0  0  0  0  0  0
  2  1  2  0
  3  2  1  0
  4  1  1  0
  5  4  2  0
  6  3  1  0
  7  5  1  0
  8  3  2  0
  8  5  1  0
  9  6  1  0
 10  9  1  0
 11 10  1  0
 12 11  1  0
 13  9  1  0
 13 12  1  0
 14  7  1  0
 15  8  1  0
 16 13  1  0
 16 15  1  0
 17 15  1  0
 18  7  1  0
 19 17  1  0
M  END
>  <ID>  (1) 
conformer_0

$$$$
