
     RDKit          3D

 11 12  0  0  0  0  0  0  0  0999 V2000
   72.3542   54.3798   44.8751 C   0  0  0  0  0  0  0  0  0  0  0  0
   71.5542   54.0798   43.7751 C   0  0  0  0  0  0  0  0  0  0  0  0
   70.8542   52.8798   43.9751 C   0  0  0  0  0  0  0  0  0  0  0  0
   70.7542   52.7798   45.3751 N   0  0  0  0  0  0  0  0  0  0  0  0
   71.5543   53.7798   45.9751 N   0  0  0  0  0  0  0  0  0  0  0  0
   69.6543   52.1798   45.9751 C   0  0  0  0  0  0  0  0  0  0  0  0
   68.9543   51.5798   44.8751 C   0  0  0  0  0  0  0  0  0  0  0  0
   70.3542   51.9798   42.9751 C   0  0  0  0  0  0  0  0  0  0  0  0
   69.7543   50.8798   43.9751 C   0  0  0  0  0  0  0  0  0  0  0  0
   73.2542   55.4798   45.0751 C   0  0  0  0  0  0  0  0  0  0  0  0
   73.2542   56.7798   44.7751 N   0  0  0  0  0  0  0  0  0  0  0  0
  2  1  1  0
  3  2  2  0
  4  3  1  0
  5  1  2  0
  5  4  1  0
  6  4  1  0
  7  6  1  0
  8  3  1  0
  9  7  1  0
  9  8  1  0
 10  1  1  0
 11 10  1  0
M  END
>  <ID>  (1) 
conformer_0

$$$$
