
     RDKit          3D

 18 20  0  0  0  0  0  0  0  0999 V2000
   72.6065   54.5916   45.0014 C   0  0  0  0  0  0  0  0  0  0  0  0
   71.3065   54.0916   45.3014 C   0  0  0  0  0  0  0  0  0  0  0  0
   73.0065   54.6916   43.7014 C   0  0  0  0  0  0  0  0  0  0  0  0
   71.0065   53.6916   46.5014 N   0  0  0  0  0  0  0  0  0  0  0  0
   69.9065   52.6916   46.5014 C   0  0  0  0  0  0  0  0  0  0  0  0
   70.0065   52.0916   45.4014 N   0  0  0  0  0  0  0  0  0  0  0  0
   73.7065   55.6916   43.1014 C   0  0  0  0  0  0  0  0  0  0  0  0
   73.4065   55.8916   41.7014 N   0  0  0  0  0  4  0  0  0  0  0  0
   72.7065   54.7916   41.2014 C   0  0  0  0  0  0  0  0  0  0  0  0
   73.6065   56.9916   41.0014 C   0  0  0  0  0  0  0  0  0  0  0  0
   72.3065   55.1917   40.0014 C   0  0  0  0  0  0  0  0  0  0  0  0
   72.5065   56.8916   41.6014 N   0  0  0  0  0  0  0  0  0  0  0  0
   70.9065   52.7916   44.6014 C   0  0  0  0  0  3  0  0  0  0  0  0
   74.8065   57.7916   41.2014 C   0  0  0  0  0  0  0  0  0  0  0  0
   71.1065   52.5916   47.1014 N   0  0  0  0  0  0  0  0  0  0  0  0
   71.2065   54.4916   39.4014 C   0  0  0  0  0  0  0  0  0  0  0  0
   73.5065   54.6917   40.1014 N   0  0  0  0  0  0  0  0  0  0  0  0
   70.7065   53.8916   44.1014 N   0  0  0  0  0  0  0  0  0  0  0  0
  2  1  1  0
  3  1  1  0
  4  2  1  0
  5  4  1  0
  6  5  2  0
  7  3  1  0
  8  7  1  0
  9  8  1  0
 10  8  1  0
 11  9  1  0
 12 10  1  0
 13  2  1  0
 13  6  1  0
 14 10  1  0
 15  5  1  0
 16 11  1  0
 17  9  1  0
 17 11  1  0
 18  2  1  0
 18 13  1  0
M  END
>  <ID>  (1) 
conformer_0

$$$$
