
     RDKit          3D

 19 22  0  0  0  0  0  0  0  0999 V2000
   71.6620   53.9069   43.3866 C   0  0  0  0  0  0  0  0  0  0  0  0
   72.7620   54.6069   43.6866 C   0  0  0  0  0  0  0  0  0  0  0  0
   73.2620   55.8069   43.0866 C   0  0  0  0  0  3  0  0  0  0  0  0
   73.6620   57.0069   43.6866 C   0  0  0  0  0  0  0  0  0  0  0  0
   72.5620   55.8069   41.7866 C   0  0  0  0  0  0  0  0  0  0  0  0
   73.2620   58.1069   43.0866 N   0  0  0  0  0  0  0  0  0  0  0  0
   72.5620   54.6069   41.2866 N   0  0  0  0  0  0  0  0  0  0  0  0
   72.6620   54.4069   39.8866 C   0  0  0  0  0  0  0  0  0  0  0  0
   71.1620   53.0069   44.2866 C   0  0  0  0  0  0  0  0  0  0  0  0
   71.6620   53.7069   41.9866 N   0  0  0  0  0  0  0  0  0  0  0  0
   71.1620   53.3069   45.5866 C   0  0  0  0  0  0  0  0  0  0  0  0
   71.4621   54.5069   46.0866 C   0  0  0  0  0  0  0  0  0  0  0  0
   73.4620   58.2069   41.7866 C   0  0  0  0  0  0  0  0  0  0  0  0
   72.9620   57.0069   41.1866 N   0  0  0  0  0  0  0  0  0  0  0  0
   73.5620   54.2069   44.8866 C   0  0  0  0  0  0  0  0  0  0  0  0
   70.4621   52.4069   46.3866 N   0  0  0  0  0  0  0  0  0  0  0  0
   72.4621   55.1069   45.1866 C   0  0  0  0  0  0  0  0  0  0  0  0
   72.4621   53.0069   39.3866 C   0  0  0  0  0  0  0  0  0  0  0  0
   73.5620   55.3069   39.1866 C   0  0  0  0  0  0  0  0  0  0  0  0
  2  1  1  0
  3  2  1  0
  4  3  1  0
  5  3  1  0
  6  4  1  0
  7  5  1  0
  8  7  1  0
  9  1  1  0
 10  1  2  0
 10  7  1  0
 11  9  2  0
 12 11  1  0
 13  6  2  0
 14  5  2  0
 14 13  1  0
 15  2  1  0
 16 11  1  0
 17  2  1  0
 17 12  2  0
 17 15  1  0
 18  8  1  0
 19  8  1  0
M  END
>  <ID>  (1) 
conformer_0

$$$$
