
     RDKit          3D

 19 20  0  0  0  0  0  0  0  0999 V2000
   72.6632   55.1418   44.5242 N   0  0  0  0  0  4  0  0  0  0  0  0
   71.8632   54.0418   44.6242 C   0  0  0  0  0  0  0  0  0  0  0  0
   71.1632   54.2418   45.7242 C   0  0  0  0  0  0  0  0  0  0  0  0
   72.4632   56.0418   45.5242 N   0  0  0  0  0  0  0  0  0  0  0  0
   70.3632   53.0418   46.1242 C   0  0  0  0  0  0  0  0  0  0  0  0
   70.2632   52.3418   45.0242 N   0  0  0  0  0  0  0  0  0  0  0  0
   69.7632   52.9418   47.1242 O   0  0  0  0  0  0  0  0  0  0  0  0
   73.1632   55.7418   43.3242 C   0  0  0  0  0  0  0  0  0  0  0  0
   73.6632   57.0418   43.6242 C   0  0  0  0  0  0  0  0  0  0  0  0
   74.0632   57.7418   42.6242 C   0  0  0  0  0  0  0  0  0  0  0  0
   73.2632   57.3418   41.4242 C   0  0  0  0  0  0  0  0  0  0  0  0
   73.2632   56.0418   41.1242 N   0  0  0  0  0  0  0  0  0  0  0  0
   72.7632   55.3418   42.1242 N   0  0  0  0  0  0  0  0  0  0  0  0
   73.3632   55.5418   39.7242 C   0  0  0  0  0  0  0  0  0  0  0  0
   69.0632   51.5418   44.6242 C   0  0  0  0  0  0  0  0  0  0  0  0
   70.3632   52.2418   43.7242 C   0  0  0  0  0  0  0  0  0  0  0  0
   70.5632   51.1418   42.7242 C   0  0  0  0  0  0  0  0  0  0  0  0
   73.4632   55.3418   45.6242 C   0  0  0  0  0  0  0  0  0  0  0  0
   73.9632   58.0418   40.3242 C   0  0  0  0  0  0  0  0  0  0  0  0
  2  1  1  0
  3  2  2  3
  5  3  1  0
  6  5  1  0
  7  5  2  0
  8  1  1  0
  9  8  1  0
 10  9  2  0
 11 10  1  0
 12 11  1  0
 13  8  2  0
 13 12  1  0
 14 12  1  0
 15  6  1  0
 16  6  1  0
 16 15  1  0
 17 16  1  0
 18  1  1  0
 18  4  2  0
 19 11  1  0
M  END
>  <ID>  (1) 
conformer_0

$$$$
