
     RDKit          3D

 11 11  0  0  0  0  0  0  0  0999 V2000
   70.5570   53.2136   46.2723 C   0  0  0  0  0  0  0  0  0  0  0  0
   71.3570   54.3136   45.8723 C   0  0  0  0  0  0  0  0  0  0  0  0
   72.1570   54.1136   44.7723 C   0  0  0  0  0  0  0  0  0  0  0  0
   70.4570   52.3136   45.2723 N   0  0  0  0  0  0  0  0  0  0  0  0
   72.9570   55.2136   44.3723 N   0  0  0  0  0  0  0  0  0  0  0  0
   71.3570   51.9136   44.3723 C   0  0  0  0  0  0  0  0  0  0  0  0
   71.4570   50.7136   43.8723 N   0  0  0  0  0  0  0  0  0  0  0  0
   72.2570   52.9136   44.1723 N   0  0  0  0  0  0  0  0  0  0  0  0
   73.4570   55.5136   43.0723 C   0  0  0  0  0  0  0  0  0  0  0  0
   73.7570   56.8136   42.6723 C   0  0  0  0  0  0  0  0  0  0  0  0
   73.5570   54.4136   42.1723 C   0  0  0  0  0  0  0  0  0  0  0  0
  2  1  1  0
  3  2  1  0
  4  1  1  0
  5  3  1  0
  6  4  2  0
  7  6  1  0
  8  3  2  0
  8  6  1  0
  9  5  1  0
 10  9  1  0
 11  9  1  0
M  END
>  <ID>  (1) 
conformer_0

$$$$
