
     RDKit          3D

 17 19  0  0  0  0  0  0  0  0999 V2000
   71.1992   53.8868   46.1594 C   0  0  0  0  0  0  0  0  0  0  0  0
   71.7992   53.8868   44.8594 C   0  0  0  0  0  0  0  0  0  0  0  0
   72.8992   54.4868   44.4594 C   0  0  0  0  0  0  0  0  0  0  0  0
   70.2992   52.9868   46.4594 N   0  0  0  0  0  0  0  0  0  0  0  0
   70.1992   52.0868   45.3594 N   0  0  0  0  0  0  0  0  0  0  0  0
   73.0992   55.3868   43.3594 C   0  0  0  0  0  0  0  0  0  0  0  0
   73.8992   56.3868   43.3594 C   0  0  0  0  0  0  0  0  0  0  0  0
   73.5992   57.4868   42.5594 C   0  0  0  0  0  0  0  0  0  0  0  0
   72.6992   57.0868   41.5594 N   0  0  0  0  0  0  0  0  0  0  0  0
   72.5992   55.8868   41.0594 C   0  0  0  0  0  0  0  0  0  0  0  0
   74.1992   55.3868   42.5594 N   0  0  0  0  0  0  0  0  0  0  0  0
   69.8992   52.5868   47.6594 C   0  0  0  0  0  0  0  0  0  0  0  0
   73.7991   55.1868   41.1594 N   0  0  0  0  0  0  0  0  0  0  0  0
   71.6992   55.4868   40.1594 N   0  0  0  0  0  0  0  0  0  0  0  0
   68.9992   51.4868   45.6594 C   0  0  0  0  0  0  0  0  0  0  0  0
   68.6992   51.6868   47.0594 C   0  0  0  0  0  0  0  0  0  0  0  0
   74.5992   58.5868   42.3594 C   0  0  0  0  0  0  0  0  0  0  0  0
  2  1  2  3
  3  2  1  0
  4  1  1  0
  5  4  1  0
  6  3  1  0
  7  6  1  0
  8  7  1  0
  9  8  1  0
 10  9  2  0
 11  6  1  0
 11  7  1  0
 12  4  1  0
 13 10  1  0
 13 11  1  0
 14 10  1  0
 15  5  1  0
 16 12  1  0
 16 15  1  0
 17  8  1  0
M  END
>  <ID>  (1) 
conformer_0

$$$$
