
     RDKit          3D

 18 21  0  0  0  0  0  0  0  0999 V2000
   71.6620   53.9069   43.3866 C   0  0  0  0  0  0  0  0  0  0  0  0
   72.7620   54.6069   43.6866 C   0  0  0  0  0  0  0  0  0  0  0  0
   73.2620   55.8069   43.0866 C   0  0  0  0  0  0  0  0  0  0  0  0
   73.6620   57.0069   43.6866 C   0  0  0  0  0  0  0  0  0  0  0  0
   72.5620   55.8069   41.7866 C   0  0  0  0  0  0  0  0  0  0  0  0
   73.2620   58.1069   43.0866 N   0  0  0  0  0  0  0  0  0  0  0  0
   72.5620   54.6069   41.2866 N   0  0  0  0  0  0  0  0  0  0  0  0
   72.4621   54.4069   39.8866 C   0  0  0  0  0  0  0  0  0  0  0  0
   70.9621   52.8069   43.9866 C   0  0  0  0  0  0  0  0  0  0  0  0
   71.7620   53.7069   41.8866 N   0  0  0  0  0  0  0  0  0  0  0  0
   73.2621   55.4069   39.2866 C   0  0  0  0  0  0  0  0  0  0  0  0
   73.0620   56.9069   40.9866 N   0  0  0  0  0  0  0  0  0  0  0  0
   73.8621   56.4069   39.9866 C   0  0  0  0  0  0  0  0  0  0  0  0
   71.1620   52.9069   45.3866 C   0  0  0  0  0  0  0  0  0  0  0  0
   71.8620   53.9069   45.9866 C   0  0  0  0  0  0  0  0  0  0  0  0
   69.9621   52.5069   46.1866 N   0  0  0  0  0  0  0  0  0  0  0  0
   72.7620   54.7069   45.2866 C   0  0  0  0  0  0  0  0  0  0  0  0
   73.4620   57.9069   41.8866 C   0  0  0  0  0  0  0  0  0  0  0  0
  2  1  1  0
  3  2  1  0
  4  3  2  0
  5  3  1  0
  6  4  1  0
  7  5  1  0
  8  7  1  0
  9  1  1  0
 10  1  2  0
 10  7  1  0
 11  8  1  0
 12  5  1  0
 13 11  2  0
 13 12  1  0
 14  9  2  0
 15 14  1  0
 16 14  1  0
 17  2  1  0
 17 15  2  0
 18  6  2  0
 18 12  1  0
M  END
>  <ID>  (1) 
conformer_0

$$$$
