
     RDKit          3D

 23 24  0  0  0  0  0  0  0  0999 V2000
   31.2474   30.3907   -6.7920 C   0  0  0  0  0  0  0  0  0  0  0  0
   32.4279   31.2878   -1.1817 C   0  0  0  0  0  0  0  0  0  0  0  0
   32.3574   31.5811    1.1083 O   0  0  0  0  0  0  0  0  0  0  0  0
   33.1128   29.5388   -3.0719 C   0  0  0  0  0  0  0  0  0  0  0  0
   33.3084   24.8891   -1.2620 C   0  0  0  0  0  0  0  0  0  0  0  0
   34.5601   23.1160   -0.1054 C   0  0  0  0  0  0  0  0  0  0  0  0
   33.0197   29.4672    0.3448 C   0  0  0  0  0  0  0  0  0  0  0  0
   33.7608   24.2854   -0.0217 O   0  0  0  0  0  0  0  0  0  0  0  0
   32.4260   29.7844   -4.3532 C   0  0  0  0  0  0  0  0  0  0  0  0
   30.4709   30.4413   -5.6600 C   0  0  0  0  0  0  0  0  0  0  0  0
   34.0385   21.0335    1.4644 C   0  0  0  0  0  0  0  0  0  0  0  0
   32.5643   30.0774   -6.7507 C   0  0  0  0  0  0  0  0  0  0  0  0
   32.6313   30.7578    0.0908 C   0  0  0  0  0  0  0  0  0  0  0  0
   33.2578   26.3349   -1.2311 C   0  0  0  0  0  0  0  0  0  0  0  0
   31.9804   32.0845   -2.0603 C   0  0  0  0  0  0  0  0  0  0  0  0
   33.1588   29.7440   -5.5316 C   0  0  0  0  0  0  0  0  0  0  0  0
   33.0464   28.5183   -1.9939 C   0  0  0  0  0  0  0  0  0  0  0  0
   33.1528   28.4481   -0.5398 C   0  0  0  0  0  0  0  0  0  0  0  0
   34.4255   21.6987    0.1728 C   0  0  0  0  0  0  0  0  0  0  0  0
   33.3632   27.1106   -0.1575 C   0  0  0  0  0  0  0  0  0  0  0  0
   32.9996   27.1617   -2.4356 C   0  0  0  0  0  0  0  0  0  0  0  0
   30.5060   30.7501   -8.3757 Cl  0  0  0  0  0  0  0  0  0  0  0  0
   31.0592   30.1071   -4.4382 C   0  0  0  0  0  0  0  0  0  0  0  0
  1 10  2  0
  1 12  1  0
  1 22  1  0
  2 13  1  0
  2 15  3  0
  3 13  1  0
  4  9  1  0
  4 17  1  0
  5  8  1  0
  5 14  1  0
  6  8  1  0
  6 19  1  0
  7 13  2  3
  7 18  1  0
  9 16  1  0
  9 23  2  0
 10 23  1  0
 11 19  1  0
 12 16  2  0
 14 20  1  0
 14 21  1  0
 17 18  1  0
 17 21  1  0
 18 20  1  0
M  END
>  <ID>  (1) 
conformer_0

$$$$
