
     RDKit          3D

 34 38  0  0  0  0  0  0  0  0999 V2000
   28.5658   29.4902   -2.9884 C   0  0  0  0  0  0  0  0  0  0  0  0
   31.7612   30.0069   -5.9610 C   0  0  0  0  0  0  0  0  0  0  0  0
   35.0569   22.6341   -0.1353 C   0  0  0  0  0  0  0  0  0  0  0  0
   33.9561   20.1698    2.2139 O   0  0  0  0  0  0  0  0  0  0  0  0
   33.2099   26.1459   -2.1503 N   0  0  0  0  0  0  0  0  0  0  0  0
   32.3856   30.1347   -7.1921 O   0  0  0  0  0  0  0  0  0  0  0  0
   33.2997   23.2036    1.2693 C   0  0  0  0  0  0  0  0  0  0  0  0
   33.3874   26.4188   -0.7473 C   0  0  0  0  0  0  0  0  0  0  0  0
   32.9935   28.0749   -4.3480 N   0  0  0  0  0  0  0  0  0  0  0  0
   33.0550   29.7965   -2.3764 C   0  0  0  0  0  0  0  0  0  0  0  0
   31.7402   30.8215   -8.2808 C   0  0  0  0  0  0  0  0  0  0  0  0
   33.2273   29.9360    0.1951 C   0  0  0  0  0  0  0  0  0  0  0  0
   34.1442   20.8062    1.0424 O   0  0  0  0  0  0  0  0  0  0  0  0
   34.8701   23.9961   -0.3450 C   0  0  0  0  0  0  0  0  0  0  0  0
   32.0308   29.9236   -3.5166 C   0  0  0  0  0  0  0  0  0  0  0  0
   33.1972   28.4087   -1.9688 C   0  0  0  0  0  0  0  0  0  0  0  0
   33.3122   25.6841    0.6996 C   0  0  0  0  0  0  0  0  0  0  0  0
   30.7523   30.4517   -3.4299 C   0  0  0  0  0  0  0  0  0  0  0  0
   32.4387   30.4940   -9.5886 C   0  0  0  0  0  0  0  0  0  0  0  0
   28.5763   30.4549   -4.1629 O   0  0  0  0  0  0  0  0  0  0  0  0
   34.2123   30.3914   -2.9463 O   0  0  0  0  0  0  0  0  0  0  0  0
   32.3565   29.3681   -4.7331 C   0  0  0  0  0  0  0  0  0  0  0  0
   29.9018   30.5225   -4.4942 C   0  0  0  0  0  0  0  0  0  0  0  0
   34.1703   22.1500    0.7484 C   0  0  0  0  0  0  0  0  0  0  0  0
   33.5891   29.5565   -9.3697 C   0  0  0  0  0  0  0  0  0  0  0  0
   32.6438   31.8616   -1.1320 C   0  0  0  0  0  0  0  0  0  0  0  0
   33.0980   27.3867   -3.0040 C   0  0  0  0  0  0  0  0  0  0  0  0
   33.4148   28.5754    0.4317 C   0  0  0  0  0  0  0  0  0  0  0  0
   33.7955   24.3285    0.6265 C   0  0  0  0  0  0  0  0  0  0  0  0
   30.4861   30.4952   -5.8057 C   0  0  0  0  0  0  0  0  0  0  0  0
   32.6815   30.7601    1.3652 C   0  0  0  0  0  0  0  0  0  0  0  0
   32.8933   30.3949   -1.0852 N   0  0  0  0  0  0  0  0  0  0  0  0
   31.0246   32.0476   -8.3365 O   0  0  0  0  0  0  0  0  0  0  0  0
   33.3098   27.8356   -0.7051 C   0  0  0  0  0  0  0  0  0  0  0  0
  1 20  1  0
  2  6  1  0
  2 22  1  0
  2 30  2  0
  3 14  1  0
  3 24  1  0
  4 13  1  0
  5  8  1  0
  5 27  2  0
  6 11  1  0
  7 24  1  0
  7 29  1  0
  8 17  1  0
  8 34  1  0
  9 22  1  0
  9 27  1  0
 10 15  1  0
 10 16  1  0
 10 21  1  0
 10 32  1  0
 11 19  1  0
 11 33  2  0
 12 28  1  0
 12 31  1  0
 12 32  1  0
 13 24  1  0
 14 29  1  0
 15 18  2  0
 15 22  1  0
 16 27  1  0
 16 34  2  0
 17 29  1  0
 18 23  1  0
 19 25  1  0
 20 23  1  0
 23 30  1  0
 26 32  1  0
 28 34  1  0
M  END
>  <ID>  (1) 
conformer_0

$$$$
