
     RDKit          3D

 67 70  0  0  0  0  0  0  0  0999 V2000
   35.4946   21.7093    0.5561 C   0  0  0  0  0  0  0  0  0  0  0  0
   29.7692   31.5801  -10.3953 F   0  0  0  0  0  0  0  0  0  0  0  0
   33.1563   31.9127   -3.4868 C   0  0  0  0  0  0  0  0  0  0  0  0
   34.1563   30.3301    0.1572 C   0  0  0  0  0  0  0  0  0  0  0  0
   31.3411   24.7565   -6.2049 C   0  0  0  0  0  0  0  0  0  0  0  0
   31.3519   27.1693   -6.2715 C   0  0  0  0  0  0  0  0  0  0  0  0
   34.5227   28.1345    1.7335 C   0  0  0  0  0  0  0  0  0  0  0  0
   29.3280   21.8910   -7.8371 F   0  0  0  0  0  0  0  0  0  0  0  0
   29.7158   31.3271   -3.6608 C   0  0  0  0  0  0  0  0  0  0  0  0
   34.5928   19.9873    5.1160 O   0  0  0  0  0  0  0  0  0  0  0  0
   32.6863   27.1930   -8.7443 C   0  0  0  0  0  0  0  0  0  0  0  0
   33.1292   31.5980    2.3149 C   0  0  0  0  0  0  0  0  0  0  0  0
   29.8244   22.9179   -6.9162 C   0  0  0  0  0  0  0  0  0  0  0  0
   34.1452   31.8444   -2.3724 C   0  0  0  0  0  0  0  0  0  0  0  0
   31.8670   32.6535   -3.2469 C   0  0  0  0  0  0  0  0  0  0  0  0
   31.1922   23.1780   -7.9588 C   0  0  0  0  0  0  0  0  0  0  0  0
   34.2173   29.6448    1.4288 C   0  0  0  0  0  0  0  0  0  0  0  0
   33.5177   23.3002    1.0043 C   0  0  0  0  0  0  0  0  0  0  0  0
   29.4962   28.2952   -4.4674 C   0  0  0  0  0  0  0  0  0  0  0  0
   33.8597   30.3809    2.5017 C   0  0  0  0  0  0  0  0  0  0  0  0
   34.1336   21.9228    0.9302 C   0  0  0  0  0  0  0  0  0  0  0  0
   34.9895   27.4777    3.0986 C   0  0  0  0  0  0  0  0  0  0  0  0
   34.1640   29.7783    3.8327 C   0  0  0  0  0  0  0  0  0  0  0  0
   31.8216   25.4074   -7.5929 C   0  0  0  0  0  0  0  0  0  0  0  0
   32.7237   30.5152  -10.1099 C   0  0  0  0  0  0  0  0  0  0  0  0
   35.0303   28.5219    4.1592 C   0  0  0  0  0  0  0  0  0  0  0  0
   33.8746   32.5564   -1.1958 O   0  0  0  0  0  0  0  0  0  0  0  0
   30.1509   27.3837   -3.9415 C   0  0  0  0  0  0  0  0  0  0  0  0
   33.8556   21.1725    2.1658 C   0  0  0  0  0  0  0  0  0  0  0  0
   32.2498   33.0737   -6.1843 O   0  0  0  0  0  0  0  0  0  0  0  0
   35.7598   19.7040    1.7865 O   0  0  0  0  0  0  0  0  0  0  0  0
   32.9113   24.1418   -0.1016 C   0  0  0  0  0  0  0  0  0  0  0  0
   36.3104   20.5495    0.8205 C   0  0  0  0  0  0  0  0  0  0  0  0
   29.3534   29.8103   -3.4756 C   0  0  0  0  0  0  0  0  0  0  0  0
   37.2030   22.9179   -0.7029 O   0  0  0  0  0  0  0  0  0  0  0  0
   37.6172   20.5134    0.4443 O   0  0  0  0  0  0  0  0  0  0  0  0
   33.2473   25.3567   -0.7830 C   0  0  0  0  0  0  0  0  0  0  0  0
   32.1078   25.9021   -3.0399 C   0  0  0  0  0  0  0  0  0  0  0  0
   31.1907   33.3775   -5.3535 C   0  0  0  0  0  0  0  0  0  0  0  0
   30.2230   24.0802   -7.1578 C   0  0  0  0  0  0  0  0  0  0  0  0
   30.8499   32.3964  -10.2000 C   0  0  0  0  0  0  0  0  0  0  0  0
   33.1671   21.8780    3.1678 O   0  0  0  0  0  0  0  0  0  0  0  0
   31.5960   33.4062   -2.2088 O   0  0  0  0  0  0  0  0  0  0  0  0
   29.8737   22.2553   -5.6746 F   0  0  0  0  0  0  0  0  0  0  0  0
   30.7690   32.3938   -4.1359 C   0  0  0  0  0  0  0  0  0  0  0  0
   32.9979   28.5207   -8.3125 C   0  0  0  0  0  0  0  0  0  0  0  0
   31.9587   26.3338   -7.9397 C   0  0  0  0  0  0  0  0  0  0  0  0
   32.4729   32.4227   -8.5104 O   0  0  0  0  0  0  0  0  0  0  0  0
   34.6656   19.6441    3.9065 C   0  0  0  0  0  0  0  0  0  0  0  0
   34.8743   20.2721    2.6731 C   0  0  0  0  0  0  0  0  0  0  0  0
   35.9442   22.5792   -0.6208 C   0  0  0  0  0  0  0  0  0  0  0  0
   32.1261   31.6910   -9.6495 C   0  0  0  0  0  0  0  0  0  0  0  0
   33.6427   31.7797   -0.0320 C   0  0  0  0  0  0  0  0  0  0  0  0
   31.1638   26.4018   -4.0069 C   0  0  0  0  0  0  0  0  0  0  0  0
   30.8176   34.6536   -5.0957 O   0  0  0  0  0  0  0  0  0  0  0  0
   35.1673   22.7758   -1.5337 O   0  0  0  0  0  0  0  0  0  0  0  0
   32.9919   32.3107    1.0637 C   0  0  0  0  0  0  0  0  0  0  0  0
   30.8363   33.7221  -10.4716 F   0  0  0  0  0  0  0  0  0  0  0  0
   33.9421   25.7894    1.6013 C   0  0  0  0  0  0  0  0  0  0  0  0
   31.9072   33.5326   -7.6656 C   0  0  0  0  0  0  0  0  0  0  0  0
   34.1311   27.0589    0.8753 C   0  0  0  0  0  0  0  0  0  0  0  0
   32.8031   26.0598   -1.8670 C   0  0  0  0  0  0  0  0  0  0  0  0
   31.2696   26.0566   -5.4679 C   0  0  0  0  0  0  0  0  0  0  0  0
   33.3658   29.5241   -9.2269 C   0  0  0  0  0  0  0  0  0  0  0  0
   30.4474   33.6841   -7.8014 C   0  0  0  0  0  0  0  0  0  0  0  0
   32.1700   23.7235   -5.5638 F   0  0  0  0  0  0  0  0  0  0  0  0
   28.9689   28.7595   -5.7710 F   0  0  0  0  0  0  0  0  0  0  0  0
  1 21  1  0
  1 33  1  0
  1 51  1  0
  2 41  1  0
  3 14  1  0
  3 15  2  3
  4 17  2  0
  4 53  1  0
  5 24  1  0
  5 40  1  0
  5 63  1  0
  5 66  1  0
  6 63  2  0
  7 17  1  0
  7 22  1  0
  7 61  1  0
  8 13  1  0
  9 34  1  0
  9 45  1  0
 10 49  2  0
 11 46  2  0
 11 47  1  0
 12 20  1  0
 12 57  1  0
 13 40  1  0
 13 44  1  0
 14 27  1  0
 15 43  1  0
 15 45  1  0
 16 40  1  0
 17 20  1  0
 18 21  1  0
 18 32  1  0
 19 28  1  0
 19 34  1  0
 19 67  1  0
 20 23  2  0
 21 29  1  0
 22 26  1  0
 23 26  1  0
 24 47  1  0
 25 52  1  0
 25 64  1  0
 27 53  1  0
 28 54  1  0
 29 42  1  0
 29 50  1  0
 30 39  1  0
 30 60  1  0
 31 33  1  0
 31 50  1  0
 32 37  2  3
 33 36  2  0
 35 51  2  0
 37 62  1  0
 38 54  1  0
 38 62  1  0
 39 45  1  0
 39 55  2  0
 41 52  1  0
 41 58  1  0
 46 64  1  0
 48 52  1  0
 48 60  1  0
 49 50  1  0
 51 56  1  0
 53 57  2  0
 54 63  1  0
 59 61  1  0
 60 65  1  0
M  END
>  <ID>  (1) 
conformer_0

$$$$
