
     RDKit          3D

 41 47  0  0  0  0  0  0  0  0999 V2000
   32.9881   30.7618   -1.2822 N   0  0  0  0  0  0  0  0  0  0  0  0
   29.0155   32.1934   -5.8378 C   0  0  0  0  0  0  0  0  0  0  0  0
   31.5576   30.6468   -6.8997 C   0  0  0  0  0  0  0  0  0  0  0  0
   33.3593   31.4566    0.9824 C   0  0  0  0  0  0  0  0  0  0  0  0
   32.7002   30.2877   -9.3462 C   0  0  0  0  0  0  0  0  0  0  0  0
   28.7590   32.3137   -7.3549 C   0  0  0  0  0  0  0  0  0  0  0  0
   32.8050   23.7785   -0.7637 C   0  0  0  0  0  0  0  0  0  0  0  0
   32.6130   27.7560   -3.1713 C   0  0  0  0  0  0  0  0  0  0  0  0
   32.9611   28.4851   -2.0214 C   0  0  0  0  0  0  0  0  0  0  0  0
   33.6154   22.0884    1.5011 C   0  0  0  0  0  0  0  0  0  0  0  0
   33.7443   29.6615    2.5376 C   0  0  0  0  0  0  0  0  0  0  0  0
   30.9752   30.9296   -5.7094 N   0  0  0  0  0  0  0  0  0  0  0  0
   36.0693   20.9732    0.8941 N   0  0  0  0  0  0  0  0  0  0  0  0
   33.3451   29.8475   -8.2469 C   0  0  0  0  0  0  0  0  0  0  0  0
   29.5492   31.0579   -3.7296 C   0  0  0  0  0  0  0  0  0  0  0  0
   33.5783   27.9714   -0.8187 C   0  0  0  0  0  0  0  0  0  0  0  0
   34.2170   25.5400    0.0376 C   0  0  0  0  0  0  0  0  0  0  0  0
   32.7123   29.8309   -2.1465 C   0  0  0  0  0  0  0  0  0  0  0  0
   33.6025   28.9962    0.2293 C   0  0  0  0  0  0  0  0  0  0  0  0
   32.2874   24.5032   -1.7034 C   0  0  0  0  0  0  0  0  0  0  0  0
   33.1017   30.9087    2.3300 C   0  0  0  0  0  0  0  0  0  0  0  0
   33.2698   30.3348   -0.0230 C   0  0  0  0  0  0  0  0  0  0  0  0
   34.0071   20.8599    2.0724 C   0  0  0  0  0  0  0  0  0  0  0  0
   33.6852   28.5917    1.5926 C   0  0  0  0  0  0  0  0  0  0  0  0
   30.9193   30.9622   -3.2221 C   0  0  0  0  0  0  0  0  0  0  0  0
   33.5587   26.4320   -0.8641 C   0  0  0  0  0  0  0  0  0  0  0  0
   31.7913   25.5305   -4.0718 Cl  0  0  0  0  0  0  0  0  0  0  0  0
   32.1719   31.5551    1.6732 O   0  0  0  0  0  0  0  0  0  0  0  0
   33.8897   24.1597    0.0904 C   0  0  0  0  0  0  0  0  0  0  0  0
   32.3522   26.4282   -3.0590 C   0  0  0  0  0  0  0  0  0  0  0  0
   30.8831   31.0671   -8.0511 C   0  0  0  0  0  0  0  0  0  0  0  0
   32.1825   30.1923   -3.4464 C   0  0  0  0  0  0  0  0  0  0  0  0
   32.7694   29.9769   -7.0071 C   0  0  0  0  0  0  0  0  0  0  0  0
   35.6421   22.2036    0.2812 C   0  0  0  0  0  0  0  0  0  0  0  0
   29.5953   31.5810   -8.1146 O   0  0  0  0  0  0  0  0  0  0  0  0
   35.2239   20.2941    1.7757 C   0  0  0  0  0  0  0  0  0  0  0  0
   33.2970   30.4913   -4.3288 C   0  0  0  0  0  0  0  0  0  0  0  0
   29.5851   30.8569   -5.2962 C   0  0  0  0  0  0  0  0  0  0  0  0
   34.4197   22.8643    0.6349 C   0  0  0  0  0  0  0  0  0  0  0  0
   31.4738   30.9128   -9.2805 C   0  0  0  0  0  0  0  0  0  0  0  0
   32.7471   25.8202   -1.8415 C   0  0  0  0  0  0  0  0  0  0  0  0
  1 18  1  0
  1 22  1  0
  2  6  1  0
  2 38  1  0
  3 12  1  0
  3 31  2  0
  3 33  1  0
  4 22  1  0
  4 28  1  0
  5 14  1  0
  5 40  2  0
  6 35  1  0
  7 20  2  0
  7 29  1  0
  8  9  1  0
  8 30  2  0
  9 16  1  0
  9 18  2  0
 10 23  2  0
 10 39  1  0
 11 21  1  0
 11 24  1  0
 12 38  1  0
 13 34  1  0
 13 36  2  0
 14 33  2  0
 15 25  1  0
 15 38  1  0
 16 19  1  0
 16 26  1  0
 17 26  2  0
 17 29  1  0
 18 32  1  0
 19 22  1  0
 19 24  2  0
 20 41  1  0
 21 28  1  0
 23 36  1  0
 25 32  1  0
 26 41  1  0
 27 30  1  0
 29 39  1  0
 30 41  1  0
 31 35  1  0
 31 40  1  0
 32 37  1  0
 34 39  2  0
M  END
>  <ID>  (1) 
conformer_0

$$$$
