
     RDKit          3D

 39 44  0  0  0  0  0  0  0  0999 V2000
   30.5233   31.0858  -10.0250 O   0  0  0  0  0  0  0  0  0  0  0  0
   33.5184   30.4031    2.5162 C   0  0  0  0  0  0  0  0  0  0  0  0
   33.0728   31.0273   -3.4252 C   0  0  0  0  0  0  0  0  0  0  0  0
   33.4504   21.9899    0.8083 N   0  0  0  0  0  0  0  0  0  0  0  0
   30.9779   30.7747   -8.8124 C   0  0  0  0  0  0  0  0  0  0  0  0
   32.6900   28.6765   -3.0284 C   0  0  0  0  0  0  0  0  0  0  0  0
   35.7211   21.2756    0.9119 C   0  0  0  0  0  0  0  0  0  0  0  0
   34.1044   22.9699   -0.0230 C   0  0  0  0  0  0  0  0  0  0  0  0
   35.6291   22.5530    0.0190 C   0  0  0  0  0  0  0  0  0  0  0  0
   33.9408   29.0779    2.5636 C   0  0  0  0  0  0  0  0  0  0  0  0
   33.0656   30.3189    0.1744 C   0  0  0  0  0  0  0  0  0  0  0  0
   34.0894   27.0594    1.3041 N   0  0  0  0  0  0  0  0  0  0  0  0
   32.2782   25.3427   -1.3714 C   0  0  0  0  0  0  0  0  0  0  0  0
   30.5516   30.7070   -6.4516 C   0  0  0  0  0  0  0  0  0  0  0  0
   31.9836   31.9631   -1.1237 O   0  0  0  0  0  0  0  0  0  0  0  0
   31.9382   29.9663   -3.2982 C   0  0  0  0  0  0  0  0  0  0  0  0
   33.6253   26.7525    0.0706 C   0  0  0  0  0  0  0  0  0  0  0  0
   33.8557   28.3854    1.4117 C   0  0  0  0  0  0  0  0  0  0  0  0
   33.1562   28.1322   -4.1114 O   0  0  0  0  0  0  0  0  0  0  0  0
   32.6192   27.7570   -1.8760 C   0  0  0  0  0  0  0  0  0  0  0  0
   33.9574   19.9762    2.1136 N   0  0  0  0  0  0  0  0  0  0  0  0
   33.2930   25.4464   -0.3498 C   0  0  0  0  0  0  0  0  0  0  0  0
   34.2961   20.9834    1.3593 C   0  0  0  0  0  0  0  0  0  0  0  0
   33.7502   24.3147    0.3531 C   0  0  0  0  0  0  0  0  0  0  0  0
   29.4952   31.0806   -5.4406 C   0  0  0  0  0  0  0  0  0  0  0  0
   33.3813   28.9653    0.1979 C   0  0  0  0  0  0  0  0  0  0  0  0
   33.0399   30.9901    1.3850 C   0  0  0  0  0  0  0  0  0  0  0  0
   29.5259   29.7789   -3.3927 C   0  0  0  0  0  0  0  0  0  0  0  0
   33.2168   27.9108   -0.6362 N   0  0  0  0  0  0  0  0  0  0  0  0
   28.3056   31.5105   -5.9927 O   0  0  0  0  0  0  0  0  0  0  0  0
   30.1239   30.9794   -7.7533 C   0  0  0  0  0  0  0  0  0  0  0  0
   30.8223   29.3763   -3.9872 N   0  0  0  0  0  0  0  0  0  0  0  0
   32.9664   31.1272   -1.0190 C   0  0  0  0  0  0  0  0  0  0  0  0
   32.0798   26.4866   -2.2457 C   0  0  0  0  0  0  0  0  0  0  0  0
   33.8756   30.8801   -2.1407 C   0  0  0  0  0  0  0  0  0  0  0  0
   29.4748   31.2923   -3.9539 C   0  0  0  0  0  0  0  0  0  0  0  0
   32.7101   30.0412   -7.3173 C   0  0  0  0  0  0  0  0  0  0  0  0
   31.8390   30.2214   -6.2842 C   0  0  0  0  0  0  0  0  0  0  0  0
   32.2876   30.3150   -8.5944 C   0  0  0  0  0  0  0  0  0  0  0  0
  1  5  1  0
  2 10  1  0
  2 27  2  0
  3 16  1  0
  3 35  1  0
  4  8  1  0
  4 23  1  0
  5 31  2  0
  5 39  1  0
  6 16  1  0
  6 19  1  0
  6 20  1  0
  7  9  1  0
  7 23  1  0
  8  9  1  0
  8 24  1  0
 10 18  2  0
 11 26  1  0
 11 27  1  0
 11 33  1  0
 12 17  2  0
 12 18  1  0
 13 22  1  0
 13 34  1  0
 14 25  2  3
 14 31  1  0
 14 38  1  0
 15 33  1  0
 16 32  1  0
 17 22  1  0
 17 29  1  0
 18 26  1  0
 20 29  1  0
 20 34  2  0
 21 23  2  0
 22 24  1  0
 25 30  1  0
 25 36  1  0
 26 29  1  0
 28 32  1  0
 28 36  1  0
 33 35  1  0
 37 38  2  0
 37 39  1  0
M  END
>  <ID>  (1) 
conformer_0

$$$$
