
     RDKit          3D

 28 29  0  0  0  0  0  0  0  0999 V2000
   35.6589   23.1457   -0.4982 S   0  0  0  0  0  0  0  0  0  0  0  0
   32.1440   29.1609   -2.3412 C   0  0  0  0  0  0  0  0  0  0  0  0
   33.6133   22.0715    0.6381 C   0  0  0  0  0  0  0  0  0  0  0  0
   34.8437   30.5634   -2.6756 O   0  0  0  0  0  0  0  0  0  0  0  0
   31.4624   30.3631   -7.1966 C   0  0  0  0  0  0  0  0  0  0  0  0
   35.9671   21.4770    0.3705 O   0  0  0  0  0  0  0  0  0  0  0  0
   29.9860   30.4616   -2.6837 C   0  0  0  0  0  0  0  0  0  0  0  0
   32.0769   31.2079   -3.8959 C   0  0  0  0  0  0  0  0  0  0  0  0
   32.2845   30.1633   -8.5473 C   0  0  0  0  0  0  0  0  0  0  0  0
   32.3448   26.7022   -2.4674 C   0  0  0  0  0  0  0  0  0  0  0  0
   33.2761   27.9248   -0.5734 C   0  0  0  0  0  0  0  0  0  0  0  0
   32.7906   30.1936   -6.5205 C   0  0  0  0  0  0  0  0  0  0  0  0
   33.3139   25.5284   -0.4828 C   0  0  0  0  0  0  0  0  0  0  0  0
   32.9674   30.4975    0.9431 C   0  0  0  0  0  0  0  0  0  0  0  0
   30.6880   30.1500   -5.7649 C   0  0  0  0  0  0  0  0  0  0  0  0
   33.4627   30.4511   -0.4897 C   0  0  0  0  0  0  0  0  0  0  0  0
   32.9668   26.7326   -1.2024 C   0  0  0  0  0  0  0  0  0  0  0  0
   34.6104   21.0999    0.9288 C   0  0  0  0  0  0  0  0  0  0  0  0
   33.2639   24.3006   -0.6038 C   0  0  0  0  0  0  0  0  0  0  0  0
   34.0647   23.2027   -0.1143 C   0  0  0  0  0  0  0  0  0  0  0  0
   32.9454   29.1532   -1.1346 C   0  0  0  0  0  0  0  0  0  0  0  0
   34.4640   31.1581   -1.3249 C   0  0  0  0  0  0  0  0  0  0  0  0
   29.5212   31.1037   -1.6645 O   0  0  0  0  0  0  0  0  0  0  0  0
   31.4816   30.4243   -2.7668 C   0  0  0  0  0  0  0  0  0  0  0  0
   30.4193   31.2743   -7.7696 O   0  0  0  0  0  0  0  0  0  0  0  0
   31.9587   27.9311   -2.9998 C   0  0  0  0  0  0  0  0  0  0  0  0
   28.9565   29.5694   -3.3708 C   0  0  0  0  0  0  0  0  0  0  0  0
   31.0308   31.4942   -5.0104 C   0  0  0  0  0  0  0  0  0  0  0  0
  1  6  1  0
  1 20  1  0
  2 21  1  0
  2 24  1  0
  2 26  1  0
  3 18  1  0
  3 20  2  0
  4 22  1  0
  5  9  1  0
  5 12  1  0
  5 15  1  0
  5 25  1  0
  6 18  1  0
  7 23  1  0
  7 24  1  0
  7 27  1  0
  8 24  1  0
  8 28  1  0
 10 17  1  0
 10 26  2  0
 11 17  1  0
 11 21  2  0
 13 17  2  3
 13 19  1  0
 14 16  1  0
 15 28  1  0
 16 21  1  0
 16 22  2  3
 19 20  1  0
M  END
>  <ID>  (1) 
conformer_0

$$$$
