
     RDKit          3D

 27 29  0  0  0  0  0  0  0  0999 V2000
   32.1279   25.7477   -2.3926 C   0  0  0  0  0  0  0  0  0  0  0  0
   30.1052   30.4814   -3.4011 C   0  0  0  0  0  0  0  0  0  0  0  0
   30.5905   30.6280   -5.8628 C   0  0  0  0  0  0  0  0  0  0  0  0
   31.0174   30.5933   -4.5457 N   0  0  0  0  0  0  0  0  0  0  0  0
   33.9189   26.4586   -0.4165 C   0  0  0  0  0  0  0  0  0  0  0  0
   33.2192   28.8925    1.0436 C   0  0  0  0  0  0  0  0  0  0  0  0
   34.5689   24.0338   -0.0292 C   0  0  0  0  0  0  0  0  0  0  0  0
   32.2903   27.0832   -2.0895 C   0  0  0  0  0  0  0  0  0  0  0  0
   33.9941   21.3763    0.5271 C   0  0  0  0  0  0  0  0  0  0  0  0
   30.6861   31.4529   -9.2867 C   0  0  0  0  0  0  0  0  0  0  0  0
   31.6498   29.8153   -8.0104 C   0  0  0  0  0  0  0  0  0  0  0  0
   32.9267   29.8751   -1.1401 C   0  0  0  0  0  0  0  0  0  0  0  0
   32.4001   30.4343   -4.5910 C   0  0  0  0  0  0  0  0  0  0  0  0
   33.3197   30.3955   -3.4586 C   0  0  0  0  0  0  0  0  0  0  0  0
   30.3462   30.2021   -8.6473 O   0  0  0  0  0  0  0  0  0  0  0  0
   32.8549   31.2289    0.8072 C   0  0  0  0  0  0  0  0  0  0  0  0
   32.7937   31.1113   -0.5559 C   0  0  0  0  0  0  0  0  0  0  0  0
   32.9154   29.6199   -2.4316 N   0  0  0  0  0  0  0  0  0  0  0  0
   31.7223   30.3333   -6.6582 C   0  0  0  0  0  0  0  0  0  0  0  0
   33.0908   30.1198    1.5789 C   0  0  0  0  0  0  0  0  0  0  0  0
   33.0899   28.7435   -0.3295 C   0  0  0  0  0  0  0  0  0  0  0  0
   29.2613   31.1003   -6.2306 C   0  0  0  0  0  0  0  0  0  0  0  0
   33.6985   22.7618    0.3040 C   0  0  0  0  0  0  0  0  0  0  0  0
   32.8106   24.7500   -1.7018 C   0  0  0  0  0  0  0  0  0  0  0  0
   32.7985   29.9577   -5.8006 C   0  0  0  0  0  0  0  0  0  0  0  0
   33.1072   27.4571   -0.9964 C   0  0  0  0  0  0  0  0  0  0  0  0
   33.7462   25.1220   -0.7186 C   0  0  0  0  0  0  0  0  0  0  0  0
  1  8  2  0
  1 24  1  0
  2  4  1  0
  3  4  1  0
  3 19  1  0
  3 22  1  0
  4 13  1  0
  5 26  1  0
  5 27  2  0
  6 20  2  0
  6 21  1  0
  7 23  1  0
  7 27  1  0
  8 26  1  0
  9 23  1  0
 10 15  1  0
 11 15  1  0
 11 19  1  0
 12 17  2  0
 12 18  1  0
 12 21  1  0
 13 14  1  0
 13 25  1  0
 14 18  1  0
 16 17  1  0
 16 20  1  0
 19 25  1  0
 21 26  1  0
 24 27  1  0
M  END
>  <ID>  (1) 
conformer_0

$$$$
