
     RDKit          3D

 30 33  0  0  0  0  0  0  0  0999 V2000
   33.0078   28.2866   -2.5607 C   0  0  0  0  0  0  0  0  0  0  0  0
   33.1599   26.0074   -1.9072 C   0  0  0  0  0  0  0  0  0  0  0  0
   34.3037   21.6557    0.2398 C   0  0  0  0  0  0  0  0  0  0  0  0
   33.6099   29.3701    1.3986 C   0  0  0  0  0  0  0  0  0  0  0  0
   30.7654   31.4170   -6.3686 C   0  0  0  0  0  0  0  0  0  0  0  0
   29.3644   31.3399   -5.7552 C   0  0  0  0  0  0  0  0  0  0  0  0
   30.9881   30.6378   -7.6340 C   0  0  0  0  0  0  0  0  0  0  0  0
   34.4637   25.4133    0.0262 C   0  0  0  0  0  0  0  0  0  0  0  0
   31.9213   31.3309   -5.4332 C   0  0  0  0  0  0  0  0  0  0  0  0
   33.9291   23.0182    0.2005 C   0  0  0  0  0  0  0  0  0  0  0  0
   32.7313   30.3780   -9.4096 C   0  0  0  0  0  0  0  0  0  0  0  0
   33.1966   30.3655    0.5109 C   0  0  0  0  0  0  0  0  0  0  0  0
   34.5534   27.3154    1.7907 O   0  0  0  0  0  0  0  0  0  0  0  0
   30.2044   30.9914   -8.6423 O   0  0  0  0  0  0  0  0  0  0  0  0
   32.5175   23.3476    0.2109 S   0  0  0  0  0  0  0  0  0  0  0  0
   31.7778   31.1720   -3.9984 C   0  0  0  0  0  0  0  0  0  0  0  0
   32.7317   26.9234   -2.8152 C   0  0  0  0  0  0  0  0  0  0  0  0
   33.0381   31.1008   -1.8485 C   0  0  0  0  0  0  0  0  0  0  0  0
   32.9016   30.6099   -3.2328 C   0  0  0  0  0  0  0  0  0  0  0  0
   33.2687   28.6887   -1.2333 C   0  0  0  0  0  0  0  0  0  0  0  0
   32.4361   30.1889   -7.9555 C   0  0  0  0  0  0  0  0  0  0  0  0
   34.7828   24.1618    0.0487 C   0  0  0  0  0  0  0  0  0  0  0  0
   33.9111   20.8545    1.4213 C   0  0  0  0  0  0  0  0  0  0  0  0
   33.7618   26.3765   -0.7215 C   0  0  0  0  0  0  0  0  0  0  0  0
   33.1797   29.2179   -3.6431 C   0  0  0  0  0  0  0  0  0  0  0  0
   30.3553   31.3686   -3.4693 C   0  0  0  0  0  0  0  0  0  0  0  0
   33.6774   27.7091   -0.3306 N   0  0  0  0  0  0  0  0  0  0  0  0
   33.9630   28.0966    0.9928 C   0  0  0  0  0  0  0  0  0  0  0  0
   29.3016   30.6433   -4.3380 C   0  0  0  0  0  0  0  0  0  0  0  0
   33.1532   30.0490   -0.8535 C   0  0  0  0  0  0  0  0  0  0  0  0
  1 17  1  0
  1 20  1  0
  1 25  1  0
  2 17  2  0
  2 24  1  0
  3 10  1  0
  3 23  1  0
  4 12  2  0
  4 28  1  0
  5  6  1  0
  5  7  1  0
  5  9  1  0
  6 29  1  0
  7 14  1  0
  7 21  1  0
  8 22  1  0
  8 24  2  3
  9 16  1  0
 10 15  2  0
 10 22  1  0
 11 21  1  0
 12 30  1  0
 13 28  2  0
 16 19  1  0
 16 26  1  0
 18 19  1  0
 18 30  1  0
 19 25  1  0
 20 27  1  0
 20 30  2  0
 24 27  1  0
 26 29  1  0
 27 28  1  0
M  END
>  <ID>  (1) 
conformer_0

$$$$
