
     RDKit          3D

 36 40  0  0  0  0  0  0  0  0999 V2000
   32.8458   29.4484   -0.1785 C   0  0  0  0  0  0  0  0  0  0  0  0
   32.0200   32.1308   -7.9343 C   0  0  0  0  0  0  0  0  0  0  0  0
   31.5850   31.9764   -3.2090 C   0  0  0  0  0  0  0  0  0  0  0  0
   33.7691   27.3498    0.5440 C   0  0  0  0  0  0  0  0  0  0  0  0
   30.6337   30.5729   -5.7503 N   0  0  0  0  0  0  0  0  0  0  0  0
   34.1911   27.9506    1.7176 C   0  0  0  0  0  0  0  0  0  0  0  0
   32.8769   29.3565   -8.7633 C   0  0  0  0  0  0  0  0  0  0  0  0
   29.0414   31.1375   -3.6418 C   0  0  0  0  0  0  0  0  0  0  0  0
   31.5032   29.9635   -4.7816 C   0  0  0  0  0  0  0  0  0  0  0  0
   31.7344   30.5256   -3.4970 C   0  0  0  0  0  0  0  0  0  0  0  0
   33.0778   29.9402    1.0924 C   0  0  0  0  0  0  0  0  0  0  0  0
   34.2039   22.2062    0.5794 C   0  0  0  0  0  0  0  0  0  0  0  0
   32.5669   31.0993    1.3959 O   0  0  0  0  0  0  0  0  0  0  0  0
   32.3481   30.2217   -1.1993 C   0  0  0  0  0  0  0  0  0  0  0  0
   32.6397   27.9273   -4.0625 C   0  0  0  0  0  0  0  0  0  0  0  0
   33.2506   31.9534   -8.8020 C   0  0  0  0  0  0  0  0  0  0  0  0
   32.8588   27.4895   -1.6875 N   0  0  0  0  0  0  0  0  0  0  0  0
   32.7756   26.0574   -1.7904 C   0  0  0  0  0  0  0  0  0  0  0  0
   33.0456   23.0254    0.3392 C   0  0  0  0  0  0  0  0  0  0  0  0
   29.4001   31.2641   -5.1809 C   0  0  0  0  0  0  0  0  0  0  0  0
   29.9789   31.2550   -8.8705 O   0  0  0  0  0  0  0  0  0  0  0  0
   31.7795   29.6322   -7.7484 C   0  0  0  0  0  0  0  0  0  0  0  0
   30.5066   29.8990   -7.0099 C   0  0  0  0  0  0  0  0  0  0  0  0
   32.5798   28.3558   -2.7457 C   0  0  0  0  0  0  0  0  0  0  0  0
   33.7769   30.5535   -8.9132 C   0  0  0  0  0  0  0  0  0  0  0  0
   33.8113   29.2157    1.9885 C   0  0  0  0  0  0  0  0  0  0  0  0
   33.1662   28.1312   -0.4700 C   0  0  0  0  0  0  0  0  0  0  0  0
   32.8014   23.9975   -0.3916 C   0  0  0  0  0  0  0  0  0  0  0  0
   32.2223   29.6979   -2.4842 C   0  0  0  0  0  0  0  0  0  0  0  0
   33.8117   25.9958    0.4069 C   0  0  0  0  0  0  0  0  0  0  0  0
   34.1994   20.9082    1.2747 C   0  0  0  0  0  0  0  0  0  0  0  0
   33.1833   25.3371   -0.6017 C   0  0  0  0  0  0  0  0  0  0  0  0
   32.3582   25.4597   -2.8182 O   0  0  0  0  0  0  0  0  0  0  0  0
   31.0619   30.9206   -8.1377 C   0  0  0  0  0  0  0  0  0  0  0  0
   35.6448   22.9168    0.1594 S   0  0  0  0  0  0  0  0  0  0  0  0
   32.1002   28.7601   -5.0393 C   0  0  0  0  0  0  0  0  0  0  0  0
  1 11  1  0
  1 14  2  0
  1 27  1  0
  2 16  1  0
  2 34  1  0
  3 10  1  0
  4  6  2  0
  4 27  1  0
  4 30  1  0
  5  9  1  0
  5 20  1  0
  5 23  1  0
  6 26  1  0
  7 22  1  0
  7 25  1  0
  8 20  1  0
  9 10  1  0
  9 36  1  0
 10 29  1  0
 11 13  1  0
 11 26  2  0
 12 19  1  0
 12 31  1  0
 12 35  2  0
 14 29  1  0
 15 24  1  0
 15 36  2  0
 16 25  1  0
 17 18  1  0
 17 24  1  0
 17 27  1  0
 18 32  1  0
 18 33  2  0
 19 28  1  0
 21 34  1  0
 22 23  1  0
 22 34  1  0
 24 29  2  0
 28 32  1  0
 30 32  1  0
M  END
>  <ID>  (1) 
conformer_0

$$$$
