
     RDKit          3D

 33 35  0  0  0  0  0  0  0  0999 V2000
   29.6275   30.6489   -4.9882 C   0  0  0  0  0  0  0  0  0  0  0  0
   32.4430   30.1992   -8.2040 O   0  0  0  0  0  0  0  0  0  0  0  0
   34.3123   30.0988   -2.4208 C   0  0  0  0  0  0  0  0  0  0  0  0
   34.3471   22.0152    0.4709 C   0  0  0  0  0  0  0  0  0  0  0  0
   30.6073   31.9794   -0.8456 O   0  0  0  0  0  0  0  0  0  0  0  0
   31.7743   31.1146   -9.2030 C   0  0  0  0  0  0  0  0  0  0  0  0
   31.6111   27.1684   -2.1696 C   0  0  0  0  0  0  0  0  0  0  0  0
   33.5198   29.7893   -3.6554 C   0  0  0  0  0  0  0  0  0  0  0  0
   32.0477   30.1763   -4.1496 C   0  0  0  0  0  0  0  0  0  0  0  0
   31.1357   23.9995   -5.9831 C   0  0  0  0  0  0  0  0  0  0  0  0
   31.4625   25.4343   -3.9177 C   0  0  0  0  0  0  0  0  0  0  0  0
   29.7948   30.3651   -2.6033 C   0  0  0  0  0  0  0  0  0  0  0  0
   31.9233   24.3725   -4.7085 C   0  0  0  0  0  0  0  0  0  0  0  0
   33.4062   23.0794    0.1055 C   0  0  0  0  0  0  0  0  0  0  0  0
   33.8287   24.4402    0.4916 C   0  0  0  0  0  0  0  0  0  0  0  0
   33.4021   30.6718   -1.3179 C   0  0  0  0  0  0  0  0  0  0  0  0
   33.0726   26.7607   -0.0227 C   0  0  0  0  0  0  0  0  0  0  0  0
   31.5115   30.1234   -7.0230 C   0  0  0  0  0  0  0  0  0  0  0  0
   31.0033   32.1042   -8.2568 C   0  0  0  0  0  0  0  0  0  0  0  0
   33.2229   25.3929   -0.4921 C   0  0  0  0  0  0  0  0  0  0  0  0
   32.7227   24.8231   -1.7864 C   0  0  0  0  0  0  0  0  0  0  0  0
   34.0952   27.6474    0.4696 C   0  0  0  0  0  0  0  0  0  0  0  0
   30.4353   31.1098   -7.3086 C   0  0  0  0  0  0  0  0  0  0  0  0
   35.2705   28.4198    2.5381 C   0  0  0  0  0  0  0  0  0  0  0  0
   32.0180   25.7837   -2.5535 C   0  0  0  0  0  0  0  0  0  0  0  0
   32.0027   30.0693   -1.4492 C   0  0  0  0  0  0  0  0  0  0  0  0
   32.2443   30.2776   -5.6998 C   0  0  0  0  0  0  0  0  0  0  0  0
   29.3519   31.2661   -6.3452 C   0  0  0  0  0  0  0  0  0  0  0  0
   31.8562   28.6181   -1.7904 C   0  0  0  0  0  0  0  0  0  0  0  0
   33.6682   20.8921    1.0571 O   0  0  0  0  0  0  0  0  0  0  0  0
   33.9844   27.7716    2.0403 C   0  0  0  0  0  0  0  0  0  0  0  0
   30.4902   29.8270   -3.9332 C   0  0  0  0  0  0  0  0  0  0  0  0
   30.9060   31.0960   -1.8157 C   0  0  0  0  0  0  0  0  0  0  0  0
  1 28  1  0
  1 32  1  0
  2  6  1  0
  2 18  1  0
  3  8  1  0
  3 16  1  0
  4 14  1  0
  4 30  1  0
  5 33  1  0
  6 19  1  0
  7 25  1  0
  7 29  2  0
  8  9  1  0
  9 27  1  0
  9 32  1  0
 10 13  1  0
 11 13  2  3
 11 25  1  0
 12 32  1  0
 12 33  1  0
 14 15  1  0
 15 20  1  0
 16 26  1  0
 17 20  1  0
 17 22  1  0
 18 23  1  0
 18 27  1  0
 19 23  1  0
 20 21  1  0
 21 25  1  0
 22 31  1  0
 23 28  1  0
 24 31  1  0
 26 29  2  0
 26 33  1  0
M  END
>  <ID>  (1) 
conformer_0

$$$$
