
     RDKit          3D

 34 38  0  0  0  0  0  0  0  0999 V2000
   33.4347   27.7157   -1.5529 C   0  0  0  0  0  0  0  0  0  0  0  0
   32.3377   25.1709   -3.2148 C   0  0  0  0  0  0  0  0  0  0  0  0
   32.5354   30.0580   -6.3863 C   0  0  0  0  0  0  0  0  0  0  0  0
   31.4116   30.5308   -4.3396 C   0  0  0  0  0  0  0  0  0  0  0  0
   30.1874   30.6563   -6.3988 C   0  0  0  0  0  0  0  0  0  0  0  0
   33.5502   26.2304   -1.1551 C   0  0  0  0  0  0  0  0  0  0  0  0
   33.1949   29.3004   -3.5470 C   0  0  0  0  0  0  0  0  0  0  0  0
   33.6710   22.0154    0.2120 C   0  0  0  0  0  0  0  0  0  0  0  0
   31.3630   30.4934   -7.1038 C   0  0  0  0  0  0  0  0  0  0  0  0
   32.7625   30.8543    1.1653 C   0  0  0  0  0  0  0  0  0  0  0  0
   32.7072   30.2581   -2.4863 C   0  0  0  0  0  0  0  0  0  0  0  0
   32.4849   29.9450   -4.9023 C   0  0  0  0  0  0  0  0  0  0  0  0
   30.1984   30.5740   -5.0203 C   0  0  0  0  0  0  0  0  0  0  0  0
   33.4272   28.7968   -0.6338 C   0  0  0  0  0  0  0  0  0  0  0  0
   34.2013   20.4726    2.5049 C   0  0  0  0  0  0  0  0  0  0  0  0
   31.8787   23.8293   -3.5126 C   0  0  0  0  0  0  0  0  0  0  0  0
   32.3748   30.3821   -9.5457 C   0  0  0  0  0  0  0  0  0  0  0  0
   31.3127   23.5219   -4.7287 F   0  0  0  0  0  0  0  0  0  0  0  0
   34.2666   21.4040    1.3995 C   0  0  0  0  0  0  0  0  0  0  0  0
   31.1273   32.3568   -8.8420 C   0  0  0  0  0  0  0  0  0  0  0  0
   33.6461   28.6726    0.7696 C   0  0  0  0  0  0  0  0  0  0  0  0
   31.5388   31.0024   -2.9667 C   0  0  0  0  0  0  0  0  0  0  0  0
   32.9923   25.0561   -1.9390 C   0  0  0  0  0  0  0  0  0  0  0  0
   33.3886   23.2908   -0.2970 C   0  0  0  0  0  0  0  0  0  0  0  0
   33.2742   28.0213   -2.9250 N   0  0  0  0  0  0  0  0  0  0  0  0
   32.9889   30.0714   -1.1097 C   0  0  0  0  0  0  0  0  0  0  0  0
   32.3373   31.7835    2.0118 F   0  0  0  0  0  0  0  0  0  0  0  0
   32.8869   23.5995   -1.4407 C   0  0  0  0  0  0  0  0  0  0  0  0
   32.7052   31.1109   -0.2237 C   0  0  0  0  0  0  0  0  0  0  0  0
   31.2727   30.8191   -8.6070 C   0  0  0  0  0  0  0  0  0  0  0  0
   29.0003   30.4683   -4.2077 C   0  0  0  0  0  0  0  0  0  0  0  0
   33.2596   29.6783    1.5929 N   0  0  0  0  0  0  0  0  0  0  0  0
   34.2339   27.6633    1.3215 N   0  0  0  0  0  0  0  0  0  0  0  0
   32.1092   22.8753   -2.4654 C   0  0  0  0  0  0  0  0  0  0  0  0
  1  6  1  0
  1 14  1  0
  1 25  2  0
  2 16  1  0
  2 23  1  0
  3  9  1  0
  3 12  2  0
  4 12  1  0
  4 13  1  0
  4 22  1  0
  5  9  1  0
  5 13  2  0
  6 23  1  0
  7 11  1  0
  7 12  1  0
  7 25  1  0
  8 19  1  0
  8 24  2  3
  9 30  1  0
 10 27  1  0
 10 29  1  0
 10 32  2  0
 11 22  1  0
 11 26  1  0
 13 31  1  0
 14 21  1  0
 14 26  1  0
 15 19  1  0
 16 18  1  0
 16 34  1  0
 17 30  1  0
 20 30  1  0
 21 32  1  0
 21 33  2  0
 23 28  2  0
 24 28  1  0
 26 29  2  0
 28 34  1  0
M  END
>  <ID>  (1) 
conformer_0

$$$$
