
     RDKit          3D

 28 31  0  0  0  0  0  0  0  0999 V2000
   33.4818   29.0628    1.4271 C   0  0  0  0  0  0  0  0  0  0  0  0
   30.3892   30.5465   -5.1700 C   0  0  0  0  0  0  0  0  0  0  0  0
   30.4652   30.0717   -2.8438 C   0  0  0  0  0  0  0  0  0  0  0  0
   32.2330   29.9013   -7.1278 C   0  0  0  0  0  0  0  0  0  0  0  0
   30.8409   30.9889   -8.8932 C   0  0  0  0  0  0  0  0  0  0  0  0
   33.1283   30.0335    0.5371 C   0  0  0  0  0  0  0  0  0  0  0  0
   32.8567   26.2140   -1.9968 C   0  0  0  0  0  0  0  0  0  0  0  0
   28.9992   31.5014   -6.8747 O   0  0  0  0  0  0  0  0  0  0  0  0
   32.6275   28.6855   -2.9827 C   0  0  0  0  0  0  0  0  0  0  0  0
   32.4869   29.5035   -5.7979 C   0  0  0  0  0  0  0  0  0  0  0  0
   33.4301   30.9259   -1.6587 O   0  0  0  0  0  0  0  0  0  0  0  0
   34.0360   25.6530    0.4797 C   0  0  0  0  0  0  0  0  0  0  0  0
   33.1562   27.2572   -1.1263 C   0  0  0  0  0  0  0  0  0  0  0  0
   33.1691   24.9255   -1.6057 C   0  0  0  0  0  0  0  0  0  0  0  0
   32.9518   28.5882   -1.5372 C   0  0  0  0  0  0  0  0  0  0  0  0
   34.3600   23.2943    0.0219 C   0  0  0  0  0  0  0  0  0  0  0  0
   33.1442   29.8249   -0.8670 C   0  0  0  0  0  0  0  0  0  0  0  0
   30.1414   30.8773   -6.5142 C   0  0  0  0  0  0  0  0  0  0  0  0
   33.7338   27.8207    1.1737 C   0  0  0  0  0  0  0  0  0  0  0  0
   33.6585   26.9441    0.1460 C   0  0  0  0  0  0  0  0  0  0  0  0
   33.8170   24.6727   -0.3867 C   0  0  0  0  0  0  0  0  0  0  0  0
   33.7276   22.0679    0.2847 C   0  0  0  0  0  0  0  0  0  0  0  0
   34.0270   21.0234    1.3993 C   0  0  0  0  0  0  0  0  0  0  0  0
   29.6739   30.7312   -3.8790 C   0  0  0  0  0  0  0  0  0  0  0  0
   31.6371   29.4948   -3.4727 C   0  0  0  0  0  0  0  0  0  0  0  0
   31.0610   30.5570   -7.4982 C   0  0  0  0  0  0  0  0  0  0  0  0
   32.7670   31.2437    0.9879 O   0  0  0  0  0  0  0  0  0  0  0  0
   31.5857   29.8192   -4.8420 C   0  0  0  0  0  0  0  0  0  0  0  0
  1  6  1  0
  1 19  2  0
  2 18  1  0
  2 24  1  0
  2 28  1  0
  3 24  1  0
  3 25  1  0
  4 10  1  0
  4 26  1  0
  5 26  1  0
  6 17  1  0
  6 27  1  0
  7 13  2  0
  7 14  1  0
  8 18  1  0
  9 15  1  0
  9 25  1  0
 10 28  2  0
 11 17  1  0
 12 20  2  0
 12 21  1  0
 13 15  1  0
 13 20  1  0
 14 21  2  0
 15 17  1  0
 16 21  1  0
 16 22  1  0
 18 26  2  0
 19 20  1  0
 22 23  1  0
 25 28  1  0
M  END
>  <ID>  (1) 
conformer_0

$$$$
