
     RDKit          3D

 29 32  0  0  0  0  0  0  0  0999 V2000
   32.2941   30.4516   -8.5503 C   0  0  0  0  0  0  0  0  0  0  0  0
   30.3434   31.3734   -7.5535 N   0  0  0  0  0  0  0  0  0  0  0  0
   31.1229   31.1696   -8.6506 C   0  0  0  0  0  0  0  0  0  0  0  0
   33.1520   27.4227   -0.9795 C   0  0  0  0  0  0  0  0  0  0  0  0
   32.9817   30.3001   -1.5871 C   0  0  0  0  0  0  0  0  0  0  0  0
   33.3204   27.9860    0.2416 C   0  0  0  0  0  0  0  0  0  0  0  0
   33.4159   29.6588    2.0600 C   0  0  0  0  0  0  0  0  0  0  0  0
   33.1604   22.4879    0.3725 O   0  0  0  0  0  0  0  0  0  0  0  0
   34.7383   20.7786    1.7762 C   0  0  0  0  0  0  0  0  0  0  0  0
   32.5578   27.0158   -3.1535 N   0  0  0  0  0  0  0  0  0  0  0  0
   32.7153   29.3049   -2.5016 N   0  0  0  0  0  0  0  0  0  0  0  0
   34.4425   22.8551    0.3095 C   0  0  0  0  0  0  0  0  0  0  0  0
   31.9139   30.0866   -6.2469 C   0  0  0  0  0  0  0  0  0  0  0  0
   32.7753   25.8030   -2.4986 O   0  0  0  0  0  0  0  0  0  0  0  0
   30.7144   30.8330   -6.3366 C   0  0  0  0  0  0  0  0  0  0  0  0
   33.2117   25.9994   -1.1781 C   0  0  0  0  0  0  0  0  0  0  0  0
   35.3680   21.7825    0.7353 C   0  0  0  0  0  0  0  0  0  0  0  0
   33.2953   29.3326    0.5822 C   0  0  0  0  0  0  0  0  0  0  0  0
   32.7082   29.9024   -7.3473 C   0  0  0  0  0  0  0  0  0  0  0  0
   31.2376   30.7627   -3.4856 N   0  0  0  0  0  0  0  0  0  0  0  0
   30.7582   31.7175   -9.8225 O   0  0  0  0  0  0  0  0  0  0  0  0
   29.8526   30.4090   -3.9128 C   0  0  0  0  0  0  0  0  0  0  0  0
   32.4542   29.3729   -5.0291 C   0  0  0  0  0  0  0  0  0  0  0  0
   33.2122   30.3378   -0.3356 C   0  0  0  0  0  0  0  0  0  0  0  0
   34.6213   24.1637   -0.4700 C   0  0  0  0  0  0  0  0  0  0  0  0
   32.8123   27.9367   -2.2124 C   0  0  0  0  0  0  0  0  0  0  0  0
   33.5263   25.0369   -0.3190 O   0  0  0  0  0  0  0  0  0  0  0  0
   29.6666   31.1643   -5.2363 C   0  0  0  0  0  0  0  0  0  0  0  0
   32.2028   29.7586   -3.7635 C   0  0  0  0  0  0  0  0  0  0  0  0
  1  3  1  0
  1 19  1  0
  2  3  1  0
  2 15  2  0
  3 21  2  0
  4  6  1  0
  4 16  2  0
  4 26  1  0
  5 11  1  0
  5 24  2  0
  6 18  2  0
  7 18  1  0
  8 12  1  0
  9 17  1  0
 10 14  1  0
 10 26  2  0
 11 26  1  0
 11 29  1  0
 12 17  1  0
 12 25  1  0
 13 15  1  0
 13 19  2  0
 13 23  1  0
 14 16  1  0
 15 28  1  0
 16 27  1  0
 18 24  1  0
 20 22  1  0
 20 29  1  0
 22 28  1  0
 23 29  2  0
 25 27  1  0
M  END
>  <ID>  (1) 
conformer_0

$$$$
