
     RDKit          3D

 34 36  0  0  0  0  0  0  0  0999 V2000
   34.1902   21.6202    0.7919 C   0  0  0  0  0  0  0  0  0  0  0  0
   32.1797   30.9062   -9.2971 C   0  0  0  0  0  0  0  0  0  0  0  0
   33.4564   31.0803   -2.2272 C   0  0  0  0  0  0  0  0  0  0  0  0
   32.1782   26.5984   -3.0525 C   0  0  0  0  0  0  0  0  0  0  0  0
   34.0947   29.0063    0.7083 C   0  0  0  0  0  0  0  0  0  0  0  0
   33.7732   30.8458   -0.8761 O   0  0  0  0  0  0  0  0  0  0  0  0
   32.0245   30.2971   -5.1854 C   0  0  0  0  0  0  0  0  0  0  0  0
   32.8810   26.3288   -1.7966 C   0  0  0  0  0  0  0  0  0  0  0  0
   29.4033   30.8330   -3.9019 C   0  0  0  0  0  0  0  0  0  0  0  0
   34.9240   23.7393   -0.0354 C   0  0  0  0  0  0  0  0  0  0  0  0
   33.1744   32.2322   -2.6754 O   0  0  0  0  0  0  0  0  0  0  0  0
   30.8118   30.0790   -7.4116 C   0  0  0  0  0  0  0  0  0  0  0  0
   33.3116   20.7039    0.9289 O   0  0  0  0  0  0  0  0  0  0  0  0
   33.8016   22.8228    0.1062 O   0  0  0  0  0  0  0  0  0  0  0  0
   32.0487   24.8244   -0.1397 O   0  0  0  0  0  0  0  0  0  0  0  0
   33.9342   27.7693    0.1214 C   0  0  0  0  0  0  0  0  0  0  0  0
   32.3459   30.6301    1.3355 O   0  0  0  0  0  0  0  0  0  0  0  0
   34.5050   25.1953   -0.2321 C   0  0  0  0  0  0  0  0  0  0  0  0
   29.5201   30.8725   -5.3940 C   0  0  0  0  0  0  0  0  0  0  0  0
   33.7582   29.4638   -0.5602 C   0  0  0  0  0  0  0  0  0  0  0  0
   31.8646   30.0448   -3.7419 C   0  0  0  0  0  0  0  0  0  0  0  0
   34.6570   28.0126    1.4468 O   0  0  0  0  0  0  0  0  0  0  0  0
   30.9122   31.1166   -8.4792 C   0  0  0  0  0  0  0  0  0  0  0  0
   33.8232   29.9431    2.8772 O   0  0  0  0  0  0  0  0  0  0  0  0
   33.1935   29.8878   -8.7522 C   0  0  0  0  0  0  0  0  0  0  0  0
   28.5105   31.2012   -6.2117 O   0  0  0  0  0  0  0  0  0  0  0  0
   33.0223   29.8250   -2.8653 C   0  0  0  0  0  0  0  0  0  0  0  0
   35.3115   21.5622    1.3073 O   0  0  0  0  0  0  0  0  0  0  0  0
   33.3843   29.9910    1.6699 C   0  0  0  0  0  0  0  0  0  0  0  0
   30.8347   30.5875   -6.0145 C   0  0  0  0  0  0  0  0  0  0  0  0
   33.4231   27.5617   -1.2191 C   0  0  0  0  0  0  0  0  0  0  0  0
   33.0393   28.8332   -1.7400 C   0  0  0  0  0  0  0  0  0  0  0  0
   30.4289   29.9258   -3.2760 C   0  0  0  0  0  0  0  0  0  0  0  0
   33.1158   25.2066   -0.7856 C   0  0  0  0  0  0  0  0  0  0  0  0
  1 13  2  0
  1 14  1  0
  1 28  1  0
  2 23  1  0
  2 25  1  0
  3  6  1  0
  3 11  2  0
  3 27  1  0
  4  8  1  0
  5 16  1  0
  5 20  1  0
  5 22  1  0
  5 29  1  0
  6 20  1  0
  7 21  2  0
  7 30  1  0
  8 31  1  0
  8 34  1  0
  9 19  1  0
  9 33  1  0
 10 14  1  0
 10 18  1  0
 12 23  1  0
 12 30  1  0
 15 34  1  0
 16 31  2  0
 17 29  2  0
 18 34  1  0
 19 26  1  0
 19 30  1  0
 20 32  1  0
 21 27  1  0
 21 33  1  0
 24 29  1  0
 27 32  1  0
 31 32  1  0
M  END
>  <ID>  (1) 
conformer_0

$$$$
