
     RDKit          3D

 33 36  0  0  0  0  0  0  0  0999 V2000
   31.5654   29.7861   -6.4338 C   0  0  0  0  0  0  0  0  0  0  0  0
   33.1241   28.8192   -1.1625 C   0  0  0  0  0  0  0  0  0  0  0  0
   32.2218   24.3322   -3.0529 C   0  0  0  0  0  0  0  0  0  0  0  0
   31.5863   31.0696   -1.3180 C   0  0  0  0  0  0  0  0  0  0  0  0
   32.9849   26.6378   -2.4134 C   0  0  0  0  0  0  0  0  0  0  0  0
   30.5234   30.9953   -6.4636 C   0  0  0  0  0  0  0  0  0  0  0  0
   34.1405   30.3697   -2.9776 C   0  0  0  0  0  0  0  0  0  0  0  0
   33.0233   21.3094    0.8331 C   0  0  0  0  0  0  0  0  0  0  0  0
   34.9319   20.6531    2.1593 C   0  0  0  0  0  0  0  0  0  0  0  0
   32.5873   31.3248   -0.1776 C   0  0  0  0  0  0  0  0  0  0  0  0
   32.5144   29.7394   -5.1448 C   0  0  0  0  0  0  0  0  0  0  0  0
   32.5595   29.9520   -7.6292 C   0  0  0  0  0  0  0  0  0  0  0  0
   33.6477   20.4469    1.7556 C   0  0  0  0  0  0  0  0  0  0  0  0
   34.2476   24.9869   -0.0305 O   0  0  0  0  0  0  0  0  0  0  0  0
   30.7086   31.6291   -4.9395 C   0  0  0  0  0  0  0  0  0  0  0  0
   34.0329   31.1325   -0.6268 C   0  0  0  0  0  0  0  0  0  0  0  0
   33.2582   24.4150   -0.6769 C   0  0  0  0  0  0  0  0  0  0  0  0
   31.6063   30.4350   -2.7561 C   0  0  0  0  0  0  0  0  0  0  0  0
   35.0898   22.5926    0.8049 C   0  0  0  0  0  0  0  0  0  0  0  0
   32.9938   27.3978   -0.1288 O   0  0  0  0  0  0  0  0  0  0  0  0
   32.8317   30.1081   -3.6583 C   0  0  0  0  0  0  0  0  0  0  0  0
   30.3916   30.5453   -3.7451 C   0  0  0  0  0  0  0  0  0  0  0  0
   33.1111   22.9682   -0.9599 C   0  0  0  0  0  0  0  0  0  0  0  0
   31.8602   25.6218   -2.2925 C   0  0  0  0  0  0  0  0  0  0  0  0
   33.7856   22.3778    0.2909 C   0  0  0  0  0  0  0  0  0  0  0  0
   32.3183   31.1279    1.1184 O   0  0  0  0  0  0  0  0  0  0  0  0
   29.0150   31.0714   -6.4161 O   0  0  0  0  0  0  0  0  0  0  0  0
   33.1446   27.4713   -1.2985 C   0  0  0  0  0  0  0  0  0  0  0  0
   35.6874   21.7195    1.6781 C   0  0  0  0  0  0  0  0  0  0  0  0
   31.9265   25.0538   -0.8510 C   0  0  0  0  0  0  0  0  0  0  0  0
   34.1315   29.8980   -1.5366 C   0  0  0  0  0  0  0  0  0  0  0  0
   31.8148   30.6779   -8.6921 C   0  0  0  0  0  0  0  0  0  0  0  0
   30.6919   31.4323   -8.0250 C   0  0  0  0  0  0  0  0  0  0  0  0
  1  6  1  0
  1 11  1  0
  1 12  1  0
  2 28  1  0
  2 31  1  0
  3 24  1  0
  4 10  1  0
  4 18  1  0
  5 24  1  0
  5 28  1  0
  6 15  1  0
  6 27  1  0
  6 33  1  0
  7 21  1  0
  7 31  1  0
  8 13  2  0
  8 25  1  0
  9 13  1  0
  9 29  2  0
 10 16  1  0
 10 26  1  0
 11 21  1  0
 12 32  1  0
 14 17  1  0
 15 22  1  0
 16 31  1  0
 17 23  1  0
 17 30  1  0
 18 21  2  0
 18 22  1  0
 19 25  2  0
 19 29  1  0
 20 28  2  0
 23 25  1  0
 24 30  1  0
 32 33  1  0
M  END
>  <ID>  (1) 
conformer_0

$$$$
