
     RDKit          3D

 40 45  0  0  0  0  0  0  0  0999 V2000
   34.0360   25.1742   -0.1034 C   0  0  0  0  0  0  0  0  0  0  0  0
   29.0231   29.5345   -2.5181 C   0  0  0  0  0  0  0  0  0  0  0  0
   33.1788   29.7996   -7.9063 C   0  0  0  0  0  0  0  0  0  0  0  0
   31.2862   31.1752   -2.4081 C   0  0  0  0  0  0  0  0  0  0  0  0
   32.1573   25.2921   -3.3986 N   0  0  0  0  0  0  0  0  0  0  0  0
   32.5683   30.9444   -0.2329 C   0  0  0  0  0  0  0  0  0  0  0  0
   32.0490   31.6211   -1.3367 C   0  0  0  0  0  0  0  0  0  0  0  0
   31.5093   30.2379   -3.5146 C   0  0  0  0  0  0  0  0  0  0  0  0
   34.9703   21.1628    1.7412 C   0  0  0  0  0  0  0  0  0  0  0  0
   33.1145   30.4295    2.0148 C   0  0  0  0  0  0  0  0  0  0  0  0
   34.0461   21.6850    0.6153 C   0  0  0  0  0  0  0  0  0  0  0  0
   31.2583   24.0542   -5.3786 Cl  0  0  0  0  0  0  0  0  0  0  0  0
   34.1975   26.4620    0.4741 C   0  0  0  0  0  0  0  0  0  0  0  0
   33.5474   27.4319   -0.2718 C   0  0  0  0  0  0  0  0  0  0  0  0
   32.0136   30.7677   -6.0780 C   0  0  0  0  0  0  0  0  0  0  0  0
   31.0104   31.2071   -6.9129 C   0  0  0  0  0  0  0  0  0  0  0  0
   33.3405   28.7525    0.2219 C   0  0  0  0  0  0  0  0  0  0  0  0
   29.9788   32.0625   -2.4297 C   0  0  0  0  0  0  0  0  0  0  0  0
   34.3390   20.0084    2.3460 O   0  0  0  0  0  0  0  0  0  0  0  0
   31.5829   26.7070   -5.0664 N   0  0  0  0  0  0  0  0  0  0  0  0
   33.4343   25.3807   -1.3927 C   0  0  0  0  0  0  0  0  0  0  0  0
   33.0030   29.7425   -0.5929 C   0  0  0  0  0  0  0  0  0  0  0  0
   31.9856   31.0597   -4.6624 N   0  0  0  0  0  0  0  0  0  0  0  0
   30.1044   31.5383   -9.2537 C   0  0  0  0  0  0  0  0  0  0  0  0
   32.1859   30.2406   -8.7593 C   0  0  0  0  0  0  0  0  0  0  0  0
   31.1440   28.7864   -3.6284 C   0  0  0  0  0  0  0  0  0  0  0  0
   32.6272   31.3946    1.0871 C   0  0  0  0  0  0  0  0  0  0  0  0
   32.0669   27.6181   -3.9636 C   0  0  0  0  0  0  0  0  0  0  0  0
   31.7209   25.4708   -4.5985 C   0  0  0  0  0  0  0  0  0  0  0  0
   33.0964   30.0734   -6.5629 C   0  0  0  0  0  0  0  0  0  0  0  0
   32.5134   32.3107   -4.3993 O   0  0  0  0  0  0  0  0  0  0  0  0
   34.7308   22.9021   -0.0900 C   0  0  0  0  0  0  0  0  0  0  0  0
   29.7131   28.4482   -3.2866 C   0  0  0  0  0  0  0  0  0  0  0  0
   33.2506   28.3182   -4.1809 O   0  0  0  0  0  0  0  0  0  0  0  0
   28.8692   31.0671   -2.5459 C   0  0  0  0  0  0  0  0  0  0  0  0
   33.0494   26.6880   -1.6463 C   0  0  0  0  0  0  0  0  0  0  0  0
   34.3477   24.0674    0.5191 O   0  0  0  0  0  0  0  0  0  0  0  0
   32.4067   26.7455   -2.8889 N   0  0  0  0  0  0  0  0  0  0  0  0
   33.4665   29.1633    1.6179 C   0  0  0  0  0  0  0  0  0  0  0  0
   31.1138   30.9342   -8.2742 C   0  0  0  0  0  0  0  0  0  0  0  0
  1 13  1  0
  1 21  1  0
  1 37  1  0
  2 33  1  0
  2 35  1  0
  3 25  1  0
  3 30  1  0
  4  7  1  0
  4  8  1  0
  4 18  1  0
  5 29  2  0
  5 38  1  0
  6  7  1  0
  6 22  1  0
  6 27  1  0
  8 23  1  0
  8 26  1  0
  9 11  1  0
  9 19  1  0
 10 27  1  0
 10 39  2  0
 11 32  1  0
 12 29  1  0
 13 14  1  0
 14 17  1  0
 14 36  2  0
 15 16  1  0
 15 23  1  0
 15 30  2  0
 16 40  1  0
 17 22  2  0
 17 39  1  0
 18 35  1  0
 20 28  1  0
 20 29  1  0
 21 36  1  0
 23 31  1  0
 24 40  1  0
 25 40  2  0
 26 28  1  0
 26 33  1  0
 28 34  1  0
 28 38  1  0
 32 37  1  0
 36 38  1  0
M  END
>  <ID>  (1) 
conformer_0

$$$$
