
     RDKit          3D

 26 29  0  0  0  0  0  0  0  0999 V2000
   32.7277   29.8993   -0.1781 N   0  0  0  0  0  0  0  0  0  0  0  0
   30.2587   30.6660   -4.1208 C   0  0  0  0  0  0  0  0  0  0  0  0
   33.3191   22.5922    0.1824 O   0  0  0  0  0  0  0  0  0  0  0  0
   31.6187   31.5972   -1.2499 O   0  0  0  0  0  0  0  0  0  0  0  0
   34.0708   23.7360    0.0366 C   0  0  0  0  0  0  0  0  0  0  0  0
   31.9523   29.6903   -2.5623 C   0  0  0  0  0  0  0  0  0  0  0  0
   33.5370   24.9790   -0.6220 C   0  0  0  0  0  0  0  0  0  0  0  0
   31.1811   30.4051   -7.0374 C   0  0  0  0  0  0  0  0  0  0  0  0
   34.0130   21.5083    0.8955 C   0  0  0  0  0  0  0  0  0  0  0  0
   32.6264   26.2155   -2.5258 C   0  0  0  0  0  0  0  0  0  0  0  0
   32.9970   31.0293    0.7566 C   0  0  0  0  0  0  0  0  0  0  0  0
   32.8513   28.5862   -2.7897 N   0  0  0  0  0  0  0  0  0  0  0  0
   32.9458   25.0139   -1.9129 C   0  0  0  0  0  0  0  0  0  0  0  0
   31.4581   30.0529   -3.8774 C   0  0  0  0  0  0  0  0  0  0  0  0
   33.2790   28.7026   -4.2113 C   0  0  0  0  0  0  0  0  0  0  0  0
   33.3029   27.4253   -0.5388 C   0  0  0  0  0  0  0  0  0  0  0  0
   33.2433   28.6614    0.2991 C   0  0  0  0  0  0  0  0  0  0  0  0
   33.5157   28.5153    1.5027 O   0  0  0  0  0  0  0  0  0  0  0  0
   32.9048   27.4600   -1.9211 C   0  0  0  0  0  0  0  0  0  0  0  0
   29.9650   30.9539   -6.5604 C   0  0  0  0  0  0  0  0  0  0  0  0
   32.1743   29.8215   -6.2627 C   0  0  0  0  0  0  0  0  0  0  0  0
   32.3110   29.5716   -4.9128 C   0  0  0  0  0  0  0  0  0  0  0  0
   31.3235   30.5046   -8.5266 C   0  0  0  0  0  0  0  0  0  0  0  0
   33.6911   26.1998   -0.0021 C   0  0  0  0  0  0  0  0  0  0  0  0
   32.1027   30.4414   -1.3268 C   0  0  0  0  0  0  0  0  0  0  0  0
   29.6130   31.0235   -5.2599 C   0  0  0  0  0  0  0  0  0  0  0  0
  1 11  1  0
  1 17  1  0
  1 25  1  0
  2 14  2  0
  2 26  1  0
  3  5  1  0
  3  9  1  0
  4 25  2  0
  5  7  1  0
  6 12  1  0
  6 14  1  0
  6 25  1  0
  7 13  1  0
  7 24  2  0
  8 20  1  0
  8 21  1  0
  8 23  1  0
 10 13  2  0
 10 19  1  0
 12 15  1  0
 12 19  1  0
 14 22  1  0
 15 22  1  0
 16 17  1  0
 16 19  1  0
 16 24  1  0
 17 18  2  0
 20 26  2  0
 21 22  2  0
M  END
>  <ID>  (1) 
conformer_0

$$$$
