
     RDKit          3D

 30 33  0  0  0  0  0  0  0  0999 V2000
   34.5016   21.3486    0.5992 C   0  0  0  0  0  0  0  0  0  0  0  0
   31.6930   31.9294   -5.0256 C   0  0  0  0  0  0  0  0  0  0  0  0
   31.9301   31.8812   -6.4396 C   0  0  0  0  0  0  0  0  0  0  0  0
   33.2593   27.5150   -1.1307 C   0  0  0  0  0  0  0  0  0  0  0  0
   31.0994   31.4176   -1.1182 O   0  0  0  0  0  0  0  0  0  0  0  0
   35.4179   23.4541   -0.1955 C   0  0  0  0  0  0  0  0  0  0  0  0
   33.3355   29.0195    0.8303 C   0  0  0  0  0  0  0  0  0  0  0  0
   33.5174   26.1682   -1.4751 O   0  0  0  0  0  0  0  0  0  0  0  0
   32.5382   30.1099   -8.2076 C   0  0  0  0  0  0  0  0  0  0  0  0
   32.6835   31.5785    1.3367 Cl  0  0  0  0  0  0  0  0  0  0  0  0
   31.9617   30.6655   -4.5100 C   0  0  0  0  0  0  0  0  0  0  0  0
   34.0459   25.3918   -0.5247 C   0  0  0  0  0  0  0  0  0  0  0  0
   35.5979   22.1289    0.2102 C   0  0  0  0  0  0  0  0  0  0  0  0
   33.0675   23.2449    0.1937 C   0  0  0  0  0  0  0  0  0  0  0  0
   29.1856   30.3169   -3.0245 C   0  0  0  0  0  0  0  0  0  0  0  0
   32.7636   28.2975   -2.2025 C   0  0  0  0  0  0  0  0  0  0  0  0
   33.5125   27.8458    0.1420 C   0  0  0  0  0  0  0  0  0  0  0  0
   30.3684   31.0138   -9.1783 C   0  0  0  0  0  0  0  0  0  0  0  0
   33.4481   29.3038   -8.5194 O   0  0  0  0  0  0  0  0  0  0  0  0
   32.4426   29.8458   -5.6059 C   0  0  0  0  0  0  0  0  0  0  0  0
   31.8044   30.7273   -9.2301 N   0  0  0  0  0  0  0  0  0  0  0  0
   32.7844   27.6768   -3.4429 F   0  0  0  0  0  0  0  0  0  0  0  0
   32.3383   30.5761   -6.8162 C   0  0  0  0  0  0  0  0  0  0  0  0
   32.2477   29.5968   -2.0944 C   0  0  0  0  0  0  0  0  0  0  0  0
   30.5241   31.1170   -2.4512 C   0  0  0  0  0  0  0  0  0  0  0  0
   33.2418   21.8911    0.5937 N   0  0  0  0  0  0  0  0  0  0  0  0
   32.7078   30.1333    0.3475 C   0  0  0  0  0  0  0  0  0  0  0  0
   34.1525   24.0508   -0.2599 C   0  0  0  0  0  0  0  0  0  0  0  0
   32.0898   30.2857   -0.8874 C   0  0  0  0  0  0  0  0  0  0  0  0
   31.6648   30.3559   -3.1532 C   0  0  0  0  0  0  0  0  0  0  0  0
  1 13  1  0
  1 26  2  0
  2  3  1  0
  2 11  1  0
  3 23  1  0
  4  8  1  0
  4 16  1  0
  4 17  2  0
  5 25  1  0
  5 29  1  0
  6 13  1  0
  6 28  2  0
  7 17  1  0
  7 27  2  0
  8 12  1  0
  9 19  2  0
  9 21  1  0
  9 23  1  0
 10 27  1  0
 11 20  1  0
 11 30  1  0
 12 28  1  0
 14 26  1  0
 14 28  1  0
 15 25  1  0
 16 22  1  0
 16 24  2  0
 18 21  1  0
 20 23  1  0
 24 29  1  0
 24 30  1  0
 25 30  1  0
 27 29  1  0
M  END
>  <ID>  (1) 
conformer_0

$$$$
