
     RDKit          3D

 36 40  0  0  0  0  0  0  0  0999 V2000
   31.6797   31.6510   -3.6200 C   0  0  0  0  0  0  0  0  0  0  0  0
   31.1756   31.0305   -8.4676 C   0  0  0  0  0  0  0  0  0  0  0  0
   31.9005   29.1497   -3.0982 C   0  0  0  0  0  0  0  0  0  0  0  0
   33.5136   21.0572    0.9055 O   0  0  0  0  0  0  0  0  0  0  0  0
   29.6648   30.3903   -3.3449 C   0  0  0  0  0  0  0  0  0  0  0  0
   31.9907   27.7706   -3.5562 C   0  0  0  0  0  0  0  0  0  0  0  0
   30.8055   31.6879   -7.3093 C   0  0  0  0  0  0  0  0  0  0  0  0
   32.9028   29.8447   -7.2368 C   0  0  0  0  0  0  0  0  0  0  0  0
   32.2082   30.0821   -8.4197 C   0  0  0  0  0  0  0  0  0  0  0  0
   33.9450   22.2695    0.6312 C   0  0  0  0  0  0  0  0  0  0  0  0
   33.1506   30.8621    0.9776 C   0  0  0  0  0  0  0  0  0  0  0  0
   33.0609   29.8808   -0.0054 C   0  0  0  0  0  0  0  0  0  0  0  0
   33.2511   27.0706   -0.3284 C   0  0  0  0  0  0  0  0  0  0  0  0
   30.4633   31.3892   -9.7793 C   0  0  0  0  0  0  0  0  0  0  0  0
   35.3247   22.5187    0.8968 C   0  0  0  0  0  0  0  0  0  0  0  0
   32.7993   30.2654   -1.2059 N   0  0  0  0  0  0  0  0  0  0  0  0
   32.4449   25.5285   -2.5802 C   0  0  0  0  0  0  0  0  0  0  0  0
   32.5291   29.1840   -1.8558 C   0  0  0  0  0  0  0  0  0  0  0  0
   33.1554   24.4862   -0.4661 C   0  0  0  0  0  0  0  0  0  0  0  0
   33.4329   25.7532   -0.0007 C   0  0  0  0  0  0  0  0  0  0  0  0
   33.7260   28.1781    1.5295 C   0  0  0  0  0  0  0  0  0  0  0  0
   29.2030   30.6774   -2.1918 O   0  0  0  0  0  0  0  0  0  0  0  0
   32.9817   32.0214   -3.3998 O   0  0  0  0  0  0  0  0  0  0  0  0
   28.9847   30.2780   -4.4190 O   0  0  0  0  0  0  0  0  0  0  0  0
   33.8347   29.1244    2.4372 C   0  0  0  0  0  0  0  0  0  0  0  0
   32.5646   30.4962   -6.0736 C   0  0  0  0  0  0  0  0  0  0  0  0
   33.5588   30.4406    2.2067 C   0  0  0  0  0  0  0  0  0  0  0  0
   31.5176   31.4456   -6.0937 C   0  0  0  0  0  0  0  0  0  0  0  0
   32.4612   26.9197   -2.4830 C   0  0  0  0  0  0  0  0  0  0  0  0
   32.8317   27.8595   -1.2741 C   0  0  0  0  0  0  0  0  0  0  0  0
   31.8878   25.0417   -3.8489 C   0  0  0  0  0  0  0  0  0  0  0  0
   31.0791   32.2429   -4.8694 C   0  0  0  0  0  0  0  0  0  0  0  0
   32.6249   24.3865   -1.8583 C   0  0  0  0  0  0  0  0  0  0  0  0
   33.2690   28.3695    0.1596 C   0  0  0  0  0  0  0  0  0  0  0  0
   33.1427   23.3722    0.2332 O   0  0  0  0  0  0  0  0  0  0  0  0
   31.1274   30.3160   -3.4639 N   0  0  0  0  0  0  0  0  0  0  0  0
  1 23  2  0
  1 32  1  0
  1 36  1  0
  2  7  2  0
  2  9  1  0
  2 14  1  0
  3  6  1  0
  3 18  1  0
  3 36  1  0
  4 10  2  0
  5 22  2  0
  5 24  1  0
  5 36  1  0
  6 29  1  0
  7 28  1  0
  8  9  1  0
  8 26  2  0
 10 15  1  0
 10 35  1  0
 11 12  2  0
 11 27  1  0
 12 16  1  0
 12 34  1  0
 13 20  2  0
 13 30  1  0
 13 34  1  0
 16 18  1  0
 17 29  2  0
 17 31  1  0
 17 33  1  0
 18 30  2  0
 19 20  1  0
 19 33  2  0
 19 35  1  0
 21 25  2  0
 21 34  1  0
 25 27  1  0
 26 28  1  0
 28 32  1  0
 29 30  1  0
M  END
>  <ID>  (1) 
conformer_0

$$$$
