
     RDKit          3D

 39 44  0  0  0  0  0  0  0  0999 V2000
   33.2886   26.9930   -0.7484 C   0  0  0  0  0  0  0  0  0  0  0  0
   33.3067   29.6277   -4.5561 C   0  0  0  0  0  0  0  0  0  0  0  0
   31.8543   31.4215   -0.9062 O   0  0  0  0  0  0  0  0  0  0  0  0
   32.6725   31.3421    1.2072 C   0  0  0  0  0  0  0  0  0  0  0  0
   33.7015   29.4549    2.2727 C   0  0  0  0  0  0  0  0  0  0  0  0
   34.1332   24.1183   -0.2790 C   0  0  0  0  0  0  0  0  0  0  0  0
   33.2093   30.7419    2.3306 C   0  0  0  0  0  0  0  0  0  0  0  0
   30.8117   30.0507   -3.7911 C   0  0  0  0  0  0  0  0  0  0  0  0
   35.7430   22.6125   -0.0309 N   0  0  0  0  0  0  0  0  0  0  0  0
   29.9840   30.3789   -6.0596 C   0  0  0  0  0  0  0  0  0  0  0  0
   33.1282   25.9804   -1.5089 C   0  0  0  0  0  0  0  0  0  0  0  0
   32.5142   29.8080   -9.9143 F   0  0  0  0  0  0  0  0  0  0  0  0
   34.6669   22.1203    0.6354 C   0  0  0  0  0  0  0  0  0  0  0  0
   33.0185   29.3255   -0.0600 C   0  0  0  0  0  0  0  0  0  0  0  0
   33.5771   28.7963    1.1571 C   0  0  0  0  0  0  0  0  0  0  0  0
   35.4567   23.8692   -0.6379 N   0  0  0  0  0  0  0  0  0  0  0  0
   32.7220   28.4188   -2.4940 C   0  0  0  0  0  0  0  0  0  0  0  0
   31.7604   30.7776   -9.3515 C   0  0  0  0  0  0  0  0  0  0  0  0
   34.7288   20.8099    1.3084 C   0  0  0  0  0  0  0  0  0  0  0  0
   32.3183   29.9738   -5.6379 C   0  0  0  0  0  0  0  0  0  0  0  0
   30.5711   30.8042  -10.0772 F   0  0  0  0  0  0  0  0  0  0  0  0
   32.3728   27.3548   -3.2485 N   0  0  0  0  0  0  0  0  0  0  0  0
   33.7772   20.2810    2.1709 O   0  0  0  0  0  0  0  0  0  0  0  0
   32.5227   26.0843   -2.7772 C   0  0  0  0  0  0  0  0  0  0  0  0
   33.6412   23.0329    0.4624 C   0  0  0  0  0  0  0  0  0  0  0  0
   29.5369   31.0501   -2.0836 C   0  0  0  0  0  0  0  0  0  0  0  0
   32.5400   30.6573    0.0438 C   0  0  0  0  0  0  0  0  0  0  0  0
   33.4950   25.0830   -0.7412 C   0  0  0  0  0  0  0  0  0  0  0  0
   30.2316   30.6031   -7.4176 C   0  0  0  0  0  0  0  0  0  0  0  0
   31.0110   30.1369   -5.2205 C   0  0  0  0  0  0  0  0  0  0  0  0
   32.9367   29.6918   -3.1368 C   0  0  0  0  0  0  0  0  0  0  0  0
   31.5271   30.4975   -7.8956 C   0  0  0  0  0  0  0  0  0  0  0  0
   32.5693   30.1232   -7.0268 C   0  0  0  0  0  0  0  0  0  0  0  0
   30.9280   31.5322   -1.8825 C   0  0  0  0  0  0  0  0  0  0  0  0
   29.6024   29.7992   -3.0746 O   0  0  0  0  0  0  0  0  0  0  0  0
   32.3957   31.9642   -9.5326 F   0  0  0  0  0  0  0  0  0  0  0  0
   32.8236   31.7993   -3.2210 C   0  0  0  0  0  0  0  0  0  0  0  0
   31.8742   30.7368   -3.0262 N   0  0  0  0  0  0  0  0  0  0  0  0
   33.0077   28.3256   -1.1098 C   0  0  0  0  0  0  0  0  0  0  0  0
  1 11  1  0
  1 39  2  0
  2 20  1  0
  2 31  1  0
  3 27  1  0
  3 34  1  0
  4  7  1  0
  4 27  2  0
  5  7  1  0
  5 15  2  0
  6 16  1  0
  6 25  1  0
  6 28  2  0
  8 30  1  0
  8 35  1  0
  8 38  1  0
  9 13  1  0
  9 16  1  0
 10 29  1  0
 10 30  2  0
 11 24  1  0
 11 28  2  0
 12 18  1  0
 13 19  2  3
 13 25  1  0
 14 15  1  0
 14 27  1  0
 14 39  1  0
 17 22  2  0
 17 31  1  0
 17 39  1  0
 18 21  1  0
 18 32  1  0
 18 36  1  0
 19 23  1  0
 20 30  1  0
 20 33  2  0
 22 24  1  0
 26 34  1  0
 26 35  1  0
 29 32  2  0
 31 38  1  0
 32 33  1  0
 37 38  1  0
M  END
>  <ID>  (1) 
conformer_0

$$$$
