
     RDKit          3D

 37 40  0  0  0  0  0  0  0  0999 V2000
   29.1148   31.4095   -6.4099 C   0  0  0  0  0  0  0  0  0  0  0  0
   31.0266   30.3858   -7.9864 C   0  0  0  0  0  0  0  0  0  0  0  0
   35.1699   22.2350    0.1395 C   0  0  0  0  0  0  0  0  0  0  0  0
   30.0727   31.5496   -7.6166 C   0  0  0  0  0  0  0  0  0  0  0  0
   32.7500   30.7125   -0.1842 C   0  0  0  0  0  0  0  0  0  0  0  0
   32.8533   25.1419   -2.0330 C   0  0  0  0  0  0  0  0  0  0  0  0
   34.4738   20.3005    3.1088 C   0  0  0  0  0  0  0  0  0  0  0  0
   32.3036   25.6295   -3.1685 C   0  0  0  0  0  0  0  0  0  0  0  0
   32.6771   31.6565    1.9863 C   0  0  0  0  0  0  0  0  0  0  0  0
   35.4089   21.3890    1.2961 C   0  0  0  0  0  0  0  0  0  0  0  0
   29.8911   31.0181   -5.1908 C   0  0  0  0  0  0  0  0  0  0  0  0
   32.8281   30.6523   -9.7010 C   0  0  0  0  0  0  0  0  0  0  0  0
   32.9416   30.5238   -4.9046 F   0  0  0  0  0  0  0  0  0  0  0  0
   35.0688   24.6409   -0.2447 C   0  0  0  0  0  0  0  0  0  0  0  0
   32.9565   23.3353   -0.1920 C   0  0  0  0  0  0  0  0  0  0  0  0
   32.9991   27.4103   -1.8955 C   0  0  0  0  0  0  0  0  0  0  0  0
   34.4363   25.8520   -0.3431 C   0  0  0  0  0  0  0  0  0  0  0  0
   31.9606   30.5971   -4.1629 C   0  0  0  0  0  0  0  0  0  0  0  0
   31.8055   24.9710   -4.1750 C   0  0  0  0  0  0  0  0  0  0  0  0
   33.4044   29.3487    1.7270 N   0  0  0  0  0  0  0  0  0  0  0  0
   32.8074   29.8614   -1.2454 C   0  0  0  0  0  0  0  0  0  0  0  0
   32.4905   30.3846   -8.2421 C   0  0  0  0  0  0  0  0  0  0  0  0
   34.3599   23.4832    0.3018 C   0  0  0  0  0  0  0  0  0  0  0  0
   33.5319   28.1768    0.1946 C   0  0  0  0  0  0  0  0  0  0  0  0
   32.9502   30.4485    1.1181 C   0  0  0  0  0  0  0  0  0  0  0  0
   32.3711   27.1331   -3.1107 C   0  0  0  0  0  0  0  0  0  0  0  0
   32.5863   23.7921   -1.5635 C   0  0  0  0  0  0  0  0  0  0  0  0
   29.2959   30.9042   -3.9352 C   0  0  0  0  0  0  0  0  0  0  0  0
   31.4474   23.8554   -4.6785 O   0  0  0  0  0  0  0  0  0  0  0  0
   30.1002   30.6946   -2.7895 C   0  0  0  0  0  0  0  0  0  0  0  0
   32.5719   30.2416   -2.5725 O   0  0  0  0  0  0  0  0  0  0  0  0
   31.4709   30.5355   -3.0169 C   0  0  0  0  0  0  0  0  0  0  0  0
   33.1227   28.5203   -0.9925 C   0  0  0  0  0  0  0  0  0  0  0  0
   34.2901   20.5494    1.7498 O   0  0  0  0  0  0  0  0  0  0  0  0
   31.2274   30.8378   -5.2452 C   0  0  0  0  0  0  0  0  0  0  0  0
   33.4506   26.1817   -1.3239 C   0  0  0  0  0  0  0  0  0  0  0  0
   33.7342   28.1714    1.3598 C   0  0  0  0  0  0  0  0  0  0  0  0
  1  4  1  0
  1 11  1  0
  2  4  1  0
  2 22  1  0
  3 10  1  0
  3 23  1  0
  5 21  1  0
  5 25  1  0
  6  8  1  0
  6 27  2  0
  6 36  1  0
  7 34  1  0
  8 19  1  0
  8 26  1  0
  9 25  1  0
 10 34  1  0
 11 28  2  0
 11 35  1  0
 12 22  1  0
 13 18  1  0
 14 17  1  0
 14 23  1  0
 15 23  1  0
 15 27  1  0
 16 26  1  0
 16 33  1  0
 16 36  1  0
 17 36  1  0
 18 32  1  0
 18 35  2  0
 19 29  2  0
 20 25  2  0
 20 37  1  0
 21 31  1  0
 21 33  2  0
 24 33  1  0
 24 37  1  0
 28 30  1  0
 30 32  2  0
 31 32  1  0
M  END
>  <ID>  (1) 
conformer_0

$$$$
