
     RDKit          3D

 42 45  0  0  0  0  0  0  0  0999 V2000
   31.6058   27.7018   -2.7279 N   0  0  0  0  0  0  0  0  0  0  0  0
   32.3742   26.5283   -2.4142 C   0  0  0  0  0  0  0  0  0  0  0  0
   34.1358   26.6835    0.4844 C   0  0  0  0  0  0  0  0  0  0  0  0
   31.1677   30.0642   -6.3461 C   0  0  0  0  0  0  0  0  0  0  0  0
   30.1245   30.2174   -3.6804 C   0  0  0  0  0  0  0  0  0  0  0  0
   32.2994   31.3546   -3.6026 C   0  0  0  0  0  0  0  0  0  0  0  0
   33.6732   31.2519   -1.5470 C   0  0  0  0  0  0  0  0  0  0  0  0
   33.1164   31.2970   -0.4190 C   0  0  0  0  0  0  0  0  0  0  0  0
   34.8977   26.5148    1.6709 C   0  0  0  0  0  0  0  0  0  0  0  0
   33.4276   31.2799   -2.7830 C   0  0  0  0  0  0  0  0  0  0  0  0
   32.8158   31.0180  -10.1548 C   0  0  0  0  0  0  0  0  0  0  0  0
   32.0722   32.6123   -4.1537 C   0  0  0  0  0  0  0  0  0  0  0  0
   32.6054   31.4450    0.7288 C   0  0  0  0  0  0  0  0  0  0  0  0
   28.3188   32.1639   -6.5815 C   0  0  0  0  0  0  0  0  0  0  0  0
   33.8118   25.8543   -0.6664 C   0  0  0  0  0  0  0  0  0  0  0  0
   32.9575   28.3657   -4.3994 O   0  0  0  0  0  0  0  0  0  0  0  0
   32.8826   30.0680   -8.2050 C   0  0  0  0  0  0  0  0  0  0  0  0
   29.2741   29.1245   -2.9496 C   0  0  0  0  0  0  0  0  0  0  0  0
   32.3335   29.4579   -7.0455 C   0  0  0  0  0  0  0  0  0  0  0  0
   30.9772   31.7401   -8.1545 C   0  0  0  0  0  0  0  0  0  0  0  0
   29.2921   33.2014   -6.3496 O   0  0  0  0  0  0  0  0  0  0  0  0
   31.5502   30.1171   -3.6681 O   0  0  0  0  0  0  0  0  0  0  0  0
   33.6269   21.3067    0.5788 C   0  0  0  0  0  0  0  0  0  0  0  0
   32.1359   31.2456   -8.8019 C   0  0  0  0  0  0  0  0  0  0  0  0
   33.2014   24.6437   -0.5955 N   0  0  0  0  0  0  0  0  0  0  0  0
   30.4782   32.6972   -6.0247 C   0  0  0  0  0  0  0  0  0  0  0  0
   34.7697   27.6886    2.4594 C   0  0  0  0  0  0  0  0  0  0  0  0
   33.6064   27.9704    0.4678 C   0  0  0  0  0  0  0  0  0  0  0  0
   33.5039   29.7376    2.2029 C   0  0  0  0  0  0  0  0  0  0  0  0
   34.1230   22.6113    0.2342 C   0  0  0  0  0  0  0  0  0  0  0  0
   29.3563   31.5238   -3.3137 C   0  0  0  0  0  0  0  0  0  0  0  0
   33.8323   20.4671    1.6612 O   0  0  0  0  0  0  0  0  0  0  0  0
   31.2844   33.2467   -4.9664 C   0  0  0  0  0  0  0  0  0  0  0  0
   33.2779   23.8756    0.6864 C   0  0  0  0  0  0  0  0  0  0  0  0
   32.8742   30.8642    1.9484 C   0  0  0  0  0  0  0  0  0  0  0  0
   30.9440   31.4882   -6.7133 C   0  0  0  0  0  0  0  0  0  0  0  0
   32.3728   24.1357   -1.6408 C   0  0  0  0  0  0  0  0  0  0  0  0
   33.9257   28.5744    1.6384 C   0  0  0  0  0  0  0  0  0  0  0  0
   32.1167   28.7309   -3.5662 C   0  0  0  0  0  0  0  0  0  0  0  0
   33.6640   26.6122   -1.8758 C   0  0  0  0  0  0  0  0  0  0  0  0
   31.8962   25.1468   -2.5248 C   0  0  0  0  0  0  0  0  0  0  0  0
   33.6262   29.7539   -9.4660 C   0  0  0  0  0  0  0  0  0  0  0  0
  1  2  1  0
  1 39  1  0
  2 40  1  0
  2 41  1  0
  3  9  1  0
  3 15  1  0
  3 28  1  0
  4 19  1  0
  4 36  1  0
  5 18  1  0
  5 22  1  0
  5 31  1  0
  6 10  1  0
  6 12  2  3
  6 22  1  0
  7  8  2  0
  7 10  1  0
  8 13  2  0
  9 27  1  0
 11 24  1  0
 11 42  1  0
 12 33  1  0
 13 35  1  0
 14 21  1  0
 15 25  1  0
 15 40  1  0
 16 39  2  0
 17 19  1  0
 17 24  1  0
 17 42  1  0
 20 24  1  0
 20 36  1  0
 21 26  1  0
 23 30  1  0
 23 32  1  0
 25 34  1  0
 25 37  1  0
 26 33  1  0
 26 36  1  0
 27 38  1  0
 28 38  1  0
 29 35  1  0
 29 38  2  3
 30 34  1  0
 37 41  1  0
M  END
>  <ID>  (1) 
conformer_0

$$$$
