
     RDKit          3D

 28 31  0  0  0  0  0  0  0  0999 V2000
   34.9752   22.5069   -0.0061 C   0  0  0  0  0  0  0  0  0  0  0  0
   34.9290   21.1987    0.6758 C   0  0  0  0  0  0  0  0  0  0  0  0
   30.4730   30.7086   -7.6709 C   0  0  0  0  0  0  0  0  0  0  0  0
   33.2892   29.1090   -2.4566 C   0  0  0  0  0  0  0  0  0  0  0  0
   33.6080   20.7481    0.9138 O   0  0  0  0  0  0  0  0  0  0  0  0
   30.2347   32.4333   -4.9020 C   0  0  0  0  0  0  0  0  0  0  0  0
   33.1644   30.1852   -7.6468 C   0  0  0  0  0  0  0  0  0  0  0  0
   32.6854   30.5433   -0.4766 C   0  0  0  0  0  0  0  0  0  0  0  0
   31.8658   30.6123   -5.5801 C   0  0  0  0  0  0  0  0  0  0  0  0
   32.9182   29.1981   -1.0156 C   0  0  0  0  0  0  0  0  0  0  0  0
   33.0475   30.4083   -4.7257 C   0  0  0  0  0  0  0  0  0  0  0  0
   33.6924   23.2383    0.1254 C   0  0  0  0  0  0  0  0  0  0  0  0
   32.7948   30.2087   -3.2913 C   0  0  0  0  0  0  0  0  0  0  0  0
   33.6730   24.4634   -0.6520 C   0  0  0  0  0  0  0  0  0  0  0  0
   33.7635   26.8950   -0.8835 C   0  0  0  0  0  0  0  0  0  0  0  0
   33.5920   28.1922    1.1966 O   0  0  0  0  0  0  0  0  0  0  0  0
   32.6412   26.3426   -1.7292 C   0  0  0  0  0  0  0  0  0  0  0  0
   30.3255   30.2751   -3.5307 C   0  0  0  0  0  0  0  0  0  0  0  0
   31.5080   30.7916   -2.7015 C   0  0  0  0  0  0  0  0  0  0  0  0
   33.5036   29.4652    1.8221 C   0  0  0  0  0  0  0  0  0  0  0  0
   33.3362   28.1136   -0.1465 C   0  0  0  0  0  0  0  0  0  0  0  0
   32.3426   24.9494   -1.1379 C   0  0  0  0  0  0  0  0  0  0  0  0
   30.4854   30.8712   -4.9704 C   0  0  0  0  0  0  0  0  0  0  0  0
   34.4675   25.7114   -0.3111 C   0  0  0  0  0  0  0  0  0  0  0  0
   32.7958   30.5505    1.0266 C   0  0  0  0  0  0  0  0  0  0  0  0
   33.1651   29.7389   -9.0591 C   0  0  0  0  0  0  0  0  0  0  0  0
   31.9249   30.7614   -7.0579 C   0  0  0  0  0  0  0  0  0  0  0  0
   31.7119   31.3413   -1.3092 C   0  0  0  0  0  0  0  0  0  0  0  0
  1  2  1  0
  1 12  1  0
  2  5  1  0
  3 27  1  0
  4 10  1  0
  4 13  1  0
  6 23  1  0
  7 26  1  0
  7 27  1  0
  8 10  1  0
  8 25  1  0
  8 28  1  0
  9 11  2  0
  9 23  1  0
  9 27  1  0
 10 21  1  0
 11 13  1  0
 12 14  1  0
 13 19  1  0
 14 22  1  0
 14 24  1  0
 15 17  1  0
 15 21  1  0
 15 24  1  0
 16 20  1  0
 16 21  1  0
 17 22  1  0
 18 19  1  0
 18 23  1  0
 19 28  1  0
 20 25  1  0
M  END
>  <ID>  (1) 
conformer_0

$$$$
