
     RDKit          3D

 34 38  0  0  0  0  0  0  0  0999 V2000
   29.4809   31.2502   -3.0065 C   0  0  0  0  0  0  0  0  0  0  0  0
   33.9356   25.7523   -0.6150 N   0  0  0  0  0  0  0  0  0  0  0  0
   32.6738   28.8851   -3.2491 C   0  0  0  0  0  0  0  0  0  0  0  0
   32.8688   31.0797   -2.7748 N   0  0  0  0  0  0  0  0  0  0  0  0
   32.5318   30.1036   -3.8540 N   0  0  0  0  0  0  0  0  0  0  0  0
   32.1771   29.7292   -5.1986 C   0  0  0  0  0  0  0  0  0  0  0  0
   33.4437   28.3110    0.3095 C   0  0  0  0  0  0  0  0  0  0  0  0
   32.4160   27.9085   -4.1140 C   0  0  0  0  0  0  0  0  0  0  0  0
   33.2856   27.9925   -1.0176 C   0  0  0  0  0  0  0  0  0  0  0  0
   33.4505   29.9788    2.1788 C   0  0  0  0  0  0  0  0  0  0  0  0
   32.7569   30.7818   -9.9699 C   0  0  0  0  0  0  0  0  0  0  0  0
   31.7457   30.7803   -8.8874 C   0  0  0  0  0  0  0  0  0  0  0  0
   32.9636   22.4297    0.7534 C   0  0  0  0  0  0  0  0  0  0  0  0
   33.9802   24.4211   -0.2636 C   0  0  0  0  0  0  0  0  0  0  0  0
   29.1548   30.5405   -5.5203 C   0  0  0  0  0  0  0  0  0  0  0  0
   30.4466   31.5342   -5.5214 C   0  0  0  0  0  0  0  0  0  0  0  0
   34.2173   20.4350    1.1004 O   0  0  0  0  0  0  0  0  0  0  0  0
   31.6431   30.6854   -6.2753 C   0  0  0  0  0  0  0  0  0  0  0  0
   33.3128   26.6404   -1.4418 C   0  0  0  0  0  0  0  0  0  0  0  0
   35.1742   23.7384   -0.3624 C   0  0  0  0  0  0  0  0  0  0  0  0
   33.3849   29.6309    0.7028 C   0  0  0  0  0  0  0  0  0  0  0  0
   32.3457   26.5636   -3.7575 C   0  0  0  0  0  0  0  0  0  0  0  0
   32.2015   28.4271   -5.3228 N   0  0  0  0  0  0  0  0  0  0  0  0
   30.3415   31.2780   -8.8888 C   0  0  0  0  0  0  0  0  0  0  0  0
   32.7370   26.1488   -2.5686 C   0  0  0  0  0  0  0  0  0  0  0  0
   30.4558   32.0598   -4.0102 C   0  0  0  0  0  0  0  0  0  0  0  0
   32.8781   23.7556    0.2892 C   0  0  0  0  0  0  0  0  0  0  0  0
   34.8993   20.1660    2.3494 C   0  0  0  0  0  0  0  0  0  0  0  0
   35.2668   22.4162    0.1200 C   0  0  0  0  0  0  0  0  0  0  0  0
   33.0305   29.0073   -1.9342 C   0  0  0  0  0  0  0  0  0  0  0  0
   34.1997   21.7281    0.7056 C   0  0  0  0  0  0  0  0  0  0  0  0
   32.1995   30.1244   -7.6363 C   0  0  0  0  0  0  0  0  0  0  0  0
   33.0931   30.3579   -1.5836 C   0  0  0  0  0  0  0  0  0  0  0  0
   33.2797   30.6682   -0.2296 C   0  0  0  0  0  0  0  0  0  0  0  0
  1 26  1  0
  2 14  1  0
  2 19  1  0
  3  5  1  0
  3  8  2  0
  3 30  1  0
  4  5  1  0
  4 33  1  0
  5  6  1  0
  6 18  1  0
  6 23  2  0
  7  9  1  0
  7 21  2  0
  8 22  1  0
  8 23  1  0
  9 19  1  0
  9 30  1  0
 10 21  1  0
 11 12  1  0
 12 24  1  0
 12 32  1  0
 13 27  2  0
 13 31  1  0
 14 20  2  0
 14 27  1  0
 15 16  1  0
 16 18  1  0
 16 26  1  0
 17 28  1  0
 17 31  1  0
 18 32  1  0
 19 25  1  0
 20 29  1  0
 21 34  1  0
 22 25  2  0
 29 31  2  0
 30 33  2  0
 33 34  1  0
M  END
>  <ID>  (1) 
conformer_0

$$$$
