
     RDKit          3D

 43 48  0  0  0  0  0  0  0  0999 V2000
   34.6026   28.1121    0.9531 C   0  0  0  0  0  0  0  0  0  0  0  0
   33.2591   29.3568   -3.4446 C   0  0  0  0  0  0  0  0  0  0  0  0
   32.9380   27.9222   -3.1316 C   0  0  0  0  0  0  0  0  0  0  0  0
   29.2675   30.9678   -5.7849 C   0  0  0  0  0  0  0  0  0  0  0  0
   32.5770   30.0938   -7.0324 C   0  0  0  0  0  0  0  0  0  0  0  0
   34.0860   23.2827    0.5042 C   0  0  0  0  0  0  0  0  0  0  0  0
   34.9017   26.8917    0.3339 C   0  0  0  0  0  0  0  0  0  0  0  0
   33.5238   30.2483    0.5916 C   0  0  0  0  0  0  0  0  0  0  0  0
   32.0730   31.8901   -0.2746 C   0  0  0  0  0  0  0  0  0  0  0  0
   31.4684   30.3503   -6.2274 C   0  0  0  0  0  0  0  0  0  0  0  0
   33.3623   29.9283   -0.7665 C   0  0  0  0  0  0  0  0  0  0  0  0
   33.5384   21.0207    1.2230 F   0  0  0  0  0  0  0  0  0  0  0  0
   30.3026   30.8151   -6.8043 C   0  0  0  0  0  0  0  0  0  0  0  0
   34.6512   25.6449    0.6589 C   0  0  0  0  0  0  0  0  0  0  0  0
   33.6190   29.9378   -9.3125 C   0  0  0  0  0  0  0  0  0  0  0  0
   32.6658   31.0934   -1.4049 C   0  0  0  0  0  0  0  0  0  0  0  0
   31.5376   30.5849   -2.3460 C   0  0  0  0  0  0  0  0  0  0  0  0
   33.0807   24.7231   -1.2710 C   0  0  0  0  0  0  0  0  0  0  0  0
   31.8548   31.3071    1.9878 F   0  0  0  0  0  0  0  0  0  0  0  0
   31.4528   25.0825   -4.8325 F   0  0  0  0  0  0  0  0  0  0  0  0
   34.4790   21.7902    0.7228 C   0  0  0  0  0  0  0  0  0  0  0  0
   31.2867   30.0578   -4.7867 C   0  0  0  0  0  0  0  0  0  0  0  0
   28.1854   31.4709   -6.0093 O   0  0  0  0  0  0  0  0  0  0  0  0
   33.6479   29.3487    2.7824 O   0  0  0  0  0  0  0  0  0  0  0  0
   33.1899   23.5790   -0.5505 C   0  0  0  0  0  0  0  0  0  0  0  0
   33.6961   31.8713   -1.9003 O   0  0  0  0  0  0  0  0  0  0  0  0
   32.0533   25.8478   -3.8499 C   0  0  0  0  0  0  0  0  0  0  0  0
   29.9086   30.7246   -4.4205 N   0  0  0  0  0  0  0  0  0  0  0  0
   33.0608   25.8933   -1.8221 C   0  0  0  0  0  0  0  0  0  0  0  0
   32.4766   25.1253   -2.6573 C   0  0  0  0  0  0  0  0  0  0  0  0
   34.8242   21.1865   -0.3662 F   0  0  0  0  0  0  0  0  0  0  0  0
   34.7002   24.3988    1.0406 C   0  0  0  0  0  0  0  0  0  0  0  0
   31.3475   30.8702   -8.9697 C   0  0  0  0  0  0  0  0  0  0  0  0
   35.5083   21.7740    1.5567 F   0  0  0  0  0  0  0  0  0  0  0  0
   32.5005   30.3131   -8.4086 C   0  0  0  0  0  0  0  0  0  0  0  0
   32.6593   31.3733    0.9494 C   0  0  0  0  0  0  0  0  0  0  0  0
   32.2632   27.1931   -4.0870 C   0  0  0  0  0  0  0  0  0  0  0  0
   33.3202   27.2209   -1.9213 C   0  0  0  0  0  0  0  0  0  0  0  0
   30.0880   30.8443   -2.8646 C   0  0  0  0  0  0  0  0  0  0  0  0
   32.4915   31.6306   -4.2398 O   0  0  0  0  0  0  0  0  0  0  0  0
   33.8132   29.1312    1.5213 C   0  0  0  0  0  0  0  0  0  0  0  0
   30.2114   31.1280   -8.1797 C   0  0  0  0  0  0  0  0  0  0  0  0
   32.2446   30.3839   -3.7264 C   0  0  0  0  0  0  0  0  0  0  0  0
  1  7  2  0
  1 41  2  0
  2  3  1  0
  2 43  1  0
  3 37  1  0
  3 38  2  0
  4 13  1  0
  4 23  2  0
  4 28  1  0
  5 10  1  0
  5 35  2  0
  6 21  1  0
  6 25  1  0
  6 32  1  0
  7 14  2  0
  8 11  1  0
  8 36  1  0
  8 41  1  0
  9 16  1  0
  9 36  1  0
 10 13  2  0
 10 22  1  0
 11 16  1  0
 12 21  1  0
 13 42  1  0
 14 32  2  0
 15 35  1  0
 16 17  1  0
 16 26  1  0
 17 39  1  0
 17 43  1  0
 18 25  2  0
 18 29  2  0
 19 36  1  0
 20 27  1  0
 21 31  1  0
 21 34  1  0
 22 28  1  0
 22 43  1  0
 24 41  1  0
 27 30  1  0
 27 37  2  0
 28 39  1  0
 29 30  1  0
 29 38  1  0
 33 35  1  0
 33 42  2  0
 40 43  1  0
M  END
>  <ID>  (1) 
conformer_0

$$$$
