
     RDKit          3D

 34 38  0  0  0  0  0  0  0  0999 V2000
   35.7382   23.1863    0.2509 C   0  0  0  0  0  0  0  0  0  0  0  0
   31.7803   25.8567   -1.9549 C   0  0  0  0  0  0  0  0  0  0  0  0
   30.4043   31.1896   -8.2322 C   0  0  0  0  0  0  0  0  0  0  0  0
   31.9262   31.1542   -8.5275 C   0  0  0  0  0  0  0  0  0  0  0  0
   32.9809   22.9750    1.4080 C   0  0  0  0  0  0  0  0  0  0  0  0
   30.7385   32.9932   -6.4366 C   0  0  0  0  0  0  0  0  0  0  0  0
   33.1042   27.0873   -0.2020 C   0  0  0  0  0  0  0  0  0  0  0  0
   31.6651   28.3345   -3.5362 C   0  0  0  0  0  0  0  0  0  0  0  0
   33.0315   29.3016   -3.5155 C   0  0  0  0  0  0  0  0  0  0  0  0
   34.0520   25.9824   -0.6209 C   0  0  0  0  0  0  0  0  0  0  0  0
   33.8357   21.7853    1.0631 C   0  0  0  0  0  0  0  0  0  0  0  0
   31.6752   29.3729   -6.8671 C   0  0  0  0  0  0  0  0  0  0  0  0
   33.8821   24.8496    0.2875 C   0  0  0  0  0  0  0  0  0  0  0  0
   32.8819   31.5937   -0.1327 C   0  0  0  0  0  0  0  0  0  0  0  0
   32.4442   28.0636   -1.0865 C   0  0  0  0  0  0  0  0  0  0  0  0
   30.9046   30.6559   -4.6897 C   0  0  0  0  0  0  0  0  0  0  0  0
   32.7767   23.8468    0.0720 C   0  0  0  0  0  0  0  0  0  0  0  0
   33.3833   29.4606    1.3979 C   0  0  0  0  0  0  0  0  0  0  0  0
   30.5428   29.4768   -3.6704 C   0  0  0  0  0  0  0  0  0  0  0  0
   28.5575   32.2692   -7.1394 O   0  0  0  0  0  0  0  0  0  0  0  0
   32.4429   31.6996   -1.5991 C   0  0  0  0  0  0  0  0  0  0  0  0
   29.8806   31.7520   -6.8647 C   0  0  0  0  0  0  0  0  0  0  0  0
   32.4288   29.7690   -8.1199 C   0  0  0  0  0  0  0  0  0  0  0  0
   32.7533   30.3372   -2.2831 C   0  0  0  0  0  0  0  0  0  0  0  0
   29.6705   30.7854   -5.6626 C   0  0  0  0  0  0  0  0  0  0  0  0
   31.8368   24.6774   -0.9111 C   0  0  0  0  0  0  0  0  0  0  0  0
   33.4823   30.1649    0.0613 C   0  0  0  0  0  0  0  0  0  0  0  0
   32.0754   30.4174   -5.7662 C   0  0  0  0  0  0  0  0  0  0  0  0
   32.9250   29.4097   -1.0772 C   0  0  0  0  0  0  0  0  0  0  0  0
   32.2949   25.3690   -3.2392 C   0  0  0  0  0  0  0  0  0  0  0  0
   35.1267   24.4129    0.9414 C   0  0  0  0  0  0  0  0  0  0  0  0
   33.8809   20.5910    1.8816 C   0  0  0  0  0  0  0  0  0  0  0  0
   34.9139   21.9290    0.0652 C   0  0  0  0  0  0  0  0  0  0  0  0
   31.6316   27.4796   -2.1938 C   0  0  0  0  0  0  0  0  0  0  0  0
  1 31  1  0
  1 33  1  0
  2 26  1  0
  2 30  1  0
  2 34  1  0
  3  4  1  0
  3 22  1  0
  4 23  1  0
  5 11  1  0
  5 17  1  0
  6 22  1  0
  7 10  1  0
  7 15  1  0
  8  9  1  0
  8 19  1  0
  8 34  1  0
  9 24  1  0
 10 13  1  0
 11 32  1  0
 11 33  1  0
 12 23  1  0
 12 28  1  0
 13 17  1  0
 13 31  1  0
 14 21  1  0
 14 27  1  0
 15 29  1  0
 15 34  1  0
 16 19  1  0
 16 25  1  0
 16 28  1  0
 17 26  1  0
 18 27  1  0
 20 22  1  0
 21 24  1  0
 22 25  1  0
 24 29  1  0
 27 29  1  0
M  END
>  <ID>  (1) 
conformer_0

$$$$
