
     RDKit          3D

 43 47  0  0  0  0  0  0  0  0999 V2000
   34.2952   30.4122   -3.2933 F   0  0  0  0  0  0  0  0  0  0  0  0
   32.3400   30.9127  -10.0429 C   0  0  0  0  0  0  0  0  0  0  0  0
   29.8922   31.4859   -7.3976 O   0  0  0  0  0  0  0  0  0  0  0  0
   32.3710   26.7263   -3.0410 C   0  0  0  0  0  0  0  0  0  0  0  0
   33.0817   22.9952    0.7215 C   0  0  0  0  0  0  0  0  0  0  0  0
   28.4357   31.1080   -5.6771 O   0  0  0  0  0  0  0  0  0  0  0  0
   35.2590   23.3263   -0.2895 C   0  0  0  0  0  0  0  0  0  0  0  0
   33.1672   29.6630   -7.8861 C   0  0  0  0  0  0  0  0  0  0  0  0
   33.3005   29.9293   -9.3275 C   0  0  0  0  0  0  0  0  0  0  0  0
   32.3173   31.0965   -2.0398 N   0  0  0  0  0  0  0  0  0  0  0  0
   31.6107   31.9087   -9.1859 C   0  0  0  0  0  0  0  0  0  0  0  0
   29.0116   29.0126   -3.5014 C   0  0  0  0  0  0  0  0  0  0  0  0
   32.0391   32.8501   -3.5967 O   0  0  0  0  0  0  0  0  0  0  0  0
   33.6426   30.8614   -2.1632 C   0  0  0  0  0  0  0  0  0  0  0  0
   33.6675   25.1970    0.0061 N   0  0  0  0  0  0  0  0  0  0  0  0
   29.7094   31.1361   -6.0832 C   0  0  0  0  0  0  0  0  0  0  0  0
   34.5454   31.7737   -1.7338 F   0  0  0  0  0  0  0  0  0  0  0  0
   31.5629   31.7875   -3.1146 C   0  0  0  0  0  0  0  0  0  0  0  0
   33.1333   29.9972    0.1124 C   0  0  0  0  0  0  0  0  0  0  0  0
   33.9928   23.8496    0.0429 C   0  0  0  0  0  0  0  0  0  0  0  0
   31.9399   30.2694   -5.7685 C   0  0  0  0  0  0  0  0  0  0  0  0
   33.4046   30.2315    2.8558 C   0  0  0  0  0  0  0  0  0  0  0  0
   33.5415   21.7682    1.1762 C   0  0  0  0  0  0  0  0  0  0  0  0
   33.3334   26.1758   -0.8951 C   0  0  0  0  0  0  0  0  0  0  0  0
   32.8070   25.8301   -2.1132 C   0  0  0  0  0  0  0  0  0  0  0  0
   32.1077   30.4164   -7.1409 C   0  0  0  0  0  0  0  0  0  0  0  0
   29.0178   31.1830   -1.9005 C   0  0  0  0  0  0  0  0  0  0  0  0
   32.6983   31.1333    0.7461 C   0  0  0  0  0  0  0  0  0  0  0  0
   30.7793   30.7854   -5.2034 C   0  0  0  0  0  0  0  0  0  0  0  0
   35.3270   20.0772    1.7979 C   0  0  0  0  0  0  0  0  0  0  0  0
   33.4286   27.5864   -0.4907 C   0  0  0  0  0  0  0  0  0  0  0  0
   35.6657   22.0474    0.2160 C   0  0  0  0  0  0  0  0  0  0  0  0
   32.8147   31.2381    2.1425 C   0  0  0  0  0  0  0  0  0  0  0  0
   33.0321   28.4570   -1.5689 C   0  0  0  0  0  0  0  0  0  0  0  0
   31.1980   31.2145   -7.8824 C   0  0  0  0  0  0  0  0  0  0  0  0
   29.2819   30.5090   -3.2452 C   0  0  0  0  0  0  0  0  0  0  0  0
   30.5332   31.0132   -3.7783 N   0  0  0  0  0  0  0  0  0  0  0  0
   32.5805   28.0151   -2.7670 N   0  0  0  0  0  0  0  0  0  0  0  0
   33.6070   28.8313    0.8394 C   0  0  0  0  0  0  0  0  0  0  0  0
   34.2748   19.7754    2.8884 C   0  0  0  0  0  0  0  0  0  0  0  0
   33.8342   29.0534    2.2636 C   0  0  0  0  0  0  0  0  0  0  0  0
   33.0776   29.9082   -1.3308 C   0  0  0  0  0  0  0  0  0  0  0  0
   34.8544   21.2738    1.0601 C   0  0  0  0  0  0  0  0  0  0  0  0
  1 14  1  0
  2  9  1  0
  2 11  1  0
  3 16  1  0
  3 35  1  0
  4 25  1  0
  4 38  2  0
  5 20  1  0
  5 23  2  0
  6 16  2  0
  7 20  1  0
  7 32  1  0
  8  9  1  0
  8 26  2  0
 10 14  1  0
 10 18  1  0
 11 35  1  0
 12 36  1  0
 13 18  2  0
 14 17  1  0
 14 42  1  0
 15 20  1  0
 15 24  1  0
 16 29  1  0
 18 37  1  0
 19 28  2  0
 19 39  1  0
 19 42  1  0
 21 26  1  0
 21 29  2  0
 22 33  2  0
 22 41  1  0
 23 43  1  0
 24 25  2  0
 24 31  1  0
 26 35  1  0
 27 36  1  0
 28 33  1  0
 29 37  1  0
 30 40  1  0
 30 43  1  0
 31 34  1  0
 32 43  2  0
 34 38  1  0
 34 42  1  0
 36 37  1  0
 39 41  1  0
M  END
>  <ID>  (1) 
conformer_0

$$$$
