
     RDKit          3D

 33 37  0  0  0  0  0  0  0  0999 V2000
   33.9889   27.9565    1.7034 C   0  0  0  0  0  0  0  0  0  0  0  0
   34.3017   21.5748    0.3300 C   0  0  0  0  0  0  0  0  0  0  0  0
   33.1454   29.7864    0.5188 C   0  0  0  0  0  0  0  0  0  0  0  0
   31.7312   31.3089   -9.2847 C   0  0  0  0  0  0  0  0  0  0  0  0
   33.7530   29.3396    1.7338 C   0  0  0  0  0  0  0  0  0  0  0  0
   32.0666   29.0963   -3.9433 C   0  0  0  0  0  0  0  0  0  0  0  0
   32.7626   28.0966   -4.4228 N   0  0  0  0  0  0  0  0  0  0  0  0
   33.1184   27.3095   -2.3202 C   0  0  0  0  0  0  0  0  0  0  0  0
   31.3503   32.0739   -7.9891 C   0  0  0  0  0  0  0  0  0  0  0  0
   32.7187   28.5266   -1.7544 C   0  0  0  0  0  0  0  0  0  0  0  0
   30.3906   30.8750   -9.7368 O   0  0  0  0  0  0  0  0  0  0  0  0
   30.0216   30.3721   -4.9431 C   0  0  0  0  0  0  0  0  0  0  0  0
   34.2882   30.3539    2.7211 C   0  0  0  0  0  0  0  0  0  0  0  0
   33.5245   26.3012   -1.5857 N   0  0  0  0  0  0  0  0  0  0  0  0
   30.9180   31.0909   -6.9228 N   0  0  0  0  0  0  0  0  0  0  0  0
   33.6668   27.5630    0.3413 C   0  0  0  0  0  0  0  0  0  0  0  0
   34.3906   25.2163    0.5661 C   0  0  0  0  0  0  0  0  0  0  0  0
   34.3986   24.0036   -0.3891 C   0  0  0  0  0  0  0  0  0  0  0  0
   29.7447   31.1352   -6.1199 C   0  0  0  0  0  0  0  0  0  0  0  0
   32.7446   30.2058   -8.8674 C   0  0  0  0  0  0  0  0  0  0  0  0
   31.3418   29.8390   -5.0534 C   0  0  0  0  0  0  0  0  0  0  0  0
   33.0895   28.7062   -0.3679 C   0  0  0  0  0  0  0  0  0  0  0  0
   33.0106   31.2583    0.2070 C   0  0  0  0  0  0  0  0  0  0  0  0
   33.0976   27.1806   -3.6897 N   0  0  0  0  0  0  0  0  0  0  0  0
   29.0345   30.1712   -3.8185 C   0  0  0  0  0  0  0  0  0  0  0  0
   33.6917   31.5642   -1.1384 C   0  0  0  0  0  0  0  0  0  0  0  0
   29.3566   31.2038   -2.7079 C   0  0  0  0  0  0  0  0  0  0  0  0
   33.6240   22.8952    0.4164 C   0  0  0  0  0  0  0  0  0  0  0  0
   31.8231   30.1744   -6.4238 C   0  0  0  0  0  0  0  0  0  0  0  0
   32.1016   29.3478   -2.6227 N   0  0  0  0  0  0  0  0  0  0  0  0
   32.8858   29.8374   -7.4472 C   0  0  0  0  0  0  0  0  0  0  0  0
   33.8371   26.3739   -0.2825 C   0  0  0  0  0  0  0  0  0  0  0  0
   34.0121   20.7158    1.5921 C   0  0  0  0  0  0  0  0  0  0  0  0
  1  5  1  0
  1 16  1  0
  2 28  1  0
  2 33  1  0
  3  5  2  0
  3 22  1  0
  3 23  1  0
  4  9  1  0
  4 11  1  0
  4 20  1  0
  5 13  1  0
  6  7  1  0
  6 21  1  0
  6 30  2  0
  7 24  1  0
  8 10  1  0
  8 14  2  0
  8 24  1  0
  9 15  1  0
 10 22  2  0
 10 30  1  0
 12 19  1  0
 12 21  2  0
 12 25  1  0
 14 32  1  0
 15 19  1  0
 15 29  1  0
 16 22  1  0
 16 32  2  0
 17 18  1  0
 17 32  1  0
 18 28  1  0
 20 31  1  0
 21 29  1  0
 23 26  1  0
 25 27  1  0
 29 31  2  0
M  END
>  <ID>  (1) 
conformer_0

$$$$
