
     RDKit          3D

 46 50  0  0  0  0  0  0  0  0999 V2000
   33.1548   24.8586    0.1898 O   0  0  0  0  0  0  0  0  0  0  0  0
   33.6050   19.8088    2.3767 O   0  0  0  0  0  0  0  0  0  0  0  0
   33.2327   29.6403   -8.5498 C   0  0  0  0  0  0  0  0  0  0  0  0
   32.3440   30.9282   -2.3490 C   0  0  0  0  0  0  0  0  0  0  0  0
   33.5929   27.3840    0.3725 O   0  0  0  0  0  0  0  0  0  0  0  0
   32.7483   30.3114   -9.6440 C   0  0  0  0  0  0  0  0  0  0  0  0
   31.7461   25.1771   -4.3830 F   0  0  0  0  0  0  0  0  0  0  0  0
   32.2651   25.7167   -3.2463 C   0  0  0  0  0  0  0  0  0  0  0  0
   33.6668   30.6348   -2.9655 C   0  0  0  0  0  0  0  0  0  0  0  0
   29.8247   31.0337   -2.8908 C   0  0  0  0  0  0  0  0  0  0  0  0
   31.2400   31.3753   -3.1371 C   0  0  0  0  0  0  0  0  0  0  0  0
   33.4966   29.1256    2.0709 C   0  0  0  0  0  0  0  0  0  0  0  0
   29.4892   29.7704   -3.6116 O   0  0  0  0  0  0  0  0  0  0  0  0
   30.5759   31.3085   -9.0778 C   0  0  0  0  0  0  0  0  0  0  0  0
   33.1922   26.9373   -0.9127 C   0  0  0  0  0  0  0  0  0  0  0  0
   32.6446   33.1651   -3.8600 O   0  0  0  0  0  0  0  0  0  0  0  0
   30.5030   30.8613   -7.7206 C   0  0  0  0  0  0  0  0  0  0  0  0
   35.4077   20.7592    3.1806 O   0  0  0  0  0  0  0  0  0  0  0  0
   33.8410   29.9784   -4.0446 O   0  0  0  0  0  0  0  0  0  0  0  0
   33.0579   29.6062   -0.1319 C   0  0  0  0  0  0  0  0  0  0  0  0
   30.8520   32.3929   -5.3216 C   0  0  0  0  0  0  0  0  0  0  0  0
   32.2271   27.7779   -4.4123 F   0  0  0  0  0  0  0  0  0  0  0  0
   31.4476   32.5343   -3.9813 C   0  0  0  0  0  0  0  0  0  0  0  0
   34.4734   21.7091    1.2798 C   0  0  0  0  0  0  0  0  0  0  0  0
   35.0765   23.3796   -0.3050 C   0  0  0  0  0  0  0  0  0  0  0  0
   33.4196   28.7173    0.7611 C   0  0  0  0  0  0  0  0  0  0  0  0
   31.3749   30.0760   -7.0446 C   0  0  0  0  0  0  0  0  0  0  0  0
   33.7723   23.6484    0.2143 C   0  0  0  0  0  0  0  0  0  0  0  0
   31.2380   33.4674   -6.1157 O   0  0  0  0  0  0  0  0  0  0  0  0
   32.6848   30.8836    0.0878 C   0  0  0  0  0  0  0  0  0  0  0  0
   34.5322   20.6518    2.3020 C   0  0  0  0  0  0  0  0  0  0  0  0
   34.7366   30.9398   -2.3511 O   0  0  0  0  0  0  0  0  0  0  0  0
   33.1186   30.4364    2.3710 N   0  0  0  0  0  0  0  0  0  0  0  0
   33.3723   22.6428    1.1120 C   0  0  0  0  0  0  0  0  0  0  0  0
   32.6891   31.2931    1.4157 C   0  0  0  0  0  0  0  0  0  0  0  0
   28.9366   31.4604   -4.0955 C   0  0  0  0  0  0  0  0  0  0  0  0
   29.2431   31.3544   -6.9337 C   0  0  0  0  0  0  0  0  0  0  0  0
   29.7405   31.4053   -5.3810 C   0  0  0  0  0  0  0  0  0  0  0  0
   32.4848   24.9079   -2.1423 C   0  0  0  0  0  0  0  0  0  0  0  0
   32.9548   27.6356   -2.0570 C   0  0  0  0  0  0  0  0  0  0  0  0
   32.4987   27.1142   -3.1780 C   0  0  0  0  0  0  0  0  0  0  0  0
   32.9637   25.5298   -0.9930 C   0  0  0  0  0  0  0  0  0  0  0  0
   31.6102   30.9895   -9.9070 C   0  0  0  0  0  0  0  0  0  0  0  0
   32.2861   31.6845   -1.0811 C   0  0  0  0  0  0  0  0  0  0  0  0
   35.5268   22.0963    0.4578 C   0  0  0  0  0  0  0  0  0  0  0  0
   32.5826   29.5669   -7.3152 C   0  0  0  0  0  0  0  0  0  0  0  0
  1 28  1  0
  1 42  1  0
  2 31  2  0
  3  6  1  0
  3 46  1  0
  4  9  1  0
  4 11  1  0
  4 44  1  0
  5 15  1  0
  5 26  1  0
  6 43  2  0
  7  8  1  0
  8 39  2  0
  8 41  1  0
  9 19  2  0
  9 32  1  0
 10 11  1  0
 10 13  1  0
 10 36  1  0
 11 23  1  0
 12 26  2  0
 12 33  1  0
 14 17  2  0
 14 43  1  0
 15 40  1  0
 15 42  2  0
 16 23  1  0
 17 27  1  0
 17 37  1  0
 18 31  1  0
 20 26  1  0
 20 30  2  0
 21 23  1  0
 21 29  1  0
 21 38  1  0
 22 41  1  0
 24 31  1  0
 24 34  1  0
 24 45  1  0
 25 28  1  0
 25 45  1  0
 27 46  2  0
 28 34  1  0
 30 35  1  0
 30 44  1  0
 33 35  2  0
 36 38  1  0
 37 38  1  0
 39 42  1  0
 40 41  2  0
M  END
>  <ID>  (1) 
conformer_0

$$$$
