
     RDKit          3D

 43 49  0  0  0  0  0  0  0  0999 V2000
   31.1401   30.9400   -2.9513 C   0  0  0  0  0  0  0  0  0  0  0  0
   34.9271   21.0173    1.7216 C   0  0  0  0  0  0  0  0  0  0  0  0
   31.8433   26.6691   -1.7640 C   0  0  0  0  0  0  0  0  0  0  0  0
   31.9802   32.6830   -4.8148 C   0  0  0  0  0  0  0  0  0  0  0  0
   33.3130   23.9963   -0.1188 O   0  0  0  0  0  0  0  0  0  0  0  0
   29.1140   32.0326   -5.7974 C   0  0  0  0  0  0  0  0  0  0  0  0
   31.5472   29.3373   -7.0645 C   0  0  0  0  0  0  0  0  0  0  0  0
   30.4262   29.6659   -3.3935 C   0  0  0  0  0  0  0  0  0  0  0  0
   31.2708   32.2593   -7.2214 C   0  0  0  0  0  0  0  0  0  0  0  0
   35.6724   22.7939   -0.2553 C   0  0  0  0  0  0  0  0  0  0  0  0
   30.2057   31.2845   -6.6372 C   0  0  0  0  0  0  0  0  0  0  0  0
   31.5494   33.4226   -6.2370 C   0  0  0  0  0  0  0  0  0  0  0  0
   30.8850   32.0346   -3.9298 C   0  0  0  0  0  0  0  0  0  0  0  0
   32.4804   31.6629   -7.7114 C   0  0  0  0  0  0  0  0  0  0  0  0
   33.7094   25.2567   -0.5372 C   0  0  0  0  0  0  0  0  0  0  0  0
   29.5129   30.7192   -7.8797 O   0  0  0  0  0  0  0  0  0  0  0  0
   33.7882   30.6207   -0.2805 O   0  0  0  0  0  0  0  0  0  0  0  0
   33.3527   29.5594   -8.7696 O   0  0  0  0  0  0  0  0  0  0  0  0
   32.6284   30.1813   -7.7932 C   0  0  0  0  0  0  0  0  0  0  0  0
   29.5158   32.5133   -4.3829 C   0  0  0  0  0  0  0  0  0  0  0  0
   33.1769   29.1715   -0.1896 C   0  0  0  0  0  0  0  0  0  0  0  0
   32.1711   25.9538   -3.0576 C   0  0  0  0  0  0  0  0  0  0  0  0
   32.7964   26.4331   -0.6748 C   0  0  0  0  0  0  0  0  0  0  0  0
   30.7864   28.1900   -3.3394 C   0  0  0  0  0  0  0  0  0  0  0  0
   33.7290   29.0768    1.4781 C   0  0  0  0  0  0  0  0  0  0  0  0
   34.2062   22.8953    0.0950 C   0  0  0  0  0  0  0  0  0  0  0  0
   34.9967   25.4882   -0.6310 O   0  0  0  0  0  0  0  0  0  0  0  0
   32.4794   31.5356    1.3947 C   0  0  0  0  0  0  0  0  0  0  0  0
   34.0996   27.5217    1.0770 O   0  0  0  0  0  0  0  0  0  0  0  0
   32.3955   31.4432   -0.2410 C   0  0  0  0  0  0  0  0  0  0  0  0
   31.4382   28.0779   -1.8712 N   0  0  0  0  0  0  0  0  0  0  0  0
   33.0369   30.3015    2.1028 C   0  0  0  0  0  0  0  0  0  0  0  0
   31.6725   30.7188   -1.4979 C   0  0  0  0  0  0  0  0  0  0  0  0
   30.4097   30.9316   -9.0643 C   0  0  0  0  0  0  0  0  0  0  0  0
   33.8192   21.6532    0.7775 C   0  0  0  0  0  0  0  0  0  0  0  0
   33.3418   29.2881   -2.6088 O   0  0  0  0  0  0  0  0  0  0  0  0
   32.3064   29.2727   -1.5473 C   0  0  0  0  0  0  0  0  0  0  0  0
   31.3853   32.0987   -8.6584 C   0  0  0  0  0  0  0  0  0  0  0  0
   33.3635   27.6439   -0.1973 O   0  0  0  0  0  0  0  0  0  0  0  0
   34.2067   19.9780    2.4639 O   0  0  0  0  0  0  0  0  0  0  0  0
   32.0764   28.0283   -6.7783 F   0  0  0  0  0  0  0  0  0  0  0  0
   30.9592   30.1432   -5.9799 C   0  0  0  0  0  0  0  0  0  0  0  0
   29.0725   29.8192   -3.7171 O   0  0  0  0  0  0  0  0  0  0  0  0
  1  8  1  0
  1 13  1  0
  1 33  1  0
  2 35  1  0
  2 40  1  0
  3 22  1  0
  3 23  1  0
  3 31  1  0
  4 12  1  0
  4 13  1  0
  5 15  1  0
  5 26  1  0
  6 11  1  0
  6 20  1  0
  7 19  1  0
  7 41  1  0
  7 42  1  0
  8 24  1  0
  8 43  1  0
  9 11  1  0
  9 12  1  0
  9 14  1  0
  9 38  1  0
 10 26  1  0
 11 16  1  0
 11 42  1  0
 13 20  1  0
 14 19  1  0
 15 23  1  0
 15 27  2  0
 16 34  1  0
 17 21  1  0
 17 30  1  0
 18 19  1  0
 21 25  1  0
 21 37  1  0
 21 39  1  0
 23 39  1  0
 24 31  1  0
 25 29  1  0
 25 32  1  0
 26 35  1  0
 28 30  1  0
 28 32  2  0
 30 33  1  0
 31 37  1  0
 33 37  1  0
 34 38  1  0
 36 37  1  0
M  END
>  <ID>  (1) 
conformer_0

$$$$
