
     RDKit          3D

 37 41  0  0  0  0  0  0  0  0999 V2000
   32.1458   29.8141   -7.6127 C   0  0  0  0  0  0  0  0  0  0  0  0
   33.5748   25.9605   -0.7821 C   0  0  0  0  0  0  0  0  0  0  0  0
   36.2159   22.8853   -0.9210 O   0  0  0  0  0  0  0  0  0  0  0  0
   32.7997   28.8382   -0.8831 C   0  0  0  0  0  0  0  0  0  0  0  0
   28.8461   31.1787   -6.7112 O   0  0  0  0  0  0  0  0  0  0  0  0
   34.7681   20.1570    2.5367 C   0  0  0  0  0  0  0  0  0  0  0  0
   31.3425   30.0268   -2.8280 C   0  0  0  0  0  0  0  0  0  0  0  0
   33.6329   26.8997    0.2454 C   0  0  0  0  0  0  0  0  0  0  0  0
   34.2648   22.4924    0.5060 C   0  0  0  0  0  0  0  0  0  0  0  0
   33.4985   20.7769    2.1943 C   0  0  0  0  0  0  0  0  0  0  0  0
   32.5961   25.7239   -1.8392 C   0  0  0  0  0  0  0  0  0  0  0  0
   33.1201   30.4957    0.6548 C   0  0  0  0  0  0  0  0  0  0  0  0
   31.9627   31.3946   -2.6903 C   0  0  0  0  0  0  0  0  0  0  0  0
   30.7012   30.5121   -5.4838 O   0  0  0  0  0  0  0  0  0  0  0  0
   29.1132   30.4358   -2.1669 O   0  0  0  0  0  0  0  0  0  0  0  0
   32.3930   29.0633   -3.2236 C   0  0  0  0  0  0  0  0  0  0  0  0
   29.9450   31.0995   -4.3506 C   0  0  0  0  0  0  0  0  0  0  0  0
   32.6967   28.1213   -2.1234 C   0  0  0  0  0  0  0  0  0  0  0  0
   33.2275   29.9027   -8.6867 C   0  0  0  0  0  0  0  0  0  0  0  0
   32.6623   30.7038   -9.8721 C   0  0  0  0  0  0  0  0  0  0  0  0
   33.3252   28.2390    0.2829 C   0  0  0  0  0  0  0  0  0  0  0  0
   32.5425   26.8333   -2.7648 C   0  0  0  0  0  0  0  0  0  0  0  0
   33.1299   28.9444   -4.2693 O   0  0  0  0  0  0  0  0  0  0  0  0
   33.5800   23.5917   -0.1088 C   0  0  0  0  0  0  0  0  0  0  0  0
   32.8192   30.2690   -0.7029 C   0  0  0  0  0  0  0  0  0  0  0  0
   33.3998   29.2273    1.2442 N   0  0  0  0  0  0  0  0  0  0  0  0
   32.2494   32.1173   -9.3965 C   0  0  0  0  0  0  0  0  0  0  0  0
   33.2468   31.1402   -1.8323 C   0  0  0  0  0  0  0  0  0  0  0  0
   36.2051   20.9497    0.5191 C   0  0  0  0  0  0  0  0  0  0  0  0
   35.6018   22.2282    0.0199 C   0  0  0  0  0  0  0  0  0  0  0  0
   35.7537   20.2536    1.5905 N   0  0  0  0  0  0  0  0  0  0  0  0
   31.2873   32.1137   -8.2091 C   0  0  0  0  0  0  0  0  0  0  0  0
   33.4403   21.3780    0.9103 C   0  0  0  0  0  0  0  0  0  0  0  0
   30.8630   30.6281   -7.9382 C   0  0  0  0  0  0  0  0  0  0  0  0
   29.8891   29.9573   -3.2858 C   0  0  0  0  0  0  0  0  0  0  0  0
   29.9884   30.6821   -6.6883 C   0  0  0  0  0  0  0  0  0  0  0  0
   34.3611   24.7451   -0.5066 C   0  0  0  0  0  0  0  0  0  0  0  0
  1 19  1  0
  1 34  1  0
  2  8  1  0
  2 11  1  0
  2 37  1  0
  3 30  1  0
  4 18  1  0
  4 21  1  0
  4 25  1  0
  5 36  2  0
  6 10  2  0
  6 31  1  0
  7 13  1  0
  7 16  1  0
  7 35  1  0
  8 21  2  0
  9 24  1  0
  9 30  1  0
  9 33  1  0
 10 33  1  0
 11 22  1  0
 12 25  1  0
 12 26  1  0
 13 28  1  0
 14 17  1  0
 14 36  1  0
 15 35  1  0
 16 18  1  0
 16 23  2  0
 17 35  1  0
 18 22  1  0
 19 20  1  0
 20 27  1  0
 21 26  1  0
 24 37  1  0
 25 28  1  0
 27 32  1  0
 29 30  1  0
 29 31  2  0
 32 34  1  0
 34 36  1  0
M  END
>  <ID>  (1) 
conformer_0

$$$$
