
     RDKit          3D

 30 32  0  0  0  0  0  0  0  0999 V2000
   31.1207   30.6709   -6.0398 C   0  0  0  0  0  0  0  0  0  0  0  0
   33.3823   26.7801   -0.1836 C   0  0  0  0  0  0  0  0  0  0  0  0
   29.6771   30.9240   -6.2753 C   0  0  0  0  0  0  0  0  0  0  0  0
   29.3509   31.1907   -7.7035 C   0  0  0  0  0  0  0  0  0  0  0  0
   34.4460   29.6680   -3.7590 O   0  0  0  0  0  0  0  0  0  0  0  0
   34.5392   20.6864    2.0421 C   0  0  0  0  0  3  0  0  0  0  0  0
   32.7119   24.6924   -1.5370 C   0  0  0  0  0  0  0  0  0  0  0  0
   33.4248   28.6963    1.2410 C   0  0  0  0  0  0  0  0  0  0  0  0
   34.4604   23.8537   -0.1663 C   0  0  0  0  0  0  0  0  0  0  0  0
   30.9576   31.2306   -3.6117 C   0  0  0  0  0  0  0  0  0  0  0  0
   31.8544   30.9439   -8.3421 C   0  0  0  0  0  0  0  0  0  0  0  0
   32.7662   31.0508    1.1420 C   0  0  0  0  0  0  0  0  0  0  0  0
   33.0070   26.1716   -1.3682 C   0  0  0  0  0  0  0  0  0  0  0  0
   34.6998   22.3969    0.1384 C   0  0  0  0  0  0  0  0  0  0  0  0
   32.9602   24.0262   -0.2523 O   0  0  0  0  0  0  0  0  0  0  0  0
   32.3783   29.2788   -4.5286 N   0  0  0  0  0  0  0  0  0  0  0  0
   32.7246   30.2797   -1.0912 C   0  0  0  0  0  0  0  0  0  0  0  0
   33.0234   28.9455   -1.1603 C   0  0  0  0  0  0  0  0  0  0  0  0
   29.5737   30.5837   -3.1981 C   0  0  0  0  0  0  0  0  0  0  0  0
   31.6519   30.4441   -4.7178 C   0  0  0  0  0  0  0  0  0  0  0  0
   32.0341   31.3975   -6.9596 C   0  0  0  0  0  0  0  0  0  0  0  0
   33.2911   28.1382   -0.0287 C   0  0  0  0  0  0  0  0  0  0  0  0
   32.5541   31.2359   -0.2060 C   0  0  0  0  0  0  0  0  0  0  0  0
   33.3517   29.0975   -3.6156 C   0  0  0  0  0  0  0  0  0  0  0  0
   33.1549   29.8762    1.7188 C   0  0  0  0  0  0  0  0  0  0  0  0
   32.1215   26.4760   -3.4849 F   0  0  0  0  0  0  0  0  0  0  0  0
   32.7427   26.9742   -2.4535 C   0  0  0  0  0  0  0  0  0  0  0  0
   33.0277   28.3250   -2.4365 C   0  0  0  0  0  0  0  0  0  0  0  0
   30.3879   30.7415   -8.6908 C   0  0  0  0  0  0  0  0  0  0  0  0
   33.8624   21.6356    1.0977 S   0  0  0  0  0  3  0  0  0  0  0  0
  1  3  1  0
  1 20  1  0
  1 21  1  0
  2 13  1  0
  2 22  1  0
  3  4  1  0
  4 29  1  0
  5 24  2  0
  6 30  2  0
  7 13  1  0
  7 15  1  0
  8 22  1  0
  8 25  2  0
  9 14  1  0
  9 15  1  0
 10 19  1  0
 10 20  1  0
 11 21  1  0
 11 29  1  0
 12 23  1  0
 12 25  1  0
 13 27  2  0
 14 30  1  0
 16 20  1  0
 16 24  1  0
 17 18  1  0
 17 23  2  0
 18 22  2  0
 18 28  1  0
 24 28  1  0
 26 27  1  0
 27 28  1  0
M  END
>  <ID>  (1) 
conformer_0

$$$$
