
     RDKit          3D

 34 37  0  0  0  0  0  0  0  0999 V2000
   31.3306   30.4080   -6.6268 C   0  0  0  0  0  0  0  0  0  0  0  0
   32.9737   30.0155   -8.3483 C   0  0  0  0  0  0  0  0  0  0  0  0
   32.5616   28.7284   -2.6533 C   0  0  0  0  0  0  0  0  0  0  0  0
   33.1763   29.4693    0.7408 C   0  0  0  0  0  0  0  0  0  0  0  0
   32.0688   30.4698   -9.2924 C   0  0  0  0  0  0  0  0  0  0  0  0
   32.6982   27.4343   -2.0900 N   0  0  0  0  0  0  0  0  0  0  0  0
   33.0726   28.8930   -0.4373 C   0  0  0  0  0  0  0  0  0  0  0  0
   33.5941   26.5000   -0.0357 F   0  0  0  0  0  0  0  0  0  0  0  0
   32.9998   30.8031    0.8133 C   0  0  0  0  0  0  0  0  0  0  0  0
   31.1290   32.6575   -4.7053 C   0  0  0  0  0  0  0  0  0  0  0  0
   35.6386   22.9615   -0.4294 C   0  0  0  0  0  0  0  0  0  0  0  0
   32.6196   25.1953   -1.8674 C   0  0  0  0  0  0  0  0  0  0  0  0
   32.6099   30.0174   -7.0097 C   0  0  0  0  0  0  0  0  0  0  0  0
   30.4400   30.8553   -7.5819 C   0  0  0  0  0  0  0  0  0  0  0  0
   34.2084   19.9527    2.3390 O   0  0  0  0  0  0  0  0  0  0  0  0
   32.3431   31.7929   -4.2297 C   0  0  0  0  0  0  0  0  0  0  0  0
   33.1051   31.3523    2.1807 Cl  0  0  0  0  0  0  0  0  0  0  0  0
   32.3035   26.2843   -2.5784 N   0  0  0  0  0  0  0  0  0  0  0  0
   31.8959   30.3307   -4.1976 N   0  0  0  0  0  0  0  0  0  0  0  0
   32.7572   31.5743   -0.2458 C   0  0  0  0  0  0  0  0  0  0  0  0
   32.5103   28.1813   -4.8119 O   0  0  0  0  0  0  0  0  0  0  0  0
   29.2208   31.1641   -3.6206 C   0  0  0  0  0  0  0  0  0  0  0  0
   32.6592   31.0094   -1.4745 C   0  0  0  0  0  0  0  0  0  0  0  0
   32.7501   29.6637   -1.5910 C   0  0  0  0  0  0  0  0  0  0  0  0
   34.1353   22.9374    0.0151 C   0  0  0  0  0  0  0  0  0  0  0  0
   34.8044   21.0721    1.6414 C   0  0  0  0  0  0  0  0  0  0  0  0
   33.2907   25.2297   -0.5928 C   0  0  0  0  0  0  0  0  0  0  0  0
   29.9455   31.6517   -4.9438 C   0  0  0  0  0  0  0  0  0  0  0  0
   30.7669   30.2824   -5.1977 C   0  0  0  0  0  0  0  0  0  0  0  0
   30.8022   30.8702   -8.9234 C   0  0  0  0  0  0  0  0  0  0  0  0
   33.1716   27.5463   -0.7706 C   0  0  0  0  0  0  0  0  0  0  0  0
   33.5530   24.1360    0.1977 N   0  0  0  0  0  0  0  0  0  0  0  0
   33.7757   21.6756    0.6395 C   0  0  0  0  0  0  0  0  0  0  0  0
   32.3521   28.9965   -3.9840 C   0  0  0  0  0  0  0  0  0  0  0  0
  1 13  2  0
  1 14  1  0
  1 29  1  0
  2  5  2  0
  2 13  1  0
  3  6  1  0
  3 24  1  0
  3 34  1  0
  4  7  2  0
  4  9  1  0
  5 30  1  0
  6 18  1  0
  6 31  1  0
  7 24  1  0
  7 31  1  0
  8 31  1  0
  9 17  1  0
  9 20  2  0
 10 16  1  0
 10 28  1  0
 11 25  1  0
 12 18  2  3
 12 27  1  0
 14 30  2  0
 15 26  1  0
 16 19  1  0
 19 29  1  0
 19 34  1  0
 20 23  1  0
 21 34  2  0
 22 28  1  0
 23 24  2  0
 25 32  1  0
 25 33  1  0
 26 33  1  0
 27 32  1  0
 28 29  1  0
M  END
>  <ID>  (1) 
conformer_0

$$$$
