
     RDKit          3D

 24 25  0  0  0  0  0  0  0  0999 V2000
   29.6282   31.2370   -6.4055 C   0  0  0  0  0  0  0  0  0  0  0  0
   32.7753   26.4315   -0.7177 C   0  0  0  0  0  0  0  0  0  0  0  0
   33.8469   22.9075    0.0982 C   0  0  0  0  0  0  0  0  0  0  0  0
   32.2602   28.6873   -1.9533 C   0  0  0  0  0  0  0  0  0  0  0  0
   30.4127   30.8163   -7.6795 C   0  0  0  0  0  0  0  0  0  0  0  0
   32.3607   26.4378   -3.1545 C   0  0  0  0  0  0  0  0  0  0  0  0
   33.4074   30.7773   -0.9417 C   0  0  0  0  0  0  0  0  0  0  0  0
   30.4098   30.7713   -5.1090 C   0  0  0  0  0  0  0  0  0  0  0  0
   32.8381   24.0309    0.0495 C   0  0  0  0  0  0  0  0  0  0  0  0
   30.2908   30.2926   -3.5782 C   0  0  0  0  0  0  0  0  0  0  0  0
   32.7473   30.6611    1.5279 C   0  0  0  0  0  0  0  0  0  0  0  0
   32.7068   30.7751   -3.4389 C   0  0  0  0  0  0  0  0  0  0  0  0
   34.8948   23.0949   -0.7062 O   0  0  0  0  0  0  0  0  0  0  0  0
   33.5894   21.6174    0.7210 C   0  0  0  0  0  0  0  0  0  0  0  0
   31.6757   30.1199   -5.6802 C   0  0  0  0  0  0  0  0  0  0  0  0
   30.5125   31.0973   -8.9785 O   0  0  0  0  0  0  0  0  0  0  0  0
   32.3535   27.2006   -1.8911 C   0  0  0  0  0  0  0  0  0  0  0  0
   31.6061   29.9080   -2.7143 C   0  0  0  0  0  0  0  0  0  0  0  0
   31.6418   29.9895   -7.1542 C   0  0  0  0  0  0  0  0  0  0  0  0
   33.0843   25.0210   -1.0293 C   0  0  0  0  0  0  0  0  0  0  0  0
   33.3736   29.3212   -1.1809 O   0  0  0  0  0  0  0  0  0  0  0  0
   32.6503   31.2997    0.1922 C   0  0  0  0  0  0  0  0  0  0  0  0
   32.9098   30.1680   -4.8531 C   0  0  0  0  0  0  0  0  0  0  0  0
   33.3856   29.4139    1.6127 O   0  0  0  0  0  0  0  0  0  0  0  0
  1  5  1  0
  1  8  1  0
  2 17  1  0
  2 20  1  0
  3  9  1  0
  3 13  1  0
  3 14  1  0
  4 17  1  0
  4 18  1  0
  4 21  1  0
  5 16  1  0
  5 19  1  0
  6 17  1  0
  7 21  1  0
  7 22  1  0
  8 10  1  0
  8 15  1  0
  9 20  1  0
 10 18  1  0
 11 22  2  3
 11 24  1  0
 12 18  1  0
 12 23  1  0
 15 19  1  0
 15 23  1  0
M  END
>  <ID>  (1) 
conformer_0

$$$$
