
     RDKit          3D

 34 36  0  0  0  0  0  0  0  0999 V2000
   35.0742   24.0404    0.6713 C   0  0  0  0  0  0  0  0  0  0  0  0
   33.0632   25.0065   -0.8776 C   0  0  0  0  0  0  0  0  0  0  0  0
   34.1435   21.6596    2.2625 O   0  0  0  0  0  0  0  0  0  0  0  0
   32.9243   28.8782   -0.2327 C   0  0  0  0  0  0  0  0  0  0  0  0
   32.9648   23.7368   -0.3724 C   0  0  0  0  0  0  0  0  0  0  0  0
   32.3321   30.7609   -8.1191 C   0  0  0  0  0  0  0  0  0  0  0  0
   29.9977   30.3772   -3.3503 C   0  0  0  0  0  0  0  0  0  0  0  0
   32.0030   30.3344   -6.9753 N   0  0  0  0  0  0  0  0  0  0  0  0
   34.2263   25.7716   -0.7208 C   0  0  0  0  0  0  0  0  0  0  0  0
   33.9041   21.8773    0.9691 C   0  0  0  0  0  0  0  0  0  0  0  0
   33.2374   29.3619   -4.7813 N   0  0  0  0  0  0  0  0  0  0  0  0
   31.3314   30.2946   -5.8518 C   0  0  0  0  0  0  0  0  0  0  0  0
   30.0077   30.8023   -5.7256 C   0  0  0  0  0  0  0  0  0  0  0  0
   33.9768   23.2540    0.4483 C   0  0  0  0  0  0  0  0  0  0  0  0
   33.6133   20.9594    0.1636 O   0  0  0  0  0  0  0  0  0  0  0  0
   34.2588   20.1992    2.5937 C   0  0  0  0  0  0  0  0  0  0  0  0
   35.2463   25.2631    0.0250 C   0  0  0  0  0  0  0  0  0  0  0  0
   32.2164   27.7748   -2.4154 N   0  0  0  0  0  0  0  0  0  0  0  0
   31.4488   31.5259   -9.0983 C   0  0  0  0  0  0  0  0  0  0  0  0
   29.3580   30.8774   -4.4997 C   0  0  0  0  0  0  0  0  0  0  0  0
   34.2224   28.9531   -3.9462 F   0  0  0  0  0  0  0  0  0  0  0  0
   31.9834   26.9809   -3.5565 C   0  0  0  0  0  0  0  0  0  0  0  0
   33.2753   29.3052    1.0161 C   0  0  0  0  0  0  0  0  0  0  0  0
   31.9367   25.5089   -1.6120 O   0  0  0  0  0  0  0  0  0  0  0  0
   33.0189   30.6005    1.3813 C   0  0  0  0  0  0  0  0  0  0  0  0
   31.9173   29.7838   -4.7253 C   0  0  0  0  0  0  0  0  0  0  0  0
   31.2373   29.7871   -3.4988 C   0  0  0  0  0  0  0  0  0  0  0  0
   32.0270   25.5708   -3.0475 C   0  0  0  0  0  0  0  0  0  0  0  0
   29.3703   31.2257   -6.8416 O   0  0  0  0  0  0  0  0  0  0  0  0
   33.4657   29.9442   -8.8927 C   0  0  0  0  0  0  0  0  0  0  0  0
   31.8258   29.1332   -2.3419 C   0  0  0  0  0  0  0  0  0  0  0  0
   32.0674   31.0703   -0.7788 C   0  0  0  0  0  0  0  0  0  0  0  0
   32.2534   29.7345   -1.0834 C   0  0  0  0  0  0  0  0  0  0  0  0
   32.4303   31.4924    0.4929 C   0  0  0  0  0  0  0  0  0  0  0  0
  1 14  2  0
  1 17  1  0
  2  5  2  0
  2  9  1  0
  2 24  1  0
  3 10  1  0
  3 16  1  0
  4 23  2  0
  4 33  1  0
  5 14  1  0
  6  8  1  0
  6 19  1  0
  6 30  1  0
  7 20  2  0
  7 27  1  0
  8 12  1  0
  9 17  2  0
 10 14  1  0
 10 15  2  0
 11 21  1  0
 11 26  1  0
 12 13  2  0
 12 26  1  0
 13 20  1  0
 13 29  1  0
 18 22  1  0
 18 31  2  3
 22 28  1  0
 23 25  1  0
 24 28  1  0
 25 34  2  0
 26 27  2  0
 27 31  1  0
 31 33  1  0
 32 33  2  0
 32 34  1  0
M  END
>  <ID>  (1) 
conformer_0

$$$$
