
     RDKit          3D

 28 31  0  0  0  0  0  0  0  0999 V2000
   31.5553   30.8271   -7.8522 C   0  0  0  0  0  0  0  0  0  0  0  0
   31.6561   31.3682   -1.4318 C   0  0  0  0  0  0  0  0  0  0  0  0
   31.7571   30.6539   -2.8280 C   0  0  0  0  0  0  0  0  0  0  0  0
   33.4333   21.4594    0.4044 O   0  0  0  0  0  0  0  0  0  0  0  0
   32.5302   31.0962   -0.3568 C   0  0  0  0  0  0  0  0  0  0  0  0
   33.8286   22.7963    0.3564 C   0  0  0  0  0  0  0  0  0  0  0  0
   34.9497   23.2515    1.0441 C   0  0  0  0  0  0  0  0  0  0  0  0
   32.2857   31.2997   -4.1666 C   0  0  0  0  0  0  0  0  0  0  0  0
   34.7212   25.3618    0.4189 C   0  0  0  0  0  0  0  0  0  0  0  0
   32.5942   29.7463   -7.8877 C   0  0  0  0  0  0  0  0  0  0  0  0
   32.9848   29.7741   -0.0736 C   0  0  0  0  0  0  0  0  0  0  0  0
   30.1641   30.7118   -3.2735 C   0  0  0  0  0  0  0  0  0  0  0  0
   33.9963   20.6888    1.4796 C   0  0  0  0  0  0  0  0  0  0  0  0
   30.1257   30.4178   -4.7867 C   0  0  0  0  0  0  0  0  0  0  0  0
   33.5296   28.9449    0.9180 C   0  0  0  0  0  0  0  0  0  0  0  0
   33.1341   23.7536   -0.4325 C   0  0  0  0  0  0  0  0  0  0  0  0
   34.0049   29.5053   -3.3857 C   0  0  0  0  0  0  0  0  0  0  0  0
   33.0621   26.1872   -1.2879 C   0  0  0  0  0  0  0  0  0  0  0  0
   33.3356   27.5841   -0.8471 C   0  0  0  0  0  0  0  0  0  0  0  0
   32.9349   28.9325   -1.2266 C   0  0  0  0  0  0  0  0  0  0  0  0
   33.5528   29.8662   -8.9935 C   0  0  0  0  0  0  0  0  0  0  0  0
   35.4412   24.5181    1.0553 C   0  0  0  0  0  0  0  0  0  0  0  0
   33.7665   27.7167    0.4675 N   0  0  0  0  0  0  0  0  0  0  0  0
   32.8434   29.5976   -2.4922 C   0  0  0  0  0  0  0  0  0  0  0  0
   30.2985   30.7529   -8.4089 O   0  0  0  0  0  0  0  0  0  0  0  0
   31.5734   31.6198   -6.5904 C   0  0  0  0  0  0  0  0  0  0  0  0
   31.5203   30.7227   -5.3821 C   0  0  0  0  0  0  0  0  0  0  0  0
   33.6377   25.0871   -0.3990 C   0  0  0  0  0  0  0  0  0  0  0  0
  1 10  1  0
  1 25  1  0
  1 26  1  0
  2  3  1  0
  2  5  1  0
  3  8  1  0
  3 12  1  0
  3 24  1  0
  4  6  1  0
  4 13  1  0
  5 11  1  0
  6  7  2  0
  6 16  1  0
  7 22  1  0
  8 27  1  0
  9 22  1  0
  9 28  2  0
 10 21  1  0
 11 15  1  0
 11 20  1  0
 12 14  1  0
 14 27  1  0
 15 23  1  0
 16 28  1  0
 17 24  1  0
 18 19  1  0
 18 28  1  0
 19 20  1  0
 19 23  1  0
 20 24  1  0
 26 27  1  0
M  END
>  <ID>  (1) 
conformer_0

$$$$
