
     RDKit          3D

 33 37  0  0  0  0  0  0  0  0999 V2000
   30.7685   30.8726   -9.3007 O   0  0  0  0  0  0  0  0  0  0  0  0
   30.6297   31.0377   -2.1375 C   0  0  0  0  0  0  0  0  0  0  0  0
   33.4103   29.5146    2.0643 C   0  0  0  0  0  0  0  0  0  0  0  0
   33.3263   29.3442   -0.6024 C   0  0  0  0  0  0  0  0  0  0  0  0
   33.1166   30.5710   -0.0766 C   0  0  0  0  0  0  0  0  0  0  0  0
   33.9119   25.7573    0.0470 C   0  0  0  0  0  0  0  0  0  0  0  0
   33.4738   24.5199   -0.3073 C   0  0  0  0  0  0  0  0  0  0  0  0
   32.5964   29.9404   -2.9755 C   0  0  0  0  0  0  0  0  0  0  0  0
   32.2276   30.6607   -9.0841 C   0  0  0  0  0  0  0  0  0  0  0  0
   33.5345   21.9508    0.3919 C   0  0  0  0  0  0  0  0  0  0  0  0
   29.0331   29.3298   -3.1068 C   0  0  0  0  0  0  0  0  0  0  0  0
   31.5017   29.4791   -3.8807 C   0  0  0  0  0  0  0  0  0  0  0  0
   32.8043   31.7162   -0.9654 C   0  0  0  0  0  0  0  0  0  0  0  0
   32.1136   29.8034   -5.3112 C   0  0  0  0  0  0  0  0  0  0  0  0
   33.8677   29.8239   -3.4290 O   0  0  0  0  0  0  0  0  0  0  0  0
   33.9166   32.3786   -1.5090 O   0  0  0  0  0  0  0  0  0  0  0  0
   35.4286   23.2428    0.3788 C   0  0  0  0  0  0  0  0  0  0  0  0
   33.4665   28.1944    0.0445 C   0  0  0  0  0  0  0  0  0  0  0  0
   33.9846   23.3176    0.2870 N   0  0  0  0  0  0  0  0  0  0  0  0
   32.0308   25.5118   -2.0053 C   0  0  0  0  0  0  0  0  0  0  0  0
   33.3411   26.8791   -0.5758 C   0  0  0  0  0  0  0  0  0  0  0  0
   32.4224   29.8083   -7.8417 C   0  0  0  0  0  0  0  0  0  0  0  0
   29.7599   30.5396   -5.8387 C   0  0  0  0  0  0  0  0  0  0  0  0
   33.1700   30.6694    1.2955 C   0  0  0  0  0  0  0  0  0  0  0  0
   32.4591   26.7274   -1.6671 C   0  0  0  0  0  0  0  0  0  0  0  0
   30.0307   31.1808   -8.1333 C   0  0  0  0  0  0  0  0  0  0  0  0
   30.7706   31.3088   -6.8017 C   0  0  0  0  0  0  0  0  0  0  0  0
   33.5931   28.3206    1.4405 C   0  0  0  0  0  0  0  0  0  0  0  0
   32.1230   30.6595   -6.6163 C   0  0  0  0  0  0  0  0  0  0  0  0
   32.1081   31.0384   -2.0971 C   0  0  0  0  0  0  0  0  0  0  0  0
   30.2635   30.2573   -3.4041 C   0  0  0  0  0  0  0  0  0  0  0  0
   29.8347   31.2651   -4.4771 C   0  0  0  0  0  0  0  0  0  0  0  0
   32.4970   24.3608   -1.3013 C   0  0  0  0  0  0  0  0  0  0  0  0
  1  9  1  0
  1 26  1  0
  2 30  1  0
  2 31  1  0
  3 24  2  0
  3 28  1  0
  4  5  2  0
  4 18  1  0
  5 13  1  0
  5 24  1  0
  6  7  2  0
  6 21  1  0
  7 19  1  0
  7 33  1  0
  8 12  1  0
  8 15  1  0
  8 30  1  0
  9 22  1  0
 10 19  1  0
 11 31  1  0
 12 14  1  0
 12 31  1  0
 13 16  1  0
 13 30  1  0
 14 29  1  0
 17 19  1  0
 18 21  1  0
 18 28  2  0
 20 25  2  0
 20 33  1  0
 21 25  1  0
 22 29  1  0
 23 27  1  0
 23 32  1  0
 26 27  1  0
 27 29  1  0
 31 32  1  0
M  END
>  <ID>  (1) 
conformer_0

$$$$
