
     RDKit          3D

 44 51  0  0  0  0  0  0  0  0999 V2000
   31.8370   25.9812   -3.8469 C   0  0  0  0  0  0  0  0  0  0  0  0
   29.3477   30.2438   -3.6854 C   0  0  0  0  0  0  0  0  0  0  0  0
   29.8233   31.0615   -4.9120 C   0  0  0  0  0  0  0  0  0  0  0  0
   32.9949   30.2767   -7.9402 C   0  0  0  0  0  0  0  0  0  0  0  0
   31.6950   25.0169   -4.7514 C   0  0  0  0  0  0  0  0  0  0  0  0
   33.9444   27.5815    0.7903 C   0  0  0  0  0  0  0  0  0  0  0  0
   32.1065   30.4916   -4.0256 C   0  0  0  0  0  0  0  0  0  0  0  0
   33.0845   23.0055    0.2081 C   0  0  0  0  0  0  0  0  0  0  0  0
   31.3140   23.7350   -5.0600 O   0  0  0  0  0  0  0  0  0  0  0  0
   32.5864   31.7501   -4.7525 C   0  0  0  0  0  0  0  0  0  0  0  0
   31.8591   29.7208   -2.4369 C   0  0  0  0  0  0  0  0  0  0  0  0
   30.3963   31.1056   -8.6488 C   0  0  0  0  0  0  0  0  0  0  0  0
   30.9167   24.0650   -7.4871 C   0  0  0  0  0  0  0  0  0  0  0  0
   33.9654   29.8629   -0.1824 C   0  0  0  0  0  0  0  0  0  0  0  0
   29.2328   22.8569   -6.1128 C   0  0  0  0  0  0  0  0  0  0  0  0
   32.8177   25.1095   -1.8559 C   0  0  0  0  0  0  0  0  0  0  0  0
   32.1114   31.0911   -2.5297 C   0  0  0  0  0  0  0  0  0  0  0  0
   33.0798   29.8468    2.0155 C   0  0  0  0  0  0  0  0  0  0  0  0
   30.7368   30.8450   -7.3208 C   0  0  0  0  0  0  0  0  0  0  0  0
   30.4341   23.6373   -6.1728 N   0  0  0  0  0  0  0  0  0  0  0  0
   33.3718   21.7758    0.7949 C   0  0  0  0  0  0  0  0  0  0  0  0
   31.9977   30.4518   -7.0420 C   0  0  0  0  0  0  0  0  0  0  0  0
   34.9510   20.1615    1.3070 O   0  0  0  0  0  0  0  0  0  0  0  0
   35.4022   23.3940   -0.2308 C   0  0  0  0  0  0  0  0  0  0  0  0
   29.5305   30.9928   -6.3562 C   0  0  0  0  0  0  0  0  0  0  0  0
   33.4517   27.4243   -0.6326 C   0  0  0  0  0  0  0  0  0  0  0  0
   33.7649   25.1217   -0.8092 C   0  0  0  0  0  0  0  0  0  0  0  0
   32.9389   30.9921   -0.1532 C   0  0  0  0  0  0  0  0  0  0  0  0
   34.0871   23.8276   -0.2781 C   0  0  0  0  0  0  0  0  0  0  0  0
   31.1468   31.7786   -4.5241 C   0  0  0  0  0  0  0  0  0  0  0  0
   32.6370   31.1426    1.3267 C   0  0  0  0  0  0  0  0  0  0  0  0
   35.7255   22.1464    0.3241 C   0  0  0  0  0  0  0  0  0  0  0  0
   34.0256   26.3450   -0.0514 C   0  0  0  0  0  0  0  0  0  0  0  0
   33.0795   29.2194   -4.4185 C   0  0  0  0  0  0  0  0  0  0  0  0
   32.9555   28.6415   -2.8373 C   0  0  0  0  0  0  0  0  0  0  0  0
   32.9350   31.7914   -1.4466 C   0  0  0  0  0  0  0  0  0  0  0  0
   29.6435   31.2558   -2.4816 C   0  0  0  0  0  0  0  0  0  0  0  0
   31.3996   30.9770   -9.5703 C   0  0  0  0  0  0  0  0  0  0  0  0
   32.6638   26.2211   -2.6689 C   0  0  0  0  0  0  0  0  0  0  0  0
   34.6914   21.3400    0.8421 C   0  0  0  0  0  0  0  0  0  0  0  0
   30.9265   32.0891   -2.9026 C   0  0  0  0  0  0  0  0  0  0  0  0
   32.6612   30.5638   -9.2240 C   0  0  0  0  0  0  0  0  0  0  0  0
   33.9192   29.0631    1.1101 C   0  0  0  0  0  0  0  0  0  0  0  0
   33.1351   27.4594   -2.0208 C   0  0  0  0  0  0  0  0  0  0  0  0
  1  5  1  0
  1 39  1  0
  2  3  1  0
  2 37  1  0
  3 25  1  0
  3 30  1  0
  4 22  1  0
  4 42  1  0
  5  9  1  0
  6 33  1  0
  6 43  1  0
  7 10  1  0
  7 17  1  0
  7 34  1  0
  8 21  1  0
  8 29  1  0
  9 20  1  0
 10 30  1  0
 11 17  1  0
 11 35  1  0
 12 19  1  0
 12 38  1  0
 13 20  1  0
 14 28  1  0
 14 43  1  0
 15 20  1  0
 16 27  1  0
 16 39  1  0
 17 36  1  0
 17 41  1  0
 18 31  1  0
 18 43  1  0
 19 22  2  0
 19 25  1  0
 21 40  2  0
 23 40  1  0
 24 29  2  0
 24 32  1  0
 26 33  1  0
 26 44  1  0
 27 29  1  0
 27 33  1  0
 28 31  1  0
 28 36  1  0
 30 41  1  0
 32 40  1  0
 34 35  1  0
 35 44  1  0
 37 41  1  0
 38 42  2  0
 39 44  1  0
M  END
>  <ID>  (1) 
conformer_0

$$$$
