
     RDKit          3D

 31 35  0  0  0  0  0  0  0  0999 V2000
   33.9040   26.2925   -0.2859 C   0  0  0  0  0  0  0  0  0  0  0  0
   31.0188   31.0332   -9.1179 C   0  0  0  0  0  0  0  0  0  0  0  0
   32.6804   30.0254   -7.6382 C   0  0  0  0  0  0  0  0  0  0  0  0
   33.2032   29.6830    1.1728 C   0  0  0  0  0  0  0  0  0  0  0  0
   32.6046   25.9917   -2.2492 C   0  0  0  0  0  0  0  0  0  0  0  0
   32.5817   31.3401    0.5027 C   0  0  0  0  0  0  0  0  0  0  0  0
   33.8729   27.5794   -0.3876 N   0  0  0  0  0  0  0  0  0  0  0  0
   32.6752   27.8576   -3.7908 C   0  0  0  0  0  0  0  0  0  0  0  0
   33.0262   24.0757   -0.7809 C   0  0  0  0  0  0  0  0  0  0  0  0
   33.2067   25.4695   -1.1088 C   0  0  0  0  0  0  0  0  0  0  0  0
   32.6034   30.8008    1.9020 C   0  0  0  0  0  0  0  0  0  0  0  0
   33.6681   21.9183    0.4730 C   0  0  0  0  0  0  0  0  0  0  0  0
   29.9029   31.3396   -2.4622 N   0  0  0  0  0  0  0  0  0  0  0  0
   33.8390   23.3152   -0.0113 C   0  0  0  0  0  0  0  0  0  0  0  0
   29.9565   30.9570   -5.5144 C   0  0  0  0  0  0  0  0  0  0  0  0
   32.5893   28.7078   -4.6951 C   0  0  0  0  0  0  0  0  0  0  0  0
   34.7114   21.3234    1.3978 C   0  0  0  0  0  0  0  0  0  0  0  0
   33.3491   30.3050   -0.2026 C   0  0  0  0  0  0  0  0  0  0  0  0
   35.1195   23.8027    0.1977 S   0  0  0  0  0  0  0  0  0  0  0  0
   31.8757   29.7097   -5.2776 N   0  0  0  0  0  0  0  0  0  0  0  0
   30.6003   30.7928   -6.7938 C   0  0  0  0  0  0  0  0  0  0  0  0
   33.1509   28.1205   -1.3712 C   0  0  0  0  0  0  0  0  0  0  0  0
   34.2501   20.1934    2.2212 O   0  0  0  0  0  0  0  0  0  0  0  0
   32.7496   29.5311   -1.2989 C   0  0  0  0  0  0  0  0  0  0  0  0
   31.8735   30.0324   -2.2636 C   0  0  0  0  0  0  0  0  0  0  0  0
   30.8329   30.3877   -4.5641 C   0  0  0  0  0  0  0  0  0  0  0  0
   32.7863   27.3479   -2.4804 C   0  0  0  0  0  0  0  0  0  0  0  0
   32.2725   30.4688   -8.9091 C   0  0  0  0  0  0  0  0  0  0  0  0
   30.8956   30.5324   -3.1519 C   0  0  0  0  0  0  0  0  0  0  0  0
   30.1497   31.2402   -8.0237 C   0  0  0  0  0  0  0  0  0  0  0  0
   31.8316   30.1199   -6.6021 C   0  0  0  0  0  0  0  0  0  0  0  0
  1  7  2  0
  1 10  1  0
  2 28  2  0
  2 30  1  0
  3 28  1  0
  3 31  2  0
  4 11  1  0
  4 18  1  0
  5 10  2  0
  5 27  1  0
  6 11  1  0
  6 18  1  0
  7 22  1  0
  8 16  2  0
  8 27  2  0
  9 10  1  0
  9 14  1  0
 12 14  1  0
 12 17  1  0
 13 29  1  0
 14 19  2  0
 15 21  1  0
 15 26  1  0
 16 20  1  0
 17 23  1  0
 18 24  1  0
 20 26  1  0
 20 31  1  0
 21 30  2  0
 21 31  1  0
 22 24  1  0
 22 27  1  0
 24 25  2  0
 25 29  2  0
 26 29  1  0
M  END
>  <ID>  (1) 
conformer_0

$$$$
