
     RDKit          3D

 42 48  0  0  0  0  0  0  0  0999 V2000
   31.6117   30.3337   -5.5109 C   0  0  0  0  0  0  0  0  0  0  0  0
   36.0791   22.5837   -0.4478 C   0  0  0  0  0  0  0  0  0  0  0  0
   33.4852   30.1078    1.8766 C   0  0  0  0  0  0  0  0  0  0  0  0
   29.1461   31.0206   -5.5820 C   0  0  0  0  0  0  0  0  0  0  0  0
   32.0792   29.5962   -1.6590 C   0  0  0  0  0  0  0  0  0  0  0  0
   32.4909   30.6114   -0.5708 C   0  0  0  0  0  0  0  0  0  0  0  0
   35.1816   23.6673   -0.5506 C   0  0  0  0  0  0  0  0  0  0  0  0
   32.6542   26.8680   -1.4559 C   0  0  0  0  0  0  0  0  0  0  0  0
   33.2016   25.0082    0.4242 C   0  0  0  0  0  0  0  0  0  0  0  0
   33.9961   20.3175    3.1826 C   0  0  0  0  0  0  0  0  0  0  0  0
   34.6689   20.3154    2.0110 O   0  0  0  0  0  0  0  0  0  0  0  0
   31.8420   24.8084   -2.7562 C   0  0  0  0  0  0  0  0  0  0  0  0
   32.4012   32.2154   -7.4879 C   0  0  0  0  0  0  0  0  0  0  0  0
   31.0085   32.6896   -4.8382 C   0  0  0  0  0  0  0  0  0  0  0  0
   34.7453   21.4414    1.1997 C   0  0  0  0  0  0  0  0  0  0  0  0
   34.0504   23.7175    0.3461 C   0  0  0  0  0  0  0  0  0  0  0  0
   34.4626   29.3179    2.6848 C   0  0  0  0  0  0  0  0  0  0  0  0
   33.8557   27.3269    0.4943 C   0  0  0  0  0  0  0  0  0  0  0  0
   32.4060   29.7825   -6.6679 C   0  0  0  0  0  0  0  0  0  0  0  0
   35.8647   21.4537    0.3598 C   0  0  0  0  0  0  0  0  0  0  0  0
   34.6675   27.0400    1.5695 O   0  0  0  0  0  0  0  0  0  0  0  0
   32.6010   30.3638   -9.1863 C   0  0  0  0  0  0  0  0  0  0  0  0
   31.2233   30.9928   -9.5393 C   0  0  0  0  0  0  0  0  0  0  0  0
   30.8271   31.9840   -7.2716 C   0  0  0  0  0  0  0  0  0  0  0  0
   32.5243   28.2852   -1.1761 C   0  0  0  0  0  0  0  0  0  0  0  0
   31.5691   24.7481   -4.1306 C   0  0  0  0  0  0  0  0  0  0  0  0
   30.3013   30.8961   -8.3212 C   0  0  0  0  0  0  0  0  0  0  0  0
   32.3987   29.7549   -3.1536 C   0  0  0  0  0  0  0  0  0  0  0  0
   33.8096   22.5828    1.1239 C   0  0  0  0  0  0  0  0  0  0  0  0
   32.4252   26.1610   -2.6448 C   0  0  0  0  0  0  0  0  0  0  0  0
   31.3678   29.4656   -4.3124 C   0  0  0  0  0  0  0  0  0  0  0  0
   32.9688   30.7372   -7.7183 C   0  0  0  0  0  0  0  0  0  0  0  0
   32.6565   26.6030   -3.9930 C   0  0  0  0  0  0  0  0  0  0  0  0
   33.2824   29.8603    0.4031 C   0  0  0  0  0  0  0  0  0  0  0  0
   30.5579   31.2825   -2.4349 C   0  0  0  0  0  0  0  0  0  0  0  0
   32.1571   25.7825   -4.9572 C   0  0  0  0  0  0  0  0  0  0  0  0
   33.3623   26.2750   -0.3002 N   0  0  0  0  0  0  0  0  0  0  0  0
   30.6564   31.4727   -5.7953 C   0  0  0  0  0  0  0  0  0  0  0  0
   33.3397   28.5211   -0.0249 C   0  0  0  0  0  0  0  0  0  0  0  0
   35.2542   28.0557    2.5013 C   0  0  0  0  0  0  0  0  0  0  0  0
   30.7767   23.7660   -4.6494 F   0  0  0  0  0  0  0  0  0  0  0  0
   31.2341   32.1979   -3.3899 C   0  0  0  0  0  0  0  0  0  0  0  0
  1 19  1  0
  1 31  1  0
  1 38  1  0
  2  7  2  0
  2 20  1  0
  3 17  2  0
  3 34  1  0
  4 38  1  0
  5  6  1  0
  5 25  1  0
  5 28  1  0
  6 34  1  0
  7 16  1  0
  8 25  1  0
  8 30  1  0
  8 37  1  0
  9 16  1  0
  9 37  1  0
 10 11  1  0
 11 15  1  0
 12 26  1  0
 12 30  1  0
 13 24  1  0
 13 32  1  0
 14 38  1  0
 14 42  1  0
 15 20  2  0
 15 29  1  0
 16 29  2  0
 17 40  1  0
 18 21  1  0
 18 37  1  0
 18 39  2  0
 19 32  1  0
 21 40  1  0
 22 23  1  0
 22 32  1  0
 23 27  1  0
 24 27  1  0
 24 38  1  0
 25 39  1  0
 26 36  1  0
 26 41  1  0
 28 31  1  0
 30 33  1  0
 33 36  1  0
 34 39  1  0
 35 42  1  0
M  END
>  <ID>  (1) 
conformer_0

$$$$
