
     RDKit          3D

 36 39  0  0  0  0  0  0  0  0999 V2000
   32.2018   24.4757   -4.2171 O   0  0  0  0  0  0  0  0  0  0  0  0
   32.8189   29.4134   -6.1425 O   0  0  0  0  0  0  0  0  0  0  0  0
   32.5930   30.8383   -0.3182 C   0  0  0  0  0  0  0  0  0  0  0  0
   33.7690   20.3777    1.5456 O   0  0  0  0  0  0  0  0  0  0  0  0
   34.2307   22.3488    0.2124 C   0  0  0  0  0  0  0  0  0  0  0  0
   34.5506   21.3936    1.3631 C   0  0  0  0  0  0  0  0  0  0  0  0
   32.9599   26.9886   -1.8094 C   0  0  0  0  0  0  0  0  0  0  0  0
   29.6758   31.5264   -7.0606 C   0  0  0  0  0  0  0  0  0  0  0  0
   31.0907   24.4229   -5.0871 N   0  0  0  0  0  0  0  0  0  0  0  0
   32.4306   29.1666   -4.8056 C   0  0  0  0  0  0  0  0  0  0  0  0
   34.9747   23.6828    0.3040 C   0  0  0  0  0  0  0  0  0  0  0  0
   30.6145   30.8832   -4.9306 C   0  0  0  0  0  0  0  0  0  0  0  0
   33.1171   28.5247   -0.0006 C   0  0  0  0  0  0  0  0  0  0  0  0
   34.4528   24.8918   -0.4863 C   0  0  0  0  0  0  0  0  0  0  0  0
   32.2249   30.6446   -8.4626 C   0  0  0  0  0  0  0  0  0  0  0  0
   32.8981   31.0256    1.0219 C   0  0  0  0  0  0  0  0  0  0  0  0
   32.7423   28.0199   -2.7154 C   0  0  0  0  0  0  0  0  0  0  0  0
   31.7654   25.4265   -3.2386 C   0  0  0  0  0  0  0  0  0  0  0  0
   32.8617   30.4742   -7.0484 C   0  0  0  0  0  0  0  0  0  0  0  0
   33.2672   27.3152   -0.5338 N   0  0  0  0  0  0  0  0  0  0  0  0
   32.6382   29.5422   -0.7805 C   0  0  0  0  0  0  0  0  0  0  0  0
   33.2818   30.0155    1.8116 C   0  0  0  0  0  0  0  0  0  0  0  0
   29.3945   31.2450   -2.8878 C   0  0  0  0  0  0  0  0  0  0  0  0
   31.4676   30.0101   -4.2271 C   0  0  0  0  0  0  0  0  0  0  0  0
   29.5259   31.3920   -4.2603 C   0  0  0  0  0  0  0  0  0  0  0  0
   31.3780   29.9670   -2.8403 C   0  0  0  0  0  0  0  0  0  0  0  0
   30.5678   23.7440   -6.3348 C   0  0  0  0  0  0  0  0  0  0  0  0
   32.7500   25.6126   -2.1953 C   0  0  0  0  0  0  0  0  0  0  0  0
   33.1362   30.1904   -9.5791 C   0  0  0  0  0  0  0  0  0  0  0  0
   30.8007   31.3345   -6.1961 O   0  0  0  0  0  0  0  0  0  0  0  0
   30.3608   30.5804   -2.1708 C   0  0  0  0  0  0  0  0  0  0  0  0
   32.2869   29.1994   -2.0793 N   0  0  0  0  0  0  0  0  0  0  0  0
   35.4684   21.7102    2.1452 O   0  0  0  0  0  0  0  0  0  0  0  0
   32.9479   28.1113   -4.0773 C   0  0  0  0  0  0  0  0  0  0  0  0
   33.4189   28.7368    1.3590 C   0  0  0  0  0  0  0  0  0  0  0  0
   33.2012   24.5338   -1.3386 C   0  0  0  0  0  0  0  0  0  0  0  0
  1  9  1  0
  1 18  1  0
  2 10  1  0
  2 19  1  0
  3 16  1  0
  3 21  2  0
  4  6  2  0
  5  6  1  0
  5 11  1  0
  6 33  1  0
  7 17  1  0
  7 20  1  0
  7 28  1  0
  8 30  1  0
  9 27  1  0
 10 24  1  0
 10 34  2  0
 11 14  1  0
 12 24  1  0
 12 25  2  0
 12 30  1  0
 13 20  2  0
 13 21  1  0
 13 35  1  0
 14 36  1  0
 15 19  1  0
 15 29  1  0
 16 22  2  0
 17 32  1  0
 17 34  1  0
 18 28  1  0
 21 32  1  0
 22 35  1  0
 23 25  1  0
 23 31  1  0
 24 26  1  0
 26 31  2  0
 26 32  1  0
 28 36  1  0
M  END
>  <ID>  (1) 
conformer_0

$$$$
