
     RDKit          3D

 39 44  0  0  0  0  0  0  0  0999 V2000
   35.7822   20.6328    1.4331 N   0  0  0  0  0  0  0  0  0  0  0  0
   28.8718   30.1936   -2.6612 O   0  0  0  0  0  0  0  0  0  0  0  0
   34.0891   24.4976   -0.7524 N   0  0  0  0  0  0  0  0  0  0  0  0
   33.1971   28.8738   -4.4455 O   0  0  0  0  0  0  0  0  0  0  0  0
   33.8306   26.7353    0.0735 N   0  0  0  0  0  0  0  0  0  0  0  0
   36.0454   21.5629    0.4419 C   0  0  0  0  0  0  0  0  0  0  0  0
   30.9013   30.8684   -5.4259 C   0  0  0  0  0  0  0  0  0  0  0  0
   31.2193   30.7906   -6.7919 C   0  0  0  0  0  0  0  0  0  0  0  0
   34.3132   19.8415    3.2676 C   0  0  0  0  0  0  0  0  0  0  0  0
   35.0645   22.5122    0.0785 C   0  0  0  0  0  0  0  0  0  0  0  0
   31.4332   29.8159   -2.8921 C   0  0  0  0  0  0  0  0  0  0  0  0
   32.1712   29.6152   -1.6682 C   0  0  0  0  0  0  0  0  0  0  0  0
   29.5151   31.2666   -3.3324 C   0  0  0  0  0  0  0  0  0  0  0  0
   33.2586   28.0051   -0.1035 C   0  0  0  0  0  0  0  0  0  0  0  0
   33.2221   30.1239    1.1839 C   0  0  0  0  0  0  0  0  0  0  0  0
   32.7833   25.9878   -1.8855 C   0  0  0  0  0  0  0  0  0  0  0  0
   33.6361   25.7667   -0.8139 C   0  0  0  0  0  0  0  0  0  0  0  0
   32.4549   30.7091   -0.9658 C   0  0  0  0  0  0  0  0  0  0  0  0
   32.7671   30.1802   -8.5056 C   0  0  0  0  0  0  0  0  0  0  0  0
   32.3462   27.2202   -2.1501 C   0  0  0  0  0  0  0  0  0  0  0  0
   33.5151   21.4258    1.5453 N   0  0  0  0  0  0  0  0  0  0  0  0
   32.3156   24.9121   -2.5544 F   0  0  0  0  0  0  0  0  0  0  0  0
   30.6357   31.0585   -9.1112 C   0  0  0  0  0  0  0  0  0  0  0  0
   30.2913   31.1645   -7.7369 C   0  0  0  0  0  0  0  0  0  0  0  0
   33.8083   22.3234    0.5964 C   0  0  0  0  0  0  0  0  0  0  0  0
   33.5573   30.6278    2.4037 F   0  0  0  0  0  0  0  0  0  0  0  0
   33.9066   29.6190   -8.8592 F   0  0  0  0  0  0  0  0  0  0  0  0
   32.3612   29.7351   -4.0636 C   0  0  0  0  0  0  0  0  0  0  0  0
   34.5389   20.6311    2.0445 C   0  0  0  0  0  0  0  0  0  0  0  0
   32.8084   31.0144    0.2328 C   0  0  0  0  0  0  0  0  0  0  0  0
   32.4709   30.3494   -7.1973 C   0  0  0  0  0  0  0  0  0  0  0  0
   32.2021   31.0779   -4.7008 C   0  0  0  0  0  0  0  0  0  0  0  0
   29.6618   31.3481   -4.8266 C   0  0  0  0  0  0  0  0  0  0  0  0
   32.5749   28.3063   -1.2938 C   0  0  0  0  0  0  0  0  0  0  0  0
   33.3749   28.8500    0.9503 C   0  0  0  0  0  0  0  0  0  0  0  0
   31.8660   30.5510   -9.4609 C   0  0  0  0  0  0  0  0  0  0  0  0
   30.9218   31.2732   -2.7948 C   0  0  0  0  0  0  0  0  0  0  0  0
   31.8651   32.0630   -3.6181 C   0  0  0  0  0  0  0  0  0  0  0  0
   35.2936   23.7585   -0.7276 C   0  0  0  0  0  0  0  0  0  0  0  0
  1  6  2  0
  1 29  1  0
  2 13  1  0
  3 17  1  0
  3 39  1  0
  4 28  2  0
  5 14  1  0
  5 17  2  0
  6 10  1  0
  7  8  1  0
  7 32  1  0
  7 33  1  0
  8 24  2  0
  8 31  1  0
  9 29  1  0
 10 25  2  0
 10 39  1  0
 11 12  1  0
 11 28  1  0
 11 37  1  0
 12 18  1  0
 12 34  2  0
 13 33  1  0
 13 37  1  0
 14 34  1  0
 14 35  1  0
 15 26  1  0
 15 30  1  0
 15 35  2  0
 16 17  1  0
 16 20  2  0
 16 22  1  0
 18 30  2  0
 19 27  1  0
 19 31  2  0
 19 36  1  0
 20 34  1  0
 21 25  1  0
 21 29  2  0
 23 24  1  0
 23 36  2  0
 28 32  1  0
 32 38  1  0
 37 38  1  0
M  END
>  <ID>  (1) 
conformer_0

$$$$
