
     RDKit          3D

 28 30  0  0  0  0  0  0  0  0999 V2000
   33.8440   28.6875    1.2863 C   0  0  0  0  0  0  0  0  0  0  0  0
   29.8007   31.0636   -2.3784 C   0  0  0  0  0  0  0  0  0  0  0  0
   33.6130   25.0297   -0.5574 O   0  0  0  0  0  0  0  0  0  0  0  0
   32.0539   29.5615   -8.1635 C   0  0  0  0  0  0  0  0  0  0  0  0
   31.5372   29.4907   -3.1307 C   0  0  0  0  0  0  0  0  0  0  0  0
   33.0498   29.6810    0.7760 C   0  0  0  0  0  0  0  0  0  0  0  0
   32.3257   29.9114   -5.6639 C   0  0  0  0  0  0  0  0  0  0  0  0
   33.3864   29.7212   -8.8239 C   0  0  0  0  0  0  0  0  0  0  0  0
   30.6282   31.5270   -7.6394 C   0  0  0  0  0  0  0  0  0  0  0  0
   32.2508   27.1149   -3.2054 C   0  0  0  0  0  0  0  0  0  0  0  0
   32.6730   28.4337   -1.2241 C   0  0  0  0  0  0  0  0  0  0  0  0
   34.0261   27.5481    0.5348 C   0  0  0  0  0  0  0  0  0  0  0  0
   30.8090   30.2228   -2.1629 C   0  0  0  0  0  0  0  0  0  0  0  0
   33.7338   21.4192    0.4941 C   0  0  0  0  0  0  0  0  0  0  0  0
   32.7104   30.9022    1.5606 C   0  0  0  0  0  0  0  0  0  0  0  0
   33.1386   23.8692   -0.1696 C   0  0  0  0  0  0  0  0  0  0  0  0
   31.3565   30.0048   -4.4733 C   0  0  0  0  0  0  0  0  0  0  0  0
   29.4658   31.3266   -3.6941 C   0  0  0  0  0  0  0  0  0  0  0  0
   30.2580   30.8010   -4.7118 C   0  0  0  0  0  0  0  0  0  0  0  0
   32.5763   29.6177   -0.4726 C   0  0  0  0  0  0  0  0  0  0  0  0
   32.2020   28.3350   -2.5856 C   0  0  0  0  0  0  0  0  0  0  0  0
   31.5997   30.4375   -7.0166 C   0  0  0  0  0  0  0  0  0  0  0  0
   33.2034   26.0710   -1.2512 C   0  0  0  0  0  0  0  0  0  0  0  0
   34.1416   20.8123    1.7865 C   0  0  0  0  0  0  0  0  0  0  0  0
   32.6830   25.9767   -2.5465 C   0  0  0  0  0  0  0  0  0  0  0  0
   34.2886   22.8403    0.2503 C   0  0  0  0  0  0  0  0  0  0  0  0
   35.3320   26.4604    1.0902 Cl  0  0  0  0  0  0  0  0  0  0  0  0
   33.3141   27.3254   -0.6606 C   0  0  0  0  0  0  0  0  0  0  0  0
  1  6  1  0
  1 12  2  0
  2 13  2  0
  2 18  1  0
  3 16  1  0
  3 23  1  0
  4  8  1  0
  4 22  1  0
  5 13  1  0
  5 17  1  0
  5 21  1  0
  6 15  1  0
  6 20  2  0
  7 17  1  0
  7 22  1  0
  9 22  1  0
 10 21  2  0
 10 25  1  0
 11 20  1  0
 11 21  1  0
 11 28  1  0
 12 27  1  0
 12 28  1  0
 14 24  1  0
 14 26  1  0
 16 26  1  0
 17 19  2  0
 18 19  1  0
 23 25  1  0
 23 28  2  0
M  END
>  <ID>  (1) 
conformer_0

$$$$
