
     RDKit          3D

 52 59  0  0  0  0  0  0  0  0999 V2000
   29.7242   31.4798   -8.0961 C   0  0  0  0  0  0  0  0  0  0  0  0
   29.2066   30.9926   -1.8243 O   0  0  0  0  0  0  0  0  0  0  0  0
   33.8704   27.1012   -0.7546 C   0  0  0  0  0  0  0  0  0  0  0  0
   31.3661   24.5338   -0.7179 O   0  0  0  0  0  0  0  0  0  0  0  0
   32.6796   25.4517   -2.6348 C   0  0  0  0  0  0  0  0  0  0  0  0
   33.2386   28.9401   -2.9099 C   0  0  0  0  0  0  0  0  0  0  0  0
   33.3615   21.4852    1.4450 C   0  0  0  0  0  0  0  0  0  0  0  0
   32.5814   27.7547   -3.6154 C   0  0  0  0  0  0  0  0  0  0  0  0
   32.3786   30.1147   -5.6327 C   0  0  0  0  0  0  0  0  0  0  0  0
   35.3278   18.9915    2.4785 O   0  0  0  0  0  0  0  0  0  0  0  0
   34.6361   20.4330    4.0210 N   0  0  0  0  0  0  0  0  0  0  0  0
   34.2679   27.6449    0.6619 C   0  0  0  0  0  0  0  0  0  0  0  0
   31.8807   30.5347   -7.1389 C   0  0  0  0  0  0  0  0  0  0  0  0
   30.1888   31.8029   -5.4259 C   0  0  0  0  0  0  0  0  0  0  0  0
   30.6122   31.2208   -3.8872 C   0  0  0  0  0  0  0  0  0  0  0  0
   33.7396   28.4572   -1.5896 C   0  0  0  0  0  0  0  0  0  0  0  0
   34.0817   32.0173   -1.1629 C   0  0  0  0  0  0  0  0  0  0  0  0
   32.1432   33.1851   -8.1314 C   0  0  0  0  0  0  0  0  0  0  0  0
   31.7309   31.4286   -2.6474 C   0  0  0  0  0  0  0  0  0  0  0  0
   29.3949   30.7603   -3.1031 C   0  0  0  0  0  0  0  0  0  0  0  0
   28.5915   32.0775   -8.0825 O   0  0  0  0  0  0  0  0  0  0  0  0
   34.9595   20.1373    2.7743 C   0  0  0  0  0  0  0  0  0  0  0  0
   31.4310   32.4911   -1.8519 O   0  0  0  0  0  0  0  0  0  0  0  0
   31.3744   32.9474   -5.3656 C   0  0  0  0  0  0  0  0  0  0  0  0
   33.2062   31.0681   -0.3425 C   0  0  0  0  0  0  0  0  0  0  0  0
   31.4607   30.0665   -4.3495 C   0  0  0  0  0  0  0  0  0  0  0  0
   34.5957   26.9755    1.6111 O   0  0  0  0  0  0  0  0  0  0  0  0
   33.7329   29.6467   -0.5972 C   0  0  0  0  0  0  0  0  0  0  0  0
   35.3109   22.8920    0.0773 C   0  0  0  0  0  0  0  0  0  0  0  0
   32.9203   30.1853  -10.0949 C   0  0  0  0  0  0  0  0  0  0  0  0
   34.0658   29.1101    0.7156 C   0  0  0  0  0  0  0  0  0  0  0  0
   32.4258   31.6736   -8.1482 C   0  0  0  0  0  0  0  0  0  0  0  0
   33.5072   29.4111   -8.8389 C   0  0  0  0  0  0  0  0  0  0  0  0
   31.9656   26.7797   -2.6050 C   0  0  0  0  0  0  0  0  0  0  0  0
   35.6591   21.7846    0.9614 C   0  0  0  0  0  0  0  0  0  0  0  0
   30.3229   30.9324   -9.4047 C   0  0  0  0  0  0  0  0  0  0  0  0
   32.5596   30.2766   -3.0667 C   0  0  0  0  0  0  0  0  0  0  0  0
   33.7217   24.3056   -1.1704 C   0  0  0  0  0  0  0  0  0  0  0  0
   28.8340   29.4496   -3.5401 C   0  0  0  0  0  0  0  0  0  0  0  0
   34.3283   29.8750    2.9570 C   0  0  0  0  0  0  0  0  0  0  0  0
   31.8490   31.1183   -9.5812 C   0  0  0  0  0  0  0  0  0  0  0  0
   34.6773   21.1487    1.7136 C   0  0  0  0  0  0  0  0  0  0  0  0
   30.4235   31.0683   -6.8162 C   0  0  0  0  0  0  0  0  0  0  0  0
   32.5972   24.9097   -3.8805 F   0  0  0  0  0  0  0  0  0  0  0  0
   32.3353   29.1653   -7.8740 C   0  0  0  0  0  0  0  0  0  0  0  0
   33.9293   25.6320   -0.5305 N   0  0  0  0  0  0  0  0  0  0  0  0
   33.9480   23.2347   -0.2005 C   0  0  0  0  0  0  0  0  0  0  0  0
   32.3287   24.3360   -1.7115 C   0  0  0  0  0  0  0  0  0  0  0  0
   33.3179   29.8183    1.7926 C   0  0  0  0  0  0  0  0  0  0  0  0
   33.0031   22.5032    0.5312 C   0  0  0  0  0  0  0  0  0  0  0  0
   32.9453   31.1713    1.1757 C   0  0  0  0  0  0  0  0  0  0  0  0
   28.6751   32.1534   -5.2152 C   0  0  0  0  0  0  0  0  0  0  0  0
  1 21  2  0
  1 36  1  0
  1 43  1  0
  2 20  1  0
  3 12  1  0
  3 16  1  0
  3 46  2  0
  4 48  1  0
  5 34  1  0
  5 44  1  0
  5 48  1  0
  6  8  1  0
  6 16  1  0
  6 37  1  0
  7 42  2  0
  7 50  1  0
  8 34  1  0
  9 13  1  0
  9 26  1  0
 10 22  2  0
 11 22  1  0
 12 27  2  0
 12 31  1  0
 13 32  1  0
 13 43  1  0
 13 45  1  0
 14 15  1  0
 14 24  1  0
 14 43  1  0
 14 52  1  0
 15 19  1  0
 15 20  1  0
 15 26  1  0
 16 28  1  0
 17 25  1  0
 18 32  1  0
 19 23  1  0
 19 37  1  0
 20 39  1  0
 22 42  1  0
 25 28  1  0
 25 51  1  0
 26 37  1  0
 28 31  1  0
 29 35  2  0
 29 47  1  0
 30 33  1  0
 30 41  1  0
 31 49  1  0
 32 41  1  0
 33 45  1  0
 35 42  1  0
 36 41  1  0
 38 46  1  0
 38 47  1  0
 38 48  1  0
 40 49  1  0
 47 50  2  0
 49 51  1  0
M  END
>  <ID>  (1) 
conformer_0

$$$$
