
     RDKit          3D

 29 32  0  0  0  0  0  0  0  0999 V2000
   32.8120   27.1583   -1.7252 C   0  0  0  0  0  0  0  0  0  0  0  0
   32.4930   28.3174   -2.4256 C   0  0  0  0  0  0  0  0  0  0  0  0
   31.6976   29.9042   -3.9589 C   0  0  0  0  0  0  0  0  0  0  0  0
   32.4081   29.5228   -1.7326 C   0  0  0  0  0  0  0  0  0  0  0  0
   33.3581   24.8319   -0.4416 C   0  0  0  0  0  0  0  0  0  0  0  0
   31.4456   30.2444   -7.6487 C   0  0  0  0  0  0  0  0  0  0  0  0
   32.6162   25.9708   -2.3456 N   0  0  0  0  0  0  0  0  0  0  0  0
   31.8439   30.5589   -2.6269 C   0  0  0  0  0  0  0  0  0  0  0  0
   33.3188   27.1966   -0.4275 C   0  0  0  0  0  0  0  0  0  0  0  0
   30.2398   30.9330   -7.8094 C   0  0  0  0  0  0  0  0  0  0  0  0
   33.1431   29.3985   -6.2363 O   0  0  0  0  0  0  0  0  0  0  0  0
   30.0467   30.9936   -5.4103 C   0  0  0  0  0  0  0  0  0  0  0  0
   29.3696   31.3422   -4.2736 O   0  0  0  0  0  0  0  0  0  0  0  0
   32.0985   29.8137   -8.7671 F   0  0  0  0  0  0  0  0  0  0  0  0
   32.8481   29.5849   -0.3998 C   0  0  0  0  0  0  0  0  0  0  0  0
   33.3511   23.5192    0.3786 C   0  0  0  0  0  0  0  0  0  0  0  0
   32.8835   24.8526   -1.7376 N   0  0  0  0  0  0  0  0  0  0  0  0
   33.3538   28.4624    0.2427 C   0  0  0  0  0  0  0  0  0  0  0  0
   33.8900   28.6062    1.5450 C   0  0  0  0  0  0  0  0  0  0  0  0
   31.2420   30.2819   -5.2417 C   0  0  0  0  0  0  0  0  0  0  0  0
   32.7653   30.8175    0.1408 O   0  0  0  0  0  0  0  0  0  0  0  0
   33.9797   21.2049    1.1275 C   0  0  0  0  0  0  0  0  0  0  0  0
   34.4185   22.5142    0.2841 C   0  0  0  0  0  0  0  0  0  0  0  0
   33.9325   29.5346    2.4098 O   0  0  0  0  0  0  0  0  0  0  0  0
   31.9466   29.9562   -6.3873 C   0  0  0  0  0  0  0  0  0  0  0  0
   33.6812   26.0086    0.1664 C   0  0  0  0  0  0  0  0  0  0  0  0
   29.5189   31.3128   -6.6443 C   0  0  0  0  0  0  0  0  0  0  0  0
   32.1761   28.4986   -3.8241 C   0  0  0  0  0  0  0  0  0  0  0  0
   32.5965   31.5678    1.2260 C   0  0  0  0  0  0  0  0  0  0  0  0
  1  2  1  0
  1  7  2  0
  1  9  1  0
  2  4  2  0
  2 28  1  0
  3  8  1  0
  3 20  1  0
  3 28  1  0
  4  8  1  0
  4 15  1  0
  5 16  1  0
  5 17  2  0
  5 26  1  0
  6 10  2  0
  6 14  1  0
  6 25  1  0
  7 17  1  0
  9 18  1  0
  9 26  2  0
 10 27  1  0
 11 25  1  0
 12 13  1  0
 12 20  1  0
 12 27  2  0
 15 18  2  0
 15 21  1  0
 16 23  1  0
 18 19  1  0
 19 24  2  0
 20 25  2  0
 21 29  1  0
 22 23  1  0
M  END
>  <ID>  (1) 
conformer_0

$$$$
