
     RDKit          3D

 26 28  0  0  0  0  0  0  0  0999 V2000
   30.7648   30.6193   -7.9988 C   0  0  0  0  0  0  0  0  0  0  0  0
   33.8993   24.2816   -0.5404 C   0  0  0  0  0  0  0  0  0  0  0  0
   32.8828   31.0800    0.0284 C   0  0  0  0  0  0  0  0  0  0  0  0
   32.5579   24.9340   -1.0466 C   0  0  0  0  0  0  0  0  0  0  0  0
   32.5683   30.6426   -1.2478 C   0  0  0  0  0  0  0  0  0  0  0  0
   32.2334   28.8689   -2.8072 C   0  0  0  0  0  0  0  0  0  0  0  0
   33.0873   29.6448   -3.7885 C   0  0  0  0  0  0  0  0  0  0  0  0
   30.3408   31.0318   -5.6502 C   0  0  0  0  0  0  0  0  0  0  0  0
   29.8706   30.9307   -6.9765 C   0  0  0  0  0  0  0  0  0  0  0  0
   33.5820   23.2337    0.3672 N   0  0  0  0  0  0  0  0  0  0  0  0
   33.1902   27.1265   -0.8698 O   0  0  0  0  0  0  0  0  0  0  0  0
   34.1243   21.9373    0.4393 C   0  0  0  0  0  0  0  0  0  0  0  0
   32.5509   30.3773   -6.3947 C   0  0  0  0  0  0  0  0  0  0  0  0
   33.5971   20.9709    1.0806 O   0  0  0  0  0  0  0  0  0  0  0  0
   32.6027   29.2673   -1.4716 C   0  0  0  0  0  0  0  0  0  0  0  0
   32.0781   30.2982   -7.7015 C   0  0  0  0  0  0  0  0  0  0  0  0
   31.0231   28.4934   -3.0988 O   0  0  0  0  0  0  0  0  0  0  0  0
   32.8598   26.2531   -1.8177 C   0  0  0  0  0  0  0  0  0  0  0  0
   32.1674   31.4956   -2.4461 C   0  0  0  0  0  0  0  0  0  0  0  0
   30.3432   30.7454   -9.2735 O   0  0  0  0  0  0  0  0  0  0  0  0
   31.6734   30.8053   -5.3965 C   0  0  0  0  0  0  0  0  0  0  0  0
   33.0281   28.3752   -0.5342 C   0  0  0  0  0  0  0  0  0  0  0  0
   33.2632   30.1682    0.9825 C   0  0  0  0  0  0  0  0  0  0  0  0
   35.4164   21.6633   -0.2342 C   0  0  0  0  0  0  0  0  0  0  0  0
   33.3567   28.8173    0.7311 C   0  0  0  0  0  0  0  0  0  0  0  0
   32.2077   31.0169   -3.9358 C   0  0  0  0  0  0  0  0  0  0  0  0
  1  9  1  0
  1 16  2  0
  1 20  1  0
  2  4  1  0
  2 10  1  0
  3  5  1  0
  3 23  2  0
  4 18  1  0
  5 15  1  0
  5 19  1  0
  6  7  1  0
  6 15  1  0
  6 17  1  0
  7 26  1  0
  8  9  1  0
  8 21  2  0
 10 12  1  0
 11 18  1  0
 11 22  1  0
 12 14  2  0
 12 24  1  0
 13 16  1  0
 13 21  1  0
 15 22  2  0
 19 26  1  0
 21 26  1  0
 22 25  1  0
 23 25  1  0
M  END
>  <ID>  (1) 
conformer_0

$$$$
