
     RDKit          3D

 27 28  0  0  0  0  0  0  0  0999 V2000
   33.5061   24.0171   -0.5294 N   0  0  0  0  0  0  0  0  0  0  0  0
   33.3278   26.1718   -1.1833 C   0  0  0  0  0  0  0  0  0  0  0  0
   30.9945   31.0587   -5.1435 C   0  0  0  0  0  0  0  0  0  0  0  0
   33.1412   30.6072   -2.9745 O   0  0  0  0  0  0  0  0  0  0  0  0
   33.3266   29.4423    0.5931 C   0  0  0  0  0  0  0  0  0  0  0  0
   33.3016   29.9348    2.0552 C   0  0  0  0  0  0  0  0  0  0  0  0
   31.1800   30.5889   -8.7263 C   0  0  0  0  0  0  0  0  0  0  0  0
   34.1604   20.6574    2.0548 C   0  0  0  0  0  0  0  0  0  0  0  0
   32.3897   30.0445   -6.5989 C   0  0  0  0  0  0  0  0  0  0  0  0
   30.4344   31.2238   -6.4803 C   0  0  0  0  0  0  0  0  0  0  0  0
   33.9188   25.2638   -0.3562 N   0  0  0  0  0  0  0  0  0  0  0  0
   33.4072   28.0852    0.3891 C   0  0  0  0  0  0  0  0  0  0  0  0
   32.5975   25.6934   -2.2447 O   0  0  0  0  0  0  0  0  0  0  0  0
   29.1967   31.8369   -6.8927 C   0  0  0  0  0  0  0  0  0  0  0  0
   33.2506   29.8484   -1.7731 C   0  0  0  0  0  0  0  0  0  0  0  0
   33.5988   22.8638    0.3250 C   0  0  0  0  0  0  0  0  0  0  0  0
   33.0531   29.8565   -4.1919 C   0  0  0  0  0  0  0  0  0  0  0  0
   31.3231   30.6215   -7.3100 C   0  0  0  0  0  0  0  0  0  0  0  0
   33.6186   28.6369   -4.4131 N   0  0  0  0  0  0  0  0  0  0  0  0
   33.2971   28.4966   -1.8956 C   0  0  0  0  0  0  0  0  0  0  0  0
   28.4638   32.8127   -5.9896 Cl  0  0  0  0  0  0  0  0  0  0  0  0
   32.0398   25.9366   -3.3169 C   0  0  0  0  0  0  0  0  0  0  0  0
   32.1883   30.3070   -5.2337 C   0  0  0  0  0  0  0  0  0  0  0  0
   35.0291   22.2903    0.3394 C   0  0  0  0  0  0  0  0  0  0  0  0
   33.2697   30.3592   -0.4371 C   0  0  0  0  0  0  0  0  0  0  0  0
   35.3271   21.2138    1.2996 C   0  0  0  0  0  0  0  0  0  0  0  0
   33.3621   27.5980   -0.8822 C   0  0  0  0  0  0  0  0  0  0  0  0
  1 11  1  0
  1 16  1  0
  2 11  1  0
  2 13  1  0
  2 27  1  0
  3 10  1  0
  3 23  1  0
  4 15  1  0
  4 17  1  0
  5  6  1  0
  5 12  2  0
  5 25  1  0
  7 18  1  0
  8 26  1  0
  9 18  1  0
  9 23  1  0
 10 14  1  0
 10 18  2  0
 12 27  1  0
 13 22  1  0
 14 21  1  0
 15 20  1  0
 15 25  2  0
 16 24  1  0
 17 19  1  0
 17 23  1  0
 20 27  2  0
 24 26  2  3
M  END
>  <ID>  (1) 
conformer_0

$$$$
