
     RDKit          3D

 36 39  0  0  0  0  0  0  0  0999 V2000
   31.2227   28.8772   -2.5382 C   0  0  0  0  0  0  0  0  0  0  0  0
   29.6161   31.3320   -7.2723 C   0  0  0  0  0  0  0  0  0  0  0  0
   34.0276   23.5005   -0.0042 C   0  0  0  0  0  0  0  0  0  0  0  0
   32.9464   29.8573   -7.0815 F   0  0  0  0  0  0  0  0  0  0  0  0
   34.9248   24.4856   -0.3986 C   0  0  0  0  0  0  0  0  0  0  0  0
   32.6031   28.3798   -2.1994 N   0  0  0  0  0  0  0  0  0  0  0  0
   32.2696   25.0300   -0.7201 C   0  0  0  0  0  0  0  0  0  0  0  0
   33.4121   28.8018    1.5507 C   0  0  0  0  0  0  0  0  0  0  0  0
   33.1790   29.9391   -0.6240 C   0  0  0  0  0  0  0  0  0  0  0  0
   29.1448   31.0338   -2.6720 O   0  0  0  0  0  0  0  0  0  0  0  0
   33.4274   28.8763    0.1912 C   0  0  0  0  0  0  0  0  0  0  0  0
   32.7216   31.0799    2.1078 C   0  0  0  0  0  0  0  0  0  0  0  0
   30.8253   30.7979   -7.7587 C   0  0  0  0  0  0  0  0  0  0  0  0
   30.3172   30.8309   -5.0027 C   0  0  0  0  0  0  0  0  0  0  0  0
   31.4895   30.3687   -5.5314 C   0  0  0  0  0  0  0  0  0  0  0  0
   33.8247   21.1439    1.0265 N   0  0  0  0  0  0  0  0  0  0  0  0
   34.2673   30.1106   -2.8820 O   0  0  0  0  0  0  0  0  0  0  0  0
   33.4161   29.5807   -2.0814 C   0  0  0  0  0  0  0  0  0  0  0  0
   33.1689   25.9204   -1.3534 C   0  0  0  0  0  0  0  0  0  0  0  0
   32.9187   30.5065   -3.0463 C   0  0  0  0  0  0  0  0  0  0  0  0
   32.7652   31.1780   -0.2811 C   0  0  0  0  0  0  0  0  0  0  0  0
   34.5360   22.1650    0.3989 C   0  0  0  0  0  0  0  0  0  0  0  0
   29.3570   31.3168   -5.8846 C   0  0  0  0  0  0  0  0  0  0  0  0
   30.0153   30.9779  -10.0404 F   0  0  0  0  0  0  0  0  0  0  0  0
   30.1137   30.8030   -3.5646 C   0  0  0  0  0  0  0  0  0  0  0  0
   32.6849   26.9701   -2.3233 C   0  0  0  0  0  0  0  0  0  0  0  0
   31.4350   30.3594   -2.9165 C   0  0  0  0  0  0  0  0  0  0  0  0
   31.7286   30.3555   -6.8264 C   0  0  0  0  0  0  0  0  0  0  0  0
   32.3542   31.5901   -3.2384 O   0  0  0  0  0  0  0  0  0  0  0  0
   34.5256   25.6776   -1.0263 C   0  0  0  0  0  0  0  0  0  0  0  0
   32.1158   30.2787   -9.7145 F   0  0  0  0  0  0  0  0  0  0  0  0
   32.5235   31.7651    0.9189 C   0  0  0  0  0  0  0  0  0  0  0  0
   33.1095   29.8742    2.3560 C   0  0  0  0  0  0  0  0  0  0  0  0
   32.2749   26.5510   -3.3818 O   0  0  0  0  0  0  0  0  0  0  0  0
   30.9780   30.6942   -9.1718 C   0  0  0  0  0  0  0  0  0  0  0  0
   32.6664   23.8171   -0.0750 C   0  0  0  0  0  0  0  0  0  0  0  0
  1  6  1  0
  1 27  1  0
  2 13  1  0
  2 23  2  0
  3  5  2  0
  3 22  1  0
  3 36  1  0
  4 28  1  0
  5 30  1  0
  6 18  1  0
  6 26  1  0
  7 19  1  0
  7 36  2  0
  8 11  2  0
  8 33  1  0
  9 11  1  0
  9 18  1  0
  9 21  2  0
 10 25  1  0
 12 32  1  0
 12 33  2  0
 13 28  1  0
 13 35  2  3
 14 15  1  0
 14 23  1  0
 14 25  2  3
 15 28  2  0
 16 22  1  0
 17 18  1  0
 18 20  1  0
 19 26  1  0
 19 30  2  0
 20 27  1  0
 20 29  1  0
 21 32  1  0
 24 35  1  0
 25 27  1  0
 26 34  2  0
 31 35  1  0
M  END
>  <ID>  (1) 
conformer_0

$$$$
