
     RDKit          3D

 57 64  0  0  0  0  0  0  0  0999 V2000
   34.4882   20.5528    3.4550 C   0  0  0  0  0  0  0  0  0  0  0  0
   33.4600   31.0012    0.1793 N   0  0  0  0  0  0  0  0  0  0  0  0
   33.7695   29.1530   -4.3335 C   0  0  0  0  0  0  0  0  0  0  0  0
   33.7471   25.5378    1.0267 C   0  0  0  0  0  0  0  0  0  0  0  0
   33.1843   26.8941   -0.9332 C   0  0  0  0  0  0  0  0  0  0  0  0
   34.9023   21.1370    2.2130 C   0  0  0  0  0  0  0  0  0  0  0  0
   31.8099   30.7677   -9.4455 C   0  0  0  0  0  0  0  0  0  0  0  0
   34.1072   26.5400    1.8409 C   0  0  0  0  0  0  0  0  0  0  0  0
   32.0580   25.3309   -3.5515 C   0  0  0  0  0  0  0  0  0  0  0  0
   30.9579   23.8493   -5.3694 C   0  0  0  0  0  0  0  0  0  0  0  0
   32.8423   31.3606   -1.0307 C   0  0  0  0  0  0  0  0  0  0  0  0
   31.4806   31.2088   -1.2950 C   0  0  0  0  0  0  0  0  0  0  0  0
   31.5688   33.8921   -5.3439 O   0  0  0  0  0  0  0  0  0  0  0  0
   29.2172   31.1753   -4.3228 C   0  0  0  0  0  0  0  0  0  0  0  0
   35.0084   31.6770   -1.8657 F   0  0  0  0  0  0  0  0  0  0  0  0
   31.7931   32.2188   -3.5195 C   0  0  0  0  0  0  0  0  0  0  0  0
   32.5864   27.1658   -4.9350 N   0  0  0  0  0  0  0  0  0  0  0  0
   33.9854   30.6472    3.5628 C   0  0  0  0  0  0  0  0  0  0  0  0
   32.8862   30.7952    1.4108 C   0  0  0  0  0  0  0  0  0  0  0  0
   35.0624   20.7292    4.6452 N   0  0  0  0  0  0  0  0  0  0  0  0
   32.0180   23.5487   -0.4465 O   0  0  0  0  0  0  0  0  0  0  0  0
   31.1127   32.7161   -4.7409 C   0  0  0  0  0  0  0  0  0  0  0  0
   33.3049   28.2724   -5.3583 C   0  0  0  0  0  0  0  0  0  0  0  0
   31.3904   30.0914   -6.8367 C   0  0  0  0  0  0  0  0  0  0  0  0
   31.6289   24.9895   -4.8471 C   0  0  0  0  0  0  0  0  0  0  0  0
   34.1481   24.3504    1.5391 N   0  0  0  0  0  0  0  0  0  0  0  0
   32.5813   26.6737   -3.6924 C   0  0  0  0  0  0  0  0  0  0  0  0
   33.2032   25.6492   -0.3238 C   0  0  0  0  0  0  0  0  0  0  0  0
   29.6810   31.8423   -6.6275 N   0  0  0  0  0  0  0  0  0  0  0  0
   33.5837   29.8826    2.3725 C   0  0  0  0  0  0  0  0  0  0  0  0
   33.1562   32.2985   -3.2893 C   0  0  0  0  0  0  0  0  0  0  0  0
   32.2022   24.5511   -2.5756 O   0  0  0  0  0  0  0  0  0  0  0  0
   33.2909   20.0255    3.7329 N   0  0  0  0  0  0  0  0  0  0  0  0
   32.0027   31.6217    1.8962 F   0  0  0  0  0  0  0  0  0  0  0  0
   35.6602   20.5203    1.2730 C   0  0  0  0  0  0  0  0  0  0  0  0
   35.9822   21.2825    0.1348 C   0  0  0  0  0  0  0  0  0  0  0  0
   33.6655   31.8192   -2.0595 C   0  0  0  0  0  0  0  0  0  0  0  0
   34.2230   28.8479    1.9999 O   0  0  0  0  0  0  0  0  0  0  0  0
   29.9515   32.0675   -5.2407 C   0  0  0  0  0  0  0  0  0  0  0  0
   28.3964   31.8875   -7.0344 O   0  0  0  0  0  0  0  0  0  0  0  0
   34.7263   23.2599    1.1603 C   0  0  0  0  0  0  0  0  0  0  0  0
   32.5462   29.5292   -7.4554 C   0  0  0  0  0  0  0  0  0  0  0  0
   33.4922   27.9818   -0.1186 N   0  0  0  0  0  0  0  0  0  0  0  0
   33.2019   19.8324    5.0721 N   0  0  0  0  0  0  0  0  0  0  0  0
   32.8955   27.0884   -2.3968 N   0  0  0  0  0  0  0  0  0  0  0  0
   35.5143   22.6776    0.0349 C   0  0  0  0  0  0  0  0  0  0  0  0
   34.4284   22.4542    2.0934 C   0  0  0  0  0  0  0  0  0  0  0  0
   34.2755   20.2912    5.6402 C   0  0  0  0  0  0  0  0  0  0  0  0
   33.9217   27.7611    1.2226 C   0  0  0  0  0  0  0  0  0  0  0  0
   30.6092   31.0557   -7.4261 C   0  0  0  0  0  0  0  0  0  0  0  0
   30.4836   24.0524   -6.8167 C   0  0  0  0  0  0  0  0  0  0  0  0
   29.5925   31.3592   -2.9468 O   0  0  0  0  0  0  0  0  0  0  0  0
   33.6254   28.5314   -6.8444 C   0  0  0  0  0  0  0  0  0  0  0  0
   30.7246   31.3450   -8.7962 C   0  0  0  0  0  0  0  0  0  0  0  0
   32.7370   29.9162   -8.7798 C   0  0  0  0  0  0  0  0  0  0  0  0
   32.5067   24.5340   -1.1887 C   0  0  0  0  0  0  0  0  0  0  0  0
   30.9753   31.6081   -2.5561 C   0  0  0  0  0  0  0  0  0  0  0  0
  1  6  1  0
  1 20  2  0
  1 33  1  0
  2 11  1  0
  2 19  1  0
  3 23  1  0
  4  8  1  0
  4 26  1  0
  4 28  1  0
  5 28  1  0
  5 43  1  0
  5 45  2  0
  6 35  2  0
  6 47  1  0
  7 54  2  0
  7 55  1  0
  8 49  1  0
  9 25  1  0
  9 27  1  0
  9 32  1  0
 10 25  1  0
 10 51  1  0
 11 12  1  0
 11 37  2  0
 12 57  2  0
 13 22  1  0
 14 39  1  0
 14 52  1  0
 15 37  1  0
 16 22  1  0
 16 31  2  0
 16 57  1  0
 17 23  1  0
 17 27  2  0
 18 30  1  0
 19 30  1  0
 19 34  1  0
 20 48  1  0
 21 56  2  0
 22 39  1  0
 23 53  1  0
 24 42  1  0
 24 50  2  0
 26 41  1  0
 27 45  1  0
 28 56  1  0
 29 39  1  0
 29 40  1  0
 29 50  1  0
 30 38  1  0
 31 37  1  0
 32 56  1  0
 33 44  1  0
 35 36  1  0
 36 46  2  0
 38 49  1  0
 41 46  1  0
 41 47  2  0
 42 53  1  0
 42 55  2  0
 43 49  2  0
 44 48  1  0
 50 54  1  0
 52 57  1  0
M  END
>  <ID>  (1) 
conformer_0

$$$$
