
     RDKit          3D

 30 33  0  0  0  0  0  0  0  0999 V2000
   28.1333   31.7647   -6.2314 C   0  0  0  0  0  0  0  0  0  0  0  0
   33.3397   25.9534   -0.9450 C   0  0  0  0  0  0  0  0  0  0  0  0
   30.8751   31.4703   -2.3358 C   0  0  0  0  0  0  0  0  0  0  0  0
   32.6425   29.6363   -6.8711 C   0  0  0  0  0  0  0  0  0  0  0  0
   32.7180   28.3497   -2.3666 C   0  0  0  0  0  0  0  0  0  0  0  0
   33.7719   27.4934    1.1406 C   0  0  0  0  0  0  0  0  0  0  0  0
   32.4787   29.5351   -3.1809 N   0  0  0  0  0  0  0  0  0  0  0  0
   33.4663   27.2326   -0.2888 C   0  0  0  0  0  0  0  0  0  0  0  0
   32.4345   27.1078   -2.9186 C   0  0  0  0  0  0  0  0  0  0  0  0
   32.2307   31.6390   -1.7787 C   0  0  0  0  0  0  0  0  0  0  0  0
   32.0685   29.8574   -4.5604 C   0  0  0  0  0  0  0  0  0  0  0  0
   31.7860   30.8461   -9.0322 Cl  0  0  0  0  0  0  0  0  0  0  0  0
   32.9528   23.5533    0.1373 C   0  0  0  0  0  0  0  0  0  0  0  0
   33.4944   28.9079    1.6622 C   0  0  0  0  0  0  0  0  0  0  0  0
   33.2162   28.3446   -1.0412 C   0  0  0  0  0  0  0  0  0  0  0  0
   32.7545   25.9610   -2.2237 C   0  0  0  0  0  0  0  0  0  0  0  0
   35.0731   24.1964   -0.4666 C   0  0  0  0  0  0  0  0  0  0  0  0
   29.4921   32.3687   -8.3491 O   0  0  0  0  0  1  0  0  0  0  0  0
   35.1359   22.8100    0.1402 C   0  0  0  0  0  0  0  0  0  0  0  0
   31.7044   30.5651   -7.2461 C   0  0  0  0  0  0  0  0  0  0  0  0
   33.6597   30.8457   -2.6191 S   0  0  0  0  0  0  0  0  0  0  0  0
   33.6569   20.7132    1.0845 Cl  0  0  0  0  0  0  0  0  0  0  0  0
   29.9850   33.6507   -6.2250 O   0  0  0  0  0  1  0  0  0  0  0  0
   33.9125   22.4089    0.4703 C   0  0  0  0  0  0  0  0  0  0  0  0
   30.8276   31.1465   -6.2992 C   0  0  0  0  0  0  0  0  0  0  0  0
   30.9882   30.7194   -4.9760 C   0  0  0  0  0  0  0  0  0  0  0  0
   29.6102   32.3349   -6.8232 S   0  0  0  0  0  4  0  0  0  0  0  0
   33.7547   24.6882   -0.4236 C   0  0  0  0  0  0  0  0  0  0  0  0
   29.7788   31.1086   -3.6132 S   0  0  0  0  0  0  0  0  0  0  0  0
   32.8323   29.2914   -5.5380 C   0  0  0  0  0  0  0  0  0  0  0  0
  1 27  1  0
  2  8  1  0
  2 16  1  0
  2 28  1  0
  3 10  1  0
  3 29  1  0
  4 20  1  0
  4 30  2  0
  5  7  1  0
  5  9  1  0
  5 15  1  0
  6  8  1  0
  6 14  1  0
  7 11  1  0
  7 21  1  0
  8 15  2  0
  9 16  2  0
 10 21  1  0
 11 26  2  0
 11 30  1  0
 12 20  1  0
 13 24  1  0
 13 28  1  0
 17 19  1  0
 17 28  1  0
 18 27  1  0
 19 24  1  0
 20 25  2  0
 22 24  1  0
 23 27  1  0
 25 26  1  0
 25 27  1  0
 26 29  1  0
M  END
>  <ID>  (1) 
conformer_0

$$$$
