
     RDKit          3D

 37 40  0  0  0  0  0  0  0  0999 V2000
   34.6542   20.9120    1.6411 C   0  0  0  0  0  0  0  0  0  0  0  0
   30.5574   29.2119   -2.4874 C   0  0  0  0  0  0  0  0  0  0  0  0
   32.7785   29.0511   -3.9941 S   0  0  0  0  0  4  0  0  0  0  0  0
   30.3473   30.5568   -4.3240 C   0  0  0  0  0  0  0  0  0  0  0  0
   33.7371   21.5856    0.5697 C   0  0  0  0  0  0  0  0  0  0  0  0
   29.3572   30.0237   -2.3627 C   0  0  0  0  0  0  0  0  0  0  0  0
   32.4738   30.6777   -8.4517 C   0  0  0  0  0  0  0  0  0  0  0  0
   32.4940   31.2393    0.3682 C   0  0  0  0  0  0  0  0  0  0  0  0
   32.2037   30.1273   -7.1094 C   0  0  0  0  0  0  0  0  0  0  0  0
   30.0122   30.5872   -7.9845 C   0  0  0  0  0  0  0  0  0  0  0  0
   33.0552   28.0840   -2.9211 N   0  0  0  0  0  0  0  0  0  0  0  0
   30.3824   31.3232   -5.6429 C   0  0  0  0  0  0  0  0  0  0  0  0
   32.2009   25.6205   -1.1177 C   0  0  0  0  0  0  0  0  0  0  0  0
   31.0817   31.0457   -9.0466 C   0  0  0  0  0  0  0  0  0  0  0  0
   32.8226   28.3419   -5.1394 O   0  0  0  0  0  1  0  0  0  0  0  0
   34.8212   25.1146   -0.3582 C   0  0  0  0  0  0  0  0  0  0  0  0
   33.9052   24.0719   -0.2308 C   0  0  0  0  0  0  0  0  0  0  0  0
   32.6001   24.3387   -0.6130 C   0  0  0  0  0  0  0  0  0  0  0  0
   33.9483   28.9656    1.8246 C   0  0  0  0  0  0  0  0  0  0  0  0
   31.2345   29.5961   -3.6617 C   0  0  0  0  0  0  0  0  0  0  0  0
   31.3965   32.5435   -5.4701 C   0  0  0  0  0  0  0  0  0  0  0  0
   33.1554   26.6339   -1.1707 C   0  0  0  0  0  0  0  0  0  0  0  0
   33.7731   28.5539    0.5888 C   0  0  0  0  0  0  0  0  0  0  0  0
   29.2742   30.8031   -3.5024 C   0  0  0  0  0  0  0  0  0  0  0  0
   32.7625   27.9744   -1.5591 C   0  0  0  0  0  0  0  0  0  0  0  0
   34.3554   22.8039    0.1937 C   0  0  0  0  0  0  0  0  0  0  0  0
   35.6391   21.7569    1.9478 O   0  0  0  0  0  0  0  0  0  0  0  0
   29.1537   31.8750   -5.9329 O   0  0  0  0  0  0  0  0  0  0  0  0
   33.7049   30.1335   -3.8925 O   0  0  0  0  0  1  0  0  0  0  0  0
   33.9388   20.1702    2.6505 C   0  0  0  0  0  0  0  0  0  0  0  0
   33.4247   30.1291    2.3630 C   0  0  0  0  0  0  0  0  0  0  0  0
   34.4626   26.3317   -0.8626 C   0  0  0  0  0  0  0  0  0  0  0  0
   30.7997   30.4806   -6.7296 N   0  0  0  0  0  0  0  0  0  0  0  0
   32.7313   31.1031    1.7124 C   0  0  0  0  0  0  0  0  0  0  0  0
   33.4148   30.1237   -9.4636 C   0  0  0  0  0  0  0  0  0  0  0  0
   32.6632   30.3209   -0.6029 C   0  0  0  0  0  0  0  0  0  0  0  0
   33.0659   28.9832   -0.5190 C   0  0  0  0  0  0  0  0  0  0  0  0
  1  5  1  0
  1 27  1  0
  1 30  1  0
  2  6  1  0
  2 20  1  0
  3 11  1  0
  3 15  1  0
  3 20  1  0
  3 29  1  0
  4 12  1  0
  4 20  2  0
  4 24  1  0
  5 26  1  0
  6 24  1  0
  7  9  1  0
  7 14  1  0
  7 35  1  0
  8 34  1  0
  8 36  2  0
  9 33  1  0
 10 14  1  0
 10 33  1  0
 11 25  1  0
 12 21  1  0
 12 28  1  0
 12 33  1  0
 13 18  2  0
 13 22  1  0
 16 17  2  0
 16 32  1  0
 17 18  1  0
 17 26  1  0
 19 23  2  0
 19 31  1  0
 22 25  1  0
 22 32  2  0
 23 37  1  0
 25 37  1  0
 31 34  2  0
 36 37  1  0
M  END
>  <ID>  (1) 
conformer_0

$$$$
