
     RDKit          3D

 41 48  0  0  0  0  0  0  0  0999 V2000
   31.9701   28.6621   -2.3115 N   0  0  0  0  0  0  0  0  0  0  0  0
   32.8028   28.5374   -4.3905 O   0  0  0  0  0  0  0  0  0  0  0  0
   33.9861   26.8249    0.0766 C   0  0  0  0  0  0  0  0  0  0  0  0
   31.5599   30.9999   -9.4920 C   0  0  0  0  0  0  0  0  0  0  0  0
   33.7889   30.4926    2.7084 C   0  0  0  0  0  0  0  0  0  0  0  0
   33.4390   28.0282   -0.4365 C   0  0  0  0  0  0  0  0  0  0  0  0
   35.3664   23.5610   -0.5467 C   0  0  0  0  0  0  0  0  0  0  0  0
   36.1384   22.4845   -0.0907 C   0  0  0  0  0  0  0  0  0  0  0  0
   31.7984   33.2818   -3.4789 O   0  0  0  0  0  1  0  0  0  0  0  0
   31.9346   29.3368   -3.6426 C   0  0  0  0  0  0  0  0  0  0  0  0
   29.6431   30.4657   -3.7392 C   0  0  0  0  0  0  0  0  0  0  0  0
   32.6400   30.7572    1.8028 C   0  0  0  0  0  0  0  0  0  0  0  0
   31.5140   31.1415   -2.1055 C   0  0  0  0  0  0  0  0  0  0  0  0
   32.8049   30.2212    0.4830 C   0  0  0  0  0  0  0  0  0  0  0  0
   30.7901   30.7461   -7.2128 C   0  0  0  0  0  0  0  0  0  0  0  0
   33.7119   30.0448  -10.1475 C   0  0  0  0  0  0  0  0  0  0  0  0
   29.7596   31.1032   -6.1374 C   0  0  0  0  0  0  0  0  0  0  0  0
   33.4272   22.4995    0.4346 C   0  0  0  0  0  0  0  0  0  0  0  0
   33.6667   25.8762   -0.9238 N   0  0  0  0  0  0  0  0  0  0  0  0
   30.0270   31.0600   -2.3346 C   0  0  0  0  0  0  0  0  0  0  0  0
   34.5099   27.1579    1.3557 N   0  0  0  0  0  0  0  0  0  0  0  0
   32.1376   30.8197   -0.7565 C   0  0  0  0  0  0  0  0  0  0  0  0
   33.9947   23.5499   -0.2706 C   0  0  0  0  0  0  0  0  0  0  0  0
   30.5722   31.2311   -8.5210 C   0  0  0  0  0  0  0  0  0  0  0  0
   31.8967   30.0265   -6.9616 C   0  0  0  0  0  0  0  0  0  0  0  0
   30.6007   29.6095   -4.3979 C   0  0  0  0  0  0  0  0  0  0  0  0
   33.5546   29.0447    0.4537 C   0  0  0  0  0  0  0  0  0  0  0  0
   35.5537   21.3760    0.5380 C   0  0  0  0  0  0  0  0  0  0  0  0
   33.6227   20.2723    1.2809 F   0  0  0  0  0  0  0  0  0  0  0  0
   34.1887   21.3802    0.7762 C   0  0  0  0  0  0  0  0  0  0  0  0
   34.4473   29.2239    2.7140 C   0  0  0  0  0  0  0  0  0  0  0  0
   31.4936   33.1302   -5.5827 O   0  0  0  0  0  1  0  0  0  0  0  0
   34.2399   28.4852    1.5707 C   0  0  0  0  0  0  0  0  0  0  0  0
   31.5443   32.2016   -4.4080 S   0  0  0  0  0  4  0  0  0  0  0  0
   32.8479   27.8328   -1.6677 C   0  0  0  0  0  0  0  0  0  0  0  0
   32.3182   30.8793   -3.3900 C   0  0  0  0  0  0  0  0  0  0  0  0
   32.7007   30.2852   -9.1467 C   0  0  0  0  0  0  0  0  0  0  0  0
   30.4260   31.0679   -4.7745 N   0  0  0  0  0  0  0  0  0  0  0  0
   33.0045   26.4975   -2.0476 C   0  0  0  0  0  0  0  0  0  0  0  0
   33.1351   24.6005   -0.7791 C   0  0  0  0  0  0  0  0  0  0  0  0
   32.8820   29.7969   -7.8809 C   0  0  0  0  0  0  0  0  0  0  0  0
  1 10  1  0
  1 35  1  0
  2 10  1  0
  3  6  1  0
  3 19  1  0
  3 21  2  0
  4 24  2  0
  4 37  1  0
  5 12  1  0
  5 31  1  0
  6 27  1  0
  6 35  2  0
  7  8  2  0
  7 23  1  0
  8 28  1  0
  9 34  1  0
 10 26  1  0
 10 36  1  0
 11 20  1  0
 11 26  1  0
 11 38  1  0
 12 14  1  0
 13 20  1  0
 13 22  2  0
 13 36  1  0
 14 22  2  0
 14 27  1  0
 15 17  1  0
 15 24  1  0
 15 25  2  0
 16 37  1  0
 17 38  1  0
 18 23  2  0
 18 30  1  0
 19 39  1  0
 19 40  1  0
 21 33  1  0
 23 40  1  0
 25 41  1  0
 27 33  2  0
 28 30  2  0
 29 30  1  0
 31 33  1  0
 32 34  1  0
 34 36  1  0
 34 38  1  0
 35 39  1  0
 37 41  2  0
M  END
>  <ID>  (1) 
conformer_0

$$$$
