
     RDKit          3D

 32 36  0  0  0  0  0  0  0  0999 V2000
   31.3431   31.2096   -8.9122 C   0  0  0  0  0  0  0  0  0  0  0  0
   33.4198   28.9284    1.7473 C   0  0  0  0  0  0  0  0  0  0  0  0
   32.6235   30.3445   -8.9898 C   0  0  0  0  0  0  0  0  0  0  0  0
   31.1898   30.0363   -4.6576 C   0  0  0  0  0  0  0  0  0  0  0  0
   33.4771   24.6388   -0.5555 C   0  0  0  0  0  0  0  0  0  0  0  0
   33.1356   23.3677   -0.0242 C   0  0  0  0  0  0  0  0  0  0  0  0
   31.1875   30.2250   -5.9651 C   0  0  0  0  0  0  0  0  0  0  0  0
   33.0721   28.1908   -0.4930 C   0  0  0  0  0  0  0  0  0  0  0  0
   35.3454   23.3226   -0.0269 C   0  0  0  0  0  0  0  0  0  0  0  0
   32.2410   29.2068   -4.3852 C   0  0  0  0  0  0  0  0  0  0  0  0
   32.5423   29.9050   -2.1803 C   0  0  0  0  0  0  0  0  0  0  0  0
   32.9994   29.5539   -7.8239 C   0  0  0  0  0  0  0  0  0  0  0  0
   33.4694   27.9100    0.8233 C   0  0  0  0  0  0  0  0  0  0  0  0
   32.9347   28.9005   -5.4650 N   0  0  0  0  0  0  0  0  0  0  0  0
   32.2877   29.5992   -6.5037 C   0  0  0  0  0  0  0  0  0  0  0  0
   32.6717   27.4274   -2.7587 C   0  0  0  0  0  0  0  0  0  0  0  0
   32.7374   30.5174    0.1498 C   0  0  0  0  0  0  0  0  0  0  0  0
   32.6137   25.6999   -0.9888 C   0  0  0  0  0  0  0  0  0  0  0  0
   33.1223   20.6503    0.9380 O   0  0  0  0  0  0  0  0  0  0  0  0
   32.6019   28.7714   -3.0732 C   0  0  0  0  0  0  0  0  0  0  0  0
   34.8985   24.6613   -0.5956 O   0  0  0  0  0  0  0  0  0  0  0  0
   30.1371   30.6534   -3.7774 C   0  0  0  0  0  0  0  0  0  0  0  0
   30.0411   30.9771   -6.6135 C   0  0  0  0  0  0  0  0  0  0  0  0
   32.6067   31.3732   -2.4453 C   0  0  0  0  0  0  0  0  0  0  0  0
   31.3371   25.4132   -1.0192 O   0  0  0  0  0  0  0  0  0  0  0  0
   34.2407   21.2364    0.8700 C   0  0  0  0  0  0  0  0  0  0  0  0
   35.3220   20.7298    1.2543 O   0  0  0  0  0  0  0  0  0  0  0  0
   34.2402   22.5893    0.2993 C   0  0  0  0  0  0  0  0  0  0  0  0
   33.0305   27.0565   -1.4060 C   0  0  0  0  0  0  0  0  0  0  0  0
   33.0591   30.1870    1.4257 C   0  0  0  0  0  0  0  0  0  0  0  0
   32.7784   29.5321   -0.8234 C   0  0  0  0  0  0  0  0  0  0  0  0
   30.0647   30.8247   -8.0888 C   0  0  0  0  0  0  0  0  0  0  0  0
  1  3  1  0
  1 32  1  0
  2 13  2  0
  2 30  1  0
  3 12  2  0
  4  7  1  0
  4 10  2  0
  4 22  1  0
  5  6  1  0
  5 18  2  3
  5 21  1  0
  6 28  1  0
  7 15  2  0
  7 23  1  0
  8 13  1  0
  8 29  1  0
  8 31  2  0
  9 21  1  0
  9 28  1  0
 10 14  1  0
 10 20  1  0
 11 20  1  0
 11 24  1  0
 11 31  1  0
 12 15  1  0
 14 15  1  0
 16 20  1  0
 16 29  1  0
 17 30  2  0
 17 31  1  0
 18 25  1  0
 18 29  1  0
 19 26  2  0
 23 32  1  0
 26 27  1  0
 26 28  1  0
M  END
>  <ID>  (1) 
conformer_0

$$$$
