
     RDKit          3D

 31 35  0  0  0  0  0  0  0  0999 V2000
   32.6466   31.4508    1.0225 O   0  0  0  0  0  0  0  0  0  0  0  0
   32.6564   28.1018   -2.2203 N   0  0  0  0  0  0  0  0  0  0  0  0
   33.3387   27.4119   -0.0901 C   0  0  0  0  0  0  0  0  0  0  0  0
   31.9189   30.6341   -5.3357 C   0  0  0  0  0  0  0  0  0  0  0  0
   32.7223   26.6030   -2.1787 C   0  0  0  0  0  0  0  0  0  0  0  0
   32.9061   30.1995    0.7039 C   0  0  0  0  0  0  0  0  0  0  0  0
   32.2374   25.8035   -3.1677 C   0  0  0  0  0  0  0  0  0  0  0  0
   33.2136   26.1011   -0.9340 C   0  0  0  0  0  0  0  0  0  0  0  0
   32.6120   29.8036   -0.5801 C   0  0  0  0  0  0  0  0  0  0  0  0
   33.6469   27.8887    1.1882 C   0  0  0  0  0  0  0  0  0  0  0  0
   33.2011   24.5429   -1.0179 C   0  0  0  0  0  0  0  0  0  0  0  0
   32.4357   29.6087   -2.8811 C   0  0  0  0  0  0  0  0  0  0  0  0
   33.6481   29.8700   -3.4319 O   0  0  0  0  0  0  0  0  0  0  0  0
   32.5845   23.6907   -1.9933 C   0  0  0  0  0  0  0  0  0  0  0  0
   33.3677   22.5937    0.5133 O   0  0  0  0  0  0  0  0  0  0  0  0
   32.8016   29.9830   -8.0025 C   0  0  0  0  0  0  0  0  0  0  0  0
   31.7658   31.0872   -7.8337 C   0  0  0  0  0  0  0  0  0  0  0  0
   31.4159   30.0334   -4.0295 C   0  0  0  0  0  0  0  0  0  0  0  0
   32.1044   24.3173   -3.0911 C   0  0  0  0  0  0  0  0  0  0  0  0
   31.4569   23.6473   -4.1055 O   0  0  0  0  0  0  0  0  0  0  0  0
   29.9209   32.0869   -6.2957 C   0  0  0  0  0  0  0  0  0  0  0  0
   33.4922   29.8861   -9.2819 C   0  0  0  0  0  0  0  0  0  0  0  0
   30.9091   31.2974   -1.9305 C   0  0  0  0  0  0  0  0  0  0  0  0
   32.9069   28.4882   -0.9123 C   0  0  0  0  0  0  0  0  0  0  0  0
   33.9085   23.7607    0.0766 C   0  0  0  0  0  0  0  0  0  0  0  0
   30.2966   30.7507   -3.2611 C   0  0  0  0  0  0  0  0  0  0  0  0
   30.7181   31.1196   -8.9589 C   0  0  0  0  0  0  0  0  0  0  0  0
   32.0839   30.4188   -1.6790 C   0  0  0  0  0  0  0  0  0  0  0  0
   33.4371   29.2772    1.5810 C   0  0  0  0  0  0  0  0  0  0  0  0
   35.3352   23.9393    0.0111 C   0  0  0  0  0  0  0  0  0  0  0  0
   31.1504   31.1912   -6.4751 C   0  0  0  0  0  0  0  0  0  0  0  0
  1  6  1  0
  2  5  1  0
  2 12  1  0
  2 24  1  0
  3  8  1  0
  3 10  1  0
  3 24  2  0
  4 18  1  0
  4 31  1  0
  5  7  2  0
  5  8  1  0
  6  9  2  0
  6 29  1  0
  7 19  1  0
  8 11  1  0
  9 24  1  0
  9 28  1  0
 10 29  2  0
 11 14  1  0
 11 25  1  0
 12 13  1  0
 12 18  1  0
 12 28  1  0
 14 19  2  0
 15 25  1  0
 16 17  1  0
 16 22  1  0
 17 27  1  0
 17 31  1  0
 18 26  1  0
 19 20  1  0
 21 31  1  0
 23 26  1  0
 23 28  1  0
 25 30  1  0
M  END
>  <ID>  (1) 
conformer_0

$$$$
