
     RDKit          3D

 33 36  0  0  0  0  0  0  0  0999 V2000
   33.0346   27.8545   -1.1749 C   0  0  0  0  0  0  0  0  0  0  0  0
   33.6309   21.3289    0.9098 C   0  0  0  0  0  0  0  0  0  0  0  0
   29.9162   30.5317   -4.4738 C   0  0  0  0  0  0  0  0  0  0  0  0
   32.8194   29.7486   -6.5200 O   0  0  0  0  0  0  0  0  0  0  0  0
   32.7516   29.1906   -1.6317 C   0  0  0  0  0  0  0  0  0  0  0  0
   30.6687   30.8025   -2.1927 N   0  0  0  0  0  0  0  0  0  0  0  0
   31.3012   29.5888   -1.6750 C   0  0  0  0  0  0  0  0  0  0  0  0
   34.7009   23.4174    0.0918 C   0  0  0  0  0  0  0  0  0  0  0  0
   33.3175   29.9872    2.5926 Cl  0  0  0  0  0  0  0  0  0  0  0  0
   32.7109   26.8502   -2.0684 C   0  0  0  0  0  0  0  0  0  0  0  0
   33.3464   23.9124   -0.0556 O   0  0  0  0  0  0  0  0  0  0  0  0
   32.9671   30.8930    0.3795 C   0  0  0  0  0  0  0  0  0  0  0  0
   33.7675   26.2252    0.4376 C   0  0  0  0  0  0  0  0  0  0  0  0
   33.2861   25.2354   -0.4428 C   0  0  0  0  0  0  0  0  0  0  0  0
   29.0090   31.0728   -5.4028 C   0  0  0  0  0  0  0  0  0  0  0  0
   33.6022   30.3913   -1.9977 C   0  0  0  0  0  0  0  0  0  0  0  0
   34.0589   28.5536    0.8565 O   0  0  0  0  0  0  0  0  0  0  0  0
   32.3517   27.1190   -3.4362 Cl  0  0  0  0  0  0  0  0  0  0  0  0
   32.8029   25.5568   -1.7327 C   0  0  0  0  0  0  0  0  0  0  0  0
   30.1520   31.0447   -9.5302 O   0  0  0  0  0  0  0  0  0  0  0  0
   31.0024   30.6436   -8.5896 C   0  0  0  0  0  0  0  0  0  0  0  0
   31.1376   30.1004   -4.9056 C   0  0  0  0  0  0  0  0  0  0  0  0
   32.9573   31.5259   -1.0506 C   0  0  0  0  0  0  0  0  0  0  0  0
   29.4851   30.4487   -3.0274 C   0  0  0  0  0  0  0  0  0  0  0  0
   30.6327   30.6483   -7.1823 C   0  0  0  0  0  0  0  0  0  0  0  0
   32.4263   30.2404   -8.8745 C   0  0  0  0  0  0  0  0  0  0  0  0
   34.1672   20.5888    2.1154 C   0  0  0  0  0  0  0  0  0  0  0  0
   34.6793   21.9052    0.0625 C   0  0  0  0  0  0  0  0  0  0  0  0
   33.6160   27.5467    0.0610 C   0  0  0  0  0  0  0  0  0  0  0  0
   33.1396   29.4554   -7.8041 C   0  0  0  0  0  0  0  0  0  0  0  0
   33.5770   29.7713    1.2039 C   0  0  0  0  0  0  0  0  0  0  0  0
   29.3744   31.1409   -6.7671 C   0  0  0  0  0  0  0  0  0  0  0  0
   31.5282   30.1708   -6.2199 C   0  0  0  0  0  0  0  0  0  0  0  0
  1  5  1  0
  1 10  1  0
  1 29  1  0
  2 27  1  0
  2 28  1  0
  3 15  2  0
  3 22  1  0
  3 24  1  0
  4 30  1  0
  4 33  1  0
  5  7  2  3
  5 16  1  0
  6  7  1  0
  6 24  1  0
  8 11  1  0
  8 28  1  0
  9 31  1  0
 10 18  1  0
 10 19  2  0
 11 14  1  0
 12 23  1  0
 12 31  1  0
 13 14  1  0
 13 29  2  0
 14 19  1  0
 15 32  1  0
 16 23  1  0
 17 29  1  0
 17 31  1  0
 20 21  1  0
 21 25  2  0
 21 26  1  0
 22 33  2  0
 25 32  1  0
 25 33  1  0
 26 30  1  0
M  END
>  <ID>  (1) 
conformer_0

$$$$
