
     RDKit          3D

 31 35  0  0  0  0  0  0  0  0999 V2000
   30.3321   30.8428   -7.1768 C   0  0  0  0  0  0  0  0  0  0  0  0
   32.6844   31.0472   -0.2610 C   0  0  0  0  0  0  0  0  0  0  0  0
   33.9238   22.9685    0.1886 C   0  0  0  0  0  0  0  0  0  0  0  0
   32.2767   31.0956   -1.5769 C   0  0  0  0  0  0  0  0  0  0  0  0
   32.5130   29.9111   -6.5727 C   0  0  0  0  0  0  0  0  0  0  0  0
   32.9077   30.1282   -7.8911 C   0  0  0  0  0  0  0  0  0  0  0  0
   33.5780   27.6174    0.0885 C   0  0  0  0  0  0  0  0  0  0  0  0
   30.7514   31.0706   -8.5088 C   0  0  0  0  0  0  0  0  0  0  0  0
   33.5894   21.4846    0.5310 C   0  0  0  0  0  0  0  0  0  0  0  0
   34.0504   20.8045    1.7555 C   0  0  0  0  0  0  0  0  0  0  0  0
   31.1904   30.2676   -6.1805 C   0  0  0  0  0  0  0  0  0  0  0  0
   32.4086   27.2517   -3.8633 O   0  0  0  0  0  0  0  0  0  0  0  0
   32.1120   29.9315   -2.4417 C   0  0  0  0  0  0  0  0  0  0  0  0
   29.8959   31.6807   -9.4744 O   0  0  0  0  0  0  0  0  0  0  0  0
   32.5787   28.6804   -1.9327 C   0  0  0  0  0  0  0  0  0  0  0  0
   29.2545   30.0539   -4.5199 C   0  0  0  0  0  0  0  0  0  0  0  0
   32.7664   24.9734   -2.4531 N   0  0  0  0  0  0  0  0  0  0  0  0
   31.4814   31.9268   -3.5355 C   0  0  0  0  0  0  0  0  0  0  0  0
   33.1188   29.8701    0.2321 C   0  0  0  0  0  0  0  0  0  0  0  0
   33.0006   26.2599   -1.8029 C   0  0  0  0  0  0  0  0  0  0  0  0
   34.0505   28.0480    1.3220 C   0  0  0  0  0  0  0  0  0  0  0  0
   30.7741   29.9589   -4.7799 C   0  0  0  0  0  0  0  0  0  0  0  0
   32.6124   23.6307   -1.9214 C   0  0  0  0  0  0  0  0  0  0  0  0
   32.7291   23.7845   -0.3242 C   0  0  0  0  0  0  0  0  0  0  0  0
   32.6584   27.3956   -2.6192 C   0  0  0  0  0  0  0  0  0  0  0  0
   31.5187   30.4623   -3.6567 C   0  0  0  0  0  0  0  0  0  0  0  0
   33.7229   29.4998    1.4317 C   0  0  0  0  0  0  0  0  0  0  0  0
   33.4920   26.4142   -0.5308 C   0  0  0  0  0  0  0  0  0  0  0  0
   33.0598   28.7185   -0.6116 N   0  0  0  0  0  0  0  0  0  0  0  0
   32.0683   30.7234   -8.8549 C   0  0  0  0  0  0  0  0  0  0  0  0
   31.9304   32.2829   -2.2570 C   0  0  0  0  0  0  0  0  0  0  0  0
  1  8  2  0
  1 11  1  0
  2  4  1  0
  2 19  2  0
  3  9  1  0
  3 24  1  0
  4 13  2  0
  4 31  1  0
  5  6  1  0
  5 11  2  0
  6 30  2  0
  7 21  1  0
  7 28  2  0
  7 29  1  0
  8 14  1  0
  8 30  1  0
  9 10  1  0
 11 22  1  0
 12 25  2  0
 13 15  1  0
 13 26  1  0
 15 25  1  0
 15 29  1  0
 16 22  1  0
 17 20  1  0
 17 23  1  0
 18 26  1  0
 18 31  1  0
 19 27  1  0
 19 29  1  0
 20 25  1  0
 20 28  1  0
 21 27  1  0
 22 26  1  0
 23 24  1  0
M  END
>  <ID>  (1) 
conformer_0

$$$$
