
     RDKit          3D

 31 35  0  0  0  0  0  0  0  0999 V2000
   34.4534   21.9306    0.4400 C   0  0  0  0  0  0  0  0  0  0  0  0
   31.3914   30.2793   -6.1847 C   0  0  0  0  0  0  0  0  0  0  0  0
   32.5413   30.0109   -8.2132 C   0  0  0  0  0  0  0  0  0  0  0  0
   30.2643   29.7457   -2.6756 C   0  0  0  0  0  0  0  0  0  0  0  0
   30.3999   31.0843   -8.2606 C   0  0  0  0  0  0  0  0  0  0  0  0
   34.4375   25.5102   -0.3266 C   0  0  0  0  0  0  0  0  0  0  0  0
   33.2756   29.1791    1.0885 C   0  0  0  0  0  0  0  0  0  0  0  0
   32.6201   31.4255    1.2378 C   0  0  0  0  0  0  0  0  0  0  0  0
   31.5937   29.0825   -2.8027 C   0  0  0  0  0  0  0  0  0  0  0  0
   32.9876   30.2203    2.0220 S   0  0  0  0  0  0  0  0  0  0  0  0
   32.2917   28.1601   -1.9315 N   0  0  0  0  0  0  0  0  0  0  0  0
   31.5436   30.6102   -8.8974 C   0  0  0  0  0  0  0  0  0  0  0  0
   33.6036   24.3891   -0.1838 C   0  0  0  0  0  0  0  0  0  0  0  0
   32.5212   29.8766   -6.8670 C   0  0  0  0  0  0  0  0  0  0  0  0
   35.7764   21.5445   -0.1909 C   0  0  0  0  0  0  0  0  0  0  0  0
   32.7025   26.8783   -1.3417 C   0  0  0  0  0  0  0  0  0  0  0  0
   33.0943   29.7187   -0.2476 C   0  0  0  0  0  0  0  0  0  0  0  0
   33.6172   29.4740   -8.8752 F   0  0  0  0  0  0  0  0  0  0  0  0
   33.4481   29.1365   -1.4883 C   0  0  0  0  0  0  0  0  0  0  0  0
   31.8194   25.8192   -1.2016 C   0  0  0  0  0  0  0  0  0  0  0  0
   34.0055   26.6876   -0.8821 C   0  0  0  0  0  0  0  0  0  0  0  0
   29.2150   31.3168   -6.1251 C   0  0  0  0  0  0  0  0  0  0  0  0
   31.2824   30.0290   -4.8334 C   0  0  0  0  0  0  0  0  0  0  0  0
   34.0427   23.1992    0.2889 N   0  0  0  0  0  0  0  0  0  0  0  0
   33.8863   21.0113    1.1001 O   0  0  0  0  0  0  0  0  0  0  0  0
   32.7108   31.0895   -0.1289 C   0  0  0  0  0  0  0  0  0  0  0  0
   29.1384   31.0474   -4.7351 C   0  0  0  0  0  0  0  0  0  0  0  0
   32.2669   24.5839   -0.5878 C   0  0  0  0  0  0  0  0  0  0  0  0
   30.3331   30.8982   -6.8600 C   0  0  0  0  0  0  0  0  0  0  0  0
   32.1918   29.4332   -4.0070 N   0  0  0  0  0  0  0  0  0  0  0  0
   30.1193   30.3631   -4.1214 C   0  0  0  0  0  0  0  0  0  0  0  0
  1 15  1  0
  1 24  1  0
  1 25  2  0
  2 14  2  0
  2 23  1  0
  2 29  1  0
  3 12  2  0
  3 14  1  0
  3 18  1  0
  4  9  1  0
  4 31  1  0
  5 12  1  0
  5 29  2  0
  6 13  2  0
  6 21  1  0
  7 10  1  0
  7 17  1  0
  8 10  1  0
  8 26  1  0
  9 11  1  0
  9 30  2  0
 11 16  1  0
 11 19  1  0
 13 24  1  0
 13 28  1  0
 16 20  1  0
 16 21  2  0
 17 19  1  0
 17 26  1  0
 20 28  2  0
 22 27  2  0
 22 29  1  0
 23 30  1  0
 23 31  2  0
 27 31  1  0
M  END
>  <ID>  (1) 
conformer_0

$$$$
