
     RDKit          3D

 42 47  0  0  0  0  0  0  0  0999 V2000
   28.9123   30.4863   -4.7341 O   0  0  0  0  0  0  0  0  0  0  0  0
   33.1776   31.4661   -5.6174 C   0  0  0  0  0  0  0  0  0  0  0  0
   34.8764   20.3873    2.3138 C   0  0  0  0  0  0  0  0  0  0  0  0
   29.0890   30.2495   -1.8824 C   0  0  0  0  0  0  0  0  0  0  0  0
   33.3804   29.2312    2.2538 C   0  0  0  0  0  0  0  0  0  0  0  0
   35.6265   23.7776   -0.6379 C   0  0  0  0  0  0  0  0  0  0  0  0
   31.0460   31.8576   -4.2886 C   0  0  0  0  0  0  0  0  0  0  0  0
   31.0749   31.7974   -7.6476 C   0  0  0  0  0  0  0  0  0  0  0  0
   31.8271   29.4170   -7.1219 C   0  0  0  0  0  0  0  0  0  0  0  0
   30.9195   30.7073   -6.5706 C   0  0  0  0  0  0  0  0  0  0  0  0
   31.2741   30.9526   -8.9651 C   0  0  0  0  0  0  0  0  0  0  0  0
   31.7645   30.8990   -5.2740 C   0  0  0  0  0  0  0  0  0  0  0  0
   32.8328   26.2976   -1.2039 C   0  0  0  0  0  0  0  0  0  0  0  0
   31.8438   31.4327   -2.9280 C   0  0  0  0  0  0  0  0  0  0  0  0
   33.2969   24.1513   -0.3198 C   0  0  0  0  0  0  0  0  0  0  0  0
   35.5306   22.4902   -0.1279 O   0  0  0  0  0  0  0  0  0  0  0  0
   34.5910   24.7874   -0.6403 C   0  0  0  0  0  0  0  0  0  0  0  0
   32.1654   29.8957   -3.0920 C   0  0  0  0  0  0  0  0  0  0  0  0
   30.7261   33.0050   -5.3922 C   0  0  0  0  0  0  0  0  0  0  0  0
   34.0169   20.9272    1.2595 C   0  0  0  0  0  0  0  0  0  0  0  0
   31.9029   27.4104   -1.4418 C   0  0  0  0  0  0  0  0  0  0  0  0
   32.5878   31.3925    0.2947 C   0  0  0  0  0  0  0  0  0  0  0  0
   31.9069   29.4948   -4.5633 C   0  0  0  0  0  0  0  0  0  0  0  0
   32.3271   28.6560   -5.8849 C   0  0  0  0  0  0  0  0  0  0  0  0
   32.2709   29.8124   -8.4757 C   0  0  0  0  0  0  0  0  0  0  0  0
   29.1661   31.6106   -2.5204 C   0  0  0  0  0  0  0  0  0  0  0  0
   33.8769   20.0264    3.4663 C   0  0  0  0  0  0  0  0  0  0  0  0
   31.3032   27.3262   -2.6445 O   0  0  0  0  0  0  0  0  0  0  0  0
   33.6469   30.7503    2.4534 C   0  0  0  0  0  0  0  0  0  0  0  0
   33.9227   29.8884   -1.2072 C   0  0  0  0  0  0  0  0  0  0  0  0
   33.5035   29.7245   -9.2415 C   0  0  0  0  0  0  0  0  0  0  0  0
   32.2250   25.0718   -0.6746 C   0  0  0  0  0  0  0  0  0  0  0  0
   31.8497   28.5647   -0.4485 C   0  0  0  0  0  0  0  0  0  0  0  0
   32.6197   29.8655   -0.1793 C   0  0  0  0  0  0  0  0  0  0  0  0
   34.5608   28.4525    1.7633 C   0  0  0  0  0  0  0  0  0  0  0  0
   34.3292   22.1794    0.4695 C   0  0  0  0  0  0  0  0  0  0  0  0
   30.1278   32.1051   -6.6062 C   0  0  0  0  0  0  0  0  0  0  0  0
   29.6029   31.3536   -3.9828 C   0  0  0  0  0  0  0  0  0  0  0  0
   32.5725   31.6088    1.7821 C   0  0  0  0  0  0  0  0  0  0  0  0
   33.2173   22.9607    0.2264 N   0  0  0  0  0  0  0  0  0  0  0  0
   33.4517   29.2905   -2.5127 C   0  0  0  0  0  0  0  0  0  0  0  0
   34.2725   26.1699   -1.0872 C   0  0  0  0  0  0  0  0  0  0  0  0
  1 38  1  0
  2 12  1  0
  3 20  1  0
  3 27  1  0
  4 26  1  0
  5 29  1  0
  5 35  1  0
  6 16  1  0
  6 17  2  0
  7 12  1  0
  7 14  1  0
  7 19  1  0
  7 38  1  0
  8 10  1  0
  8 11  1  0
  8 37  1  0
  9 10  1  0
  9 24  1  0
  9 25  1  0
 10 12  1  0
 11 25  1  0
 12 23  1  0
 13 21  1  0
 13 32  1  0
 13 42  1  0
 14 18  1  0
 15 17  1  0
 15 32  1  0
 15 40  2  0
 16 36  1  0
 17 42  1  0
 18 23  1  0
 18 41  1  0
 19 37  1  0
 20 36  1  0
 21 28  1  0
 21 33  1  0
 22 34  1  0
 22 39  1  0
 23 24  1  0
 25 31  1  0
 26 38  1  0
 29 39  1  0
 30 34  1  0
 30 41  1  0
 33 34  1  0
 36 40  1  0
M  END
>  <ID>  (1) 
conformer_0

$$$$
