
     RDKit          3D

 44 51  0  0  0  0  0  0  0  0999 V2000
   33.3340   28.6160   -2.8396 C   0  0  0  0  0  0  0  0  0  0  0  0
   32.1903   29.0200   -3.8561 C   0  0  0  0  0  0  0  0  0  0  0  0
   33.0529   28.7803   -1.4827 C   0  0  0  0  0  0  0  0  0  0  0  0
   30.9149   31.0414   -6.8980 C   0  0  0  0  0  0  0  0  0  0  0  0
   30.0637   30.9951   -9.2892 C   0  0  0  0  0  0  0  0  0  0  0  0
   32.0031   29.5966   -8.6049 C   0  0  0  0  0  0  0  0  0  0  0  0
   34.6767   28.6311   -3.3132 C   0  0  0  0  0  0  0  0  0  0  0  0
   31.2654   30.4563   -2.0203 C   0  0  0  0  0  0  0  0  0  0  0  0
   32.0004   27.6094   -7.2707 O   0  0  0  0  0  0  0  0  0  0  0  0
   33.6195   29.9537    2.4030 C   0  0  0  0  0  0  0  0  0  0  0  0
   32.8226   32.1358    1.9032 C   0  0  0  0  0  0  0  0  0  0  0  0
   33.3003   29.5767    1.0939 C   0  0  0  0  0  0  0  0  0  0  0  0
   32.1882   30.0064   -4.9457 C   0  0  0  0  0  0  0  0  0  0  0  0
   30.0172   30.5634   -4.0778 C   0  0  0  0  0  0  0  0  0  0  0  0
   31.9762   25.4027   -1.1398 O   0  0  0  0  0  0  0  0  0  0  0  0
   33.7048   20.2407    2.1674 O   0  0  0  0  0  0  0  0  0  0  0  0
   33.4333   27.8613   -0.4914 C   0  0  0  0  0  0  0  0  0  0  0  0
   29.3774   31.0965   -6.6395 C   0  0  0  0  0  0  0  0  0  0  0  0
   33.3973   31.2458    2.7768 C   0  0  0  0  0  0  0  0  0  0  0  0
   31.3240   31.0052   -8.3466 C   0  0  0  0  0  0  0  0  0  0  0  0
   30.1497   29.5618   -1.5458 C   0  0  0  0  0  0  0  0  0  0  0  0
   31.9319   28.8655   -7.3306 C   0  0  0  0  0  0  0  0  0  0  0  0
   29.0468   30.0176   -2.7497 C   0  0  0  0  0  0  0  0  0  0  0  0
   34.7779   20.9529    1.6534 C   0  0  0  0  0  0  0  0  0  0  0  0
   33.1205   25.3975   -0.4777 C   0  0  0  0  0  0  0  0  0  0  0  0
   32.0027   27.7050   -4.4551 O   0  0  0  0  0  0  0  0  0  0  0  0
   32.2758   32.0817   -8.8724 C   0  0  0  0  0  0  0  0  0  0  0  0
   29.0217   30.5121   -5.2582 C   0  0  0  0  0  0  0  0  0  0  0  0
   35.1900   24.0081   -0.2674 O   0  0  0  0  0  0  0  0  0  0  0  0
   32.5740   31.7777    0.5917 C   0  0  0  0  0  0  0  0  0  0  0  0
   33.3097   29.7798   -9.2405 C   0  0  0  0  0  0  0  0  0  0  0  0
   34.3968   21.8278    0.4368 C   0  0  0  0  0  0  0  0  0  0  0  0
   32.7850   30.5105    0.1586 C   0  0  0  0  0  0  0  0  0  0  0  0
   33.7602   24.0547   -0.2120 C   0  0  0  0  0  0  0  0  0  0  0  0
   31.3765   30.1485   -3.5924 C   0  0  0  0  0  0  0  0  0  0  0  0
   30.5406   31.8777   -2.0758 C   0  0  0  0  0  0  0  0  0  0  0  0
   33.4649   31.0863   -2.1029 O   0  0  0  0  0  0  0  0  0  0  0  0
   33.8889   26.5797   -0.6218 O   0  0  0  0  0  0  0  0  0  0  0  0
   33.4015   22.8811    0.4890 O   0  0  0  0  0  0  0  0  0  0  0  0
   33.4786   28.2609    0.8065 N   0  0  0  0  0  0  0  0  0  0  0  0
   31.3832   29.7259   -6.2356 C   0  0  0  0  0  0  0  0  0  0  0  0
   29.3333   31.5166   -2.9908 C   0  0  0  0  0  0  0  0  0  0  0  0
   35.6382   22.5721   -0.0124 C   0  0  0  0  0  0  0  0  0  0  0  0
   32.6004   30.1578   -1.3169 C   0  0  0  0  0  0  0  0  0  0  0  0
  1  2  1  0
  1  3  1  0
  1  7  1  0
  2 13  1  0
  2 26  1  0
  2 35  1  0
  3 17  2  0
  3 44  1  0
  4 18  1  0
  4 20  1  0
  4 41  1  0
  5 20  1  0
  6 20  1  0
  6 22  1  0
  6 31  1  0
  8 21  1  0
  8 35  1  0
  8 36  1  0
  8 44  1  0
  9 22  2  0
 10 12  1  0
 10 19  2  0
 11 19  1  0
 11 30  1  0
 12 33  1  0
 12 40  2  0
 13 41  1  0
 14 28  1  0
 14 35  1  0
 14 42  1  0
 15 25  2  0
 16 24  1  0
 17 38  1  0
 17 40  1  0
 18 28  1  0
 20 27  1  0
 21 23  1  0
 22 41  1  0
 23 42  1  0
 24 32  1  0
 25 34  1  0
 25 38  1  0
 29 34  1  0
 29 43  1  0
 30 33  2  0
 32 39  1  0
 32 43  1  0
 33 44  1  0
 34 39  1  0
 36 42  1  0
 37 44  1  0
M  END
>  <ID>  (1) 
conformer_0

$$$$
