
     RDKit          3D

 36 38  0  0  0  0  0  0  0  0999 V2000
   34.6137   25.3073   -0.1178 O   0  0  0  0  0  0  0  0  0  0  0  0
   28.9292   28.9854   -2.5806 O   0  0  0  0  0  0  0  0  0  0  0  0
   29.0628   31.1081   -1.9057 O   0  0  0  0  0  0  0  0  0  0  0  0
   34.0237   22.9924    0.1802 N   0  0  0  0  0  0  0  0  0  0  0  0
   34.2201   31.6607   -1.8549 O   0  0  0  0  0  0  0  0  0  0  0  0
   33.8853   20.1859    2.7504 Cl  0  0  0  0  0  0  0  0  0  0  0  0
   32.2845   26.2060   -2.9015 C   0  0  0  0  0  0  0  0  0  0  0  0
   33.0056   30.7520   -8.6052 C   0  0  0  0  0  0  0  0  0  0  0  0
   33.3941   29.2046    1.5065 C   0  0  0  0  0  0  0  0  0  0  0  0
   31.7223   30.1773   -3.3891 C   0  0  0  0  0  0  0  0  0  0  0  0
   33.0756   25.4103   -2.0521 C   0  0  0  0  0  0  0  0  0  0  0  0
   31.4177   31.1143   -4.5995 C   0  0  0  0  0  0  0  0  0  0  0  0
   29.2060   30.2191   -5.1242 C   0  0  0  0  0  0  0  0  0  0  0  0
   31.9853   30.6730   -5.8803 C   0  0  0  0  0  0  0  0  0  0  0  0
   32.2425   27.5684   -2.7058 C   0  0  0  0  0  0  0  0  0  0  0  0
   33.3163   30.1051   -3.5626 C   0  0  0  0  0  0  0  0  0  0  0  0
   32.9265   28.1881   -1.5960 C   0  0  0  0  0  0  0  0  0  0  0  0
   33.3891   29.8804    0.2417 C   0  0  0  0  0  0  0  0  0  0  0  0
   33.6333   21.7928    0.6861 C   0  0  0  0  0  0  0  0  0  0  0  0
   33.8020   26.0339   -1.0004 C   0  0  0  0  0  0  0  0  0  0  0  0
   33.7063   27.3980   -0.8066 C   0  0  0  0  0  0  0  0  0  0  0  0
   30.2436   30.5059   -3.9698 C   0  0  0  0  0  0  0  0  0  0  0  0
   29.6193   30.7287   -6.4953 C   0  0  0  0  0  0  0  0  0  0  0  0
   31.0351   30.4513   -6.9804 C   0  0  0  0  0  0  0  0  0  0  0  0
   31.4863   30.6136   -8.3773 C   0  0  0  0  0  0  0  0  0  0  0  0
   35.8410   20.9085    1.2157 C   0  0  0  0  0  0  0  0  0  0  0  0
   34.4525   21.0798    1.6300 C   0  0  0  0  0  0  0  0  0  0  0  0
   31.5666   30.2023   -1.8573 O   0  0  0  0  0  0  0  0  0  0  0  0
   32.8418   31.1245    0.8246 C   0  0  0  0  0  0  0  0  0  0  0  0
   31.7450   32.5671   -4.1992 C   0  0  0  0  0  0  0  0  0  0  0  0
   33.6594   29.4595   -8.8224 C   0  0  0  0  0  0  0  0  0  0  0  0
   30.5448   31.2839   -9.1663 O   0  0  0  0  0  0  0  0  0  0  0  0
   34.8209   24.0290   -0.3247 C   0  0  0  0  0  0  0  0  0  0  0  0
   32.8505   29.7187   -1.2059 C   0  0  0  0  0  0  0  0  0  0  0  0
   33.8597   30.4765   -2.1768 C   0  0  0  0  0  0  0  0  0  0  0  0
   29.3166   30.2189   -2.7703 C   0  0  0  0  0  0  0  0  0  0  0  0
  1 20  1  0
  1 33  1  0
  2 36  2  0
  3 36  1  0
  4 19  1  0
  4 33  1  0
  5 35  1  0
  6 27  1  0
  7 11  2  0
  7 15  1  0
  8 25  1  0
  8 31  1  0
  9 18  1  0
 10 12  1  0
 10 16  1  0
 10 28  1  0
 11 20  1  0
 12 14  1  0
 12 22  1  0
 12 30  1  0
 13 22  1  0
 13 23  1  0
 14 24  1  0
 15 17  2  0
 16 35  1  0
 17 21  1  0
 17 34  1  0
 18 29  1  0
 18 34  1  0
 19 27  1  0
 20 21  2  0
 22 36  1  0
 23 24  1  0
 24 25  1  0
 25 32  1  0
 26 27  1  0
 28 34  1  0
 34 35  1  0
M  END
>  <ID>  (1) 
conformer_0

$$$$
