
     RDKit          3D

 28 32  0  0  0  0  0  0  0  0999 V2000
   33.1408   26.3195   -2.0848 C   0  0  0  0  0  0  0  0  0  0  0  0
   33.5807   25.8577   -0.8670 C   0  0  0  0  0  0  0  0  0  0  0  0
   30.1223   31.4441   -6.1700 C   0  0  0  0  0  0  0  0  0  0  0  0
   30.9224   31.0152   -5.1708 C   0  0  0  0  0  0  0  0  0  0  0  0
   32.8827   28.5024   -1.1388 C   0  0  0  0  0  0  0  0  0  0  0  0
   33.4261   22.4957    0.4894 C   0  0  0  0  0  0  0  0  0  0  0  0
   32.8571   27.6322   -2.2581 C   0  0  0  0  0  0  0  0  0  0  0  0
   31.3211   31.4505   -2.7967 C   0  0  0  0  0  0  0  0  0  0  0  0
   32.6180   30.6764   -0.2038 C   0  0  0  0  0  0  0  0  0  0  0  0
   33.3174   28.0128    0.0870 C   0  0  0  0  0  0  0  0  0  0  0  0
   33.0243   30.1817    1.0200 C   0  0  0  0  0  0  0  0  0  0  0  0
   31.8726   29.8310   -7.6242 C   0  0  0  0  0  0  0  0  0  0  0  0
   32.5045   29.8494   -1.3075 C   0  0  0  0  0  0  0  0  0  0  0  0
   34.4970   21.5565    0.8362 C   0  0  0  0  0  0  0  0  0  0  0  0
   35.8499   22.0560    0.5441 C   0  0  0  0  0  0  0  0  0  0  0  0
   29.9354   31.3441   -7.4769 C   0  0  0  0  0  0  0  0  0  0  0  0
   32.0467   30.2440   -2.6180 C   0  0  0  0  0  0  0  0  0  0  0  0
   34.2012   20.4055    1.6899 C   0  0  0  0  0  0  0  0  0  0  0  0
   32.5808   28.1332   -3.5578 C   0  0  0  0  0  0  0  0  0  0  0  0
   30.8432   30.5224   -8.2181 C   0  0  0  0  0  0  0  0  0  0  0  0
   30.7469   31.7673   -3.9750 C   0  0  0  0  0  0  0  0  0  0  0  0
   33.6586   26.7062    0.1906 N   0  0  0  0  0  0  0  0  0  0  0  0
   33.8073   23.9046    0.5557 N   0  0  0  0  0  0  0  0  0  0  0  0
   34.0112   24.4809   -0.7461 C   0  0  0  0  0  0  0  0  0  0  0  0
   33.3862   28.8596    1.1998 C   0  0  0  0  0  0  0  0  0  0  0  0
   32.3033   29.5190   -6.3918 C   0  0  0  0  0  0  0  0  0  0  0  0
   32.2090   29.4254   -3.8191 C   0  0  0  0  0  0  0  0  0  0  0  0
   31.8815   29.9166   -5.1305 C   0  0  0  0  0  0  0  0  0  0  0  0
  1  2  1  0
  1  7  2  0
  2 22  1  0
  2 24  1  0
  3  4  1  0
  3 16  2  0
  4 21  1  0
  4 28  1  0
  5  7  1  0
  5 10  1  0
  5 13  1  0
  6 14  1  0
  6 23  1  0
  7 19  1  0
  8 17  1  0
  8 21  2  0
  9 11  1  0
  9 13  2  0
 10 22  2  0
 10 25  1  0
 11 25  2  0
 12 20  1  0
 12 26  2  0
 13 17  1  0
 14 15  1  0
 14 18  1  0
 16 20  1  0
 17 27  1  0
 19 27  2  0
 23 24  1  0
 26 28  1  0
 27 28  1  0
M  END
>  <ID>  (1) 
conformer_0

$$$$
