
     RDKit          3D

 33 38  0  0  0  0  0  0  0  0999 V2000
   32.9617   29.3440   -4.3284 C   0  0  0  0  0  0  0  0  0  0  0  0
   34.8188   25.0068   -0.5956 C   0  0  0  0  0  0  0  0  0  0  0  0
   32.5244   24.4977   -0.2355 C   0  0  0  0  0  0  0  0  0  0  0  0
   33.1443   26.5978   -1.3615 C   0  0  0  0  0  0  0  0  0  0  0  0
   32.8472   23.2094    0.2872 C   0  0  0  0  0  0  0  0  0  0  0  0
   35.1586   23.7312   -0.1361 C   0  0  0  0  0  0  0  0  0  0  0  0
   34.6187   21.5280    0.6270 O   0  0  0  0  0  0  0  0  0  0  0  0
   29.4857   30.1569   -3.0202 C   0  0  0  0  0  0  0  0  0  0  0  0
   32.6440   28.4909   -1.6909 C   0  0  0  0  0  0  0  0  0  0  0  0
   33.1371   27.8720   -0.6383 C   0  0  0  0  0  0  0  0  0  0  0  0
   32.2293   29.7210   -2.0701 C   0  0  0  0  0  0  0  0  0  0  0  0
   31.2924   31.9089   -1.7983 C   0  0  0  0  0  0  0  0  0  0  0  0
   33.3524   30.6914   -8.6953 C   0  0  0  0  0  0  0  0  0  0  0  0
   33.2476   29.1971   -5.6241 C   0  0  0  0  0  0  0  0  0  0  0  0
   33.4936   28.4138    0.5156 C   0  0  0  0  0  0  0  0  0  0  0  0
   32.4275   29.5692   -6.6882 C   0  0  0  0  0  0  0  0  0  0  0  0
   31.0813   30.0206   -6.3998 C   0  0  0  0  0  0  0  0  0  0  0  0
   32.0168   29.8011   -3.4434 C   0  0  0  0  0  0  0  0  0  0  0  0
   32.0790   30.7892   -1.2008 C   0  0  0  0  0  0  0  0  0  0  0  0
   30.2439   31.4114   -2.8012 C   0  0  0  0  0  0  0  0  0  0  0  0
   33.8655   20.7322    1.5547 C   0  0  0  0  0  0  0  0  0  0  0  0
   30.7789   30.6514   -8.9193 C   0  0  0  0  0  0  0  0  0  0  0  0
   30.4831   30.2731   -5.2360 C   0  0  0  0  0  0  0  0  0  0  0  0
   30.2504   30.2466   -7.6308 C   0  0  0  0  0  0  0  0  0  0  0  0
   32.9567   29.4260   -8.0420 C   0  0  0  0  0  0  0  0  0  0  0  0
   34.2102   22.8159    0.2919 C   0  0  0  0  0  0  0  0  0  0  0  0
   33.2291   29.7554    0.7839 C   0  0  0  0  0  0  0  0  0  0  0  0
   30.7456   30.3336   -3.8475 C   0  0  0  0  0  0  0  0  0  0  0  0
   32.0961   31.3599   -9.2755 C   0  0  0  0  0  0  0  0  0  0  0  0
   32.6629   32.0837    0.6767 C   0  0  0  0  0  0  0  0  0  0  0  0
   32.5061   27.2711   -2.6031 C   0  0  0  0  0  0  0  0  0  0  0  0
   33.4993   25.3888   -0.6866 C   0  0  0  0  0  0  0  0  0  0  0  0
   32.6628   30.7487    0.0908 C   0  0  0  0  0  0  0  0  0  0  0  0
  1 14  2  0
  1 18  1  0
  2  6  2  0
  2 32  1  0
  3  5  1  0
  3 32  2  0
  4 10  1  0
  4 31  1  0
  4 32  1  0
  5 26  2  0
  6 26  1  0
  7 21  1  0
  7 26  1  0
  8 20  1  0
  8 28  1  0
  9 10  1  0
  9 11  1  0
  9 31  1  0
 10 15  2  0
 11 18  1  0
 11 19  1  0
 12 19  1  0
 12 20  1  0
 13 25  1  0
 13 29  1  0
 14 16  1  0
 15 27  1  0
 16 17  1  0
 16 25  1  0
 17 23  2  0
 17 24  1  0
 18 28  1  0
 19 33  1  0
 22 24  1  0
 22 29  1  0
 23 28  1  0
 27 33  2  0
 30 33  1  0
M  END
>  <ID>  (1) 
conformer_0

$$$$
