
     RDKit          3D

 31 34  0  0  0  0  0  0  0  0999 V2000
   31.8735   30.5065   -7.6896 C   0  0  0  0  0  0  0  0  0  0  0  0
   33.7121   29.5132    1.1389 C   0  0  0  0  0  0  0  0  0  0  0  0
   32.2912   31.8051   -0.1684 C   0  0  0  0  0  0  0  0  0  0  0  0
   33.4602   26.9026   -0.3589 C   0  0  0  0  0  0  0  0  0  0  0  0
   33.1722   24.5076   -0.3325 O   0  0  0  0  0  0  0  0  0  0  0  0
   31.8507   32.9193   -5.4123 C   0  0  0  0  0  0  0  0  0  0  0  0
   32.4051   30.5203   -2.3232 C   0  0  0  0  0  0  0  0  0  0  0  0
   30.5557   31.5351   -3.7284 C   0  0  0  0  0  0  0  0  0  0  0  0
   32.5511   25.7850   -2.2973 C   0  0  0  0  0  0  0  0  0  0  0  0
   32.2894   30.4092   -5.2797 C   0  0  0  0  0  0  0  0  0  0  0  0
   32.4478   31.6898    1.3172 C   0  0  0  0  0  0  0  0  0  0  0  0
   33.0924   25.7250   -1.0057 C   0  0  0  0  0  0  0  0  0  0  0  0
   30.4447   30.9080   -7.5835 C   0  0  0  0  0  0  0  0  0  0  0  0
   32.4784   29.7877   -6.5621 C   0  0  0  0  0  0  0  0  0  0  0  0
   33.5840   29.4148   -8.8322 O   0  0  0  0  0  0  0  0  0  0  0  0
   32.8056   28.1211   -2.3365 C   0  0  0  0  0  0  0  0  0  0  0  0
   28.8649   32.2070   -6.0942 C   0  0  0  0  0  0  0  0  0  0  0  0
   33.6189   21.4499    0.7302 C   0  0  0  0  0  0  0  0  0  0  0  0
   33.3946   29.4104   -0.2735 C   0  0  0  0  0  0  0  0  0  0  0  0
   32.8489   30.6024   -0.9121 C   0  0  0  0  0  0  0  0  0  0  0  0
   32.7316   30.3427    1.9031 C   0  0  0  0  0  0  0  0  0  0  0  0
   32.5262   30.3749   -8.9685 C   0  0  0  0  0  0  0  0  0  0  0  0
   34.2740   20.7178    1.8762 C   0  0  0  0  0  0  0  0  0  0  0  0
   32.8501   29.3514   -3.0271 C   0  0  0  0  0  0  0  0  0  0  0  0
   31.6271   31.7793   -2.7132 C   0  0  0  0  0  0  0  0  0  0  0  0
   33.2280   28.1243   -0.9804 C   0  0  0  0  0  0  0  0  0  0  0  0
   30.0363   31.2509   -6.1774 C   0  0  0  0  0  0  0  0  0  0  0  0
   31.2028   31.4867   -5.1877 C   0  0  0  0  0  0  0  0  0  0  0  0
   32.3978   26.9640   -2.9490 C   0  0  0  0  0  0  0  0  0  0  0  0
   34.3255   23.9249    0.1180 C   0  0  0  0  0  0  0  0  0  0  0  0
   34.4408   22.4462   -0.0013 C   0  0  0  0  0  0  0  0  0  0  0  0
  1 13  1  0
  1 14  1  0
  1 22  1  0
  2 19  1  0
  2 21  1  0
  3 11  1  0
  3 20  1  0
  4 12  2  0
  4 26  1  0
  5 12  1  0
  5 30  1  0
  6 28  1  0
  7 20  2  0
  7 24  1  0
  7 25  1  0
  8 25  1  0
  8 28  1  0
  9 12  1  0
  9 29  2  0
 10 14  1  0
 10 28  1  0
 11 21  1  0
 13 27  1  0
 15 22  1  0
 16 24  1  0
 16 26  2  0
 16 29  1  0
 17 27  1  0
 18 23  1  0
 18 31  1  0
 19 20  1  0
 19 26  1  0
 27 28  1  0
 30 31  1  0
M  END
>  <ID>  (1) 
conformer_0

$$$$
