
     RDKit          3D

 29 31  0  0  0  0  0  0  0  0999 V2000
   32.9883   30.4426   -0.2379 C   0  0  0  0  0  0  0  0  0  0  0  0
   34.6358   22.0895    0.1746 C   0  0  0  0  0  0  0  0  0  0  0  0
   32.1686   32.4272   -6.8855 C   0  0  0  0  0  0  0  0  0  0  0  0
   33.6063   24.2024   -0.6432 C   0  0  0  0  0  0  0  0  0  0  0  0
   33.1300   30.3819    1.1051 C   0  0  0  0  0  0  0  0  0  0  0  0
   33.0922   29.2702   -0.9381 C   0  0  0  0  0  0  0  0  0  0  0  0
   33.4535   28.0318    1.0584 C   0  0  0  0  0  0  0  0  0  0  0  0
   31.6759   31.7770   -3.6625 C   0  0  0  0  0  0  0  0  0  0  0  0
   32.3705   24.9005   -2.6709 C   0  0  0  0  0  0  0  0  0  0  0  0
   30.0471   30.5310   -5.1385 C   0  0  0  0  0  0  0  0  0  0  0  0
   35.5803   21.3530   -0.3642 O   0  0  0  0  0  0  0  0  0  0  0  0
   33.2056   26.7630   -1.0441 C   0  0  0  0  0  0  0  0  0  0  0  0
   29.5749   31.2100   -6.4534 C   0  0  0  0  0  0  0  0  0  0  0  0
   32.7305   28.6266   -3.3761 C   0  0  0  0  0  0  0  0  0  0  0  0
   33.4736   25.6060   -0.1975 C   0  0  0  0  0  0  0  0  0  0  0  0
   30.2188   30.4818   -7.6707 C   0  0  0  0  0  0  0  0  0  0  0  0
   33.3715   29.2356    1.7228 C   0  0  0  0  0  0  0  0  0  0  0  0
   34.2485   20.6129    2.0095 C   0  0  0  0  0  0  0  0  0  0  0  0
   33.0878   29.3339   -2.2823 C   0  0  0  0  0  0  0  0  0  0  0  0
   32.3971   29.4578   -4.5639 C   0  0  0  0  0  0  0  0  0  0  0  0
   31.6304   29.9257   -7.2981 C   0  0  0  0  0  0  0  0  0  0  0  0
   31.5968   30.7131   -4.8873 C   0  0  0  0  0  0  0  0  0  0  0  0
   33.6926   21.4354    0.9623 O   0  0  0  0  0  0  0  0  0  0  0  0
   34.6555   23.5173    0.0769 C   0  0  0  0  0  0  0  0  0  0  0  0
   32.7400   26.3703   -2.3400 C   0  0  0  0  0  0  0  0  0  0  0  0
   32.0022   24.7317   -4.0479 F   0  0  0  0  0  0  0  0  0  0  0  0
   33.2567   28.0379   -0.3020 C   0  0  0  0  0  0  0  0  0  0  0  0
   32.1994   31.0482   -6.3348 C   0  0  0  0  0  0  0  0  0  0  0  0
   32.6357   27.2474   -3.4410 C   0  0  0  0  0  0  0  0  0  0  0  0
  1  5  2  0
  1  6  1  0
  2 11  2  0
  2 23  1  0
  2 24  1  0
  3 28  1  0
  4 15  1  0
  4 24  1  0
  5 17  1  0
  6 19  1  0
  6 27  2  0
  7 17  2  0
  7 27  1  0
  8 22  1  0
  9 25  1  0
  9 26  1  0
 10 13  1  0
 10 22  1  0
 12 15  2  3
 12 25  1  0
 12 27  1  0
 13 16  1  0
 14 19  1  0
 14 20  1  0
 14 29  2  0
 16 21  1  0
 18 23  1  0
 20 22  1  0
 21 28  1  0
 22 28  1  0
 25 29  1  0
M  END
>  <ID>  (1) 
conformer_0

$$$$
