
     RDKit          3D

 33 35  0  0  0  0  0  0  0  0999 V2000
   33.3656   20.9013    1.0627 O   0  0  0  0  0  0  0  0  0  0  0  0
   29.2202   30.7763   -3.8260 C   0  0  0  0  0  0  0  0  0  0  0  0
   33.3160   29.6963   -6.8204 N   0  0  0  0  0  0  0  0  0  0  0  0
   32.8772   27.2110   -1.5009 C   0  0  0  0  0  0  0  0  0  0  0  0
   33.5352   30.2459   -9.8455 C   0  0  0  0  0  0  0  0  0  0  0  0
   32.5520   26.8769   -2.8750 C   0  0  0  0  0  0  0  0  0  0  0  0
   32.4098   30.4479   -8.9362 C   0  0  0  0  0  0  0  0  0  0  0  0
   28.5402   30.7846   -6.0332 O   0  0  0  0  0  0  0  0  0  0  0  0
   31.0942   30.5468   -7.0542 C   0  0  0  0  0  0  0  0  0  0  0  0
   33.8258   30.3470   -3.4061 Cl  0  0  0  0  0  0  0  0  0  0  0  0
   32.9070   28.5929   -1.3667 C   0  0  0  0  0  0  0  0  0  0  0  0
   29.5175   30.7250   -5.1824 C   0  0  0  0  0  0  0  0  0  0  0  0
   34.9886   22.2535    0.0231 C   0  0  0  0  0  0  0  0  0  0  0  0
   32.4456   29.2206   -2.6051 C   0  0  0  0  0  0  0  0  0  0  0  0
   29.5109   31.3395   -2.7090 C   0  0  0  0  0  0  0  0  0  0  0  0
   34.5260   21.2783    1.0801 C   0  0  0  0  0  0  0  0  0  0  0  0
   30.8131   30.4415   -5.7087 C   0  0  0  0  0  0  0  0  0  0  0  0
   32.2813   28.1007   -3.5980 C   0  0  0  0  0  0  0  0  0  0  0  0
   33.9047   29.1531    2.1597 C   0  0  0  0  0  0  0  0  0  0  0  0
   33.5758   28.4172    0.9083 C   0  0  0  0  0  0  0  0  0  0  0  0
   30.6922   31.0909   -2.0201 C   0  0  0  0  0  0  0  0  0  0  0  0
   34.6439   23.6862    0.2074 O   0  0  0  0  0  0  0  0  0  0  0  0
   35.4579   20.7143    1.7027 O   0  0  0  0  0  0  0  0  0  0  0  0
   33.5529   30.7042   -0.0949 C   0  0  0  0  0  0  0  0  0  0  0  0
   33.0663   26.4398   -0.3572 C   0  0  0  0  0  0  0  0  0  0  0  0
   31.5428   30.2636   -2.3885 C   0  0  0  0  0  0  0  0  0  0  0  0
   31.1976   30.8905   -9.3081 N   0  0  0  0  0  0  0  0  0  0  0  0
   32.3937   30.2139   -7.5852 C   0  0  0  0  0  0  0  0  0  0  0  0
   30.3660   30.9356   -8.1891 C   0  0  0  0  0  0  0  0  0  0  0  0
   33.5435   27.0423    0.8408 C   0  0  0  0  0  0  0  0  0  0  0  0
   33.4976   24.0279   -0.5881 C   0  0  0  0  0  0  0  0  0  0  0  0
   32.5591   25.0221   -0.2559 C   0  0  0  0  0  0  0  0  0  0  0  0
   33.3113   29.2075   -0.1977 C   0  0  0  0  0  0  0  0  0  0  0  0
  1 16  2  0
  2 12  1  0
  2 15  1  0
  3 28  2  0
  4  6  1  0
  4 11  1  0
  4 25  1  0
  5  7  1  0
  6 18  1  0
  7 27  1  0
  7 28  1  0
  8 12  1  0
  9 17  2  3
  9 28  1  0
  9 29  1  0
 10 14  1  0
 11 14  1  0
 11 33  2  0
 12 17  1  0
 13 16  1  0
 13 22  1  0
 14 18  1  0
 14 26  1  0
 15 21  2  3
 16 23  1  0
 19 20  1  0
 20 30  2  0
 20 33  1  0
 21 26  1  0
 22 31  1  0
 24 33  1  0
 25 30  1  0
 25 32  1  0
 27 29  1  0
 31 32  1  0
M  END
>  <ID>  (1) 
conformer_0

$$$$
