
     RDKit          3D

 37 43  0  0  0  0  0  0  0  0999 V2000
   28.9870   31.7303   -5.8270 C   0  0  0  0  0  0  0  0  0  0  0  0
   30.7896   31.4010   -2.6312 C   0  0  0  0  0  0  0  0  0  0  0  0
   33.4520   28.4448    0.1829 C   0  0  0  0  0  0  0  0  0  0  0  0
   33.1917   27.4834   -2.0408 C   0  0  0  0  0  0  0  0  0  0  0  0
   33.2147   29.8182    2.0864 C   0  0  0  0  0  0  0  0  0  0  0  0
   32.7416   30.8383    1.3282 C   0  0  0  0  0  0  0  0  0  0  0  0
   33.7368   24.0221   -0.6104 C   0  0  0  0  0  0  0  0  0  0  0  0
   29.9817   31.4726   -6.7638 N   0  0  0  0  0  0  0  0  0  0  0  0
   32.6203   29.8305   -3.1286 C   0  0  0  0  0  0  0  0  0  0  0  0
   34.4400   26.1982    0.0471 C   0  0  0  0  0  0  0  0  0  0  0  0
   34.2772   21.8907    0.5919 C   0  0  0  0  0  0  0  0  0  0  0  0
   32.7337   28.6888   -4.2461 C   0  0  0  0  0  0  0  0  0  0  0  0
   32.5683   29.9667   -4.6024 C   0  0  0  0  0  0  0  0  0  0  0  0
   29.2346   31.5987   -4.4932 C   0  0  0  0  0  0  0  0  0  0  0  0
   30.7443   30.5553   -9.3342 C   0  0  0  0  0  0  0  0  0  0  0  0
   32.6026   27.4591   -3.6375 C   0  0  0  0  0  0  0  0  0  0  0  0
   33.3164   22.8649    0.1748 C   0  0  0  0  0  0  0  0  0  0  0  0
   32.2436   26.0817   -3.3959 C   0  0  0  0  0  0  0  0  0  0  0  0
   32.2381   32.3857   -9.2126 C   0  0  0  0  0  0  0  0  0  0  0  0
   32.9619   29.0329   -1.9398 C   0  0  0  0  0  0  0  0  0  0  0  0
   35.5797   22.0192    0.3968 O   0  0  0  0  0  0  0  0  0  0  0  0
   32.6654   30.6977   -0.0307 C   0  0  0  0  0  0  0  0  0  0  0  0
   30.4873   31.2199   -4.1137 C   0  0  0  0  0  0  0  0  0  0  0  0
   34.6856   24.8856    0.0272 O   0  0  0  0  0  0  0  0  0  0  0  0
   32.2848   30.9049   -7.2973 C   0  0  0  0  0  0  0  0  0  0  0  0
   31.2005   31.0575   -6.3707 C   0  0  0  0  0  0  0  0  0  0  0  0
   33.7199   27.2558   -0.5508 C   0  0  0  0  0  0  0  0  0  0  0  0
   33.5748   28.6128    1.5307 C   0  0  0  0  0  0  0  0  0  0  0  0
   32.1098   30.9370   -8.7584 C   0  0  0  0  0  0  0  0  0  0  0  0
   33.8586   20.7613    1.3260 O   0  0  0  0  0  0  0  0  0  0  0  0
   33.2301   29.9357   -9.2772 C   0  0  0  0  0  0  0  0  0  0  0  0
   32.3031   31.2416   -2.5636 C   0  0  0  0  0  0  0  0  0  0  0  0
   31.4282   30.7733   -5.0478 N   0  0  0  0  0  0  0  0  0  0  0  0
   33.0050   29.4880   -0.5838 C   0  0  0  0  0  0  0  0  0  0  0  0
   34.8633   20.2327    2.2331 C   0  0  0  0  0  0  0  0  0  0  0  0
   32.7570   24.8117   -1.3624 C   0  0  0  0  0  0  0  0  0  0  0  0
   33.1540   25.8978   -2.1669 N   0  0  0  0  0  0  0  0  0  0  0  0
  1  8  1  0
  1 14  1  0
  2 23  1  0
  2 32  1  0
  3 27  1  0
  3 28  2  0
  3 34  1  0
  4 16  1  0
  4 20  1  0
  4 27  1  0
  4 37  1  0
  5  6  2  0
  5 28  1  0
  6 22  1  0
  7 17  1  0
  7 24  1  0
  7 36  1  0
  8 26  2  0
  9 13  1  0
  9 20  1  0
  9 32  1  0
 10 24  1  0
 10 27  1  0
 11 17  1  0
 11 21  2  0
 11 30  1  0
 12 13  1  0
 12 16  1  0
 13 33  1  0
 14 23  2  0
 15 29  1  0
 16 18  1  0
 18 37  1  0
 19 29  1  0
 20 34  1  0
 22 34  2  0
 23 33  1  0
 25 26  1  0
 25 29  1  0
 26 33  1  0
 29 31  1  0
 30 35  1  0
 36 37  1  0
M  END
>  <ID>  (1) 
conformer_0

$$$$
