
     RDKit          3D

 36 40  0  0  0  0  0  0  0  0999 V2000
   29.9060   30.4589   -4.8958 C   0  0  0  0  0  0  0  0  0  0  0  0
   33.5688   28.6934    1.8075 C   0  0  0  0  0  0  0  0  0  0  0  0
   33.2413   25.8347   -1.5381 N   0  0  0  0  0  0  0  0  0  0  0  0
   31.7815   30.2633   -3.3085 C   0  0  0  0  0  0  0  0  0  0  0  0
   32.6676   23.8739   -0.1432 C   0  0  0  0  0  0  0  0  0  0  0  0
   29.2750   30.2709   -2.4587 F   0  0  0  0  0  0  0  0  0  0  0  0
   32.4035   30.5716   -1.0345 C   0  0  0  0  0  0  0  0  0  0  0  0
   30.3563   31.2948   -9.1390 O   0  0  0  0  0  0  0  0  0  0  0  0
   31.0647   30.6240   -6.9525 C   0  0  0  0  0  0  0  0  0  0  0  0
   34.2429   20.4980    2.2454 C   0  0  0  0  0  0  0  0  0  0  0  0
   33.3757   30.0219    2.2720 C   0  0  0  0  0  0  0  0  0  0  0  0
   32.5005   27.8260   -3.3945 N   0  0  0  0  0  0  0  0  0  0  0  0
   32.8932   26.8064   -2.5569 C   0  0  0  0  0  0  0  0  0  0  0  0
   33.1402   26.9967   -1.2912 C   0  0  0  0  0  0  0  0  0  0  0  0
   28.2910   29.0170   -3.8932 F   0  0  0  0  0  0  0  0  0  0  0  0
   31.3167   30.7486   -8.3747 C   0  0  0  0  0  0  0  0  0  0  0  0
   31.2841   30.4075   -4.6356 C   0  0  0  0  0  0  0  0  0  0  0  0
   32.9420   31.0443    1.4406 C   0  0  0  0  0  0  0  0  0  0  0  0
   32.6416   31.0622    0.1845 C   0  0  0  0  0  0  0  0  0  0  0  0
   33.2617   29.1045   -8.7675 C   0  0  0  0  0  0  0  0  0  0  0  0
   33.6094   24.6588   -0.8157 C   0  0  0  0  0  0  0  0  0  0  0  0
   32.3014   29.0278   -2.7708 C   0  0  0  0  0  0  0  0  0  0  0  0
   33.3786   28.2841    0.6447 C   0  0  0  0  0  0  0  0  0  0  0  0
   34.3478   22.1767    0.4504 C   0  0  0  0  0  0  0  0  0  0  0  0
   33.0208   22.6162    0.4507 C   0  0  0  0  0  0  0  0  0  0  0  0
   32.6516   30.4720   -8.9942 C   0  0  0  0  0  0  0  0  0  0  0  0
   32.0147   30.5028   -5.8294 C   0  0  0  0  0  0  0  0  0  0  0  0
   34.6909   20.9089    0.8956 O   0  0  0  0  0  0  0  0  0  0  0  0
   32.5945   29.2355   -1.4583 N   0  0  0  0  0  0  0  0  0  0  0  0
   34.9268   24.2975   -0.6856 C   0  0  0  0  0  0  0  0  0  0  0  0
   28.9283   30.2509   -3.8402 C   0  0  0  0  0  0  0  0  0  0  0  0
   35.2733   23.0441   -0.1116 C   0  0  0  0  0  0  0  0  0  0  0  0
   29.7402   30.6180   -6.2900 C   0  0  0  0  0  0  0  0  0  0  0  0
   33.7918   31.4635   -8.8230 C   0  0  0  0  0  0  0  0  0  0  0  0
   31.9083   31.2769   -2.2570 O   0  0  0  0  0  0  0  0  0  0  0  0
   33.0323   28.1967   -0.6518 C   0  0  0  0  0  0  0  0  0  0  0  0
  1 17  2  0
  1 31  1  0
  1 33  1  0
  2 11  1  0
  2 23  2  0
  3 14  1  0
  3 21  1  0
  4 17  1  0
  4 22  2  0
  4 35  1  0
  5 21  2  0
  5 25  1  0
  6 31  1  0
  7 19  2  0
  7 29  1  0
  7 35  1  0
  8 16  1  0
  9 16  1  0
  9 27  1  0
  9 33  1  0
 10 28  1  0
 11 18  1  0
 12 13  1  0
 12 22  1  0
 13 14  2  0
 14 36  1  0
 15 31  1  0
 16 26  1  0
 17 27  1  0
 18 19  2  0
 20 26  1  0
 21 30  1  0
 22 29  1  0
 23 36  2  0
 24 25  2  0
 24 28  1  0
 24 32  1  0
 26 34  1  0
 29 36  1  0
 30 32  2  0
M  END
>  <ID>  (1) 
conformer_0

$$$$
