
     RDKit          3D

 33 36  0  0  0  0  0  0  0  0999 V2000
   31.9011   31.4239   -9.0031 C   0  0  0  0  0  0  0  0  0  0  0  0
   31.9449   31.9812   -3.5416 C   0  0  0  0  0  0  0  0  0  0  0  0
   32.0659   30.4552   -6.8146 C   0  0  0  0  0  0  0  0  0  0  0  0
   30.5031   31.0399   -8.5209 C   0  0  0  0  0  0  0  0  0  0  0  0
   32.8718   30.7008   -8.0456 C   0  0  0  0  0  0  0  0  0  0  0  0
   30.6715   30.6709   -7.1035 C   0  0  0  0  0  0  0  0  0  0  0  0
   34.8387   24.8621   -0.4483 C   0  0  0  0  0  0  0  0  0  0  0  0
   33.8371   23.9426   -0.1938 C   0  0  0  0  0  0  0  0  0  0  0  0
   32.4109   28.7874   -1.7054 C   0  0  0  0  0  0  0  0  0  0  0  0
   33.4053   32.1532   -3.2736 O   0  0  0  0  0  0  0  0  0  0  0  0
   29.2844   31.4086   -2.5497 O   0  0  0  0  0  0  0  0  0  0  0  0
   33.3414   29.3872   -8.6631 C   0  0  0  0  0  0  0  0  0  0  0  0
   32.2726   27.8583   -4.1509 C   0  0  0  0  0  0  0  0  0  0  0  0
   33.2657   26.7537   -0.4628 C   0  0  0  0  0  0  0  0  0  0  0  0
   32.9593   30.4856    0.3820 C   0  0  0  0  0  0  0  0  0  0  0  0
   33.7453   28.6829    1.6572 F   0  0  0  0  0  0  0  0  0  0  0  0
   34.2005   22.2263    0.2171 Cl  0  0  0  0  0  0  0  0  0  0  0  0
   31.6143   30.6279   -3.0821 C   0  0  0  0  0  0  0  0  0  0  0  0
   29.6615   30.1713   -2.9744 C   0  0  0  0  0  0  0  0  0  0  0  0
   32.2616   27.8760   -2.8086 N   0  0  0  0  0  0  0  0  0  0  0  0
   31.5635   28.9473   -4.8256 C   0  0  0  0  0  0  0  0  0  0  0  0
   32.9330   27.0770   -4.8567 O   0  0  0  0  0  0  0  0  0  0  0  0
   32.5319   24.3490   -0.1811 C   0  0  0  0  0  0  0  0  0  0  0  0
   28.6635   29.0890   -2.8868 C   0  0  0  0  0  0  0  0  0  0  0  0
   29.5296   30.7988   -6.1013 C   0  0  0  0  0  0  0  0  0  0  0  0
   30.8300   29.7806   -3.8350 N   0  0  0  0  0  0  0  0  0  0  0  0
   32.4947   31.0161   -0.7924 C   0  0  0  0  0  0  0  0  0  0  0  0
   32.1863   30.1621   -1.8296 C   0  0  0  0  0  0  0  0  0  0  0  0
   33.1861   29.1466    0.5031 C   0  0  0  0  0  0  0  0  0  0  0  0
   34.5727   26.2017   -0.5406 C   0  0  0  0  0  0  0  0  0  0  0  0
   32.2500   25.7253   -0.3383 C   0  0  0  0  0  0  0  0  0  0  0  0
   32.9251   28.1893   -0.4879 C   0  0  0  0  0  0  0  0  0  0  0  0
   32.5304   29.6499   -5.7625 C   0  0  0  0  0  0  0  0  0  0  0  0
  1  4  1  0
  1  5  1  0
  2 10  1  0
  2 18  1  0
  3  5  1  0
  3  6  1  0
  3 33  1  0
  4  6  1  0
  5 12  1  0
  6 25  1  0
  7  8  2  0
  7 30  1  0
  8 17  1  0
  8 23  1  0
  9 20  1  0
  9 28  2  0
  9 32  1  0
 11 19  2  0
 13 20  1  0
 13 21  1  0
 13 22  2  0
 14 30  2  0
 14 31  1  0
 14 32  1  0
 15 27  2  0
 15 29  1  0
 16 29  1  0
 18 26  1  0
 18 28  1  0
 19 24  1  0
 19 26  1  0
 21 26  1  0
 21 33  1  0
 23 31  2  0
 27 28  1  0
 29 32  2  0
M  END
>  <ID>  (1) 
conformer_0

$$$$
