
     RDKit          3D

 44 49  0  0  0  0  0  0  0  0999 V2000
   30.3781   30.4594   -5.5339 C   0  0  0  0  0  0  0  0  0  0  0  0
   33.3072   22.7930    0.1502 C   0  0  0  0  0  0  0  0  0  0  0  0
   32.9304   30.8671   -9.7214 C   0  0  0  0  0  0  0  0  0  0  0  0
   33.3448   30.4508    1.2278 C   0  0  0  0  0  0  0  0  0  0  0  0
   32.1654   24.9430   -3.2258 O   0  0  0  0  0  0  0  0  0  0  0  0
   31.8286   31.5362   -9.1975 C   0  0  0  0  0  0  0  0  0  0  0  0
   28.9794   29.5882   -3.5635 C   0  0  0  0  0  0  0  0  0  0  0  0
   28.1664   31.6484   -6.3064 C   0  0  0  0  0  0  0  0  0  0  0  0
   33.4658   26.3489   -0.2699 O   0  0  0  0  0  0  0  0  0  0  0  0
   33.4666   30.8446    2.5255 O   0  0  0  0  0  0  0  0  0  0  0  0
   33.3095   29.0785    0.8917 C   0  0  0  0  0  0  0  0  0  0  0  0
   34.4578   31.9096   -2.7374 C   0  0  0  0  0  0  0  0  0  0  0  0
   30.0857   31.6580   -7.5564 C   0  0  0  0  0  0  0  0  0  0  0  0
   32.9487   29.3305   -7.8631 C   0  0  0  0  0  0  0  0  0  0  0  0
   33.1126   30.9441   -1.1199 C   0  0  0  0  0  0  0  0  0  0  0  0
   31.4380   29.7264   -6.0201 N   0  0  0  0  0  0  0  0  0  0  0  0
   29.5916   31.1853   -6.3802 N   0  0  0  0  0  0  0  0  0  0  0  0
   33.1843   28.7194   -0.4441 C   0  0  0  0  0  0  0  0  0  0  0  0
   32.7405   27.0793   -2.4225 C   0  0  0  0  0  0  0  0  0  0  0  0
   33.2470   31.3448    0.2107 C   0  0  0  0  0  0  0  0  0  0  0  0
   33.2524   25.1437   -1.0368 C   0  0  0  0  0  0  0  0  0  0  0  0
   33.8796   21.5951    0.6070 C   0  0  0  0  0  0  0  0  0  0  0  0
   33.8419   23.9521   -0.4835 C   0  0  0  0  0  0  0  0  0  0  0  0
   33.1167   27.4610   -1.0365 C   0  0  0  0  0  0  0  0  0  0  0  0
   33.0732   31.8077   -2.2063 N   0  0  0  0  0  0  0  0  0  0  0  0
   36.1357   23.0525   -0.4766 C   0  0  0  0  0  0  0  0  0  0  0  0
   33.4464   29.7508   -9.0641 C   0  0  0  0  0  0  0  0  0  0  0  0
   30.9417   30.9370   -3.0054 C   0  0  0  0  0  0  0  0  0  0  0  0
   33.0048   20.7482    1.1129 O   0  0  0  0  0  0  0  0  0  0  0  0
   31.2928   31.0816   -8.0012 C   0  0  0  0  0  0  0  0  0  0  0  0
   31.6833   33.0936   -3.5651 O   0  0  0  0  0  0  0  0  0  0  0  0
   35.1809   21.0723    0.5655 C   0  0  0  0  0  0  0  0  0  0  0  0
   32.4574   27.6535   -3.8402 C   0  0  0  0  0  0  0  0  0  0  0  0
   32.0367   28.7172   -5.0067 C   0  0  0  0  0  0  0  0  0  0  0  0
   34.3492   30.2231    3.4244 C   0  0  0  0  0  0  0  0  0  0  0  0
   30.5322   30.4265   -1.8272 O   0  0  0  0  0  0  0  0  0  0  0  0
   31.9391   32.0050   -2.9819 C   0  0  0  0  0  0  0  0  0  0  0  0
   32.7215   25.6463   -2.3082 C   0  0  0  0  0  0  0  0  0  0  0  0
   35.2780   23.9902   -0.5384 C   0  0  0  0  0  0  0  0  0  0  0  0
   33.1545   29.6184   -1.4031 C   0  0  0  0  0  0  0  0  0  0  0  0
   33.4646   28.1359    1.8737 F   0  0  0  0  0  0  0  0  0  0  0  0
   36.2374   21.7842    0.0179 C   0  0  0  0  0  0  0  0  0  0  0  0
   31.8874   30.0261   -7.2872 C   0  0  0  0  0  0  0  0  0  0  0  0
   30.1801   30.4274   -4.1042 C   0  0  0  0  0  0  0  0  0  0  0  0
  1 16  1  0
  1 17  1  0
  1 44  1  0
  2 22  1  0
  2 23  2  0
  3  6  2  0
  3 27  1  0
  4 10  1  0
  4 11  2  0
  4 20  1  0
  5 38  2  0
  6 30  1  0
  7 44  1  0
  8 17  1  0
  9 21  1  0
  9 24  1  0
 10 35  1  0
 11 18  1  0
 11 41  1  0
 12 25  1  0
 13 17  1  0
 13 30  2  0
 14 27  2  0
 14 43  1  0
 15 20  2  0
 15 25  1  0
 15 40  1  0
 16 34  1  0
 16 43  1  0
 18 24  1  0
 18 40  2  0
 19 24  2  0
 19 33  1  0
 19 38  1  0
 21 23  1  0
 21 38  1  0
 22 29  1  0
 22 32  2  0
 23 39  1  0
 25 37  1  0
 26 39  1  0
 26 42  2  0
 28 36  1  0
 28 37  1  0
 28 44  1  0
 30 43  1  0
 31 37  2  0
 32 42  1  0
 33 34  3  0
M  END
>  <ID>  (1) 
conformer_0

$$$$
