
     RDKit          3D

 38 42  0  0  0  0  0  0  0  0999 V2000
   32.6938   30.4879    2.1726 C   0  0  0  0  0  0  0  0  0  0  0  0
   32.7964   31.5478    0.0816 C   0  0  0  0  0  0  0  0  0  0  0  0
   34.3349   20.1205    2.7175 C   0  0  0  0  0  0  0  0  0  0  0  0
   32.9281   26.2127   -1.7671 C   0  0  0  0  0  0  0  0  0  0  0  0
   33.4628   30.4330   -0.3695 C   0  0  0  0  0  0  0  0  0  0  0  0
   29.3859   30.1848   -4.0433 C   0  0  0  0  0  0  0  0  0  0  0  0
   33.3083   21.0705    0.4198 O   0  0  0  0  0  0  0  0  0  0  0  0
   35.9480   22.6202   -0.4918 C   0  0  0  0  0  0  0  0  0  0  0  0
   34.2517   26.2581   -1.2763 C   0  0  0  0  0  0  0  0  0  0  0  0
   34.4561   21.5529    2.3694 O   0  0  0  0  0  0  0  0  0  0  0  0
   33.0350   30.5558   -2.7044 C   0  0  0  0  0  0  0  0  0  0  0  0
   29.7432   30.7745   -5.4602 C   0  0  0  0  0  0  0  0  0  0  0  0
   34.0321   24.0977   -0.0735 C   0  0  0  0  0  0  0  0  0  0  0  0
   29.6612   31.3809   -3.0424 C   0  0  0  0  0  0  0  0  0  0  0  0
   34.7670   25.2450   -0.5070 C   0  0  0  0  0  0  0  0  0  0  0  0
   32.1371   25.2092   -1.1471 C   0  0  0  0  0  0  0  0  0  0  0  0
   33.0479   30.4821   -9.0537 C   0  0  0  0  0  0  0  0  0  0  0  0
   34.1565   21.7927    1.0332 C   0  0  0  0  0  0  0  0  0  0  0  0
   33.9579   30.3929   -1.7463 C   0  0  0  0  0  0  0  0  0  0  0  0
   31.2298   30.5124   -5.8970 C   0  0  0  0  0  0  0  0  0  0  0  0
   29.6565   31.3956   -8.1968 O   0  0  0  0  0  0  0  0  0  0  0  0
   32.4526   27.0315   -2.8974 C   0  0  0  0  0  0  0  0  0  0  0  0
   31.7658   31.1138   -9.3313 O   0  0  0  0  0  0  0  0  0  0  0  0
   32.9440   29.9185   -7.6768 C   0  0  0  0  0  0  0  0  0  0  0  0
   31.9203   30.7339   -3.5905 C   0  0  0  0  0  0  0  0  0  0  0  0
   34.7901   22.9846    0.4637 C   0  0  0  0  0  0  0  0  0  0  0  0
   33.1418   28.2486   -3.3187 C   0  0  0  0  0  0  0  0  0  0  0  0
   31.4985   30.0497   -7.2889 C   0  0  0  0  0  0  0  0  0  0  0  0
   30.8422   30.9221   -8.3101 C   0  0  0  0  0  0  0  0  0  0  0  0
   33.3197   29.3382    1.6981 C   0  0  0  0  0  0  0  0  0  0  0  0
   32.4265   31.5866    1.3788 C   0  0  0  0  0  0  0  0  0  0  0  0
   32.9577   28.8245   -4.6328 C   0  0  0  0  0  0  0  0  0  0  0  0
   32.6523   24.1404   -0.3727 C   0  0  0  0  0  0  0  0  0  0  0  0
   31.9328   29.8348   -4.7760 C   0  0  0  0  0  0  0  0  0  0  0  0
   33.7094   29.2940    0.4154 C   0  0  0  0  0  0  0  0  0  0  0  0
   33.3992   29.2448   -2.3559 C   0  0  0  0  0  0  0  0  0  0  0  0
   31.4363   26.6678   -3.5368 O   0  0  0  0  0  0  0  0  0  0  0  0
   31.0380   31.9621   -3.5380 C   0  0  0  0  0  0  0  0  0  0  0  0
  1 30  1  0
  1 31  1  0
  2  5  1  0
  2 31  2  0
  3 10  1  0
  4  9  1  0
  4 16  1  0
  4 22  1  0
  5 19  1  0
  5 35  1  0
  6 12  1  0
  6 14  1  0
  7 18  2  0
  8 26  1  0
  9 15  2  0
 10 18  1  0
 11 19  1  0
 11 25  1  0
 11 36  1  0
 12 20  1  0
 13 15  1  0
 13 26  1  0
 13 33  1  0
 14 38  1  0
 16 33  2  0
 17 23  1  0
 17 24  1  0
 18 26  1  0
 20 28  1  0
 20 34  1  0
 21 29  2  0
 22 27  1  0
 22 37  2  0
 23 29  1  0
 24 28  1  0
 25 34  1  0
 25 38  1  0
 27 32  1  0
 27 36  1  0
 28 29  1  0
 30 35  2  0
 32 34  1  0
M  END
>  <ID>  (1) 
conformer_0

$$$$
