
     RDKit          3D

 44 48  0  0  0  0  0  0  0  0999 V2000
   32.7802   30.1910    0.8020 C   0  0  0  0  0  0  0  0  0  0  0  0
   33.1089   29.6969   -8.0715 C   0  0  0  0  0  0  0  0  0  0  0  0
   33.3138   21.7713    0.4815 C   0  0  0  0  0  0  0  0  0  0  0  0
   35.0687   23.6729   -0.6283 C   0  0  0  0  0  0  0  0  0  0  0  0
   31.1283   31.0903   -1.6303 C   0  0  0  0  0  0  0  0  0  0  0  0
   34.0162   27.7292    0.5406 C   0  0  0  0  0  0  0  0  0  0  0  0
   35.3455   20.6196   -0.3351 O   0  0  0  0  0  0  0  0  0  0  0  0
   33.3528   28.3453   -0.4626 C   0  0  0  0  0  0  0  0  0  0  0  0
   29.2004   29.9577   -3.6025 C   0  0  0  0  0  0  0  0  0  0  0  0
   31.5784   24.5981   -1.8623 C   0  0  0  0  0  0  0  0  0  0  0  0
   32.8544   29.0070   -3.5755 C   0  0  0  0  0  0  0  0  0  0  0  0
   32.8659   23.1946    0.2772 C   0  0  0  0  0  0  0  0  0  0  0  0
   32.6499   30.4053   -5.7387 C   0  0  0  0  0  0  0  0  0  0  0  0
   30.3230   31.2108   -5.3776 C   0  0  0  0  0  0  0  0  0  0  0  0
   33.0343   29.9320   -9.4202 C   0  0  0  0  0  0  0  0  0  0  0  0
   32.4543   31.0669   -9.8923 C   0  0  0  0  0  0  0  0  0  0  0  0
   31.4914   32.9031   -6.8293 C   0  0  0  0  0  0  0  0  0  0  0  0
   32.5994   24.8498   -3.9734 O   0  0  0  0  0  0  0  0  0  0  0  0
   32.3400   33.9038   -6.1234 C   0  0  0  0  0  0  0  0  0  0  0  0
   35.5136   22.8514    0.5397 C   0  0  0  0  0  0  0  0  0  0  0  0
   33.6831   24.2189   -0.3762 C   0  0  0  0  0  0  0  0  0  0  0  0
   32.4447   29.3336   -4.9388 C   0  0  0  0  0  0  0  0  0  0  0  0
   33.5075   29.6595    1.8483 C   0  0  0  0  0  0  0  0  0  0  0  0
   31.9124   32.0254   -9.0407 C   0  0  0  0  0  0  0  0  0  0  0  0
   29.8558   30.8852   -2.5426 C   0  0  0  0  0  0  0  0  0  0  0  0
   31.8418   28.8911   -2.5226 C   0  0  0  0  0  0  0  0  0  0  0  0
   31.9744   31.8274   -7.6805 C   0  0  0  0  0  0  0  0  0  0  0  0
   32.2120   31.3806    0.8675 O   0  0  0  0  0  0  0  0  0  0  0  0
   35.0085   20.7200    1.8558 C   0  0  0  0  0  0  0  0  0  0  0  0
   33.5562   25.6461   -0.7013 C   0  0  0  0  0  0  0  0  0  0  0  0
   35.6688   23.5032    1.6831 O   0  0  0  0  0  0  0  0  0  0  0  0
   34.8270   21.4870    0.5909 C   0  0  0  0  0  0  0  0  0  0  0  0
   32.8910   26.1045   -3.1350 O   0  0  0  0  0  0  0  0  0  0  0  0
   31.8656   29.8905   -1.4451 N   0  0  0  0  0  0  0  0  0  0  0  0
   34.5163   26.3421    0.3357 C   0  0  0  0  0  0  0  0  0  0  0  0
   30.9252   28.0353   -2.4661 O   0  0  0  0  0  0  0  0  0  0  0  0
   29.1418   32.9916   -6.4221 O   0  0  0  0  0  0  0  0  0  0  0  0
   32.5421   30.6151   -7.1773 C   0  0  0  0  0  0  0  0  0  0  0  0
   32.6554   29.4460   -0.3853 C   0  0  0  0  0  0  0  0  0  0  0  0
   31.6538   30.6624   -4.8868 C   0  0  0  0  0  0  0  0  0  0  0  0
   29.0478   30.7996   -4.8117 O   0  0  0  0  0  0  0  0  0  0  0  0
   34.1176   28.4067    1.7533 C   0  0  0  0  0  0  0  0  0  0  0  0
   32.5583   25.6904   -1.8313 C   0  0  0  0  0  0  0  0  0  0  0  0
   30.2690   32.4895   -6.0875 C   0  0  0  0  0  0  0  0  0  0  0  0
  1 23  2  0
  1 28  1  0
  1 39  1  0
  2 15  2  0
  2 38  1  0
  3 12  1  0
  3 32  1  0
  4 20  1  0
  4 21  1  0
  5 25  1  0
  5 34  1  0
  6  8  1  0
  6 35  1  0
  6 42  2  0
  7 32  1  0
  8 39  2  0
  9 25  1  0
  9 41  1  0
 10 43  1  0
 11 22  1  0
 11 26  1  0
 12 21  2  0
 13 22  1  0
 13 38  1  0
 13 40  1  0
 14 40  1  0
 14 41  1  0
 14 44  1  0
 15 16  1  0
 16 24  2  0
 17 19  1  0
 17 27  1  0
 17 44  1  0
 18 33  1  0
 20 31  1  0
 20 32  1  0
 21 30  1  0
 23 42  1  0
 24 27  1  0
 26 34  1  0
 26 36  2  0
 27 38  2  0
 29 32  1  0
 30 35  1  0
 30 43  1  0
 33 43  1  0
 34 39  1  0
 37 44  2  0
M  END
>  <ID>  (1) 
conformer_0

$$$$
