
     RDKit          3D

 44 48  0  0  0  0  0  0  0  0999 V2000
   34.4404   29.8187    0.0827 C   0  0  0  0  0  0  0  0  0  0  0  0
   32.9168   24.7298   -1.2241 C   0  0  0  0  0  0  0  0  0  0  0  0
   33.5788   31.0457    0.0318 C   0  0  0  0  0  0  0  0  0  0  0  0
   33.5071   32.1711   -1.0673 C   0  0  0  0  0  0  0  0  0  0  0  0
   30.7341   31.2367   -8.6851 O   0  0  0  0  0  0  0  0  0  0  0  0
   34.2824   20.0776    3.2816 C   0  0  0  0  0  0  0  0  0  0  0  0
   32.8102   30.5267    2.2088 C   0  0  0  0  0  0  0  0  0  0  0  0
   32.1110   32.4889    1.0536 F   0  0  0  0  0  0  0  0  0  0  0  0
   29.2358   33.2661   -6.5156 C   0  0  0  0  0  0  0  0  0  0  0  0
   32.6010   30.3779   -7.4646 C   0  0  0  0  0  0  0  0  0  0  0  0
   35.1903   25.4526    1.9429 C   0  0  0  0  0  0  0  0  0  0  0  0
   32.2851   26.9258   -4.1587 N   0  0  0  0  0  0  0  0  0  0  0  0
   33.6373   29.4175    2.2913 C   0  0  0  0  0  0  0  0  0  0  0  0
   32.9726   29.2543   -4.0981 N   0  0  0  0  0  0  0  0  0  0  0  0
   32.8543   31.6994   -3.4024 C   0  0  0  0  0  0  0  0  0  0  0  0
   32.8423   31.3274    1.1156 C   0  0  0  0  0  0  0  0  0  0  0  0
   31.0605   28.4294   -2.9404 O   0  0  0  0  0  0  0  0  0  0  0  0
   31.3358   30.7562   -5.0894 C   0  0  0  0  0  0  0  0  0  0  0  0
   32.2235   24.5012   -3.7903 C   0  0  0  0  0  0  0  0  0  0  0  0
   35.1892   19.9665    2.2063 O   0  0  0  0  0  0  0  0  0  0  0  0
   35.3069   22.6890   -0.1636 C   0  0  0  0  0  0  0  0  0  0  0  0
   30.3284   31.1693   -7.3302 C   0  0  0  0  0  0  0  0  0  0  0  0
   35.3769   27.8537    1.5937 C   0  0  0  0  0  0  0  0  0  0  0  0
   33.8993   31.5258   -2.3719 C   0  0  0  0  0  0  0  0  0  0  0  0
   32.1259   25.8942   -3.2468 C   0  0  0  0  0  0  0  0  0  0  0  0
   33.7101   26.5238    0.3574 C   0  0  0  0  0  0  0  0  0  0  0  0
   28.5588   30.8926   -5.6846 O   0  0  0  0  0  0  0  0  0  0  0  0
   34.2374   24.5036    1.3453 C   0  0  0  0  0  0  0  0  0  0  0  0
   34.7998   26.6497    1.3487 N   0  0  0  0  0  0  0  0  0  0  0  0
   36.3420   28.0845    2.4050 O   0  0  0  0  0  0  0  0  0  0  0  0
   31.4287   30.5528   -6.5407 C   0  0  0  0  0  0  0  0  0  0  0  0
   32.5837   30.5890   -4.3389 C   0  0  0  0  0  0  0  0  0  0  0  0
   35.6890   21.3027    0.1878 C   0  0  0  0  0  0  0  0  0  0  0  0
   34.5385   22.3005    1.8879 N   0  0  0  0  0  0  0  0  0  0  0  0
   34.6682   23.2184    1.0167 C   0  0  0  0  0  0  0  0  0  0  0  0
   32.3619   25.9566   -1.8201 C   0  0  0  0  0  0  0  0  0  0  0  0
   32.1389   30.9108   -8.7974 C   0  0  0  0  0  0  0  0  0  0  0  0
   35.1330   21.1712    1.4149 N   0  0  0  0  0  0  0  0  0  0  0  0
   32.8471   30.4346   -9.9732 C   0  0  0  0  0  0  0  0  0  0  0  0
   31.8421   24.6573   -5.1312 C   0  0  0  0  0  0  0  0  0  0  0  0
   33.4880   25.1271    0.2865 C   0  0  0  0  0  0  0  0  0  0  0  0
   34.5133   29.0665    1.2712 C   0  0  0  0  0  0  0  0  0  0  0  0
   29.2008   31.7552   -6.5544 C   0  0  0  0  0  0  0  0  0  0  0  0
   32.0547   28.1925   -3.7334 C   0  0  0  0  0  0  0  0  0  0  0  0
  1  3  2  0
  1 42  1  0
  2 36  1  0
  2 41  1  0
  3  4  1  0
  3 16  1  0
  4 24  1  0
  5 22  1  0
  5 37  1  0
  6 20  1  0
  7 13  1  0
  7 16  2  0
  8 16  1  0
  9 43  1  0
 10 31  1  0
 10 37  1  0
 11 28  1  0
 11 29  1  0
 12 25  1  0
 12 44  1  0
 13 42  2  0
 14 32  1  0
 14 44  1  0
 15 24  1  0
 15 32  1  0
 17 44  2  0
 18 31  1  0
 18 32  1  0
 19 25  1  0
 19 40  1  0
 20 38  1  0
 21 33  1  0
 21 35  1  0
 22 31  2  0
 22 43  1  0
 23 29  1  0
 23 30  2  0
 23 42  1  0
 25 36  1  0
 26 29  1  0
 26 41  1  0
 27 43  1  0
 28 35  1  0
 28 41  1  0
 33 38  1  0
 34 35  1  0
 34 38  1  0
 37 39  1  0
M  END
>  <ID>  (1) 
conformer_0

$$$$
