
     RDKit          3D

 26 29  0  0  0  0  0  0  0  0999 V2000
   32.6609   25.4066   -1.5181 C   0  0  0  0  0  0  0  0  0  0  0  0
   31.3996   31.1512   -5.4466 C   0  0  0  0  0  0  0  0  0  0  0  0
   34.3388   22.6947    0.2510 C   0  0  0  0  0  0  0  0  0  0  0  0
   32.5225   26.7272   -1.8261 C   0  0  0  0  0  0  0  0  0  0  0  0
   32.9329   27.6660   -0.9515 C   0  0  0  0  0  0  0  0  0  0  0  0
   33.2234   24.9751   -0.3252 C   0  0  0  0  0  0  0  0  0  0  0  0
   30.7020   32.0753   -6.6105 C   0  0  0  0  0  0  0  0  0  0  0  0
   33.4706   27.2269    0.3099 C   0  0  0  0  0  0  0  0  0  0  0  0
   29.3220   32.6168   -6.0800 C   0  0  0  0  0  0  0  0  0  0  0  0
   33.6363   28.4164    1.0684 C   0  0  0  0  0  0  0  0  0  0  0  0
   33.6799   25.8878    0.6191 C   0  0  0  0  0  0  0  0  0  0  0  0
   32.8942   29.0684   -0.9947 C   0  0  0  0  0  0  0  0  0  0  0  0
   32.3833   29.9992   -7.4400 C   0  0  0  0  0  0  0  0  0  0  0  0
   32.7231   29.8748   -2.0979 C   0  0  0  0  0  0  0  0  0  0  0  0
   31.6154   30.7048   -8.5337 C   0  0  0  0  0  0  0  0  0  0  0  0
   30.3788   31.3191   -7.9453 C   0  0  0  0  0  0  0  0  0  0  0  0
   32.7415   30.3903   -3.3096 C   0  0  0  0  0  0  0  0  0  0  0  0
   32.7117   30.6704    0.6814 O   0  0  0  0  0  0  0  0  0  0  0  0
   32.5499   31.8790   -3.3351 C   0  0  0  0  0  0  0  0  0  0  0  0
   31.5521   29.7905   -6.1244 C   0  0  0  0  0  0  0  0  0  0  0  0
   33.1724   23.5385    0.0185 C   0  0  0  0  0  0  0  0  0  0  0  0
   33.7606   21.2741    0.5635 C   0  0  0  0  0  0  0  0  0  0  0  0
   31.3642   32.1425   -4.2000 C   0  0  0  0  0  0  0  0  0  0  0  0
   33.1490   29.4989    0.3076 C   0  0  0  0  0  0  0  0  0  0  0  0
   32.6580   31.4691    1.7198 C   0  0  0  0  0  0  0  0  0  0  0  0
   32.2000   29.9082   -4.6863 C   0  0  0  0  0  0  0  0  0  0  0  0
  1  4  2  0
  1  6  1  0
  2  7  1  0
  2 20  1  0
  2 23  1  0
  3 21  1  0
  3 22  1  0
  4  5  1  0
  5  8  2  0
  5 12  1  0
  6 11  2  0
  6 21  1  0
  7  9  1  0
  7 16  1  0
  8 10  1  0
  8 11  1  0
 10 24  1  0
 12 14  2  0
 12 24  1  0
 13 15  1  0
 13 20  1  0
 14 17  2  0
 15 16  1  0
 17 19  1  0
 17 26  1  0
 18 24  1  0
 18 25  1  0
 19 23  1  0
 20 26  1  0
M  END
>  <ID>  (1) 
conformer_0

$$$$
