
     RDKit          3D

 42 47  0  0  0  0  0  0  0  0999 V2000
   35.8682   22.5729   -0.0708 C   0  0  0  0  0  0  0  0  0  0  0  0
   33.5562   27.7352    0.2787 C   0  0  0  0  0  0  0  0  0  0  0  0
   32.1832   30.6686   -5.4094 O   0  0  0  0  0  0  0  0  0  0  0  0
   32.9370   30.7162   -0.5676 C   0  0  0  0  0  0  0  0  0  0  0  0
   34.0607   21.0136    1.3717 C   0  0  0  0  0  0  0  0  0  0  0  0
   32.9409   26.5441   -1.6910 C   0  0  0  0  0  0  0  0  0  0  0  0
   33.7441   29.9621    1.8500 C   0  0  0  0  0  0  0  0  0  0  0  0
   34.6640   26.3686    1.7309 C   0  0  0  0  0  0  0  0  0  0  0  0
   33.8717   30.7543   -1.6436 N   0  0  0  0  0  0  0  0  0  0  0  0
   34.1742   27.6952    1.4673 C   0  0  0  0  0  0  0  0  0  0  0  0
   34.2517   25.6334    0.6138 C   0  0  0  0  0  0  0  0  0  0  0  0
   33.2952   29.4659   -3.7716 N   0  0  0  0  0  0  0  0  0  0  0  0
   28.0804   32.4302   -5.4201 O   0  0  0  0  0  0  0  0  0  0  0  0
   29.0996   31.7144   -5.2255 C   0  0  0  0  0  0  0  0  0  0  0  0
   29.5526   30.7277   -2.5726 C   0  0  0  0  0  0  0  0  0  0  0  0
   32.4571   25.5366   -2.5065 C   0  0  0  0  0  0  0  0  0  0  0  0
   33.5249   26.5263   -0.3612 C   0  0  0  0  0  0  0  0  0  0  0  0
   34.4850   24.4497    0.3324 N   0  0  0  0  0  0  0  0  0  0  0  0
   34.6976   23.1744    0.4171 C   0  0  0  0  0  0  0  0  0  0  0  0
   33.8083   30.3544   -2.8809 C   0  0  0  0  0  0  0  0  0  0  0  0
   33.2508   29.7760   -5.1516 C   0  0  0  0  0  0  0  0  0  0  0  0
   31.6223   30.8207   -0.8542 C   0  0  0  0  0  0  0  0  0  0  0  0
   29.3758   31.3418   -3.8758 N   0  0  0  0  0  0  0  0  0  0  0  0
   29.5513   31.5034   -7.7514 C   0  0  0  0  0  0  0  0  0  0  0  0
   32.1185   25.9141   -3.8587 C   0  0  0  0  0  0  0  0  0  0  0  0
   29.8230   30.6770   -9.7753 F   0  0  0  0  0  0  0  0  0  0  0  0
   33.2868   30.5377    0.7619 C   0  0  0  0  0  0  0  0  0  0  0  0
   32.9126   27.7501   -2.1774 C   0  0  0  0  0  0  0  0  0  0  0  0
   33.7406   22.3671    1.0056 C   0  0  0  0  0  0  0  0  0  0  0  0
   31.6716   30.9780   -9.7291 F   0  0  0  0  0  0  0  0  0  0  0  0
   32.5866   29.5487   -7.8760 F   0  0  0  0  0  0  0  0  0  0  0  0
   30.6252   30.7752   -1.6893 N   0  0  0  0  0  0  0  0  0  0  0  0
   35.3353   20.4503    1.1054 C   0  0  0  0  0  0  0  0  0  0  0  0
   29.9386   31.3461   -6.3603 C   0  0  0  0  0  0  0  0  0  0  0  0
   30.6045   30.8864   -8.6263 C   0  0  0  0  0  0  0  0  0  0  0  0
   36.2350   21.2535    0.3641 C   0  0  0  0  0  0  0  0  0  0  0  0
   31.5487   30.4227   -7.6292 C   0  0  0  0  0  0  0  0  0  0  0  0
   32.8027   28.1536   -3.4139 C   0  0  0  0  0  0  0  0  0  0  0  0
   31.2175   30.7758   -6.3638 C   0  0  0  0  0  0  0  0  0  0  0  0
   34.2353   28.7486    2.2772 N   0  0  0  0  0  0  0  0  0  0  0  0
   32.3047   27.2440   -4.3116 C   0  0  0  0  0  0  0  0  0  0  0  0
   28.9873   29.2163   -2.8352 C   0  0  0  0  0  0  0  0  0  0  0  0
  1 19  2  0
  1 36  1  0
  2 10  1  0
  2 17  1  0
  3 21  1  0
  3 39  1  0
  4  9  1  0
  4 22  1  0
  4 27  2  0
  5 29  2  0
  5 33  1  0
  6 16  2  0
  6 17  1  0
  6 28  1  0
  7 27  2  0
  7 40  1  0
  8 10  1  0
  8 11  1  0
  9 20  1  0
 10 40  2  0
 11 17  2  0
 11 18  1  0
 12 20  1  0
 12 21  1  0
 12 38  1  0
 13 14  2  0
 14 23  1  0
 14 34  1  0
 15 23  2  0
 15 32  1  0
 15 42  1  0
 16 25  1  0
 18 19  1  0
 19 29  1  0
 22 32  1  0
 24 34  1  0
 24 35  1  0
 25 41  1  0
 26 35  1  0
 28 38  1  0
 30 35  1  0
 31 37  1  0
 33 36  2  0
 34 39  1  0
 35 37  1  0
 37 39  1  0
 38 41  2  0
M  END
>  <ID>  (1) 
conformer_0

$$$$
