
     RDKit          3D

 32 36  0  0  0  0  0  0  0  0999 V2000
   29.1550   30.8818   -2.3319 C   0  0  0  0  0  0  0  0  0  0  0  0
   35.0917   22.2912    0.0450 N   0  0  0  0  0  0  0  0  0  0  0  0
   33.9371   27.3243    1.1984 C   0  0  0  0  0  0  0  0  0  0  0  0
   32.8175   30.8484    0.8154 O   0  0  0  0  0  0  0  0  0  0  0  0
   35.1342   23.6453   -0.4837 C   0  0  0  0  0  0  0  0  0  0  0  0
   33.6693   28.7219    1.4807 C   0  0  0  0  0  0  0  0  0  0  0  0
   33.1382   25.7473   -2.0019 C   0  0  0  0  0  0  0  0  0  0  0  0
   32.7815   27.6269   -3.3654 C   0  0  0  0  0  0  0  0  0  0  0  0
   33.1108   29.5620    0.5497 C   0  0  0  0  0  0  0  0  0  0  0  0
   32.9566   27.1066   -2.1953 C   0  0  0  0  0  0  0  0  0  0  0  0
   33.5953   25.5574   -0.6630 N   0  0  0  0  0  0  0  0  0  0  0  0
   33.7848   22.0264    0.4661 N   0  0  0  0  0  0  0  0  0  0  0  0
   31.0615   30.5695   -3.9287 C   0  0  0  0  0  0  0  0  0  0  0  0
   30.5060   31.1176   -6.3605 C   0  0  0  0  0  0  0  0  0  0  0  0
   33.1205   27.7780   -0.9719 C   0  0  0  0  0  0  0  0  0  0  0  0
   32.2705   29.7974   -1.7062 N   0  0  0  0  0  0  0  0  0  0  0  0
   32.2490   29.7059   -6.0540 C   0  0  0  0  0  0  0  0  0  0  0  0
   33.3372   20.7675    0.8156 O   0  0  0  0  0  0  0  0  0  0  0  0
   32.9517   28.1812   -4.3449 C   0  0  0  0  0  0  0  0  0  0  0  0
   33.0401   28.7528   -5.4671 C   0  0  0  0  0  0  0  0  0  0  0  0
   31.0686   30.7439   -7.5941 C   0  0  0  0  0  0  0  0  0  0  0  0
   29.7450   31.3475   -3.6533 C   0  0  0  0  0  0  0  0  0  0  0  0
   33.0374   29.5234   -8.4118 C   0  0  0  0  0  0  0  0  0  0  0  0
   33.0295   23.2871    0.2319 N   0  0  0  0  0  0  0  0  0  0  0  0
   31.8916   30.6550   -2.6717 C   0  0  0  0  0  0  0  0  0  0  0  0
   33.8907   24.2529   -0.3140 C   0  0  0  0  0  0  0  0  0  0  0  0
   32.1796   29.9641   -7.4001 C   0  0  0  0  0  0  0  0  0  0  0  0
   30.4857   31.0911   -8.8624 F   0  0  0  0  0  0  0  0  0  0  0  0
   31.2998   30.4407   -5.3440 C   0  0  0  0  0  0  0  0  0  0  0  0
   33.6000   26.8595   -0.0411 C   0  0  0  0  0  0  0  0  0  0  0  0
   32.0623   31.8919   -2.2920 O   0  0  0  0  0  0  0  0  0  0  0  0
   32.8312   29.0810   -0.7107 C   0  0  0  0  0  0  0  0  0  0  0  0
  1 22  1  0
  2  5  1  0
  2 12  1  0
  3  6  2  0
  3 30  1  0
  4  9  1  0
  5 26  1  0
  6  9  1  0
  7 10  1  0
  7 11  1  0
  8 10  1  0
  8 19  3  0
  9 32  2  0
 10 15  1  0
 11 26  1  0
 11 30  1  0
 12 18  1  0
 12 24  1  0
 13 22  1  0
 13 25  1  0
 13 29  1  0
 14 21  1  0
 14 29  1  0
 15 30  2  0
 15 32  1  0
 16 25  1  0
 16 32  1  0
 17 20  1  0
 17 27  2  0
 17 29  1  0
 19 20  1  0
 21 27  1  0
 21 28  1  0
 23 27  1  0
 24 26  2  0
 25 31  2  0
M  END
>  <ID>  (1) 
conformer_0

$$$$
