
     RDKit          3D

 33 37  0  0  0  0  0  0  0  0999 V2000
   34.6573   22.9322    0.2664 C   0  0  0  0  0  0  0  0  0  0  0  0
   32.6306   31.4230    1.8462 O   0  0  0  0  0  0  0  0  0  0  0  0
   32.7249   26.1977   -2.2648 C   0  0  0  0  0  0  0  0  0  0  0  0
   31.6308   30.5903   -8.6780 C   0  0  0  0  0  0  0  0  0  0  0  0
   33.1785   30.1446    1.9134 C   0  0  0  0  0  0  0  0  0  0  0  0
   31.0004   31.0500   -5.9453 C   0  0  0  0  0  0  0  0  0  0  0  0
   32.0246   30.0934   -6.2866 C   0  0  0  0  0  0  0  0  0  0  0  0
   32.5412   29.4850   -3.8975 C   0  0  0  0  0  0  0  0  0  0  0  0
   32.6238   30.7425   -1.3096 C   0  0  0  0  0  0  0  0  0  0  0  0
   34.0211   20.8607    1.6811 C   0  0  0  0  0  0  0  0  0  0  0  0
   32.9870   29.8770   -5.2225 C   0  0  0  0  0  0  0  0  0  0  0  0
   30.2805   30.9506   -8.3287 C   0  0  0  0  0  0  0  0  0  0  0  0
   30.8216   31.4275   -4.5233 C   0  0  0  0  0  0  0  0  0  0  0  0
   33.5409   24.9326   -0.3442 O   0  0  0  0  0  0  0  0  0  0  0  0
   33.4350   27.8758    0.8949 N   0  0  0  0  0  0  0  0  0  0  0  0
   33.3266   23.6814   -0.1009 C   0  0  0  0  0  0  0  0  0  0  0  0
   32.3661   25.2666   -3.0767 N   0  0  0  0  0  0  0  0  0  0  0  0
   31.8904   25.2999   -4.3255 C   0  0  0  0  0  0  0  0  0  0  0  0
   32.1161   31.7740   -0.8497 O   0  0  0  0  0  0  0  0  0  0  0  0
   33.2306   27.2874   -0.2938 C   0  0  0  0  0  0  0  0  0  0  0  0
   31.2268   24.2621   -5.2026 N   0  0  0  0  0  0  0  0  0  0  0  0
   34.4771   21.4669    0.4341 C   0  0  0  0  0  0  0  0  0  0  0  0
   32.9057   29.5119   -0.6125 C   0  0  0  0  0  0  0  0  0  0  0  0
   32.9183   28.2883   -1.3105 N   0  0  0  0  0  0  0  0  0  0  0  0
   31.7267   31.6300   -3.3504 C   0  0  0  0  0  0  0  0  0  0  0  0
   32.4824   30.4558   -2.7826 C   0  0  0  0  0  0  0  0  0  0  0  0
   33.1838   26.0402   -0.8771 C   0  0  0  0  0  0  0  0  0  0  0  0
   33.1677   29.2816    0.7278 C   0  0  0  0  0  0  0  0  0  0  0  0
   32.3905   28.1136   -3.7675 C   0  0  0  0  0  0  0  0  0  0  0  0
   32.5601   30.1937   -7.6462 C   0  0  0  0  0  0  0  0  0  0  0  0
   29.9699   31.2932   -6.9359 C   0  0  0  0  0  0  0  0  0  0  0  0
   32.6736   27.5707   -2.4904 C   0  0  0  0  0  0  0  0  0  0  0  0
   28.5848   32.0607   -6.4973 Cl  0  0  0  0  0  0  0  0  0  0  0  0
  1 16  1  0
  1 22  1  0
  2  5  1  0
  3 17  2  3
  3 27  1  0
  3 32  1  0
  4 12  1  0
  4 30  2  0
  5 28  1  0
  6  7  1  0
  6 13  1  0
  6 31  1  0
  7 11  1  0
  7 30  1  0
  8 11  1  0
  8 26  1  0
  8 29  1  0
  9 19  2  0
  9 23  1  0
  9 26  1  0
 10 22  1  0
 12 31  2  0
 13 25  1  0
 14 16  1  0
 14 27  1  0
 15 20  1  0
 15 28  1  0
 17 18  1  0
 18 21  1  0
 20 24  1  0
 20 27  2  0
 23 24  1  0
 23 28  2  0
 24 32  1  0
 25 26  1  0
 29 32  2  0
 31 33  1  0
M  END
>  <ID>  (1) 
conformer_0

$$$$
