
     RDKit          3D

 36 41  0  0  0  0  0  0  0  0999 V2000
   33.2602   29.7307    1.7011 C   0  0  0  0  0  0  0  0  0  0  0  0
   33.0395   29.7855   -8.1193 C   0  0  0  0  0  0  0  0  0  0  0  0
   32.3468   27.5014   -2.5867 C   0  0  0  0  0  0  0  0  0  0  0  0
   32.5348   25.2777   -2.1390 C   0  0  0  0  0  0  0  0  0  0  0  0
   33.6220   26.9169   -0.5997 C   0  0  0  0  0  0  0  0  0  0  0  0
   31.2906   32.4022   -1.1698 O   0  0  0  0  0  0  0  0  0  0  0  0
   29.6862   32.0922   -6.8279 C   0  0  0  0  0  0  0  0  0  0  0  0
   32.8282   29.7180   -1.7992 N   0  0  0  0  0  0  0  0  0  0  0  0
   30.0910   31.9145   -4.4741 N   0  0  0  0  0  0  0  0  0  0  0  0
   33.6314   22.1896    0.6829 C   0  0  0  0  0  0  0  0  0  0  0  0
   33.2446   30.6913   -3.8435 C   0  0  0  0  0  0  0  0  0  0  0  0
   30.2530   31.6503   -3.1694 C   0  0  0  0  0  0  0  0  0  0  0  0
   33.0540   29.4485   -0.4951 C   0  0  0  0  0  0  0  0  0  0  0  0
   34.3197   20.2006    2.4824 C   0  0  0  0  0  0  0  0  0  0  0  0
   34.4319   23.3104    0.1960 N   0  0  0  0  0  0  0  0  0  0  0  0
   32.7619   31.0261   -2.4610 C   0  0  0  0  0  0  0  0  0  0  0  0
   35.9214   21.3043    0.7616 C   0  0  0  0  0  0  0  0  0  0  0  0
   33.9571   24.4875   -0.4318 C   0  0  0  0  0  0  0  0  0  0  0  0
   29.2560   30.8022   -2.5362 O   0  0  0  0  0  0  0  0  0  0  0  0
   32.8837   29.2905   -4.0617 O   0  0  0  0  0  0  0  0  0  0  0  0
   34.4578   21.0857    1.2789 C   0  0  0  0  0  0  0  0  0  0  0  0
   34.2620   25.7876   -0.0417 C   0  0  0  0  0  0  0  0  0  0  0  0
   32.8683   26.5854   -1.7597 C   0  0  0  0  0  0  0  0  0  0  0  0
   33.4885   28.2134    0.0292 C   0  0  0  0  0  0  0  0  0  0  0  0
   32.9368   30.3780    0.5314 C   0  0  0  0  0  0  0  0  0  0  0  0
   29.2882   32.1690   -5.4878 C   0  0  0  0  0  0  0  0  0  0  0  0
   31.8638   31.9428   -7.9823 C   0  0  0  0  0  0  0  0  0  0  0  0
   33.6140   28.3742    1.4158 C   0  0  0  0  0  0  0  0  0  0  0  0
   33.0815   24.2125   -1.5240 C   0  0  0  0  0  0  0  0  0  0  0  0
   32.6327   28.7490   -2.7933 C   0  0  0  0  0  0  0  0  0  0  0  0
   31.9852   29.1658   -7.4520 C   0  0  0  0  0  0  0  0  0  0  0  0
   30.8158   31.2877   -7.2791 C   0  0  0  0  0  0  0  0  0  0  0  0
   35.7661   22.7550   -0.0286 C   0  0  0  0  0  0  0  0  0  0  0  0
   30.8854   29.8869   -7.0549 C   0  0  0  0  0  0  0  0  0  0  0  0
   31.4841   31.7378   -2.3831 C   0  0  0  0  0  0  0  0  0  0  0  0
   32.9696   31.1736   -8.4024 C   0  0  0  0  0  0  0  0  0  0  0  0
  1 25  1  0
  1 28  1  0
  2 31  2  0
  2 36  1  0
  3 23  1  0
  3 30  1  0
  4 23  2  0
  4 29  1  0
  5 22  1  0
  5 23  1  0
  5 24  1  0
  6 35  1  0
  7 26  1  0
  7 32  1  0
  8 13  1  0
  8 16  1  0
  8 30  1  0
  9 12  1  0
  9 26  2  3
 10 15  1  0
 10 21  1  0
 11 16  1  0
 11 20  1  0
 12 19  2  0
 12 35  1  0
 13 24  2  0
 13 25  1  0
 14 21  1  0
 15 18  1  0
 15 33  1  0
 16 35  1  0
 17 21  1  0
 17 33  1  0
 18 22  1  0
 18 29  2  0
 20 30  1  0
 24 28  1  0
 27 32  1  0
 27 36  2  0
 31 34  1  0
 32 34  2  0
M  END
>  <ID>  (1) 
conformer_0

$$$$
