
     RDKit          3D

 37 41  0  0  0  0  0  0  0  0999 V2000
   32.5245   29.6576   -8.3117 N   0  0  0  0  0  0  0  0  0  0  0  0
   33.5918   28.3476   -0.3515 C   0  0  0  0  0  0  0  0  0  0  0  0
   32.7155   30.3217    1.9021 C   0  0  0  0  0  0  0  0  0  0  0  0
   32.5550   28.2041   -2.8190 C   0  0  0  0  0  0  0  0  0  0  0  0
   34.1903   27.6618    0.7127 C   0  0  0  0  0  0  0  0  0  0  0  0
   32.2905   29.4380   -3.4711 C   0  0  0  0  0  0  0  0  0  0  0  0
   31.2176   31.2752   -6.5973 C   0  0  0  0  0  0  0  0  0  0  0  0
   32.9410   31.6644   -2.1379 C   0  0  0  0  0  0  0  0  0  0  0  0
   32.2234   27.0137   -3.5976 C   0  0  0  0  0  0  0  0  0  0  0  0
   32.1296   23.6072   -2.4510 O   0  0  0  0  0  0  0  0  0  0  0  0
   29.9744   29.4419   -7.7458 O   0  0  0  0  0  1  0  0  0  0  0  0
   30.7079   30.6737   -2.0619 C   0  0  0  0  0  0  0  0  0  0  0  0
   34.1618   24.1260   -0.2247 C   0  0  0  0  0  0  0  0  0  0  0  0
   31.4429   32.9186   -4.3234 C   0  0  0  0  0  0  0  0  0  0  0  0
   34.2793   26.2862    0.6284 C   0  0  0  0  0  0  0  0  0  0  0  0
   32.5456   25.8602   -2.8386 C   0  0  0  0  0  0  0  0  0  0  0  0
   33.8489   29.4153    2.4922 C   0  0  0  0  0  0  0  0  0  0  0  0
   33.2680   23.2404    0.4692 C   0  0  0  0  0  0  0  0  0  0  0  0
   31.0400   33.4611   -5.5457 C   0  0  0  0  0  0  0  0  0  0  0  0
   33.0120   31.6255   -0.8537 O   0  0  0  0  0  0  0  0  0  0  0  0
   33.1339   27.7239   -1.5118 C   0  0  0  0  0  0  0  0  0  0  0  0
   34.9021   21.3840    0.6716 N   0  0  0  0  0  0  0  0  0  0  0  0
   31.6965   31.5482   -4.2108 C   0  0  0  0  0  0  0  0  0  0  0  0
   33.1944   26.2847   -1.6138 C   0  0  0  0  0  0  0  0  0  0  0  0
   32.0639   29.4736   -4.9395 S   0  0  0  0  0  0  0  0  0  0  0  0
   35.8124   22.2342    0.0355 C   0  0  0  0  0  0  0  0  0  0  0  0
   31.5467   24.4249   -4.4220 O   0  0  0  0  0  0  0  0  0  0  0  0
   31.0357   30.3582   -8.0621 S   0  0  0  0  0  4  0  0  0  0  0  0
   30.7109   31.2760   -9.1758 O   0  0  0  0  0  1  0  0  0  0  0  0
   30.8752   32.6672   -6.6611 C   0  0  0  0  0  0  0  0  0  0  0  0
   33.8274   25.5475   -0.5134 C   0  0  0  0  0  0  0  0  0  0  0  0
   32.0693   24.5117   -3.2671 C   0  0  0  0  0  0  0  0  0  0  0  0
   31.9679   30.8076   -2.9679 C   0  0  0  0  0  0  0  0  0  0  0  0
   31.6364   30.7578   -5.3606 C   0  0  0  0  0  0  0  0  0  0  0  0
   35.4687   23.5538   -0.3943 C   0  0  0  0  0  0  0  0  0  0  0  0
   34.7632   28.3261    1.9691 C   0  0  0  0  0  0  0  0  0  0  0  0
   33.6516   21.8776    0.8343 C   0  0  0  0  0  0  0  0  0  0  0  0
  1 28  1  0
  2  5  1  0
  2 21  2  0
  3 17  1  0
  4  6  1  0
  4  9  1  0
  4 21  1  0
  5 15  2  0
  5 36  1  0
  6 25  1  0
  6 33  1  0
  7 28  1  0
  7 30  1  0
  7 34  1  0
  8 20  1  0
  8 33  1  0
  9 16  1  0
 10 32  2  0
 11 28  1  0
 12 33  1  0
 13 18  2  0
 13 31  1  0
 13 35  1  0
 14 19  1  0
 14 23  1  0
 15 31  1  0
 16 24  2  0
 16 32  1  0
 17 36  1  0
 18 37  1  0
 19 30  2  0
 21 24  1  0
 22 26  1  0
 22 37  2  0
 23 33  1  0
 23 34  2  0
 24 31  1  0
 25 34  1  0
 26 35  2  0
 27 32  1  0
 28 29  1  0
M  END
>  <ID>  (1) 
conformer_0

$$$$
