
     RDKit          3D

 26 29  0  0  0  0  0  0  0  0999 V2000
   33.9843   24.6957   -0.0055 C   0  0  0  0  0  0  0  0  0  0  0  0
   32.2352   29.9176   -2.2707 C   0  0  0  0  0  0  0  0  0  0  0  0
   30.7063   30.2301   -2.7864 C   0  0  0  0  0  0  0  0  0  0  0  0
   30.8171   29.7946   -5.3585 C   0  0  0  0  0  0  0  0  0  0  0  0
   33.1158   25.0829   -1.1941 C   0  0  0  0  0  0  0  0  0  0  0  0
   32.6090   29.7732   -3.7733 N   0  0  0  0  0  0  0  0  0  0  0  0
   30.4342   30.0644   -6.7390 C   0  0  0  0  0  0  0  0  0  0  0  0
   31.7168   30.2757   -7.6328 C   0  0  0  0  0  0  0  0  0  0  0  0
   32.6839   28.6463   -1.7076 C   0  0  0  0  0  0  0  0  0  0  0  0
   32.1183   29.1642   -8.3800 O   0  0  0  0  0  0  0  0  0  0  0  0
   33.3941   27.2355   -0.0669 O   0  0  0  0  0  0  0  0  0  0  0  0
   33.1183   26.4626   -1.3231 N   0  0  0  0  0  0  0  0  0  0  0  0
   34.7796   23.4757   -0.4206 C   0  0  0  0  0  0  0  0  0  0  0  0
   32.9789   30.8622   -0.0940 C   0  0  0  0  0  0  0  0  0  0  0  0
   32.6776   27.3251   -2.3142 C   0  0  0  0  0  0  0  0  0  0  0  0
   34.1213   21.3140    0.7191 C   0  0  0  0  0  0  0  0  0  0  0  0
   35.0542   22.5665    0.8060 C   0  0  0  0  0  0  0  0  0  0  0  0
   32.3569   26.9732   -3.4103 O   0  0  0  0  0  0  0  0  0  0  0  0
   33.3407   29.5896    0.4042 C   0  0  0  0  0  0  0  0  0  0  0  0
   30.0358   29.9770   -4.1103 C   0  0  0  0  0  0  0  0  0  0  0  0
   31.3845   31.4120   -8.6503 C   0  0  0  0  0  0  0  0  0  0  0  0
   32.2927   30.0870   -5.1232 C   0  0  0  0  0  0  0  0  0  0  0  0
   32.8132   30.5014   -6.5223 C   0  0  0  0  0  0  0  0  0  0  0  0
   33.1495   28.5158   -0.4194 C   0  0  0  0  0  0  0  0  0  0  0  0
   32.4831   31.0446   -1.3209 C   0  0  0  0  0  0  0  0  0  0  0  0
   34.1400   20.6328    2.0938 C   0  0  0  0  0  0  0  0  0  0  0  0
  1  5  1  0
  1 13  1  0
  2  3  1  0
  2  6  1  0
  2  9  1  0
  2 25  1  0
  3 20  1  0
  4  7  1  0
  4 20  1  0
  4 22  1  0
  5 12  1  0
  6 22  1  0
  7  8  1  0
  8 10  1  0
  8 21  1  0
  8 23  1  0
  9 15  1  0
  9 24  1  0
 11 12  1  0
 11 24  1  0
 12 15  1  0
 13 17  1  0
 14 19  1  0
 14 25  2  0
 15 18  2  0
 16 17  1  0
 16 26  1  0
 19 24  2  0
 22 23  1  0
M  END
>  <ID>  (1) 
conformer_0

$$$$
