
     RDKit          3D

 28 29  0  0  0  0  0  0  0  0999 V2000
   31.8134   31.4852   -4.2795 O   0  0  0  0  0  0  0  0  0  0  0  0
   30.6464   30.4244   -6.8692 C   0  0  0  0  0  0  0  0  0  0  0  0
   31.1094   30.5175   -5.3312 C   0  0  0  0  0  0  0  0  0  0  0  0
   32.8587   29.7923   -8.0173 C   0  0  0  0  0  0  0  0  0  0  0  0
   32.0764   29.2426   -5.1357 C   0  0  0  0  0  0  0  0  0  0  0  0
   33.6100   26.2311   -1.1608 C   0  0  0  0  0  0  0  0  0  0  0  0
   33.2762   27.5893   -0.5701 C   0  0  0  0  0  0  0  0  0  0  0  0
   33.8927   23.9862   -0.2592 C   0  0  0  0  0  0  0  0  0  0  0  0
   33.0042   28.5091   -1.6226 C   0  0  0  0  0  0  0  0  0  0  0  0
   32.2871   32.2334   -7.3995 C   0  0  0  0  0  0  0  0  0  0  0  0
   32.5536   31.1326    1.8700 C   0  0  0  0  0  0  0  0  0  0  0  0
   33.7331   29.0433    1.3717 C   0  0  0  0  0  0  0  0  0  0  0  0
   32.9198   25.1529   -0.3656 C   0  0  0  0  0  0  0  0  0  0  0  0
   32.4085   30.5834   -3.0588 C   0  0  0  0  0  0  0  0  0  0  0  0
   34.9590   21.4835   -0.4492 O   0  0  0  0  0  0  0  0  0  0  0  0
   33.7111   27.7336    0.8204 C   0  0  0  0  0  0  0  0  0  0  0  0
   32.7312   29.8872   -1.6763 C   0  0  0  0  0  0  0  0  0  0  0  0
   33.1400   29.5854   -4.0783 C   0  0  0  0  0  0  0  0  0  0  0  0
   32.9693   30.1048    0.8311 C   0  0  0  0  0  0  0  0  0  0  0  0
   34.6516   29.3599    2.4995 C   0  0  0  0  0  0  0  0  0  0  0  0
   31.7227   30.8585   -7.8586 C   0  0  0  0  0  0  0  0  0  0  0  0
   29.4462   30.9933   -7.1754 O   0  0  0  0  0  0  0  0  0  0  0  0
   31.1364   31.0363   -9.2758 C   0  0  0  0  0  0  0  0  0  0  0  0
   33.3615   22.9421    0.6046 C   0  0  0  0  0  0  0  0  0  0  0  0
   32.9517   30.6406   -0.4916 C   0  0  0  0  0  0  0  0  0  0  0  0
   34.1019   21.6310    0.4260 C   0  0  0  0  0  0  0  0  0  0  0  0
   29.7070   30.4650   -4.5678 C   0  0  0  0  0  0  0  0  0  0  0  0
   33.7518   20.6829    1.1858 O   0  0  0  0  0  0  0  0  0  0  0  0
  1  3  1  0
  1 14  1  0
  2  3  1  0
  2 21  1  0
  2 22  1  0
  3  5  1  0
  3 27  1  0
  4 21  1  0
  5 18  1  0
  6  7  1  0
  6 13  1  0
  7  9  1  0
  7 16  2  0
  8 13  1  0
  8 24  1  0
  9 17  2  0
 10 21  1  0
 11 19  1  0
 12 16  1  0
 12 19  1  0
 12 20  1  0
 14 17  1  0
 14 18  1  0
 15 26  2  0
 17 25  1  0
 19 25  1  0
 21 23  1  0
 24 26  1  0
 26 28  1  0
M  END
>  <ID>  (1) 
conformer_0

$$$$
