
     RDKit          3D

 30 32  0  0  0  0  0  0  0  0999 V2000
   31.4911   30.8487   -9.3762 C   0  0  0  0  0  0  0  0  0  0  0  0
   33.3241   29.7023   -2.1537 C   0  0  0  0  0  0  0  0  0  0  0  0
   33.2628   29.6039   -0.7871 C   0  0  0  0  0  0  0  0  0  0  0  0
   30.0043   31.1971   -2.8910 C   0  0  0  0  0  0  0  0  0  0  0  0
   33.8091   21.4868    0.6027 Cl  0  0  0  0  0  0  0  0  0  0  0  0
   32.5283   30.6600   -6.7958 C   0  0  0  0  0  0  0  0  0  0  0  0
   34.1166   27.4055   -0.5269 C   0  0  0  0  0  0  0  0  0  0  0  0
   32.2115   30.4015   -4.3547 C   0  0  0  0  0  0  0  0  0  0  0  0
   32.6725   25.8496   -1.8285 C   0  0  0  0  0  0  0  0  0  0  0  0
   31.3525   31.3710   -7.0367 C   0  0  0  0  0  0  0  0  0  0  0  0
   31.5069   31.2538   -0.7609 C   0  0  0  0  0  0  0  0  0  0  0  0
   31.0559   29.3146   -4.7260 C   0  0  0  0  0  0  0  0  0  0  0  0
   32.6593   30.1469   -9.1382 C   0  0  0  0  0  0  0  0  0  0  0  0
   33.9524   28.5830   -0.1434 O   0  0  0  0  0  0  0  0  0  0  0  0
   30.8211   31.4465   -8.3005 C   0  0  0  0  0  0  0  0  0  0  0  0
   34.9298   25.2370   -0.6181 C   0  0  0  0  0  0  0  0  0  0  0  0
   32.7623   23.6602   -0.0705 C   0  0  0  0  0  0  0  0  0  0  0  0
   32.5374   30.6078    1.3128 O   0  0  0  0  0  0  0  0  0  0  0  0
   33.2185   30.0721   -7.8706 C   0  0  0  0  0  0  0  0  0  0  0  0
   33.4040   29.8158    2.0552 C   0  0  0  0  0  0  0  0  0  0  0  0
   33.0753   30.6177   -5.4448 N   0  0  0  0  0  0  0  0  0  0  0  0
   33.9323   25.9839   -0.9401 C   0  0  0  0  0  0  0  0  0  0  0  0
   29.7709   29.8607   -3.8967 C   0  0  0  0  0  0  0  0  0  0  0  0
   32.4392   26.6911   -3.0071 C   0  0  0  0  0  0  0  0  0  0  0  0
   33.8628   23.1704    0.0343 C   0  0  0  0  0  0  0  0  0  0  0  0
   31.3447   31.0270   -2.1088 C   0  0  0  0  0  0  0  0  0  0  0  0
   34.9498   23.9510   -0.2202 C   0  0  0  0  0  0  0  0  0  0  0  0
   32.3721   30.3914   -2.8441 C   0  0  0  0  0  0  0  0  0  0  0  0
   31.5793   27.8426   -4.2432 C   0  0  0  0  0  0  0  0  0  0  0  0
   32.4447   30.5039   -0.0500 C   0  0  0  0  0  0  0  0  0  0  0  0
  1 13  1  0
  1 15  1  0
  2  3  1  0
  2 28  2  0
  3 14  1  0
  3 30  1  0
  4 23  1  0
  4 26  1  0
  5 25  1  0
  6 10  1  0
  6 19  1  0
  6 21  1  0
  7 14  1  0
  7 22  1  0
  8 12  1  0
  8 21  1  0
  8 28  1  0
  9 22  1  0
  9 24  1  0
 10 15  2  0
 11 26  1  0
 11 30  2  0
 12 23  1  0
 12 29  1  0
 13 19  2  0
 16 22  1  0
 16 27  2  3
 17 25  2  0
 18 20  1  0
 18 30  1  0
 25 27  1  0
 26 28  1  0
M  END
>  <ID>  (1) 
conformer_0

$$$$
