
     RDKit          3D

 39 43  0  0  0  0  0  0  0  0999 V2000
   33.4303   30.4372   -9.1134 C   0  0  0  0  0  0  0  0  0  0  0  0
   31.4601   32.6919   -9.3935 C   0  0  0  0  0  0  0  0  0  0  0  0
   34.0425   25.0865    0.1432 C   0  0  0  0  0  0  0  0  0  0  0  0
   33.1412   31.4706   -1.5696 C   0  0  0  0  0  0  0  0  0  0  0  0
   32.8614   29.1357   -1.2444 C   0  0  0  0  0  0  0  0  0  0  0  0
   29.7735   30.8104   -3.6696 C   0  0  0  0  0  0  0  0  0  0  0  0
   33.0355   30.3663   -0.6660 C   0  0  0  0  0  0  0  0  0  0  0  0
   32.6999   31.6419    1.3289 F   0  0  0  0  0  0  0  0  0  0  0  0
   33.7453   28.2204    1.6295 C   0  0  0  0  0  0  0  0  0  0  0  0
   32.6648   29.5482   -4.9229 C   0  0  0  0  0  0  0  0  0  0  0  0
   33.0789   31.2029   -2.9605 C   0  0  0  0  0  0  0  0  0  0  0  0
   31.5706   30.1616   -5.6866 C   0  0  0  0  0  0  0  0  0  0  0  0
   33.3743   29.3931    1.6151 C   0  0  0  0  0  0  0  0  0  0  0  0
   34.6051   20.9775    1.0020 C   0  0  0  0  0  0  0  0  0  0  0  0
   30.7390   30.7761   -7.9481 C   0  0  0  0  0  0  0  0  0  0  0  0
   32.2934   26.3989   -2.9941 C   0  0  0  0  0  0  0  0  0  0  0  0
   33.1543   30.0538   -7.7135 C   0  0  0  0  0  0  0  0  0  0  0  0
   32.7916   29.9482   -3.5013 C   0  0  0  0  0  0  0  0  0  0  0  0
   35.7058   21.7390    0.5367 C   0  0  0  0  0  0  0  0  0  0  0  0
   33.4031   25.4550   -1.0136 N   0  0  0  0  0  0  0  0  0  0  0  0
   33.0706   30.4503    0.8023 C   0  0  0  0  0  0  0  0  0  0  0  0
   28.9535   29.8116   -3.7504 O   0  0  0  0  0  0  0  0  0  0  0  0
   32.3710   27.6204   -3.1262 C   0  0  0  0  0  0  0  0  0  0  0  0
   33.3360   21.5736    0.9457 C   0  0  0  0  0  0  0  0  0  0  0  0
   34.4289   25.9387    1.0867 C   0  0  0  0  0  0  0  0  0  0  0  0
   31.8893   30.4936   -7.0761 C   0  0  0  0  0  0  0  0  0  0  0  0
   29.9695   32.0525   -5.7933 C   0  0  0  0  0  0  0  0  0  0  0  0
   31.0550   31.1707   -9.4075 C   0  0  0  0  0  0  0  0  0  0  0  0
   34.1766   27.0722    1.4361 C   0  0  0  0  0  0  0  0  0  0  0  0
   32.1968   30.3799   -9.9373 O   0  0  0  0  0  0  0  0  0  0  0  0
   29.8316   31.5624   -2.6201 O   0  0  0  0  0  0  0  0  0  0  0  0
   34.2785   23.6832    0.3353 C   0  0  0  0  0  0  0  0  0  0  0  0
   30.7149   31.1092   -4.8433 C   0  0  0  0  0  0  0  0  0  0  0  0
   35.5171   23.0941    0.1568 C   0  0  0  0  0  0  0  0  0  0  0  0
   32.7602   25.5170   -2.0661 C   0  0  0  0  0  0  0  0  0  0  0  0
   34.7420   19.7401    1.4401 O   0  0  0  0  0  0  0  0  0  0  0  0
   29.5776   31.3447   -7.1264 C   0  0  0  0  0  0  0  0  0  0  0  0
   32.6756   28.8849   -2.5583 C   0  0  0  0  0  0  0  0  0  0  0  0
   33.1656   22.8883    0.6025 C   0  0  0  0  0  0  0  0  0  0  0  0
  1 17  1  0
  1 30  1  0
  2 28  1  0
  3 20  1  0
  3 25  1  0
  3 32  1  0
  4  7  2  0
  4 11  1  0
  5  7  1  0
  5 38  2  0
  6 22  2  0
  6 31  1  0
  6 33  1  0
  7 21  1  0
  8 21  1  0
  9 13  1  0
  9 29  3  0
 10 12  1  0
 10 18  1  0
 11 18  2  0
 12 26  1  0
 12 33  1  0
 13 21  2  0
 14 19  2  0
 14 24  1  0
 14 36  1  0
 15 26  1  0
 15 28  1  0
 15 37  1  0
 16 23  2  0
 16 35  1  0
 17 26  1  0
 18 38  1  0
 19 34  1  0
 20 35  1  0
 23 38  1  0
 24 39  2  0
 25 29  1  0
 27 33  1  0
 27 37  1  0
 28 30  1  0
 32 34  2  0
 32 39  1  0
M  END
>  <ID>  (1) 
conformer_0

$$$$
