
     RDKit          3D

 29 33  0  0  0  0  0  0  0  0999 V2000
   34.3984   24.7097    0.1137 C   0  0  0  0  0  0  0  0  0  0  0  0
   31.3403   30.1631   -6.3724 C   0  0  0  0  0  0  0  0  0  0  0  0
   32.5379   28.5962   -1.3000 C   0  0  0  0  0  0  0  0  0  0  0  0
   32.5797   29.8573   -6.8884 C   0  0  0  0  0  0  0  0  0  0  0  0
   30.3885   30.7343   -7.2079 C   0  0  0  0  0  0  0  0  0  0  0  0
   31.8552   30.6466   -9.0537 C   0  0  0  0  0  0  0  0  0  0  0  0
   30.7917   31.6437   -3.5604 O   0  0  0  0  0  0  0  0  0  0  0  0
   32.7554   31.6783    1.2609 F   0  0  0  0  0  0  0  0  0  0  0  0
   35.3745   23.9592    0.5069 O   0  0  0  0  0  0  0  0  0  0  0  0
   31.8439   29.6526   -3.0996 C   0  0  0  0  0  0  0  0  0  0  0  0
   33.7311   21.7446    0.4502 C   0  0  0  0  0  0  0  0  0  0  0  0
   30.5904   30.9794   -8.5395 C   0  0  0  0  0  0  0  0  0  0  0  0
   33.5597   26.8901   -0.3804 C   0  0  0  0  0  0  0  0  0  0  0  0
   32.7719   30.6219    0.3583 C   0  0  0  0  0  0  0  0  0  0  0  0
   32.1856   29.8058   -1.7537 C   0  0  0  0  0  0  0  0  0  0  0  0
   33.0285   22.8389   -0.0539 O   0  0  0  0  0  0  0  0  0  0  0  0
   33.2371   24.1002   -0.3739 C   0  0  0  0  0  0  0  0  0  0  0  0
   32.6560   26.3020   -1.2692 C   0  0  0  0  0  0  0  0  0  0  0  0
   33.3061   29.4041    0.7245 C   0  0  0  0  0  0  0  0  0  0  0  0
   33.2412   28.2991   -0.1776 C   0  0  0  0  0  0  0  0  0  0  0  0
   32.0653   28.2395   -3.5465 C   0  0  0  0  0  0  0  0  0  0  0  0
   28.8279   31.1850   -6.5158 Cl  0  0  0  0  0  0  0  0  0  0  0  0
   32.2857   30.8521   -0.8645 C   0  0  0  0  0  0  0  0  0  0  0  0
   34.5564   26.1135    0.1110 C   0  0  0  0  0  0  0  0  0  0  0  0
   32.3730   24.8965   -1.1644 C   0  0  0  0  0  0  0  0  0  0  0  0
   32.8160   30.0750   -8.2484 C   0  0  0  0  0  0  0  0  0  0  0  0
   31.1819   30.5482   -3.9288 C   0  0  0  0  0  0  0  0  0  0  0  0
   32.2215   27.4627   -2.2523 C   0  0  0  0  0  0  0  0  0  0  0  0
   30.9645   29.8970   -5.1134 N   0  0  0  0  0  0  0  0  0  0  0  0
  1  9  1  0
  1 17  1  0
  1 24  2  0
  2  4  2  0
  2  5  1  0
  2 29  1  0
  3 15  1  0
  3 20  1  0
  3 28  1  0
  4 26  1  0
  5 12  2  0
  5 22  1  0
  6 12  1  0
  6 26  2  0
  7 27  2  0
  8 14  1  0
 10 15  1  0
 10 21  1  0
 10 27  1  0
 11 16  1  0
 13 18  1  0
 13 20  1  0
 13 24  1  0
 14 19  1  0
 14 23  2  0
 15 23  1  0
 16 17  1  0
 17 25  2  0
 18 25  1  0
 18 28  1  0
 19 20  2  0
 21 28  1  0
 27 29  1  0
M  END
>  <ID>  (1) 
conformer_0

$$$$
