
     RDKit          3D

 44 51  0  0  0  0  0  0  0  0999 V2000
   31.1264   30.3597   -8.0865 C   0  0  0  0  0  0  0  0  0  0  0  0
   29.4358   29.6678   -2.1939 O   0  0  0  0  0  0  0  0  0  0  0  0
   35.8169   21.6808    1.0815 C   0  0  0  0  0  0  0  0  0  0  0  0
   31.5065   32.3477   -4.0276 C   0  0  0  0  0  0  0  0  0  0  0  0
   34.1565   25.6323   -0.4761 C   0  0  0  0  0  0  0  0  0  0  0  0
   34.2799   29.1066    2.5652 C   0  0  0  0  0  0  0  0  0  0  0  0
   32.7637   27.6024   -1.0899 C   0  0  0  0  0  0  0  0  0  0  0  0
   29.0898   31.0777   -4.9270 C   0  0  0  0  0  0  0  0  0  0  0  0
   32.9591   28.6388   -0.1024 C   0  0  0  0  0  0  0  0  0  0  0  0
   32.4365   30.1563   -7.3431 C   0  0  0  0  0  0  0  0  0  0  0  0
   32.7690   30.1569   -3.3424 C   0  0  0  0  0  0  0  0  0  0  0  0
   35.5915   22.8929    0.4079 C   0  0  0  0  0  0  0  0  0  0  0  0
   29.9425   30.5333   -7.2019 C   0  0  0  0  0  0  0  0  0  0  0  0
   32.6380   31.0753   -6.1541 C   0  0  0  0  0  0  0  0  0  0  0  0
   32.7963   30.6410    1.2573 C   0  0  0  0  0  0  0  0  0  0  0  0
   32.9322   31.0320   -9.5629 C   0  0  0  0  0  0  0  0  0  0  0  0
   32.2040   30.3238   -4.7954 C   0  0  0  0  0  0  0  0  0  0  0  0
   32.9921   31.3071   -2.4005 C   0  0  0  0  0  0  0  0  0  0  0  0
   33.8547   27.9060    0.6059 C   0  0  0  0  0  0  0  0  0  0  0  0
   31.5902   31.4797   -5.3149 C   0  0  0  0  0  0  0  0  0  0  0  0
   30.0495   32.9661   -6.6706 C   0  0  0  0  0  0  0  0  0  0  0  0
   30.6394   31.5637   -3.0715 C   0  0  0  0  0  0  0  0  0  0  0  0
   32.4675   29.8685    0.1513 C   0  0  0  0  0  0  0  0  0  0  0  0
   30.1678   31.4933   -5.9933 C   0  0  0  0  0  0  0  0  0  0  0  0
   32.8511   27.7904   -4.4239 O   0  0  0  0  0  0  0  0  0  0  0  0
   30.5828   30.0623   -2.6831 C   0  0  0  0  0  0  0  0  0  0  0  0
   31.4350   31.2877   -9.2723 C   0  0  0  0  0  0  0  0  0  0  0  0
   33.4856   21.1974    1.0814 C   0  0  0  0  0  0  0  0  0  0  0  0
   32.5770   26.9027   -2.2840 C   0  0  0  0  0  0  0  0  0  0  0  0
   33.4843   30.0824   -8.4442 C   0  0  0  0  0  0  0  0  0  0  0  0
   33.9138   26.7919   -0.2172 N   0  0  0  0  0  0  0  0  0  0  0  0
   29.2951   31.9107   -3.6218 O   0  0  0  0  0  0  0  0  0  0  0  0
   32.0495   27.9023   -3.3669 C   0  0  0  0  0  0  0  0  0  0  0  0
   31.7243   32.2149   -2.4606 C   0  0  0  0  0  0  0  0  0  0  0  0
   33.2112   22.3903    0.3032 C   0  0  0  0  0  0  0  0  0  0  0  0
   31.9603   25.5744   -4.3836 C   0  0  0  0  0  0  0  0  0  0  0  0
   34.4373   27.9457    1.8259 C   0  0  0  0  0  0  0  0  0  0  0  0
   31.4848   24.4076   -5.0554 C   0  0  0  0  0  0  0  0  0  0  0  0
   34.0719   24.3729   -0.8035 N   0  0  0  0  0  0  0  0  0  0  0  0
   33.5922   30.2074    2.2379 C   0  0  0  0  0  0  0  0  0  0  0  0
   34.2953   23.2170   -0.0123 C   0  0  0  0  0  0  0  0  0  0  0  0
   34.7479   20.8464    1.4423 C   0  0  0  0  0  0  0  0  0  0  0  0
   31.7710   29.2175   -2.7394 C   0  0  0  0  0  0  0  0  0  0  0  0
   32.0334   25.5681   -2.8243 C   0  0  0  0  0  0  0  0  0  0  0  0
  1 10  1  0
  1 13  1  0
  1 27  1  0
  2 26  1  0
  3 12  2  0
  3 42  1  0
  4 20  1  0
  4 22  1  0
  5 31  1  0
  5 39  1  0
  6 37  2  0
  6 40  1  0
  7  9  1  0
  7 29  1  0
  7 31  1  0
  8 24  1  0
  8 32  1  0
  9 19  1  0
  9 23  2  0
 10 14  1  0
 10 30  1  0
 11 17  1  0
 11 18  1  0
 11 43  1  0
 12 41  1  0
 13 24  1  0
 14 20  1  0
 15 23  1  0
 15 40  2  0
 16 27  1  0
 16 30  1  0
 17 20  1  0
 18 34  1  0
 19 31  1  0
 19 37  1  0
 20 24  1  0
 21 24  1  0
 22 26  1  0
 22 32  1  0
 22 34  1  0
 25 33  1  0
 26 43  1  0
 28 35  1  0
 28 42  2  0
 29 33  1  0
 29 44  1  0
 33 43  1  0
 35 41  2  0
 36 38  1  0
 36 44  1  0
 39 41  1  0
M  END
>  <ID>  (1) 
conformer_0

$$$$
