
     RDKit          3D

 31 35  0  0  0  0  0  0  0  0999 V2000
   30.5388   30.1090   -4.8193 N   0  0  0  0  0  0  0  0  0  0  0  0
   32.9970   30.4260   -7.5039 C   0  0  0  0  0  0  0  0  0  0  0  0
   33.1875   23.5462    0.1446 C   0  0  0  0  0  0  0  0  0  0  0  0
   33.8090   26.5059   -0.7001 C   0  0  0  0  0  0  0  0  0  0  0  0
   32.7124   29.9600   -9.7966 O   0  0  0  0  0  0  0  0  0  0  0  0
   34.3345   21.4349    0.6024 C   0  0  0  0  0  0  0  0  0  0  0  0
   31.7679   30.5663   -1.0615 C   0  0  0  0  0  0  0  0  0  0  0  0
   30.9718   30.3597   -6.1282 C   0  0  0  0  0  0  0  0  0  0  0  0
   29.0845   31.4852   -7.0991 O   0  0  0  0  0  0  0  0  0  0  0  0
   33.1696   22.1984    0.5123 C   0  0  0  0  0  0  0  0  0  0  0  0
   31.0887   30.0169   -2.1299 C   0  0  0  0  0  0  0  0  0  0  0  0
   32.2476   27.9163   -1.8715 C   0  0  0  0  0  0  0  0  0  0  0  0
   33.8192   27.7200   -0.0505 C   0  0  0  0  0  0  0  0  0  0  0  0
   35.0935   28.1471    2.0011 C   0  0  0  0  0  0  0  0  0  0  0  0
   32.9150   26.5676   -1.8406 N   0  0  0  0  0  0  0  0  0  0  0  0
   34.5536   25.4793   -0.3982 N   0  0  0  0  0  0  0  0  0  0  0  0
   30.8388   30.9786   -8.6280 C   0  0  0  0  0  0  0  0  0  0  0  0
   30.2927   31.0089   -7.2451 C   0  0  0  0  0  0  0  0  0  0  0  0
   32.7665   28.5185   -0.7665 C   0  0  0  0  0  0  0  0  0  0  0  0
   35.5482   22.0405    0.2959 C   0  0  0  0  0  0  0  0  0  0  0  0
   31.3791   28.7254   -2.6390 C   0  0  0  0  0  0  0  0  0  0  0  0
   32.3752   29.9072   -6.3245 C   0  0  0  0  0  0  0  0  0  0  0  0
   34.2457   28.5747    0.9594 C   0  0  0  0  0  0  0  0  0  0  0  0
   32.6028   29.7383   -0.3443 C   0  0  0  0  0  0  0  0  0  0  0  0
   34.2670   20.1623    0.8839 O   0  0  0  0  0  0  0  0  0  0  0  0
   29.7558   31.0273   -4.0869 C   0  0  0  0  0  0  0  0  0  0  0  0
   35.6112   23.3922   -0.0847 C   0  0  0  0  0  0  0  0  0  0  0  0
   33.5115   29.8801    0.7893 C   0  0  0  0  0  0  0  0  0  0  0  0
   29.8876   30.8777   -2.6189 C   0  0  0  0  0  0  0  0  0  0  0  0
   34.4408   24.1389   -0.1314 C   0  0  0  0  0  0  0  0  0  0  0  0
   32.2042   30.4722   -8.6821 C   0  0  0  0  0  0  0  0  0  0  0  0
  1  8  1  0
  1 26  1  0
  2 22  1  0
  2 31  1  0
  3 10  2  0
  3 30  1  0
  4 13  2  0
  4 15  1  0
  4 16  1  0
  5 31  1  0
  6 10  1  0
  6 20  2  0
  6 25  1  0
  7 11  2  0
  7 24  1  0
  8 18  2  0
  8 22  1  0
  9 18  1  0
 11 21  1  0
 11 29  1  0
 12 15  1  0
 12 19  1  0
 12 21  2  0
 13 19  1  0
 13 23  1  0
 14 23  1  0
 16 30  2  3
 17 18  1  0
 17 31  1  0
 19 24  2  0
 20 27  1  0
 23 28  1  0
 24 28  1  0
 26 29  1  0
 27 30  1  0
M  END
>  <ID>  (1) 
conformer_0

$$$$
