
     RDKit          3D

 46 53  0  0  0  0  0  0  0  0999 V2000
   34.0229   22.7209    0.8416 C   0  0  0  0  0  0  0  0  0  0  0  0
   33.3416   29.6893   -2.2789 C   0  0  0  0  0  0  0  0  0  0  0  0
   32.1904   23.7564   -0.3323 C   0  0  0  0  0  0  0  0  0  0  0  0
   31.1086   31.8410   -2.8598 C   0  0  0  0  0  0  0  0  0  0  0  0
   32.8049   27.5063   -2.6477 C   0  0  0  0  0  0  0  0  0  0  0  0
   32.6482   30.3173   -6.8267 C   0  0  0  0  0  0  0  0  0  0  0  0
   29.6380   31.3027   -2.4263 C   0  0  0  0  0  0  0  0  0  0  0  0
   32.8482   28.7779   -3.2485 C   0  0  0  0  0  0  0  0  0  0  0  0
   33.4329   29.0027   -1.0926 C   0  0  0  0  0  0  0  0  0  0  0  0
   31.7222   32.5309   -5.8887 C   0  0  0  0  0  0  0  0  0  0  0  0
   29.1322   30.5863   -3.7454 C   0  0  0  0  0  0  0  0  0  0  0  0
   31.9357   32.1098   -8.2930 C   0  0  0  0  0  0  0  0  0  0  0  0
   30.4432   23.1604   -5.3309 O   0  0  0  0  0  0  0  0  0  0  0  0
   33.1835   29.6302   -7.9328 C   0  0  0  0  0  0  0  0  0  0  0  0
   34.8801   23.5742    0.1770 C   0  0  0  0  0  0  0  0  0  0  0  0
   31.2076   24.1276   -5.6287 C   0  0  0  0  0  0  0  0  0  0  0  0
   33.7212   28.8009    1.2756 C   0  0  0  0  0  0  0  0  0  0  0  0
   29.2083   32.5574   -6.1031 C   0  0  0  0  0  0  0  0  0  0  0  0
   33.2910   29.5713    0.1904 C   0  0  0  0  0  0  0  0  0  0  0  0
   31.4888   30.7538   -3.9107 C   0  0  0  0  0  0  0  0  0  0  0  0
   34.4821   21.5431    1.5788 C   0  0  0  0  0  0  0  0  0  0  0  0
   32.6538   22.9167    0.6902 C   0  0  0  0  0  0  0  0  0  0  0  0
   35.5912   21.5447    2.1534 O   0  0  0  0  0  0  0  0  0  0  0  0
   31.6283   24.3512   -6.8747 O   0  0  0  0  0  0  0  0  0  0  0  0
   32.1919   29.4803   -4.2944 C   0  0  0  0  0  0  0  0  0  0  0  0
   29.1770   30.7604   -6.1763 C   0  0  0  0  0  0  0  0  0  0  0  0
   33.0674   24.4679   -1.1403 C   0  0  0  0  0  0  0  0  0  0  0  0
   30.4219   32.4494   -5.1138 C   0  0  0  0  0  0  0  0  0  0  0  0
   33.6393   29.3511    2.4923 C   0  0  0  0  0  0  0  0  0  0  0  0
   30.3961   33.0960   -3.7426 C   0  0  0  0  0  0  0  0  0  0  0  0
   31.7759   24.9872   -4.6006 N   0  0  0  0  0  0  0  0  0  0  0  0
   33.0431   30.1762   -9.1654 C   0  0  0  0  0  0  0  0  0  0  0  0
   33.0786   30.5826    2.6870 C   0  0  0  0  0  0  0  0  0  0  0  0
   32.1275   26.2269   -4.4479 C   0  0  0  0  0  0  0  0  0  0  0  0
   32.5285   25.1373   -2.3864 C   0  0  0  0  0  0  0  0  0  0  0  0
   32.4291   31.3768   -9.3604 C   0  0  0  0  0  0  0  0  0  0  0  0
   32.7494   30.8381    0.3784 C   0  0  0  0  0  0  0  0  0  0  0  0
   32.6188   31.3451    1.6254 C   0  0  0  0  0  0  0  0  0  0  0  0
   33.7160   20.5070    1.7109 O   0  0  0  0  0  0  0  0  0  0  0  0
   32.0838   31.6188   -7.0098 C   0  0  0  0  0  0  0  0  0  0  0  0
   33.1657   27.6492   -1.3084 C   0  0  0  0  0  0  0  0  0  0  0  0
   30.2370   30.7846   -4.8829 C   0  0  0  0  0  0  0  0  0  0  0  0
   34.4232   24.5038   -0.7823 C   0  0  0  0  0  0  0  0  0  0  0  0
   32.5421   26.2669   -3.1438 C   0  0  0  0  0  0  0  0  0  0  0  0
   32.7341   29.6250   -5.5768 N   0  0  0  0  0  0  0  0  0  0  0  0
   33.8992   30.8705   -2.4761 O   0  0  0  0  0  0  0  0  0  0  0  0
  1 15  2  0
  1 21  1  0
  1 22  1  0
  2  8  1  0
  2  9  1  0
  2 46  1  0
  3 22  1  0
  3 27  2  0
  4  7  1  0
  4 20  1  0
  4 30  1  0
  5  8  1  0
  5 41  1  0
  5 44  2  3
  6 14  1  0
  6 40  2  0
  6 45  1  0
  7 11  1  0
  8 25  1  0
  9 19  1  0
  9 41  1  0
 10 28  1  0
 10 40  1  0
 11 42  1  0
 12 36  2  0
 12 40  1  0
 13 16  2  0
 14 32  2  0
 15 43  1  0
 16 24  1  0
 16 31  1  0
 17 19  1  0
 17 29  2  0
 18 26  1  0
 18 28  1  0
 19 37  1  0
 20 25  1  0
 20 42  1  0
 21 23  2  0
 21 39  1  0
 25 45  1  0
 26 42  1  0
 27 35  1  0
 27 43  1  0
 28 30  1  0
 28 42  1  0
 29 33  1  0
 31 34  1  0
 32 36  1  0
 33 38  1  0
 34 44  1  0
 35 44  1  0
 37 38  2  0
M  END
>  <ID>  (1) 
conformer_0

$$$$
