
     RDKit          3D

 31 34  0  0  0  0  0  0  0  0999 V2000
   31.2701   30.5736   -7.8575 C   0  0  0  0  0  0  0  0  0  0  0  0
   34.5039   20.5854    2.3182 C   0  0  0  0  0  0  0  0  0  0  0  0
   32.5009   30.0774   -7.3952 C   0  0  0  0  0  0  0  0  0  0  0  0
   31.9969   29.5713   -2.6617 C   0  0  0  0  0  0  0  0  0  0  0  0
   32.0083   27.1636   -3.0163 C   0  0  0  0  0  0  0  0  0  0  0  0
   30.5201   30.8843   -5.6455 C   0  0  0  0  0  0  0  0  0  0  0  0
   29.5572   30.8820   -3.1878 C   0  0  0  0  0  0  0  0  0  0  0  0
   34.6564   21.2669    0.9823 C   0  0  0  0  0  0  0  0  0  0  0  0
   33.1029   29.2245   -0.2082 C   0  0  0  0  0  0  0  0  0  0  0  0
   34.2144   23.4206   -0.3363 N   0  0  0  0  0  0  0  0  0  0  0  0
   32.2026   25.8756   -2.7759 C   0  0  0  0  0  0  0  0  0  0  0  0
   31.0473   30.6277   -9.2265 F   0  0  0  0  0  0  0  0  0  0  0  0
   32.8606   25.1554   -1.9064 C   0  0  0  0  0  0  0  0  0  0  0  0
   32.9889   28.0846   -1.0235 C   0  0  0  0  0  0  0  0  0  0  0  0
   33.4455   29.7220   -8.3300 F   0  0  0  0  0  0  0  0  0  0  0  0
   31.7280   30.5390   -1.6661 C   0  0  0  0  0  0  0  0  0  0  0  0
   32.7611   29.9967   -6.0585 C   0  0  0  0  0  0  0  0  0  0  0  0
   33.8326   22.3812    0.5692 C   0  0  0  0  0  0  0  0  0  0  0  0
   36.0386   21.2188    0.3468 C   0  0  0  0  0  0  0  0  0  0  0  0
   31.7367   30.3451   -5.1904 C   0  0  0  0  0  0  0  0  0  0  0  0
   30.5291   31.4759   -2.1654 C   0  0  0  0  0  0  0  0  0  0  0  0
   32.5204   31.4624    0.4234 Cl  0  0  0  0  0  0  0  0  0  0  0  0
   34.3072   24.7198   -0.0268 O   0  0  0  0  0  0  0  0  0  0  0  0
   29.4585   31.3219   -4.6174 C   0  0  0  0  0  0  0  0  0  0  0  0
   30.2934   30.9973   -6.9965 C   0  0  0  0  0  0  0  0  0  0  0  0
   29.0325   29.4440   -2.9961 C   0  0  0  0  0  0  0  0  0  0  0  0
   31.9555   30.0386   -3.9050 O   0  0  0  0  0  0  0  0  0  0  0  0
   32.3248   28.2631   -2.2597 C   0  0  0  0  0  0  0  0  0  0  0  0
   33.5879   26.9603   -0.5625 C   0  0  0  0  0  0  0  0  0  0  0  0
   32.4584   30.3600   -0.4871 C   0  0  0  0  0  0  0  0  0  0  0  0
   33.5956   25.6264   -0.8129 C   0  0  0  0  0  0  0  0  0  0  0  0
  1  3  2  0
  1 12  1  0
  1 25  1  0
  2  8  1  0
  3 15  1  0
  3 17  1  0
  4 16  1  0
  4 27  1  0
  4 28  1  0
  5 11  1  0
  5 28  2  0
  6 20  1  0
  6 24  1  0
  6 25  2  0
  7 21  1  0
  7 24  1  0
  7 26  1  0
  8 18  1  0
  8 19  1  0
  9 14  1  0
  9 30  2  0
 10 18  1  0
 10 23  1  0
 11 13  2  0
 13 31  1  0
 14 28  1  0
 14 29  1  0
 16 21  1  0
 16 30  1  0
 17 20  2  0
 20 27  1  0
 22 30  1  0
 23 31  1  0
 29 31  2  0
M  END
>  <ID>  (1) 
conformer_0

$$$$
