
     RDKit          3D

 27 30  0  0  0  0  0  0  0  0999 V2000
   32.4084   29.3680   -3.2733 N   0  0  0  0  0  0  0  0  0  0  0  0
   32.3604   26.8297   -3.3914 C   0  0  0  0  0  0  0  0  0  0  0  0
   32.8070   28.0793   -1.2776 C   0  0  0  0  0  0  0  0  0  0  0  0
   32.1573   30.3935   -6.8183 C   0  0  0  0  0  0  0  0  0  0  0  0
   33.8019   29.3818    1.9252 O   0  0  0  0  0  0  0  0  0  0  0  0
   31.6370   31.6606   -6.6166 C   0  0  0  0  0  0  0  0  0  0  0  0
   31.1604   31.3735   -1.6516 C   0  0  0  0  0  0  0  0  0  0  0  0
   34.1545   27.0513    0.4508 O   0  0  0  0  0  0  0  0  0  0  0  0
   31.4106   32.1737   -5.3703 C   0  0  0  0  0  0  0  0  0  0  0  0
   32.4831   30.3605    0.2280 C   0  0  0  0  0  0  0  0  0  0  0  0
   31.9762   24.4989   -1.9095 C   0  0  0  0  0  0  0  0  0  0  0  0
   33.2458   29.2926    0.7241 C   0  0  0  0  0  0  0  0  0  0  0  0
   32.5455   26.8862   -2.0066 C   0  0  0  0  0  0  0  0  0  0  0  0
   32.4976   29.6073   -5.6937 C   0  0  0  0  0  0  0  0  0  0  0  0
   33.4087   28.1182   -0.0078 C   0  0  0  0  0  0  0  0  0  0  0  0
   32.4225   29.2616   -1.9076 C   0  0  0  0  0  0  0  0  0  0  0  0
   32.3732   25.7153   -1.2929 C   0  0  0  0  0  0  0  0  0  0  0  0
   32.0571   30.3311   -1.0702 C   0  0  0  0  0  0  0  0  0  0  0  0
   32.2272   30.1248   -4.4129 C   0  0  0  0  0  0  0  0  0  0  0  0
   31.2483   30.7777   -9.2022 Cl  0  0  0  0  0  0  0  0  0  0  0  0
   31.6832   31.4175   -4.2843 C   0  0  0  0  0  0  0  0  0  0  0  0
   31.7597   24.4859   -3.2290 C   0  0  0  0  0  0  0  0  0  0  0  0
   35.1224   27.2778    1.4583 C   0  0  0  0  0  0  0  0  0  0  0  0
   32.3318   29.9336   -8.2408 C   0  0  0  0  0  0  0  0  0  0  0  0
   31.9912   25.6580   -3.9897 C   0  0  0  0  0  0  0  0  0  0  0  0
   31.3135   32.0043   -2.9120 C   0  0  0  0  0  0  0  0  0  0  0  0
   31.9149   25.6336   -5.2819 O   0  0  0  0  0  0  0  0  0  0  0  0
  1 16  2  0
  1 19  1  0
  2 13  2  0
  2 25  1  0
  3 13  1  0
  3 15  1  0
  3 16  1  0
  4  6  2  0
  4 14  1  0
  4 24  1  0
  5 12  1  0
  6  9  1  0
  7 18  1  0
  7 26  1  0
  8 15  1  0
  8 23  1  0
  9 21  2  0
 10 12  1  0
 10 18  2  0
 11 17  2  0
 11 22  1  0
 12 15  2  0
 13 17  1  0
 14 19  2  0
 16 18  1  0
 19 21  1  0
 20 24  1  0
 21 26  1  0
 22 25  2  0
 25 27  1  0
M  END
>  <ID>  (1) 
conformer_0

$$$$
