
     RDKit          3D

 23 24  0  0  0  0  0  0  0  0999 V2000
   29.8545   31.0651   -6.7060 C   0  0  0  0  0  0  0  0  0  0  0  0
   32.6406   30.9478   -4.2570 C   0  0  0  0  0  0  0  0  0  0  0  0
   34.2417   25.8275   -1.0444 C   0  0  0  0  0  0  0  0  0  0  0  0
   31.7314   30.1152   -3.6402 C   0  0  0  0  0  0  0  0  0  0  0  0
   33.0883   29.9948    1.0805 C   0  0  0  0  0  0  0  0  0  0  0  0
   34.0764   23.6408   -0.0770 C   0  0  0  0  0  0  0  0  0  0  0  0
   30.5200   30.1917   -4.3743 C   0  0  0  0  0  0  0  0  0  0  0  0
   33.9278   21.2375    1.0464 C   0  0  0  0  0  0  0  0  0  0  0  0
   31.9745   29.3336   -2.5597 C   0  0  0  0  0  0  0  0  0  0  0  0
   30.7137   30.9334   -5.5331 C   0  0  0  0  0  0  0  0  0  0  0  0
   32.7458   28.1584   -2.2490 C   0  0  0  0  0  0  0  0  0  0  0  0
   34.7220   22.3780    0.4822 C   0  0  0  0  0  0  0  0  0  0  0  0
   32.0602   24.8579   -0.7856 C   0  0  0  0  0  0  0  0  0  0  0  0
   33.4795   28.4083   -0.9340 C   0  0  0  0  0  0  0  0  0  0  0  0
   28.6527   31.5244   -6.6325 O   0  0  0  0  0  0  0  0  0  0  0  0
   34.8249   24.7354   -0.4679 C   0  0  0  0  0  0  0  0  0  0  0  0
   32.2474   26.7791   -2.3272 C   0  0  0  0  0  0  0  0  0  0  0  0
   32.0213   31.4664   -5.4256 C   0  0  0  0  0  0  0  0  0  0  0  0
   33.0172   29.4817   -0.1909 O   0  0  0  0  0  0  0  0  0  0  0  0
   32.6742   23.7500   -0.1486 C   0  0  0  0  0  0  0  0  0  0  0  0
   32.8682   25.8485   -1.3540 C   0  0  0  0  0  0  0  0  0  0  0  0
   30.4783   30.6804   -8.0213 C   0  0  0  0  0  0  0  0  0  0  0  0
   35.9455   21.9087   -0.2864 C   0  0  0  0  0  0  0  0  0  0  0  0
  1 10  1  0
  1 15  1  0
  1 22  1  0
  2  4  1  0
  2 18  1  0
  3 16  2  0
  3 21  1  0
  4  7  1  0
  4  9  1  0
  5 19  1  0
  6 12  1  0
  6 16  1  0
  6 20  2  0
  7 10  1  0
  8 12  1  0
  9 11  1  0
 10 18  1  0
 11 14  1  0
 11 17  1  0
 12 23  1  0
 13 20  1  0
 13 21  2  0
 14 19  1  0
 17 21  1  0
M  END
>  <ID>  (1) 
conformer_0

$$$$
