
     RDKit          3D

 31 34  0  0  0  0  0  0  0  0999 V2000
   31.9734   30.5319   -6.0197 C   0  0  0  0  0  0  0  0  0  0  0  0
   31.7097   31.4874   -2.6468 C   0  0  0  0  0  0  0  0  0  0  0  0
   33.3880   30.0820    1.4292 C   0  0  0  0  0  0  0  0  0  0  0  0
   33.8648   20.4500    1.6914 O   0  0  0  0  0  0  0  0  0  0  0  0
   32.9261   27.6440   -1.0704 C   0  0  0  0  0  0  0  0  0  0  0  0
   33.7700   23.5593   -0.0587 C   0  0  0  0  0  0  0  0  0  0  0  0
   34.4892   21.3939    1.1565 C   0  0  0  0  0  0  0  0  0  0  0  0
   35.6507   21.7289    1.4454 O   0  0  0  0  0  0  0  0  0  0  0  0
   33.4578   29.6271   -8.8933 C   0  0  0  0  0  0  0  0  0  0  0  0
   33.5181   28.7650    1.0507 C   0  0  0  0  0  0  0  0  0  0  0  0
   32.5090   24.0258   -0.3959 C   0  0  0  0  0  0  0  0  0  0  0  0
   32.4108   27.8417   -2.3685 C   0  0  0  0  0  0  0  0  0  0  0  0
   31.5949   30.5285   -7.4096 C   0  0  0  0  0  0  0  0  0  0  0  0
   33.2826   26.3114   -0.7439 C   0  0  0  0  0  0  0  0  0  0  0  0
   31.9590   31.5123   -9.6198 C   0  0  0  0  0  0  0  0  0  0  0  0
   32.2706   25.3398   -0.7550 C   0  0  0  0  0  0  0  0  0  0  0  0
   30.7900   31.0866   -3.7753 N   0  0  0  0  0  0  0  0  0  0  0  0
   33.0215   28.7566   -0.2492 C   0  0  0  0  0  0  0  0  0  0  0  0
   29.7487   30.7587   -6.0080 C   0  0  0  0  0  0  0  0  0  0  0  0
   30.1772   30.6706   -7.4146 O   0  0  0  0  0  0  0  0  0  0  0  0
   33.9235   22.1310    0.0759 C   0  0  0  0  0  0  0  0  0  0  0  0
   32.0347   29.0577   -2.7661 C   0  0  0  0  0  0  0  0  0  0  0  0
   32.3308   30.5022   -8.6424 C   0  0  0  0  0  0  0  0  0  0  0  0
   30.8431   30.7368   -5.1771 C   0  0  0  0  0  0  0  0  0  0  0  0
   28.5042   30.8227   -5.7211 O   0  0  0  0  0  0  0  0  0  0  0  0
   34.7685   24.5491   -0.0498 C   0  0  0  0  0  0  0  0  0  0  0  0
   32.6106   30.0327   -0.6603 C   0  0  0  0  0  0  0  0  0  0  0  0
   32.8385   30.8866    0.4317 C   0  0  0  0  0  0  0  0  0  0  0  0
   34.5614   25.8670   -0.4178 C   0  0  0  0  0  0  0  0  0  0  0  0
   32.1064   30.2100   -1.9555 C   0  0  0  0  0  0  0  0  0  0  0  0
   29.4341   30.9896   -3.1093 C   0  0  0  0  0  0  0  0  0  0  0  0
  1 13  1  0
  1 24  1  0
  2 17  1  0
  2 30  1  0
  3 10  1  0
  3 28  1  0
  4  7  2  0
  5 12  1  0
  5 14  1  0
  5 18  2  0
  6 11  1  0
  6 21  1  0
  6 26  1  0
  7  8  1  0
  7 21  1  0
  9 23  1  0
 10 18  1  0
 11 16  2  0
 12 22  2  0
 13 20  1  0
 13 23  1  0
 14 16  1  0
 14 29  1  0
 15 23  1  0
 17 24  1  0
 17 31  1  0
 18 27  1  0
 19 20  1  0
 19 24  1  0
 19 25  2  0
 22 30  1  0
 26 29  2  0
 27 28  1  0
 27 30  2  0
M  END
>  <ID>  (1) 
conformer_0

$$$$
