
     RDKit          3D

 46 51  0  0  0  0  0  0  0  0999 V2000
   30.4738   31.4947   -2.7941 C   0  0  0  0  0  0  0  0  0  0  0  0
   33.1733   30.3656    1.2184 C   0  0  0  0  0  0  0  0  0  0  0  0
   32.5127   31.6006    1.1610 C   0  0  0  0  0  0  0  0  0  0  0  0
   32.1993   26.8971   -3.9921 C   0  0  0  0  0  0  0  0  0  0  0  0
   33.3039   29.5222    0.1662 C   0  0  0  0  0  0  0  0  0  0  0  0
   29.0300   29.8659   -3.6433 C   0  0  0  0  0  0  0  0  0  0  0  0
   32.2361   31.5103   -4.4520 C   0  0  0  0  0  0  0  0  0  0  0  0
   33.8507   24.5958   -0.1598 N   0  0  0  0  0  0  0  0  0  0  0  0
   33.6860   29.9691    2.4157 C   0  0  0  0  0  0  0  0  0  0  0  0
   34.2224   27.7693    1.6370 C   0  0  0  0  0  0  0  0  0  0  0  0
   35.7175   22.9081   -0.4250 C   0  0  0  0  0  0  0  0  0  0  0  0
   35.5530   19.2601    2.1983 O   0  0  0  0  0  0  0  0  0  0  0  0
   32.6926   22.6126    1.5517 O   0  0  0  0  0  0  0  0  0  0  0  0
   32.5969   27.1010   -2.6851 C   0  0  0  0  0  0  0  0  0  0  0  0
   32.9615   28.0707   -1.6978 C   0  0  0  0  0  0  0  0  0  0  0  0
   34.6828   20.1858    2.0944 C   0  0  0  0  0  0  0  0  0  0  0  0
   29.3463   31.4352   -3.9866 C   0  0  0  0  0  0  0  0  0  0  0  0
   33.6227   20.0521    2.8198 O   0  0  0  0  0  0  0  0  0  0  0  0
   31.6493   30.7207   -3.4639 N   0  0  0  0  0  0  0  0  0  0  0  0
   29.9337   31.6404   -5.4058 C   0  0  0  0  0  0  0  0  0  0  0  0
   32.6537   24.9578   -0.6648 C   0  0  0  0  0  0  0  0  0  0  0  0
   32.5799   25.6558   -2.0340 C   0  0  0  0  0  0  0  0  0  0  0  0
   33.8863   22.4282    1.0384 C   0  0  0  0  0  0  0  0  0  0  0  0
   33.1414   29.5204   -1.2461 C   0  0  0  0  0  0  0  0  0  0  0  0
   32.3705   32.9647   -3.8902 C   0  0  0  0  0  0  0  0  0  0  0  0
   31.9456   25.5223   -4.1852 C   0  0  0  0  0  0  0  0  0  0  0  0
   34.8033   21.3231    1.2152 C   0  0  0  0  0  0  0  0  0  0  0  0
   33.0412   29.1977   -6.3904 O   0  0  0  0  0  0  0  0  0  0  0  0
   29.0557   31.8201   -6.4693 C   0  0  0  0  0  0  0  0  0  0  0  0
   32.3016   30.7577   -9.7717 C   0  0  0  0  0  0  0  0  0  0  0  0
   32.5565   29.0071   -5.2271 C   0  0  0  0  0  0  0  0  0  0  0  0
   32.7372   30.1561   -4.2281 C   0  0  0  0  0  0  0  0  0  0  0  0
   33.4794   30.6815   -1.8066 O   0  0  0  0  0  0  0  0  0  0  0  0
   34.3905   23.3698    0.1131 C   0  0  0  0  0  0  0  0  0  0  0  0
   31.3099   24.8372   -5.6589 Cl  0  0  0  0  0  0  0  0  0  0  0  0
   32.1304   24.6523   -3.0295 C   0  0  0  0  0  0  0  0  0  0  0  0
   31.3199   31.6619   -5.6617 C   0  0  0  0  0  0  0  0  0  0  0  0
   35.9267   21.4888    0.3866 C   0  0  0  0  0  0  0  0  0  0  0  0
   30.8920   31.8232   -8.0956 C   0  0  0  0  0  0  0  0  0  0  0  0
   31.9989   27.7524   -4.9852 O   0  0  0  0  0  0  0  0  0  0  0  0
   31.7661   31.8158   -6.9773 C   0  0  0  0  0  0  0  0  0  0  0  0
   31.2775   31.7460   -9.4061 O   0  0  0  0  0  0  0  0  0  0  0  0
   34.2429   28.7156    2.6299 C   0  0  0  0  0  0  0  0  0  0  0  0
   33.3720   27.4426   -0.5564 N   0  0  0  0  0  0  0  0  0  0  0  0
   33.6635   28.1934    0.4648 C   0  0  0  0  0  0  0  0  0  0  0  0
   29.5142   31.9187   -7.8212 C   0  0  0  0  0  0  0  0  0  0  0  0
  1 17  1  0
  1 19  1  0
  2  3  1  0
  2  5  1  0
  2  9  2  0
  4 14  2  0
  4 26  1  0
  4 40  1  0
  5 24  1  0
  5 45  1  0
  6 17  1  0
  7 19  1  0
  7 25  1  0
  7 32  1  0
  7 37  1  0
  8 21  1  0
  8 34  1  0
  9 43  1  0
 10 43  1  0
 10 45  1  0
 11 34  1  0
 11 38  1  0
 12 16  2  0
 13 23  1  0
 14 15  1  0
 14 22  1  0
 15 24  1  0
 15 44  1  0
 16 18  1  0
 16 27  1  0
 17 20  1  0
 20 29  1  0
 20 37  2  0
 21 22  1  0
 22 36  1  0
 23 27  1  0
 23 34  2  0
 24 33  1  0
 26 35  1  0
 26 36  1  0
 27 38  1  0
 28 31  2  0
 29 46  2  0
 30 42  1  0
 31 32  1  0
 31 40  1  0
 37 41  1  0
 39 41  2  0
 39 42  1  0
 39 46  1  0
 44 45  2  0
M  END
>  <ID>  (1) 
conformer_0

$$$$
