
     RDKit          3D

  6  6  0  0  0  0  0  0  0  0999 V2000
   -0.9128   10.9570    2.6507 C   0  0  0  0  0  0  0  0  0  0  0  0
    0.0872   10.2570    3.4507 C   0  0  0  0  0  0  0  0  0  0  0  0
   -0.5128    9.6570    4.6507 N   0  0  0  0  0  0  0  0  0  0  0  0
   -0.6128    8.3570    5.0507 C   0  0  0  0  0  0  0  0  0  0  0  0
   -2.1128   10.3570    2.5507 O   0  0  0  0  0  0  0  0  0  0  0  0
   -1.2128    8.6570    3.8507 C   0  0  0  0  0  0  0  0  0  0  0  0
  2  1  1  0
  3  2  1  0
  4  3  1  0
  5  1  1  0
  6  3  1  0
  6  4  1  0
M  END
>  <ID>  (1) 
conformer_0

$$$$
