
     RDKit          3D

  7  6  0  0  0  0  0  0  0  0999 V2000
    0.6713   12.3798    2.3282 C   0  0  0  0  0  0  0  0  0  0  0  0
   -0.2287   11.7798    3.3282 C   0  0  0  0  0  0  0  0  0  0  0  0
   -0.1287   10.3798    3.2282 C   0  0  0  0  0  0  0  0  0  0  0  0
   -0.3287    9.7798    4.5282 N   0  0  0  0  0  0  0  0  0  0  0  0
   -0.0287   12.3798    1.1282 O   0  0  0  0  0  0  0  0  0  0  0  0
   -0.6287    8.3798    4.6282 C   0  0  0  0  0  0  0  0  0  0  0  0
    1.0713   13.6798    2.9282 C   0  0  0  0  0  0  0  0  0  0  0  0
  2  1  1  0
  3  2  1  0
  4  3  1  0
  5  1  1  0
  6  4  1  0
  7  1  1  0
M  END
>  <ID>  (1) 
conformer_0

$$$$
