
     RDKit          3D

 11 10  0  0  0  0  0  0  0  0999 V2000
   -0.3680   11.1538    2.9230 C   0  0  0  0  0  0  0  0  0  0  0  0
   -0.0680   10.0538    3.8230 C   0  0  0  0  0  0  0  0  0  0  0  0
    0.4320   12.3538    3.1230 C   0  0  0  0  0  0  0  0  0  0  0  0
    0.0320    8.7538    3.2230 C   0  0  0  0  0  0  0  0  0  0  0  0
    0.9320   13.0538    1.9230 C   0  0  0  0  0  0  0  0  0  0  0  0
    0.9320   14.4538    1.9230 O   0  0  0  0  0  0  0  0  0  0  0  0
    0.2320    7.7538    4.3230 C   0  0  0  0  0  0  0  0  0  0  0  0
   -0.9680    8.0538    5.1230 C   0  0  0  0  0  0  0  0  0  0  0  0
   -1.2680    6.8538    5.8230 O   0  0  0  0  0  0  0  0  0  0  0  0
   -1.0680    5.7538    5.0230 C   0  0  0  0  0  0  0  0  0  0  0  0
    1.2320   14.5538    0.5230 N   0  0  0  0  0  0  0  0  0  0  0  0
  2  1  1  0
  3  1  1  0
  4  2  1  0
  5  3  1  0
  6  5  1  0
  7  4  1  0
  8  7  1  0
  9  8  1  0
 10  9  1  0
 11  6  1  0
M  END
>  <ID>  (1) 
conformer_0

$$$$
