
     RDKit          3D

  9  9  0  0  0  0  0  0  0  0999 V2000
    0.9466   13.9030    3.0842 C   0  0  0  0  0  0  0  0  0  0  0  0
    0.6466   12.6030    2.5842 C   0  0  0  0  0  0  0  0  0  0  0  0
   -0.2534   11.6030    3.0842 C   0  0  0  0  0  0  0  0  0  0  0  0
    0.0466   10.3030    3.2842 C   0  0  0  0  0  0  0  0  0  0  0  0
    0.2466    9.6030    4.5842 N   0  0  0  0  0  0  0  0  0  0  0  0
    1.0466   14.8030    2.0842 O   0  0  0  0  0  0  0  0  0  0  0  0
    0.3466   12.7030    1.1842 C   0  0  0  0  0  0  0  0  0  0  0  0
   -0.4534   12.1030    0.2842 O   0  0  0  0  0  0  0  0  0  0  0  0
    0.9466   13.9030    0.6842 C   0  0  0  0  0  0  0  0  0  0  0  0
  2  1  1  0
  3  2  1  0
  4  3  1  0
  5  4  1  0
  6  1  1  0
  7  2  1  0
  8  7  1  0
  9  6  1  0
  9  7  1  0
M  END
>  <ID>  (1) 
conformer_0

$$$$
