
     RDKit          3D

 10  9  0  0  0  0  0  0  0  0999 V2000
    1.3493   14.4833    2.0190 O   0  0  0  0  0  0  0  0  0  0  0  0
    0.8493   13.1833    1.6190 C   0  0  0  0  0  0  0  0  0  0  0  0
    0.3493   12.3833    2.7190 C   0  0  0  0  0  0  0  0  0  0  0  0
   -0.5507   11.2833    2.3190 C   0  0  0  0  0  0  0  0  0  0  0  0
   -0.4507   10.1833    3.3190 C   0  0  0  0  0  0  0  0  0  0  0  0
    0.5493   10.2833    4.2190 N   0  0  0  0  0  0  0  0  0  0  0  0
   -1.5507    9.1833    3.2190 C   0  0  0  0  0  0  0  0  0  0  0  0
    0.2493   12.7833    4.0190 C   0  0  0  0  0  0  0  0  0  0  0  0
    0.7493   14.3833    1.0190 N   0  0  0  0  0  0  0  0  0  0  0  0
   -1.6507    8.5833    4.5190 O   0  0  0  0  0  0  0  0  0  0  0  0
  2  1  1  0
  3  2  1  0
  4  3  1  0
  5  4  1  0
  6  5  1  0
  7  5  1  0
  8  3  2  0
  9  2  1  0
 10  7  1  0
M  END
>  <ID>  (1) 
conformer_0

$$$$
