
     RDKit          3D

  8  9  0  0  0  0  0  0  0  0999 V2000
   -0.9128   10.9570    2.6507 C   0  0  0  0  0  0  0  0  0  0  0  0
   -0.1128   10.1570    3.5507 C   0  0  0  0  0  0  0  0  0  0  0  0
   -0.0128    8.7570    3.2507 C   0  0  0  0  0  0  0  0  0  0  0  0
    0.2872    7.7570    4.2507 C   0  0  0  0  0  0  0  0  0  0  0  0
   -1.7128    9.9570    1.9507 C   0  0  0  0  0  0  0  0  0  0  0  0
   -1.4128    8.6570    2.5507 N   0  0  0  0  0  0  0  0  0  0  0  0
   -0.4128    6.5570    4.2507 O   0  0  0  0  0  0  0  0  0  0  0  0
   -2.5128    9.2570    3.1507 C   0  0  0  0  0  0  0  0  0  0  0  0
  2  1  1  0
  3  2  1  0
  4  3  1  0
  5  1  1  0
  6  3  1  0
  6  5  1  0
  7  4  1  0
  8  5  1  0
  8  6  1  0
M  END
>  <ID>  (1) 
conformer_0

$$$$
