
     RDKit          3D

 11 12  0  0  0  0  0  0  0  0999 V2000
   -0.6117   11.1618    2.7426 C   0  0  0  0  0  0  0  0  0  0  0  0
   -0.0117   10.1618    3.6426 C   0  0  0  0  0  0  0  0  0  0  0  0
    0.3883   12.2618    2.5426 C   0  0  0  0  0  0  0  0  0  0  0  0
    0.0883    8.7618    3.3426 C   0  0  0  0  0  0  0  0  0  0  0  0
   -0.2117    7.8618    4.3426 C   0  0  0  0  0  0  0  0  0  0  0  0
   -1.3117    8.0618    5.2426 C   0  0  0  0  0  0  0  0  0  0  0  0
    0.8883   13.0618    1.7426 C   0  0  0  0  0  0  0  0  0  0  0  0
    0.9883   14.4618    1.8426 O   0  0  0  0  0  0  0  0  0  0  0  0
   -0.2117    8.7618    5.6426 O   0  0  0  0  0  0  0  0  0  0  0  0
    0.9883   13.8618    0.6426 C   0  0  0  0  0  0  0  0  0  0  0  0
    1.4883   14.5618   -0.3574 N   0  0  0  0  0  0  0  0  0  0  0  0
  2  1  1  0
  3  1  1  0
  4  2  1  0
  5  4  1  0
  6  5  1  0
  7  3  1  0
  8  7  1  0
  9  5  1  0
  9  6  1  0
 10  7  1  0
 10  8  1  0
 11 10  1  0
M  END
>  <ID>  (1) 
conformer_0

$$$$
