
     RDKit          3D

 10 10  0  0  0  0  0  0  0  0999 V2000
    0.5160   12.2651    2.6437 C   0  0  0  0  0  0  0  0  0  0  0  0
   -0.4840   11.1651    2.6437 C   0  0  0  0  0  0  0  0  0  0  0  0
   -0.0840   10.0651    3.4437 C   0  0  0  0  0  0  0  0  0  0  0  0
   -0.5840    9.6651    4.6437 N   0  0  0  0  0  0  0  0  0  0  0  0
   -1.0840   10.7651    1.3437 C   0  0  0  0  0  0  0  0  0  0  0  0
    0.2160   12.8651    3.8437 O   0  0  0  0  0  0  0  0  0  0  0  0
    0.6160   13.0651    1.4437 C   0  0  0  0  0  0  0  0  0  0  0  0
    0.9160   14.4651    1.7437 O   0  0  0  0  0  0  0  0  0  0  0  0
    0.1160   12.8651    0.0437 C   0  0  0  0  0  0  0  0  0  0  0  0
   -0.5840   11.4651    0.1437 N   0  0  0  0  0  0  0  0  0  0  0  0
  2  1  1  0
  3  2  1  0
  4  3  1  0
  5  2  1  0
  6  1  1  0
  7  1  1  0
  8  7  1  0
  9  7  1  0
 10  5  1  0
 10  9  1  0
M  END
>  <ID>  (1) 
conformer_0

$$$$
