
     RDKit          3D

 10  9  0  0  0  0  0  0  0  0999 V2000
   -0.6680    9.7690    4.3613 N   0  0  0  0  0  0  0  0  0  0  0  0
   -0.0680   10.5690    3.3613 C   0  0  0  0  0  0  0  0  0  0  0  0
   -0.0680   11.9690    3.5613 C   0  0  0  0  0  0  0  0  0  0  0  0
    0.7320   12.6690    2.5613 C   0  0  0  0  0  0  0  0  0  0  0  0
    1.0320   13.9690    3.1613 C   0  0  0  0  0  0  0  0  0  0  0  0
    1.3320   14.8690    2.0613 O   0  0  0  0  0  0  0  0  0  0  0  0
    0.2320   12.5690    1.2613 O   0  0  0  0  0  0  0  0  0  0  0  0
   -0.2680    8.3690    4.4613 C   0  0  0  0  0  0  0  0  0  0  0  0
    0.6320    7.8690    3.4613 C   0  0  0  0  0  0  0  0  0  0  0  0
    0.4320    8.4690    2.2613 O   0  0  0  0  0  0  0  0  0  0  0  0
  2  1  1  0
  3  2  1  0
  4  3  1  0
  5  4  1  0
  6  5  1  0
  7  4  1  0
  8  1  2  3
  9  8  1  0
 10  9  1  0
M  END
>  <ID>  (1) 
conformer_0

$$$$
