
     RDKit          3D

  4  3  0  0  0  0  0  0  0  0999 V2000
   -0.9128   10.9570    2.6507 C   0  0  0  0  0  0  0  0  0  0  0  0
    0.0872   10.2570    3.4507 C   0  0  0  0  0  0  0  0  0  0  0  0
   -0.3128    9.8570    4.7507 N   0  0  0  0  0  0  0  0  0  0  0  0
   -2.2128   10.2570    2.6507 O   0  0  0  0  0  0  0  0  0  0  0  0
  2  1  1  0
  3  2  1  0
  4  1  1  0
M  END
>  <ID>  (1) 
conformer_0

$$$$
