
     RDKit          3D

 11 10  0  0  0  0  0  0  0  0999 V2000
   -0.3680   11.1538    2.9230 C   0  0  0  0  0  0  0  0  0  0  0  0
   -0.0680   10.0538    3.8230 C   0  0  0  0  0  0  0  0  0  0  0  0
    0.4320   12.3538    3.1230 C   0  0  0  0  0  0  0  0  0  0  0  0
    0.0320    8.7538    3.2230 C   0  0  0  0  0  0  0  0  0  0  0  0
    0.9320   13.0538    1.9230 C   0  0  0  0  0  0  0  0  0  0  0  0
    1.0320   14.3538    2.0230 O   0  0  0  0  0  0  0  0  0  0  0  0
    0.1320   12.5538    0.8230 N   0  0  0  0  0  0  0  0  0  0  0  0
   -0.3680    7.7538    4.2230 C   0  0  0  0  0  0  0  0  0  0  0  0
   -0.2680    6.3538    4.0230 O   0  0  0  0  0  0  0  0  0  0  0  0
   -1.3680    8.2538    5.2230 C   0  0  0  0  0  0  0  0  0  0  0  0
    0.2320   13.4538   -0.2770 C   0  0  0  0  0  0  0  0  0  0  0  0
  2  1  1  0
  3  1  1  0
  4  2  1  0
  5  3  1  0
  6  5  1  0
  7  5  1  0
  8  4  1  0
  9  8  1  0
 10  8  1  0
 11  7  1  0
M  END
>  <ID>  (1) 
conformer_0

$$$$
