
     RDKit          3D

  8  9  0  0  0  0  0  0  0  0999 V2000
   -0.2712    9.5029    3.4339 C   0  0  0  0  0  0  0  0  0  0  0  0
    0.0288   10.9029    3.4339 C   0  0  0  0  0  0  0  0  0  0  0  0
   -0.5712    9.2029    4.8339 N   0  0  0  0  0  0  0  0  0  0  0  0
   -0.4712   11.6029    2.2339 C   0  0  0  0  0  0  0  0  0  0  0  0
    0.4288   12.3029    1.4339 O   0  0  0  0  0  0  0  0  0  0  0  0
   -1.2712   10.6029    1.5339 C   0  0  0  0  0  0  0  0  0  0  0  0
   -1.5712    9.5029    2.4339 C   0  0  0  0  0  0  0  0  0  0  0  0
   -0.8712   11.8029    3.6339 C   0  0  0  0  0  0  0  0  0  0  0  0
  2  1  1  0
  3  1  1  0
  4  2  1  0
  5  4  1  0
  6  4  1  0
  7  1  1  0
  7  6  1  0
  8  2  1  0
  8  4  1  0
M  END
>  <ID>  (1) 
conformer_0

$$$$
