
     RDKit          3D

  8  7  0  0  0  0  0  0  0  0999 V2000
   -0.2712    9.5029    3.4339 C   0  0  0  0  0  0  0  0  0  0  0  0
    0.0288   10.9029    3.4339 C   0  0  0  0  0  0  0  0  0  0  0  0
   -0.6712    9.2029    4.8339 N   0  0  0  0  0  0  0  0  0  0  0  0
   -0.3712   11.5029    2.1339 C   0  0  0  0  0  0  0  0  0  0  0  0
    0.5288   12.6029    1.7339 C   0  0  0  0  0  0  0  0  0  0  0  0
    0.9288   13.4029    2.9339 C   0  0  0  0  0  0  0  0  0  0  0  0
    1.3288   14.7029    2.3339 O   0  0  0  0  0  0  0  0  0  0  0  0
    0.7288   12.9029    0.4339 O   0  0  0  0  0  0  0  0  0  0  0  0
  2  1  1  0
  3  1  1  0
  4  2  1  0
  5  4  1  0
  6  5  1  0
  7  6  1  0
  8  5  1  0
M  END
>  <ID>  (1) 
conformer_0

$$$$
