
     RDKit          3D

  4  3  0  0  0  0  0  0  0  0999 V2000
   -0.3680   11.1538    2.9230 C   0  0  0  0  0  0  0  0  0  0  0  0
   -0.1680    9.8538    3.6230 C   0  0  0  0  0  0  0  0  0  0  0  0
    0.8320   11.7538    2.4230 O   0  0  0  0  0  0  0  0  0  0  0  0
    0.2320    8.9538    2.5230 O   0  0  0  0  0  0  0  0  0  0  0  0
  2  1  1  0
  3  1  1  0
  4  2  1  0
M  END
>  <ID>  (1) 
conformer_0

$$$$
