
     RDKit          3D

  9  9  0  0  0  0  0  0  0  0999 V2000
    1.0020   14.5811    2.3013 O   0  0  0  0  0  0  0  0  0  0  0  0
    0.9020   13.4811    2.9013 C   0  0  0  0  0  0  0  0  0  0  0  0
    0.3020   12.2811    2.3013 C   0  0  0  0  0  0  0  0  0  0  0  0
   -0.1980   11.2811    3.1013 C   0  0  0  0  0  0  0  0  0  0  0  0
   -0.9980   10.1811    2.6013 C   0  0  0  0  0  0  0  0  0  0  0  0
   -1.1980   10.1811    1.2013 C   0  0  0  0  0  0  0  0  0  0  0  0
   -0.5980   11.1811    0.3013 N   0  0  0  0  0  0  0  0  0  0  0  0
   -0.0980   12.3811    0.9013 C   0  0  0  0  0  0  0  0  0  0  0  0
    0.3020   13.5811    4.2013 N   0  0  0  0  0  0  0  0  0  0  0  0
  2  1  1  0
  3  2  1  0
  4  3  2  0
  5  4  1  0
  6  5  1  0
  7  6  1  0
  8  3  1  0
  8  7  1  0
  9  2  1  0
M  END
>  <ID>  (1) 
conformer_0

$$$$
