
     RDKit          3D

  7  7  0  0  0  0  0  0  0  0999 V2000
   -0.8344    8.4783    5.0484 C   0  0  0  0  0  0  0  0  0  0  0  0
   -0.5344    9.7783    4.4484 N   0  0  0  0  0  0  0  0  0  0  0  0
   -2.0344    7.7783    4.5484 C   0  0  0  0  0  0  0  0  0  0  0  0
   -0.7344   10.1783    3.0484 C   0  0  0  0  0  0  0  0  0  0  0  0
   -2.0344    9.5783    2.6484 C   0  0  0  0  0  0  0  0  0  0  0  0
   -2.4344    8.3783    3.3484 O   0  0  0  0  0  0  0  0  0  0  0  0
   -2.2344    6.5783    4.6484 O   0  0  0  0  0  0  0  0  0  0  0  0
  2  1  1  0
  3  1  1  0
  4  2  1  0
  5  4  1  0
  6  3  1  0
  6  5  1  0
  7  3  2  0
M  END
>  <ID>  (1) 
conformer_0

$$$$
