
     RDKit          3D

  6  5  0  0  0  0  0  0  0  0999 V2000
    0.9413   13.9354    3.1331 C   0  0  0  0  0  0  0  0  0  0  0  0
    1.1413   14.5354    1.8331 O   0  0  0  0  0  0  0  0  0  0  0  0
    0.1413   12.7354    2.9331 C   0  0  0  0  0  0  0  0  0  0  0  0
    0.2413   11.4354    3.3331 C   0  0  0  0  0  0  0  0  0  0  0  0
   -0.1587   10.6354    4.2331 N   0  0  0  0  0  0  0  0  0  0  0  0
    0.8413   13.8354    0.6331 C   0  0  0  0  0  0  0  0  0  0  0  0
  2  1  1  0
  3  1  1  0
  4  3  1  0
  5  4  2  0
  6  2  1  0
M  END
>  <ID>  (1) 
conformer_0

$$$$
