
     RDKit          3D

  3  2  0  0  0  0  0  0  0  0999 V2000
   -0.9585   10.3534    2.2367 C   0  0  0  0  0  0  0  0  0  0  0  0
   -0.2585   10.2534    3.5367 C   0  0  0  0  0  0  0  0  0  0  0  0
   -0.4585    8.9534    4.2367 C   0  0  0  0  0  0  0  0  0  0  0  0
  2  1  1  0
  3  2  1  0
M  END
>  <ID>  (1) 
conformer_0

$$$$
