
     RDKit          3D

 10  9  0  0  0  0  0  0  0  0999 V2000
   -1.0814   11.0634    2.9848 C   0  0  0  0  0  0  0  0  0  0  0  0
   -0.5814    9.6634    2.8848 C   0  0  0  0  0  0  0  0  0  0  0  0
   -0.0814    9.1634    4.0848 C   0  0  0  0  0  0  0  0  0  0  0  0
   -1.5814    8.8634    2.1848 C   0  0  0  0  0  0  0  0  0  0  0  0
   -0.3814   11.8634    3.9848 N   0  0  0  0  0  0  0  0  0  0  0  0
    0.5186   12.8634    3.3848 C   0  0  0  0  0  0  0  0  0  0  0  0
    0.6186   12.9634    1.9848 C   0  0  0  0  0  0  0  0  0  0  0  0
    0.8186   14.3634    1.5848 O   0  0  0  0  0  0  0  0  0  0  0  0
   -2.1814    7.8634    2.9848 O   0  0  0  0  0  0  0  0  0  0  0  0
   -1.9814    9.1634    0.7848 C   0  0  0  0  0  0  0  0  0  0  0  0
  2  1  1  0
  3  2  1  0
  4  2  1  0
  5  1  1  0
  6  5  1  0
  7  6  1  0
  8  7  1  0
  9  4  1  0
 10  4  1  0
M  END
>  <ID>  (1) 
conformer_0

$$$$
