
     RDKit          3D

  8  8  0  0  0  0  0  0  0  0999 V2000
   -0.7010    8.5659    4.5752 C   0  0  0  0  0  0  0  0  0  0  0  0
   -0.4010    9.9659    4.3752 N   0  0  0  0  0  0  0  0  0  0  0  0
   -1.7010    8.0659    3.5752 C   0  0  0  0  0  0  0  0  0  0  0  0
   -2.1010    9.2659    2.7752 C   0  0  0  0  0  0  0  0  0  0  0  0
   -1.1010   10.2659    3.0752 C   0  0  0  0  0  0  0  0  0  0  0  0
   -2.9010    7.4659    4.1752 C   0  0  0  0  0  0  0  0  0  0  0  0
   -3.3010    6.1659    3.7752 N   0  0  0  0  0  0  0  0  0  0  0  0
   -3.2010    7.7659    5.3752 O   0  0  0  0  0  0  0  0  0  0  0  0
  2  1  1  0
  3  1  1  0
  4  3  1  0
  5  2  1  0
  5  4  1  0
  6  3  1  0
  7  6  1  0
  8  6  2  0
M  END
>  <ID>  (1) 
conformer_0

$$$$
