
     RDKit          3D

  5  4  0  0  0  0  0  0  0  0999 V2000
   -0.8353   11.0538    2.7755 C   0  0  0  0  0  0  0  0  0  0  0  0
   -0.0353   10.1538    3.5755 C   0  0  0  0  0  0  0  0  0  0  0  0
   -0.5353    9.7538    4.7755 N   0  0  0  0  0  0  0  0  0  0  0  0
   -0.3353   11.2538    1.4755 O   0  0  0  0  0  0  0  0  0  0  0  0
    0.3647    9.1538    2.5755 O   0  0  0  0  0  0  0  0  0  0  0  0
  2  1  1  0
  3  2  1  0
  4  1  1  0
  5  2  1  0
M  END
>  <ID>  (1) 
conformer_0

$$$$
