
     RDKit          3D

 10 10  0  0  0  0  0  0  0  0999 V2000
   -0.8910    8.2243    4.9281 C   0  0  0  0  0  0  0  0  0  0  0  0
   -0.3910    9.2243    4.0281 C   0  0  0  0  0  0  0  0  0  0  0  0
   -1.3910    9.6243    3.0281 C   0  0  0  0  0  0  0  0  0  0  0  0
   -0.9910   10.9243    2.4281 C   0  0  0  0  0  0  0  0  0  0  0  0
    0.1090   11.5243    3.2281 C   0  0  0  0  0  0  0  0  0  0  0  0
    0.3090   10.4243    4.3281 N   0  0  0  0  0  0  0  0  0  0  0  0
   -0.6910    6.8243    4.4281 O   0  0  0  0  0  0  0  0  0  0  0  0
    0.4090   12.8243    3.3281 C   0  0  0  0  0  0  0  0  0  0  0  0
    0.6090   14.1243    3.0281 O   0  0  0  0  0  0  0  0  0  0  0  0
   -2.4910    8.6243    3.2281 O   0  0  0  0  0  0  0  0  0  0  0  0
  2  1  1  0
  3  2  1  0
  4  3  1  0
  5  4  1  0
  6  2  1  0
  6  5  1  0
  7  1  1  0
  8  5  2  0
  9  8  2  0
 10  3  1  0
M  END
>  <ID>  (1) 
conformer_0

$$$$
