
     RDKit          3D

  9  9  0  0  0  0  0  0  0  0999 V2000
   -0.8910    8.2243    4.9281 C   0  0  0  0  0  0  0  0  0  0  0  0
   -0.3910    9.2243    4.0281 C   0  0  0  0  0  0  0  0  0  0  0  0
   -1.2910    9.6243    2.9281 C   0  0  0  0  0  0  0  0  0  0  0  0
   -0.8910   11.0243    2.6281 C   0  0  0  0  0  0  0  0  0  0  0  0
    0.3090   11.4243    3.3281 C   0  0  0  0  0  0  0  0  0  0  0  0
    0.4090   10.3243    4.3281 N   0  0  0  0  0  0  0  0  0  0  0  0
   -0.1910    7.1243    5.0281 O   0  0  0  0  0  0  0  0  0  0  0  0
   -2.2910    8.2243    5.0281 N   0  0  0  0  0  0  0  0  0  0  0  0
   -2.8910    7.3243    6.0281 C   0  0  0  0  0  0  0  0  0  0  0  0
  2  1  1  0
  3  2  1  0
  4  3  1  0
  5  4  1  0
  6  2  1  0
  6  5  1  0
  7  1  2  0
  8  1  1  0
  9  8  1  0
M  END
>  <ID>  (1) 
conformer_0

$$$$
