
     RDKit          3D

  8  8  0  0  0  0  0  0  0  0999 V2000
    1.2481   14.5295    1.5641 O   0  0  0  0  0  0  0  0  0  0  0  0
    0.8481   13.1295    1.7641 C   0  0  0  0  0  0  0  0  0  0  0  0
    0.5481   12.6295    3.0641 C   0  0  0  0  0  0  0  0  0  0  0  0
   -0.2519   11.4295    3.1641 C   0  0  0  0  0  0  0  0  0  0  0  0
   -0.0519   10.1295    3.5641 C   0  0  0  0  0  0  0  0  0  0  0  0
    0.1481    9.5295    4.6641 N   0  0  0  0  0  0  0  0  0  0  0  0
    0.0481   12.5295    0.7641 C   0  0  0  0  0  0  0  0  0  0  0  0
   -0.5519   11.4295    1.5641 C   0  0  0  0  0  0  0  0  0  0  0  0
  2  1  1  0
  3  2  1  0
  4  3  1  0
  5  4  1  0
  6  5  2  0
  7  2  1  0
  8  4  1  0
  8  7  1  0
M  END
>  <ID>  (1) 
conformer_0

$$$$
