
     RDKit          3D

  7  7  0  0  0  0  0  0  0  0999 V2000
    0.9170   14.7160    1.3659 O   0  0  0  0  0  0  0  0  0  0  0  0
    1.0170   14.0160    0.2659 C   0  0  0  0  0  0  0  0  0  0  0  0
    0.1170   13.0160   -0.2341 C   0  0  0  0  0  0  0  0  0  0  0  0
    1.7170   14.7160   -0.8341 N   0  0  0  0  0  0  0  0  0  0  0  0
    0.4170   13.0160   -1.6341 C   0  0  0  0  0  0  0  0  0  0  0  0
    1.4170   14.0160   -1.9341 N   0  0  0  0  0  0  0  0  0  0  0  0
    2.8170   15.5160   -0.6341 N   0  0  0  0  0  0  0  0  0  0  0  0
  2  1  2  0
  3  2  1  0
  4  2  1  0
  5  3  2  0
  6  4  1  0
  6  5  1  0
  7  4  1  0
M  END
>  <ID>  (1) 
conformer_0

$$$$
