
     RDKit          3D

  9  8  0  0  0  0  0  0  0  0999 V2000
    1.0555   14.4548    1.9868 O   0  0  0  0  0  0  0  0  0  0  0  0
    0.8555   13.1548    1.6868 C   0  0  0  0  0  0  0  0  0  0  0  0
    0.1555   12.3548    2.6868 C   0  0  0  0  0  0  0  0  0  0  0  0
   -0.6445   11.2548    2.3868 C   0  0  0  0  0  0  0  0  0  0  0  0
    0.4555   12.7548    0.3868 N   0  0  0  0  0  0  0  0  0  0  0  0
   -0.5445    9.9548    3.0868 C   0  0  0  0  0  0  0  0  0  0  0  0
    0.1555    9.9548    4.3868 N   0  0  0  0  0  0  0  0  0  0  0  0
    0.6555   13.8548   -0.6132 C   0  0  0  0  0  0  0  0  0  0  0  0
    0.3555   12.5548    4.0868 C   0  0  0  0  0  0  0  0  0  0  0  0
  2  1  2  0
  3  2  1  0
  4  3  1  0
  5  2  1  0
  6  4  1  0
  7  6  1  0
  8  5  1  0
  9  3  1  0
M  END
>  <ID>  (1) 
conformer_0

$$$$
