
     RDKit          3D

 10 10  0  0  0  0  0  0  0  0999 V2000
   -0.3680   11.1538    2.9230 C   0  0  0  0  0  0  0  0  0  0  0  0
   -0.1680    9.8538    3.6230 C   0  0  0  0  0  0  0  0  0  0  0  0
    0.3320   12.3538    3.2230 C   0  0  0  0  0  0  0  0  0  0  0  0
    0.8320   13.1538    2.1230 C   0  0  0  0  0  0  0  0  0  0  0  0
    0.9320   14.4538    2.2230 O   0  0  0  0  0  0  0  0  0  0  0  0
   -1.0680    8.8538    3.3230 C   0  0  0  0  0  0  0  0  0  0  0  0
   -2.0680    9.4538    2.4230 C   0  0  0  0  0  0  0  0  0  0  0  0
    0.3320   12.6538    0.9230 N   0  0  0  0  0  0  0  0  0  0  0  0
    0.6320   13.4538   -0.2770 C   0  0  0  0  0  0  0  0  0  0  0  0
   -1.4680   10.7538    2.0230 O   0  0  0  0  0  0  0  0  0  0  0  0
  2  1  2  0
  3  1  1  0
  4  3  1  0
  5  4  2  0
  6  2  1  0
  7  6  1  0
  8  4  1  0
  9  8  1  0
 10  1  1  0
 10  7  1  0
M  END
>  <ID>  (1) 
conformer_0

$$$$
