
     RDKit          3D

  9  8  0  0  0  0  0  0  0  0999 V2000
    1.2481   14.5295    1.5641 O   0  0  0  0  0  0  0  0  0  0  0  0
    0.8481   13.1295    1.7641 C   0  0  0  0  0  0  0  0  0  0  0  0
    0.5481   12.6295    3.0641 C   0  0  0  0  0  0  0  0  0  0  0  0
   -0.2519   11.4295    3.2641 C   0  0  0  0  0  0  0  0  0  0  0  0
    0.0481   10.2295    3.6641 C   0  0  0  0  0  0  0  0  0  0  0  0
   -0.1519    9.4295    4.7641 N   0  0  0  0  0  0  0  0  0  0  0  0
    0.0481   12.6295    0.6641 C   0  0  0  0  0  0  0  0  0  0  0  0
   -0.6519   11.5295    0.8641 O   0  0  0  0  0  0  0  0  0  0  0  0
    0.4481   13.4295   -0.5359 C   0  0  0  0  0  0  0  0  0  0  0  0
  2  1  1  0
  3  2  1  0
  4  3  1  0
  5  4  1  0
  6  5  1  0
  7  2  1  0
  8  7  1  0
  9  7  1  0
M  END
>  <ID>  (1) 
conformer_0

$$$$
