
     RDKit          3D

  9  9  0  0  0  0  0  0  0  0999 V2000
    0.2125   12.1933    2.8503 C   0  0  0  0  0  0  0  0  0  0  0  0
   -0.3875   10.8933    3.0503 C   0  0  0  0  0  0  0  0  0  0  0  0
    0.1125    9.7933    3.8503 C   0  0  0  0  0  0  0  0  0  0  0  0
   -1.2875   10.4933    1.9503 C   0  0  0  0  0  0  0  0  0  0  0  0
   -0.2875    9.3933    5.0503 N   0  0  0  0  0  0  0  0  0  0  0  0
    0.5125   12.7933    1.5503 C   0  0  0  0  0  0  0  0  0  0  0  0
   -0.0875   12.1933    0.4503 N   0  0  0  0  0  0  0  0  0  0  0  0
   -0.8875   11.0933    0.6503 C   0  0  0  0  0  0  0  0  0  0  0  0
    1.3125   13.9933    1.4503 C   0  0  0  0  0  0  0  0  0  0  0  0
  2  1  1  0
  3  2  1  0
  4  2  1  0
  5  3  2  0
  6  1  2  0
  7  6  1  0
  8  4  1  0
  8  7  2  0
  9  6  1  0
M  END
>  <ID>  (1) 
conformer_0

$$$$
