
     RDKit          3D

 10 10  0  0  0  0  0  0  0  0999 V2000
    1.2481   14.5295    1.5641 O   0  0  0  0  0  0  0  0  0  0  0  0
    0.9481   13.2295    1.5641 C   0  0  0  0  0  0  0  0  0  0  0  0
    0.4481   12.4295    2.5641 C   0  0  0  0  0  0  0  0  0  0  0  0
    0.2481   13.0295    0.2641 C   0  0  0  0  0  0  0  0  0  0  0  0
    0.7481   14.0295   -0.7359 C   0  0  0  0  0  0  0  0  0  0  0  0
   -0.3519   11.3295    2.5641 C   0  0  0  0  0  0  0  0  0  0  0  0
    0.0481   10.1295    3.2641 C   0  0  0  0  0  0  0  0  0  0  0  0
   -0.7519   11.1295    3.9641 N   0  0  0  0  0  0  0  0  0  0  0  0
   -0.4519   11.9295   -0.0359 N   0  0  0  0  0  0  0  0  0  0  0  0
   -0.3519   11.9295   -1.4359 O   0  0  0  0  0  0  0  0  0  0  0  0
  2  1  1  0
  3  2  1  0
  4  2  1  0
  5  4  1  0
  6  3  1  0
  7  6  1  0
  8  6  1  0
  8  7  1  0
  9  4  1  0
 10  9  1  0
M  END
>  <ID>  (1) 
conformer_0

$$$$
