
     RDKit          3D

  7  6  0  0  0  0  0  0  0  0999 V2000
    0.8953   13.9144    3.3083 C   0  0  0  0  0  0  0  0  0  0  0  0
    0.7953   12.8144    2.3083 C   0  0  0  0  0  0  0  0  0  0  0  0
   -0.1047   11.7144    2.7083 C   0  0  0  0  0  0  0  0  0  0  0  0
   -0.4047   11.8144    4.0083 N   0  0  0  0  0  0  0  0  0  0  0  0
   -0.8047   10.9144    1.7083 C   0  0  0  0  0  0  0  0  0  0  0  0
    0.4953   13.0144    0.9083 C   0  0  0  0  0  0  0  0  0  0  0  0
    0.9953   14.2144    0.2083 N   0  0  0  0  0  0  0  0  0  0  0  0
  2  1  1  0
  3  2  1  0
  4  3  1  0
  5  3  1  0
  6  2  1  0
  7  6  1  0
M  END
>  <ID>  (1) 
conformer_0

$$$$
