
     RDKit          3D

 10 10  0  0  0  0  0  0  0  0999 V2000
   -0.6117   11.1618    2.7426 C   0  0  0  0  0  0  0  0  0  0  0  0
   -0.0117   10.1618    3.6426 C   0  0  0  0  0  0  0  0  0  0  0  0
    0.3883   12.2618    2.5426 C   0  0  0  0  0  0  0  0  0  0  0  0
   -0.1117    8.7618    3.1426 C   0  0  0  0  0  0  0  0  0  0  0  0
    0.0883    7.7618    4.2426 C   0  0  0  0  0  0  0  0  0  0  0  0
    0.6883   13.2618    3.3426 C   0  0  0  0  0  0  0  0  0  0  0  0
    1.0883   14.4618    2.7426 O   0  0  0  0  0  0  0  0  0  0  0  0
   -1.1117    8.1618    5.0426 C   0  0  0  0  0  0  0  0  0  0  0  0
    0.0883    8.7618    5.4426 O   0  0  0  0  0  0  0  0  0  0  0  0
    0.2883   12.5618    1.1426 O   0  0  0  0  0  0  0  0  0  0  0  0
  2  1  1  0
  3  1  1  0
  4  2  1  0
  5  4  1  0
  6  3  1  0
  7  6  1  0
  8  5  1  0
  9  5  1  0
  9  8  1  0
 10  3  1  0
M  END
>  <ID>  (1) 
conformer_0

$$$$
