
     RDKit          3D

  7  6  0  0  0  0  0  0  0  0999 V2000
   -0.7624    9.8601    3.3073 C   0  0  0  0  0  0  0  0  0  0  0  0
   -0.4624   11.2601    3.2073 C   0  0  0  0  0  0  0  0  0  0  0  0
   -0.5624    9.4601    4.7073 N   0  0  0  0  0  0  0  0  0  0  0  0
    0.1376   11.9601    2.1073 C   0  0  0  0  0  0  0  0  0  0  0  0
    0.8376   13.2601    2.2073 C   0  0  0  0  0  0  0  0  0  0  0  0
   -0.5624   11.7601    0.9073 O   0  0  0  0  0  0  0  0  0  0  0  0
    0.7376   14.2601    1.4073 O   0  0  0  0  0  0  0  0  0  0  0  0
  2  1  1  0
  3  1  1  0
  4  2  1  0
  5  4  1  0
  6  4  1  0
  7  5  2  0
M  END
>  <ID>  (1) 
conformer_0

$$$$
