
     RDKit          3D

  9  9  0  0  0  0  0  0  0  0999 V2000
   -0.8094   10.2621    2.4396 C   0  0  0  0  0  0  0  0  0  0  0  0
   -0.2094   11.3621    3.0396 C   0  0  0  0  0  0  0  0  0  0  0  0
    0.3906   12.4621    2.2396 C   0  0  0  0  0  0  0  0  0  0  0  0
   -1.1094    9.1621    3.3396 C   0  0  0  0  0  0  0  0  0  0  0  0
   -0.6094    9.4621    4.6396 N   0  0  0  0  0  0  0  0  0  0  0  0
    0.7906   13.6621    3.0396 C   0  0  0  0  0  0  0  0  0  0  0  0
    0.1906   12.4621    0.9396 O   0  0  0  0  0  0  0  0  0  0  0  0
    0.2906   10.6621    4.2396 C   0  0  0  0  0  0  0  0  0  0  0  0
    1.1906   14.5621    2.0396 O   0  0  0  0  0  0  0  0  0  0  0  0
  2  1  1  0
  3  2  1  0
  4  1  1  0
  5  4  1  0
  6  3  1  0
  7  3  1  0
  8  2  1  0
  8  5  1  0
  9  6  1  0
M  END
>  <ID>  (1) 
conformer_0

$$$$
