
     RDKit          3D

 10 10  0  0  0  0  0  0  0  0999 V2000
    1.0020   14.5811    2.3013 O   0  0  0  0  0  0  0  0  0  0  0  0
    0.9020   13.4811    2.9013 C   0  0  0  0  0  0  0  0  0  0  0  0
    0.3020   12.2811    2.3013 C   0  0  0  0  0  0  0  0  0  0  0  0
   -0.1980   11.2811    3.1013 C   0  0  0  0  0  0  0  0  0  0  0  0
   -1.1980   10.3811    2.5013 C   0  0  0  0  0  0  0  0  0  0  0  0
    0.1020    9.8811    2.7013 N   0  0  0  0  0  0  0  0  0  0  0  0
    0.2020   12.5811    0.9013 C   0  0  0  0  0  0  0  0  0  0  0  0
    0.3020   13.5811   -0.1987 C   0  0  0  0  0  0  0  0  0  0  0  0
   -2.2980    9.3811    2.7013 C   0  0  0  0  0  0  0  0  0  0  0  0
    1.5020   14.3811   -0.0987 N   0  0  0  0  0  0  0  0  0  0  0  0
  2  1  2  0
  3  2  1  0
  4  3  1  0
  5  4  1  0
  6  4  1  0
  6  5  1  0
  7  3  1  0
  8  7  1  0
  9  5  1  0
 10  8  1  0
M  END
>  <ID>  (1) 
conformer_0

$$$$
