
     RDKit          3D

  9  8  0  0  0  0  0  0  0  0999 V2000
   -0.6371   11.6124    3.5365 C   0  0  0  0  0  0  0  0  0  0  0  0
   -0.0371   10.3124    3.4365 C   0  0  0  0  0  0  0  0  0  0  0  0
    0.0629   12.6124    3.9365 N   0  0  0  0  0  0  0  0  0  0  0  0
   -0.8371    9.1124    3.8365 C   0  0  0  0  0  0  0  0  0  0  0  0
    0.8629   13.4124    3.0365 C   0  0  0  0  0  0  0  0  0  0  0  0
    0.6629   12.7124    1.7365 C   0  0  0  0  0  0  0  0  0  0  0  0
   -0.2371   12.1124    1.0365 O   0  0  0  0  0  0  0  0  0  0  0  0
    1.0629   13.7124    0.7365 C   0  0  0  0  0  0  0  0  0  0  0  0
   -0.1371    7.9124    4.0365 N   0  0  0  0  0  0  0  0  0  0  0  0
  2  1  1  0
  3  1  1  0
  4  2  2  3
  5  3  1  0
  6  5  1  0
  7  6  1  0
  8  6  1  0
  9  4  1  0
M  END
>  <ID>  (1) 
conformer_0

$$$$
