
     RDKit          3D

 10 10  0  0  0  0  0  0  0  0999 V2000
   -0.5121    9.8199    4.5536 N   0  0  0  0  0  0  0  0  0  0  0  0
   -0.3121   10.6199    3.4536 C   0  0  0  0  0  0  0  0  0  0  0  0
   -0.1121   12.0199    3.4536 C   0  0  0  0  0  0  0  0  0  0  0  0
    0.5879   12.5199    2.2536 C   0  0  0  0  0  0  0  0  0  0  0  0
   -0.9121   10.3199    2.1536 C   0  0  0  0  0  0  0  0  0  0  0  0
    0.0879   12.3199    0.9536 O   0  0  0  0  0  0  0  0  0  0  0  0
   -2.0121    9.5199    2.4536 C   0  0  0  0  0  0  0  0  0  0  0  0
   -1.8121    8.2199    3.1536 C   0  0  0  0  0  0  0  0  0  0  0  0
   -1.0121    8.5199    4.3536 C   0  0  0  0  0  0  0  0  0  0  0  0
    1.1879   13.8199    2.5536 C   0  0  0  0  0  0  0  0  0  0  0  0
  2  1  1  0
  3  2  1  0
  4  3  1  0
  5  2  1  0
  6  4  1  0
  7  5  1  0
  8  7  1  0
  9  1  1  0
  9  8  1  0
 10  4  1  0
M  END
>  <ID>  (1) 
conformer_0

$$$$
