
     RDKit          3D

  9  9  0  0  0  0  0  0  0  0999 V2000
    0.9762   14.3205    1.3035 O   0  0  0  0  0  0  0  0  0  0  0  0
    0.6762   13.0205    1.8035 C   0  0  0  0  0  0  0  0  0  0  0  0
    0.3762   12.9205    3.1035 C   0  0  0  0  0  0  0  0  0  0  0  0
   -0.3238   11.7205    3.5035 C   0  0  0  0  0  0  0  0  0  0  0  0
   -0.6238   10.9205    2.3035 C   0  0  0  0  0  0  0  0  0  0  0  0
   -1.7238    9.9205    2.5035 C   0  0  0  0  0  0  0  0  0  0  0  0
    0.1762   12.3205    0.6035 N   0  0  0  0  0  0  0  0  0  0  0  0
   -0.0238   12.9205   -0.6965 C   0  0  0  0  0  0  0  0  0  0  0  0
   -1.5238   10.8205    1.4035 O   0  0  0  0  0  0  0  0  0  0  0  0
  2  1  2  0
  3  2  1  0
  4  3  1  0
  5  4  1  0
  6  5  1  0
  7  2  1  0
  8  7  1  0
  9  5  1  0
  9  6  1  0
M  END
>  <ID>  (1) 
conformer_0

$$$$
