
     RDKit          3D

  9  9  0  0  0  0  0  0  0  0999 V2000
    1.3493   14.4833    2.0190 O   0  0  0  0  0  0  0  0  0  0  0  0
    0.8493   13.1833    1.6190 C   0  0  0  0  0  0  0  0  0  0  0  0
    0.4493   12.3833    2.8190 C   0  0  0  0  0  0  0  0  0  0  0  0
   -0.4507   11.2833    2.7190 C   0  0  0  0  0  0  0  0  0  0  0  0
   -0.2507   10.5833    4.0190 N   0  0  0  0  0  0  0  0  0  0  0  0
    1.5493   14.3833    3.4190 C   0  0  0  0  0  0  0  0  0  0  0  0
   -0.1507    9.1833    3.9190 C   0  0  0  0  0  0  0  0  0  0  0  0
    0.4493   13.2833    3.9190 C   0  0  0  0  0  0  0  0  0  0  0  0
   -0.6507    8.4833    5.1190 C   0  0  0  0  0  0  0  0  0  0  0  0
  2  1  1  0
  3  2  1  0
  4  3  1  0
  5  4  1  0
  6  1  1  0
  7  5  1  0
  8  3  1  0
  8  6  1  0
  9  7  1  0
M  END
>  <ID>  (1) 
conformer_0

$$$$
