
     RDKit          3D

  9  9  0  0  0  0  0  0  0  0999 V2000
   -0.6371   11.6124    3.5365 C   0  0  0  0  0  0  0  0  0  0  0  0
   -0.0371   10.3124    3.4365 C   0  0  0  0  0  0  0  0  0  0  0  0
    0.0629   12.6124    3.9365 N   0  0  0  0  0  0  0  0  0  0  0  0
   -0.8371    9.2124    2.8365 C   0  0  0  0  0  0  0  0  0  0  0  0
   -0.0371    8.4124    1.9365 N   0  0  0  0  0  0  0  0  0  0  0  0
    0.2629   12.2124    2.6365 C   0  0  0  0  0  0  0  0  0  0  0  0
   -0.0371   12.1124    1.3365 O   0  0  0  0  0  0  0  0  0  0  0  0
    0.3629    9.7124    4.7365 O   0  0  0  0  0  0  0  0  0  0  0  0
   -1.8371    8.5124    3.6365 C   0  0  0  0  0  0  0  0  0  0  0  0
  2  1  1  0
  3  1  1  0
  4  2  1  0
  5  4  1  0
  6  1  1  0
  6  3  1  0
  7  6  1  0
  8  2  1  0
  9  4  1  0
M  END
>  <ID>  (1) 
conformer_0

$$$$
