
     RDKit          3D

 11 10  0  0  0  0  0  0  0  0999 V2000
    1.3493   14.4833    2.0190 O   0  0  0  0  0  0  0  0  0  0  0  0
    0.9493   13.1833    1.8190 C   0  0  0  0  0  0  0  0  0  0  0  0
    0.2493   12.5833    2.9190 C   0  0  0  0  0  0  0  0  0  0  0  0
   -0.2507   11.1833    2.7190 C   0  0  0  0  0  0  0  0  0  0  0  0
   -0.5507   10.5833    4.0190 N   0  0  0  0  0  0  0  0  0  0  0  0
    0.4493   13.0833    0.5190 N   0  0  0  0  0  0  0  0  0  0  0  0
    0.6493   13.9833   -0.4810 C   0  0  0  0  0  0  0  0  0  0  0  0
    0.9493   13.6833   -1.7810 C   0  0  0  0  0  0  0  0  0  0  0  0
    1.5493   14.0833   -2.9810 C   0  0  0  0  0  0  0  0  0  0  0  0
    1.4493   13.4833   -4.1810 O   0  0  0  0  0  0  0  0  0  0  0  0
    0.5493   12.3833   -3.9810 C   0  0  0  0  0  0  0  0  0  0  0  0
  2  1  1  0
  3  2  1  0
  4  3  1  0
  5  4  1  0
  6  2  1  0
  7  6  1  0
  8  7  1  0
  9  8  2  3
 10  9  1  0
 11 10  1  0
M  END
>  <ID>  (1) 
conformer_0

$$$$
