
     RDKit          3D

 10 10  0  0  0  0  0  0  0  0999 V2000
    1.2481   14.5295    1.5641 O   0  0  0  0  0  0  0  0  0  0  0  0
    0.8481   13.1295    1.7641 C   0  0  0  0  0  0  0  0  0  0  0  0
    0.5481   12.6295    3.0641 C   0  0  0  0  0  0  0  0  0  0  0  0
   -0.2519   11.4295    3.1641 C   0  0  0  0  0  0  0  0  0  0  0  0
   -0.0519   10.1295    3.5641 C   0  0  0  0  0  0  0  0  0  0  0  0
    0.1481    9.5295    4.6641 N   0  0  0  0  0  0  0  0  0  0  0  0
    0.1481   12.6295    0.5641 C   0  0  0  0  0  0  0  0  0  0  0  0
    0.5481   13.5295   -0.5359 C   0  0  0  0  0  0  0  0  0  0  0  0
   -0.6519   11.5295    0.6641 O   0  0  0  0  0  0  0  0  0  0  0  0
    0.0481   12.4295    4.1641 O   0  0  0  0  0  0  0  0  0  0  0  0
  2  1  1  0
  3  2  1  0
  4  3  1  0
  5  4  1  0
  6  5  2  0
  7  2  1  0
  8  7  1  0
  9  7  1  0
 10  3  1  0
 10  4  1  0
M  END
>  <ID>  (1) 
conformer_0

$$$$
