
     RDKit          3D

  9  8  0  0  0  0  0  0  0  0999 V2000
   -0.6680    9.7690    4.3613 N   0  0  0  0  0  0  0  0  0  0  0  0
   -0.0680   10.5690    3.3613 C   0  0  0  0  0  0  0  0  0  0  0  0
   -0.5680   11.1690    2.2613 C   0  0  0  0  0  0  0  0  0  0  0  0
    0.3320   12.2690    1.8613 C   0  0  0  0  0  0  0  0  0  0  0  0
    0.6320   12.9690    3.0613 C   0  0  0  0  0  0  0  0  0  0  0  0
    1.2320   14.1690    3.2613 C   0  0  0  0  0  0  0  0  0  0  0  0
   -0.1680   12.5690    4.2613 O   0  0  0  0  0  0  0  0  0  0  0  0
    0.3320   12.7690    0.7613 O   0  0  0  0  0  0  0  0  0  0  0  0
   -1.1680   10.2690    1.2613 C   0  0  0  0  0  0  0  0  0  0  0  0
  2  1  1  0
  3  2  1  0
  4  3  1  0
  5  4  1  0
  6  5  2  0
  7  5  1  0
  8  4  2  0
  9  3  1  0
M  END
>  <ID>  (1) 
conformer_0

$$$$
