
     RDKit          3D

  6  5  0  0  0  0  0  0  0  0999 V2000
    1.2770   14.3568    2.2534 O   0  0  0  0  0  0  0  0  0  0  0  0
    0.7770   13.5568    3.2534 C   0  0  0  0  0  0  0  0  0  0  0  0
    0.2770   12.2568    2.8534 C   0  0  0  0  0  0  0  0  0  0  0  0
   -0.5230   11.3568    3.4534 C   0  0  0  0  0  0  0  0  0  0  0  0
   -0.1230   10.2568    4.3534 N   0  0  0  0  0  0  0  0  0  0  0  0
    1.0770   13.7568    0.9534 C   0  0  0  0  0  0  0  0  0  0  0  0
  2  1  1  0
  3  2  2  3
  4  3  1  0
  5  4  1  0
  6  1  1  0
M  END
>  <ID>  (1) 
conformer_0

$$$$
