
     RDKit          3D

  7  7  0  0  0  0  0  0  0  0999 V2000
   -0.6493    8.5692    5.0649 C   0  0  0  0  0  0  0  0  0  0  0  0
   -1.4493    8.3692    3.8649 C   0  0  0  0  0  0  0  0  0  0  0  0
    0.3507    9.5692    4.7649 N   0  0  0  0  0  0  0  0  0  0  0  0
   -1.3493    9.4692    2.8649 C   0  0  0  0  0  0  0  0  0  0  0  0
   -0.0493   10.2692    3.5649 C   0  0  0  0  0  0  0  0  0  0  0  0
   -1.6493    9.8692    1.7649 C   0  0  0  0  0  0  0  0  0  0  0  0
   -1.4493    7.0692    3.3649 O   0  0  0  0  0  0  0  0  0  0  0  0
  2  1  1  0
  3  1  1  0
  4  2  1  0
  5  3  1  0
  5  4  1  0
  6  4  2  0
  7  2  1  0
M  END
>  <ID>  (1) 
conformer_0

$$$$
