
     RDKit          3D

  9  8  0  0  0  0  0  0  0  0999 V2000
   -0.2712    9.5029    3.4339 C   0  0  0  0  0  0  0  0  0  0  0  0
    0.0288   10.9029    3.4339 C   0  0  0  0  0  0  0  0  0  0  0  0
   -0.6712    9.2029    4.8339 N   0  0  0  0  0  0  0  0  0  0  0  0
   -0.0712   11.7029    2.2339 C   0  0  0  0  0  0  0  0  0  0  0  0
    0.7288   12.9029    2.1339 C   0  0  0  0  0  0  0  0  0  0  0  0
    0.7288   13.6029    0.8339 C   0  0  0  0  0  0  0  0  0  0  0  0
    1.7288   14.6029    0.4339 N   0  0  0  0  0  0  0  0  0  0  0  0
    0.0288   12.9029   -0.2661 C   0  0  0  0  0  0  0  0  0  0  0  0
   -0.3712   12.0029    4.3339 C   0  0  0  0  0  0  0  0  0  0  0  0
  2  1  1  0
  3  1  1  0
  4  2  1  0
  5  4  2  3
  6  5  1  0
  7  6  1  0
  8  6  1  0
  9  2  1  0
M  END
>  <ID>  (1) 
conformer_0

$$$$
