
     RDKit          3D

  9  9  0  0  0  0  0  0  0  0999 V2000
    0.0097    9.1127    4.4589 C   0  0  0  0  0  0  0  0  0  0  0  0
   -0.1903    9.9127    3.2589 C   0  0  0  0  0  0  0  0  0  0  0  0
   -0.2903   11.2127    3.0589 C   0  0  0  0  0  0  0  0  0  0  0  0
    0.4097   12.2127    2.3589 C   0  0  0  0  0  0  0  0  0  0  0  0
   -0.9903    8.1127    4.8589 C   0  0  0  0  0  0  0  0  0  0  0  0
    0.9097   13.4127    2.9589 C   0  0  0  0  0  0  0  0  0  0  0  0
    1.0097   14.5127    2.1589 O   0  0  0  0  0  0  0  0  0  0  0  0
   -0.4903    6.9127    4.3589 O   0  0  0  0  0  0  0  0  0  0  0  0
    0.4097    8.8127    3.0589 O   0  0  0  0  0  0  0  0  0  0  0  0
  2  1  1  0
  3  2  1  0
  4  3  1  0
  5  1  1  0
  6  4  1  0
  7  6  1  0
  8  5  1  0
  9  1  1  0
  9  2  1  0
M  END
>  <ID>  (1) 
conformer_0

$$$$
