
     RDKit          3D

  9  8  0  0  0  0  0  0  0  0999 V2000
   -0.7624    9.8601    3.3073 C   0  0  0  0  0  0  0  0  0  0  0  0
   -0.4624   11.2601    3.2073 C   0  0  0  0  0  0  0  0  0  0  0  0
   -0.5624    9.4601    4.7073 N   0  0  0  0  0  0  0  0  0  0  0  0
   -0.2624   11.8601    1.9073 C   0  0  0  0  0  0  0  0  0  0  0  0
    0.6376   12.9601    1.5073 C   0  0  0  0  0  0  0  0  0  0  0  0
   -0.8624   11.1601    0.8073 O   0  0  0  0  0  0  0  0  0  0  0  0
    0.9376   13.5601    2.8073 C   0  0  0  0  0  0  0  0  0  0  0  0
    0.2376   13.6601    0.3073 O   0  0  0  0  0  0  0  0  0  0  0  0
    1.2376   14.8601    2.7073 O   0  0  0  0  0  0  0  0  0  0  0  0
  2  1  1  0
  3  1  1  0
  4  2  1  0
  5  4  1  0
  6  4  1  0
  7  5  1  0
  8  5  1  0
  9  7  1  0
M  END
>  <ID>  (1) 
conformer_0

$$$$
