
     RDKit          3D

  8  8  0  0  0  0  0  0  0  0999 V2000
    0.6329   12.5394    2.7688 C   0  0  0  0  0  0  0  0  0  0  0  0
   -0.1671   11.3394    2.8688 C   0  0  0  0  0  0  0  0  0  0  0  0
   -0.0671   10.2394    3.7688 C   0  0  0  0  0  0  0  0  0  0  0  0
    0.0329    8.9394    3.1688 C   0  0  0  0  0  0  0  0  0  0  0  0
   -0.1671    9.0394    1.7688 N   0  0  0  0  0  0  0  0  0  0  0  0
   -1.4671    9.6394    1.4688 C   0  0  0  0  0  0  0  0  0  0  0  0
   -1.1671   11.0394    1.8688 C   0  0  0  0  0  0  0  0  0  0  0  0
    0.6329   13.6394    3.6688 N   0  0  0  0  0  0  0  0  0  0  0  0
  2  1  1  0
  3  2  1  0
  4  3  1  0
  5  4  1  0
  6  5  1  0
  7  2  1  0
  7  6  1  0
  8  1  1  0
M  END
>  <ID>  (1) 
conformer_0

$$$$
