
     RDKit          3D

 11 12  0  0  0  0  0  0  0  0999 V2000
   -0.6493    8.5692    5.0649 C   0  0  0  0  0  0  0  0  0  0  0  0
   -1.4493    8.3692    3.8649 C   0  0  0  0  0  0  0  0  0  0  0  0
    0.3507    9.5692    4.7649 N   0  0  0  0  0  0  0  0  0  0  0  0
   -1.3493    9.4692    2.8649 C   0  0  0  0  0  0  0  0  0  0  0  0
   -0.1493   10.2692    3.5649 C   0  0  0  0  0  0  0  0  0  0  0  0
   -1.2493    9.4692    1.4649 C   0  0  0  0  0  0  0  0  0  0  0  0
   -0.8493    8.7692    0.3649 N   0  0  0  0  0  0  0  0  0  0  0  0
   -1.0493    9.1692   -1.0351 C   0  0  0  0  0  0  0  0  0  0  0  0
   -0.3493    8.1692   -1.8351 C   0  0  0  0  0  0  0  0  0  0  0  0
    0.0507    7.0692   -0.9351 C   0  0  0  0  0  0  0  0  0  0  0  0
   -0.5493    7.3692    0.4649 C   0  0  0  0  0  0  0  0  0  0  0  0
  2  1  1  0
  3  1  1  0
  4  2  1  0
  5  3  1  0
  5  4  1  0
  6  4  1  0
  7  6  1  0
  8  7  1  0
  9  8  1  0
 10  9  1  0
 11  7  1  0
 11 10  1  0
M  END
>  <ID>  (1) 
conformer_0

$$$$
