
     RDKit          3D

  7  8  0  0  0  0  0  0  0  0999 V2000
   -0.9224    8.5957    4.7086 C   0  0  0  0  0  0  0  0  0  0  0  0
   -0.5224    9.9957    4.4086 N   0  0  0  0  0  0  0  0  0  0  0  0
   -2.0224    8.0957    3.9086 C   0  0  0  0  0  0  0  0  0  0  0  0
   -0.7224   10.1957    3.0086 C   0  0  0  0  0  0  0  0  0  0  0  0
   -1.8224    9.7957    2.2086 C   0  0  0  0  0  0  0  0  0  0  0  0
   -2.5224    8.6957    2.8086 O   0  0  0  0  0  0  0  0  0  0  0  0
   -0.7224    7.6957    3.5086 C   0  0  0  0  0  0  0  0  0  0  0  0
  2  1  1  0
  3  1  1  0
  4  2  1  0
  5  4  1  0
  6  3  1  0
  6  5  1  0
  7  1  1  0
  7  3  1  0
M  END
>  <ID>  (1) 
conformer_0

$$$$
