
     RDKit          3D

  7  6  0  0  0  0  0  0  0  0999 V2000
    1.0929   14.6563    2.3336 O   0  0  0  0  0  0  0  0  0  0  0  0
    0.7929   13.3563    2.2336 C   0  0  0  0  0  0  0  0  0  0  0  0
    0.0929   12.4563    3.1336 C   0  0  0  0  0  0  0  0  0  0  0  0
    0.0929   11.0563    2.8336 C   0  0  0  0  0  0  0  0  0  0  0  0
   -0.2071   10.4563    4.1336 N   0  0  0  0  0  0  0  0  0  0  0  0
    0.5929   12.9563    0.8336 N   0  0  0  0  0  0  0  0  0  0  0  0
    0.5929   13.8563   -0.2664 C   0  0  0  0  0  0  0  0  0  0  0  0
  2  1  2  0
  3  2  1  0
  4  3  1  0
  5  4  1  0
  6  2  1  0
  7  6  1  0
M  END
>  <ID>  (1) 
conformer_0

$$$$
