
     RDKit          3D

 11 13  0  0  0  0  0  0  0  0999 V2000
   -0.5121    9.8199    4.5536 N   0  0  0  0  0  0  0  0  0  0  0  0
   -0.1121   10.6199    3.4536 C   0  0  0  0  0  0  0  0  0  0  0  0
   -1.1121   10.7199    2.3536 C   0  0  0  0  0  0  0  0  0  0  0  0
   -2.1121    9.7199    2.5536 C   0  0  0  0  0  0  0  0  0  0  0  0
   -2.1121    8.5199    3.3536 C   0  0  0  0  0  0  0  0  0  0  0  0
    0.1879    9.1199    3.5536 C   0  0  0  0  0  0  0  0  0  0  0  0
   -1.7121    7.3199    3.2536 O   0  0  0  0  0  0  0  0  0  0  0  0
   -1.2121    9.5199    1.4536 C   0  0  0  0  0  0  0  0  0  0  0  0
    0.5879    8.3199    2.5536 O   0  0  0  0  0  0  0  0  0  0  0  0
   -2.0121    7.9199    4.5536 C   0  0  0  0  0  0  0  0  0  0  0  0
   -1.4121    8.4199    0.6536 O   0  0  0  0  0  0  0  0  0  0  0  0
  2  1  1  0
  3  2  1  0
  4  3  1  0
  5  4  1  0
  6  1  1  0
  6  2  1  0
  7  5  1  0
  8  3  1  0
  8  4  1  0
  9  6  2  0
 10  5  1  0
 10  7  1  0
 11  8  1  0
M  END
>  <ID>  (1) 
conformer_0

$$$$
