
     RDKit          3D

  6  5  0  0  0  0  0  0  0  0999 V2000
    0.6713   12.3798    2.3282 C   0  0  0  0  0  0  0  0  0  0  0  0
   -0.2287   11.7798    3.3282 C   0  0  0  0  0  0  0  0  0  0  0  0
   -0.1287   10.3798    3.2282 C   0  0  0  0  0  0  0  0  0  0  0  0
    0.2713    9.5798    4.4282 N   0  0  0  0  0  0  0  0  0  0  0  0
   -0.0287   12.1798    1.0282 O   0  0  0  0  0  0  0  0  0  0  0  0
    1.0713   13.6798    2.9282 C   0  0  0  0  0  0  0  0  0  0  0  0
  2  1  1  0
  3  2  1  0
  4  3  1  0
  5  1  1  0
  6  1  1  0
M  END
>  <ID>  (1) 
conformer_0

$$$$
