
     RDKit          3D

  5  4  0  0  0  0  0  0  0  0999 V2000
   -0.9585   10.3534    2.2367 C   0  0  0  0  0  0  0  0  0  0  0  0
   -0.2585   10.2534    3.5367 C   0  0  0  0  0  0  0  0  0  0  0  0
   -0.6585    8.9534    4.1367 C   0  0  0  0  0  0  0  0  0  0  0  0
   -0.1585    8.8534    5.5367 N   0  0  0  0  0  0  0  0  0  0  0  0
   -0.5585   11.5534    1.4367 O   0  0  0  0  0  0  0  0  0  0  0  0
  2  1  1  0
  3  2  1  0
  4  3  1  0
  5  1  1  0
M  END
>  <ID>  (1) 
conformer_0

$$$$
