
     RDKit          3D

  9  8  0  0  0  0  0  0  0  0999 V2000
   -0.0289   11.9891    3.1444 C   0  0  0  0  0  0  0  0  0  0  0  0
   -0.7289   10.6891    2.9444 C   0  0  0  0  0  0  0  0  0  0  0  0
    0.0711    9.6891    3.6444 C   0  0  0  0  0  0  0  0  0  0  0  0
   -1.0289   10.3891    1.6444 C   0  0  0  0  0  0  0  0  0  0  0  0
    0.1711    9.0891    4.8444 N   0  0  0  0  0  0  0  0  0  0  0  0
    0.8711   12.6891    2.3444 C   0  0  0  0  0  0  0  0  0  0  0  0
    1.1711   13.9891    2.8444 C   0  0  0  0  0  0  0  0  0  0  0  0
   -1.2289   10.2891    0.4444 N   0  0  0  0  0  0  0  0  0  0  0  0
    1.7711   14.7891    1.7444 N   0  0  0  0  0  0  0  0  0  0  0  0
  2  1  1  0
  3  2  1  0
  4  2  1  0
  5  3  1  0
  6  1  1  0
  7  6  1  0
  8  4  3  0
  9  7  1  0
M  END
>  <ID>  (1) 
conformer_0

$$$$
