
     RDKit          3D

  7  6  0  0  0  0  0  0  0  0999 V2000
   -0.6371   11.6124    3.5365 C   0  0  0  0  0  0  0  0  0  0  0  0
   -0.0371   10.3124    3.4365 C   0  0  0  0  0  0  0  0  0  0  0  0
    0.0629   12.6124    3.9365 N   0  0  0  0  0  0  0  0  0  0  0  0
   -0.2371    9.2124    4.3365 C   0  0  0  0  0  0  0  0  0  0  0  0
    0.8629   13.5124    3.1365 C   0  0  0  0  0  0  0  0  0  0  0  0
    0.6629   13.0124    1.7365 C   0  0  0  0  0  0  0  0  0  0  0  0
   -0.1371   12.2124    1.1365 O   0  0  0  0  0  0  0  0  0  0  0  0
  2  1  1  0
  3  1  1  0
  4  2  1  0
  5  3  1  0
  6  5  1  0
  7  6  2  0
M  END
>  <ID>  (1) 
conformer_0

$$$$
