
     RDKit          3D

  9  8  0  0  0  0  0  0  0  0999 V2000
   -0.6117   11.1618    2.7426 C   0  0  0  0  0  0  0  0  0  0  0  0
    0.5883   11.9618    2.6426 C   0  0  0  0  0  0  0  0  0  0  0  0
    0.6883   12.9618    1.5426 C   0  0  0  0  0  0  0  0  0  0  0  0
   -0.5117   10.4618    4.0426 N   0  0  0  0  0  0  0  0  0  0  0  0
    0.8883   14.2618    1.6426 O   0  0  0  0  0  0  0  0  0  0  0  0
   -0.0117   12.5618    0.4426 N   0  0  0  0  0  0  0  0  0  0  0  0
   -0.0117   12.8618   -0.8574 C   0  0  0  0  0  0  0  0  0  0  0  0
   -0.3117   11.8618   -1.8574 C   0  0  0  0  0  0  0  0  0  0  0  0
    0.7883   14.0618   -1.1574 C   0  0  0  0  0  0  0  0  0  0  0  0
  2  1  1  0
  3  2  1  0
  4  1  1  0
  5  3  2  0
  6  3  1  0
  7  6  1  0
  8  7  1  0
  9  7  1  0
M  END
>  <ID>  (1) 
conformer_0

$$$$
