
     RDKit          3D

  8  8  0  0  0  0  0  0  0  0999 V2000
   -0.6371   11.6124    3.5365 C   0  0  0  0  0  0  0  0  0  0  0  0
   -0.0371   10.3124    3.4365 C   0  0  0  0  0  0  0  0  0  0  0  0
    0.0629   12.6124    3.9365 N   0  0  0  0  0  0  0  0  0  0  0  0
   -0.0371    9.3124    4.5365 C   0  0  0  0  0  0  0  0  0  0  0  0
    0.8629   13.6124    3.2365 C   0  0  0  0  0  0  0  0  0  0  0  0
    0.8629   13.1124    1.8365 C   0  0  0  0  0  0  0  0  0  0  0  0
    0.7629   14.3124    1.0365 O   0  0  0  0  0  0  0  0  0  0  0  0
   -0.4371   11.1124    2.1365 C   0  0  0  0  0  0  0  0  0  0  0  0
  2  1  1  0
  3  1  1  0
  4  2  1  0
  5  3  1  0
  6  5  1  0
  7  6  1  0
  8  1  1  0
  8  2  1  0
M  END
>  <ID>  (1) 
conformer_0

$$$$
