
     RDKit          3D

 10 10  0  0  0  0  0  0  0  0999 V2000
    1.0929   14.6563    2.3336 O   0  0  0  0  0  0  0  0  0  0  0  0
    0.7929   13.3563    2.2336 C   0  0  0  0  0  0  0  0  0  0  0  0
    0.0929   12.4563    3.1336 C   0  0  0  0  0  0  0  0  0  0  0  0
    0.0929   11.0563    2.8336 C   0  0  0  0  0  0  0  0  0  0  0  0
   -0.2071   10.4563    4.1336 N   0  0  0  0  0  0  0  0  0  0  0  0
    0.5929   13.0563    0.8336 N   0  0  0  0  0  0  0  0  0  0  0  0
    0.3929   13.9563   -0.1664 C   0  0  0  0  0  0  0  0  0  0  0  0
    1.0929   14.1563   -1.3664 C   0  0  0  0  0  0  0  0  0  0  0  0
    1.6929   14.5563   -0.1664 N   0  0  0  0  0  0  0  0  0  0  0  0
    1.5929   14.1563   -2.3664 O   0  0  0  0  0  0  0  0  0  0  0  0
  2  1  2  0
  3  2  1  0
  4  3  1  0
  5  4  1  0
  6  2  1  0
  7  6  1  0
  8  7  1  0
  9  7  1  0
  9  8  1  0
 10  8  2  0
M  END
>  <ID>  (1) 
conformer_0

$$$$
