
     RDKit          3D

 11 10  0  0  0  0  0  0  0  0999 V2000
    0.0097    9.1127    4.4589 C   0  0  0  0  0  0  0  0  0  0  0  0
   -0.1903    9.9127    3.2589 C   0  0  0  0  0  0  0  0  0  0  0  0
   -0.2903   11.2127    3.0589 C   0  0  0  0  0  0  0  0  0  0  0  0
   -0.9903    8.2127    4.9589 C   0  0  0  0  0  0  0  0  0  0  0  0
    0.4097   12.3127    2.8589 C   0  0  0  0  0  0  0  0  0  0  0  0
    0.6097   12.9127    1.5589 C   0  0  0  0  0  0  0  0  0  0  0  0
    0.8097   14.2127    1.3589 O   0  0  0  0  0  0  0  0  0  0  0  0
   -0.0903   12.2127    0.4589 N   0  0  0  0  0  0  0  0  0  0  0  0
   -0.0903   12.8127   -0.8411 C   0  0  0  0  0  0  0  0  0  0  0  0
   -0.6903    6.9127    5.3589 O   0  0  0  0  0  0  0  0  0  0  0  0
    0.1097    6.4127    4.3589 C   0  0  0  0  0  0  0  0  0  0  0  0
  2  1  1  0
  3  2  1  0
  4  1  1  0
  5  3  1  0
  6  5  1  0
  7  6  2  0
  8  6  1  0
  9  8  1  0
 10  4  1  0
 11 10  1  0
M  END
>  <ID>  (1) 
conformer_0

$$$$
