
     RDKit          3D

  9  8  0  0  0  0  0  0  0  0999 V2000
   -0.6680    9.7690    4.3613 N   0  0  0  0  0  0  0  0  0  0  0  0
   -0.0680   10.5690    3.3613 C   0  0  0  0  0  0  0  0  0  0  0  0
   -0.0680   11.9690    3.5613 C   0  0  0  0  0  0  0  0  0  0  0  0
    0.6320   12.7690    2.5613 C   0  0  0  0  0  0  0  0  0  0  0  0
    1.0320   14.0690    3.0613 C   0  0  0  0  0  0  0  0  0  0  0  0
    1.3320   14.8690    1.8613 O   0  0  0  0  0  0  0  0  0  0  0  0
    0.2320   12.5690    1.2613 O   0  0  0  0  0  0  0  0  0  0  0  0
   -0.6680    8.3690    4.2613 C   0  0  0  0  0  0  0  0  0  0  0  0
    0.4320    7.9690    3.3613 C   0  0  0  0  0  0  0  0  0  0  0  0
  2  1  2  3
  3  2  1  0
  4  3  1  0
  5  4  1  0
  6  5  1  0
  7  4  1  0
  8  1  1  0
  9  8  1  0
M  END
>  <ID>  (1) 
conformer_0

$$$$
