
     RDKit          3D

  6  5  0  0  0  0  0  0  0  0999 V2000
    1.0929   14.6563    2.3336 O   0  0  0  0  0  0  0  0  0  0  0  0
    0.7929   13.3563    2.8336 C   0  0  0  0  0  0  0  0  0  0  0  0
   -0.0071   12.5563    2.0336 C   0  0  0  0  0  0  0  0  0  0  0  0
   -0.7071   11.4563    2.7336 C   0  0  0  0  0  0  0  0  0  0  0  0
   -0.3071   11.0563    4.0336 N   0  0  0  0  0  0  0  0  0  0  0  0
    1.2929   14.3563    0.9336 C   0  0  0  0  0  0  0  0  0  0  0  0
  2  1  1  0
  3  2  1  0
  4  3  1  0
  5  4  1  0
  6  1  1  0
M  END
>  <ID>  (1) 
conformer_0

$$$$
