
     RDKit          3D

  6  5  0  0  0  0  0  0  0  0999 V2000
   -0.5121    9.8199    4.5536 N   0  0  0  0  0  0  0  0  0  0  0  0
   -0.3121   10.6199    3.4536 C   0  0  0  0  0  0  0  0  0  0  0  0
   -0.9121   10.5199    2.2536 C   0  0  0  0  0  0  0  0  0  0  0  0
   -1.8121    9.4199    1.8536 C   0  0  0  0  0  0  0  0  0  0  0  0
    0.0879   12.0199    3.7536 C   0  0  0  0  0  0  0  0  0  0  0  0
   -2.7121    8.9199    2.8536 O   0  0  0  0  0  0  0  0  0  0  0  0
  2  1  1  0
  3  2  1  0
  4  3  1  0
  5  2  1  0
  6  4  1  0
M  END
>  <ID>  (1) 
conformer_0

$$$$
