
     RDKit          3D

  6  7  0  0  0  0  0  0  0  0999 V2000
    0.0097    9.1127    4.4589 C   0  0  0  0  0  0  0  0  0  0  0  0
   -0.0903   10.2127    3.4589 C   0  0  0  0  0  0  0  0  0  0  0  0
   -1.3903   10.0127    2.7589 C   0  0  0  0  0  0  0  0  0  0  0  0
   -1.8903    8.6127    2.8589 C   0  0  0  0  0  0  0  0  0  0  0  0
   -0.8903    8.1127    3.8589 N   0  0  0  0  0  0  0  0  0  0  0  0
    0.4097    8.1127    3.2589 C   0  0  0  0  0  0  0  0  0  0  0  0
  2  1  1  0
  3  2  1  0
  4  3  1  0
  5  1  1  0
  5  4  1  0
  6  1  1  0
  6  5  1  0
M  END
>  <ID>  (1) 
conformer_0

$$$$
