
     RDKit          3D

 11 12  0  0  0  0  0  0  0  0999 V2000
    0.5513   12.4672    2.5444 C   0  0  0  0  0  0  0  0  0  0  0  0
    0.1513   11.2672    3.2444 C   0  0  0  0  0  0  0  0  0  0  0  0
   -1.0487   10.6672    2.7444 C   0  0  0  0  0  0  0  0  0  0  0  0
   -1.3487    9.2672    3.0444 C   0  0  0  0  0  0  0  0  0  0  0  0
   -0.2487    8.8672    3.9444 C   0  0  0  0  0  0  0  0  0  0  0  0
    0.2513    9.6672    4.9444 N   0  0  0  0  0  0  0  0  0  0  0  0
   -0.0487    8.7672    2.7444 N   0  0  0  0  0  0  0  0  0  0  0  0
    0.8513   13.6672    3.0444 C   0  0  0  0  0  0  0  0  0  0  0  0
    1.2513   14.6672    2.2444 O   0  0  0  0  0  0  0  0  0  0  0  0
    0.1513   12.3672    1.1444 O   0  0  0  0  0  0  0  0  0  0  0  0
   -1.0487   11.4672    3.8444 O   0  0  0  0  0  0  0  0  0  0  0  0
  2  1  1  0
  3  2  1  0
  4  3  1  0
  5  4  1  0
  6  5  1  0
  7  4  1  0
  7  5  1  0
  8  1  1  0
  9  8  1  0
 10  1  1  0
 11  2  1  0
 11  3  1  0
M  END
>  <ID>  (1) 
conformer_0

$$$$
