
     RDKit          3D

 10 10  0  0  0  0  0  0  0  0999 V2000
   -0.5986    8.9966    4.5692 C   0  0  0  0  0  0  0  0  0  0  0  0
    0.0014    9.9966    3.6692 C   0  0  0  0  0  0  0  0  0  0  0  0
   -0.7986   10.8966    2.8692 C   0  0  0  0  0  0  0  0  0  0  0  0
    0.0014   12.0966    2.7692 C   0  0  0  0  0  0  0  0  0  0  0  0
   -1.3986    7.9966    3.9692 C   0  0  0  0  0  0  0  0  0  0  0  0
    0.2014   12.4966    3.9692 O   0  0  0  0  0  0  0  0  0  0  0  0
   -0.9986    6.6966    4.0692 O   0  0  0  0  0  0  0  0  0  0  0  0
    0.6014    8.4966    5.2692 O   0  0  0  0  0  0  0  0  0  0  0  0
    0.2014    9.8966    2.4692 O   0  0  0  0  0  0  0  0  0  0  0  0
    0.3014   12.3966    1.3692 O   0  0  0  0  0  0  0  0  0  0  0  0
  2  1  1  0
  3  2  1  0
  4  3  1  0
  5  1  1  0
  6  4  2  0
  7  5  1  0
  8  1  1  0
  9  2  1  0
  9  3  1  0
 10  4  1  0
M  END
>  <ID>  (1) 
conformer_0

$$$$
