
     RDKit          3D

 24 25  0  0  0  0  0  0  0  0999 V2000
  -15.8008    2.1143  -22.4209 P   0  0  0  0  0  0  0  0  0  0  0  0
  -15.2210    2.4290  -19.0198 O   0  0  0  0  0  1  0  0  0  0  0  0
  -12.9678   -4.2033  -24.7978 C   0  0  0  0  0  0  0  0  0  0  0  0
  -15.1366   -1.4045  -23.0693 C   0  0  0  0  0  0  0  0  0  0  0  0
  -15.2779   -5.6597  -21.5819 C   0  0  0  0  0  0  0  0  0  0  0  0
  -15.4072   -0.1031  -23.5134 C   0  0  0  0  0  0  0  0  0  0  0  0
  -15.6173    3.2002  -21.4267 O   0  0  0  0  0  0  0  0  0  0  0  0
  -14.2283   -1.2199  -25.1381 C   0  0  0  0  0  0  0  0  0  0  0  0
  -11.8248   -6.5160  -24.9921 C   0  0  0  0  0  0  0  0  0  0  0  0
  -14.4539   -5.2512  -22.6779 C   0  0  0  0  0  0  0  0  0  0  0  0
  -17.3978    2.0368  -20.1911 O   0  0  0  0  0  0  0  0  0  0  0  0
  -16.1076   -4.8041  -21.0900 O   0  0  0  0  0  0  0  0  0  0  0  0
  -15.0327   -6.8291  -21.1738 O   0  0  0  0  0  0  0  0  0  0  0  0
  -13.5481   -6.0701  -23.3403 C   0  0  0  0  0  0  0  0  0  0  0  0
  -16.8175    4.3627  -19.4709 O   0  0  0  0  0  0  0  0  0  0  0  0
  -16.2753    3.0148  -19.9959 P   0  0  0  0  0  4  0  0  0  0  0  0
  -14.5641   -3.9690  -23.0716 C   0  0  0  0  0  0  0  0  0  0  0  0
  -12.0885   -7.1008  -26.0446 O   0  0  0  0  0  0  0  0  0  0  0  0
  -16.2704    0.8536  -22.8418 C   0  0  0  0  0  0  0  0  0  0  0  0
  -10.9076   -6.9742  -24.1255 N   0  0  0  0  0  0  0  0  0  0  0  0
  -14.3743   -2.1043  -24.0752 C   0  0  0  0  0  0  0  0  0  0  0  0
  -13.8963   -3.4076  -24.0510 C   0  0  0  0  0  0  0  0  0  0  0  0
  -14.8332    0.0281  -24.7845 C   0  0  0  0  0  0  0  0  0  0  0  0
  -12.7777   -5.5729  -24.4087 C   0  0  0  0  0  0  0  0  0  0  0  0
  1  7  1  0
  1 19  1  0
  2 16  2  0
  3 22  2  0
  3 24  1  0
  4  6  1  0
  4 21  1  0
  5 10  1  0
  5 12  2  0
  5 13  1  0
  6 19  1  0
  6 23  1  0
  7 16  1  0
  8 21  1  0
  8 23  1  0
  9 18  2  0
  9 20  1  0
  9 24  1  0
 10 14  1  0
 10 17  2  0
 11 16  1  0
 14 24  2  0
 15 16  1  0
 17 22  1  0
 21 22  1  0
M  END
>  <ID>  (1) 
conformer_0

$$$$
