
     RDKit          3D

 22 23  0  0  0  0  0  0  0  0999 V2000
  -16.1033    2.9009  -19.9458 P   0  0  0  0  0  4  0  0  0  0  0  0
  -15.6952   -5.3256  -21.4565 O   0  0  0  0  0  0  0  0  0  0  0  0
  -14.2110   -2.2457  -24.0783 C   0  0  0  0  0  0  0  0  0  0  0  0
  -17.5703    2.7207  -19.6178 O   0  0  0  0  0  1  0  0  0  0  0  0
  -15.6579   -0.2443  -23.7548 C   0  0  0  0  0  0  0  0  0  0  0  0
  -15.7944    2.1066  -21.2726 O   0  0  0  0  0  0  0  0  0  0  0  0
  -13.5010   -4.4222  -24.2175 C   0  0  0  0  0  0  0  0  0  0  0  0
  -14.2626   -0.7212  -24.1376 C   0  0  0  0  0  0  0  0  0  0  0  0
  -14.7084   -5.4177  -22.3528 N   0  0  0  0  0  0  0  0  0  0  0  0
  -14.0697   -7.5103  -21.4962 O   0  0  0  0  0  0  0  0  0  0  0  0
  -12.1106   -5.8483  -25.4489 N   0  0  0  0  0  0  0  0  0  0  0  0
  -13.1013   -6.7649  -23.5146 C   0  0  0  0  0  0  0  0  0  0  0  0
  -15.1829    2.3065  -18.8670 O   0  0  0  0  0  0  0  0  0  0  0  0
  -14.4357   -4.3038  -23.1582 C   0  0  0  0  0  0  0  0  0  0  0  0
  -16.5754    0.9747  -21.7715 P   0  0  0  0  0  4  0  0  0  0  0  0
  -14.9258   -2.9553  -23.1018 C   0  0  0  0  0  0  0  0  0  0  0  0
  -15.8073    4.3992  -20.0540 O   0  0  0  0  0  0  0  0  0  0  0  0
  -15.7229   -0.1483  -22.3280 O   0  0  0  0  0  0  0  0  0  0  0  0
  -13.9654   -6.6021  -22.4699 C   0  0  0  0  0  0  0  0  0  0  0  0
  -12.8858   -5.6956  -24.4159 C   0  0  0  0  0  0  0  0  0  0  0  0
  -13.3951   -3.0893  -24.8321 C   0  0  0  0  0  0  0  0  0  0  0  0
  -17.9378    0.6508  -21.6920 O   0  0  0  0  0  1  0  0  0  0  0  0
  1  4  2  0
  1  6  1  0
  1 13  1  0
  1 17  1  0
  2  9  1  0
  3  8  1  0
  3 16  1  0
  3 21  1  0
  5  8  1  0
  5 18  1  0
  6 15  1  0
  7 14  2  0
  7 20  1  0
  7 21  1  0
  9 14  1  0
  9 19  1  0
 10 19  2  0
 11 20  2  0
 12 19  1  0
 12 20  1  0
 14 16  1  0
 15 18  1  0
 15 22  2  0
M  END
>  <ID>  (1) 
conformer_0

$$$$
