
     RDKit          3D

 26 28  0  0  0  0  0  0  0  0999 V2000
  -14.0433   -2.9674  -26.8462 C   0  0  0  0  0  0  0  0  0  0  0  0
  -15.1822   -2.8913  -19.5490 O   0  0  0  0  0  0  0  0  0  0  0  0
  -13.6370   -3.8803  -25.7584 C   0  0  0  0  0  0  0  0  0  0  0  0
  -16.1912    2.9065  -20.3719 P   0  0  0  0  0  4  0  0  0  0  0  0
  -14.1297   -3.7094  -24.3948 C   0  0  0  0  0  0  0  0  0  0  0  0
  -15.9061    0.2833  -21.4125 C   0  0  0  0  0  0  0  0  0  0  0  0
  -16.2900   -3.2484  -20.3960 C   0  0  0  0  0  0  0  0  0  0  0  0
  -15.7757    4.3326  -20.7891 O   0  0  0  0  0  1  0  0  0  0  0  0
  -17.1884   -2.0606  -20.5096 O   0  0  0  0  0  0  0  0  0  0  0  0
  -14.6511   -2.5196  -23.8648 C   0  0  0  0  0  0  0  0  0  0  0  0
  -17.6688    2.7680  -20.1561 O   0  0  0  0  0  0  0  0  0  0  0  0
  -14.8768   -4.7729  -22.3014 O   0  0  0  0  0  0  0  0  0  0  0  0
  -15.4094   -0.9271  -22.4306 N   0  0  0  0  0  0  0  0  0  0  0  0
  -14.0798   -4.7926  -23.5249 C   0  0  0  0  0  0  0  0  0  0  0  0
  -14.5609   -1.2676  -24.5192 C   0  0  0  0  0  0  0  0  0  0  0  0
  -12.6118   -5.9363  -25.1802 C   0  0  0  0  0  0  0  0  0  0  0  0
  -16.8437   -4.4690  -20.1252 O   0  0  0  0  0  0  0  0  0  0  0  0
  -15.0301   -0.3012  -23.6003 C   0  0  0  0  0  0  0  0  0  0  0  0
  -15.5813   -3.5271  -21.9163 C   0  0  0  0  0  0  0  0  0  0  0  0
  -13.0728   -6.9406  -23.0683 O   0  0  0  0  0  0  0  0  0  0  0  0
  -15.7218    1.7158  -21.8043 C   0  0  0  0  0  0  0  0  0  0  0  0
  -15.2303   -2.3415  -22.6551 C   0  0  0  0  0  0  0  0  0  0  0  0
  -12.8375   -4.9324  -26.0763 C   0  0  0  0  0  0  0  0  0  0  0  0
  -11.7578   -6.9825  -25.4677 N   0  0  0  0  0  0  0  0  0  0  0  0
  -15.3525    2.4507  -19.1483 O   0  0  0  0  0  0  0  0  0  0  0  0
  -13.2437   -5.9041  -23.9254 C   0  0  0  0  0  0  0  0  0  0  0  0
  1  3  1  0
  2  7  1  0
  3  5  1  0
  3 23  2  0
  4  8  2  0
  4 11  1  0
  4 21  1  0
  4 25  1  0
  5 10  1  0
  5 14  1  0
  6 13  1  0
  6 21  1  0
  7  9  1  0
  7 17  1  0
  7 19  1  0
 10 15  1  0
 10 22  2  0
 12 14  1  0
 12 19  1  0
 13 18  1  0
 13 22  1  0
 14 26  1  0
 15 18  1  0
 16 23  1  0
 16 24  1  0
 16 26  2  0
 19 22  1  0
 20 26  1  0
M  END
>  <ID>  (1) 
conformer_0

$$$$
