
     RDKit          3D

 25 25  0  0  0  0  0  0  0  0999 V2000
  -14.7993   -0.9445  -19.4499 C   0  0  0  0  0  0  0  0  0  0  0  0
  -15.1753   -2.5432  -21.3726 N   0  0  0  0  0  0  0  0  0  0  0  0
  -10.9416   -6.1905  -26.7867 C   0  0  0  0  0  0  0  0  0  0  0  0
  -18.0868    5.0214  -20.3351 O   0  0  0  0  0  1  0  0  0  0  0  0
  -13.2710   -5.7972  -23.8444 C   0  0  0  0  0  0  0  0  0  0  0  0
  -16.7199    5.0995  -20.6996 P   0  0  0  0  0  4  0  0  0  0  0  0
  -15.6872    5.5535  -19.6983 O   0  0  0  0  0  0  0  0  0  0  0  0
  -14.1777   -4.8083  -23.1321 C   0  0  0  0  0  0  0  0  0  0  0  0
  -14.9118   -5.1777  -22.0440 C   0  0  0  0  0  0  0  0  0  0  0  0
  -16.3494    2.7792  -19.9020 C   0  0  0  0  0  0  0  0  0  0  0  0
  -15.5247   -2.7694  -19.4833 C   0  0  0  0  0  0  0  0  0  0  0  0
  -13.0223   -6.9560  -23.3277 O   0  0  0  0  0  0  0  0  0  0  0  0
  -16.2618    3.2386  -20.8124 O   0  0  0  0  0  0  0  0  0  0  0  0
  -15.9700   -4.1096  -21.2136 O   0  0  0  0  0  0  0  0  0  0  0  0
  -12.5519   -5.4532  -25.0807 C   0  0  0  0  0  0  0  0  0  0  0  0
  -12.7533   -4.2796  -25.8211 C   0  0  0  0  0  0  0  0  0  0  0  0
  -16.3493   -0.3538  -21.2975 C   0  0  0  0  0  0  0  0  0  0  0  0
  -15.6501   -1.6285  -20.7663 C   0  0  0  0  0  0  0  0  0  0  0  0
  -15.0352   -6.2673  -21.5734 O   0  0  0  0  0  0  0  0  0  0  0  0
  -11.6332   -6.4006  -25.5828 C   0  0  0  0  0  0  0  0  0  0  0  0
  -14.9511    0.4595  -19.3109 C   0  0  0  0  0  0  0  0  0  0  0  0
  -15.9378    1.1114  -20.2470 C   0  0  0  0  0  0  0  0  0  0  0  0
  -16.4243    5.5573  -22.0824 N   0  0  0  0  0  0  0  0  0  0  0  0
  -11.1483   -5.0683  -27.5744 C   0  0  0  0  0  0  0  0  0  0  0  0
  -12.1009   -4.0681  -27.0954 C   0  0  0  0  0  0  0  0  0  0  0  0
  1 18  1  0
  1 21  1  0
  2 14  1  0
  2 18  1  0
  3 20  1  0
  3 24  2  0
  4  6  2  0
  5  8  1  0
  5 12  1  0
  5 15  2  3
  6  7  1  0
  6 13  1  0
  6 23  1  0
  8  9  1  0
  9 14  1  0
  9 19  2  0
 10 13  1  0
 10 22  1  0
 11 18  1  0
 15 16  1  0
 15 20  1  0
 16 25  2  0
 17 18  1  0
 21 22  2  3
 24 25  1  0
M  END
>  <ID>  (1) 
conformer_0

$$$$
