
     RDKit          3D

 31 33  0  0  0  0  0  0  0  0999 V2000
  -16.6993    1.5376  -22.0589 P   0  0  0  0  0  4  0  0  0  0  0  0
  -16.3589    3.3250  -20.0355 P   0  0  0  0  0  4  0  0  0  0  0  0
  -11.6829   -7.0392  -25.9234 C   0  0  0  0  0  0  0  0  0  0  0  0
  -12.2271   -7.2788  -24.7585 N   0  0  0  0  0  0  0  0  0  0  0  0
  -13.1454   -4.9883  -24.5865 C   0  0  0  0  0  0  0  0  0  0  0  0
  -15.8989    4.7977  -19.9781 O   0  0  0  0  0  1  0  0  0  0  0  0
  -14.8462   -4.4105  -22.0526 C   0  0  0  0  0  0  0  0  0  0  0  0
  -17.8113    3.2339  -19.6090 O   0  0  0  0  0  0  0  0  0  0  0  0
  -12.6651   -1.9195  -25.4508 O   0  0  0  0  0  0  0  0  0  0  0  0
  -17.6061    0.6740  -21.4529 O   0  0  0  0  0  1  0  0  0  0  0  0
  -14.7964   -2.0721  -22.6367 C   0  0  0  0  0  0  0  0  0  0  0  0
  -12.9527   -6.3803  -24.0651 C   0  0  0  0  0  0  0  0  0  0  0  0
  -14.1413   -4.4066  -23.3487 C   0  0  0  0  0  0  0  0  0  0  0  0
  -15.4645    2.4808  -19.1569 O   0  0  0  0  0  0  0  0  0  0  0  0
  -11.8435   -5.8000  -26.5415 C   0  0  0  0  0  0  0  0  0  0  0  0
  -13.6049   -2.4856  -24.7356 C   0  0  0  0  0  0  0  0  0  0  0  0
  -13.6810   -3.7373  -24.2035 N   0  0  0  0  0  0  0  0  0  0  0  0
  -15.9595   -4.5049  -20.0383 C   0  0  0  0  0  0  0  0  0  0  0  0
  -16.2513   -4.3521  -17.9936 O   0  0  0  0  0  0  0  0  0  0  0  0
  -16.2738    1.2768  -23.5343 O   0  0  0  0  0  0  0  0  0  0  0  0
  -16.1214    2.7808  -21.5337 O   0  0  0  0  0  0  0  0  0  0  0  0
  -14.4641   -0.1188  -24.5079 C   0  0  0  0  0  0  0  0  0  0  0  0
  -13.4587   -6.8961  -22.9066 O   0  0  0  0  0  0  0  0  0  0  0  0
  -14.8045    0.9999  -23.5703 C   0  0  0  0  0  0  0  0  0  0  0  0
  -16.9089   -4.9346  -19.1095 C   0  0  0  0  0  0  0  0  0  0  0  0
  -12.5362   -4.8831  -25.8783 C   0  0  0  0  0  0  0  0  0  0  0  0
  -15.7109   -3.1564  -20.3366 N   0  0  0  0  0  0  0  0  0  0  0  0
  -15.1230   -3.0724  -21.5944 C   0  0  0  0  0  0  0  0  0  0  0  0
  -14.8738    0.0611  -25.8339 O   0  0  0  0  0  0  0  0  0  0  0  0
  -15.4700   -5.2826  -21.1208 C   0  0  0  0  0  0  0  0  0  0  0  0
  -14.4253   -1.4639  -23.9455 C   0  0  0  0  0  0  0  0  0  0  0  0
  1 10  2  0
  1 20  1  0
  1 21  1  0
  2  6  2  0
  2  8  1  0
  2 14  1  0
  2 21  1  0
  3  4  2  0
  3 15  1  0
  4 12  1  0
  5 12  1  0
  5 17  1  0
  5 26  1  0
  7 13  2  0
  7 28  1  0
  7 30  1  0
  9 16  2  0
 11 28  2  0
 11 31  2  0
 12 23  2  0
 13 17  1  0
 15 26  2  0
 16 17  1  0
 16 31  1  0
 18 25  1  0
 18 27  1  0
 18 30  1  0
 19 25  1  0
 20 24  1  0
 22 24  1  0
 22 29  1  0
 22 31  1  0
 27 28  1  0
M  END
>  <ID>  (1) 
conformer_0

$$$$
