
     RDKit          3D

 28 29  0  0  0  0  0  0  0  0999 V2000
  -13.7248   -4.9425  -23.2378 C   0  0  0  0  0  0  0  0  0  0  0  0
  -15.2294   -3.6877  -21.9014 C   0  0  0  0  0  0  0  0  0  0  0  0
  -15.4504    2.3976  -19.1547 O   0  0  0  0  0  1  0  0  0  0  0  0
  -12.1646   -2.0168  -21.6666 C   0  0  0  0  0  0  0  0  0  0  0  0
  -12.6753   -6.5499  -24.4986 C   0  0  0  0  0  0  0  0  0  0  0  0
  -15.7705    0.6722  -26.4774 C   0  0  0  0  0  0  0  0  0  0  0  0
  -15.2929   -0.3384  -25.6288 C   0  0  0  0  0  0  0  0  0  0  0  0
  -15.3655   -1.2330  -27.7817 C   0  0  0  0  0  0  0  0  0  0  0  0
  -15.0748   -1.4980  -26.4032 C   0  0  0  0  0  0  0  0  0  0  0  0
  -17.7721    3.2360  -19.4477 O   0  0  0  0  0  0  0  0  0  0  0  0
  -14.7847   -6.6088  -21.6632 O   0  0  0  0  0  0  0  0  0  0  0  0
  -15.8005    0.1050  -27.8597 C   0  0  0  0  0  0  0  0  0  0  0  0
  -15.6190    1.5989  -22.4353 N   0  0  0  0  0  0  0  0  0  0  0  0
  -16.4235    3.0471  -20.1238 P   0  0  0  0  0  4  0  0  0  0  0  0
  -14.5137   -1.2158  -23.4155 N   0  0  0  0  0  0  0  0  0  0  0  0
  -13.1164   -5.1464  -24.5100 C   0  0  0  0  0  0  0  0  0  0  0  0
  -11.1974   -3.3373  -19.8846 C   0  0  0  0  0  0  0  0  0  0  0  0
  -15.9647    0.7336  -23.4976 C   0  0  0  0  0  0  0  0  0  0  0  0
  -13.9028   -3.5636  -22.5721 C   0  0  0  0  0  0  0  0  0  0  0  0
  -17.5337    1.0933  -21.2423 O   0  0  0  0  0  0  0  0  0  0  0  0
  -15.0803   -0.1372  -24.2214 C   0  0  0  0  0  0  0  0  0  0  0  0
  -13.2717   -7.1324  -23.3381 N   0  0  0  0  0  0  0  0  0  0  0  0
  -15.9220    4.3829  -20.6470 O   0  0  0  0  0  0  0  0  0  0  0  0
  -12.6570   -3.2714  -21.8802 C   0  0  0  0  0  0  0  0  0  0  0  0
  -16.6263    1.9184  -21.5818 C   0  0  0  0  0  0  0  0  0  0  0  0
  -13.9892   -6.1965  -22.6255 C   0  0  0  0  0  0  0  0  0  0  0  0
  -14.2105   -2.5738  -23.5470 C   0  0  0  0  0  0  0  0  0  0  0  0
  -10.8158   -2.2599  -20.6907 C   0  0  0  0  0  0  0  0  0  0  0  0
  1 16  1  0
  1 19  1  0
  1 26  1  0
  2 19  1  0
  3 14  2  0
  4 24  1  0
  4 28  1  0
  5 16  1  0
  5 22  1  0
  6  7  1  0
  6 12  1  0
  7  9  1  0
  7 21  1  0
  8  9  1  0
  8 12  1  0
 10 14  1  0
 11 26  2  0
 13 18  1  0
 13 25  1  0
 14 23  1  0
 14 25  1  0
 15 21  1  0
 15 27  2  3
 17 28  1  0
 18 21  1  0
 19 24  1  0
 19 27  1  0
 20 25  2  0
 22 26  1  0
M  END
>  <ID>  (1) 
conformer_0

$$$$
