
     RDKit          3D

 18 17  0  0  0  0  0  0  0  0999 V2000
  -15.6099   -2.4256  -21.5534 C   0  0  0  0  0  0  0  0  0  0  0  0
  -15.8061    1.1699  -21.3259 C   0  0  0  0  0  0  0  0  0  0  0  0
  -14.5700   -3.9607  -22.9052 C   0  0  0  0  0  0  0  0  0  0  0  0
  -15.2736    2.4470  -19.0482 O   0  0  0  0  0  0  0  0  0  0  0  0
  -13.0757   -3.8300  -25.2963 C   0  0  0  0  0  0  0  0  0  0  0  0
  -17.5897    2.5751  -19.9216 C   0  0  0  0  0  0  0  0  0  0  0  0
  -13.0171   -5.0882  -24.5086 C   0  0  0  0  0  0  0  0  0  0  0  0
  -15.2748   -3.5498  -22.1505 C   0  0  0  0  0  0  0  0  0  0  0  0
  -16.1834   -3.2979  -20.7830 N   0  0  0  0  0  0  0  0  0  0  0  0
  -16.1121   -0.0309  -20.5361 C   0  0  0  0  0  0  0  0  0  0  0  0
  -14.0053   -6.2939  -22.6312 O   0  0  0  0  0  0  0  0  0  0  0  0
  -11.2539   -5.9590  -25.9984 C   0  0  0  0  0  0  0  0  0  0  0  0
  -15.5222   -1.0650  -21.5983 C   0  0  0  0  0  0  0  0  0  0  0  0
  -11.6506   -6.9564  -23.9931 O   0  0  0  0  0  0  0  0  0  0  0  0
  -15.8552    3.9388  -20.9643 C   0  0  0  0  0  0  0  0  0  0  0  0
  -12.0145   -6.0676  -24.8414 C   0  0  0  0  0  0  0  0  0  0  0  0
  -13.8650   -5.1486  -23.3184 C   0  0  0  0  0  0  0  0  0  0  0  0
  -16.1457    2.6094  -20.2536 C   0  0  0  0  0  0  0  0  0  0  0  0
  1  8  1  0
  1  9  2  0
  1 13  1  0
  2 10  1  0
  2 18  1  0
  3  8  1  0
  3 17  2  3
  4 18  1  0
  5  7  1  0
  6 18  1  0
  7 16  1  0
  7 17  1  0
 10 13  1  0
 11 17  1  0
 12 16  1  0
 14 16  2  0
 15 18  1  0
M  END
>  <ID>  (1) 
conformer_0

$$$$
