
     RDKit          3D

 20 20  0  0  0  0  0  0  0  0999 V2000
  -13.9588   -3.6862  -23.8093 C   0  0  0  0  0  0  0  0  0  0  0  0
  -15.4293    1.7153  -21.9224 O   0  0  0  0  0  0  0  0  0  0  0  0
  -13.1812   -4.1076  -24.8133 N   0  0  0  0  0  0  0  0  0  0  0  0
  -15.5347   -0.4056  -24.9078 O   0  0  0  0  0  0  0  0  0  0  0  0
  -17.5292    1.2072  -20.8147 O   0  0  0  0  0  1  0  0  0  0  0  0
  -14.7753   -3.6783  -21.5991 O   0  0  0  0  0  0  0  0  0  0  0  0
  -15.1508   -6.3073  -21.4408 O   0  0  0  0  0  0  0  0  0  0  0  0
  -11.7954   -7.3331  -24.2809 N   0  0  0  0  0  0  0  0  0  0  0  0
  -14.3169   -4.4158  -22.6494 C   0  0  0  0  0  0  0  0  0  0  0  0
  -14.3307   -5.8389  -22.3623 C   0  0  0  0  0  0  0  0  0  0  0  0
  -17.0327    3.5979  -21.1039 O   0  0  0  0  0  0  0  0  0  0  0  0
  -15.8897    0.7412  -22.8000 C   0  0  0  0  0  0  0  0  0  0  0  0
  -15.6403    2.3239  -19.4748 O   0  0  0  0  0  0  0  0  0  0  0  0
  -12.7747   -5.3265  -24.9144 C   0  0  0  0  0  0  0  0  0  0  0  0
  -12.7311   -6.4084  -24.0404 C   0  0  0  0  0  0  0  0  0  0  0  0
  -13.5053   -6.7261  -22.9496 N   0  0  0  0  0  0  0  0  0  0  0  0
  -14.3334   -2.3847  -23.9578 N   0  0  0  0  0  0  0  0  0  0  0  0
  -14.8743   -1.5264  -22.9494 C   0  0  0  0  0  0  0  0  0  0  0  0
  -14.9900   -0.1241  -23.5917 C   0  0  0  0  0  0  0  0  0  0  0  0
  -16.4535    2.2497  -20.7844 P   0  0  0  0  0  4  0  0  0  0  0  0
  1  3  1  0
  1  9  1  0
  1 17  2  3
  2 12  1  0
  2 20  1  0
  3 14  2  0
  4 19  1  0
  5 20  2  0
  6  9  1  0
  7 10  2  0
  8 15  2  0
  9 10  1  0
 10 16  1  0
 11 20  1  0
 12 19  1  0
 13 20  1  0
 14 15  1  0
 15 16  1  0
 17 18  1  0
 18 19  1  0
M  END
>  <ID>  (1) 
conformer_0

$$$$
