
     RDKit          3D

 21 22  0  0  0  0  0  0  0  0999 V2000
  -12.5250   -6.3321  -24.8402 C   0  0  0  0  0  0  0  0  0  0  0  0
  -15.2441   -0.9422  -22.7518 N   0  0  0  0  0  0  0  0  0  0  0  0
  -15.8865    4.4594  -20.0242 O   0  0  0  0  0  1  0  0  0  0  0  0
  -13.1569   -6.5415  -23.5820 C   0  0  0  0  0  0  0  0  0  0  0  0
  -15.6932   -1.5623  -21.4953 O   0  0  0  0  0  0  0  0  0  0  0  0
  -14.6998   -3.0438  -22.9921 C   0  0  0  0  0  0  0  0  0  0  0  0
  -13.4168   -4.0747  -24.9164 C   0  0  0  0  0  0  0  0  0  0  0  0
  -15.3042    2.3162  -19.0096 O   0  0  0  0  0  0  0  0  0  0  0  0
  -15.9006    2.3742  -21.3831 O   0  0  0  0  0  0  0  0  0  0  0  0
  -13.9428   -5.5348  -23.0338 C   0  0  0  0  0  0  0  0  0  0  0  0
  -11.7785   -7.2514  -25.4500 O   0  0  0  0  0  0  0  0  0  0  0  0
  -14.7045   -1.8390  -23.6133 C   0  0  0  0  0  0  0  0  0  0  0  0
  -16.2121    2.9610  -20.0212 P   0  0  0  0  0  4  0  0  0  0  0  0
  -12.7034   -5.0595  -25.4845 C   0  0  0  0  0  0  0  0  0  0  0  0
  -11.2452   -6.8497  -26.7266 C   0  0  0  0  0  0  0  0  0  0  0  0
  -16.2198    1.1396  -21.9312 C   0  0  0  0  0  0  0  0  0  0  0  0
  -14.0361   -4.2209  -23.6504 C   0  0  0  0  0  0  0  0  0  0  0  0
  -15.2732    0.4949  -23.0067 C   0  0  0  0  0  0  0  0  0  0  0  0
  -15.3212   -2.9424  -21.7203 O   0  0  0  0  0  0  0  0  0  0  0  0
  -17.6571    2.7587  -19.7477 O   0  0  0  0  0  0  0  0  0  0  0  0
  -14.6683   -5.8800  -21.8802 O   0  0  0  0  0  0  0  0  0  0  0  0
  1  4  2  0
  1 11  1  0
  1 14  1  0
  2  5  1  0
  2 12  1  0
  2 18  1  0
  3 13  2  0
  4 10  1  0
  5 19  1  0
  6 12  1  0
  6 17  2  3
  6 19  1  0
  7 14  2  0
  7 17  1  0
  8 13  1  0
  9 13  1  0
  9 16  1  0
 10 17  1  0
 10 21  1  0
 11 15  1  0
 13 20  1  0
 16 18  1  0
M  END
>  <ID>  (1) 
conformer_0

$$$$
