
     RDKit          3D

 25 26  0  0  0  0  0  0  0  0999 V2000
  -11.6121   -6.8826  -24.7701 N   0  0  0  0  0  0  0  0  0  0  0  0
  -15.3404   -2.7971  -22.5900 C   0  0  0  0  0  0  0  0  0  0  0  0
  -15.1109   -0.8787  -24.3573 C   0  0  0  0  0  0  0  0  0  0  0  0
  -14.7061   -6.9149  -21.4322 O   0  0  0  0  0  0  0  0  0  0  0  0
  -16.1109    0.1319  -23.8824 C   0  0  0  0  0  0  0  0  0  0  0  0
  -15.1434    2.4557  -18.6907 O   0  0  0  0  0  1  0  0  0  0  0  0
  -17.4251    3.2740  -19.2217 O   0  0  0  0  0  1  0  0  0  0  0  0
  -12.5644   -6.2350  -24.1255 C   0  0  0  0  0  0  0  0  0  0  0  0
  -13.8946   -0.0365  -24.6417 C   0  0  0  0  0  0  0  0  0  0  0  0
  -16.2149    2.7538  -19.6229 P   0  0  0  0  0  0  0  0  0  0  0  0
  -12.8851   -4.9661  -24.4375 N   0  0  0  0  0  0  0  0  0  0  0  0
  -13.1922   -6.9013  -23.1051 N   0  0  0  0  0  0  0  0  0  0  0  0
  -14.1228    0.7405  -25.8079 O   0  0  0  0  0  0  0  0  0  0  0  0
  -16.7803    1.6382  -21.9095 P   0  0  0  0  0  4  0  0  0  0  0  0
  -15.9071    2.4155  -20.8633 O   0  0  0  0  0  0  0  0  0  0  0  0
  -15.3692   -4.0279  -22.0802 N   0  0  0  0  0  0  0  0  0  0  0  0
  -15.6162    0.8168  -22.6830 O   0  0  0  0  0  0  0  0  0  0  0  0
  -14.7584   -1.9302  -23.3149 C   0  0  0  0  0  0  0  0  0  0  0  0
  -17.7442    0.6394  -21.3574 O   0  0  0  0  0  1  0  0  0  0  0  0
  -14.4996   -4.9394  -22.6587 C   0  0  0  0  0  0  0  0  0  0  0  0
  -14.1600   -6.2974  -22.3442 C   0  0  0  0  0  0  0  0  0  0  0  0
  -14.2680   -3.0422  -23.7539 N   0  0  0  0  0  0  0  0  0  0  0  0
  -17.3966    2.6963  -22.8072 O   0  0  0  0  0  0  0  0  0  0  0  0
  -12.8215    0.0206  -23.9191 O   0  0  0  0  0  0  0  0  0  0  0  0
  -13.8230   -4.2910  -23.7159 C   0  0  0  0  0  0  0  0  0  0  0  0
  1  8  2  0
  2 16  2  0
  2 18  1  0
  3  5  1  0
  3  9  1  0
  3 18  1  0
  4 21  2  0
  5 17  1  0
  6 10  1  0
  7 10  1  0
  8 11  1  0
  8 12  1  0
  9 13  2  0
  9 24  1  0
 10 15  1  0
 11 25  2  0
 12 21  1  0
 14 15  1  0
 14 17  1  0
 14 19  2  0
 14 23  1  0
 16 20  1  0
 18 22  1  0
 20 21  1  0
 20 25  1  0
 22 25  1  0
M  END
>  <ID>  (1) 
conformer_0

$$$$
