
     RDKit          3D

 31 32  0  0  0  0  0  0  0  0999 V2000
  -14.1757   -3.8701  -23.4762 C   0  0  0  0  0  0  0  0  0  0  0  0
  -15.5920   -4.1984  -21.3704 C   0  0  0  0  0  0  0  0  0  0  0  0
  -13.6222   -6.9237  -22.7925 N   0  0  0  0  0  0  0  0  0  0  0  0
  -15.6053   -0.5224  -26.6724 O   0  0  0  0  0  0  0  0  0  0  0  0
  -17.5119    1.0545  -21.6726 O   0  0  0  0  0  0  0  0  0  0  0  0
  -12.4354   -6.9731  -24.6544 N   0  0  0  0  0  0  0  0  0  0  0  0
  -16.3081   -3.4798  -20.4086 O   0  0  0  0  0  0  0  0  0  0  0  0
  -13.3714   -4.8155  -24.2560 C   0  0  0  0  0  0  0  0  0  0  0  0
  -15.6250    0.5437  -23.8579 C   0  0  0  0  0  0  0  0  0  0  0  0
  -16.3101   -5.4711  -18.9095 O   0  0  0  0  0  0  0  0  0  0  0  0
  -15.4403    2.5174  -19.1924 O   0  0  0  0  0  0  0  0  0  0  0  0
  -12.7455   -4.4711  -25.3650 N   0  0  0  0  0  0  0  0  0  0  0  0
  -14.3279    0.0968  -24.5593 C   0  0  0  0  0  0  0  0  0  0  0  0
  -16.4156    2.9713  -19.9266 C   0  0  0  0  0  0  0  0  0  0  0  0
  -15.0455   -3.3469  -22.3424 N   0  0  0  0  0  0  0  0  0  0  0  0
  -16.6165   -4.2984  -19.4642 C   0  0  0  0  0  0  0  0  0  0  0  0
  -12.0594   -5.2043  -26.1645 C   0  0  0  0  0  0  0  0  0  0  0  0
  -14.9692   -1.9037  -22.8706 C   0  0  0  0  0  0  0  0  0  0  0  0
  -16.1907    2.9987  -21.3870 C   0  0  0  0  0  0  0  0  0  0  0  0
  -13.1699   -6.2172  -23.8784 C   0  0  0  0  0  0  0  0  0  0  0  0
  -14.4760   -0.6542  -25.8600 C   0  0  0  0  0  0  0  0  0  0  0  0
  -11.1370   -7.4161  -26.4823 N   0  0  0  0  0  0  0  0  0  0  0  0
  -15.3947    1.0517  -22.4972 O   0  0  0  0  0  0  0  0  0  0  0  0
  -16.4609    1.7131  -21.9462 C   0  0  0  0  0  0  0  0  0  0  0  0
  -15.6876   -5.4075  -21.5576 O   0  0  0  0  0  0  0  0  0  0  0  0
  -14.3090   -2.1997  -25.5360 C   0  0  0  0  0  0  0  0  0  0  0  0
  -14.1517   -2.4587  -24.0626 C   0  0  0  0  0  0  0  0  0  0  0  0
  -13.0144    0.0220  -23.9980 O   0  0  0  0  0  0  0  0  0  0  0  0
  -11.8663   -6.5666  -25.7905 C   0  0  0  0  0  0  0  0  0  0  0  0
  -14.3350   -2.8051  -26.8312 O   0  0  0  0  0  0  0  0  0  0  0  0
  -17.5519    3.1836  -19.3894 O   0  0  0  0  0  0  0  0  0  0  0  0
  1  8  2  3
  1 15  1  0
  1 27  1  0
  2  7  1  0
  2 15  1  0
  2 25  2  0
  3 20  2  0
  4 21  1  0
  5 24  2  0
  6 20  1  0
  6 29  1  0
  7 16  1  0
  8 12  1  0
  8 20  1  0
  9 13  1  0
  9 23  1  0
 10 16  1  0
 11 14  2  0
 12 17  2  0
 13 21  1  0
 13 28  1  0
 14 19  1  0
 14 31  1  0
 15 18  1  0
 17 29  1  0
 18 27  1  0
 19 24  1  0
 21 26  1  0
 22 29  2  0
 23 24  1  0
 26 27  1  0
 26 30  1  0
M  END
>  <ID>  (1) 
conformer_0

$$$$
