
     RDKit          3D

 32 33  0  0  0  0  0  0  0  0999 V2000
  -14.6146   -1.1760  -25.5640 C   0  0  0  0  0  0  0  0  0  0  0  0
  -12.0529   -5.3029  -27.6723 C   0  0  0  0  0  0  0  0  0  0  0  0
  -15.4637    0.9049  -22.8724 O   0  0  0  0  0  0  0  0  0  0  0  0
  -16.9428    2.7601  -23.2520 O   0  0  0  0  0  1  0  0  0  0  0  0
  -14.1834   -2.9116  -22.9864 N   0  0  0  0  0  0  0  0  0  0  0  0
  -15.4583   -5.6647  -21.7299 O   0  0  0  0  0  0  0  0  0  0  0  0
  -17.7068    3.3394  -19.1706 O   0  0  0  0  0  1  0  0  0  0  0  0
  -11.5015   -6.5654  -27.3679 C   0  0  0  0  0  0  0  0  0  0  0  0
  -15.3394    2.4376  -19.0554 O   0  0  0  0  0  0  0  0  0  0  0  0
  -13.3521   -0.3949  -25.8383 C   0  0  0  0  0  0  0  0  0  0  0  0
  -14.3691   -1.4693  -23.1016 C   0  0  0  0  0  0  0  0  0  0  0  0
  -15.9965    0.1539  -24.0699 C   0  0  0  0  0  0  0  0  0  0  0  0
  -12.7907   -4.6316  -26.7478 C   0  0  0  0  0  0  0  0  0  0  0  0
  -14.4322   -6.2427  -22.1837 C   0  0  0  0  0  0  0  0  0  0  0  0
  -16.8532    1.8315  -20.9818 O   0  0  0  0  0  0  0  0  0  0  0  0
  -11.6478   -7.0695  -26.0940 C   0  0  0  0  0  0  0  0  0  0  0  0
  -16.4858    1.8079  -22.3890 P   0  0  0  0  0  4  0  0  0  0  0  0
  -15.1555   -1.9078  -26.5545 O   0  0  0  0  0  0  0  0  0  0  0  0
  -16.4387    3.0043  -19.9696 P   0  0  0  0  0  4  0  0  0  0  0  0
  -13.6867   -5.8602  -23.4417 C   0  0  0  0  0  0  0  0  0  0  0  0
  -12.1063   -1.1762  -25.4451 O   0  0  0  0  0  0  0  0  0  0  0  0
  -15.9329    4.1858  -20.7241 O   0  0  0  0  0  0  0  0  0  0  0  0
  -13.9804   -7.3290  -21.5800 O   0  0  0  0  0  0  0  0  0  0  0  0
  -10.8782   -7.2989  -28.2569 O   0  0  0  0  0  0  0  0  0  0  0  0
  -12.8322   -6.8443  -23.9491 N   0  0  0  0  0  0  0  0  0  0  0  0
  -13.0235   -5.1589  -25.5132 C   0  0  0  0  0  0  0  0  0  0  0  0
  -15.2199   -1.1418  -24.2589 C   0  0  0  0  0  0  0  0  0  0  0  0
  -12.4494   -6.4296  -25.2195 C   0  0  0  0  0  0  0  0  0  0  0  0
  -13.7901   -4.8161  -24.3724 C   0  0  0  0  0  0  0  0  0  0  0  0
  -13.3726   -3.4393  -21.9392 C   0  0  0  0  0  0  0  0  0  0  0  0
  -14.5995   -3.6440  -24.1823 C   0  0  0  0  0  0  0  0  0  0  0  0
  -13.0826   -2.3120  -20.9195 C   0  0  0  0  0  0  0  0  0  0  0  0
  1 10  1  0
  1 18  1  0
  1 27  1  0
  2  8  2  0
  2 13  1  0
  3 12  1  0
  3 17  1  0
  4 17  2  0
  5 11  1  0
  5 30  1  0
  5 31  1  0
  6 14  2  0
  7 19  2  0
  8 16  1  0
  8 24  1  0
  9 19  1  0
 10 21  1  0
 11 27  1  0
 12 27  1  0
 13 26  2  0
 14 20  1  0
 14 23  1  0
 15 17  1  0
 15 19  1  0
 16 28  2  0
 19 22  1  0
 20 25  1  0
 20 29  2  0
 25 28  1  0
 26 28  1  0
 26 29  1  0
 29 31  1  0
 30 32  1  0
M  END
>  <ID>  (1) 
conformer_0

$$$$
