
     RDKit          3D

 24 24  0  0  0  0  0  0  0  0999 V2000
  -15.8085    4.3837  -20.1606 O   0  0  0  0  0  1  0  0  0  0  0  0
  -14.8716    0.5223  -23.3115 C   0  0  0  0  0  0  0  0  0  0  0  0
  -17.7848    0.4102  -21.6334 O   0  0  0  0  0  1  0  0  0  0  0  0
  -15.0908    2.4443  -18.7267 O   0  0  0  0  0  0  0  0  0  0  0  0
  -13.5469   -4.0621  -24.2230 N   0  0  0  0  0  0  0  0  0  0  0  0
  -16.1701    1.1092  -23.4459 O   0  0  0  0  0  0  0  0  0  0  0  0
  -12.3723   -7.5677  -23.7913 N   0  0  0  0  0  0  0  0  0  0  0  0
  -12.4991   -6.3840  -24.4603 C   0  0  0  0  0  0  0  0  0  0  0  0
  -14.4918   -3.5584  -23.1997 N   0  0  0  0  0  0  0  0  0  0  0  0
  -12.8082   -1.1902  -24.8190 O   0  0  0  0  0  0  0  0  0  0  0  0
  -15.7409    1.9715  -21.0754 O   0  0  0  0  0  0  0  0  0  0  0  0
  -17.4926    2.7632  -19.4115 O   0  0  0  0  0  0  0  0  0  0  0  0
  -14.2878   -1.3475  -24.8073 C   0  0  0  0  0  0  0  0  0  0  0  0
  -15.1000   -2.1683  -22.7046 C   0  0  0  0  0  0  0  0  0  0  0  0
  -13.3357   -5.3387  -23.8928 C   0  0  0  0  0  0  0  0  0  0  0  0
  -17.7610    2.8362  -22.3055 O   0  0  0  0  0  0  0  0  0  0  0  0
  -14.1261   -5.7316  -22.7474 N   0  0  0  0  0  0  0  0  0  0  0  0
  -15.7822   -4.5913  -21.5108 O   0  0  0  0  0  0  0  0  0  0  0  0
  -14.2240   -6.9643  -21.9981 C   0  0  0  0  0  0  0  0  0  0  0  0
  -14.8542   -4.6088  -22.4153 C   0  0  0  0  0  0  0  0  0  0  0  0
  -16.0567    2.9453  -19.8357 P   0  0  0  0  0  4  0  0  0  0  0  0
  -11.7741   -6.2810  -25.6013 C   0  0  0  0  0  0  0  0  0  0  0  0
  -14.7884   -0.9829  -23.4113 C   0  0  0  0  0  0  0  0  0  0  0  0
  -16.9645    1.5671  -22.0520 P   0  0  0  0  0  4  0  0  0  0  0  0
  1 21  2  0
  2  6  1  0
  2 23  1  0
  3 24  2  0
  4 21  1  0
  5  9  1  0
  5 15  1  0
  6 24  1  0
  7  8  1  0
  8 15  2  3
  8 22  1  0
  9 14  1  0
  9 20  1  0
 10 13  1  0
 11 21  1  0
 11 24  1  0
 12 21  1  0
 13 23  1  0
 14 23  1  0
 15 17  1  0
 16 24  1  0
 17 19  1  0
 17 20  1  0
 18 20  2  0
M  END
>  <ID>  (1) 
conformer_0

$$$$
