
     RDKit          3D

 32 32  0  0  0  0  0  0  0  0999 V2000
  -13.9804   -7.3942  -22.4278 O   0  0  0  0  0  0  0  0  0  0  0  0
  -16.2393    3.2148  -19.8190 P   0  0  0  0  0  4  0  0  0  0  0  0
  -14.2147   -0.5419  -24.9662 C   0  0  0  0  0  0  0  0  0  0  0  0
  -12.1765   -6.0365  -25.0192 C   0  0  0  0  0  0  0  0  0  0  0  0
  -15.8445   -5.4060  -20.1702 N   0  0  0  0  0  0  0  0  0  0  0  0
  -14.5855   -1.6114  -23.9208 C   0  0  0  0  0  0  0  0  0  0  0  0
  -16.1483    3.2777  -22.5007 O   0  0  0  0  0  0  0  0  0  0  0  0
  -15.8142    2.5926  -21.2950 O   0  0  0  0  0  0  0  0  0  0  0  0
  -15.4831   -5.3746  -21.2080 C   0  0  0  0  0  0  0  0  0  0  0  0
  -14.1134   -1.1904  -22.6455 O   0  0  0  0  0  0  0  0  0  0  0  0
  -15.8745   -2.9844  -20.8437 C   0  0  0  0  0  0  0  0  0  0  0  0
  -12.8189   -0.6583  -25.2443 O   0  0  0  0  0  0  0  0  0  0  0  0
  -14.5463    0.7585  -24.2031 C   0  0  0  0  0  0  0  0  0  0  0  0
  -14.0349   -2.8577  -24.4461 C   0  0  0  0  0  0  0  0  0  0  0  0
  -15.0160   -4.5558  -22.2455 C   0  0  0  0  0  0  0  0  0  0  0  0
  -11.2829   -6.4757  -25.8239 O   0  0  0  0  0  0  0  0  0  0  0  0
  -16.1907   -4.6616  -18.7369 C   0  0  0  0  0  0  0  0  0  0  0  0
  -15.2988    2.4717  -18.8564 O   0  0  0  0  0  1  0  0  0  0  0  0
  -17.5002    0.7548  -21.6194 O   0  0  0  0  0  1  0  0  0  0  0  0
  -12.6305   -4.7272  -25.1472 C   0  0  0  0  0  0  0  0  0  0  0  0
  -15.5935   -3.5880  -18.2761 F   0  0  0  0  0  0  0  0  0  0  0  0
  -13.6121   -6.4650  -23.1843 C   0  0  0  0  0  0  0  0  0  0  0  0
  -13.5769   -4.2482  -24.2570 C   0  0  0  0  0  0  0  0  0  0  0  0
  -15.5554    0.9902  -23.3247 O   0  0  0  0  0  0  0  0  0  0  0  0
  -17.8192    1.9490  -23.7004 O   0  0  0  0  0  0  0  0  0  0  0  0
  -15.8544    4.6810  -19.8683 O   0  0  0  0  0  0  0  0  0  0  0  0
  -16.8477    1.6604  -22.5597 P   0  0  0  0  0  4  0  0  0  0  0  0
  -16.9494   -5.4195  -17.9903 O   0  0  0  0  0  0  0  0  0  0  0  0
  -17.6589    3.0399  -19.4951 O   0  0  0  0  0  0  0  0  0  0  0  0
  -14.0627   -5.0628  -23.2686 N   0  0  0  0  0  0  0  0  0  0  0  0
  -15.4250   -3.3096  -22.0858 N   0  0  0  0  0  0  0  0  0  0  0  0
  -12.6633   -6.8645  -24.0445 N   0  0  0  0  0  0  0  0  0  0  0  0
  1 22  2  0
  2  8  1  0
  2 18  2  0
  2 26  1  0
  2 29  1  0
  3  6  1  0
  3 12  1  0
  3 13  1  0
  4 16  2  0
  4 20  1  0
  4 32  1  0
  5  9  2  3
  5 17  1  0
  6 10  1  0
  6 14  1  0
  7  8  1  0
  7 27  1  0
  9 15  1  0
 11 31  1  0
 13 24  1  0
 14 23  1  0
 15 30  1  0
 15 31  2  3
 17 21  1  0
 17 28  2  0
 19 27  2  0
 20 23  2  0
 22 30  1  0
 22 32  1  0
 23 30  1  0
 24 27  1  0
 25 27  1  0
M  END
>  <ID>  (1) 
conformer_0

$$$$
