
     RDKit          3D

 18 18  0  0  0  0  0  0  0  0999 V2000
  -12.8854   -4.2665  -25.4260 C   0  0  0  0  0  0  0  0  0  0  0  0
  -13.4407   -4.9130  -24.2401 C   0  0  0  0  0  0  0  0  0  0  0  0
  -15.8473    3.4075  -21.4301 O   0  0  0  0  0  1  0  0  0  0  0  0
  -15.4297   -0.5070  -23.1951 C   0  0  0  0  0  0  0  0  0  0  0  0
  -16.6041    1.0406  -21.2981 O   0  0  0  0  0  0  0  0  0  0  0  0
  -14.4221   -6.1474  -21.9378 C   0  0  0  0  0  0  0  0  0  0  0  0
  -13.1051   -6.2509  -23.8697 C   0  0  0  0  0  0  0  0  0  0  0  0
  -14.2925   -4.1811  -23.3859 C   0  0  0  0  0  0  0  0  0  0  0  0
  -17.7656    2.9691  -19.8650 O   0  0  0  0  0  0  0  0  0  0  0  0
  -15.6811   -4.2507  -21.4563 O   0  0  0  0  0  0  0  0  0  0  0  0
  -12.3048   -6.9589  -24.6795 N   0  0  0  0  0  0  0  0  0  0  0  0
  -13.5856   -6.8207  -22.7472 N   0  0  0  0  0  0  0  0  0  0  0  0
  -15.6426    0.5948  -22.3009 C   0  0  0  0  0  0  0  0  0  0  0  0
  -14.6576   -2.7656  -23.6801 C   0  0  0  0  0  0  0  0  0  0  0  0
  -16.4162    2.4757  -20.4366 P   0  0  0  0  0  4  0  0  0  0  0  0
  -14.8613   -1.7646  -22.6067 C   0  0  0  0  0  0  0  0  0  0  0  0
  -14.8014   -4.8558  -22.2484 C   0  0  0  0  0  0  0  0  0  0  0  0
  -15.4183    2.2716  -19.2819 O   0  0  0  0  0  0  0  0  0  0  0  0
  1  2  1  0
  2  7  1  0
  2  8  2  0
  3 15  2  0
  4 13  1  0
  4 16  1  0
  5 13  1  0
  5 15  1  0
  6 12  1  0
  6 17  2  0
  7 11  2  0
  7 12  1  0
  8 14  1  0
  8 17  1  0
  9 15  1  0
 10 17  1  0
 14 16  1  0
 15 18  1  0
M  END
>  <ID>  (1) 
conformer_0

$$$$
