
     RDKit          3D

 25 25  0  0  0  0  0  0  0  0999 V2000
  -15.4435   -2.3465  -26.9355 C   0  0  0  0  0  0  0  0  0  0  0  0
  -16.4243    1.4479  -22.1150 O   0  0  0  0  0  0  0  0  0  0  0  0
  -12.2117   -4.0682  -19.0512 O   0  0  0  0  0  0  0  0  0  0  0  0
  -14.3720   -6.5718  -21.9492 O   0  0  0  0  0  0  0  0  0  0  0  0
  -14.9092   -4.4828  -23.8526 N   0  0  0  0  0  0  0  0  0  0  0  0
  -15.9106   -1.0897  -27.1308 C   0  0  0  0  0  0  0  0  0  0  0  0
  -15.3460    2.3802  -19.0877 O   0  0  0  0  0  1  0  0  0  0  0  0
  -15.9951    4.5864  -19.9100 O   0  0  0  0  0  0  0  0  0  0  0  0
  -15.2925   -0.0312  -23.8049 C   0  0  0  0  0  0  0  0  0  0  0  0
  -16.0024   -5.1326  -21.3826 O   0  0  0  0  0  0  0  0  0  0  0  0
  -15.3098   -2.3323  -25.2627 C   0  0  0  0  0  0  0  0  0  0  0  0
  -14.9313   -5.4437  -21.7915 C   0  0  0  0  0  0  0  0  0  0  0  0
  -13.8000   -2.7002  -22.7481 C   0  0  0  0  0  0  0  0  0  0  0  0
  -14.9619   -3.7001  -24.8654 N   0  0  0  0  0  0  0  0  0  0  0  0
  -17.6548    2.7657  -19.7983 O   0  0  0  0  0  0  0  0  0  0  0  0
  -12.3378   -3.4343  -20.1769 C   0  0  0  0  0  0  0  0  0  0  0  0
  -16.0776   -0.2127  -26.0318 C   0  0  0  0  0  0  0  0  0  0  0  0
  -15.9366    2.6828  -21.5033 O   0  0  0  0  0  0  0  0  0  0  0  0
  -15.5612   -1.0019  -24.8390 C   0  0  0  0  0  0  0  0  0  0  0  0
  -11.5436   -2.4063  -20.3734 C   0  0  0  0  0  0  0  0  0  0  0  0
  -13.3920   -1.6310  -22.3749 O   0  0  0  0  0  0  0  0  0  0  0  0
  -16.2800    1.1167  -23.6543 C   0  0  0  0  0  0  0  0  0  0  0  0
  -14.0341   -4.0137  -22.5364 C   0  0  0  0  0  0  0  0  0  0  0  0
  -16.2495    3.1009  -20.0827 P   0  0  0  0  0  4  0  0  0  0  0  0
  -13.4322   -3.9751  -21.1147 N   0  0  0  0  0  0  0  0  0  0  0  0
  1  6  1  0
  1 11  1  0
  2 18  1  0
  2 22  1  0
  3 16  2  0
  4 12  2  0
  5 14  1  0
  5 23  1  0
  6 17  1  0
  7 24  2  0
  8 24  1  0
  9 19  1  0
  9 22  1  0
 10 12  1  0
 11 14  1  0
 11 19  1  0
 12 23  1  0
 13 21  2  0
 13 23  1  0
 15 24  1  0
 16 20  1  0
 16 25  1  0
 17 19  1  0
 18 24  1  0
 23 25  1  0
M  END
>  <ID>  (1) 
conformer_0

$$$$
