
     RDKit          3D

 23 24  0  0  0  0  0  0  0  0999 V2000
  -11.5583   -6.7472  -25.3937 N   0  0  0  0  0  0  0  0  0  0  0  0
  -13.4071   -0.2751  -23.0069 O   0  0  0  0  0  0  0  0  0  0  0  0
  -16.6158   -0.1257  -22.5252 O   0  0  0  0  0  0  0  0  0  0  0  0
  -14.2564   -7.2783  -21.7374 O   0  0  0  0  0  0  0  0  0  0  0  0
  -14.0534   -2.9993  -24.2497 N   0  0  0  0  0  0  0  0  0  0  0  0
  -12.9216   -6.9869  -23.5810 N   0  0  0  0  0  0  0  0  0  0  0  0
  -16.2793    2.9641  -19.8659 P   0  0  0  0  0  4  0  0  0  0  0  0
  -13.8093   -6.5106  -22.6970 C   0  0  0  0  0  0  0  0  0  0  0  0
  -15.4195   -2.2995  -22.5617 C   0  0  0  0  0  0  0  0  0  0  0  0
  -13.7537   -4.3397  -23.9172 C   0  0  0  0  0  0  0  0  0  0  0  0
  -16.2310    1.9486  -21.0234 O   0  0  0  0  0  0  0  0  0  0  0  0
  -15.2541    2.3899  -18.8896 O   0  0  0  0  0  1  0  0  0  0  0  0
  -15.4994   -3.3914  -21.9644 C   0  0  0  0  0  0  0  0  0  0  0  0
  -15.1000   -4.6023  -21.9341 N   0  0  0  0  0  0  0  0  0  0  0  0
  -15.8778    4.3171  -20.2994 O   0  0  0  0  0  0  0  0  0  0  0  0
  -15.6164    0.6256  -23.0803 C   0  0  0  0  0  0  0  0  0  0  0  0
  -16.1856    1.9891  -22.3782 C   0  0  0  0  0  0  0  0  0  0  0  0
  -12.4586   -6.2026  -24.5999 C   0  0  0  0  0  0  0  0  0  0  0  0
  -14.5953   -0.3612  -23.8225 C   0  0  0  0  0  0  0  0  0  0  0  0
  -17.6713    2.9742  -19.3281 O   0  0  0  0  0  0  0  0  0  0  0  0
  -14.2608   -5.1277  -22.8268 C   0  0  0  0  0  0  0  0  0  0  0  0
  -14.9621   -1.8741  -23.9546 C   0  0  0  0  0  0  0  0  0  0  0  0
  -12.8827   -4.9340  -24.7657 N   0  0  0  0  0  0  0  0  0  0  0  0
  1 18  2  0
  2 19  1  0
  3 16  1  0
  4  8  2  0
  5 10  1  0
  5 22  1  0
  6  8  1  0
  6 18  1  0
  7 11  1  0
  7 12  2  0
  7 15  1  0
  7 20  1  0
  8 21  1  0
  9 13  1  0
  9 22  1  0
 10 21  2  0
 10 23  1  0
 11 17  1  0
 13 14  2  0
 14 21  1  0
 16 17  1  0
 16 19  1  0
 18 23  1  0
 19 22  1  0
M  END
>  <ID>  (1) 
conformer_0

$$$$
