
     RDKit          3D

 29 31  0  0  0  0  0  0  0  0999 V2000
  -14.0588   -2.5240  -24.3080 N   0  0  0  0  0  0  0  0  0  0  0  0
  -15.3209   -4.7447  -21.1943 C   0  0  0  0  0  0  0  0  0  0  0  0
  -11.9257   -6.8558  -25.4271 N   0  0  0  0  0  0  0  0  0  0  0  0
  -15.2435    2.5542  -18.8754 O   0  0  0  0  0  1  0  0  0  0  0  0
  -13.9725   -5.7925  -22.7256 C   0  0  0  0  0  0  0  0  0  0  0  0
  -13.1606   -6.5720  -23.5022 N   0  0  0  0  0  0  0  0  0  0  0  0
  -15.7333    1.9666  -21.1259 O   0  0  0  0  0  0  0  0  0  0  0  0
  -13.9082   -0.3633  -24.9330 C   0  0  0  0  0  0  0  0  0  0  0  0
  -14.1063   -4.4407  -23.0504 C   0  0  0  0  0  0  0  0  0  0  0  0
  -14.7343   -2.2983  -22.1365 C   0  0  0  0  0  0  0  0  0  0  0  0
  -14.7460   -5.9691  -21.5438 N   0  0  0  0  0  0  0  0  0  0  0  0
  -13.6498   -3.8592  -24.2174 C   0  0  0  0  0  0  0  0  0  0  0  0
  -17.3181    2.5431  -22.9494 O   0  0  0  0  0  1  0  0  0  0  0  0
  -15.0983    0.4233  -24.6464 C   0  0  0  0  0  0  0  0  0  0  0  0
  -14.2533   -1.8101  -25.6242 C   0  0  0  0  0  0  0  0  0  0  0  0
  -15.3079   -1.5215  -26.6574 C   0  0  0  0  0  0  0  0  0  0  0  0
  -14.1868   -1.5451  -23.2991 C   0  0  0  0  0  0  0  0  0  0  0  0
  -16.2271    2.5807  -19.9281 P   0  0  0  0  0  0  0  0  0  0  0  0
  -16.6670    1.3944  -22.2599 P   0  0  0  0  0  4  0  0  0  0  0  0
  -16.2908   -4.5727  -20.3883 O   0  0  0  0  0  0  0  0  0  0  0  0
  -17.5153    3.0198  -19.7215 O   0  0  0  0  0  1  0  0  0  0  0  0
  -12.9279   -4.7353  -25.0652 N   0  0  0  0  0  0  0  0  0  0  0  0
  -14.8741   -3.7199  -22.0795 C   0  0  0  0  0  0  0  0  0  0  0  0
  -14.6492   -0.5315  -27.5375 O   0  0  0  0  0  0  0  0  0  0  0  0
  -12.6689   -6.0247  -24.6626 C   0  0  0  0  0  0  0  0  0  0  0  0
  -11.3841   -6.6144  -26.7634 C   0  0  0  0  0  0  0  0  0  0  0  0
  -17.6297    0.4028  -21.6641 O   0  0  0  0  0  0  0  0  0  0  0  0
  -15.6354    0.7094  -23.3592 O   0  0  0  0  0  0  0  0  0  0  0  0
  -12.5405   -0.2267  -24.9516 O   0  0  0  0  0  0  0  0  0  0  0  0
  1 12  1  0
  1 15  1  0
  1 17  1  0
  2 11  1  0
  2 20  2  0
  2 23  1  0
  3 25  2  3
  3 26  1  0
  4 18  1  0
  5  6  2  0
  5  9  1  0
  5 11  1  0
  6 25  1  0
  7 18  1  0
  7 19  1  0
  8 14  1  0
  8 15  1  0
  8 29  1  0
  9 12  2  0
  9 23  1  0
 10 17  1  0
 10 23  1  0
 12 22  1  0
 13 19  2  0
 14 28  1  0
 15 16  1  0
 16 24  1  0
 18 21  1  0
 19 27  1  0
 19 28  1  0
 22 25  1  0
M  END
>  <ID>  (1) 
conformer_0

$$$$
