
     RDKit          3D

 27 29  0  0  0  0  0  0  0  0999 V2000
  -14.7997   -1.4121  -23.3105 C   0  0  0  0  0  0  0  0  0  0  0  0
  -15.8651    1.8379  -21.2261 O   0  0  0  0  0  0  0  0  0  0  0  0
  -15.7053   -1.8855  -25.4912 O   0  0  0  0  0  0  0  0  0  0  0  0
  -16.2426    2.8852  -20.1040 P   0  0  0  0  0  4  0  0  0  0  0  0
  -13.9961   -6.3952  -22.5968 C   0  0  0  0  0  0  0  0  0  0  0  0
  -17.6931    2.7836  -19.6894 O   0  0  0  0  0  1  0  0  0  0  0  0
  -14.7562   -5.1726  -22.3594 C   0  0  0  0  0  0  0  0  0  0  0  0
  -12.6376   -5.1945  -25.5571 N   0  0  0  0  0  0  0  0  0  0  0  0
  -15.9166   -0.3741  -25.3285 C   0  0  0  0  0  0  0  0  0  0  0  0
  -14.9948   -2.6520  -22.3926 C   0  0  0  0  0  0  0  0  0  0  0  0
  -13.0474   -6.6041  -23.6352 C   0  0  0  0  0  0  0  0  0  0  0  0
  -13.2173   -4.1400  -25.1691 C   0  0  0  0  0  0  0  0  0  0  0  0
  -14.5499   -3.9417  -23.0374 C   0  0  0  0  0  0  0  0  0  0  0  0
  -15.9395    4.2498  -20.5969 O   0  0  0  0  0  0  0  0  0  0  0  0
  -14.3613   -2.5756  -21.1475 O   0  0  0  0  0  0  0  0  0  0  0  0
  -16.1450    2.7372  -23.5351 O   0  0  0  0  0  1  0  0  0  0  0  0
  -13.6345   -0.7433  -22.7569 O   0  0  0  0  0  0  0  0  0  0  0  0
  -12.0434   -7.3158  -25.6396 O   0  0  0  0  0  0  0  0  0  0  0  0
  -12.4809   -6.3938  -24.9132 C   0  0  0  0  0  0  0  0  0  0  0  0
  -14.1033   -7.3495  -21.6456 O   0  0  0  0  0  0  0  0  0  0  0  0
  -15.3451   -0.0014  -23.9867 C   0  0  0  0  0  0  0  0  0  0  0  0
  -15.7701   -5.3011  -21.5080 O   0  0  0  0  0  0  0  0  0  0  0  0
  -16.2124    1.7623  -22.5539 P   0  0  0  0  0  4  0  0  0  0  0  0
  -16.4768    0.3952  -23.1093 O   0  0  0  0  0  0  0  0  0  0  0  0
  -14.5662   -2.1504  -24.6411 C   0  0  0  0  0  0  0  0  0  0  0  0
  -14.3544   -3.6444  -24.4330 C   0  0  0  0  0  0  0  0  0  0  0  0
  -15.3191    2.4850  -18.9432 O   0  0  0  0  0  0  0  0  0  0  0  0
  1 10  1  0
  1 17  1  0
  1 21  1  0
  1 25  1  0
  2  4  1  0
  2 23  1  0
  3  9  1  0
  3 25  1  0
  4  6  2  0
  4 14  1  0
  4 27  1  0
  5  7  1  0
  5 11  1  0
  5 20  1  0
  7 13  1  0
  7 22  1  0
  8 12  1  0
  8 19  1  0
  9 21  1  0
 10 13  1  0
 10 15  1  0
 11 19  1  0
 12 26  1  0
 13 26  1  0
 16 23  2  0
 18 19  2  0
 21 24  1  0
 23 24  1  0
 25 26  1  0
M  END
>  <ID>  (1) 
conformer_0

$$$$
