
     RDKit          3D

 25 26  0  0  0  0  0  0  0  0999 V2000
  -14.0915   -1.2421  -22.2536 O   0  0  0  0  0  0  0  0  0  0  0  0
  -17.6024    2.7142  -19.7517 O   0  0  0  0  0  1  0  0  0  0  0  0
  -16.1976    3.1206  -19.9705 P   0  0  0  0  0  4  0  0  0  0  0  0
  -15.7653    2.8302  -21.4283 O   0  0  0  0  0  0  0  0  0  0  0  0
  -13.9455   -4.6103  -24.0959 C   0  0  0  0  0  0  0  0  0  0  0  0
  -14.2784   -5.3675  -22.9890 C   0  0  0  0  0  0  0  0  0  0  0  0
  -14.7721   -2.1446  -24.4139 C   0  0  0  0  0  0  0  0  0  0  0  0
  -13.6073   -1.4887  -24.9346 O   0  0  0  0  0  0  0  0  0  0  0  0
  -15.2582   -4.9063  -22.0104 C   0  0  0  0  0  0  0  0  0  0  0  0
  -14.9787    1.1061  -22.8911 O   0  0  0  0  0  0  0  0  0  0  0  0
  -16.0279    4.6145  -19.7221 O   0  0  0  0  0  0  0  0  0  0  0  0
  -12.3893   -6.2177  -24.7565 C   0  0  0  0  0  0  0  0  0  0  0  0
  -15.4485   -3.6759  -21.7293 O   0  0  0  0  0  0  0  0  0  0  0  0
  -12.7254   -7.0259  -23.7282 N   0  0  0  0  0  0  0  0  0  0  0  0
  -15.1215    0.0946  -23.9355 C   0  0  0  0  0  0  0  0  0  0  0  0
  -13.8281   -7.3987  -21.7870 O   0  0  0  0  0  0  0  0  0  0  0  0
  -14.7807   -3.5083  -24.4047 C   0  0  0  0  0  0  0  0  0  0  0  0
  -15.1829   -1.2910  -23.1925 C   0  0  0  0  0  0  0  0  0  0  0  0
  -13.7907   -0.0879  -24.7262 C   0  0  0  0  0  0  0  0  0  0  0  0
  -13.6232   -6.6362  -22.8325 C   0  0  0  0  0  0  0  0  0  0  0  0
  -11.4812   -6.6054  -25.6025 N   0  0  0  0  0  0  0  0  0  0  0  0
  -15.9266   -5.6548  -21.3299 O   0  0  0  0  0  0  0  0  0  0  0  0
  -12.9522   -5.0116  -24.9241 N   0  0  0  0  0  0  0  0  0  0  0  0
  -16.0497    1.6169  -22.2314 C   0  0  0  0  0  0  0  0  0  0  0  0
  -15.2635    2.3617  -19.0683 O   0  0  0  0  0  0  0  0  0  0  0  0
  1 18  1  0
  2  3  2  0
  3  4  1  0
  3 11  1  0
  3 25  1  0
  4 24  1  0
  5  6  1  0
  5 17  1  0
  5 23  2  0
  6  9  1  0
  6 20  1  0
  7  8  1  0
  7 17  1  0
  7 18  1  0
  8 19  1  0
  9 13  2  0
  9 22  1  0
 10 15  1  0
 10 24  1  0
 12 14  1  0
 12 21  2  0
 12 23  1  0
 14 20  1  0
 15 18  1  0
 15 19  1  0
 16 20  2  0
M  END
>  <ID>  (1) 
conformer_0

$$$$
