
     RDKit          3D

 32 33  0  0  0  0  0  0  0  0999 V2000
  -11.4124   -1.3047  -27.3569 O   0  0  0  0  0  1  0  0  0  0  0  0
  -15.2840    2.5490  -18.8936 O   0  0  0  0  0  1  0  0  0  0  0  0
  -17.6767    0.5619  -21.9517 O   0  0  0  0  0  1  0  0  0  0  0  0
  -14.0233   -5.2069  -24.1986 C   0  0  0  0  0  0  0  0  0  0  0  0
  -15.8476    4.3741  -20.4997 O   0  0  0  0  0  0  0  0  0  0  0  0
  -12.4329    0.3369  -25.7426 O   0  0  0  0  0  0  0  0  0  0  0  0
  -15.1971   -4.4037  -20.7895 C   0  0  0  0  0  0  0  0  0  0  0  0
  -14.0236   -3.1022  -25.4054 C   0  0  0  0  0  0  0  0  0  0  0  0
  -14.5033   -3.3565  -19.9997 N   0  0  0  0  0  0  0  0  0  0  0  0
  -15.7684    2.0177  -21.1849 O   0  0  0  0  0  0  0  0  0  0  0  0
  -16.2043    3.0133  -20.0266 P   0  0  0  0  0  4  0  0  0  0  0  0
  -13.5551    0.3565  -24.9018 C   0  0  0  0  0  0  0  0  0  0  0  0
  -16.5368    1.4212  -22.4173 P   0  0  0  0  0  4  0  0  0  0  0  0
  -16.8815    2.5379  -23.2945 O   0  0  0  0  0  0  0  0  0  0  0  0
  -15.4076    0.5844  -23.2988 O   0  0  0  0  0  0  0  0  0  0  0  0
  -16.2466   -4.8994  -20.4740 O   0  0  0  0  0  0  0  0  0  0  0  0
  -14.5392   -5.6100  -23.0252 C   0  0  0  0  0  0  0  0  0  0  0  0
  -14.5487   -1.6079  -25.2860 C   0  0  0  0  0  0  0  0  0  0  0  0
  -14.6536   -4.4916  -22.1537 C   0  0  0  0  0  0  0  0  0  0  0  0
  -17.6250    2.8831  -19.6327 O   0  0  0  0  0  0  0  0  0  0  0  0
  -10.0683    0.6692  -26.5224 O   0  0  0  0  0  0  0  0  0  0  0  0
  -13.4014   -3.5060  -26.5525 O   0  0  0  0  0  0  0  0  0  0  0  0
  -13.7112   -2.5647  -20.7878 C   0  0  0  0  0  0  0  0  0  0  0  0
  -13.9166   -3.8449  -24.1247 C   0  0  0  0  0  0  0  0  0  0  0  0
  -14.0615   -3.3839  -22.8426 C   0  0  0  0  0  0  0  0  0  0  0  0
  -13.0958   -6.0556  -25.0303 C   0  0  0  0  0  0  0  0  0  0  0  0
  -14.5453    1.2277  -24.1993 C   0  0  0  0  0  0  0  0  0  0  0  0
  -11.4291    0.1873  -26.9757 P   0  0  0  0  0  4  0  0  0  0  0  0
  -12.0157    1.0705  -28.0339 O   0  0  0  0  0  0  0  0  0  0  0  0
  -14.6953   -6.8791  -22.6670 O   0  0  0  0  0  0  0  0  0  0  0  0
  -13.4902   -2.4678  -22.0458 N   0  0  0  0  0  0  0  0  0  0  0  0
  -13.7133   -0.9918  -24.2700 O   0  0  0  0  0  0  0  0  0  0  0  0
  1 28  2  0
  2 11  2  0
  3 13  2  0
  4 17  1  0
  4 24  1  0
  4 26  1  0
  5 11  1  0
  6 12  1  0
  6 28  1  0
  7  9  1  0
  7 16  2  0
  7 19  1  0
  8 18  1  0
  8 22  1  0
  8 24  1  0
  9 23  1  0
 10 11  1  0
 10 13  1  0
 11 20  1  0
 12 27  2  3
 12 32  1  0
 13 14  1  0
 13 15  1  0
 15 27  1  0
 17 19  2  0
 17 30  1  0
 18 32  1  0
 19 25  1  0
 21 28  1  0
 23 31  2  0
 24 25  1  0
 25 31  1  0
 28 29  1  0
M  END
>  <ID>  (1) 
conformer_0

$$$$
