
     RDKit          3D

 34 34  0  0  0  0  0  0  0  0999 V2000
  -16.2618    2.5826  -21.3174 O   0  0  0  0  0  0  0  0  0  0  0  0
  -14.9403   -0.0446  -26.8729 C   0  0  0  0  0  0  0  0  0  0  0  0
  -16.5809    2.0909  -23.7991 O   0  0  0  0  0  0  0  0  0  0  0  0
  -12.9619   -3.1005  -20.6030 C   0  0  0  0  0  0  0  0  0  0  0  0
  -16.6350   -4.3175  -19.8654 C   0  0  0  0  0  0  0  0  0  0  0  0
  -15.3618   -2.8739  -26.3320 O   0  0  0  0  0  0  0  0  0  0  0  0
  -15.3261    0.5324  -22.4051 O   0  0  0  0  0  1  0  0  0  0  0  0
  -16.2500    4.5259  -19.8940 O   0  0  0  0  0  1  0  0  0  0  0  0
  -12.3210   -6.9993  -24.1873 N   0  0  0  0  0  0  0  0  0  0  0  0
  -14.8174   -3.9007  -23.4456 C   0  0  0  0  0  0  0  0  0  0  0  0
  -13.1757   -6.0883  -24.1373 C   0  0  0  0  0  0  0  0  0  0  0  0
  -14.1239   -6.1882  -23.0425 C   0  0  0  0  0  0  0  0  0  0  0  0
  -12.3929   -3.3254  -18.1790 O   0  0  0  0  0  0  0  0  0  0  0  0
  -14.2487   -7.3732  -22.4572 O   0  0  0  0  0  0  0  0  0  0  0  0
  -11.8279    0.4761  -25.3883 C   0  0  0  0  0  0  0  0  0  0  0  0
  -16.1202    3.1367  -20.0511 P   0  0  0  0  0  0  0  0  0  0  0  0
  -15.4508   -5.2253  -21.1200 N   0  0  0  0  0  0  0  0  0  0  0  0
  -15.2349   -4.1201  -20.1625 C   0  0  0  0  0  0  0  0  0  0  0  0
  -15.4599    2.4239  -19.0208 O   0  0  0  0  0  1  0  0  0  0  0  0
  -14.5563   -3.6278  -18.7024 C   0  0  0  0  0  0  0  0  0  0  0  0
  -13.4627   -1.7360  -25.6662 N   0  0  0  0  0  0  0  0  0  0  0  0
  -13.0213   -3.2533  -19.2477 O   0  0  0  0  0  0  0  0  0  0  0  0
  -14.4584   -3.1049  -21.0096 C   0  0  0  0  0  0  0  0  0  0  0  0
  -13.6457   -0.6686  -26.5721 C   0  0  0  0  0  0  0  0  0  0  0  0
  -14.7737    0.9537  -27.8945 O   0  0  0  0  0  0  0  0  0  0  0  0
  -16.2325    1.6100  -25.0594 C   0  0  0  0  0  0  0  0  0  0  0  0
  -17.7905    0.7288  -22.0043 O   0  0  0  0  0  0  0  0  0  0  0  0
  -13.1646   -4.9494  -24.9528 C   0  0  0  0  0  0  0  0  0  0  0  0
  -15.9626    0.3787  -25.8660 C   0  0  0  0  0  0  0  0  0  0  0  0
  -16.4766    1.4096  -22.3196 P   0  0  0  0  0  4  0  0  0  0  0  0
  -14.7890   -5.0172  -22.5360 N   0  0  0  0  0  0  0  0  0  0  0  0
  -14.1492   -3.8870  -24.6523 N   0  0  0  0  0  0  0  0  0  0  0  0
  -14.3891   -2.7959  -25.6358 C   0  0  0  0  0  0  0  0  0  0  0  0
  -12.3826    0.1690  -26.8306 C   0  0  0  0  0  0  0  0  0  0  0  0
  1 16  1  0
  1 30  1  0
  2 24  1  0
  2 25  1  0
  2 29  1  0
  3 26  1  0
  3 30  1  0
  4 22  1  0
  4 23  1  0
  5 18  1  0
  6 33  2  0
  7 30  2  0
  8 16  1  0
  9 11  2  0
 10 31  1  0
 10 32  1  0
 11 12  1  0
 11 28  1  0
 12 14  2  0
 12 31  1  0
 13 22  1  0
 15 34  1  0
 16 19  1  0
 17 18  1  0
 17 31  1  0
 18 20  1  0
 18 23  1  0
 21 24  1  0
 21 33  1  0
 24 34  1  0
 26 29  1  0
 27 30  1  0
 28 32  1  0
 32 33  1  0
M  END
>  <ID>  (1) 
conformer_0

$$$$
