
     RDKit          3D

 21 22  0  0  0  0  0  0  0  0999 V2000
  -14.8389   -0.6675  -22.8352 C   0  0  0  0  0  0  0  0  0  0  0  0
  -15.9168    3.9945  -21.0233 O   0  0  0  0  0  1  0  0  0  0  0  0
  -12.3669   -5.6979  -25.1382 C   0  0  0  0  0  0  0  0  0  0  0  0
  -14.5048   -1.7175  -23.8170 C   0  0  0  0  0  0  0  0  0  0  0  0
  -15.5312    1.5737  -21.4179 O   0  0  0  0  0  0  0  0  0  0  0  0
  -16.1954    2.6481  -20.4587 P   0  0  0  0  0  4  0  0  0  0  0  0
  -14.9834   -6.0277  -21.5808 O   0  0  0  0  0  0  0  0  0  0  0  0
  -12.9003   -7.3865  -23.4130 N   0  0  0  0  0  0  0  0  0  0  0  0
  -14.6395    0.6681  -23.5279 C   0  0  0  0  0  0  0  0  0  0  0  0
  -12.9688   -6.2467  -24.0097 C   0  0  0  0  0  0  0  0  0  0  0  0
  -16.2514   -3.7109  -21.1992 C   0  0  0  0  0  0  0  0  0  0  0  0
  -15.8124   -2.5484  -21.6881 O   0  0  0  0  0  0  0  0  0  0  0  0
  -12.7427   -4.3294  -25.2565 C   0  0  0  0  0  0  0  0  0  0  0  0
  -14.6089   -5.1328  -22.3511 C   0  0  0  0  0  0  0  0  0  0  0  0
  -14.3555   -3.0518  -23.4204 C   0  0  0  0  0  0  0  0  0  0  0  0
  -13.7360   -5.2601  -23.4469 C   0  0  0  0  0  0  0  0  0  0  0  0
  -13.5758   -4.0166  -24.1495 C   0  0  0  0  0  0  0  0  0  0  0  0
  -15.4938    2.4610  -19.1218 O   0  0  0  0  0  0  0  0  0  0  0  0
  -17.6354    2.3059  -20.3802 O   0  0  0  0  0  0  0  0  0  0  0  0
  -15.6297    1.5454  -22.8144 C   0  0  0  0  0  0  0  0  0  0  0  0
  -15.1128   -3.6259  -22.3030 C   0  0  0  0  0  0  0  0  0  0  0  0
  1  4  1  0
  1  9  1  0
  2  6  2  0
  3 10  1  0
  3 13  1  0
  4 15  1  0
  5  6  1  0
  5 20  1  0
  6 18  1  0
  6 19  1  0
  7 14  2  0
  8 10  2  0
  9 20  1  0
 10 16  1  0
 11 12  1  0
 12 21  1  0
 13 17  1  0
 14 16  1  0
 14 21  1  0
 15 17  1  0
 15 21  2  0
 16 17  2  0
M  END
>  <ID>  (1) 
conformer_0

$$$$
