
     RDKit          3D

 25 26  0  0  0  0  0  0  0  0999 V2000
  -16.2767    2.8339  -20.2689 P   0  0  0  0  0  4  0  0  0  0  0  0
  -11.6533   -6.4654  -25.3099 N   0  0  0  0  0  0  0  0  0  0  0  0
  -14.2763   -0.3601  -23.0189 O   0  0  0  0  0  0  0  0  0  0  0  0
  -15.2747    2.4537  -19.1097 O   0  0  0  0  0  1  0  0  0  0  0  0
  -12.7686   -7.2314  -23.5652 N   0  0  0  0  0  0  0  0  0  0  0  0
  -14.1320   -4.8743  -23.2354 C   0  0  0  0  0  0  0  0  0  0  0  0
  -14.5921   -3.5474  -23.2924 C   0  0  0  0  0  0  0  0  0  0  0  0
  -16.9630   -0.7879  -25.6058 O   0  0  0  0  0  0  0  0  0  0  0  0
  -15.2448   -3.3116  -22.1439 N   0  0  0  0  0  0  0  0  0  0  0  0
  -14.6273   -6.6634  -21.5842 O   0  0  0  0  0  0  0  0  0  0  0  0
  -13.3200   -5.0629  -24.4033 C   0  0  0  0  0  0  0  0  0  0  0  0
  -14.6921   -5.4825  -22.0352 C   0  0  0  0  0  0  0  0  0  0  0  0
  -15.1728   -0.1983  -24.0101 C   0  0  0  0  0  0  0  0  0  0  0  0
  -15.9807    1.0885  -23.9741 C   0  0  0  0  0  0  0  0  0  0  0  0
  -15.3298   -4.4916  -21.3958 N   0  0  0  0  0  0  0  0  0  0  0  0
  -17.6682    2.9771  -19.6189 O   0  0  0  0  0  0  0  0  0  0  0  0
  -14.2598   -2.9904  -24.4769 N   0  0  0  0  0  0  0  0  0  0  0  0
  -15.1117   -2.2611  -25.3815 C   0  0  0  0  0  0  0  0  0  0  0  0
  -15.5237   -0.8216  -25.3728 C   0  0  0  0  0  0  0  0  0  0  0  0
  -12.6106   -6.3049  -24.4421 C   0  0  0  0  0  0  0  0  0  0  0  0
  -16.1997    1.6219  -21.4539 C   0  0  0  0  0  0  0  0  0  0  0  0
  -15.8525    4.1460  -20.8648 O   0  0  0  0  0  0  0  0  0  0  0  0
  -16.3891    1.7572  -22.8156 O   0  0  0  0  0  0  0  0  0  0  0  0
  -13.4408   -3.8866  -25.2035 C   0  0  0  0  0  0  0  0  0  0  0  0
  -15.9719    1.7366  -25.1660 O   0  0  0  0  0  0  0  0  0  0  0  0
  1  4  2  0
  1 16  1  0
  1 21  1  0
  1 22  1  0
  2 20  2  0
  3 13  1  0
  5 20  1  0
  6  7  2  0
  6 11  1  0
  6 12  1  0
  7  9  1  0
  7 17  1  0
  8 19  1  0
  9 15  1  0
 10 12  2  0
 11 20  1  0
 11 24  1  0
 12 15  1  0
 13 14  1  0
 13 19  1  0
 14 23  1  0
 14 25  2  0
 17 18  1  0
 17 24  1  0
 18 19  1  0
 21 23  1  0
M  END
>  <ID>  (1) 
conformer_0

$$$$
