
     RDKit          3D

 24 24  0  0  0  0  0  0  0  0999 V2000
  -15.0610    1.5878  -22.6826 O   0  0  0  0  0  0  0  0  0  0  0  0
  -16.9391    1.5160  -21.1412 O   0  0  0  0  0  0  0  0  0  0  0  0
  -14.1436   -1.6861  -26.4510 O   0  0  0  0  0  0  0  0  0  0  0  0
  -15.5588   -0.0488  -24.8696 C   0  0  0  0  0  0  0  0  0  0  0  0
  -16.5018    2.8113  -20.1427 P   0  0  0  0  0  4  0  0  0  0  0  0
  -15.4357   -3.3178  -21.3298 O   0  0  0  0  0  0  0  0  0  0  0  0
  -16.0037    3.8854  -21.0256 O   0  0  0  0  0  1  0  0  0  0  0  0
  -16.3226    1.0553  -22.5989 C   0  0  0  0  0  0  0  0  0  0  0  0
  -14.5700   -0.9702  -24.2306 C   0  0  0  0  0  0  0  0  0  0  0  0
  -14.8782   -2.8417  -22.3601 C   0  0  0  0  0  0  0  0  0  0  0  0
  -16.6390    0.3558  -23.8432 O   0  0  0  0  0  0  0  0  0  0  0  0
  -13.8754   -3.3660  -24.5548 N   0  0  0  0  0  0  0  0  0  0  0  0
  -14.0063   -5.0952  -23.1295 C   0  0  0  0  0  0  0  0  0  0  0  0
  -14.1850   -2.1238  -25.1817 C   0  0  0  0  0  0  0  0  0  0  0  0
  -14.3034   -3.7389  -23.3220 C   0  0  0  0  0  0  0  0  0  0  0  0
  -15.4037   -6.0729  -21.4620 O   0  0  0  0  0  0  0  0  0  0  0  0
  -12.5725   -4.5227  -26.2489 C   0  0  0  0  0  0  0  0  0  0  0  0
  -13.4234   -0.4732  -23.5938 O   0  0  0  0  0  0  0  0  0  0  0  0
  -17.7360    3.2628  -19.3187 O   0  0  0  0  0  0  0  0  0  0  0  0
  -13.2059   -4.4708  -25.0806 C   0  0  0  0  0  0  0  0  0  0  0  0
  -15.4040    2.3455  -19.1899 O   0  0  0  0  0  0  0  0  0  0  0  0
  -14.3856   -6.1233  -22.1465 C   0  0  0  0  0  0  0  0  0  0  0  0
  -13.2782   -5.4975  -24.2303 N   0  0  0  0  0  0  0  0  0  0  0  0
  -13.6162   -7.1937  -22.0366 O   0  0  0  0  0  0  0  0  0  0  0  0
  1  8  2  0
  2  5  1  0
  2  8  1  0
  3 14  2  0
  4  9  1  0
  4 11  1  0
  5  7  2  0
  5 19  1  0
  5 21  1  0
  6 10  2  0
  8 11  1  0
  9 14  1  0
  9 18  1  0
 10 15  1  0
 12 14  1  0
 12 15  1  0
 12 20  1  0
 13 15  1  0
 13 22  1  0
 13 23  1  0
 16 22  2  0
 17 20  2  0
 20 23  1  0
 22 24  1  0
M  END
>  <ID>  (1) 
conformer_0

$$$$
