
     RDKit          3D

 28 30  0  0  0  0  0  0  0  0999 V2000
  -16.0818    0.5904  -23.0248 O   0  0  0  0  0  0  0  0  0  0  0  0
  -13.3830   -6.6486  -23.5888 C   0  0  0  0  0  0  0  0  0  0  0  0
  -13.6689   -7.4441  -22.5115 O   0  0  0  0  0  0  0  0  0  0  0  0
  -15.4686   -5.4940  -21.8135 O   0  0  0  0  0  0  0  0  0  0  0  0
  -14.8183   -4.7248  -22.6322 C   0  0  0  0  0  0  0  0  0  0  0  0
  -11.7514   -7.1454  -26.8413 C   0  0  0  0  0  0  0  0  0  0  0  0
  -15.1766   -2.3131  -23.1796 C   0  0  0  0  0  0  0  0  0  0  0  0
  -12.6083   -5.1986  -25.8146 C   0  0  0  0  0  0  0  0  0  0  0  0
  -13.9587   -0.2898  -23.7517 C   0  0  0  0  0  0  0  0  0  0  0  0
  -17.6765    2.9913  -19.5888 O   0  0  0  0  0  1  0  0  0  0  0  0
  -14.7694    0.9870  -23.4618 C   0  0  0  0  0  0  0  0  0  0  0  0
  -14.5397   -0.9554  -25.0150 C   0  0  0  0  0  0  0  0  0  0  0  0
  -11.5238   -5.8616  -27.7552 C   0  0  0  0  0  0  0  0  0  0  0  0
  -14.3853   -1.1577  -22.6396 C   0  0  0  0  0  0  0  0  0  0  0  0
  -15.8599    4.6417  -19.9246 O   0  0  0  0  0  0  0  0  0  0  0  0
  -15.9922    2.5133  -21.4283 O   0  0  0  0  0  0  0  0  0  0  0  0
  -16.7149    1.3246  -21.8972 P   0  0  0  0  0  4  0  0  0  0  0  0
  -13.3330   -4.6047  -24.7882 C   0  0  0  0  0  0  0  0  0  0  0  0
  -15.3136    2.3798  -19.0288 O   0  0  0  0  0  0  0  0  0  0  0  0
  -13.5889   -1.5406  -21.5749 O   0  0  0  0  0  0  0  0  0  0  0  0
  -12.6775   -7.1923  -24.5461 N   0  0  0  0  0  0  0  0  0  0  0  0
  -16.2269    3.1529  -19.9545 P   0  0  0  0  0  4  0  0  0  0  0  0
  -12.3490   -6.5659  -25.6824 C   0  0  0  0  0  0  0  0  0  0  0  0
  -15.0323   -3.4135  -22.4685 O   0  0  0  0  0  0  0  0  0  0  0  0
  -13.8264   -5.2657  -23.6786 C   0  0  0  0  0  0  0  0  0  0  0  0
  -12.1219   -4.7290  -27.0159 N   0  0  0  0  0  0  0  0  0  0  0  0
  -17.9171    0.7689  -21.4282 O   0  0  0  0  0  1  0  0  0  0  0  0
  -14.9746   -2.3378  -24.6176 C   0  0  0  0  0  0  0  0  0  0  0  0
  1 11  1  0
  1 17  1  0
  2  3  2  0
  2 21  1  0
  2 25  1  0
  4  5  2  0
  5 24  1  0
  5 25  1  0
  6 13  1  0
  6 23  1  0
  7 14  1  0
  7 24  1  0
  7 28  1  0
  8 18  2  0
  8 23  1  0
  8 26  1  0
  9 11  1  0
  9 12  1  0
  9 14  1  0
 10 22  2  0
 12 28  1  0
 13 26  1  0
 14 20  1  0
 15 22  1  0
 16 17  1  0
 16 22  1  0
 17 27  2  0
 18 25  1  0
 19 22  1  0
 21 23  2  0
M  END
>  <ID>  (1) 
conformer_0

$$$$
