
     RDKit          3D

 28 30  0  0  0  0  0  0  0  0999 V2000
  -13.2978   -6.4670  -23.5112 C   0  0  0  0  0  0  0  0  0  0  0  0
  -14.8609   -4.8612  -22.4835 C   0  0  0  0  0  0  0  0  0  0  0  0
  -13.5092   -7.3369  -22.4523 O   0  0  0  0  0  0  0  0  0  0  0  0
  -17.6740    0.8892  -21.2755 O   0  0  0  0  0  1  0  0  0  0  0  0
  -15.2672   -0.8664  -25.6585 C   0  0  0  0  0  0  0  0  0  0  0  0
  -13.8869   -5.1681  -23.5362 C   0  0  0  0  0  0  0  0  0  0  0  0
  -15.4597   -5.7728  -21.5888 O   0  0  0  0  0  0  0  0  0  0  0  0
  -13.3685   -2.2892  -26.1486 C   0  0  0  0  0  0  0  0  0  0  0  0
  -15.4774   -2.7331  -27.3661 C   0  0  0  0  0  0  0  0  0  0  0  0
  -11.3633   -5.9935  -27.7657 O   0  0  0  0  0  0  0  0  0  0  0  0
  -15.3178   -0.3712  -22.2670 C   0  0  0  0  0  0  0  0  0  0  0  0
  -16.4395    1.6342  -21.2894 P   0  0  0  0  0  0  0  0  0  0  0  0
  -14.2259   -2.4688  -22.4221 C   0  0  0  0  0  0  0  0  0  0  0  0
  -15.1631    0.7059  -23.4075 C   0  0  0  0  0  0  0  0  0  0  0  0
  -15.1764   -3.5181  -22.0740 C   0  0  0  0  0  0  0  0  0  0  0  0
  -14.4505   -0.5983  -24.3563 C   0  0  0  0  0  0  0  0  0  0  0  0
  -11.7749   -8.1173  -27.0898 N   0  0  0  0  0  0  0  0  0  0  0  0
  -13.5186   -4.4169  -24.7070 C   0  0  0  0  0  0  0  0  0  0  0  0
  -13.9378   -3.1224  -25.0169 O   0  0  0  0  0  0  0  0  0  0  0  0
  -14.5155   -1.5761  -26.8435 C   0  0  0  0  0  0  0  0  0  0  0  0
  -15.8011    1.9685  -22.5067 O   0  0  0  0  0  0  0  0  0  0  0  0
  -12.3345   -6.2259  -25.6505 C   0  0  0  0  0  0  0  0  0  0  0  0
  -16.1277   -3.2757  -21.1558 O   0  0  0  0  0  0  0  0  0  0  0  0
  -14.7861   -1.4936  -23.2346 N   0  0  0  0  0  0  0  0  0  0  0  0
  -11.7173   -6.8364  -26.8474 C   0  0  0  0  0  0  0  0  0  0  0  0
  -15.8718    2.1048  -20.0640 O   0  0  0  0  0  1  0  0  0  0  0  0
  -12.7584   -4.9405  -25.6729 C   0  0  0  0  0  0  0  0  0  0  0  0
  -12.5327   -6.9846  -24.4951 C   0  0  0  0  0  0  0  0  0  0  0  0
  1  3  1  0
  1  6  1  0
  1 28  2  0
  2  6  1  0
  2  7  1  0
  2 15  1  0
  4 12  1  0
  5 16  1  0
  5 20  1  0
  6 18  1  0
  8 19  1  0
  8 20  1  0
  9 20  1  0
 10 25  2  0
 11 14  1  0
 11 24  1  0
 12 21  1  0
 12 26  1  0
 13 15  1  0
 13 24  1  0
 14 16  1  0
 14 21  1  0
 15 23  1  0
 16 24  1  0
 17 25  1  0
 18 19  1  0
 18 27  2  0
 22 25  1  0
 22 27  1  0
 22 28  1  0
M  END
>  <ID>  (1) 
conformer_0

$$$$
