
     RDKit          3D

 25 25  0  0  0  0  0  0  0  0999 V2000
  -16.0313   -2.1392  -24.8604 O   0  0  0  0  0  0  0  0  0  0  0  0
  -14.2606   -4.9228  -22.9254 C   0  0  0  0  0  0  0  0  0  0  0  0
  -14.6214   -2.9925  -21.6027 O   0  0  0  0  0  0  0  0  0  0  0  0
  -15.3497    1.5115  -22.4447 C   0  0  0  0  0  0  0  0  0  0  0  0
  -15.1689    0.3083  -24.3534 C   0  0  0  0  0  0  0  0  0  0  0  0
  -13.1359   -6.9603  -23.5447 N   0  0  0  0  0  0  0  0  0  0  0  0
  -14.1341   -0.6575  -24.6555 C   0  0  0  0  0  0  0  0  0  0  0  0
  -13.9852   -6.3168  -22.7307 C   0  0  0  0  0  0  0  0  0  0  0  0
  -15.3997    2.4050  -19.2880 O   0  0  0  0  0  1  0  0  0  0  0  0
  -14.5158   -7.0046  -21.7438 O   0  0  0  0  0  0  0  0  0  0  0  0
  -16.3750    2.7747  -20.4097 P   0  0  0  0  0  4  0  0  0  0  0  0
  -12.8931   -4.9934  -24.8520 N   0  0  0  0  0  0  0  0  0  0  0  0
  -12.8007   -0.5049  -24.6202 O   0  0  0  0  0  0  0  0  0  0  0  0
  -13.8094   -2.8974  -24.1376 N   0  0  0  0  0  0  0  0  0  0  0  0
  -15.6040    2.7418  -21.7631 O   0  0  0  0  0  0  0  0  0  0  0  0
  -12.6015   -6.2906  -24.5947 C   0  0  0  0  0  0  0  0  0  0  0  0
  -11.7362   -6.9193  -25.3837 N   0  0  0  0  0  0  0  0  0  0  0  0
  -15.8505    0.1894  -23.0238 C   0  0  0  0  0  0  0  0  0  0  0  0
  -17.4846    1.7676  -20.5468 O   0  0  0  0  0  0  0  0  0  0  0  0
  -16.1428   -4.6488  -21.4872 O   0  0  0  0  0  0  0  0  0  0  0  0
  -15.5277    1.3318  -25.0881 O   0  0  0  0  0  0  0  0  0  0  0  0
  -14.7877   -2.0350  -24.3862 C   0  0  0  0  0  0  0  0  0  0  0  0
  -15.0688   -4.1172  -21.9698 C   0  0  0  0  0  0  0  0  0  0  0  0
  -13.6664   -4.2778  -23.9930 C   0  0  0  0  0  0  0  0  0  0  0  0
  -16.9444    4.1629  -20.1393 O   0  0  0  0  0  0  0  0  0  0  0  0
  1 22  2  0
  2  8  1  0
  2 23  1  0
  2 24  1  0
  3 23  2  0
  4 15  1  0
  4 18  1  0
  5  7  1  0
  5 18  1  0
  5 21  1  0
  6  8  1  0
  6 16  1  0
  7 13  1  0
  7 22  1  0
  8 10  2  0
  9 11  2  0
 11 15  1  0
 11 19  1  0
 11 25  1  0
 12 16  1  0
 12 24  2  0
 14 22  1  0
 14 24  1  0
 16 17  2  0
 20 23  1  0
M  END
>  <ID>  (1) 
conformer_0

$$$$
