
     RDKit          3D

 23 24  0  0  0  0  0  0  0  0999 V2000
  -15.0404   -1.0066  -23.0513 C   0  0  0  0  0  0  0  0  0  0  0  0
  -16.1235    2.9657  -19.9395 P   0  0  0  0  0  4  0  0  0  0  0  0
  -14.1994   -0.8973  -24.5154 C   0  0  0  0  0  0  0  0  0  0  0  0
  -17.5704    2.8274  -19.5414 O   0  0  0  0  0  1  0  0  0  0  0  0
  -17.7283    0.2621  -21.5452 O   0  0  0  0  0  1  0  0  0  0  0  0
  -14.3230   -7.0682  -21.7632 O   0  0  0  0  0  0  0  0  0  0  0  0
  -12.9828   -0.1705  -24.0199 O   0  0  0  0  0  0  0  0  0  0  0  0
  -14.4340   -2.0945  -23.9265 C   0  0  0  0  0  0  0  0  0  0  0  0
  -14.4689   -3.4054  -23.3812 N   0  0  0  0  0  0  0  0  0  0  0  0
  -12.9527   -4.8642  -24.6673 N   0  0  0  0  0  0  0  0  0  0  0  0
  -15.1612    2.5316  -18.7999 O   0  0  0  0  0  0  0  0  0  0  0  0
  -13.0401   -6.7671  -23.4887 N   0  0  0  0  0  0  0  0  0  0  0  0
  -17.4282    2.3538  -22.8784 O   0  0  0  0  0  0  0  0  0  0  0  0
  -12.4803   -6.1491  -24.5443 C   0  0  0  0  0  0  0  0  0  0  0  0
  -15.6976    0.3092  -23.0817 O   0  0  0  0  0  0  0  0  0  0  0  0
  -14.1074   -5.8798  -22.6177 C   0  0  0  0  0  0  0  0  0  0  0  0
  -15.8481    4.3673  -20.4139 O   0  0  0  0  0  0  0  0  0  0  0  0
  -13.7864   -4.5206  -23.7475 C   0  0  0  0  0  0  0  0  0  0  0  0
  -15.7421    1.9318  -21.1073 O   0  0  0  0  0  0  0  0  0  0  0  0
  -15.0479   -4.8791  -21.8524 N   0  0  0  0  0  0  0  0  0  0  0  0
  -11.5930   -6.7053  -25.3045 N   0  0  0  0  0  0  0  0  0  0  0  0
  -16.7435    1.2017  -22.1164 P   0  0  0  0  0  4  0  0  0  0  0  0
  -15.2234   -3.6245  -22.2622 C   0  0  0  0  0  0  0  0  0  0  0  0
  1  8  1  0
  1 15  1  0
  2  4  2  0
  2 11  1  0
  2 17  1  0
  2 19  1  0
  3  7  1  0
  3  8  1  0
  5 22  2  0
  6 16  1  0
  8  9  1  0
  9 18  1  0
  9 23  1  0
 10 14  1  0
 10 18  2  0
 12 14  1  0
 12 16  1  0
 13 22  1  0
 14 21  2  0
 15 22  1  0
 16 18  1  0
 16 20  1  0
 19 22  1  0
 20 23  1  0
M  END
>  <ID>  (1) 
conformer_0

$$$$
