
     RDKit          3D

 25 26  0  0  0  0  0  0  0  0999 V2000
  -11.5531   -6.2086  -26.5337 C   0  0  0  0  0  0  0  0  0  0  0  0
  -14.6288   -4.8772  -22.5137 C   0  0  0  0  0  0  0  0  0  0  0  0
  -14.5417   -2.6145  -24.6740 N   0  0  0  0  0  0  0  0  0  0  0  0
  -15.3785   -5.7211  -22.0804 O   0  0  0  0  0  0  0  0  0  0  0  0
  -12.4861   -3.1832  -18.0509 F   0  0  0  0  0  0  0  0  0  0  0  0
  -12.3622   -6.9220  -24.0730 O   0  0  0  0  0  0  0  0  0  0  0  0
  -16.2650    3.9029  -21.3664 O   0  0  0  0  0  1  0  0  0  0  0  0
  -17.5268    1.8055  -20.7345 O   0  0  0  0  0  0  0  0  0  0  0  0
  -15.5140    2.5439  -19.4396 O   0  0  0  0  0  0  0  0  0  0  0  0
  -14.4111   -3.6959  -20.6080 C   0  0  0  0  0  0  0  0  0  0  0  0
  -14.7890   -0.3699  -23.5755 C   0  0  0  0  0  0  0  0  0  0  0  0
  -13.9416   -3.8682  -24.8009 C   0  0  0  0  0  0  0  0  0  0  0  0
  -13.1018   -4.0986  -26.0054 C   0  0  0  0  0  0  0  0  0  0  0  0
  -12.8420   -5.9152  -24.5788 C   0  0  0  0  0  0  0  0  0  0  0  0
  -14.7742   -3.4600  -18.2472 C   0  0  0  0  0  0  0  0  0  0  0  0
  -16.2407    2.5556  -20.8410 P   0  0  0  0  0  4  0  0  0  0  0  0
  -13.0779   -3.0988  -20.0585 C   0  0  0  0  0  0  0  0  0  0  0  0
  -13.2820   -3.1447  -18.6093 C   0  0  0  0  0  0  0  0  0  0  0  0
  -13.9080   -5.0189  -23.9342 C   0  0  0  0  0  0  0  0  0  0  0  0
  -15.5158    1.7100  -22.0263 O   0  0  0  0  0  0  0  0  0  0  0  0
  -15.3815   -3.9229  -19.5352 C   0  0  0  0  0  0  0  0  0  0  0  0
  -12.5141   -5.4327  -25.7194 N   0  0  0  0  0  0  0  0  0  0  0  0
  -15.2744   -1.3324  -24.5644 C   0  0  0  0  0  0  0  0  0  0  0  0
  -14.4429   -3.7652  -21.9223 N   0  0  0  0  0  0  0  0  0  0  0  0
  -15.8959    0.7452  -23.0891 C   0  0  0  0  0  0  0  0  0  0  0  0
  1 22  1  0
  2  4  2  0
  2 19  1  0
  2 24  1  0
  3 12  1  0
  3 23  1  0
  5 18  1  0
  6 14  2  0
  7 16  2  0
  8 16  1  0
  9 16  1  0
 10 17  1  0
 10 21  1  0
 10 24  1  0
 11 23  1  0
 11 25  2  3
 12 13  1  0
 12 19  2  0
 13 22  1  0
 14 19  1  0
 14 22  1  0
 15 18  1  0
 15 21  1  0
 16 20  1  0
 17 18  1  0
 20 25  1  0
M  END
>  <ID>  (1) 
conformer_0

$$$$
