
     RDKit          3D

 21 21  0  0  0  0  0  0  0  0999 V2000
  -16.0419    1.2251  -22.3799 C   0  0  0  0  0  0  0  0  0  0  0  0
  -12.3737   -6.5881  -24.1836 C   0  0  0  0  0  0  0  0  0  0  0  0
  -13.4786   -5.8371  -23.7030 C   0  0  0  0  0  0  0  0  0  0  0  0
  -14.8391   -3.8484  -22.1785 C   0  0  0  0  0  0  0  0  0  0  0  0
  -14.5353   -1.9906  -23.7617 C   0  0  0  0  0  0  0  0  0  0  0  0
  -14.1730   -6.1576  -22.4807 C   0  0  0  0  0  0  0  0  0  0  0  0
  -14.3561   -3.4600  -23.4819 C   0  0  0  0  0  0  0  0  0  0  0  0
  -15.1336    0.7495  -24.5753 O   0  0  0  0  0  0  0  0  0  0  0  0
  -16.1106    2.7687  -20.1318 P   0  0  0  0  0  4  0  0  0  0  0  0
  -15.5339    1.8034  -21.2156 O   0  0  0  0  0  0  0  0  0  0  0  0
  -14.8659   -5.1748  -21.8716 N   0  0  0  0  0  0  0  0  0  0  0  0
  -15.9186    4.1880  -20.5683 O   0  0  0  0  0  1  0  0  0  0  0  0
  -14.1162   -7.3895  -22.0305 N   0  0  0  0  0  0  0  0  0  0  0  0
  -15.1256   -3.0265  -21.3080 O   0  0  0  0  0  0  0  0  0  0  0  0
  -17.5482    2.5104  -19.8805 O   0  0  0  0  0  0  0  0  0  0  0  0
  -15.0465    0.3801  -23.2096 C   0  0  0  0  0  0  0  0  0  0  0  0
  -15.3835   -1.0858  -22.9178 C   0  0  0  0  0  0  0  0  0  0  0  0
  -15.2515    2.4774  -18.9069 O   0  0  0  0  0  0  0  0  0  0  0  0
  -13.7454   -4.5464  -24.2536 C   0  0  0  0  0  0  0  0  0  0  0  0
  -17.2805    0.6791  -22.4453 O   0  0  0  0  0  0  0  0  0  0  0  0
  -13.5398   -1.3623  -24.4501 O   0  0  0  0  0  0  0  0  0  0  0  0
  1 10  1  0
  1 16  1  0
  1 20  2  0
  2  3  1  0
  3  6  1  0
  3 19  1  0
  4  7  1  0
  4 11  1  0
  4 14  2  0
  5  7  1  0
  5 17  1  0
  5 21  1  0
  6 11  1  0
  6 13  2  0
  7 19  2  0
  8 16  1  0
  9 10  1  0
  9 12  2  0
  9 15  1  0
  9 18  1  0
 16 17  1  0
M  END
>  <ID>  (1) 
conformer_0

$$$$
