
     RDKit          3D

 32 33  0  0  0  0  0  0  0  0999 V2000
  -14.1588   -0.7577  -23.8912 C   0  0  0  0  0  0  0  0  0  0  0  0
  -12.5749   -4.6070  -26.0180 C   0  0  0  0  0  0  0  0  0  0  0  0
  -11.7882   -6.7904  -26.3459 C   0  0  0  0  0  0  0  0  0  0  0  0
  -16.2216    3.1339  -20.1223 P   0  0  0  0  0  4  0  0  0  0  0  0
  -11.3177   -7.7170  -27.1312 O   0  0  0  0  0  0  0  0  0  0  0  0
  -12.9122   -6.2893  -24.3511 C   0  0  0  0  0  0  0  0  0  0  0  0
  -17.6732    2.9790  -19.7883 O   0  0  0  0  0  1  0  0  0  0  0  0
  -17.4447   -3.5637  -17.4866 C   0  0  0  0  0  0  0  0  0  0  0  0
  -15.6969   -5.8476  -20.7005 N   0  0  0  0  0  0  0  0  0  0  0  0
  -15.8650    2.4589  -21.5732 O   0  0  0  0  0  0  0  0  0  0  0  0
  -16.9279   -5.6864  -18.3799 N   0  0  0  0  0  0  0  0  0  0  0  0
  -12.2161   -7.1550  -25.0965 N   0  0  0  0  0  0  0  0  0  0  0  0
  -11.9037   -5.4826  -26.7674 N   0  0  0  0  0  0  0  0  0  0  0  0
  -16.6283   -4.5547  -17.4905 C   0  0  0  0  0  0  0  0  0  0  0  0
  -16.0059    0.8128  -23.4965 O   0  0  0  0  0  0  0  0  0  0  0  0
  -14.5446   -3.1242  -24.0515 C   0  0  0  0  0  0  0  0  0  0  0  0
  -15.8746    4.6326  -20.2033 O   0  0  0  0  0  0  0  0  0  0  0  0
  -16.2946   -3.9469  -19.8044 N   0  0  0  0  0  0  0  0  0  0  0  0
  -14.5612    0.5305  -23.4265 C   0  0  0  0  0  0  0  0  0  0  0  0
  -12.4593   -1.5365  -25.4251 O   0  0  0  0  0  0  0  0  0  0  0  0
  -13.8467   -1.0240  -25.3182 C   0  0  0  0  0  0  0  0  0  0  0  0
  -13.1265   -4.9766  -24.8170 C   0  0  0  0  0  0  0  0  0  0  0  0
  -15.3381    2.4493  -19.1059 O   0  0  0  0  0  0  0  0  0  0  0  0
  -16.2568   -5.2120  -19.6160 C   0  0  0  0  0  0  0  0  0  0  0  0
  -14.2197   -5.1900  -22.8184 C   0  0  0  0  0  0  0  0  0  0  0  0
  -14.6290   -1.9102  -23.1936 C   0  0  0  0  0  0  0  0  0  0  0  0
  -17.6898    0.6485  -21.6115 O   0  0  0  0  0  1  0  0  0  0  0  0
  -13.5662   -6.4200  -23.1011 N   0  0  0  0  0  0  0  0  0  0  0  0
  -16.5897    1.3223  -22.1621 P   0  0  0  0  0  4  0  0  0  0  0  0
  -13.9625   -4.3063  -23.8712 N   0  0  0  0  0  0  0  0  0  0  0  0
  -14.9920   -4.9960  -21.6346 N   0  0  0  0  0  0  0  0  0  0  0  0
  -15.3874   -4.6488  -17.0414 F   0  0  0  0  0  0  0  0  0  0  0  0
  1 19  1  0
  1 21  1  0
  1 26  1  0
  2 13  2  0
  2 22  1  0
  3  5  2  0
  3 12  1  0
  3 13  1  0
  4  7  2  0
  4 10  1  0
  4 17  1  0
  4 23  1  0
  6 12  2  0
  6 22  1  0
  6 28  1  0
  8 14  2  0
  9 24  1  0
  9 31  2  3
 10 29  1  0
 11 14  1  0
 11 24  1  0
 14 32  1  0
 15 19  1  0
 15 29  1  0
 16 26  1  0
 16 30  1  0
 18 24  2  0
 20 21  1  0
 22 30  1  0
 25 28  2  0
 25 30  1  0
 25 31  1  0
 27 29  2  0
M  END
>  <ID>  (1) 
conformer_0

$$$$
