
     RDKit          3D

 28 30  0  0  0  0  0  0  0  0999 V2000
  -15.9761   -0.3791  -25.9330 O   0  0  0  0  0  0  0  0  0  0  0  0
  -11.7038   -6.9003  -25.5488 N   0  0  0  0  0  0  0  0  0  0  0  0
  -14.6808   -3.1395  -22.2314 C   0  0  0  0  0  0  0  0  0  0  0  0
  -15.9922    4.9454  -19.6972 O   0  0  0  0  0  1  0  0  0  0  0  0
  -16.4378    3.4730  -19.9816 P   0  0  0  0  0  4  0  0  0  0  0  0
  -14.3174   -0.8002  -24.3063 C   0  0  0  0  0  0  0  0  0  0  0  0
  -16.3609    3.1511  -21.7023 C   0  0  0  0  0  0  0  0  0  0  0  0
  -12.9749   -7.2240  -23.6653 N   0  0  0  0  0  0  0  0  0  0  0  0
  -16.0930   -1.8350  -26.1801 C   0  0  0  0  0  0  0  0  0  0  0  0
  -14.3668   -2.2202  -24.5619 C   0  0  0  0  0  0  0  0  0  0  0  0
  -14.7878   -2.5227  -25.9348 C   0  0  0  0  0  0  0  0  0  0  0  0
  -17.8351    3.2329  -19.5064 O   0  0  0  0  0  0  0  0  0  0  0  0
  -15.9936    0.9551  -23.6581 O   0  0  0  0  0  0  0  0  0  0  0  0
  -14.1248   -5.3636  -22.7709 C   0  0  0  0  0  0  0  0  0  0  0  0
  -15.4540    2.5462  -19.2251 O   0  0  0  0  0  0  0  0  0  0  0  0
  -12.5479   -6.4031  -24.6831 C   0  0  0  0  0  0  0  0  0  0  0  0
  -14.7401   -4.6972  -21.8357 N   0  0  0  0  0  0  0  0  0  0  0  0
  -15.5575   -0.0893  -24.6449 C   0  0  0  0  0  0  0  0  0  0  0  0
  -18.2941    1.3587  -22.7111 O   0  0  0  0  0  1  0  0  0  0  0  0
  -15.6000   -2.5020  -21.4489 O   0  0  0  0  0  0  0  0  0  0  0  0
  -13.7949   -6.7425  -22.6742 C   0  0  0  0  0  0  0  0  0  0  0  0
  -16.4350    0.6784  -21.1694 O   0  0  0  0  0  0  0  0  0  0  0  0
  -12.9597   -5.1291  -24.8296 N   0  0  0  0  0  0  0  0  0  0  0  0
  -16.8237    1.4773  -22.3318 P   0  0  0  0  0  4  0  0  0  0  0  0
  -13.7126   -4.5437  -23.8913 C   0  0  0  0  0  0  0  0  0  0  0  0
  -14.2578   -7.4426  -21.7300 O   0  0  0  0  0  0  0  0  0  0  0  0
  -14.2093   -3.3013  -23.6578 C   0  0  0  0  0  0  0  0  0  0  0  0
  -13.9265   -1.7790  -21.8722 N   0  0  0  0  0  0  0  0  0  0  0  0
  1  9  1  0
  1 18  1  0
  2 16  2  0
  3 17  1  0
  3 20  1  0
  3 27  1  0
  3 28  1  0
  4  5  2  0
  5  7  1  0
  5 12  1  0
  5 15  1  0
  6 10  1  0
  6 18  1  0
  7 24  1  0
  8 16  1  0
  8 21  1  0
  9 11  1  0
 10 11  1  0
 10 27  1  0
 13 18  1  0
 13 24  1  0
 14 17  1  0
 14 21  1  0
 14 25  2  0
 16 23  1  0
 19 24  2  0
 21 26  2  0
 22 24  1  0
 23 25  1  0
 25 27  1  0
M  END
>  <ID>  (1) 
conformer_0

$$$$
