
     RDKit          3D

 19 19  0  0  0  0  0  0  0  0999 V2000
  -14.2380   -6.8027  -21.7201 O   0  0  0  0  0  0  0  0  0  0  0  0
  -15.3449   -0.4774  -23.0174 C   0  0  0  0  0  0  0  0  0  0  0  0
  -12.4381   -5.4667  -25.2300 C   0  0  0  0  0  0  0  0  0  0  0  0
  -13.2765   -4.6044  -24.5814 C   0  0  0  0  0  0  0  0  0  0  0  0
  -16.1302   -4.9170  -21.2838 O   0  0  0  0  0  0  0  0  0  0  0  0
  -12.2612   -6.7098  -24.6463 C   0  0  0  0  0  0  0  0  0  0  0  0
  -13.7337   -6.2396  -22.8630 C   0  0  0  0  0  0  0  0  0  0  0  0
  -15.2776    2.2955  -19.0172 O   0  0  0  0  0  1  0  0  0  0  0  0
  -12.8823   -7.0526  -23.5366 N   0  0  0  0  0  0  0  0  0  0  0  0
  -15.8954    4.0871  -20.6162 O   0  0  0  0  0  0  0  0  0  0  0  0
  -17.5885    2.3594  -20.0140 O   0  0  0  0  0  0  0  0  0  0  0  0
  -13.9746   -4.8557  -23.4109 C   0  0  0  0  0  0  0  0  0  0  0  0
  -14.3768   -1.2833  -23.9105 C   0  0  0  0  0  0  0  0  0  0  0  0
  -14.8052   -3.7199  -22.9045 C   0  0  0  0  0  0  0  0  0  0  0  0
  -16.1571    2.7102  -20.1773 P   0  0  0  0  0  4  0  0  0  0  0  0
  -14.7348   -2.6300  -23.7481 O   0  0  0  0  0  0  0  0  0  0  0  0
  -15.5899    1.6879  -21.5523 O   0  0  0  0  0  0  0  0  0  0  0  0
  -15.0463    0.9295  -22.8031 C   0  0  0  0  0  0  0  0  0  0  0  0
  -15.6174   -3.7930  -21.8703 N   0  0  0  0  0  0  0  0  0  0  0  0
  1  7  2  0
  2 13  1  0
  2 18  1  0
  3  4  2  0
  3  6  1  0
  4 12  1  0
  5 19  1  0
  6  9  2  0
  7  9  1  0
  7 12  1  0
  8 15  2  0
 10 15  1  0
 11 15  1  0
 12 14  2  3
 13 16  1  0
 14 16  1  0
 14 19  1  0
 15 17  1  0
 17 18  1  0
M  END
>  <ID>  (1) 
conformer_0

$$$$
