
     RDKit          3D

 23 23  0  0  0  0  0  0  0  0999 V2000
  -15.7677   -1.1515  -25.0044 O   0  0  0  0  0  0  0  0  0  0  0  0
  -16.1762    2.4078  -20.8955 P   0  0  0  0  0  4  0  0  0  0  0  0
  -11.8192   -6.8983  -25.4170 N   0  0  0  0  0  0  0  0  0  0  0  0
  -15.8436    3.7541  -21.4576 O   0  0  0  0  0  1  0  0  0  0  0  0
  -13.7187   -1.5237  -21.8646 O   0  0  0  0  0  0  0  0  0  0  0  0
  -14.1679   -4.7279  -22.8766 C   0  0  0  0  0  0  0  0  0  0  0  0
  -14.3174   -2.9459  -24.5062 C   0  0  0  0  0  0  0  0  0  0  0  0
  -13.9451   -2.7002  -21.3082 C   0  0  0  0  0  0  0  0  0  0  0  0
  -15.3944    1.3445  -21.7761 O   0  0  0  0  0  0  0  0  0  0  0  0
  -13.8253   -4.2421  -24.1260 C   0  0  0  0  0  0  0  0  0  0  0  0
  -15.8037    0.3257  -22.7819 C   0  0  0  0  0  0  0  0  0  0  0  0
  -17.6016    2.0143  -20.9871 O   0  0  0  0  0  0  0  0  0  0  0  0
  -15.8358   -4.2776  -21.2726 O   0  0  0  0  0  0  0  0  0  0  0  0
  -13.9285   -6.1298  -22.6757 C   0  0  0  0  0  0  0  0  0  0  0  0
  -14.4865   -6.8102  -21.7017 O   0  0  0  0  0  0  0  0  0  0  0  0
  -13.2122   -3.4021  -20.2535 O   0  0  0  0  0  0  0  0  0  0  0  0
  -13.1066   -6.8150  -23.5088 N   0  0  0  0  0  0  0  0  0  0  0  0
  -12.6318   -6.2348  -24.6367 C   0  0  0  0  0  0  0  0  0  0  0  0
  -15.1113   -0.9909  -22.6902 C   0  0  0  0  0  0  0  0  0  0  0  0
  -14.7583   -3.8089  -21.9654 C   0  0  0  0  0  0  0  0  0  0  0  0
  -15.1100   -1.8213  -23.8593 C   0  0  0  0  0  0  0  0  0  0  0  0
  -15.6439    2.3277  -19.4379 O   0  0  0  0  0  0  0  0  0  0  0  0
  -13.0115   -4.9803  -24.9705 N   0  0  0  0  0  0  0  0  0  0  0  0
  1 21  1  0
  2  4  2  0
  2  9  1  0
  2 12  1  0
  2 22  1  0
  3 18  2  0
  5  8  2  0
  6 10  1  0
  6 14  1  0
  6 20  1  0
  7 10  1  0
  7 21  1  0
  8 16  1  0
  8 20  1  0
  9 11  1  0
 10 23  2  0
 11 19  1  0
 13 20  1  0
 14 15  2  0
 14 17  1  0
 17 18  1  0
 18 23  1  0
 19 21  1  0
M  END
>  <ID>  (1) 
conformer_0

$$$$
