
     RDKit          3D

 22 23  0  0  0  0  0  0  0  0999 V2000
  -14.9274    0.6296  -23.1813 C   0  0  0  0  0  0  0  0  0  0  0  0
  -14.5207   -4.9038  -22.7461 C   0  0  0  0  0  0  0  0  0  0  0  0
  -17.6085    2.5907  -19.8695 O   0  0  0  0  0  1  0  0  0  0  0  0
  -14.8536   -3.5273  -22.8380 C   0  0  0  0  0  0  0  0  0  0  0  0
  -13.4925   -3.2669  -24.7511 C   0  0  0  0  0  0  0  0  0  0  0  0
  -15.7833   -3.2164  -21.8482 N   0  0  0  0  0  0  0  0  0  0  0  0
  -14.3303   -2.7599  -23.7735 C   0  0  0  0  0  0  0  0  0  0  0  0
  -14.7095   -1.5413  -23.6880 N   0  0  0  0  0  0  0  0  0  0  0  0
  -15.6945    1.9494  -21.2761 O   0  0  0  0  0  0  0  0  0  0  0  0
  -15.9565   -4.3466  -21.1413 C   0  0  0  0  0  0  0  0  0  0  0  0
  -15.9951    1.4852  -22.4960 C   0  0  0  0  0  0  0  0  0  0  0  0
  -13.1266   -4.6194  -24.6527 C   0  0  0  0  0  0  0  0  0  0  0  0
  -11.9857   -7.1288  -23.9689 O   0  0  0  0  0  0  0  0  0  0  0  0
  -13.5881   -5.4620  -23.6543 C   0  0  0  0  0  0  0  0  0  0  0  0
  -13.7850   -7.6159  -22.6865 O   0  0  0  0  0  0  0  0  0  0  0  0
  -15.2287   -0.7800  -22.6737 C   0  0  0  0  0  0  0  0  0  0  0  0
  -15.8934    4.2895  -20.4367 O   0  0  0  0  0  0  0  0  0  0  0  0
  -15.2935    2.3967  -18.9307 O   0  0  0  0  0  0  0  0  0  0  0  0
  -16.1791    2.8362  -20.1209 P   0  0  0  0  0  4  0  0  0  0  0  0
  -13.1125   -6.8350  -23.4747 C   0  0  0  0  0  0  0  0  0  0  0  0
  -15.2621   -5.3938  -21.6334 N   0  0  0  0  0  0  0  0  0  0  0  0
  -16.7532   -4.3694  -20.0360 P   0  0  0  0  0  0  0  0  0  0  0  0
  1 11  1  0
  1 16  1  0
  2  4  2  0
  2 14  1  0
  2 21  1  0
  3 19  2  0
  4  6  1  0
  4  7  1  0
  5  7  2  0
  5 12  1  0
  6 10  1  0
  7  8  1  0
  8 16  1  0
  9 11  1  0
  9 19  1  0
 10 21  1  0
 10 22  2  0
 12 14  2  0
 13 20  2  0
 14 20  1  0
 15 20  1  0
 17 19  1  0
 18 19  1  0
M  END
>  <ID>  (1) 
conformer_0

$$$$
