
     RDKit          3D

 28 28  0  0  0  0  0  0  0  0999 V2000
  -13.4501   -6.8298  -22.9915 C   0  0  0  0  0  0  0  0  0  0  0  0
  -14.9635   -4.6377  -22.3817 C   0  0  0  0  0  0  0  0  0  0  0  0
  -11.9066   -5.3066  -25.5418 O   0  0  0  0  0  0  0  0  0  0  0  0
  -15.5348   -1.4863  -25.8276 C   0  0  0  0  0  0  0  0  0  0  0  0
  -13.4064   -5.6359  -23.7281 N   0  0  0  0  0  0  0  0  0  0  0  0
  -13.2649   -1.1137  -24.5624 O   0  0  0  0  0  0  0  0  0  0  0  0
  -15.0459    0.5999  -22.8242 C   0  0  0  0  0  0  0  0  0  0  0  0
  -13.9902   -1.4876  -25.7204 C   0  0  0  0  0  0  0  0  0  0  0  0
  -16.1062   -0.5415  -24.7777 C   0  0  0  0  0  0  0  0  0  0  0  0
  -15.3004    2.3673  -18.9359 O   0  0  0  0  0  1  0  0  0  0  0  0
  -14.2058   -4.5879  -23.6022 C   0  0  0  0  0  0  0  0  0  0  0  0
  -15.1347    0.4061  -24.2538 O   0  0  0  0  0  0  0  0  0  0  0  0
  -12.1288   -7.1134  -24.1789 N   0  0  0  0  0  0  0  0  0  0  0  0
  -15.0529   -5.7897  -21.6737 N   0  0  0  0  0  0  0  0  0  0  0  0
  -16.4759    1.5478  -22.2946 P   0  0  0  0  0  4  0  0  0  0  0  0
  -16.9016    2.3173  -23.5121 O   0  0  0  0  0  1  0  0  0  0  0  0
  -17.5511    0.6396  -21.7477 O   0  0  0  0  0  0  0  0  0  0  0  0
  -14.3167   -6.8969  -21.9211 C   0  0  0  0  0  0  0  0  0  0  0  0
  -17.7181    2.9944  -19.3909 O   0  0  0  0  0  0  0  0  0  0  0  0
  -12.4266   -5.9310  -24.5978 C   0  0  0  0  0  0  0  0  0  0  0  0
  -16.3342   -2.6783  -25.9003 O   0  0  0  0  0  0  0  0  0  0  0  0
  -14.2306   -3.6099  -24.6831 C   0  0  0  0  0  0  0  0  0  0  0  0
  -15.4431   -3.5327  -21.9571 O   0  0  0  0  0  0  0  0  0  0  0  0
  -14.2239   -3.2361  -27.4015 O   0  0  0  0  0  0  0  0  0  0  0  0
  -16.0250    2.6866  -21.2305 O   0  0  0  0  0  0  0  0  0  0  0  0
  -16.2746    3.2023  -19.7701 P   0  0  0  0  0  4  0  0  0  0  0  0
  -15.8811    4.6808  -19.6905 O   0  0  0  0  0  0  0  0  0  0  0  0
  -13.7904   -3.0802  -26.0115 C   0  0  0  0  0  0  0  0  0  0  0  0
  1  5  1  0
  1 18  1  0
  2 11  1  0
  2 14  1  0
  2 23  2  0
  3 20  2  0
  4  8  1  0
  4  9  1  0
  4 21  1  0
  5 11  1  0
  5 20  1  0
  6  8  1  0
  7 12  1  0
  7 15  1  0
  8 28  1  0
  9 12  1  0
 10 26  2  0
 11 22  2  3
 13 20  1  0
 14 18  2  0
 15 16  2  0
 15 17  1  0
 15 25  1  0
 19 26  1  0
 22 28  1  0
 24 28  1  0
 25 26  1  0
 26 27  1  0
M  END
>  <ID>  (1) 
conformer_0

$$$$
