
     RDKit          3D

 27 29  0  0  0  0  0  0  0  0999 V2000
  -16.1191    3.0364  -19.8304 P   0  0  0  0  0  4  0  0  0  0  0  0
  -14.1597   -2.0972  -25.7621 C   0  0  0  0  0  0  0  0  0  0  0  0
  -14.6691   -6.9882  -21.3914 O   0  0  0  0  0  0  0  0  0  0  0  0
  -12.6879   -4.9633  -24.8793 N   0  0  0  0  0  0  0  0  0  0  0  0
  -12.8922   -6.8602  -23.6415 N   0  0  0  0  0  0  0  0  0  0  0  0
  -17.4466    2.4292  -22.9520 O   0  0  0  0  0  1  0  0  0  0  0  0
  -15.7858    0.5464  -22.8908 O   0  0  0  0  0  0  0  0  0  0  0  0
  -14.0033   -0.5316  -25.8253 C   0  0  0  0  0  0  0  0  0  0  0  0
  -14.5737   -5.9006  -22.0879 C   0  0  0  0  0  0  0  0  0  0  0  0
  -17.5673    2.7992  -19.5277 O   0  0  0  0  0  1  0  0  0  0  0  0
  -11.4263   -6.8472  -25.3922 N   0  0  0  0  0  0  0  0  0  0  0  0
  -15.2682   -0.1695  -25.0897 C   0  0  0  0  0  0  0  0  0  0  0  0
  -15.2279   -2.3751  -26.7051 O   0  0  0  0  0  0  0  0  0  0  0  0
  -13.7228   -5.9057  -23.1740 C   0  0  0  0  0  0  0  0  0  0  0  0
  -13.5890   -4.6894  -23.9345 C   0  0  0  0  0  0  0  0  0  0  0  0
  -15.7707    2.2136  -21.1687 O   0  0  0  0  0  0  0  0  0  0  0  0
  -13.9401   -1.2207  -23.5036 O   0  0  0  0  0  0  0  0  0  0  0  0
  -16.7876    1.4261  -22.0996 P   0  0  0  0  0  4  0  0  0  0  0  0
  -15.8472    4.5198  -19.9922 O   0  0  0  0  0  0  0  0  0  0  0  0
  -15.2790   -4.7069  -21.7984 N   0  0  0  0  0  0  0  0  0  0  0  0
  -14.0954   -2.3508  -24.3518 C   0  0  0  0  0  0  0  0  0  0  0  0
  -12.2780   -6.2503  -24.6850 C   0  0  0  0  0  0  0  0  0  0  0  0
  -14.3018   -3.5716  -23.6167 N   0  0  0  0  0  0  0  0  0  0  0  0
  -15.1298   -3.6074  -22.5734 C   0  0  0  0  0  0  0  0  0  0  0  0
  -15.0838   -0.4243  -23.6380 C   0  0  0  0  0  0  0  0  0  0  0  0
  -15.1593    2.4244  -18.8115 O   0  0  0  0  0  0  0  0  0  0  0  0
  -17.7551    0.4939  -21.4709 O   0  0  0  0  0  0  0  0  0  0  0  0
  1 10  2  0
  1 16  1  0
  1 19  1  0
  1 26  1  0
  2  8  1  0
  2 13  1  0
  2 21  1  0
  3  9  2  0
  4 15  1  0
  4 22  1  0
  5 14  1  0
  5 22  1  0
  6 18  2  0
  7 18  1  0
  7 25  1  0
  8 12  1  0
  9 14  1  0
  9 20  1  0
 11 22  2  0
 12 25  1  0
 14 15  2  0
 15 23  1  0
 16 18  1  0
 17 21  1  0
 17 25  1  0
 18 27  1  0
 20 24  2  0
 21 23  1  0
 23 24  1  0
M  END
>  <ID>  (1) 
conformer_0

$$$$
