
     RDKit          3D

 33 33  0  0  0  0  0  0  0  0999 V2000
  -12.0820   -6.7821  -24.4884 N   0  0  0  0  0  0  0  0  0  0  0  0
  -15.9763    2.6157  -21.6644 O   0  0  0  0  0  0  0  0  0  0  0  0
  -15.3688   -3.8429  -20.4784 C   0  0  0  0  0  0  0  0  0  0  0  0
  -17.2266   -3.0785  -17.2605 F   0  0  0  0  0  0  0  0  0  0  0  0
  -13.8834   -5.0457  -23.9071 C   0  0  0  0  0  0  0  0  0  0  0  0
  -14.2835   -1.0031  -26.6122 C   0  0  0  0  0  0  0  0  0  0  0  0
  -14.9005    1.4134  -23.8244 C   0  0  0  0  0  0  0  0  0  0  0  0
  -13.1978   -6.4802  -23.8784 C   0  0  0  0  0  0  0  0  0  0  0  0
  -16.0611    1.8863  -22.9677 C   0  0  0  0  0  0  0  0  0  0  0  0
  -13.0056   -2.9099  -19.6115 C   0  0  0  0  0  0  0  0  0  0  0  0
  -14.3999   -4.1153  -24.7886 C   0  0  0  0  0  0  0  0  0  0  0  0
  -13.7261   -3.4298  -20.6249 C   0  0  0  0  0  0  0  0  0  0  0  0
  -14.4332   -3.4166  -25.9592 C   0  0  0  0  0  0  0  0  0  0  0  0
  -13.7551   -1.0646  -28.0076 C   0  0  0  0  0  0  0  0  0  0  0  0
  -16.3371    3.2350  -20.1956 P   0  0  0  0  0  4  0  0  0  0  0  0
  -17.7872    3.0730  -19.9215 O   0  0  0  0  0  1  0  0  0  0  0  0
  -14.5633   -3.4814  -18.1555 C   0  0  0  0  0  0  0  0  0  0  0  0
  -13.7106   -7.3393  -23.1404 O   0  0  0  0  0  0  0  0  0  0  0  0
  -14.7508   -3.8181  -16.8915 F   0  0  0  0  0  0  0  0  0  0  0  0
  -15.4758    2.6108  -19.1522 O   0  0  0  0  0  0  0  0  0  0  0  0
  -17.7452   -4.2988  -19.0942 F   0  0  0  0  0  0  0  0  0  0  0  0
  -15.2785    0.7216  -25.1013 C   0  0  0  0  0  0  0  0  0  0  0  0
  -15.9592    4.7097  -20.2922 O   0  0  0  0  0  0  0  0  0  0  0  0
  -15.0942   -1.9903  -25.9548 C   0  0  0  0  0  0  0  0  0  0  0  0
  -14.4319   -3.8868  -21.5649 C   0  0  0  0  0  0  0  0  0  0  0  0
  -16.8867   -4.1155  -18.1386 C   0  0  0  0  0  0  0  0  0  0  0  0
  -14.0151    0.3155  -25.9469 C   0  0  0  0  0  0  0  0  0  0  0  0
  -13.8864   -3.8004  -27.0127 O   0  0  0  0  0  0  0  0  0  0  0  0
  -17.2466    1.4061  -23.3274 O   0  0  0  0  0  0  0  0  0  0  0  0
  -15.5343   -3.6988  -19.0421 C   0  0  0  0  0  0  0  0  0  0  0  0
  -14.1682   -4.7318  -22.4797 N   0  0  0  0  0  0  0  0  0  0  0  0
  -16.6815   -5.2373  -17.4566 F   0  0  0  0  0  0  0  0  0  0  0  0
  -13.1435   -3.0733  -18.2573 C   0  0  0  0  0  0  0  0  0  0  0  0
  1  8  1  0
  2  9  1  0
  2 15  1  0
  3 25  1  0
  3 30  2  0
  4 26  1  0
  5  8  1  0
  5 11  1  0
  5 31  1  0
  6 14  1  0
  6 24  1  0
  6 27  1  0
  7  9  1  0
  7 22  1  0
  8 18  2  0
  9 29  2  0
 10 12  1  0
 10 33  1  0
 11 13  1  0
 12 25  1  0
 13 24  1  0
 13 28  2  0
 15 16  2  0
 15 20  1  0
 15 23  1  0
 17 19  1  0
 17 30  1  0
 17 33  1  0
 21 26  1  0
 22 27  1  0
 25 31  1  0
 26 30  1  0
 26 32  1  0
M  END
>  <ID>  (1) 
conformer_0

$$$$
