
     RDKit          3D

 15 15  0  0  0  0  0  0  0  0999 V2000
  -15.3117    0.7705  -21.8678 O   0  0  0  0  0  0  0  0  0  0  0  0
  -15.8874    3.2975  -21.5951 O   0  0  0  0  0  1  0  0  0  0  0  0
  -12.1148   -5.8277  -24.9299 C   0  0  0  0  0  0  0  0  0  0  0  0
  -14.1991   -3.0779  -23.7240 C   0  0  0  0  0  0  0  0  0  0  0  0
  -13.9139   -4.5746  -23.4428 N   0  0  0  0  0  0  0  0  0  0  0  0
  -15.4814    2.2494  -19.3897 O   0  0  0  0  0  0  0  0  0  0  0  0
  -17.4750    1.4767  -20.7756 O   0  0  0  0  0  0  0  0  0  0  0  0
  -16.1329    2.0981  -20.8238 P   0  0  0  0  0  4  0  0  0  0  0  0
  -14.2182   -6.4686  -22.1273 C   0  0  0  0  0  0  0  0  0  0  0  0
  -12.9919   -5.8013  -23.8716 C   0  0  0  0  0  0  0  0  0  0  0  0
  -15.0243   -0.7289  -22.8857 C   0  0  0  0  0  0  0  0  0  0  0  0
  -15.6782   -4.6632  -21.7722 O   0  0  0  0  0  0  0  0  0  0  0  0
  -13.2247   -6.8023  -23.0320 N   0  0  0  0  0  0  0  0  0  0  0  0
  -14.6981   -5.1300  -22.3880 C   0  0  0  0  0  0  0  0  0  0  0  0
  -15.0632   -2.2459  -22.7818 C   0  0  0  0  0  0  0  0  0  0  0  0
  1  8  1  0
  1 11  1  0
  2  8  2  0
  3 10  2  0
  4  5  1  0
  4 15  2  3
  5 10  1  0
  5 14  1  0
  6  8  1  0
  7  8  1  0
  9 13  1  0
  9 14  1  0
 10 13  1  0
 11 15  1  0
 12 14  2  0
M  END
>  <ID>  (1) 
conformer_0

$$$$
