
     RDKit          3D

 23 25  0  0  0  0  0  0  0  0999 V2000
  -15.3775   -2.9857  -22.4216 C   0  0  0  0  0  0  0  0  0  0  0  0
  -13.3387   -4.3309  -25.0302 C   0  0  0  0  0  0  0  0  0  0  0  0
  -15.3488    2.3422  -19.1153 O   0  0  0  0  0  1  0  0  0  0  0  0
  -16.2336    3.1151  -20.0480 P   0  0  0  0  0  4  0  0  0  0  0  0
  -13.0702   -5.6466  -24.6831 N   0  0  0  0  0  0  0  0  0  0  0  0
  -17.1639    0.6474  -21.8283 O   0  0  0  0  0  0  0  0  0  0  0  0
  -14.1379   -3.7179  -24.0518 C   0  0  0  0  0  0  0  0  0  0  0  0
  -14.3560   -4.7648  -23.0349 C   0  0  0  0  0  0  0  0  0  0  0  0
  -13.6801   -5.9271  -23.4985 C   0  0  0  0  0  0  0  0  0  0  0  0
  -14.1195   -0.3324  -23.1762 C   0  0  0  0  0  0  0  0  0  0  0  0
  -14.1233   -7.2607  -21.5650 O   0  0  0  0  0  0  0  0  0  0  0  0
  -14.8559   -2.6471  -23.5855 N   0  0  0  0  0  0  0  0  0  0  0  0
  -15.2526    0.7749  -23.2784 C   0  0  0  0  0  0  0  0  0  0  0  0
  -13.5729   -8.2436  -23.5380 N   0  0  0  0  0  0  0  0  0  0  0  0
  -13.7203   -7.1842  -22.7927 N   0  0  0  0  0  0  0  0  0  0  0  0
  -15.1076   -4.2242  -22.0930 N   0  0  0  0  0  0  0  0  0  0  0  0
  -14.8709   -1.2929  -24.2124 C   0  0  0  0  0  0  0  0  0  0  0  0
  -16.0766   -0.2565  -24.1496 O   0  0  0  0  0  0  0  0  0  0  0  0
  -17.6899    2.8922  -19.7319 O   0  0  0  0  0  0  0  0  0  0  0  0
  -16.0314    1.3066  -22.1292 C   0  0  0  0  0  0  0  0  0  0  0  0
  -12.9308    0.1558  -23.8916 O   0  0  0  0  0  0  0  0  0  0  0  0
  -15.8975    2.6553  -21.5246 O   0  0  0  0  0  0  0  0  0  0  0  0
  -15.9235    4.6104  -19.9284 O   0  0  0  0  0  0  0  0  0  0  0  0
  1 12  1  0
  1 16  1  0
  2  5  1  0
  2  7  1  0
  3  4  2  0
  4 19  1  0
  4 22  1  0
  4 23  1  0
  5  9  1  0
  6 20  2  0
  7  8  1  0
  7 12  1  0
  8  9  2  0
  8 16  1  0
  9 15  1  0
 10 13  1  0
 10 17  1  0
 10 21  1  0
 11 15  1  0
 12 17  1  0
 13 18  1  0
 13 20  1  0
 14 15  1  0
 17 18  1  0
 20 22  1  0
M  END
>  <ID>  (1) 
conformer_0

$$$$
