
     RDKit          3D

 27 28  0  0  0  0  0  0  0  0999 V2000
  -14.4089    2.5780  -17.9747 N   0  0  0  0  0  0  0  0  0  0  0  0
  -15.1124   -1.5669  -23.9967 C   0  0  0  0  0  0  0  0  0  0  0  0
  -17.1725    1.7974  -22.6950 S   0  0  0  0  0  0  0  0  0  0  0  0
  -13.9607   -6.3236  -22.3932 C   0  0  0  0  0  0  0  0  0  0  0  0
  -14.0392    1.7901  -16.7756 C   0  0  0  0  0  0  0  0  0  0  0  0
  -15.8425   -2.8533  -25.8326 C   0  0  0  0  0  0  0  0  0  0  0  0
  -15.1985    0.9444  -23.9688 C   0  0  0  0  0  0  0  0  0  0  0  0
  -13.3143   -5.9568  -23.6045 C   0  0  0  0  0  0  0  0  0  0  0  0
  -15.0343   -5.5217  -21.9453 N   0  0  0  0  0  0  0  0  0  0  0  0
  -16.0428   -0.4844  -25.8733 C   0  0  0  0  0  0  0  0  0  0  0  0
  -18.6233    3.9596  -22.7785 O   0  0  0  0  0  1  0  0  0  0  0  0
  -15.5322    2.1268  -18.6233 C   0  0  0  0  0  0  0  0  0  0  0  0
  -15.4313   -4.4058  -22.6671 C   0  0  0  0  0  0  0  0  0  0  0  0
  -12.1512   -6.6845  -24.0749 C   0  0  0  0  0  0  0  0  0  0  0  0
  -16.6440    3.1788  -20.2668 C   0  0  0  0  0  0  0  0  0  0  0  0
  -15.4623   -0.4193  -24.5877 C   0  0  0  0  0  0  0  0  0  0  0  0
  -16.4274    1.8096  -24.1381 C   0  0  0  0  0  0  0  0  0  0  0  0
  -15.2705   -2.8044  -24.5771 C   0  0  0  0  0  0  0  0  0  0  0  0
  -16.3422    0.6627  -26.5631 O   0  0  0  0  0  0  0  0  0  0  0  0
  -17.3827    3.3710  -22.4772 P   0  0  0  0  0  4  0  0  0  0  0  0
  -14.4588    0.5648  -16.7320 O   0  0  0  0  0  0  0  0  0  0  0  0
  -15.6856    2.2756  -19.9475 O   0  0  0  0  0  0  0  0  0  0  0  0
  -17.7728    3.2672  -19.6182 O   0  0  0  0  0  0  0  0  0  0  0  0
  -14.8367   -4.0104  -23.8972 C   0  0  0  0  0  0  0  0  0  0  0  0
  -13.7853   -4.8603  -24.3593 C   0  0  0  0  0  0  0  0  0  0  0  0
  -16.4313    3.9331  -21.4821 O   0  0  0  0  0  0  0  0  0  0  0  0
  -16.2259   -1.7149  -26.4670 C   0  0  0  0  0  0  0  0  0  0  0  0
  1  5  1  0
  1 12  1  0
  2 16  2  0
  2 18  1  0
  3 17  1  0
  3 20  1  0
  4  8  1  0
  4  9  1  0
  5 21  1  0
  6 18  1  0
  6 27  2  0
  7 16  1  0
  7 17  1  0
  8 14  1  0
  8 25  2  0
  9 13  2  0
 10 16  1  0
 10 19  1  0
 10 27  1  0
 11 20  2  0
 12 22  1  0
 13 24  1  0
 15 22  1  0
 15 23  2  0
 15 26  1  0
 18 24  1  0
 20 26  1  0
 24 25  1  0
M  END
>  <ID>  (1) 
conformer_0

$$$$
