
     RDKit          3D

 28 29  0  0  0  0  0  0  0  0999 V2000
  -14.3149   -6.9568  -22.0435 O   0  0  0  0  0  0  0  0  0  0  0  0
  -12.8032   -4.8696  -25.1812 C   0  0  0  0  0  0  0  0  0  0  0  0
  -12.4662   -6.2199  -24.8416 C   0  0  0  0  0  0  0  0  0  0  0  0
  -13.8418   -2.7105  -24.5262 C   0  0  0  0  0  0  0  0  0  0  0  0
  -17.4668    0.6430  -21.3775 O   0  0  0  0  0  1  0  0  0  0  0  0
  -15.4212   -4.4892  -18.0181 C   0  0  0  0  0  0  0  0  0  0  0  0
  -12.3744   -4.3251  -26.3119 O   0  0  0  0  0  0  0  0  0  0  0  0
  -15.8410   -5.7104  -20.1555 N   0  0  0  0  0  0  0  0  0  0  0  0
  -17.6128    3.2227  -19.6324 O   0  0  0  0  0  1  0  0  0  0  0  0
  -16.8851   -3.7585  -19.5736 O   0  0  0  0  0  0  0  0  0  0  0  0
  -12.9812   -6.7950  -23.7797 N   0  0  0  0  0  0  0  0  0  0  0  0
  -16.4517   -4.8829  -18.8542 C   0  0  0  0  0  0  0  0  0  0  0  0
  -16.3975    1.3682  -22.1715 P   0  0  0  0  0  4  0  0  0  0  0  0
  -11.5148   -6.9110  -25.6580 C   0  0  0  0  0  0  0  0  0  0  0  0
  -16.3061    2.7697  -19.9147 P   0  0  0  0  0  0  0  0  0  0  0  0
  -14.9662   -4.0313  -22.2798 C   0  0  0  0  0  0  0  0  0  0  0  0
  -13.8587   -6.1645  -22.9548 C   0  0  0  0  0  0  0  0  0  0  0  0
  -15.4497   -4.8135  -21.2261 N   0  0  0  0  0  0  0  0  0  0  0  0
  -15.3473    2.4691  -18.9127 O   0  0  0  0  0  1  0  0  0  0  0  0
  -15.2060    0.2854  -22.5570 O   0  0  0  0  0  0  0  0  0  0  0  0
  -14.1463   -4.7620  -23.1760 C   0  0  0  0  0  0  0  0  0  0  0  0
  -17.4394   -5.7354  -18.4063 C   0  0  0  0  0  0  0  0  0  0  0  0
  -14.5042   -1.9519  -23.5024 C   0  0  0  0  0  0  0  0  0  0  0  0
  -16.8687    1.9715  -23.4723 O   0  0  0  0  0  0  0  0  0  0  0  0
  -15.1368   -2.6608  -22.4435 C   0  0  0  0  0  0  0  0  0  0  0  0
  -15.7874    2.5870  -21.2602 O   0  0  0  0  0  0  0  0  0  0  0  0
  -13.6096   -4.1261  -24.2750 C   0  0  0  0  0  0  0  0  0  0  0  0
  -15.1387   -0.6013  -23.6978 C   0  0  0  0  0  0  0  0  0  0  0  0
  1 17  2  0
  2  3  1  0
  2  7  1  0
  2 27  2  0
  3 11  2  0
  3 14  1  0
  4 23  1  0
  4 27  1  0
  5 13  2  0
  6 12  1  0
  8 12  1  0
  8 18  1  0
  9 15  1  0
 10 12  1  0
 11 17  1  0
 12 22  1  0
 13 20  1  0
 13 24  1  0
 13 26  1  0
 15 19  1  0
 15 26  1  0
 16 18  1  0
 16 21  2  0
 16 25  1  0
 17 21  1  0
 20 28  1  0
 21 27  1  0
 23 25  2  0
 23 28  1  0
M  END
>  <ID>  (1) 
conformer_0

$$$$
