
     RDKit          3D

 21 21  0  0  0  0  0  0  0  0999 V2000
  -17.4357   -3.1028  -17.6004 O   0  0  0  0  0  0  0  0  0  0  0  0
  -13.6780    0.6203  -23.8377 N   0  0  0  0  0  0  0  0  0  0  0  0
  -14.1651   -5.9432  -22.5679 C   0  0  0  0  0  0  0  0  0  0  0  0
  -12.0993    0.3578  -25.5303 C   0  0  0  0  0  0  0  0  0  0  0  0
  -14.6586   -6.7289  -21.7151 O   0  0  0  0  0  0  0  0  0  0  0  0
  -15.9453   -4.3632  -20.5615 C   0  0  0  0  0  0  0  0  0  0  0  0
  -13.2508   -6.5981  -23.3859 N   0  0  0  0  0  0  0  0  0  0  0  0
  -13.9189   -2.4688  -23.9414 C   0  0  0  0  0  0  0  0  0  0  0  0
  -12.9650   -4.6707  -24.6811 C   0  0  0  0  0  0  0  0  0  0  0  0
  -13.4658   -1.7349  -25.1265 C   0  0  0  0  0  0  0  0  0  0  0  0
  -13.7872   -3.9067  -23.8178 C   0  0  0  0  0  0  0  0  0  0  0  0
  -16.2541   -3.2638  -19.6654 N   0  0  0  0  0  0  0  0  0  0  0  0
  -13.2480   -0.2358  -24.8559 C   0  0  0  0  0  0  0  0  0  0  0  0
  -15.4989   -4.4547  -17.7652 C   0  0  0  0  0  0  0  0  0  0  0  0
  -14.4335   -4.5466  -22.7533 C   0  0  0  0  0  0  0  0  0  0  0  0
  -16.4339   -5.4721  -20.2067 O   0  0  0  0  0  0  0  0  0  0  0  0
  -15.3740   -3.8642  -21.7667 C   0  0  0  0  0  0  0  0  0  0  0  0
  -14.0949   -1.7598  -22.8342 O   0  0  0  0  0  0  0  0  0  0  0  0
  -16.5178   -3.6489  -18.2461 C   0  0  0  0  0  0  0  0  0  0  0  0
  -12.6625   -6.0000  -24.3953 C   0  0  0  0  0  0  0  0  0  0  0  0
  -11.8043   -6.6576  -25.0812 O   0  0  0  0  0  0  0  0  0  0  0  0
  1 19  2  0
  2 13  1  0
  3  5  2  0
  3  7  1  0
  3 15  1  0
  4 13  1  0
  6 12  1  0
  6 16  2  0
  6 17  1  0
  7 20  1  0
  8 10  1  0
  8 11  1  0
  8 18  1  0
  9 11  2  0
  9 20  1  0
 10 13  1  0
 11 15  1  0
 12 19  1  0
 14 19  1  0
 15 17  2  3
 20 21  2  0
M  END
>  <ID>  (1) 
conformer_0

$$$$
