
     RDKit          3D

  6  6  0  0  0  0  0  0  0  0999 V2000
    6.0994  109.4638   24.1391 C   0  0  0  0  0  0  0  0  0  0  0  0
    4.7994  108.8638   24.3391 C   0  0  0  0  0  0  0  0  0  0  0  0
    6.8994  109.4638   25.2391 C   0  0  0  0  0  0  0  0  0  0  0  0
    4.6994  108.1638   25.5391 C   0  0  0  0  0  0  0  0  0  0  0  0
    6.6994  108.9638   26.4391 C   0  0  0  0  0  0  0  0  0  0  0  0
    5.3994  108.3638   26.6391 C   0  0  0  0  0  0  0  0  0  0  0  0
  2  1  2  0
  3  1  1  0
  4  2  1  0
  5  3  2  0
  6  4  2  0
  6  5  1  0
M  END
>  <ID>  (1) 
conformer_0

$$$$
