
     RDKit          3D

  7  7  0  0  0  0  0  0  0  0999 V2000
   -2.6093  109.2564   18.5489 C   0  0  0  0  0  0  0  0  0  0  0  0
   -2.9093  109.5564   19.9489 C   0  0  0  0  0  0  0  0  0  0  0  0
   -1.4093  108.4564   18.5489 C   0  0  0  0  0  0  0  0  0  0  0  0
   -0.9093  108.0564   19.8489 C   0  0  0  0  0  0  0  0  0  0  0  0
   -1.8093  109.0564   20.7489 C   0  0  0  0  0  0  0  0  0  0  0  0
   -2.2093  108.4564   22.0489 N   0  0  0  0  0  0  0  0  0  0  0  0
   -1.0093  107.9564   22.7489 C   0  0  0  0  0  0  0  0  0  0  0  0
  2  1  1  0
  3  1  1  0
  4  3  1  0
  5  2  1  0
  5  4  1  0
  6  5  1  0
  7  6  1  0
M  END
>  <ID>  (1) 
conformer_0

$$$$
