
     RDKit          3D

  7  8  0  0  0  0  0  0  0  0999 V2000
   -3.0511  109.6721   19.3848 C   0  0  0  0  0  0  0  0  0  0  0  0
   -2.5511  108.8721   18.4848 C   0  0  0  0  0  0  0  0  0  0  0  0
   -1.2511  108.2721   18.5848 C   0  0  0  0  0  0  0  0  0  0  0  0
   -0.6511  108.4721   19.7848 C   0  0  0  0  0  0  0  0  0  0  0  0
   -2.7511  109.3721   20.7848 C   0  0  0  0  0  0  0  0  0  0  0  0
   -1.5511  108.7721   20.9848 C   0  0  0  0  0  0  0  0  0  0  0  0
   -2.5511  107.9721   20.6848 O   0  0  0  0  0  0  0  0  0  0  0  0
  2  1  2  0
  3  2  1  0
  4  3  2  0
  5  1  1  0
  6  4  1  0
  6  5  2  0
  7  5  1  0
  7  6  1  0
M  END
>  <ID>  (1) 
conformer_0

$$$$
