
     RDKit          3D

 11 12  0  0  0  0  0  0  0  0999 V2000
    7.1404  109.8789   26.0994 N   0  0  0  0  0  0  0  0  0  0  0  0
    6.5404  109.4789   24.9994 C   0  0  0  0  0  0  0  0  0  0  0  0
    6.1404  110.2789   23.9994 N   0  0  0  0  0  2  0  0  0  0  0  0
    5.6404  108.2789   24.9994 C   0  0  0  0  0  0  0  0  0  0  0  0
    4.5404  108.5789   24.0994 C   0  0  0  0  0  0  0  0  0  0  0  0
    3.4404  107.6789   23.7994 C   0  0  0  0  0  0  0  0  0  0  0  0
    5.1404  109.4789   23.2994 O   0  0  0  0  0  0  0  0  0  0  0  0
    6.8404  108.2789   24.5994 N   0  0  0  0  0  0  0  0  0  0  0  0
    2.0404  107.7789   23.4994 N   0  0  0  0  0  0  0  0  0  0  0  0
    1.2404  106.5789   23.6994 C   0  0  0  0  0  0  0  0  0  0  0  0
    2.2404  105.4790   23.8994 C   0  0  0  0  0  0  0  0  0  0  0  0
  2  1  1  0
  3  2  1  0
  4  2  1  0
  5  4  2  0
  6  5  1  0
  7  3  1  0
  7  5  1  0
  8  2  1  0
  8  4  1  0
  9  6  2  3
 10  9  1  0
 11 10  1  0
M  END
>  <ID>  (1) 
conformer_0

$$$$
