
     RDKit          3D

 15 18  0  0  0  0  0  0  0  0999 V2000
    3.2835  106.5546   23.9932 C   0  0  0  0  0  0  0  0  0  0  0  0
    3.9835  107.8546   24.1932 C   0  0  0  0  0  0  0  0  0  0  0  0
    4.6835  107.9546   25.4932 C   0  0  0  0  0  0  0  0  0  0  0  0
    4.7835  106.5546   25.9932 C   0  0  0  0  0  0  0  0  0  0  0  0
    6.0835  108.4546   25.3932 C   0  0  0  0  0  0  0  0  0  0  0  0
    6.5835  109.3546   24.4932 C   0  0  0  0  0  0  0  0  0  0  0  0
    6.0835  110.5546   24.2932 N   0  0  0  0  0  0  0  0  0  0  0  0
    5.4835  109.5546   23.5932 C   0  0  0  0  0  0  0  0  0  0  0  0
    3.5835  105.7546   26.2932 C   0  0  0  0  0  0  0  0  0  0  0  0
    2.5835  106.1546   25.3932 C   0  0  0  0  0  0  0  0  0  0  0  0
    1.3835  105.3546   25.0932 C   0  0  0  0  0  0  0  0  0  0  0  0
    6.0835  106.0546   25.9932 N   0  0  0  0  0  0  0  0  0  0  0  0
    7.0835  106.6546   26.8932 C   0  0  0  0  0  0  0  0  0  0  0  0
    6.6835  108.1546   26.6932 N   0  0  0  0  0  0  0  0  0  0  0  0
    4.4835  108.7546   23.1932 C   0  0  0  0  0  0  0  0  0  0  0  0
  2  1  1  0
  3  2  1  0
  4  3  1  0
  5  3  1  0
  6  5  1  0
  7  6  1  0
  8  6  1  0
  8  7  1  0
  9  4  1  0
 10  1  1  0
 10  9  1  0
 11 10  1  0
 12  4  1  0
 13 12  1  0
 14  5  1  0
 14 13  1  0
 15  2  1  0
 15  8  1  0
M  END
>  <ID>  (1) 
conformer_0

$$$$
