
     RDKit          3D

  9  9  0  0  0  0  0  0  0  0999 V2000
    2.9521  106.8444   24.0793 C   0  0  0  0  0  0  0  0  0  0  0  0
    4.0521  107.8444   24.2793 C   0  0  0  0  0  0  0  0  0  0  0  0
    4.8521  107.5444   25.4793 C   0  0  0  0  0  0  0  0  0  0  0  0
    4.1521  106.4444   26.1793 C   0  0  0  0  0  0  0  0  0  0  0  0
    5.2521  108.6444   26.2793 C   0  0  0  0  0  0  0  0  0  0  0  0
    6.0521  109.7444   25.8793 N   0  0  0  0  0  0  0  0  0  0  0  0
    6.0521  109.7444   24.4793 C   0  0  0  0  0  0  0  0  0  0  0  0
    6.4521  110.3444   23.7793 N   0  0  0  0  0  0  0  0  0  0  0  0
    2.7521  106.1444   25.3793 C   0  0  0  0  0  0  0  0  0  0  0  0
  2  1  1  0
  3  2  1  0
  4  3  1  0
  5  3  1  0
  6  5  1  0
  7  6  1  0
  8  7  2  0
  9  1  1  0
  9  4  1  0
M  END
>  <ID>  (1) 
conformer_0

$$$$
