
     RDKit          3D

 13 15  0  0  0  0  0  0  0  0999 V2000
    2.9521  106.8444   24.0793 C   0  0  0  0  0  0  0  0  0  0  0  0
    4.0521  107.8444   24.2793 C   0  0  0  0  0  0  0  0  0  0  0  0
    4.8521  107.6444   25.4793 C   0  0  0  0  0  0  0  0  0  0  0  0
    4.3521  106.4444   26.1793 C   0  0  0  0  0  0  0  0  0  0  0  0
    5.4521  108.7444   26.2793 C   0  0  0  0  0  0  0  0  0  0  0  0
    5.8521  109.8444   25.3793 N   0  0  0  0  0  0  0  0  0  0  0  0
    6.1521  109.5444   24.1793 C   0  0  0  0  0  0  0  0  0  0  0  0
    6.8521  110.5444   23.5793 O   0  0  0  0  0  0  0  0  0  0  0  0
    3.1521  105.8444   25.1793 C   0  0  0  0  0  0  0  0  0  0  0  0
    6.9521  108.3444   24.2793 N   0  0  0  0  0  0  0  0  0  0  0  0
    7.6521  108.1444   25.4793 C   0  0  0  0  0  0  0  0  0  0  0  0
    6.8521  108.3444   26.6793 C   0  0  0  0  0  0  0  0  0  0  0  0
    7.9521  109.2444   26.1793 N   0  0  0  0  0  0  0  0  0  0  0  0
  2  1  2  0
  3  2  1  0
  4  3  2  0
  5  3  1  0
  6  5  1  0
  7  6  1  0
  8  7  1  0
  9  1  1  0
  9  4  1  0
 10  7  1  0
 11 10  1  0
 12  5  1  0
 12 11  1  0
 13 11  1  0
 13 12  1  0
M  END
>  <ID>  (1) 
conformer_0

$$$$
