
     RDKit          3D

 11 12  0  0  0  0  0  0  0  0999 V2000
    2.9521  106.8444   24.0793 C   0  0  0  0  0  0  0  0  0  0  0  0
    4.0521  107.8444   24.2793 C   0  0  0  0  0  0  0  0  0  0  0  0
    4.5521  107.8444   25.6793 C   0  0  0  0  0  0  0  0  0  0  0  0
    5.5521  108.9444   25.8793 C   0  0  0  0  0  0  0  0  0  0  0  0
    6.1521  109.3444   24.5793 C   0  0  0  0  0  0  0  0  0  0  0  0
    2.8521  105.9444   25.1793 C   0  0  0  0  0  0  0  0  0  0  0  0
    6.1521  110.6444   24.2793 N   0  0  0  0  0  0  0  0  0  0  0  0
    6.2521  109.5444   26.8793 N   0  0  0  0  0  0  0  0  0  0  0  0
    3.4521  105.7444   26.3793 C   0  0  0  0  0  0  0  0  0  0  0  0
    4.3521  105.4444   25.2793 C   0  0  0  0  0  0  0  0  0  0  0  0
    5.4521  109.6444   23.4793 C   0  0  0  0  0  0  0  0  0  0  0  0
  2  1  1  0
  3  2  1  0
  4  3  1  0
  5  4  1  0
  6  1  1  0
  7  5  1  0
  8  4  1  0
  9  6  1  0
 10  6  1  0
 10  9  1  0
 11  5  1  0
 11  7  1  0
M  END
>  <ID>  (1) 
conformer_0

$$$$
