
     RDKit          3D

 13 14  0  0  0  0  0  0  0  0999 V2000
    5.9209  109.8070   24.2407 C   0  0  0  0  0  0  0  0  0  0  0  0
    4.8209  108.9070   24.3407 C   0  0  0  0  0  0  0  0  0  0  0  0
    7.1209  109.3070   24.3407 C   0  0  0  0  0  0  0  0  0  0  0  0
    5.1209  107.8070   25.2407 C   0  0  0  0  0  0  0  0  0  0  0  0
    6.2209  108.1070   26.1407 C   0  0  0  0  0  0  0  0  0  0  0  0
    7.3209  108.5070   25.5407 C   0  0  0  0  0  0  0  0  0  0  0  0
    4.0209  107.1070   25.6407 C   0  0  0  0  0  0  0  0  0  0  0  0
    2.8209  107.1070   25.1407 N   0  0  0  0  0  0  0  0  0  0  0  0
    4.2209  106.1070   26.6407 N   0  0  0  0  0  0  0  0  0  0  0  0
    2.1209  106.4071   24.2407 C   0  0  0  0  0  0  0  0  0  0  0  0
    0.7209  106.4071   24.4407 N   0  0  0  0  0  0  0  0  0  0  0  0
    2.9209  107.5070   23.6407 C   0  0  0  0  0  0  0  0  0  0  0  0
    3.1209  105.1070   26.8407 C   0  0  0  0  0  0  0  0  0  0  0  0
  2  1  2  0
  3  1  1  0
  4  2  1  0
  5  4  2  0
  6  3  2  0
  6  5  1  0
  7  4  1  0
  8  7  1  0
  9  7  2  3
 10  8  1  0
 11 10  1  0
 12  8  1  0
 12 10  1  0
 13  9  1  0
M  END
>  <ID>  (1) 
conformer_0

$$$$
