
     RDKit          3D

 12 12  0  0  0  0  0  0  0  0999 V2000
    4.3004  108.4768   23.8772 C   0  0  0  0  0  0  0  0  0  0  0  0
    3.3004  107.5768   23.5772 C   0  0  0  0  0  0  0  0  0  0  0  0
    5.0004  108.7768   25.0772 C   0  0  0  0  0  0  0  0  0  0  0  0
    5.5004  110.1768   25.0772 N   0  0  0  0  0  0  0  0  0  0  0  0
    3.3004  106.5768   24.6772 C   0  0  0  0  0  0  0  0  0  0  0  0
    4.0004  106.7768   25.8772 C   0  0  0  0  0  0  0  0  0  0  0  0
    4.7004  107.9768   26.0772 C   0  0  0  0  0  0  0  0  0  0  0  0
    2.1004  105.7768   24.5772 C   0  0  0  0  0  0  0  0  0  0  0  0
    0.8004  106.3768   24.4772 N   0  0  0  0  0  0  0  0  0  0  0  0
    0.7004  107.0768   23.1772 C   0  0  0  0  0  0  0  0  0  0  0  0
   -0.4996  107.7767   23.1772 N   0  0  0  0  0  0  0  0  0  0  0  0
   -0.2996  109.1768   22.8772 O   0  0  0  0  0  0  0  0  0  0  0  0
  2  1  2  0
  3  1  1  0
  4  3  1  0
  5  2  1  0
  6  5  2  0
  7  3  2  0
  7  6  1  0
  8  5  1  0
  9  8  1  0
 10  9  1  0
 11 10  1  0
 12 11  1  0
M  END
>  <ID>  (1) 
conformer_0

$$$$
