
     RDKit          3D

 15 16  0  0  0  0  0  0  0  0999 V2000
    7.0240  110.2292   26.2096 N   0  0  0  0  0  0  0  0  0  0  0  0
    6.4240  109.4292   25.3096 C   0  0  0  0  0  0  0  0  0  0  0  0
    5.8240  110.0292   24.2096 N   0  0  0  0  0  0  0  0  0  0  0  0
    5.9240  108.1292   25.7096 C   0  0  0  0  0  3  0  0  0  0  0  0
    4.7240  107.8292   25.0096 C   0  0  0  0  0  0  0  0  0  0  0  0
    4.2240  108.4292   24.0096 C   0  0  0  0  0  0  0  0  0  0  0  0
    3.1240  107.7292   23.4096 C   0  0  0  0  0  0  0  0  0  0  0  0
    2.1240  107.0292   24.2096 N   0  0  0  0  0  0  0  0  0  0  0  0
    0.9240  106.6292   23.4096 C   0  0  0  0  0  0  0  0  0  0  0  0
   -0.1760  106.8292   24.2096 N   0  0  0  0  0  0  0  0  0  0  0  0
    1.2240  105.5292   22.8096 O   0  0  0  0  0  0  0  0  0  0  0  0
    5.2240  109.2292   23.5096 N   0  0  0  0  0  0  0  0  0  0  0  0
   -1.3760  107.5292   23.8096 C   0  0  0  0  0  0  0  0  0  0  0  0
   -1.1760  108.6292   22.8096 C   0  0  0  0  0  0  0  0  0  0  0  0
    6.6240  109.2292   24.0096 C   0  0  0  0  0  0  0  0  0  0  0  0
  2  1  1  0
  3  2  1  0
  4  2  1  0
  5  4  1  0
  6  5  2  0
  7  6  1  0
  8  7  1  0
  9  8  1  0
 10  9  1  0
 11  9  1  0
 12  6  1  0
 13 10  1  0
 14 13  1  0
 15  2  1  0
 15  3  1  0
 15 12  1  0
M  END
>  <ID>  (1) 
conformer_0

$$$$
