
     RDKit          3D

 15 15  0  0  0  0  0  0  0  0999 V2000
    7.1404  109.8789   26.0994 N   0  0  0  0  0  0  0  0  0  0  0  0
    6.5404  109.4789   24.9994 C   0  0  0  0  0  0  0  0  0  0  0  0
    6.1404  110.2789   23.9994 N   0  0  0  0  0  0  0  0  0  0  0  0
    5.6404  108.2789   24.9994 C   0  0  0  0  0  0  0  0  0  0  0  0
    4.5404  108.5789   24.0994 C   0  0  0  0  0  0  0  0  0  0  0  0
    3.5404  107.5789   23.9994 C   0  0  0  0  0  0  0  0  0  0  0  0
    2.2404  107.6789   23.6994 N   0  0  0  0  0  0  0  0  0  0  0  0
    3.9404  106.4790   24.7994 N   0  0  0  0  0  0  0  0  0  0  0  0
    5.1404  109.5789   23.2994 O   0  0  0  0  0  0  0  0  0  0  0  0
    1.3404  106.6789   23.3994 C   0  0  0  0  0  0  0  0  0  0  0  0
   -0.0596  107.0789   23.6994 N   0  0  0  0  0  0  0  0  0  0  0  0
    1.7404  105.5789   22.9994 O   0  0  0  0  0  0  0  0  0  0  0  0
    2.8404  105.7790   25.1994 C   0  0  0  0  0  0  0  0  0  0  0  0
    2.9404  105.2790   26.5994 C   0  0  0  0  0  0  0  0  0  0  0  0
    5.4404  107.7789   26.1994 O   0  0  0  0  0  0  0  0  0  0  0  0
  2  1  1  0
  3  2  2  0
  4  2  1  0
  5  4  2  0
  6  5  1  0
  7  6  2  3
  8  6  1  0
  9  3  1  0
  9  5  1  0
 10  7  1  0
 11 10  1  0
 12 10  2  0
 13  8  1  0
 14 13  1  0
 15  4  1  0
M  END
>  <ID>  (1) 
conformer_0

$$$$
