
     RDKit          3D

 10 10  0  0  0  0  0  0  0  0999 V2000
    4.3388  108.4009   23.9961 C   0  0  0  0  0  0  0  0  0  0  0  0
    3.2388  107.6009   23.7961 C   0  0  0  0  0  0  0  0  0  0  0  0
    5.1388  108.4009   25.0961 C   0  0  0  0  0  0  0  0  0  0  0  0
    5.0388  107.1009   25.7961 C   0  0  0  0  0  0  0  0  0  0  0  0
    3.0388  106.6009   24.7961 C   0  0  0  0  0  0  0  0  0  0  0  0
    3.8388  106.4009   25.8961 C   0  0  0  0  0  0  0  0  0  0  0  0
    6.5388  108.8009   24.9961 C   0  0  0  0  0  0  0  0  0  0  0  0
    7.0388  109.9009   25.5961 N   0  0  0  0  0  0  0  0  0  0  0  0
    1.8388  105.7009   24.7961 C   0  0  0  0  0  0  0  0  0  0  0  0
    6.5388  109.9009   24.1961 N   0  0  0  0  0  0  0  0  0  0  0  0
  2  1  2  0
  3  1  1  0
  4  3  2  0
  5  2  1  0
  6  4  1  0
  6  5  2  0
  7  3  1  0
  8  7  2  0
  9  5  1  0
 10  7  1  0
M  END
>  <ID>  (1) 
conformer_0

$$$$
