
     RDKit          3D

 14 14  0  0  0  0  0  0  0  0999 V2000
    6.1221  110.5003   24.3403 N   0  0  0  0  0  0  0  0  0  0  0  0
    5.5221  109.3003   24.5403 C   0  0  0  0  0  0  0  0  0  0  0  0
    4.4221  108.6003   24.0403 C   0  0  0  0  0  0  0  0  0  0  0  0
    3.8221  107.6003   24.7404 C   0  0  0  0  0  0  0  0  0  0  0  0
    6.0221  108.6003   25.7404 C   0  0  0  0  0  0  0  0  0  0  0  0
    2.9221  106.7003   24.0403 C   0  0  0  0  0  0  0  0  0  0  0  0
    1.6221  106.5003   24.6404 N   0  0  0  0  0  0  0  0  0  0  0  0
    0.4221  106.8003   23.9403 N   0  0  0  0  0  0  0  0  0  0  0  0
    0.2221  107.6003   22.7403 C   0  0  0  0  0  0  0  0  0  0  0  0
   -0.2779  108.8003   22.7403 O   0  0  0  0  0  0  0  0  0  0  0  0
    6.9221  109.4003   26.4404 N   0  0  0  0  0  0  0  0  0  0  0  0
    5.5221  107.5003   26.4404 C   0  0  0  0  0  0  0  0  0  0  0  0
    0.2221  106.9004   21.7403 O   0  0  0  0  0  0  0  0  0  0  0  0
    4.3221  107.1003   25.9404 C   0  0  0  0  0  0  0  0  0  0  0  0
  2  1  1  0
  3  2  2  0
  4  3  1  0
  5  2  1  0
  6  4  1  0
  7  6  1  0
  8  7  1  0
  9  8  1  0
 10  9  2  0
 11  5  1  0
 12  5  2  0
 13  9  1  0
 14  4  2  0
 14 12  1  0
M  END
>  <ID>  (1) 
conformer_0

$$$$
