
     RDKit          3D

 11 12  0  0  0  0  0  0  0  0999 V2000
    4.3004  108.4768   23.8772 C   0  0  0  0  0  0  0  0  0  0  0  0
    3.2004  107.4768   23.8772 C   0  0  0  0  0  0  0  0  0  0  0  0
    4.8004  108.7768   25.0772 C   0  0  0  0  0  0  0  0  0  0  0  0
    3.2004  106.7768   25.0772 C   0  0  0  0  0  0  0  0  0  0  0  0
    4.2004  106.5768   25.9772 C   0  0  0  0  0  0  0  0  0  0  0  0
    5.8004  109.8768   25.2772 N   0  0  0  0  0  0  0  0  0  0  0  0
    5.2004  107.5768   25.7772 C   0  0  0  0  0  0  0  0  0  0  0  0
    7.0004  109.4768   24.5772 C   0  0  0  0  0  0  0  0  0  0  0  0
    7.5004  109.8768   23.6772 O   0  0  0  0  0  0  0  0  0  0  0  0
    7.0004  109.2768   25.9772 C   0  0  0  0  0  0  0  0  0  0  0  0
    7.8004  110.1768   26.6772 N   0  0  0  0  0  0  0  0  0  0  0  0
  2  1  2  0
  3  1  1  0
  4  2  1  0
  5  4  2  0
  6  3  1  0
  7  3  2  0
  7  5  1  0
  8  6  1  0
  9  8  2  0
 10  6  1  0
 10  8  1  0
 11 10  1  0
M  END
>  <ID>  (1) 
conformer_0

$$$$
