
     RDKit          3D

  8  8  0  0  0  0  0  0  0  0999 V2000
    6.1382  109.8626   24.1868 C   0  0  0  0  0  0  0  0  0  0  0  0
    6.8382  109.9626   25.3868 N   0  0  0  0  0  0  0  0  0  0  0  0
    5.1382  108.8626   23.9868 C   0  0  0  0  0  0  0  0  0  0  0  0
    4.3382  108.1626   24.7868 C   0  0  0  0  0  0  0  0  0  0  0  0
    6.3382  110.8626   23.2868 N   0  0  0  0  0  0  0  0  0  0  0  0
    3.5382  107.1626   24.2868 C   0  0  0  0  0  0  0  0  0  0  0  0
    3.4382  105.8626   24.9868 C   0  0  0  0  0  0  0  0  0  0  0  0
    2.3382  106.8626   24.9868 N   0  0  0  0  0  0  0  0  0  0  0  0
  2  1  2  0
  3  1  1  0
  4  3  2  3
  5  1  1  0
  6  4  1  0
  7  6  1  0
  8  6  1  0
  8  7  1  0
M  END
>  <ID>  (1) 
conformer_0

$$$$
