
     RDKit          3D

 12 12  0  0  0  0  0  0  0  0999 V2000
    6.1221  110.5003   24.3403 N   0  0  0  0  0  0  0  0  0  0  0  0
    5.5221  109.3003   24.5403 C   0  0  0  0  0  0  0  0  0  0  0  0
    4.4221  108.6003   24.0403 C   0  0  0  0  0  0  0  0  0  0  0  0
    3.8221  107.6003   24.7404 C   0  0  0  0  0  0  0  0  0  0  0  0
    6.0221  108.6003   25.7404 C   0  0  0  0  0  0  0  0  0  0  0  0
    4.5221  106.8003   25.5403 C   0  0  0  0  0  0  0  0  0  0  0  0
    5.6221  107.4003   26.3403 C   0  0  0  0  0  0  0  0  0  0  0  0
    6.8221  109.6003   26.4404 N   0  0  0  0  0  0  0  0  0  0  0  0
    7.5221  109.4003   27.6404 C   0  0  0  0  0  0  0  0  0  0  0  0
    8.2221  110.3003   28.5404 C   0  0  0  0  0  0  0  0  0  0  0  0
    7.7221  108.1003   28.0404 O   0  0  0  0  0  0  0  0  0  0  0  0
    8.4221  107.7003   29.1404 C   0  0  0  0  0  0  0  0  0  0  0  0
  2  1  1  0
  3  2  2  0
  4  3  1  0
  5  2  1  0
  6  4  2  0
  7  5  2  0
  7  6  1  0
  8  5  1  0
  9  8  1  0
 10  9  1  0
 11  9  1  0
 12 11  1  0
M  END
>  <ID>  (1) 
conformer_0

$$$$
