
     RDKit          3D

 10 10  0  0  0  0  0  0  0  0999 V2000
    4.3004  108.4768   23.8772 C   0  0  0  0  0  0  0  0  0  0  0  0
    3.2004  107.4768   23.8772 C   0  0  0  0  0  0  0  0  0  0  0  0
    4.8004  108.7768   25.0772 C   0  0  0  0  0  0  0  0  0  0  0  0
    3.3004  106.6768   25.0772 C   0  0  0  0  0  0  0  0  0  0  0  0
    4.2004  106.7768   26.0772 C   0  0  0  0  0  0  0  0  0  0  0  0
    5.2004  107.6768   25.9772 C   0  0  0  0  0  0  0  0  0  0  0  0
    5.8004  109.8768   25.2772 N   0  0  0  0  0  0  0  0  0  0  0  0
    7.0004  109.4768   26.0772 C   0  0  0  0  0  0  0  0  0  0  0  0
    7.8004  110.3768   26.7772 N   0  0  0  0  0  0  0  0  0  0  0  0
    7.7004  108.6768   25.1772 N   0  0  0  0  0  0  0  0  0  0  0  0
  2  1  2  0
  3  1  1  0
  4  2  1  0
  5  4  2  0
  6  3  2  0
  6  5  1  0
  7  3  1  0
  8  7  1  0
  9  8  1  0
 10  8  1  0
M  END
>  <ID>  (1) 
conformer_0

$$$$
