
     RDKit          3D

 11 13  0  0  0  0  0  0  0  0999 V2000
    2.9521  106.8444   24.0793 C   0  0  0  0  0  0  0  0  0  0  0  0
    4.0521  107.8444   24.2793 C   0  0  0  0  0  0  0  0  0  0  0  0
    4.8521  107.6444   25.4793 C   0  0  0  0  0  0  0  0  0  0  0  0
    4.3521  106.4444   26.1793 C   0  0  0  0  0  0  0  0  0  0  0  0
    5.4521  108.7444   26.2793 C   0  0  0  0  0  0  0  0  0  0  0  0
    5.8521  109.8444   25.3793 N   0  0  0  0  0  0  0  0  0  0  0  0
    6.0521  109.3444   24.0793 C   0  0  0  0  0  0  0  0  0  0  0  0
    6.6521  110.3444   23.4793 O   0  0  0  0  0  0  0  0  0  0  0  0
    3.2521  105.9444   25.1793 C   0  0  0  0  0  0  0  0  0  0  0  0
    4.7521  108.8444   23.6793 C   0  0  0  0  0  0  0  0  0  0  0  0
    6.2521  107.5444   25.7793 C   0  0  0  0  0  0  0  0  0  0  0  0
  2  1  2  0
  3  2  1  0
  4  3  1  0
  5  3  1  0
  6  5  1  0
  7  6  1  0
  8  7  1  0
  9  1  1  0
  9  4  2  0
 10  2  1  0
 10  7  1  0
 11  3  1  0
 11  5  1  0
M  END
>  <ID>  (1) 
conformer_0

$$$$
