
     RDKit          3D

 10 10  0  0  0  0  0  0  0  0999 V2000
    5.9209  109.8070   24.2407 C   0  0  0  0  0  0  0  0  0  0  0  0
    4.8209  108.9070   24.3407 C   0  0  0  0  0  0  0  0  0  0  0  0
    7.1209  109.3070   24.4407 C   0  0  0  0  0  0  0  0  0  0  0  0
    5.2209  107.8070   25.2407 C   0  0  0  0  0  0  0  0  0  0  0  0
    5.9209  108.3070   26.4407 C   0  0  0  0  0  0  0  0  0  0  0  0
    8.3209  109.2070   23.8407 N   0  0  0  0  0  0  0  0  0  0  0  0
    4.2209  106.7070   25.3407 C   0  0  0  0  0  0  0  0  0  0  0  0
    3.2209  106.9070   24.2407 C   0  0  0  0  0  0  0  0  0  0  0  0
    1.9209  106.9070   24.3407 N   0  0  0  0  0  0  0  0  0  0  0  0
    7.2209  108.9070   25.8407 C   0  0  0  0  0  0  0  0  0  0  0  0
  2  1  2  0
  3  1  1  0
  4  2  1  0
  5  4  2  0
  6  3  1  0
  7  4  1  0
  8  7  1  0
  9  8  2  0
 10  3  2  0
 10  5  1  0
M  END
>  <ID>  (1) 
conformer_0

$$$$
