
     RDKit          3D

  9  9  0  0  0  0  0  0  0  0999 V2000
    2.9521  106.8444   24.0793 C   0  0  0  0  0  0  0  0  0  0  0  0
    4.0521  107.8444   24.2793 C   0  0  0  0  0  0  0  0  0  0  0  0
    4.5521  107.8444   25.6793 C   0  0  0  0  0  0  0  0  0  0  0  0
    2.7521  106.1444   25.3793 C   0  0  0  0  0  0  0  0  0  0  0  0
    3.9521  106.4444   26.1793 C   0  0  0  0  0  0  0  0  0  0  0  0
    5.9521  107.9444   25.9793 N   0  0  0  0  0  0  0  0  0  0  0  0
    6.5521  108.9444   26.7793 C   0  0  0  0  0  0  0  0  0  0  0  0
    7.1521  110.0444   26.0793 N   0  0  0  0  0  0  0  0  0  0  0  0
    7.1521  108.5444   27.7793 O   0  0  0  0  0  0  0  0  0  0  0  0
  2  1  1  0
  3  2  1  0
  4  1  1  0
  5  3  1  0
  5  4  1  0
  6  3  1  0
  7  6  1  0
  8  7  1  0
  9  7  2  0
M  END
>  <ID>  (1) 
conformer_0

$$$$
