
     RDKit          3D

 13 15  0  0  0  0  0  0  0  0999 V2000
    2.9521  106.8444   24.0793 C   0  0  0  0  0  0  0  0  0  0  0  0
    3.7521  108.0444   23.9793 C   0  0  0  0  0  0  0  0  0  0  0  0
    4.6521  108.3444   25.0793 C   0  0  0  0  0  0  0  0  0  0  0  0
    5.5521  109.4444   25.0793 C   0  0  0  0  0  0  0  0  0  0  0  0
    6.8521  109.3444   25.7793 C   0  0  0  0  0  0  0  0  0  0  0  0
    3.0521  106.1444   25.3793 C   0  0  0  0  0  0  0  0  0  0  0  0
    5.8521  110.1444   23.8793 N   0  0  0  0  0  0  0  0  0  0  0  0
    7.7521  109.4444   24.6793 N   0  0  0  0  0  0  0  0  0  0  0  0
    7.1521  110.0444   23.6793 N   0  0  0  0  0  0  0  0  0  0  0  0
    7.1521  108.4444   26.7793 C   0  0  0  0  0  0  0  0  0  0  0  0
    4.3521  106.0444   26.0793 C   0  0  0  0  0  0  0  0  0  0  0  0
    5.0521  107.2444   25.9793 C   0  0  0  0  0  0  0  0  0  0  0  0
    5.9521  107.5444   27.0793 C   0  0  0  0  0  0  0  0  0  0  0  0
  2  1  1  0
  3  2  1  0
  4  3  2  0
  5  4  1  0
  6  1  1  0
  7  4  1  0
  8  5  2  0
  9  7  2  0
  9  8  1  0
 10  5  1  0
 11  6  1  0
 12  3  1  0
 12 11  1  0
 13 10  2  0
 13 12  1  0
M  END
>  <ID>  (1) 
conformer_0

$$$$
