
     RDKit          3D

  7  7  0  0  0  0  0  0  0  0999 V2000
    2.9521  106.8444   24.0793 C   0  0  0  0  0  0  0  0  0  0  0  0
    4.0521  107.8444   24.2793 C   0  0  0  0  0  0  0  0  0  0  0  0
    4.8521  107.5444   25.4793 C   0  0  0  0  0  0  0  0  0  0  0  0
    4.1521  106.4444   26.1793 C   0  0  0  0  0  0  0  0  0  0  0  0
    5.1521  108.7444   26.2793 C   0  0  0  0  0  0  0  0  0  0  0  0
    5.9521  109.6444   25.5793 N   0  0  0  0  0  0  0  0  0  0  0  0
    2.8521  106.0444   25.2793 C   0  0  0  0  0  0  0  0  0  0  0  0
  2  1  1  0
  3  2  1  0
  4  3  1  0
  5  3  1  0
  6  5  1  0
  7  1  2  0
  7  4  1  0
M  END
>  <ID>  (1) 
conformer_0

$$$$
