
     RDKit          3D

 10 10  0  0  0  0  0  0  0  0999 V2000
    4.2388  108.0904   24.1814 C   0  0  0  0  0  0  0  0  0  0  0  0
    5.1388  109.0904   24.3814 C   0  0  0  0  0  0  0  0  0  0  0  0
    4.0388  106.9904   24.9814 C   0  0  0  0  0  0  0  0  0  0  0  0
    4.8388  106.9904   26.1814 C   0  0  0  0  0  0  0  0  0  0  0  0
    5.6388  109.1904   25.6814 C   0  0  0  0  0  0  0  0  0  0  0  0
    6.7388  110.0904   25.7814 N   0  0  0  0  0  0  0  0  0  0  0  0
    5.5388  108.1904   26.6814 C   0  0  0  0  0  0  0  0  0  0  0  0
    3.0388  105.9904   24.7814 C   0  0  0  0  0  0  0  0  0  0  0  0
    1.7388  106.4904   24.5814 N   0  0  0  0  0  0  0  0  0  0  0  0
    2.9388  104.8904   25.4814 N   0  0  0  0  0  0  0  0  0  0  0  0
  2  1  2  0
  3  1  1  0
  4  3  2  0
  5  2  1  0
  6  5  1  0
  7  4  1  0
  7  5  2  0
  8  3  1  0
  9  8  2  0
 10  8  1  0
M  END
>  <ID>  (1) 
conformer_0

$$$$
