
     RDKit          3D

 11 12  0  0  0  0  0  0  0  0999 V2000
    4.3004  108.4768   23.8772 C   0  0  0  0  0  0  0  0  0  0  0  0
    3.3004  107.5768   23.5772 C   0  0  0  0  0  0  0  0  0  0  0  0
    4.8004  108.4768   25.1772 C   0  0  0  0  0  0  0  0  0  0  0  0
    3.0004  106.4768   24.3772 C   0  0  0  0  0  0  0  0  0  0  0  0
    4.7004  107.2768   25.9772 C   0  0  0  0  0  0  0  0  0  0  0  0
    3.8004  106.2768   25.4772 C   0  0  0  0  0  0  0  0  0  0  0  0
    5.7004  109.4768   25.4772 N   0  0  0  0  0  0  0  0  0  0  0  0
    6.5004  109.0768   26.6772 C   0  0  0  0  0  0  0  0  0  0  0  0
    7.6004  109.9768   26.6772 N   0  0  0  0  0  0  0  0  0  0  0  0
    6.2004  108.0768   27.6772 C   0  0  0  0  0  0  0  0  0  0  0  0
    5.3004  106.9768   27.1772 C   0  0  0  0  0  0  0  0  0  0  0  0
  2  1  2  0
  3  1  1  0
  4  2  1  0
  5  3  2  0
  6  4  2  0
  6  5  1  0
  7  3  1  0
  8  7  2  0
  9  8  1  0
 10  8  1  0
 11  5  1  0
 11 10  2  0
M  END
>  <ID>  (1) 
conformer_0

$$$$
