
     RDKit          3D

 10 12  0  0  0  0  0  0  0  0999 V2000
    4.3004  108.4768   23.8772 C   0  0  0  0  0  0  0  0  0  0  0  0
    3.3004  107.5768   23.5772 C   0  0  0  0  0  0  0  0  0  0  0  0
    4.8004  108.4768   25.1772 C   0  0  0  0  0  0  0  0  0  0  0  0
    3.0004  106.4768   24.3772 C   0  0  0  0  0  0  0  0  0  0  0  0
    4.7004  107.2768   25.9772 C   0  0  0  0  0  0  0  0  0  0  0  0
    3.6004  106.4768   25.6772 C   0  0  0  0  0  0  0  0  0  0  0  0
    5.7004  109.4768   25.6772 N   0  0  0  0  0  0  0  0  0  0  0  0
    6.2004  108.9768   26.9772 C   0  0  0  0  0  0  0  0  0  0  0  0
    5.6004  107.6768   27.2772 C   0  0  0  0  0  0  0  0  0  0  0  0
    6.7004  107.9768   26.9772 O   0  0  0  0  0  0  0  0  0  0  0  0
  2  1  2  0
  3  1  1  0
  4  2  1  0
  5  3  2  0
  6  4  2  0
  6  5  1  0
  7  3  1  0
  8  7  1  0
  9  5  1  0
  9  8  1  0
 10  8  1  0
 10  9  1  0
M  END
>  <ID>  (1) 
conformer_0

$$$$
