
     RDKit          3D

 12 12  0  0  0  0  0  0  0  0999 V2000
    5.9209  109.8070   24.2407 C   0  0  0  0  0  0  0  0  0  0  0  0
    4.8209  108.9070   24.3407 C   0  0  0  0  0  0  0  0  0  0  0  0
    7.0209  109.6070   25.0407 C   0  0  0  0  0  0  0  0  0  0  0  0
    4.9209  107.9070   25.3407 C   0  0  0  0  0  0  0  0  0  0  0  0
    5.7209  108.2070   26.5407 C   0  0  0  0  0  0  0  0  0  0  0  0
    6.7209  109.1070   26.3407 C   0  0  0  0  0  0  0  0  0  0  0  0
    3.8209  107.0070   25.4407 C   0  0  0  0  0  0  0  0  0  0  0  0
    2.6209  107.2070   24.7407 N   0  0  0  0  0  0  0  0  0  0  0  0
    3.9209  105.8070   26.0407 N   0  0  0  0  0  0  0  0  0  0  0  0
    2.0209  106.1070   24.1407 C   0  0  0  0  0  0  0  0  0  0  0  0
    3.0209  105.4070   23.3407 O   0  0  0  0  0  0  0  0  0  0  0  0
    0.8209  106.5070   23.3407 C   0  0  0  0  0  0  0  0  0  0  0  0
  2  1  2  0
  3  1  1  0
  4  2  1  0
  5  4  2  0
  6  3  2  0
  6  5  1  0
  7  4  1  0
  8  7  1  0
  9  7  2  0
 10  8  1  0
 11 10  1  0
 12 10  1  0
M  END
>  <ID>  (1) 
conformer_0

$$$$
