
     RDKit          3D

  9  9  0  0  0  0  0  0  0  0999 V2000
    4.3004  108.4768   23.8772 C   0  0  0  0  0  0  0  0  0  0  0  0
    3.3004  107.4768   23.7772 C   0  0  0  0  0  0  0  0  0  0  0  0
    5.1004  108.8768   24.8772 C   0  0  0  0  0  0  0  0  0  0  0  0
    5.7004  110.1768   24.8772 N   0  0  0  0  0  0  0  0  0  0  0  0
    3.2004  106.6768   24.9772 C   0  0  0  0  0  0  0  0  0  0  0  0
    4.3004  106.7768   25.7772 C   0  0  0  0  0  0  0  0  0  0  0  0
    4.9004  108.1768   25.9772 C   0  0  0  0  0  0  0  0  0  0  0  0
    2.1004  105.7768   25.2772 C   0  0  0  0  0  0  0  0  0  0  0  0
    0.8004  106.1768   24.8772 N   0  0  0  0  0  0  0  0  0  0  0  0
  2  1  2  0
  3  1  1  0
  4  3  1  0
  5  2  1  0
  6  5  2  0
  7  3  2  0
  7  6  1  0
  8  5  1  0
  9  8  1  0
M  END
>  <ID>  (1) 
conformer_0

$$$$
