
     RDKit          3D

  7  7  0  0  0  0  0  0  0  0999 V2000
    6.0922  110.6224   23.6387 N   0  0  0  0  0  0  0  0  0  0  0  0
    5.8922  109.5224   24.2387 C   0  0  0  0  0  0  0  0  0  0  0  0
    4.6922  108.7224   24.4387 C   0  0  0  0  0  0  0  0  0  0  0  0
    4.5922  107.8224   25.3387 C   0  0  0  0  0  0  0  0  0  0  0  0
    6.9922  108.8224   24.9387 C   0  0  0  0  0  0  0  0  0  0  0  0
    6.7922  108.0224   26.0387 C   0  0  0  0  0  0  0  0  0  0  0  0
    5.4922  107.4224   26.3387 C   0  0  0  0  0  0  0  0  0  0  0  0
  2  1  1  0
  3  2  2  0
  4  3  1  0
  5  2  1  0
  6  5  2  0
  7  4  2  0
  7  6  1  0
M  END
>  <ID>  (1) 
conformer_0

$$$$
