
     RDKit          3D

 14 16  0  0  0  0  0  0  0  0999 V2000
    2.9521  106.8444   24.0793 C   0  0  0  0  0  0  0  0  0  0  0  0
    3.7521  108.0444   23.9793 C   0  0  0  0  0  0  0  0  0  0  0  0
    4.6521  108.3444   25.0793 C   0  0  0  0  0  0  0  0  0  0  0  0
    5.5521  109.4444   25.0793 C   0  0  0  0  0  0  0  0  0  0  0  0
    6.8521  109.3444   25.7793 C   0  0  0  0  0  0  0  0  0  0  0  0
    3.0521  106.1444   25.3793 C   0  0  0  0  0  0  0  0  0  0  0  0
    5.7521  110.2444   23.8793 N   0  0  0  0  0  0  0  0  0  0  0  0
    6.9521  108.5444   26.8793 C   0  0  0  0  0  0  0  0  0  0  0  0
    8.0521  108.8444   27.7793 C   0  0  0  0  0  0  0  0  0  0  0  0
    9.2521  108.7444   27.2793 C   0  0  0  0  0  0  0  0  0  0  0  0
    7.5521  108.2444   25.6793 N   0  0  0  0  0  0  0  0  0  0  0  0
    8.7521  109.9444   27.1793 N   0  0  0  0  0  0  0  0  0  0  0  0
    4.1521  106.1444   26.2793 C   0  0  0  0  0  0  0  0  0  0  0  0
    4.8521  107.4444   26.3793 C   0  0  0  0  0  0  0  0  0  0  0  0
  2  1  1  0
  3  2  2  0
  4  3  1  0
  5  4  1  0
  6  1  1  0
  7  4  1  0
  8  5  1  0
  9  8  1  0
 10  9  1  0
 11  5  1  0
 11  8  1  0
 12  9  1  0
 12 10  2  0
 13  6  1  0
 14  3  1  0
 14 13  1  0
M  END
>  <ID>  (1) 
conformer_0

$$$$
