
     RDKit          3D

 10 11  0  0  0  0  0  0  0  0999 V2000
    2.9521  106.8444   24.0793 C   0  0  0  0  0  0  0  0  0  0  0  0
    3.7521  108.0444   23.9793 C   0  0  0  0  0  0  0  0  0  0  0  0
    4.6521  108.3444   25.0793 C   0  0  0  0  0  0  0  0  0  0  0  0
    5.5521  109.4444   25.0793 C   0  0  0  0  0  0  0  0  0  0  0  0
    6.8521  109.4444   25.4793 C   0  0  0  0  0  0  0  0  0  0  0  0
    3.0521  106.3444   25.4793 C   0  0  0  0  0  0  0  0  0  0  0  0
    7.3521  108.4444   26.2793 C   0  0  0  0  0  0  0  0  0  0  0  0
    6.8521  107.1444   25.9793 C   0  0  0  0  0  0  0  0  0  0  0  0
    5.4521  107.0444   25.4793 C   0  0  0  0  0  0  0  0  0  0  0  0
    4.5521  106.0444   25.8793 N   0  0  0  0  0  0  0  0  0  0  0  0
  2  1  1  0
  3  2  1  0
  4  3  1  0
  5  4  1  0
  6  1  1  0
  7  5  1  0
  8  7  1  0
  9  3  1  0
  9  8  1  0
 10  6  1  0
 10  9  1  0
M  END
>  <ID>  (1) 
conformer_0

$$$$
