
     RDKit          3D

 10 10  0  0  0  0  0  0  0  0999 V2000
    4.3004  108.4768   23.8772 C   0  0  0  0  0  0  0  0  0  0  0  0
    3.3004  107.5768   23.5772 C   0  0  0  0  0  0  0  0  0  0  0  0
    4.8004  108.4768   25.1772 C   0  0  0  0  0  0  0  0  0  0  0  0
    3.0004  106.4768   24.3772 C   0  0  0  0  0  0  0  0  0  0  0  0
    3.7004  106.4768   25.6772 C   0  0  0  0  0  0  0  0  0  0  0  0
    4.5004  107.4768   26.0772 C   0  0  0  0  0  0  0  0  0  0  0  0
    5.4004  109.6768   25.7772 N   0  0  0  0  0  0  0  0  0  0  0  0
    6.1004  110.1768   24.5772 C   0  0  0  0  0  0  0  0  0  0  0  0
    7.1004  109.7768   23.9772 N   0  0  0  0  0  0  0  0  0  0  0  0
    2.7004  105.1768   23.7772 N   0  0  0  0  0  0  0  0  0  0  0  0
  2  1  2  0
  3  1  1  0
  4  2  1  0
  5  4  2  0
  6  3  2  0
  6  5  1  0
  7  3  1  0
  8  7  1  0
  9  8  2  0
 10  4  1  0
M  END
>  <ID>  (1) 
conformer_0

$$$$
