
     RDKit          3D

 10 10  0  0  0  0  0  0  0  0999 V2000
    7.3288  110.0310   26.0880 N   0  0  0  0  0  0  0  0  0  0  0  0
    6.7288  109.7310   24.7880 C   0  0  0  0  0  0  0  0  0  0  0  0
    5.9288  110.9310   24.3880 N   0  0  0  0  0  0  0  0  0  0  0  0
    5.7288  108.6310   24.9880 C   0  0  0  0  0  0  0  0  0  0  0  0
    4.5288  108.7310   24.2880 C   0  0  0  0  0  0  0  0  0  0  0  0
    5.8288  107.9310   26.1880 C   0  0  0  0  0  0  0  0  0  0  0  0
    3.7288  107.6310   24.2880 C   0  0  0  0  0  0  0  0  0  0  0  0
    3.8288  106.6310   25.3880 C   0  0  0  0  0  0  0  0  0  0  0  0
    3.4288  105.4310   25.1880 N   0  0  0  0  0  0  0  0  0  0  0  0
    5.0288  106.7310   26.1880 C   0  0  0  0  0  0  0  0  0  0  0  0
  2  1  1  0
  3  2  1  0
  4  2  1  0
  5  4  2  0
  6  4  1  0
  7  5  1  0
  8  7  2  0
  9  8  1  0
 10  6  2  0
 10  8  1  0
M  END
>  <ID>  (1) 
conformer_0

$$$$
