
     RDKit          3D

  9  9  0  0  0  0  0  0  0  0999 V2000
    7.1404  109.8789   26.0994 N   0  0  0  0  0  0  0  0  0  0  0  0
    6.5404  109.4789   24.9994 C   0  0  0  0  0  0  0  0  0  0  0  0
    6.1404  110.2789   23.9994 N   0  0  0  0  0  0  0  0  0  0  0  0
    5.6404  108.2789   24.9994 C   0  0  0  0  0  0  0  0  0  0  0  0
    4.5404  108.5789   24.0994 C   0  0  0  0  0  0  0  0  0  0  0  0
    3.5404  107.5789   23.9994 C   0  0  0  0  0  0  0  0  0  0  0  0
    2.2404  107.6789   23.6994 N   0  0  0  0  0  0  0  0  0  0  0  0
    4.0404  106.3790   24.4994 N   0  0  0  0  0  0  0  0  0  0  0  0
    5.2404  109.3789   23.2994 O   0  0  0  0  0  0  0  0  0  0  0  0
  2  1  1  0
  3  2  2  0
  4  2  1  0
  5  4  2  0
  6  5  1  0
  7  6  2  0
  8  6  1  0
  9  3  1  0
  9  5  1  0
M  END
>  <ID>  (1) 
conformer_0

$$$$
