
     RDKit          3D

 12 14  0  0  0  0  0  0  0  0999 V2000
    6.0994  109.4638   24.1391 C   0  0  0  0  0  0  0  0  0  0  0  0
    4.7994  108.8638   24.5391 C   0  0  0  0  0  0  0  0  0  0  0  0
    7.1994  108.8638   24.4391 C   0  0  0  0  0  0  0  0  0  0  0  0
    8.3994  109.1638   25.0391 N   0  0  0  0  0  0  0  0  0  0  0  0
    5.0994  107.8638   25.5391 C   0  0  0  0  0  0  0  0  0  0  0  0
    5.8994  108.4638   26.5391 C   0  0  0  0  0  0  0  0  0  0  0  0
    4.0994  106.9638   25.9391 C   0  0  0  0  0  0  0  0  0  0  0  0
    2.8994  106.8638   25.1391 N   0  0  0  0  0  0  0  0  0  0  0  0
    2.9994  107.1638   23.7391 C   0  0  0  0  0  0  0  0  0  0  0  0
    1.9994  106.9638   23.0391 O   0  0  0  0  0  0  0  0  0  0  0  0
    7.1994  108.8638   25.8391 C   0  0  0  0  0  0  0  0  0  0  0  0
    3.6994  108.3638   23.7391 O   0  0  0  0  0  0  0  0  0  0  0  0
  2  1  2  0
  3  1  1  0
  4  3  1  0
  5  2  1  0
  6  5  2  0
  7  5  1  0
  8  7  1  0
  9  8  1  0
 10  9  1  0
 11  3  2  0
 11  4  1  0
 11  6  1  0
 12  2  1  0
 12  9  1  0
M  END
>  <ID>  (1) 
conformer_0

$$$$
