
     RDKit          3D

  9  9  0  0  0  0  0  0  0  0999 V2000
    5.9209  109.8070   24.2407 C   0  0  0  0  0  0  0  0  0  0  0  0
    4.8209  108.9070   24.3407 C   0  0  0  0  0  0  0  0  0  0  0  0
    7.1209  109.3070   24.3407 C   0  0  0  0  0  0  0  0  0  0  0  0
    5.1209  107.8070   25.2407 C   0  0  0  0  0  0  0  0  0  0  0  0
    6.2209  108.1070   26.1407 C   0  0  0  0  0  0  0  0  0  0  0  0
    4.4209  106.6070   25.4407 C   0  0  0  0  0  0  0  0  0  0  0  0
    3.7209  106.2070   24.2407 N   0  0  0  0  0  0  0  0  0  0  0  0
    7.3209  108.9070   25.6407 C   0  0  0  0  0  0  0  0  0  0  0  0
    3.0209  107.3070   23.5407 C   0  0  0  0  0  0  0  0  0  0  0  0
  2  1  2  0
  3  1  1  0
  4  2  1  0
  5  4  2  0
  6  4  1  0
  7  6  1  0
  8  3  2  0
  8  5  1  0
  9  7  1  0
M  END
>  <ID>  (1) 
conformer_0

$$$$
