
     RDKit          3D

 13 13  0  0  0  0  0  0  0  0999 V2000
    4.3388  108.4009   23.9961 C   0  0  0  0  0  0  0  0  0  0  0  0
    3.2388  107.6009   23.7961 C   0  0  0  0  0  0  0  0  0  0  0  0
    5.1388  108.4009   25.0961 C   0  0  0  0  0  0  0  0  0  0  0  0
    5.0388  107.1009   25.7961 C   0  0  0  0  0  0  0  0  0  0  0  0
    3.0388  106.6009   24.7961 C   0  0  0  0  0  0  0  0  0  0  0  0
    3.8388  106.5009   25.8961 C   0  0  0  0  0  0  0  0  0  0  0  0
    6.3388  109.2009   25.1961 C   0  0  0  0  0  0  0  0  0  0  0  0
    6.0388  110.6009   24.8961 N   0  0  0  0  0  0  0  0  0  0  0  0
    1.8388  105.8009   24.5961 C   0  0  0  0  0  0  0  0  0  0  0  0
    0.6388  106.5009   24.3961 N   0  0  0  0  0  0  0  0  0  0  0  0
    1.8388  104.7009   25.2961 O   0  0  0  0  0  0  0  0  0  0  0  0
    7.1388  109.3009   26.3961 N   0  0  0  0  0  0  0  0  0  0  0  0
    0.7388  107.2009   23.0961 C   0  0  0  0  0  0  0  0  0  0  0  0
  2  1  2  0
  3  1  1  0
  4  3  2  0
  5  2  1  0
  6  4  1  0
  6  5  2  0
  7  3  1  0
  8  7  1  0
  9  5  1  0
 10  9  1  0
 11  9  2  0
 12  7  1  0
 13 10  1  0
M  END
>  <ID>  (1) 
conformer_0

$$$$
