
     RDKit          3D

  5  5  0  0  0  0  0  0  0  0999 V2000
   -2.8360  109.1437   18.4989 C   0  0  0  0  0  0  0  0  0  0  0  0
   -2.9360  109.8437   19.7989 C   0  0  0  0  0  0  0  0  0  0  0  0
   -1.6360  108.2437   18.4989 C   0  0  0  0  0  0  0  0  0  0  0  0
   -0.9360  108.3437   19.7989 C   0  0  0  0  0  0  0  0  0  0  0  0
   -1.7360  109.4437   20.5989 C   0  0  0  0  0  0  0  0  0  0  0  0
  2  1  2  0
  3  1  1  0
  4  3  1  0
  5  2  1  0
  5  4  2  0
M  END
>  <ID>  (1) 
conformer_0

$$$$
