
     RDKit          3D

  8  8  0  0  0  0  0  0  0  0999 V2000
    4.3004  108.4768   23.8772 C   0  0  0  0  0  0  0  0  0  0  0  0
    3.2004  107.4768   23.8772 C   0  0  0  0  0  0  0  0  0  0  0  0
    5.0004  108.6768   24.9772 C   0  0  0  0  0  0  0  0  0  0  0  0
    3.4004  106.5768   24.9772 C   0  0  0  0  0  0  0  0  0  0  0  0
    4.5004  106.5768   25.8772 C   0  0  0  0  0  0  0  0  0  0  0  0
    5.2004  107.7768   25.9772 C   0  0  0  0  0  0  0  0  0  0  0  0
    5.6004  109.9768   25.0772 N   0  0  0  0  0  0  0  0  0  0  0  0
    2.6004  105.4768   24.9772 N   0  0  0  0  0  0  0  0  0  0  0  0
  2  1  2  0
  3  1  1  0
  4  2  1  0
  5  4  2  0
  6  3  2  0
  6  5  1  0
  7  3  1  0
  8  4  1  0
M  END
>  <ID>  (1) 
conformer_0

$$$$
