
     RDKit          3D

 10 10  0  0  0  0  0  0  0  0999 V2000
    2.9521  106.8444   24.0793 C   0  0  0  0  0  0  0  0  0  0  0  0
    4.0521  107.8444   24.2793 C   0  0  0  0  0  0  0  0  0  0  0  0
    4.8521  107.5444   25.4793 C   0  0  0  0  0  0  0  0  0  0  0  0
    4.1521  106.4444   26.1793 C   0  0  0  0  0  0  0  0  0  0  0  0
    5.1521  108.7444   26.2793 C   0  0  0  0  0  0  0  0  0  0  0  0
    5.7521  109.8444   25.5793 N   0  0  0  0  0  0  0  0  0  0  0  0
    5.7521  109.7444   24.1793 C   0  0  0  0  0  0  0  0  0  0  0  0
    6.3521  110.6444   23.5793 N   0  0  0  0  0  0  0  0  0  0  0  0
    2.9521  105.9444   25.2793 C   0  0  0  0  0  0  0  0  0  0  0  0
    6.2521  111.6444   22.8793 N   0  0  0  0  0  0  0  0  0  0  0  0
  2  1  2  0
  3  2  1  0
  4  3  1  0
  5  3  1  0
  6  5  1  0
  7  6  2  3
  8  7  1  0
  9  1  1  0
  9  4  2  0
 10  8  2  0
M  END
>  <ID>  (1) 
conformer_0

$$$$
