
     RDKit          3D

 12 13  0  0  0  0  0  0  0  0999 V2000
    4.3004  108.4768   23.8772 C   0  0  0  0  0  0  0  0  0  0  0  0
    3.2004  107.4768   23.8772 C   0  0  0  0  0  0  0  0  0  0  0  0
    4.8004  108.7768   25.0772 C   0  0  0  0  0  0  0  0  0  0  0  0
    3.3004  106.6768   25.0772 C   0  0  0  0  0  0  0  0  0  0  0  0
    4.2004  106.6768   26.0772 C   0  0  0  0  0  0  0  0  0  0  0  0
    5.2004  107.6768   25.9772 C   0  0  0  0  0  0  0  0  0  0  0  0
    5.7004  109.8768   25.1772 N   0  0  0  0  0  0  0  0  0  0  0  0
    6.4004  107.8768   26.6772 C   0  0  0  0  0  0  0  0  0  0  0  0
    7.4004  108.7768   26.1772 N   0  0  0  0  0  0  0  0  0  0  0  0
    7.1004  109.5768   24.9772 C   0  0  0  0  0  0  0  0  0  0  0  0
    6.4004  107.6768   27.9772 O   0  0  0  0  0  0  0  0  0  0  0  0
    7.5004  109.7768   23.8772 O   0  0  0  0  0  0  0  0  0  0  0  0
  2  1  2  0
  3  1  1  0
  4  2  1  0
  5  4  2  0
  6  3  2  0
  6  5  1  0
  7  3  1  0
  8  6  1  0
  9  8  1  0
 10  7  1  0
 10  9  1  0
 11  8  2  0
 12 10  2  0
M  END
>  <ID>  (1) 
conformer_0

$$$$
