
     RDKit          3D

 12 13  0  0  0  0  0  0  0  0999 V2000
    2.9521  106.8444   24.0793 C   0  0  0  0  0  0  0  0  0  0  0  0
    3.7521  108.0444   23.9793 C   0  0  0  0  0  0  0  0  0  0  0  0
    4.6521  108.3444   25.0793 C   0  0  0  0  0  0  0  0  0  0  0  0
    5.5521  109.4444   25.0793 C   0  0  0  0  0  0  0  0  0  0  0  0
    6.8521  109.3444   25.7793 C   0  0  0  0  0  0  0  0  0  0  0  0
    2.9521  106.1444   25.3793 C   0  0  0  0  0  0  0  0  0  0  0  0
    5.4521  110.7444   24.5793 N   0  0  0  0  0  0  0  0  0  0  0  0
    7.2521  108.4444   26.6793 C   0  0  0  0  0  0  0  0  0  0  0  0
    3.9521  106.3444   26.4793 C   0  0  0  0  0  0  0  0  0  0  0  0
    4.9521  107.3444   26.1793 C   0  0  0  0  0  0  0  0  0  0  0  0
    6.2521  107.3444   26.7793 C   0  0  0  0  0  0  0  0  0  0  0  0
    6.7521  106.1444   27.4793 C   0  0  0  0  0  0  0  0  0  0  0  0
  2  1  2  0
  3  2  1  0
  4  3  1  0
  5  4  2  0
  6  1  1  0
  7  4  1  0
  8  5  1  0
  9  6  1  0
 10  3  2  0
 10  9  1  0
 11  8  2  0
 11 10  1  0
 12 11  1  0
M  END
>  <ID>  (1) 
conformer_0

$$$$
