
     RDKit          3D

  5  5  0  0  0  0  0  0  0  0999 V2000
   -2.6093  109.2564   18.5489 C   0  0  0  0  0  0  0  0  0  0  0  0
   -2.9093  109.5564   19.9489 C   0  0  0  0  0  0  0  0  0  0  0  0
   -1.4093  108.4564   18.5489 C   0  0  0  0  0  0  0  0  0  0  0  0
   -0.9093  108.0564   19.8489 C   0  0  0  0  0  0  0  0  0  0  0  0
   -1.7093  109.1564   20.7489 C   0  0  0  0  0  0  0  0  0  0  0  0
  2  1  1  0
  3  1  1  0
  4  3  1  0
  5  2  1  0
  5  4  1  0
M  END
>  <ID>  (1) 
conformer_0

$$$$
