
     RDKit          3D

 15 15  0  0  0  0  0  0  0  0999 V2000
    7.3288  110.0310   26.0880 N   0  0  0  0  0  0  0  0  0  0  0  0
    6.4288  109.5310   25.1880 C   0  0  0  0  0  0  0  0  0  0  0  0
    6.4288  110.1310   23.9880 N   0  0  0  0  0  0  0  0  0  0  0  0
    5.6288  108.4310   25.3880 C   0  0  0  0  0  0  0  0  0  0  0  0
    4.5288  108.1310   24.4880 C   0  0  0  0  0  0  0  0  0  0  0  0
    3.7288  106.9310   24.6880 C   0  0  0  0  0  0  0  0  0  0  0  0
    2.3288  107.0310   24.4880 N   0  0  0  0  0  0  0  0  0  0  0  0
    1.4288  106.3310   23.6880 C   0  0  0  0  0  0  0  0  0  0  0  0
    2.0288  105.3310   23.0880 O   0  0  0  0  0  0  0  0  0  0  0  0
    0.4288  107.1310   22.9880 C   0  0  0  0  0  0  0  0  0  0  0  0
   -0.9712  107.1310   23.2880 C   0  0  0  0  0  0  0  0  0  0  0  0
    5.4288  110.4310   24.8880 N   0  0  0  0  0  0  0  0  0  0  0  0
    4.6288  108.8310   23.4880 N   0  0  0  0  0  0  0  0  0  0  0  0
   -1.4712  108.5310   23.3880 N   0  0  0  0  0  0  0  0  0  0  0  0
    5.5288  109.6310   22.9880 C   0  0  0  0  0  0  0  0  0  0  0  0
  2  1  1  0
  3  2  1  0
  4  2  1  0
  5  4  2  0
  6  5  1  0
  7  6  1  0
  8  7  1  0
  9  8  2  0
 10  8  1  0
 11 10  1  0
 12  2  1  0
 13  5  1  0
 14 11  1  0
 15  3  1  0
 15 13  2  0
M  END
>  <ID>  (1) 
conformer_0

$$$$
