
     RDKit          3D

 13 14  0  0  0  0  0  0  0  0999 V2000
  -15.7096   -0.1264  -23.5820 C   0  0  0  0  0  0  0  0  0  0  0  0
  -15.7096   -1.5264  -23.4820 C   0  0  0  0  0  0  0  0  0  0  0  0
  -16.9096   -1.9264  -24.1820 N   0  0  0  0  0  0  0  0  0  0  0  0
  -16.9096    0.4736  -24.1820 C   0  0  0  0  0  0  0  0  0  0  0  0
  -14.7096   -2.4264  -23.4820 N   0  0  0  0  0  0  0  0  0  0  0  0
  -15.0096    0.9736  -22.9820 C   0  0  0  0  0  0  0  0  0  0  0  0
  -15.7096    2.0736  -22.9820 N   0  0  0  0  0  0  0  0  0  0  0  0
  -16.9096    1.9736  -23.7820 C   0  0  0  0  0  0  0  0  0  0  0  0
  -18.1096   -0.0264  -24.2820 N   0  0  0  0  0  0  0  0  0  0  0  0
  -15.2096    3.2736  -22.4820 C   0  0  0  0  0  0  0  0  0  0  0  0
  -15.4096    4.5736  -23.1820 C   0  0  0  0  0  0  0  0  0  0  0  0
  -18.0096   -1.3264  -24.3820 C   0  0  0  0  0  0  0  0  0  0  0  0
  -13.9096    3.0736  -21.8820 C   0  0  0  0  0  0  0  0  0  0  0  0
  2  1  1  0
  3  2  2  0
  4  1  1  0
  5  2  1  0
  6  1  2  0
  7  6  1  0
  8  4  2  0
  8  7  1  0
  9  4  1  0
 10  7  1  0
 11 10  1  0
 12  3  1  0
 12  9  2  0
 13 10  1  0
M  END
>  <ID>  (1) 
conformer_0

$$$$
