
     RDKit          3D

 17 20  0  0  0  0  0  0  0  0999 V2000
  -17.2354   -1.5539  -24.4319 N   0  0  0  0  0  0  0  0  0  0  0  0
  -16.1354   -1.1539  -23.7319 C   0  0  0  0  0  0  0  0  0  0  0  0
  -15.8354    0.1461  -23.6319 C   0  0  0  0  0  0  0  0  0  0  0  0
  -14.7354    0.6461  -23.0319 C   0  0  0  0  0  0  0  0  0  0  0  0
  -16.9354    1.0461  -23.9319 C   0  0  0  0  0  0  0  0  0  0  0  0
  -15.1354   -1.9539  -23.4319 N   0  0  0  0  0  0  0  0  0  0  0  0
  -14.0354   -1.5539  -22.9319 C   0  0  0  0  0  0  0  0  0  0  0  0
  -13.5354   -0.2539  -23.0319 C   0  0  0  0  0  0  0  0  0  0  0  0
  -18.3354   -0.7539  -24.3319 C   0  0  0  0  0  0  0  0  0  0  0  0
  -18.2354    0.5461  -24.2319 C   0  0  0  0  0  0  0  0  0  0  0  0
  -17.0354    2.3461  -23.2319 N   0  0  0  0  0  0  0  0  0  0  0  0
  -18.4354    2.7461  -23.0319 C   0  0  0  0  0  0  0  0  0  0  0  0
  -18.4354    3.9461  -22.2319 C   0  0  0  0  0  0  0  0  0  0  0  0
  -16.0354    3.0461  -22.6319 C   0  0  0  0  0  0  0  0  0  0  0  0
  -16.1354    3.8461  -21.4319 C   0  0  0  0  0  0  0  0  0  0  0  0
  -17.5354    4.3461  -21.1319 C   0  0  0  0  0  0  0  0  0  0  0  0
  -14.9354    2.0461  -22.7319 N   0  0  0  0  0  0  0  0  0  0  0  0
  2  1  2  0
  3  2  1  0
  4  3  2  0
  5  3  1  0
  6  2  1  0
  7  6  1  0
  8  4  1  0
  8  7  1  0
  9  1  1  0
 10  5  1  0
 10  9  2  0
 11  5  1  0
 12 11  1  0
 13 12  1  0
 14 11  1  0
 15 14  1  0
 16 13  1  0
 16 15  1  0
 17  4  1  0
 17 14  2  0
M  END
>  <ID>  (1) 
conformer_0

$$$$
