
     RDKit          3D

 17 19  0  0  0  0  0  0  0  0999 V2000
  -13.8238   -2.6319  -23.1891 N   0  0  0  0  0  0  0  0  0  0  0  0
  -14.3238   -1.4319  -23.2891 C   0  0  0  0  0  0  0  0  0  0  0  0
  -15.5238   -0.9319  -23.4891 C   0  0  0  0  0  0  0  0  0  0  0  0
  -16.6238   -1.6319  -23.8891 N   0  0  0  0  0  0  0  0  0  0  0  0
  -13.4238   -0.3319  -23.0891 N   0  0  0  0  0  0  0  0  0  0  0  0
  -15.6238    0.4681  -23.2891 C   0  0  0  0  0  0  0  0  0  0  0  0
  -17.6238   -0.8319  -24.3891 C   0  0  0  0  0  0  0  0  0  0  0  0
  -14.2238    0.8681  -22.9890 N   0  0  0  0  0  0  0  0  0  0  0  0
  -16.6238    1.1681  -23.5891 N   0  0  0  0  0  0  0  0  0  0  0  0
  -17.7238    0.4681  -24.0891 C   0  0  0  0  0  0  0  0  0  0  0  0
  -14.3238    2.1681  -22.4890 C   0  0  0  0  0  0  0  0  0  0  0  0
  -15.5238    2.5681  -21.9890 C   0  0  0  0  0  0  0  0  0  0  0  0
  -13.2238    2.6681  -21.6891 C   0  0  0  0  0  0  0  0  0  0  0  0
  -13.5238    3.7681  -20.7891 C   0  0  0  0  0  0  0  0  0  0  0  0
  -14.5238    4.5681  -21.0891 C   0  0  0  0  0  0  0  0  0  0  0  0
  -15.8238    3.7681  -21.2890 C   0  0  0  0  0  0  0  0  0  0  0  0
  -12.5238    4.1681  -19.8891 N   0  0  0  0  0  0  0  0  0  0  0  0
  2  1  1  0
  3  2  1  0
  4  3  2  0
  5  2  2  0
  6  3  1  0
  7  4  1  0
  8  5  1  0
  8  6  1  0
  9  6  2  0
 10  7  2  0
 10  9  1  0
 11  8  1  0
 12 11  2  0
 13 11  1  0
 14 13  2  0
 15 14  1  0
 16 12  1  0
 16 15  2  0
 17 14  1  0
M  END
>  <ID>  (1) 
conformer_0

$$$$
