
     RDKit          3D

 18 21  0  0  0  0  0  0  0  0999 V2000
  -17.2354   -1.5539  -24.4319 N   0  0  0  0  0  0  0  0  0  0  0  0
  -16.1354   -1.1539  -23.7319 C   0  0  0  0  0  0  0  0  0  0  0  0
  -15.8354    0.1461  -23.4319 C   0  0  0  0  0  0  0  0  0  0  0  0
  -14.5354    0.5461  -23.0319 C   0  0  0  0  0  0  0  0  0  0  0  0
  -13.7354   -0.6539  -22.8319 C   0  0  0  0  0  0  0  0  0  0  0  0
  -13.8354   -1.9539  -23.2319 C   0  0  0  0  0  0  0  0  0  0  0  0
  -16.8354    1.1461  -23.7319 C   0  0  0  0  0  0  0  0  0  0  0  0
  -15.2354   -2.1539  -23.6319 N   0  0  0  0  0  0  0  0  0  0  0  0
  -14.1354    1.7461  -22.5319 C   0  0  0  0  0  0  0  0  0  0  0  0
  -12.3354   -0.1539  -22.7319 C   0  0  0  0  0  0  0  0  0  0  0  0
  -18.1354    0.5461  -24.1319 C   0  0  0  0  0  0  0  0  0  0  0  0
  -18.3354   -0.7539  -24.5319 C   0  0  0  0  0  0  0  0  0  0  0  0
  -14.2354    2.8461  -21.6319 C   0  0  0  0  0  0  0  0  0  0  0  0
  -12.9354    3.3461  -21.1319 C   0  0  0  0  0  0  0  0  0  0  0  0
  -12.6354    4.2461  -20.1319 C   0  0  0  0  0  0  0  0  0  0  0  0
  -13.2354    5.5461  -20.0319 C   0  0  0  0  0  0  0  0  0  0  0  0
  -14.2354    5.3461  -21.1319 C   0  0  0  0  0  0  0  0  0  0  0  0
  -14.4354    4.1461  -21.7319 N   0  0  0  0  0  0  0  0  0  0  0  0
  2  1  2  0
  3  2  1  0
  4  3  1  0
  5  4  1  0
  6  5  1  0
  7  3  1  0
  8  2  1  0
  8  6  2  0
  9  4  1  0
 10  5  1  0
 11  7  1  0
 12  1  1  0
 12 11  1  0
 13  9  1  0
 14 13  1  0
 15 14  1  0
 16 15  1  0
 17 16  1  0
 18 13  1  0
 18 14  1  0
 18 17  1  0
M  END
>  <ID>  (1) 
conformer_0

$$$$
