
     RDKit          3D

 26 30  0  0  0  0  0  0  0  0999 V2000
  -15.5515   -0.0765  -23.6143 C   0  0  0  0  0  0  0  0  0  0  0  0
  -15.7515   -1.4765  -23.4143 C   0  0  0  0  0  0  0  0  0  0  0  0
  -16.6515   -1.9765  -24.3143 N   0  0  0  0  0  0  0  0  0  0  0  0
  -16.7515    0.5235  -24.1143 C   0  0  0  0  0  0  0  0  0  0  0  0
  -14.6515   -2.3765  -23.4143 N   0  0  0  0  0  0  0  0  0  0  0  0
  -17.9515    0.0235  -24.2143 N   0  0  0  0  0  0  0  0  0  0  0  0
  -14.7515    0.9235  -23.0143 C   0  0  0  0  0  0  0  0  0  0  0  0
  -16.7515    1.9235  -23.6143 N   0  0  0  0  0  0  0  0  0  0  0  0
  -15.4515    2.2235  -23.0143 C   0  0  0  0  0  0  0  0  0  0  0  0
  -17.6515   -1.2765  -24.8143 C   0  0  0  0  0  0  0  0  0  0  0  0
  -17.9515    2.6235  -23.4143 C   0  0  0  0  0  0  0  0  0  0  0  0
  -19.1515    1.9235  -23.4143 C   0  0  0  0  0  0  0  0  0  0  0  0
  -20.2515    2.4235  -22.6143 C   0  0  0  0  0  0  0  0  0  0  0  0
  -17.9515    3.9235  -22.8143 C   0  0  0  0  0  0  0  0  0  0  0  0
  -19.0515    4.5235  -22.3143 C   0  0  0  0  0  0  0  0  0  0  0  0
  -20.0515    3.6235  -21.7143 C   0  0  0  0  0  0  0  0  0  0  0  0
  -13.3515    1.0235  -22.9143 N   0  0  0  0  0  0  0  0  0  0  0  0
  -13.1515    2.2235  -22.2143 C   0  0  0  0  0  0  0  0  0  0  0  0
  -14.0515    3.0235  -21.4143 C   0  0  0  0  0  0  0  0  0  0  0  0
  -13.5515    3.9235  -20.4143 C   0  0  0  0  0  0  0  0  0  0  0  0
  -15.2515    3.2235  -22.1143 N   0  0  0  0  0  0  0  0  0  0  0  0
  -13.0515    3.4235  -19.3143 O   0  0  0  0  0  0  0  0  0  0  0  0
  -12.3515    0.0235  -22.9143 C   0  0  0  0  0  0  0  0  0  0  0  0
  -12.6515   -1.3765  -22.6143 C   0  0  0  0  0  0  0  0  0  0  0  0
  -11.7515   -2.2765  -22.1143 O   0  0  0  0  0  0  0  0  0  0  0  0
  -13.3515   -1.9765  -23.8143 C   0  0  0  0  0  0  0  0  0  0  0  0
  2  1  1  0
  3  2  2  0
  4  1  1  0
  5  2  1  0
  6  4  1  0
  7  1  2  0
  8  4  1  0
  9  7  1  0
  9  8  1  0
 10  3  1  0
 10  6  1  0
 11  8  1  0
 12 11  2  0
 13 12  1  0
 14 11  1  0
 15 14  2  0
 16 13  2  0
 16 15  1  0
 17  7  1  0
 18 17  1  0
 19 18  2  0
 20 19  1  0
 21  9  2  0
 21 19  1  0
 22 20  1  0
 23 17  1  0
 24 23  1  0
 25 24  1  0
 26  5  1  0
 26 24  1  0
M  END
>  <ID>  (1) 
conformer_0

$$$$
