
     RDKit          3D

 24 28  0  0  0  0  0  0  0  0999 V2000
  -15.7096   -0.1264  -23.5820 C   0  0  0  0  0  0  0  0  0  0  0  0
  -15.7096   -1.5264  -23.4820 C   0  0  0  0  0  0  0  0  0  0  0  0
  -16.9096   -1.9264  -24.1820 N   0  0  0  0  0  0  0  0  0  0  0  0
  -16.9096    0.4736  -24.1820 C   0  0  0  0  0  0  0  0  0  0  0  0
  -14.7096   -2.4264  -23.4820 N   0  0  0  0  0  0  0  0  0  0  0  0
  -14.8096    0.8736  -23.0820 C   0  0  0  0  0  0  0  0  0  0  0  0
  -17.0096    1.7736  -23.6820 N   0  0  0  0  0  0  0  0  0  0  0  0
  -18.1096   -0.1264  -24.3820 N   0  0  0  0  0  0  0  0  0  0  0  0
  -18.3096    2.2736  -23.1820 C   0  0  0  0  0  0  0  0  0  0  0  0
  -15.7096    2.1736  -23.1820 C   0  0  0  0  0  0  0  0  0  0  0  0
  -17.9096   -1.3264  -24.6820 C   0  0  0  0  0  0  0  0  0  0  0  0
  -15.3096    3.3736  -22.6820 C   0  0  0  0  0  0  0  0  0  0  0  0
  -14.9096    4.7736  -22.8820 C   0  0  0  0  0  0  0  0  0  0  0  0
  -15.7096    5.7736  -22.1820 C   0  0  0  0  0  0  0  0  0  0  0  0
  -16.3096    4.9736  -21.0820 C   0  0  0  0  0  0  0  0  0  0  0  0
  -16.0096    3.5736  -21.1820 C   0  0  0  0  0  0  0  0  0  0  0  0
  -19.5096    1.7736  -23.6820 C   0  0  0  0  0  0  0  0  0  0  0  0
  -19.3096    0.4736  -24.3820 C   0  0  0  0  0  0  0  0  0  0  0  0
  -20.3096   -0.4264  -24.4820 N   0  0  0  0  0  0  0  0  0  0  0  0
  -21.6096   -0.1264  -24.8820 C   0  0  0  0  0  0  0  0  0  0  0  0
  -13.7096    1.2736  -22.6820 N   0  0  0  0  0  0  0  0  0  0  0  0
  -22.6096   -0.4264  -23.8820 C   0  0  0  0  0  0  0  0  0  0  0  0
  -21.4096    1.2736  -25.2820 C   0  0  0  0  0  0  0  0  0  0  0  0
  -20.7096    2.0736  -24.2820 O   0  0  0  0  0  0  0  0  0  0  0  0
  2  1  2  0
  3  2  1  0
  4  1  1  0
  5  2  1  0
  6  1  1  0
  7  4  1  0
  8  4  1  0
  9  7  1  0
 10  6  2  0
 10  7  1  0
 11  3  2  0
 11  8  1  0
 12 10  1  0
 13 12  1  0
 14 13  1  0
 15 14  1  0
 16 12  1  0
 16 15  1  0
 17  9  1  0
 18  8  1  0
 18 17  2  0
 19 18  1  0
 20 19  1  0
 21  6  1  0
 22 20  1  0
 23 20  1  0
 24 17  1  0
 24 23  1  0
M  END
>  <ID>  (1) 
conformer_0

$$$$
