
     RDKit          3D

 15 18  0  0  0  0  0  0  0  0999 V2000
  -15.7096   -0.1264  -23.5820 C   0  0  0  0  0  0  0  0  0  0  0  0
  -15.7096   -1.5264  -23.4820 C   0  0  0  0  0  0  0  0  0  0  0  0
  -16.9096   -1.9264  -24.1820 N   0  0  0  0  0  0  0  0  0  0  0  0
  -16.8096    0.4736  -24.1820 C   0  0  0  0  0  0  0  0  0  0  0  0
  -14.7096   -2.3264  -23.5820 N   0  0  0  0  0  0  0  0  0  0  0  0
  -18.0096    0.0736  -24.1820 N   0  0  0  0  0  0  0  0  0  0  0  0
  -14.9096    0.7736  -22.7820 C   0  0  0  0  0  0  0  0  0  0  0  0
  -16.6096    1.7736  -23.8820 N   0  0  0  0  0  0  0  0  0  0  0  0
  -15.6096    2.0736  -22.8820 C   0  0  0  0  0  0  0  0  0  0  0  0
  -17.9096    2.4736  -23.6820 C   0  0  0  0  0  0  0  0  0  0  0  0
  -18.0096   -1.2264  -24.3820 C   0  0  0  0  0  0  0  0  0  0  0  0
  -15.2096    3.3736  -22.5820 C   0  0  0  0  0  0  0  0  0  0  0  0
  -15.3096    4.7736  -22.8820 C   0  0  0  0  0  0  0  0  0  0  0  0
  -16.6096    4.1736  -22.5820 C   0  0  0  0  0  0  0  0  0  0  0  0
  -17.7096    3.2736  -22.3820 C   0  0  0  0  0  0  0  0  0  0  0  0
  2  1  2  0
  3  2  1  0
  4  1  1  0
  5  2  1  0
  6  4  2  0
  7  1  1  0
  8  4  1  0
  9  7  2  0
  9  8  1  0
 10  8  1  0
 11  3  2  0
 11  6  1  0
 12  9  1  0
 13 12  1  0
 14 12  1  0
 14 13  1  0
 15 10  1  0
 15 14  1  0
M  END
>  <ID>  (1) 
conformer_0

$$$$
