
     RDKit          3D

 27 31  0  0  0  0  0  0  0  0999 V2000
  -15.5515   -0.0765  -23.6143 C   0  0  0  0  0  0  0  0  0  0  0  0
  -15.7515   -1.4765  -23.4143 C   0  0  0  0  0  0  0  0  0  0  0  0
  -16.6515   -1.9765  -24.3143 N   0  0  0  0  0  0  0  0  0  0  0  0
  -16.7515    0.5235  -24.1143 C   0  0  0  0  0  0  0  0  0  0  0  0
  -14.6515   -2.3765  -23.4143 N   0  0  0  0  0  0  0  0  0  0  0  0
  -17.9515    0.0235  -24.2143 N   0  0  0  0  0  0  0  0  0  0  0  0
  -14.7515    0.9235  -23.0143 C   0  0  0  0  0  0  0  0  0  0  0  0
  -16.7515    1.9235  -23.6143 N   0  0  0  0  0  0  0  0  0  0  0  0
  -15.4515    2.2235  -23.0143 C   0  0  0  0  0  0  0  0  0  0  0  0
  -17.6515   -1.2765  -24.8143 C   0  0  0  0  0  0  0  0  0  0  0  0
  -17.9515    2.6235  -23.4143 C   0  0  0  0  0  0  0  0  0  0  0  0
  -19.1515    1.9235  -23.4143 C   0  0  0  0  0  0  0  0  0  0  0  0
  -20.2515    2.4235  -22.6143 C   0  0  0  0  0  0  0  0  0  0  0  0
  -17.9515    3.9235  -22.8143 C   0  0  0  0  0  0  0  0  0  0  0  0
  -19.0515    4.5235  -22.3143 C   0  0  0  0  0  0  0  0  0  0  0  0
  -20.0515    3.6235  -21.7143 C   0  0  0  0  0  0  0  0  0  0  0  0
  -13.4515    0.8235  -22.9143 N   0  0  0  0  0  0  0  0  0  0  0  0
  -13.2515   -0.5765  -23.2143 N   0  0  0  0  0  0  0  0  0  0  0  0
  -13.4515   -1.6765  -22.7143 C   0  0  0  0  0  0  0  0  0  0  0  0
  -12.8515    2.0235  -22.3143 C   0  0  0  0  0  0  0  0  0  0  0  0
  -13.4515    3.0235  -21.6143 C   0  0  0  0  0  0  0  0  0  0  0  0
  -13.3515    3.7235  -20.5143 C   0  0  0  0  0  0  0  0  0  0  0  0
  -13.3515    4.9235  -20.1143 C   0  0  0  0  0  0  0  0  0  0  0  0
  -12.8515    5.4235  -19.0143 O   0  0  0  0  0  0  0  0  0  0  0  0
  -14.4515    5.7235  -20.7143 C   0  0  0  0  0  0  0  0  0  0  0  0
  -12.2515   -2.3765  -22.6143 C   0  0  0  0  0  0  0  0  0  0  0  0
  -14.6515    3.2235  -22.4143 O   0  0  0  0  0  0  0  0  0  0  0  0
  2  1  1  0
  3  2  2  0
  4  1  2  0
  5  2  1  0
  6  4  1  0
  7  1  1  0
  8  4  1  0
  9  7  2  0
  9  8  1  0
 10  3  1  0
 10  6  1  0
 11  8  1  0
 12 11  2  0
 13 12  1  0
 14 11  1  0
 15 14  2  0
 16 13  2  0
 16 15  1  0
 17  7  1  0
 18 17  1  0
 19  5  2  0
 19 18  1  0
 20 17  1  0
 21 20  2  0
 22 21  1  0
 23 22  1  0
 24 23  1  0
 25 23  1  0
 26 19  1  0
 27  9  1  0
 27 21  1  0
M  END
>  <ID>  (1) 
conformer_0

$$$$
