
     RDKit          3D

 19 22  0  0  0  0  0  0  0  0999 V2000
  -15.5515   -0.0765  -23.6143 C   0  0  0  0  0  0  0  0  0  0  0  0
  -15.7515   -1.4765  -23.4143 C   0  0  0  0  0  0  0  0  0  0  0  0
  -16.8515   -1.8765  -24.3143 N   0  0  0  0  0  0  0  0  0  0  0  0
  -16.5515    0.5235  -24.4143 C   0  0  0  0  0  0  0  0  0  0  0  0
  -14.6515   -2.3765  -23.4143 N   0  0  0  0  0  0  0  0  0  0  0  0
  -17.8515    0.2235  -24.2143 N   0  0  0  0  0  0  0  0  0  0  0  0
  -14.4515    0.6235  -23.0143 C   0  0  0  0  0  0  0  0  0  0  0  0
  -17.9515   -1.1765  -24.2143 C   0  0  0  0  0  0  0  0  0  0  0  0
  -16.4515    1.9235  -24.0143 N   0  0  0  0  0  0  0  0  0  0  0  0
  -17.5515    2.6235  -23.6143 C   0  0  0  0  0  0  0  0  0  0  0  0
  -16.2515    2.2235  -22.8143 C   0  0  0  0  0  0  0  0  0  0  0  0
  -18.7515    2.3235  -23.0143 C   0  0  0  0  0  0  0  0  0  0  0  0
  -14.7515    1.8235  -22.4143 C   0  0  0  0  0  0  0  0  0  0  0  0
  -19.9515    1.9235  -23.8143 C   0  0  0  0  0  0  0  0  0  0  0  0
  -21.2515    2.3235  -23.4143 C   0  0  0  0  0  0  0  0  0  0  0  0
  -22.3515    1.4235  -23.7143 C   0  0  0  0  0  0  0  0  0  0  0  0
  -22.2515    0.9235  -25.1143 C   0  0  0  0  0  0  0  0  0  0  0  0
  -21.5515    0.0235  -24.2143 C   0  0  0  0  0  0  0  0  0  0  0  0
  -13.3515   -0.2765  -22.9143 O   0  0  0  0  0  0  0  0  0  0  0  0
  2  1  2  0
  3  2  1  0
  4  1  1  0
  5  2  1  0
  6  4  2  0
  7  1  1  0
  8  3  2  0
  8  6  1  0
  9  4  1  0
 10  9  1  0
 11  9  1  0
 11 10  1  0
 12 10  1  0
 13  7  1  0
 13 11  1  0
 14 12  1  0
 15 14  1  0
 16 15  1  0
 17 16  1  0
 18 16  1  0
 18 17  1  0
 19  7  1  0
M  END
>  <ID>  (1) 
conformer_0

$$$$
