
     RDKit          3D

 28 32  0  0  0  0  0  0  0  0999 V2000
  -15.5515   -0.0765  -23.6143 C   0  0  0  0  0  0  0  0  0  0  0  0
  -15.7515   -1.4765  -23.4143 C   0  0  0  0  0  0  0  0  0  0  0  0
  -16.6515   -1.9765  -24.3143 N   0  0  0  0  0  0  0  0  0  0  0  0
  -16.7515    0.5235  -24.1143 C   0  0  0  0  0  0  0  0  0  0  0  0
  -14.6515   -2.3765  -23.4143 N   0  0  0  0  0  0  0  0  0  0  0  0
  -17.9515    0.0235  -24.2143 N   0  0  0  0  0  0  0  0  0  0  0  0
  -14.7515    0.9235  -23.0143 C   0  0  0  0  0  0  0  0  0  0  0  0
  -16.7515    1.9235  -23.6143 N   0  0  0  0  0  0  0  0  0  0  0  0
  -15.4515    2.2235  -23.0143 C   0  0  0  0  0  0  0  0  0  0  0  0
  -17.6515   -1.2765  -24.8143 C   0  0  0  0  0  0  0  0  0  0  0  0
  -17.9515    2.5235  -23.0143 C   0  0  0  0  0  0  0  0  0  0  0  0
  -19.1515    2.0235  -23.5143 C   0  0  0  0  0  0  0  0  0  0  0  0
  -17.6515    3.3235  -21.8143 C   0  0  0  0  0  0  0  0  0  0  0  0
  -15.1515    3.2235  -22.0143 C   0  0  0  0  0  0  0  0  0  0  0  0
  -16.3515    4.0235  -21.6143 C   0  0  0  0  0  0  0  0  0  0  0  0
  -13.8515    3.7235  -21.8143 C   0  0  0  0  0  0  0  0  0  0  0  0
  -12.6515    3.3235  -21.0143 C   0  0  0  0  0  0  0  0  0  0  0  0
  -11.6515    4.4235  -21.0143 C   0  0  0  0  0  0  0  0  0  0  0  0
  -10.8515    4.7235  -22.2143 C   0  0  0  0  0  0  0  0  0  0  0  0
  -10.8515    4.5235  -19.8143 N   0  0  0  0  0  0  0  0  0  0  0  0
   -9.4515    4.8235  -20.2143 C   0  0  0  0  0  0  0  0  0  0  0  0
   -9.2515    6.0235  -20.9143 C   0  0  0  0  0  0  0  0  0  0  0  0
   -8.8515    4.4235  -19.2143 O   0  0  0  0  0  0  0  0  0  0  0  0
   -9.3515    4.8235  -21.7143 C   0  0  0  0  0  0  0  0  0  0  0  0
  -20.4515    2.3235  -23.0143 C   0  0  0  0  0  0  0  0  0  0  0  0
  -21.2515    1.1235  -23.3143 C   0  0  0  0  0  0  0  0  0  0  0  0
  -20.8515    0.3235  -24.5143 C   0  0  0  0  0  0  0  0  0  0  0  0
  -21.9515    0.2235  -25.5143 C   0  0  0  0  0  0  0  0  0  0  0  0
  2  1  2  0
  3  2  1  0
  4  1  1  0
  5  2  1  0
  6  4  2  0
  7  1  1  0
  8  4  1  0
  9  7  2  0
  9  8  1  0
 10  3  2  0
 10  6  1  0
 11  8  1  0
 12 11  2  3
 13 11  1  0
 14  9  1  0
 15 13  1  0
 15 14  1  0
 16 14  1  0
 17 16  1  0
 18 17  1  0
 19 18  1  0
 20 18  1  0
 21 20  1  0
 22 21  1  0
 23 21  1  0
 24 19  1  0
 24 21  1  0
 24 22  1  0
 25 12  1  0
 26 25  1  0
 27 26  1  0
 28 27  1  0
M  END
>  <ID>  (1) 
conformer_0

$$$$
