
     RDKit          3D

 25 27  0  0  0  0  0  0  0  0999 V2000
  -15.5515   -0.0765  -23.6143 C   0  0  0  0  0  0  0  0  0  0  0  0
  -15.8515   -1.3765  -23.7143 C   0  0  0  0  0  0  0  0  0  0  0  0
  -16.8515   -1.7765  -24.5143 N   0  0  0  0  0  0  0  0  0  0  0  0
  -16.5515    0.7235  -24.2143 C   0  0  0  0  0  0  0  0  0  0  0  0
  -14.7515   -2.3765  -23.6143 N   0  0  0  0  0  0  0  0  0  0  0  0
  -17.8515    0.2235  -24.3143 N   0  0  0  0  0  0  0  0  0  0  0  0
  -17.9515   -1.0765  -24.3143 C   0  0  0  0  0  0  0  0  0  0  0  0
  -14.4515    0.6235  -22.9143 C   0  0  0  0  0  0  0  0  0  0  0  0
  -16.3515    2.0235  -23.9143 N   0  0  0  0  0  0  0  0  0  0  0  0
  -15.5515    2.8235  -23.1143 C   0  0  0  0  0  0  0  0  0  0  0  0
  -14.5515    1.9235  -22.5143 C   0  0  0  0  0  0  0  0  0  0  0  0
  -13.4515    2.5235  -21.8143 C   0  0  0  0  0  0  0  0  0  0  0  0
  -15.4515    4.1235  -23.0143 C   0  0  0  0  0  0  0  0  0  0  0  0
  -13.5515    3.9235  -21.5143 C   0  0  0  0  0  0  0  0  0  0  0  0
  -14.4515    4.7235  -22.3143 C   0  0  0  0  0  0  0  0  0  0  0  0
  -12.7515    4.5235  -20.5143 N   0  0  0  0  0  0  0  0  0  0  0  0
  -13.1515    5.7235  -19.9143 C   0  0  0  0  0  0  0  0  0  0  0  0
  -11.4515    4.0235  -20.2143 C   0  0  0  0  0  0  0  0  0  0  0  0
  -10.1515    4.5235  -20.4143 C   0  0  0  0  0  0  0  0  0  0  0  0
  -12.1515    6.1235  -19.0143 O   0  0  0  0  0  0  0  0  0  0  0  0
   -9.7515    5.3235  -19.2143 O   0  0  0  0  0  0  0  0  0  0  0  0
   -9.4515    4.8235  -21.6143 C   0  0  0  0  0  0  0  0  0  0  0  0
   -8.9515    6.2235  -21.7143 O   0  0  0  0  0  0  0  0  0  0  0  0
  -17.7515    2.5235  -23.9143 C   0  0  0  0  0  0  0  0  0  0  0  0
  -11.8515    7.5235  -18.9143 C   0  0  0  0  0  0  0  0  0  0  0  0
  2  1  2  0
  3  2  1  0
  4  1  1  0
  5  2  1  0
  6  4  2  0
  7  3  2  0
  7  6  1  0
  8  1  1  0
  9  4  1  0
 10  9  1  0
 11  8  2  0
 11 10  1  0
 12 11  1  0
 13 10  1  0
 14 12  2  0
 15 13  2  0
 15 14  1  0
 16 14  1  0
 17 16  1  0
 18 16  1  0
 19 18  1  0
 20 17  1  0
 21 19  1  0
 22 19  1  0
 23 22  1  0
 24  9  1  0
 25 20  1  0
M  END
>  <ID>  (1) 
conformer_0

$$$$
