
     RDKit          3D

 18 20  0  0  0  0  0  0  0  0999 V2000
  -15.7096   -0.1264  -23.5820 C   0  0  0  0  0  0  0  0  0  0  0  0
  -15.7096   -1.5264  -23.4820 C   0  0  0  0  0  0  0  0  0  0  0  0
  -16.9096   -1.9264  -24.1820 N   0  0  0  0  0  0  0  0  0  0  0  0
  -16.9096    0.4736  -24.1820 C   0  0  0  0  0  0  0  0  0  0  0  0
  -14.7096   -2.4264  -23.4820 N   0  0  0  0  0  0  0  0  0  0  0  0
  -14.8096    0.8736  -23.0820 C   0  0  0  0  0  0  0  0  0  0  0  0
  -17.0096    1.7736  -23.6820 N   0  0  0  0  0  0  0  0  0  0  0  0
  -18.1096   -0.1264  -24.3820 N   0  0  0  0  0  0  0  0  0  0  0  0
  -18.3096    2.2736  -23.1820 C   0  0  0  0  0  0  0  0  0  0  0  0
  -15.8096    2.0736  -22.8820 C   0  0  0  0  0  0  0  0  0  0  0  0
  -18.0096   -1.3264  -24.2820 C   0  0  0  0  0  0  0  0  0  0  0  0
  -18.3096    3.4736  -22.4820 C   0  0  0  0  0  0  0  0  0  0  0  0
  -19.6096    1.8736  -23.7820 C   0  0  0  0  0  0  0  0  0  0  0  0
  -20.6096    2.3736  -22.8820 C   0  0  0  0  0  0  0  0  0  0  0  0
  -19.3096    4.3736  -22.0820 C   0  0  0  0  0  0  0  0  0  0  0  0
  -20.6096    3.7736  -22.2820 C   0  0  0  0  0  0  0  0  0  0  0  0
  -13.6096    0.0736  -22.8820 O   0  0  0  0  0  0  0  0  0  0  0  0
  -12.8096   -0.8264  -23.5820 C   0  0  0  0  0  0  0  0  0  0  0  0
  2  1  2  0
  3  2  1  0
  4  1  1  0
  5  2  1  0
  6  1  1  0
  7  4  1  0
  8  4  2  0
  9  7  1  0
 10  6  2  0
 10  7  1  0
 11  3  2  0
 11  8  1  0
 12  9  2  0
 13  9  1  0
 14 13  1  0
 15 12  1  0
 16 14  1  0
 16 15  1  0
 17  6  1  0
 18 17  1  0
M  END
>  <ID>  (1) 
conformer_0

$$$$
