
     RDKit          3D

 11 12  0  0  0  0  0  0  0  0999 V2000
  -17.2354   -1.5539  -24.4319 N   0  0  0  0  0  0  0  0  0  0  0  0
  -16.1354   -1.1539  -23.7319 C   0  0  0  0  0  0  0  0  0  0  0  0
  -15.1354   -2.0539  -23.5319 N   0  0  0  0  0  0  0  0  0  0  0  0
  -13.9354   -1.8539  -23.0319 C   0  0  0  0  0  0  0  0  0  0  0  0
  -15.7354    0.1461  -23.6319 C   0  0  0  0  0  0  0  0  0  0  0  0
  -14.5354    0.4461  -22.8319 C   0  0  0  0  0  0  0  0  0  0  0  0
  -16.7354    1.1461  -23.9319 C   0  0  0  0  0  0  0  0  0  0  0  0
  -13.4354   -0.4539  -23.0319 C   0  0  0  0  0  0  0  0  0  0  0  0
  -18.3354   -0.6539  -24.3319 C   0  0  0  0  0  0  0  0  0  0  0  0
  -18.1354    0.7461  -24.0319 C   0  0  0  0  0  0  0  0  0  0  0  0
  -13.1354   -2.8539  -23.4319 N   0  0  0  0  0  0  0  0  0  0  0  0
  2  1  2  0
  3  2  1  0
  4  3  1  0
  5  2  1  0
  6  5  1  0
  7  5  1  0
  8  4  1  0
  8  6  1  0
  9  1  1  0
 10  7  1  0
 10  9  1  0
 11  4  1  0
M  END
>  <ID>  (1) 
conformer_0

$$$$
