
     RDKit          3D

  5  4  0  0  0  0  0  0  0  0999 V2000
   -9.5485    5.3315  -20.5740 P   0  0  0  0  0  4  0  0  0  0  0  0
   -8.9485    6.5315  -21.1740 O   0  0  0  0  0  1  0  0  0  0  0  0
   -8.9485    4.2315  -21.3740 O   0  0  0  0  0  0  0  0  0  0  0  0
  -10.3485    5.1315  -19.3740 O   0  0  0  0  0  0  0  0  0  0  0  0
  -10.1485    4.6315  -21.6740 O   0  0  0  0  0  0  0  0  0  0  0  0
  2  1  2  0
  3  1  1  0
  4  1  1  0
  5  1  1  0
M  END
>  <ID>  (1) 
conformer_0

$$$$
