
     RDKit          3D

 18 20  0  0  0  0  0  0  0  0999 V2000
  -17.2354   -1.5539  -24.4319 N   0  0  0  0  0  0  0  0  0  0  0  0
  -16.1354   -1.1539  -23.7319 C   0  0  0  0  0  0  0  0  0  0  0  0
  -15.8354    0.1461  -23.4319 C   0  0  0  0  0  0  0  0  0  0  0  0
  -16.9354    1.0461  -23.8319 C   0  0  0  0  0  0  0  0  0  0  0  0
  -16.5354    2.4461  -23.6319 C   0  0  0  0  0  0  0  0  0  0  0  0
  -14.7354    0.7461  -22.9319 C   0  0  0  0  0  0  0  0  0  0  0  0
  -18.2354    0.6461  -24.0319 C   0  0  0  0  0  0  0  0  0  0  0  0
  -15.1354   -2.0539  -23.4319 N   0  0  0  0  0  0  0  0  0  0  0  0
  -13.9354   -1.4539  -22.9319 C   0  0  0  0  0  0  0  0  0  0  0  0
  -18.4354   -0.7539  -24.4319 C   0  0  0  0  0  0  0  0  0  0  0  0
  -13.5354   -0.1539  -22.9319 C   0  0  0  0  0  0  0  0  0  0  0  0
  -15.6354    2.9461  -22.7319 C   0  0  0  0  0  0  0  0  0  0  0  0
  -14.6354    1.9461  -22.3319 N   0  0  0  0  0  0  0  0  0  0  0  0
  -15.4354    4.3461  -22.4319 C   0  0  0  0  0  0  0  0  0  0  0  0
  -14.1354    5.0461  -22.5319 C   0  0  0  0  0  0  0  0  0  0  0  0
  -16.6354    5.1461  -22.4319 C   0  0  0  0  0  0  0  0  0  0  0  0
  -13.1354   -2.2539  -22.3319 O   0  0  0  0  0  0  0  0  0  0  0  0
  -12.2354    0.4461  -22.9319 C   0  0  0  0  0  0  0  0  0  0  0  0
  2  1  2  0
  3  2  1  0
  4  3  2  0
  5  4  1  0
  6  3  1  0
  7  4  1  0
  8  2  1  0
  9  8  1  0
 10  1  1  0
 10  7  1  0
 11  6  1  0
 11  9  1  0
 12  5  2  0
 13  6  2  0
 13 12  1  0
 14 12  1  0
 15 14  1  0
 16 14  1  0
 17  9  2  0
 18 11  1  0
M  END
>  <ID>  (1) 
conformer_0

$$$$
