
     RDKit          3D

 26 31  0  0  0  0  0  0  0  0999 V2000
  -15.5515   -0.0765  -23.6143 C   0  0  0  0  0  0  0  0  0  0  0  0
  -15.7515   -1.4765  -23.4143 C   0  0  0  0  0  0  0  0  0  0  0  0
  -16.6515   -1.9765  -24.3143 N   0  0  0  0  0  0  0  0  0  0  0  0
  -16.7515    0.5235  -24.1143 C   0  0  0  0  0  0  0  0  0  0  0  0
  -14.6515   -2.3765  -23.4143 N   0  0  0  0  0  0  0  0  0  0  0  0
  -17.9515    0.0235  -24.2143 N   0  0  0  0  0  0  0  0  0  0  0  0
  -14.7515    0.9235  -23.0143 C   0  0  0  0  0  0  0  0  0  0  0  0
  -16.7515    1.9235  -23.6143 N   0  0  0  0  0  0  0  0  0  0  0  0
  -15.4515    2.2235  -23.0143 C   0  0  0  0  0  0  0  0  0  0  0  0
  -17.6515   -1.2765  -24.8143 C   0  0  0  0  0  0  0  0  0  0  0  0
  -17.9515    2.6235  -23.4143 C   0  0  0  0  0  0  0  0  0  0  0  0
  -19.1515    1.9235  -23.4143 C   0  0  0  0  0  0  0  0  0  0  0  0
  -20.2515    2.4235  -22.6143 C   0  0  0  0  0  0  0  0  0  0  0  0
  -18.0515    3.8235  -22.8143 C   0  0  0  0  0  0  0  0  0  0  0  0
  -19.1515    4.5235  -22.4143 C   0  0  0  0  0  0  0  0  0  0  0  0
  -20.3515    3.8235  -22.5143 C   0  0  0  0  0  0  0  0  0  0  0  0
  -13.4515    1.0235  -22.8143 N   0  0  0  0  0  0  0  0  0  0  0  0
  -14.6515    3.1235  -22.2143 C   0  0  0  0  0  0  0  0  0  0  0  0
  -13.2515    3.1235  -21.8143 C   0  0  0  0  0  0  0  0  0  0  0  0
  -13.0515    3.9235  -20.6143 C   0  0  0  0  0  0  0  0  0  0  0  0
  -15.4515    3.8235  -21.2143 C   0  0  0  0  0  0  0  0  0  0  0  0
  -14.4515    4.4235  -20.4143 N   0  0  0  0  0  0  0  0  0  0  0  0
  -12.6515    1.8235  -21.9143 C   0  0  0  0  0  0  0  0  0  0  0  0
  -14.6515    5.3235  -21.5143 C   0  0  0  0  0  0  0  0  0  0  0  0
  -12.6515   -0.1765  -23.2143 C   0  0  0  0  0  0  0  0  0  0  0  0
  -12.1515   -1.2765  -22.4143 C   0  0  0  0  0  0  0  0  0  0  0  0
  2  1  1  0
  3  2  1  0
  4  1  1  0
  5  2  1  0
  6  4  2  0
  7  1  2  0
  8  4  1  0
  9  7  1  0
  9  8  1  0
 10  3  2  0
 10  6  1  0
 11  8  1  0
 12 11  2  0
 13 12  1  0
 14 11  1  0
 15 14  2  0
 16 13  2  0
 16 15  1  0
 17  7  1  0
 18  9  2  0
 19 18  1  0
 20 19  1  0
 21 18  1  0
 22 20  1  0
 22 21  1  0
 23 17  1  0
 23 19  2  0
 24 21  1  0
 24 22  1  0
 25 17  1  0
 26 25  1  0
M  END
>  <ID>  (1) 
conformer_0

$$$$
