
     RDKit          3D

 23 25  0  0  0  0  0  0  0  0999 V2000
  -17.2354   -1.5539  -24.4319 N   0  0  0  0  0  0  0  0  0  0  0  0
  -16.1354   -1.1539  -23.7319 C   0  0  0  0  0  0  0  0  0  0  0  0
  -15.2354   -2.0539  -23.5319 N   0  0  0  0  0  0  0  0  0  0  0  0
  -14.0354   -1.8539  -23.0319 C   0  0  0  0  0  0  0  0  0  0  0  0
  -13.8354   -0.4539  -23.2319 C   0  0  0  0  0  0  0  0  0  0  0  0
  -14.7354    0.5461  -22.7319 C   0  0  0  0  0  0  0  0  0  0  0  0
  -14.3354    1.8461  -22.7319 N   0  0  0  0  0  0  0  0  0  0  0  0
  -15.1354    2.9461  -22.7319 C   0  0  0  0  0  0  0  0  0  0  0  0
  -14.5354    4.2461  -22.3319 C   0  0  0  0  0  0  0  0  0  0  0  0
  -15.5354    5.3461  -22.1319 C   0  0  0  0  0  0  0  0  0  0  0  0
  -13.7354    3.8461  -21.1319 C   0  0  0  0  0  0  0  0  0  0  0  0
  -16.0354    2.9461  -23.6319 O   0  0  0  0  0  0  0  0  0  0  0  0
  -18.2354   -0.5539  -24.5319 C   0  0  0  0  0  3  0  0  0  0  0  0
  -16.1354    0.1461  -23.1319 C   0  0  0  0  0  0  0  0  0  0  0  0
  -19.5354   -0.5539  -24.4319 N   0  0  0  0  0  0  0  0  0  0  0  0
  -12.4354   -0.0539  -23.1319 C   0  0  0  0  0  0  0  0  0  0  0  0
  -20.4354    0.4461  -24.1319 C   0  0  0  0  0  0  0  0  0  0  0  0
  -20.0354    1.6461  -23.6319 C   0  0  0  0  0  0  0  0  0  0  0  0
  -21.8354    0.1461  -24.1319 C   0  0  0  0  0  0  0  0  0  0  0  0
  -20.8354    2.7461  -23.3319 C   0  0  0  0  0  0  0  0  0  0  0  0
  -22.7354    1.2461  -24.0319 C   0  0  0  0  0  0  0  0  0  0  0  0
  -22.2354    2.4461  -23.4319 C   0  0  0  0  0  0  0  0  0  0  0  0
  -17.5354    0.6461  -24.0319 C   0  0  0  0  0  0  0  0  0  0  0  0
  2  1  2  0
  3  2  1  0
  4  3  1  0
  5  4  1  0
  6  5  1  0
  7  6  1  0
  8  7  1  0
  9  8  1  0
 10  9  1  0
 11  9  1  0
 12  8  2  0
 13  1  1  0
 14  2  1  0
 14  6  1  0
 15 13  1  0
 16  5  1  0
 17 15  1  0
 18 17  2  0
 19 17  1  0
 20 18  1  0
 21 19  2  0
 22 20  2  0
 22 21  1  0
 23 13  1  0
 23 14  1  0
M  END
>  <ID>  (1) 
conformer_0

$$$$
