
     RDKit          3D

 28 32  0  0  0  0  0  0  0  0999 V2000
  -15.5515   -0.0765  -23.6143 C   0  0  0  0  0  0  0  0  0  0  0  0
  -15.8515   -1.3765  -23.7143 C   0  0  0  0  0  0  0  0  0  0  0  0
  -16.8515   -1.7765  -24.5143 N   0  0  0  0  0  0  0  0  0  0  0  0
  -16.5515    0.7235  -24.2143 C   0  0  0  0  0  0  0  0  0  0  0  0
  -14.7515   -2.3765  -23.6143 N   0  0  0  0  0  0  0  0  0  0  0  0
  -17.8515    0.2235  -24.3143 N   0  0  0  0  0  0  0  0  0  0  0  0
  -17.9515   -1.0765  -24.3143 C   0  0  0  0  0  0  0  0  0  0  0  0
  -14.4515    0.6235  -22.9143 C   0  0  0  0  0  0  0  0  0  0  0  0
  -16.3515    2.0235  -23.9143 N   0  0  0  0  0  0  0  0  0  0  0  0
  -15.5515    2.8235  -23.1143 C   0  0  0  0  0  0  0  0  0  0  0  0
  -14.5515    1.9235  -22.5143 C   0  0  0  0  0  0  0  0  0  0  0  0
  -13.4515    2.5235  -21.8143 C   0  0  0  0  0  0  0  0  0  0  0  0
  -15.4515    4.1235  -22.8143 C   0  0  0  0  0  0  0  0  0  0  0  0
  -13.5515    3.8235  -21.4143 C   0  0  0  0  0  0  0  0  0  0  0  0
  -14.2515    4.7235  -22.2143 C   0  0  0  0  0  0  0  0  0  0  0  0
  -12.4515    4.5235  -20.8143 N   0  0  0  0  0  0  0  0  0  0  0  0
  -12.8515    5.5235  -20.0143 C   0  0  0  0  0  0  0  0  0  0  0  0
  -11.3515    3.8235  -20.3143 C   0  0  0  0  0  0  0  0  0  0  0  0
  -10.0515    4.4235  -19.9143 C   0  0  0  0  0  0  0  0  0  0  0  0
  -10.3515    5.5235  -19.1143 O   0  0  0  0  0  0  0  0  0  0  0  0
   -9.2515    4.9235  -21.0143 C   0  0  0  0  0  0  0  0  0  0  0  0
  -10.0515    5.1235  -22.1143 O   0  0  0  0  0  0  0  0  0  0  0  0
  -13.9515    6.4235  -20.3143 C   0  0  0  0  0  0  0  0  0  0  0  0
  -14.6515    6.0235  -21.5143 O   0  0  0  0  0  0  0  0  0  0  0  0
  -17.4515    2.9235  -23.6143 C   0  0  0  0  0  0  0  0  0  0  0  0
  -13.6515   -1.6765  -22.9143 C   0  0  0  0  0  0  0  0  0  0  0  0
  -13.4515   -0.2765  -22.6143 O   0  0  0  0  0  0  0  0  0  0  0  0
  -12.4515   -2.4765  -22.5143 C   0  0  0  0  0  0  0  0  0  0  0  0
  2  1  1  0
  3  2  2  0
  4  1  2  0
  5  2  1  0
  6  4  1  0
  7  3  1  0
  7  6  2  0
  8  1  1  0
  9  4  1  0
 10  9  1  0
 11  8  2  0
 11 10  1  0
 12 11  1  0
 13 10  1  0
 14 12  2  0
 15 13  2  0
 15 14  1  0
 16 14  1  0
 17 16  1  0
 18 16  1  0
 19 18  1  0
 20 19  1  0
 21 19  1  0
 22 21  1  0
 23 17  1  0
 24 15  1  0
 24 23  1  0
 25  9  1  0
 26  5  2  0
 27  8  1  0
 27 26  1  0
 28 26  1  0
M  END
>  <ID>  (1) 
conformer_0

$$$$
