
     RDKit          3D

 12 13  0  0  0  0  0  0  0  0999 V2000
  -17.2354   -1.5539  -24.4319 N   0  0  0  0  0  0  0  0  0  0  0  0
  -16.1354   -1.1539  -23.7319 C   0  0  0  0  0  0  0  0  0  0  0  0
  -15.1354   -2.0539  -23.5319 N   0  0  0  0  0  0  0  0  0  0  0  0
  -13.8354   -1.7539  -23.0319 C   0  0  0  0  0  0  0  0  0  0  0  0
  -18.2354   -0.4539  -24.3319 C   0  0  0  0  0  0  0  0  0  0  0  0
  -15.8354    0.1461  -23.6319 C   0  0  0  0  0  0  0  0  0  0  0  0
  -14.6354    0.4461  -22.8319 C   0  0  0  0  0  0  0  0  0  0  0  0
  -16.6354    1.2461  -24.0319 C   0  0  0  0  0  0  0  0  0  0  0  0
  -13.5354   -0.3539  -23.0319 C   0  0  0  0  0  0  0  0  0  0  0  0
  -18.1354    0.8461  -24.0319 C   0  0  0  0  0  0  0  0  0  0  0  0
  -12.9354   -2.6539  -23.2319 N   0  0  0  0  0  0  0  0  0  0  0  0
  -11.7354   -2.0539  -22.6319 C   0  0  0  0  0  0  0  0  0  0  0  0
  2  1  2  0
  3  2  1  0
  4  3  2  0
  5  1  1  0
  6  2  1  0
  7  6  1  0
  8  6  1  0
  9  4  1  0
  9  7  1  0
 10  5  1  0
 10  8  1  0
 11  4  1  0
 12 11  1  0
M  END
>  <ID>  (1) 
conformer_0

$$$$
