
     RDKit          3D

 23 26  0  0  0  0  0  0  0  0999 V2000
  -17.2354   -1.5539  -24.4319 N   0  0  0  0  0  0  0  0  0  0  0  0
  -16.1354   -1.1539  -23.7319 C   0  0  0  0  0  0  0  0  0  0  0  0
  -15.8354    0.1461  -23.4319 C   0  0  0  0  0  0  0  0  0  0  0  0
  -16.9354    1.0461  -23.8319 C   0  0  0  0  0  0  0  0  0  0  0  0
  -16.5354    2.4461  -23.6319 C   0  0  0  0  0  0  0  0  0  0  0  0
  -14.7354    0.7461  -22.9319 C   0  0  0  0  0  0  0  0  0  0  0  0
  -18.2354    0.6461  -24.0319 C   0  0  0  0  0  0  0  0  0  0  0  0
  -15.1354   -2.0539  -23.4319 N   0  0  0  0  0  0  0  0  0  0  0  0
  -13.9354   -1.4539  -22.9319 C   0  0  0  0  0  0  0  0  0  0  0  0
  -13.5354   -0.1539  -22.9319 C   0  0  0  0  0  0  0  0  0  0  0  0
  -18.4354   -0.8539  -24.3319 C   0  0  0  0  0  0  0  0  0  0  0  0
  -15.4354    3.0461  -23.0319 C   0  0  0  0  0  0  0  0  0  0  0  0
  -14.6354    1.9461  -22.4319 N   0  0  0  0  0  0  0  0  0  0  0  0
  -13.3354   -2.1539  -22.0319 O   0  0  0  0  0  0  0  0  0  0  0  0
  -15.2354    4.4461  -22.9319 C   0  0  0  0  0  0  0  0  0  0  0  0
  -14.0354    4.9461  -22.2319 C   0  0  0  0  0  0  0  0  0  0  0  0
  -14.2354    5.3461  -20.8319 C   0  0  0  0  0  0  0  0  0  0  0  0
  -13.0354    5.3461  -20.0319 C   0  0  0  0  0  0  0  0  0  0  0  0
  -11.8354    4.6461  -20.2319 N   0  0  0  0  0  0  0  0  0  0  0  0
  -11.7354    4.0461  -21.5319 C   0  0  0  0  0  0  0  0  0  0  0  0
  -11.0354    4.5461  -22.3319 O   0  0  0  0  0  0  0  0  0  0  0  0
  -13.0354    3.8461  -22.0319 N   0  0  0  0  0  0  0  0  0  0  0  0
  -12.9354    6.3461  -18.9319 C   0  0  0  0  0  0  0  0  0  0  0  0
  2  1  2  0
  3  2  1  0
  4  3  2  0
  5  4  1  0
  6  3  1  0
  7  4  1  0
  8  2  1  0
  9  8  1  0
 10  6  1  0
 10  9  1  0
 11  1  1  0
 11  7  1  0
 12  5  2  0
 13  6  2  0
 13 12  1  0
 14  9  2  0
 15 12  1  0
 16 15  1  0
 17 16  1  0
 18 17  1  0
 19 18  1  0
 20 19  1  0
 21 20  1  0
 22 16  1  0
 22 20  1  0
 23 18  1  0
M  END
>  <ID>  (1) 
conformer_0

$$$$
