
     RDKit          3D

 27 31  0  0  0  0  0  0  0  0999 V2000
  -15.7096   -0.1264  -23.5820 C   0  0  0  0  0  0  0  0  0  0  0  0
  -15.7096   -1.5264  -23.4820 C   0  0  0  0  0  0  0  0  0  0  0  0
  -16.9096   -1.9264  -24.1820 N   0  0  0  0  0  0  0  0  0  0  0  0
  -16.9096    0.4736  -24.1820 C   0  0  0  0  0  0  0  0  0  0  0  0
  -14.7096   -2.4264  -23.4820 N   0  0  0  0  0  0  0  0  0  0  0  0
  -14.8096    0.8736  -23.0820 C   0  0  0  0  0  0  0  0  0  0  0  0
  -17.0096    1.7736  -23.6820 N   0  0  0  0  0  0  0  0  0  0  0  0
  -18.1096   -0.1264  -24.3820 N   0  0  0  0  0  0  0  0  0  0  0  0
  -18.4096    2.1736  -23.5820 C   0  0  0  0  0  0  0  0  0  0  0  0
  -16.0096    2.8736  -23.6820 C   0  0  0  0  0  0  0  0  0  0  0  0
  -18.1096   -1.4264  -24.4820 C   0  0  0  0  0  0  0  0  0  0  0  0
  -13.6096    0.2736  -22.8820 N   0  0  0  0  0  0  0  0  0  0  0  0
  -15.0096    2.1736  -22.8820 C   0  0  0  0  0  0  0  0  0  0  0  0
  -14.0096    2.7736  -22.0820 C   0  0  0  0  0  0  0  0  0  0  0  0
  -14.0096    3.4736  -20.8820 C   0  0  0  0  0  0  0  0  0  0  0  0
  -12.7096    3.9736  -20.5820 N   0  0  0  0  0  4  0  0  0  0  0  0
  -12.0096    4.0736  -21.7820 C   0  0  0  0  0  0  0  0  0  0  0  0
  -12.6096    5.1736  -19.7820 C   0  0  0  0  0  0  0  0  0  0  0  0
  -10.8096    4.4736  -21.7820 O   0  0  0  0  0  0  0  0  0  0  0  0
  -13.2096   -1.0264  -22.5820 C   0  0  0  0  0  0  0  0  0  0  0  0
  -13.5096   -2.4264  -22.9820 C   0  0  0  0  0  0  0  0  0  0  0  0
  -14.5096    4.1736  -21.9820 C   0  0  0  0  0  0  0  0  0  0  0  0
  -15.5096    4.5736  -22.4820 N   0  0  0  0  0  0  0  0  0  0  0  0
  -16.7096    3.9736  -23.0820 C   0  0  0  0  0  0  0  0  0  0  0  0
  -16.1096    5.7736  -21.9820 C   0  0  0  0  0  0  0  0  0  0  0  0
  -11.9096    3.0736  -20.8820 N   0  0  0  0  0  0  0  0  0  0  0  0
  -11.8096   -1.0264  -22.2820 C   0  0  0  0  0  0  0  0  0  0  0  0
  2  1  1  0
  3  2  2  0
  4  1  2  0
  5  2  1  0
  6  1  1  0
  7  4  1  0
  8  4  1  0
  9  7  1  0
 10  7  1  0
 11  3  1  0
 11  8  2  0
 12  6  1  0
 13  6  2  0
 13 10  1  0
 14 13  1  0
 15 14  1  0
 16 15  1  0
 17 16  1  0
 18 16  1  0
 19 17  2  0
 20 12  1  0
 21  5  1  0
 21 20  1  0
 22 14  2  0
 22 15  1  0
 23 22  1  0
 24 10  2  0
 24 23  1  0
 25 23  1  0
 26 17  1  0
 27 20  1  0
M  END
>  <ID>  (1) 
conformer_0

$$$$
