
     RDKit          3D

 22 26  0  0  0  0  0  0  0  0999 V2000
  -15.5515   -0.0765  -23.6143 C   0  0  0  0  0  0  0  0  0  0  0  0
  -15.7515   -1.4765  -23.4143 C   0  0  0  0  0  0  0  0  0  0  0  0
  -16.6515   -1.9765  -24.3143 N   0  0  0  0  0  0  0  0  0  0  0  0
  -16.7515    0.5235  -24.1143 C   0  0  0  0  0  0  0  0  0  0  0  0
  -14.6515   -2.3765  -23.4143 N   0  0  0  0  0  0  0  0  0  0  0  0
  -17.9515    0.0235  -24.2143 N   0  0  0  0  0  0  0  0  0  0  0  0
  -14.7515    0.9235  -23.0143 C   0  0  0  0  0  0  0  0  0  0  0  0
  -16.7515    1.9235  -23.6143 N   0  0  0  0  0  0  0  0  0  0  0  0
  -15.4515    2.2235  -23.0143 C   0  0  0  0  0  0  0  0  0  0  0  0
  -17.7515   -1.3765  -24.5143 C   0  0  0  0  0  0  0  0  0  0  0  0
  -18.0515    2.4235  -23.4143 C   0  0  0  0  0  0  0  0  0  0  0  0
  -19.3515    1.8235  -23.7143 C   0  0  0  0  0  0  0  0  0  0  0  0
  -17.9515    3.4235  -22.3143 C   0  0  0  0  0  0  0  0  0  0  0  0
  -15.4515    3.0235  -21.8143 C   0  0  0  0  0  0  0  0  0  0  0  0
  -16.6515    3.8235  -21.7143 C   0  0  0  0  0  0  0  0  0  0  0  0
  -14.1515    3.2235  -21.1143 C   0  0  0  0  0  0  0  0  0  0  0  0
  -13.7515    4.5235  -20.5143 C   0  0  0  0  0  0  0  0  0  0  0  0
  -14.3515    5.6235  -21.3143 C   0  0  0  0  0  0  0  0  0  0  0  0
  -14.7515    5.3235  -22.7143 C   0  0  0  0  0  0  0  0  0  0  0  0
  -20.6515    2.2235  -23.1143 C   0  0  0  0  0  0  0  0  0  0  0  0
  -21.8515    1.8235  -23.6143 C   0  0  0  0  0  0  0  0  0  0  0  0
  -15.7515    4.3235  -22.8143 C   0  0  0  0  0  0  0  0  0  0  0  0
  2  1  2  0
  3  2  1  0
  4  1  1  0
  5  2  1  0
  6  4  2  0
  7  1  1  0
  8  4  1  0
  9  7  2  0
  9  8  1  0
 10  3  2  0
 10  6  1  0
 11  8  1  0
 12 11  2  3
 13 11  1  0
 14  9  1  0
 15 13  1  0
 15 14  1  0
 16 14  1  0
 17 16  1  0
 18 17  1  0
 19 18  1  0
 20 12  1  0
 21 20  2  0
 22 14  1  0
 22 15  1  0
 22 19  1  0
M  END
>  <ID>  (1) 
conformer_0

$$$$
