
     RDKit          3D

 12 13  0  0  0  0  0  0  0  0999 V2000
  -17.2354   -1.5539  -24.4319 N   0  0  0  0  0  0  0  0  0  0  0  0
  -16.1354   -1.1539  -23.7319 C   0  0  0  0  0  0  0  0  0  0  0  0
  -15.3354   -2.1539  -23.4319 N   0  0  0  0  0  0  0  0  0  0  0  0
  -13.9354   -2.0539  -23.2319 C   0  0  0  0  0  0  0  0  0  0  0  0
  -13.7354   -0.7539  -23.4319 C   0  0  0  0  0  0  0  0  0  0  0  0
  -14.5354    0.2461  -22.9319 C   0  0  0  0  0  0  0  0  0  0  0  0
  -15.8354    0.1461  -23.5319 C   0  0  0  0  0  0  0  0  0  0  0  0
  -16.7354    1.2461  -23.8319 C   0  0  0  0  0  0  0  0  0  0  0  0
  -18.2354   -0.6539  -24.6319 C   0  0  0  0  0  0  0  0  0  0  0  0
  -18.0354    0.6461  -24.1319 C   0  0  0  0  0  0  0  0  0  0  0  0
  -12.3354   -0.4539  -23.4319 C   0  0  0  0  0  0  0  0  0  0  0  0
  -11.5354   -0.8539  -22.3319 N   0  0  0  0  0  0  0  0  0  0  0  0
  2  1  2  0
  3  2  1  0
  4  3  1  0
  5  4  1  0
  6  5  1  0
  7  2  1  0
  7  6  1  0
  8  7  1  0
  9  1  1  0
 10  8  1  0
 10  9  1  0
 11  5  1  0
 12 11  1  0
M  END
>  <ID>  (1) 
conformer_0

$$$$
