
     RDKit          3D

 19 22  0  0  0  0  0  0  0  0999 V2000
  -17.2354   -1.5539  -24.4319 N   0  0  0  0  0  0  0  0  0  0  0  0
  -16.1354   -1.1539  -23.7319 C   0  0  0  0  0  0  0  0  0  0  0  0
  -15.1354   -2.0539  -23.5319 N   0  0  0  0  0  0  0  0  0  0  0  0
  -13.9354   -1.8539  -23.0319 C   0  0  0  0  0  0  0  0  0  0  0  0
  -15.7354    0.1461  -23.6319 C   0  0  0  0  0  0  0  0  0  0  0  0
  -14.5354    0.4461  -22.8319 C   0  0  0  0  0  0  0  0  0  0  0  0
  -16.7354    1.1461  -23.9319 C   0  0  0  0  0  0  0  0  0  0  0  0
  -18.2354   -0.6539  -24.5319 C   0  0  0  0  0  0  0  0  0  0  0  0
  -13.4354   -0.5539  -22.8319 C   0  0  0  0  0  0  0  0  0  0  0  0
  -18.1354    0.6461  -24.0319 C   0  0  0  0  0  0  0  0  0  0  0  0
  -14.3354    1.8461  -22.6319 N   0  0  0  0  0  0  0  0  0  0  0  0
  -15.2354    2.9461  -23.0319 C   0  0  0  0  0  0  0  0  0  0  0  0
  -16.5354    2.3461  -23.2319 N   0  0  0  0  0  0  0  0  0  0  0  0
  -15.2354    3.9461  -21.9319 C   0  0  0  0  0  0  0  0  0  0  0  0
  -14.3354    3.5461  -20.8319 C   0  0  0  0  0  0  0  0  0  0  0  0
  -14.8354    5.2461  -22.5319 C   0  0  0  0  0  0  0  0  0  0  0  0
  -13.4354    2.4461  -21.6319 C   0  0  0  0  0  0  0  0  0  0  0  0
  -12.2354    2.6461  -21.8319 O   0  0  0  0  0  0  0  0  0  0  0  0
  -16.6354    4.1461  -21.4319 C   0  0  0  0  0  0  0  0  0  0  0  0
  2  1  2  0
  3  2  1  0
  4  3  2  0
  5  2  1  0
  6  5  1  0
  7  5  1  0
  8  1  1  0
  9  4  1  0
  9  6  1  0
 10  7  1  0
 10  8  1  0
 11  6  1  0
 12 11  1  0
 13  7  1  0
 13 12  1  0
 14 12  1  0
 15 14  1  0
 16 14  1  0
 17 11  1  0
 17 15  1  0
 18 17  2  0
 19 14  1  0
M  END
>  <ID>  (1) 
conformer_0

$$$$
