
     RDKit          3D

 14 16  0  0  0  0  0  0  0  0999 V2000
  -17.2354   -1.5539  -24.4319 N   0  0  0  0  0  0  0  0  0  0  0  0
  -16.1354   -1.1539  -23.7319 C   0  0  0  0  0  0  0  0  0  0  0  0
  -15.2354   -2.0539  -23.4319 N   0  0  0  0  0  0  0  0  0  0  0  0
  -13.9354   -1.8539  -23.0319 C   0  0  0  0  0  0  0  0  0  0  0  0
  -13.8354   -0.4539  -23.1319 C   0  0  0  0  0  0  0  0  0  0  0  0
  -14.7354    0.5461  -22.9319 C   0  0  0  0  0  0  0  0  0  0  0  0
  -16.0354    0.1461  -23.4319 C   0  0  0  0  0  0  0  0  0  0  0  0
  -17.1354    1.0461  -23.8319 C   0  0  0  0  0  0  0  0  0  0  0  0
  -18.3354   -0.8539  -24.4319 C   0  0  0  0  0  0  0  0  0  0  0  0
  -18.4354    0.5461  -24.0319 C   0  0  0  0  0  0  0  0  0  0  0  0
  -12.4354   -0.0539  -22.8319 C   0  0  0  0  0  0  0  0  0  0  0  0
  -12.8354   -2.3539  -23.2319 N   0  0  0  0  0  0  0  0  0  0  0  0
  -11.4354   -0.8539  -22.3319 N   0  0  0  0  0  0  0  0  0  0  0  0
  -11.7354   -2.2539  -22.3319 C   0  0  0  0  0  0  0  0  0  0  0  0
  2  1  2  0
  3  2  1  0
  4  3  2  0
  5  4  1  0
  6  5  1  0
  7  2  1  0
  7  6  1  0
  8  7  1  0
  9  1  1  0
 10  8  1  0
 10  9  1  0
 11  5  1  0
 12  4  1  0
 13 11  1  0
 14 12  1  0
 14 13  1  0
M  END
>  <ID>  (1) 
conformer_0

$$$$
