
     RDKit          3D

 10 11  0  0  0  0  0  0  0  0999 V2000
  -17.2354   -1.5539  -24.4319 N   0  0  0  0  0  0  0  0  0  0  0  0
  -16.3354   -0.9539  -23.6319 C   0  0  0  0  0  0  0  0  0  0  0  0
  -15.0354   -1.3539  -23.3319 C   0  0  0  0  0  0  0  0  0  0  0  0
  -14.2354   -0.2539  -23.0319 C   0  0  0  0  0  0  0  0  0  0  0  0
  -15.0354    0.9461  -23.0319 C   0  0  0  0  0  0  0  0  0  0  0  0
  -16.2354    0.4461  -23.8319 C   0  0  0  0  0  0  0  0  0  0  0  0
  -14.6354   -2.6539  -23.4319 N   0  0  0  0  0  0  0  0  0  0  0  0
  -17.3354    1.2461  -23.9319 C   0  0  0  0  0  0  0  0  0  0  0  0
  -18.2354   -0.6539  -24.6319 C   0  0  0  0  0  0  0  0  0  0  0  0
  -18.5354    0.5461  -24.1319 C   0  0  0  0  0  0  0  0  0  0  0  0
  2  1  1  0
  3  2  1  0
  4  3  1  0
  5  4  1  0
  6  2  1  0
  6  5  1  0
  7  3  1  0
  8  6  1  0
  9  1  1  0
 10  8  1  0
 10  9  1  0
M  END
>  <ID>  (1) 
conformer_0

$$$$
