
     RDKit          3D

 13 14  0  0  0  0  0  0  0  0999 V2000
  -15.5515   -0.0765  -23.6143 C   0  0  0  0  0  0  0  0  0  0  0  0
  -15.7515   -1.4765  -23.4143 C   0  0  0  0  0  0  0  0  0  0  0  0
  -16.6515   -1.9765  -24.3143 N   0  0  0  0  0  0  0  0  0  0  0  0
  -16.7515    0.5235  -24.1143 C   0  0  0  0  0  0  0  0  0  0  0  0
  -14.6515   -2.3765  -23.4143 N   0  0  0  0  0  0  0  0  0  0  0  0
  -17.9515    0.0235  -24.2143 N   0  0  0  0  0  0  0  0  0  0  0  0
  -14.7515    0.9235  -23.0143 C   0  0  0  0  0  0  0  0  0  0  0  0
  -16.7515    1.9235  -23.6143 N   0  0  0  0  0  0  0  0  0  0  0  0
  -15.4515    2.2235  -23.0143 C   0  0  0  0  0  0  0  0  0  0  0  0
  -17.7515   -1.3765  -24.5143 C   0  0  0  0  0  0  0  0  0  0  0  0
  -18.0515    2.4235  -23.4143 C   0  0  0  0  0  0  0  0  0  0  0  0
  -19.3515    1.8235  -23.7143 C   0  0  0  0  0  0  0  0  0  0  0  0
  -17.9515    3.8235  -22.9143 C   0  0  0  0  0  0  0  0  0  0  0  0
  2  1  2  0
  3  2  1  0
  4  1  1  0
  5  2  1  0
  6  4  2  0
  7  1  1  0
  8  4  1  0
  9  7  2  0
  9  8  1  0
 10  3  2  0
 10  6  1  0
 11  8  1  0
 12 11  1  0
 13 11  1  0
M  END
>  <ID>  (1) 
conformer_0

$$$$
