
     RDKit          3D

 23 25  0  0  0  0  0  0  0  0999 V2000
  -15.5515   -0.0765  -23.6143 C   0  0  0  0  0  0  0  0  0  0  0  0
  -15.7515   -1.4765  -23.4143 C   0  0  0  0  0  0  0  0  0  0  0  0
  -16.7515   -2.0765  -24.1143 N   0  0  0  0  0  0  0  0  0  0  0  0
  -16.6515    0.6235  -24.3143 C   0  0  0  0  0  0  0  0  0  0  0  0
  -14.6515   -2.3765  -23.4143 N   0  0  0  0  0  0  0  0  0  0  0  0
  -17.8515    0.0235  -24.3143 N   0  0  0  0  0  0  0  0  0  0  0  0
  -17.7515   -1.1765  -24.5143 C   0  0  0  0  0  0  0  0  0  0  0  0
  -14.8515    0.7235  -22.8143 C   0  0  0  0  0  0  0  0  0  0  0  0
  -16.5515    2.0235  -23.9143 N   0  0  0  0  0  0  0  0  0  0  0  0
  -15.4515    2.1235  -22.9143 C   0  0  0  0  0  0  0  0  0  0  0  0
  -17.8515    2.6235  -23.5143 C   0  0  0  0  0  0  0  0  0  0  0  0
  -19.1515    2.1235  -23.7143 C   0  0  0  0  0  0  0  0  0  0  0  0
  -17.6515    3.3235  -22.2143 C   0  0  0  0  0  0  0  0  0  0  0  0
  -15.0515    3.1235  -22.1143 C   0  0  0  0  0  0  0  0  0  0  0  0
  -15.4515    4.3235  -21.3143 C   0  0  0  0  0  0  0  0  0  0  0  0
  -14.2515    4.6235  -20.5143 N   0  0  0  0  0  0  0  0  0  0  0  0
  -13.2515    3.7235  -20.5143 C   0  0  0  0  0  0  0  0  0  0  0  0
  -13.7515    2.6235  -21.6143 C   0  0  0  0  0  0  0  0  0  0  0  0
  -11.8515    3.8235  -20.7143 C   0  0  0  0  0  0  0  0  0  0  0  0
  -10.8515    4.1235  -19.7143 N   0  0  0  0  0  0  0  0  0  0  0  0
   -9.5515    4.4235  -19.8143 C   0  0  0  0  0  0  0  0  0  0  0  0
   -8.9515    4.8235  -18.7143 O   0  0  0  0  0  0  0  0  0  0  0  0
   -9.0515    4.9235  -21.1143 C   0  0  0  0  0  0  0  0  0  0  0  0
  2  1  2  0
  3  2  1  0
  4  1  1  0
  5  2  1  0
  6  4  2  0
  7  3  2  0
  7  6  1  0
  8  1  1  0
  9  4  1  0
 10  8  2  0
 10  9  1  0
 11  9  1  0
 12 11  1  0
 13 11  1  0
 14 10  1  0
 15 14  1  0
 16 15  2  0
 17 16  1  0
 18 14  2  0
 18 17  1  0
 19 17  1  0
 20 19  2  3
 21 20  1  0
 22 21  2  0
 23 21  1  0
M  END
>  <ID>  (1) 
conformer_0

$$$$
