
     RDKit          3D

 38 41  0  0  0  0  0  0  0  0999 V2000
   -1.6539   19.0785  -20.8068 C   0  0  0  0  0  0  0  0  0  0  0  0
   -2.6555   19.1298  -22.9431 C   0  0  0  0  0  0  0  0  0  0  0  0
   -2.8564    7.9856  -27.4062 C   0  0  0  0  0  0  0  0  0  0  0  0
   -3.4574   14.0560  -27.2802 O   0  0  0  0  0  0  0  0  0  0  0  0
   -3.6763   19.3745  -23.9155 C   0  0  0  0  0  0  0  0  0  0  0  0
   -1.7092   16.6196  -27.2774 C   0  0  0  0  0  0  0  0  0  0  0  0
   -2.5175   17.0258  -26.2601 N   0  0  0  0  0  0  0  0  0  0  0  0
   -1.4184    9.2785  -28.9391 C   0  0  0  0  0  0  0  0  0  0  0  0
   -0.6181   17.3817  -27.6859 C   0  0  0  0  0  0  0  0  0  0  0  0
   -0.6176   15.9148  -20.6977 O   0  0  0  0  0  0  0  0  0  0  0  0
   -0.3793   18.6684  -27.1384 C   0  0  0  0  0  0  0  0  0  0  0  0
   -1.8153   15.5984  -28.1414 C   0  0  0  0  0  0  0  0  0  0  0  0
   -0.6602   17.0316  -21.2972 C   0  0  0  0  0  0  0  0  0  0  0  0
   -3.4944   18.9046  -25.1365 C   0  0  0  0  0  0  0  0  0  0  0  0
   -0.9112   10.5482  -29.4599 C   0  0  0  0  0  0  0  0  0  0  0  0
   -3.1857   10.4660  -27.8466 C   0  0  0  0  0  0  0  0  0  0  0  0
    3.4355   17.1216  -30.3944 C   0  0  0  0  0  0  0  0  0  0  0  0
   -2.4982    9.2893  -28.0967 C   0  0  0  0  0  0  0  0  0  0  0  0
    0.8160   19.3524  -27.6612 C   0  0  0  0  0  0  0  0  0  0  0  0
   -1.3168   19.0721  -26.2494 C   0  0  0  0  0  0  0  0  0  0  0  0
   -2.8375   14.3515  -30.4648 F   0  0  0  0  0  0  0  0  0  0  0  0
   -2.5376   14.3597  -28.1345 C   0  0  0  0  0  0  0  0  0  0  0  0
    1.8202   19.1077  -31.2815 O   0  0  0  0  0  0  0  0  0  0  0  0
   -1.0887   12.9965  -29.4995 O   0  0  0  0  0  0  0  0  0  0  0  0
    1.7517   18.9213  -30.0057 C   0  0  0  0  0  0  0  0  0  0  0  0
   -0.2411   16.8511  -22.4785 O   0  0  0  0  0  0  0  0  0  0  0  0
   -1.5244   11.7189  -29.0890 C   0  0  0  0  0  0  0  0  0  0  0  0
   -4.4717   10.4319  -27.0317 C   0  0  0  0  0  0  0  0  0  0  0  0
   -2.1839   13.7508  -29.4465 C   0  0  0  0  0  0  0  0  0  0  0  0
   -0.9505   18.0355  -20.6144 C   0  0  0  0  0  0  0  0  0  0  0  0
   -2.3259   19.3352  -21.7968 C   0  0  0  0  0  0  0  0  0  0  0  0
    2.3908   17.6659  -29.5005 C   0  0  0  0  0  0  0  0  0  0  0  0
   -2.6663   11.6210  -28.3404 C   0  0  0  0  0  0  0  0  0  0  0  0
    0.0438   16.7407  -28.7162 C   0  0  0  0  0  0  0  0  0  0  0  0
   -2.4150   18.3293  -25.8205 C   0  0  0  0  0  0  0  0  0  0  0  0
    1.4512   16.6983  -28.9517 C   0  0  0  0  0  0  0  0  0  0  0  0
   -0.7504   15.6952  -29.0839 N   0  0  0  0  0  0  0  0  0  0  0  0
    0.7626   19.6093  -29.1417 C   0  0  0  0  0  0  0  0  0  0  0  0
  1 30  2  3
  1 31  1  0
  2  5  1  0
  2 31  2  3
  3 18  1  0
  4 22  1  0
  5 14  2  3
  6  7  1  0
  6  9  2  0
  6 12  1  0
  7 35  1  0
  8 15  2  0
  8 18  1  0
  9 11  1  0
  9 34  1  0
 10 13  2  0
 11 19  1  0
 11 20  2  0
 12 22  1  0
 12 37  1  0
 13 26  1  0
 13 30  1  0
 14 35  1  0
 15 27  1  0
 16 18  2  0
 16 28  1  0
 16 33  1  0
 17 32  1  0
 19 38  1  0
 20 35  1  0
 21 29  1  0
 22 29  1  0
 23 25  1  0
 24 27  1  0
 24 29  1  0
 25 32  1  0
 25 38  1  0
 27 33  2  0
 32 36  1  0
 34 36  1  0
 34 37  1  0
M  END
>  <ID>  (1) 
conformer_0

$$$$
