
     RDKit          3D

 37 41  0  0  0  0  0  0  0  0999 V2000
   -4.3992   19.1380  -25.1155 F   0  0  0  0  0  0  0  0  0  0  0  0
   -3.1454   19.4396  -24.8258 C   0  0  0  0  0  0  0  0  0  0  0  0
   -2.2943   18.8812  -22.5785 C   0  0  0  0  0  0  0  0  0  0  0  0
   -1.4712   15.7631  -27.5476 C   0  0  0  0  0  0  0  0  0  0  0  0
   -1.9928   18.7150  -21.2890 C   0  0  0  0  0  0  0  0  0  0  0  0
   -0.5552   17.4063  -23.3520 C   0  0  0  0  0  0  0  0  0  0  0  0
   -1.4048   14.5314  -28.1335 O   0  0  0  0  0  0  0  0  0  0  0  0
   -2.8121   14.4615  -30.0872 O   0  0  0  0  0  0  0  0  0  0  0  0
    2.7174   18.0153  -30.8464 C   0  0  0  0  0  0  0  0  0  0  0  0
    1.5858   16.3655  -29.3536 C   0  0  0  0  0  0  0  0  0  0  0  0
   -1.6437    9.4914  -29.1456 C   0  0  0  0  0  0  0  0  0  0  0  0
    2.5475   16.7917  -30.2634 C   0  0  0  0  0  0  0  0  0  0  0  0
   -1.7908   12.5176  -29.2876 C   0  0  0  0  0  0  0  0  0  0  0  0
   -2.9848   20.6793  -24.2522 F   0  0  0  0  0  0  0  0  0  0  0  0
   -1.5461   11.6447  -30.5327 C   0  0  0  0  0  0  0  0  0  0  0  0
    0.5641   17.0707  -28.7544 C   0  0  0  0  0  0  0  0  0  0  0  0
   -2.8262   10.3139  -28.5617 C   0  0  0  0  0  0  0  0  0  0  0  0
   -3.6777    9.5576  -27.5496 C   0  0  0  0  0  0  0  0  0  0  0  0
    2.0946   19.1841  -30.6598 C   0  0  0  0  0  0  0  0  0  0  0  0
   -0.8546   18.0262  -27.2226 C   0  0  0  0  0  0  0  0  0  0  0  0
   -0.9523   10.2405  -30.2991 C   0  0  0  0  0  0  0  0  0  0  0  0
   -1.6892   18.0215  -26.1082 C   0  0  0  0  0  0  0  0  0  0  0  0
   -2.5302   17.1314  -25.8182 C   0  0  0  0  0  0  0  0  0  0  0  0
   -0.5519   16.7861  -27.8815 C   0  0  0  0  0  0  0  0  0  0  0  0
    0.5781   18.4648  -28.8835 C   0  0  0  0  0  0  0  0  0  0  0  0
    1.1420   19.3114  -29.7474 C   0  0  0  0  0  0  0  0  0  0  0  0
   -0.2363   17.2256  -21.9875 C   0  0  0  0  0  0  0  0  0  0  0  0
   -0.9612   17.8542  -21.0163 C   0  0  0  0  0  0  0  0  0  0  0  0
   -2.1393   13.9715  -29.0923 C   0  0  0  0  0  0  0  0  0  0  0  0
   -4.5561   10.5289  -26.7529 C   0  0  0  0  0  0  0  0  0  0  0  0
    3.4997   15.8693  -30.6332 O   0  0  0  0  0  0  0  0  0  0  0  0
   -0.2289   19.0691  -27.8642 N   0  0  0  0  0  0  0  0  0  0  0  0
   -2.1537   18.3382  -24.9614 C   0  0  0  0  0  0  0  0  0  0  0  0
   -1.6519   18.2053  -23.6223 C   0  0  0  0  0  0  0  0  0  0  0  0
   -2.7328    8.6293  -26.7262 C   0  0  0  0  0  0  0  0  0  0  0  0
   -2.3822   11.6731  -28.1815 C   0  0  0  0  0  0  0  0  0  0  0  0
   -2.4921   15.9295  -26.6138 C   0  0  0  0  0  0  0  0  0  0  0  0
  1  2  1  0
  2 14  1  0
  2 33  1  0
  3  5  2  0
  3 34  1  0
  4  7  1  0
  4 24  1  0
  4 37  2  0
  5 28  1  0
  6 27  1  0
  6 34  1  0
  7 29  1  0
  8 29  2  0
  9 12  2  0
  9 19  1  0
 10 12  1  0
 10 16  2  0
 11 17  1  0
 11 21  1  0
 12 31  1  0
 13 15  1  0
 13 29  1  0
 13 36  1  0
 15 21  1  0
 16 24  1  0
 16 25  1  0
 17 18  1  0
 17 36  1  0
 18 30  1  0
 18 35  1  0
 19 26  2  0
 20 22  1  0
 20 24  1  0
 20 32  1  0
 22 23  2  0
 22 33  1  0
 23 37  1  0
 25 26  1  0
 25 32  1  0
 27 28  2  0
 33 34  2  3
M  END
>  <ID>  (1) 
conformer_0

$$$$
