
     RDKit          3D

 31 34  0  0  0  0  0  0  0  0999 V2000
   -2.2013   15.9864  -26.8715 N   0  0  0  0  0  0  0  0  0  0  0  0
    2.3976   18.6793  -30.6457 C   0  0  0  0  0  0  0  0  0  0  0  0
   -3.7765   10.1914  -27.4489 C   0  0  0  0  0  0  0  0  0  0  0  0
    2.4815   16.4848  -29.6765 C   0  0  0  0  0  0  0  0  0  0  0  0
    1.7081   18.7388  -31.7963 O   0  0  0  0  0  0  0  0  0  0  0  0
   -2.3680    8.5953  -28.7706 N   0  0  0  0  0  0  0  0  0  0  0  0
   -2.6061   18.8757  -22.3442 C   0  0  0  0  0  0  0  0  0  0  0  0
   -0.6896   17.6475  -27.5948 C   0  0  0  0  0  0  0  0  0  0  0  0
   -1.7307   15.2064  -27.8686 C   0  0  0  0  0  0  0  0  0  0  0  0
   -1.3641   10.6380  -29.8467 C   0  0  0  0  0  0  0  0  0  0  0  0
   -1.6899   17.1972  -26.7520 C   0  0  0  0  0  0  0  0  0  0  0  0
   -1.9664   11.5677  -28.8695 N   0  0  0  0  0  0  0  0  0  0  0  0
   -1.8616   18.5670  -21.2311 C   0  0  0  0  0  0  0  0  0  0  0  0
   -0.6611   17.9284  -21.3443 C   0  0  0  0  0  0  0  0  0  0  0  0
   -2.3874   13.8536  -28.2392 C   0  0  0  0  0  0  0  0  0  0  0  0
    3.2390   17.5171  -30.4967 O   0  0  0  0  0  0  0  0  0  0  0  0
   -3.0670   11.2695  -28.0166 C   0  0  0  0  0  0  0  0  0  0  0  0
   -0.4165   18.9967  -27.5534 F   0  0  0  0  0  0  0  0  0  0  0  0
   -0.0583   16.7623  -28.4439 C   0  0  0  0  0  0  0  0  0  0  0  0
   -1.1545    9.2583  -29.2109 C   0  0  0  0  0  0  0  0  0  0  0  0
   -4.6019   10.3952  -26.3695 O   0  0  0  0  0  0  0  0  0  0  0  0
    1.4678   18.5615  -29.4681 C   0  0  0  0  0  0  0  0  0  0  0  0
   -0.1473   17.5926  -22.5776 C   0  0  0  0  0  0  0  0  0  0  0  0
   -2.2110   18.1258  -25.8419 N   0  0  0  0  0  0  0  0  0  0  0  0
   -3.0522    8.8294  -27.5013 C   0  0  0  0  0  0  0  0  0  0  0  0
   -2.8568   18.7746  -24.8369 C   0  0  0  0  0  0  0  0  0  0  0  0
   -1.3992   12.8989  -28.9076 C   0  0  0  0  0  0  0  0  0  0  0  0
   -0.8348   17.8852  -23.6967 C   0  0  0  0  0  0  0  0  0  0  0  0
   -2.0625   18.5128  -23.5746 C   0  0  0  0  0  0  0  0  0  0  0  0
    1.2453   17.1041  -29.1922 C   0  0  0  0  0  0  0  0  0  0  0  0
   -0.6602   15.5732  -28.6268 N   0  0  0  0  0  0  0  0  0  0  0  0
  1  9  1  0
  1 11  2  0
  2  5  1  0
  2 16  1  0
  2 22  1  0
  3 17  1  0
  3 21  1  0
  3 25  1  0
  4 16  1  0
  4 30  1  0
  6 20  1  0
  6 25  1  0
  7 13  2  0
  7 29  1  0
  8 11  1  0
  8 18  1  0
  8 19  1  0
  9 15  1  0
  9 31  1  0
 10 12  1  0
 10 20  1  0
 11 24  1  0
 12 17  1  0
 12 27  1  0
 13 14  1  0
 14 23  2  0
 15 27  1  0
 19 30  1  0
 19 31  2  0
 22 30  1  0
 23 28  1  0
 24 26  1  0
 26 29  1  0
 28 29  2  0
M  END
>  <ID>  (1) 
conformer_0

$$$$
