
     RDKit          3D

 43 49  0  0  0  0  0  0  0  0999 V2000
   -0.5349   18.6211  -21.9814 C   0  0  0  0  0  0  0  0  0  0  0  0
    3.4128   15.7406  -31.2368 C   0  0  0  0  0  0  0  0  0  0  0  0
   -1.1712   15.7267  -28.2519 N   0  0  0  0  0  0  0  0  0  0  0  0
   -0.6651   18.2178  -27.7668 C   0  0  0  0  0  0  0  0  0  0  0  0
    2.3607   17.4409  -29.9332 C   0  0  0  0  0  0  0  0  0  0  0  0
   -2.3504    9.9920  -29.3388 C   0  0  0  0  0  0  0  0  0  0  0  0
    0.6053   19.2370  -22.7897 C   0  0  0  0  0  0  0  0  0  0  0  0
   -1.9126   18.6783  -22.4535 C   0  0  0  0  0  0  0  0  0  0  0  0
   -1.3230   19.8795  -24.4871 C   0  0  0  0  0  0  0  0  0  0  0  0
    1.3006   17.2776  -28.9878 N   0  0  0  0  0  0  0  0  0  0  0  0
   -1.5584   19.0059  -25.6869 C   0  0  0  0  0  0  0  0  0  0  0  0
   -2.5106    8.8756  -26.8020 F   0  0  0  0  0  0  0  0  0  0  0  0
   -4.3893    9.8059  -27.4733 F   0  0  0  0  0  0  0  0  0  0  0  0
    0.2726   16.4543  -22.7126 O   0  0  0  0  0  0  0  0  0  0  0  0
    3.5236   16.6240  -30.0836 O   0  0  0  0  0  0  0  0  0  0  0  0
   -2.3372   19.7308  -23.4030 C   0  0  0  0  0  0  0  0  0  0  0  0
   -0.6255   19.0783  -26.7092 O   0  0  0  0  0  0  0  0  0  0  0  0
   -2.4305   10.9069  -28.2620 C   0  0  0  0  0  0  0  0  0  0  0  0
   -2.9317   18.2780  -21.4348 C   0  0  0  0  0  0  0  0  0  0  0  0
   -2.6856    8.6034  -29.1894 F   0  0  0  0  0  0  0  0  0  0  0  0
   -2.9886   10.7824  -25.9360 F   0  0  0  0  0  0  0  0  0  0  0  0
   -1.3833   16.9876  -27.7622 C   0  0  0  0  0  0  0  0  0  0  0  0
   -2.9858   15.6815  -26.9586 C   0  0  0  0  0  0  0  0  0  0  0  0
   -1.1404   18.5227  -19.5485 C   0  0  0  0  0  0  0  0  0  0  0  0
   -3.0714   10.1234  -27.1046 C   0  0  0  0  0  0  0  0  0  0  0  0
    0.5139   19.4881  -29.4467 C   0  0  0  0  0  0  0  0  0  0  0  0
   -1.9725   10.4280  -30.5445 C   0  0  0  0  0  0  0  0  0  0  0  0
   -3.7458   19.2653  -23.8599 C   0  0  0  0  0  0  0  0  0  0  0  0
   -2.0366   12.3095  -28.4382 C   0  0  0  0  0  0  0  0  0  0  0  0
   -2.1218   14.8145  -27.7749 C   0  0  0  0  0  0  0  0  0  0  0  0
   -1.8783   13.4163  -27.4192 C   0  0  0  0  0  0  0  0  0  0  0  0
   -1.2919   16.5630  -20.8751 N   0  0  0  0  0  0  0  0  0  0  0  0
   -1.6140   11.7481  -30.7226 C   0  0  0  0  0  0  0  0  0  0  0  0
   -0.2669   17.1207  -21.7597 C   0  0  0  0  0  0  0  0  0  0  0  0
    2.3307   18.5573  -30.7405 C   0  0  0  0  0  0  0  0  0  0  0  0
   -0.5161   19.3709  -20.6367 C   0  0  0  0  0  0  0  0  0  0  0  0
   -1.6648   12.6702  -29.7128 C   0  0  0  0  0  0  0  0  0  0  0  0
   -2.5929   17.9855  -25.8936 C   0  0  0  0  0  0  0  0  0  0  0  0
   -3.6964   18.0390  -24.9525 C   0  0  0  0  0  0  0  0  0  0  0  0
    1.4523   19.5940  -30.4481 C   0  0  0  0  0  0  0  0  0  0  0  0
   -2.1680   17.6292  -20.2416 C   0  0  0  0  0  0  0  0  0  0  0  0
   -2.4550   16.9707  -26.8915 N   0  0  0  0  0  0  0  0  0  0  0  0
    0.4161   18.3082  -28.7400 C   0  0  0  0  0  0  0  0  0  0  0  0
  1  7  1  0
  1  8  1  0
  1 34  1  0
  1 36  1  0
  2 15  1  0
  3 22  2  0
  3 30  1  0
  4 17  1  0
  4 22  1  0
  4 43  1  0
  5 10  2  0
  5 15  1  0
  5 35  1  0
  6 18  2  0
  6 20  1  0
  6 27  1  0
  8 16  1  0
  8 19  1  0
  9 11  1  0
  9 16  1  0
 10 43  1  0
 11 17  1  0
 11 38  1  0
 12 25  1  0
 13 25  1  0
 14 34  2  0
 16 28  1  0
 18 25  1  0
 18 29  1  0
 19 41  1  0
 21 25  1  0
 22 42  1  0
 23 30  1  0
 23 42  1  0
 24 36  1  0
 24 41  1  0
 26 40  2  0
 26 43  1  0
 27 33  2  0
 28 39  1  0
 29 31  1  0
 29 37  2  0
 30 31  1  0
 32 34  1  0
 32 41  1  0
 33 37  1  0
 35 40  1  0
 38 39  2  0
 38 42  1  0
M  END
>  <ID>  (1) 
conformer_0

$$$$
