
     RDKit          3D

 34 37  0  0  0  0  0  0  0  0999 V2000
   -2.4094   11.0888  -28.8544 C   0  0  0  0  0  0  0  0  0  0  0  0
   -2.5940    9.7369  -29.3728 C   0  0  0  0  0  0  0  0  0  0  0  0
   -2.6411   10.2225  -25.3093 O   0  0  0  0  0  0  0  0  0  0  0  0
   -0.9786   17.5168  -24.2175 C   0  0  0  0  0  0  0  0  0  0  0  0
   -3.4041   15.9448  -26.2164 O   0  0  0  0  0  0  0  0  0  0  0  0
   -1.9437   13.5396  -29.6336 C   0  0  0  0  0  0  0  0  0  0  0  0
   -0.4299   19.2020  -27.4741 C   0  0  0  0  0  0  0  0  0  0  0  0
    1.8909   16.7482  -29.8695 N   0  0  0  0  0  0  0  0  0  0  0  0
    1.1115   17.5861  -29.0926 C   0  0  0  0  0  0  0  0  0  0  0  0
   -2.6574   10.0442  -26.6425 C   0  0  0  0  0  0  0  0  0  0  0  0
    3.1517   16.9959  -30.4715 C   0  0  0  0  0  0  0  0  0  0  0  0
    0.0559   17.0538  -28.3797 C   0  0  0  0  0  0  0  0  0  0  0  0
   -0.6626   17.8284  -27.5155 C   0  0  0  0  0  0  0  0  0  0  0  0
   -2.4609   11.1905  -27.4217 C   0  0  0  0  0  0  0  0  0  0  0  0
   -2.8096    8.6126  -28.5718 C   0  0  0  0  0  0  0  0  0  0  0  0
   -2.8400    8.7612  -27.1315 C   0  0  0  0  0  0  0  0  0  0  0  0
   -2.3482   12.4140  -26.8277 C   0  0  0  0  0  0  0  0  0  0  0  0
   -2.3371   16.1828  -26.9497 C   0  0  0  0  0  0  0  0  0  0  0  0
    0.5685   19.7804  -28.2171 C   0  0  0  0  0  0  0  0  0  0  0  0
   -2.7193   19.6907  -23.9501 C   0  0  0  0  0  0  0  0  0  0  0  0
    3.6696   18.1671  -30.6670 F   0  0  0  0  0  0  0  0  0  0  0  0
   -2.0172   15.5101  -28.0710 C   0  0  0  0  0  0  0  0  0  0  0  0
   -1.1463   18.1631  -22.9956 C   0  0  0  0  0  0  0  0  0  0  0  0
   -2.1680   12.1551  -29.6991 C   0  0  0  0  0  0  0  0  0  0  0  0
   -0.3596   17.7240  -21.6837 C   0  0  0  0  0  0  0  0  0  0  0  0
    1.3419   18.9238  -28.9892 C   0  0  0  0  0  0  0  0  0  0  0  0
   -2.2405   13.5368  -27.3429 C   0  0  0  0  0  0  0  0  0  0  0  0
   -2.5898    9.5720  -30.6950 O   0  0  0  0  0  0  0  0  0  0  0  0
   -2.0415   14.2493  -28.4279 C   0  0  0  0  0  0  0  0  0  0  0  0
    3.6016   15.9691  -31.1525 F   0  0  0  0  0  0  0  0  0  0  0  0
   -1.7183   17.9538  -25.2947 C   0  0  0  0  0  0  0  0  0  0  0  0
   -2.5716   19.0707  -25.1860 C   0  0  0  0  0  0  0  0  0  0  0  0
   -1.5883   17.3405  -26.5558 N   0  0  0  0  0  0  0  0  0  0  0  0
   -2.0113   19.2130  -22.8560 C   0  0  0  0  0  0  0  0  0  0  0  0
  1  2  2  0
  1 14  1  0
  1 24  1  0
  2 15  1  0
  2 28  1  0
  3 10  1  0
  4 23  2  0
  4 31  1  0
  5 18  2  0
  6 24  2  0
  6 29  1  0
  7 13  1  0
  7 19  1  0
  8  9  2  3
  8 11  1  0
  9 12  1  0
  9 26  1  0
 10 14  2  0
 10 16  1  0
 11 21  1  0
 11 30  1  0
 12 13  2  0
 13 33  1  0
 14 17  1  0
 15 16  2  0
 17 27  2  0
 18 22  1  0
 18 33  1  0
 19 26  2  0
 20 32  1  0
 20 34  2  0
 22 29  2  3
 23 25  1  0
 23 34  1  0
 27 29  1  0
 31 32  2  0
 31 33  1  0
M  END
>  <ID>  (1) 
conformer_0

$$$$
