
     RDKit          3D

 36 40  0  0  0  0  0  0  0  0999 V2000
   -1.7658   14.6674  -28.3654 C   0  0  0  0  0  0  0  0  0  0  0  0
   -1.5878   18.5811  -23.3920 C   0  0  0  0  0  0  0  0  0  0  0  0
    1.5656   16.9364  -28.6382 C   0  0  0  0  0  0  0  0  0  0  0  0
   -4.5268   18.3805  -23.6297 O   0  0  0  0  0  0  0  0  0  0  0  0
   -2.0190    9.2094  -28.4323 C   0  0  0  0  0  0  0  0  0  0  0  0
    1.8412   19.0673  -30.7505 C   0  0  0  0  0  0  0  0  0  0  0  0
    2.7266   18.1151  -31.0387 C   0  0  0  0  0  0  0  0  0  0  0  0
   -0.5779   19.2620  -22.7392 C   0  0  0  0  0  0  0  0  0  0  0  0
   -3.7763   18.5878  -24.7125 C   0  0  0  0  0  0  0  0  0  0  0  0
   -1.7779   12.3237  -29.0792 C   0  0  0  0  0  0  0  0  0  0  0  0
   -2.3972   13.7106  -29.2527 C   0  0  0  0  0  0  0  0  0  0  0  0
   -0.4848   19.0209  -26.7047 C   0  0  0  0  0  0  0  0  0  0  0  0
   -3.4170   17.1539  -25.3183 C   0  0  0  0  0  0  0  0  0  0  0  0
   -1.8344   16.5512  -26.9922 C   0  0  0  0  0  0  0  0  0  0  0  0
    0.8315   18.0790  -28.8008 C   0  0  0  0  0  0  0  0  0  0  0  0
   -0.0997   18.7705  -21.5572 C   0  0  0  0  0  0  0  0  0  0  0  0
   -1.9553   17.2971  -22.9478 C   0  0  0  0  0  0  0  0  0  0  0  0
    3.0858   16.9872  -30.4159 C   0  0  0  0  0  0  0  0  0  0  0  0
   -1.6291   18.7603  -25.8668 C   0  0  0  0  0  0  0  0  0  0  0  0
   -1.4664   16.7977  -21.8008 C   0  0  0  0  0  0  0  0  0  0  0  0
   -0.8218   16.9078  -27.7764 C   0  0  0  0  0  0  0  0  0  0  0  0
   -2.0251   11.1699  -30.1120 C   0  0  0  0  0  0  0  0  0  0  0  0
   -2.7982   10.3386  -27.6089 C   0  0  0  0  0  0  0  0  0  0  0  0
   -0.5262   17.5215  -21.1120 C   0  0  0  0  0  0  0  0  0  0  0  0
   -2.3238   19.2536  -24.5590 C   0  0  0  0  0  0  0  0  0  0  0  0
    0.9386   19.0356  -29.7420 C   0  0  0  0  0  0  0  0  0  0  0  0
    2.5671   16.4135  -29.3110 C   0  0  0  0  0  0  0  0  0  0  0  0
   -2.1975   11.7121  -27.7205 C   0  0  0  0  0  0  0  0  0  0  0  0
    0.7070   19.4918  -20.7122 F   0  0  0  0  0  0  0  0  0  0  0  0
   -2.7444    9.9028  -26.1410 C   0  0  0  0  0  0  0  0  0  0  0  0
   -2.5988   15.3883  -27.3350 C   0  0  0  0  0  0  0  0  0  0  0  0
   -4.2955   10.1468  -27.8879 C   0  0  0  0  0  0  0  0  0  0  0  0
   -2.3880   17.6087  -26.2847 C   0  0  0  0  0  0  0  0  0  0  0  0
   -4.2621   19.3263  -25.7514 O   0  0  0  0  0  0  0  0  0  0  0  0
   -0.2976   18.2007  -27.8587 C   0  0  0  0  0  0  0  0  0  0  0  0
   -1.3088    9.8364  -29.6611 C   0  0  0  0  0  0  0  0  0  0  0  0
  1 11  1  0
  1 31  1  0
  2  8  1  0
  2 17  1  0
  2 25  1  0
  3 15  1  0
  3 27  2  0
  4  9  1  0
  5 23  1  0
  5 36  1  0
  6  7  2  0
  6 26  1  0
  7 18  1  0
  8 16  2  0
  9 13  1  0
  9 25  1  0
  9 34  1  0
 10 11  1  0
 10 22  1  0
 10 28  1  0
 12 19  2  0
 12 35  1  0
 13 33  1  0
 14 21  1  0
 14 31  1  0
 14 33  1  0
 15 26  2  0
 15 35  1  0
 16 24  1  0
 16 29  1  0
 17 20  2  0
 18 27  1  0
 19 25  1  0
 19 33  1  0
 20 24  1  0
 21 35  1  0
 22 36  1  0
 23 28  1  0
 23 30  1  0
 23 32  1  0
M  END
>  <ID>  (1) 
conformer_0

$$$$
