
     RDKit          3D

 36 41  0  0  0  0  0  0  0  0999 V2000
   -0.8913   17.1274  -27.5285 C   0  0  0  0  0  0  0  0  0  0  0  0
    2.9454   17.4170  -30.5207 O   0  0  0  0  0  0  0  0  0  0  0  0
   -2.6869   11.1850  -28.0910 C   0  0  0  0  0  0  0  0  0  0  0  0
   -1.5894    8.5417  -28.3962 C   0  0  0  0  0  0  0  0  0  0  0  0
   -3.3398   10.1012  -27.2575 C   0  0  0  0  0  0  0  0  0  0  0  0
    0.2449   17.7134  -28.0622 C   0  0  0  0  0  0  0  0  0  0  0  0
   -1.9702   14.9121  -28.3355 C   0  0  0  0  0  0  0  0  0  0  0  0
   -2.1483   12.9941  -29.3841 C   0  0  0  0  0  0  0  0  0  0  0  0
    0.5410   19.0447  -27.6904 C   0  0  0  0  0  0  0  0  0  0  0  0
   -0.0935   19.5918  -26.5903 C   0  0  0  0  0  0  0  0  0  0  0  0
    1.5183   19.8810  -29.8910 C   0  0  0  0  0  0  0  0  0  0  0  0
   -4.3661   10.5843  -26.2901 C   0  0  0  0  0  0  0  0  0  0  0  0
    1.0301   19.2795  -30.9974 O   0  0  0  0  0  0  0  0  0  0  0  0
    2.5067   17.4234  -29.0926 C   0  0  0  0  0  0  0  0  0  0  0  0
   -1.5666   19.4432  -24.5797 C   0  0  0  0  0  0  0  0  0  0  0  0
   -1.4106   16.0793  -28.1722 C   0  0  0  0  0  0  0  0  0  0  0  0
   -3.1154   19.3342  -24.5839 C   0  0  0  0  0  0  0  0  0  0  0  0
    3.0731   16.0356  -30.8819 C   0  0  0  0  0  0  0  0  0  0  0  0
   -1.8910   14.3023  -29.5901 C   0  0  0  0  0  0  0  0  0  0  0  0
   -2.5317   14.0619  -27.4180 C   0  0  0  0  0  0  0  0  0  0  0  0
   -1.0372   18.8249  -25.8873 C   0  0  0  0  0  0  0  0  0  0  0  0
    0.0098   18.3570  -22.3597 C   0  0  0  0  0  0  0  0  0  0  0  0
    1.4983   19.8959  -28.4792 C   0  0  0  0  0  0  0  0  0  0  0  0
   -1.4240    9.5034  -29.5556 C   0  0  0  0  0  0  0  0  0  0  0  0
   -0.5238   17.5062  -21.1379 C   0  0  0  0  0  0  0  0  0  0  0  0
   -1.4932   18.5509  -20.4365 C   0  0  0  0  0  0  0  0  0  0  0  0
   -2.2080   10.7124  -29.3457 N   0  0  0  0  0  0  0  0  0  0  0  0
   -1.9750   11.8260  -30.2012 C   0  0  0  0  0  0  0  0  0  0  0  0
    1.1620   16.9059  -28.9393 C   0  0  0  0  0  0  0  0  0  0  0  0
   -2.3473   18.0481  -22.7076 C   0  0  0  0  0  0  0  0  0  0  0  0
   -2.9733    8.6884  -27.7504 C   0  0  0  0  0  0  0  0  0  0  0  0
   -3.4093   17.9630  -23.7959 C   0  0  0  0  0  0  0  0  0  0  0  0
   -1.4806   17.6414  -26.4307 C   0  0  0  0  0  0  0  0  0  0  0  0
   -2.5959   12.7108  -28.0513 C   0  0  0  0  0  0  0  0  0  0  0  0
   -2.7358   18.6745  -21.3568 C   0  0  0  0  0  0  0  0  0  0  0  0
   -1.1154   18.8304  -23.2811 C   0  0  0  0  0  0  0  0  0  0  0  0
  1  6  1  0
  1 16  2  0
  1 33  1  0
  2 14  1  0
  2 18  1  0
  3  5  1  0
  3 27  1  0
  3 34  1  0
  4 24  1  0
  4 31  1  0
  5 12  1  0
  5 31  1  0
  6  9  1  0
  6 29  1  0
  7 16  2  0
  7 19  1  0
  7 20  1  0
  8 19  1  0
  8 28  1  0
  8 34  2  0
  9 10  2  0
  9 23  1  0
 10 21  1  0
 11 13  1  0
 11 23  2  3
 14 29  1  0
 15 17  1  0
 15 21  1  0
 15 36  1  0
 17 32  1  0
 20 34  1  0
 21 33  2  0
 22 25  1  0
 22 36  1  0
 24 27  1  0
 25 26  1  0
 26 35  1  0
 27 28  1  0
 30 32  1  0
 30 35  1  0
 30 36  1  0
M  END
>  <ID>  (1) 
conformer_0

$$$$
