
     RDKit          3D

 29 30  0  0  0  0  0  0  0  0999 V2000
    1.9378   17.2393  -30.2452 C   0  0  0  0  0  0  0  0  0  0  0  0
   -2.2960   12.8049  -28.2218 C   0  0  0  0  0  0  0  0  0  0  0  0
   -2.6522   14.5104  -29.7938 O   0  0  0  0  0  0  0  0  0  0  0  0
    2.9906   16.2130  -29.8621 C   0  0  0  0  0  0  0  0  0  0  0  0
   -2.9097   12.1932  -27.0851 O   0  0  0  0  0  0  0  0  0  0  0  0
   -1.9752   18.0007  -23.5802 C   0  0  0  0  0  0  0  0  0  0  0  0
   -1.2525   18.5959  -24.8330 C   0  0  0  0  0  0  0  0  0  0  0  0
    1.0535   19.7629  -29.1315 O   0  0  0  0  0  0  0  0  0  0  0  0
   -1.9528   11.6552  -29.2425 C   0  0  0  0  0  0  0  0  0  0  0  0
   -2.8695   16.9334  -25.6515 C   0  0  0  0  0  0  0  0  0  0  0  0
   -2.2355   14.2987  -28.5364 C   0  0  0  0  0  0  0  0  0  0  0  0
   -0.8860   16.4194  -27.8273 C   0  0  0  0  0  0  0  0  0  0  0  0
   -3.1248    9.7584  -27.9125 C   0  0  0  0  0  0  0  0  0  0  0  0
   -1.6339   17.6541  -25.8816 O   0  0  0  0  0  0  0  0  0  0  0  0
   -0.2733   18.7006  -27.4929 C   0  0  0  0  0  0  0  0  0  0  0  0
    0.8216   17.3582  -29.1986 C   0  0  0  0  0  0  0  0  0  0  0  0
   -1.5894   18.2448  -21.1085 C   0  0  0  0  0  0  0  0  0  0  0  0
   -1.8844   10.2502  -28.6586 C   0  0  0  0  0  0  0  0  0  0  0  0
   -3.3428   17.6744  -24.3382 C   0  0  0  0  0  0  0  0  0  0  0  0
   -2.7828    8.6813  -27.0117 F   0  0  0  0  0  0  0  0  0  0  0  0
   -4.0431    9.0811  -28.7625 F   0  0  0  0  0  0  0  0  0  0  0  0
    0.5531   18.6080  -28.6079 C   0  0  0  0  0  0  0  0  0  0  0  0
    2.6545   18.4213  -30.8916 C   0  0  0  0  0  0  0  0  0  0  0  0
    0.0611   16.2955  -28.8255 C   0  0  0  0  0  0  0  0  0  0  0  0
   -1.0599    9.1250  -29.2799 C   0  0  0  0  0  0  0  0  0  0  0  0
   -3.7148   10.9789  -27.1912 C   0  0  0  0  0  0  0  0  0  0  0  0
   -1.7824   15.3086  -27.6463 N   0  0  0  0  0  0  0  0  0  0  0  0
   -1.8413   18.9153  -22.3970 C   0  0  0  0  0  0  0  0  0  0  0  0
   -0.9302   17.6057  -27.0893 C   0  0  0  0  0  0  0  0  0  0  0  0
  1  4  1  0
  1 16  1  0
  1 23  1  0
  2  5  1  0
  2  9  1  0
  2 11  1  0
  3 11  2  0
  5 26  1  0
  6  7  1  0
  6 19  1  0
  6 28  1  0
  8 22  1  0
  9 18  1  0
 10 14  1  0
 10 19  1  0
 11 27  1  0
 12 24  1  0
 12 27  1  0
 12 29  1  0
 13 18  1  0
 13 20  1  0
 13 21  1  0
 13 26  1  0
 14 29  1  0
 15 22  1  0
 15 29  2  0
 16 22  1  0
 16 24  2  0
 17 28  1  0
 18 25  1  0
M  END
>  <ID>  (1) 
conformer_0

$$$$
