
     RDKit          3D

 37 39  0  0  0  0  0  0  0  0999 V2000
    1.4849   18.8117  -29.9810 C   0  0  0  0  0  0  0  0  0  0  0  0
   -1.7891   19.0663  -23.6246 C   0  0  0  0  0  0  0  0  0  0  0  0
   -2.1240   18.1970  -20.0340 C   0  0  0  0  0  0  0  0  0  0  0  0
   -1.2892   17.2104  -26.7606 C   0  0  0  0  0  0  0  0  0  0  0  0
   -0.4651   17.3388  -22.2682 C   0  0  0  0  0  0  0  0  0  0  0  0
   -3.0686   17.6573  -25.1931 C   0  0  0  0  0  0  0  0  0  0  0  0
   -3.5353   16.4898  -25.4256 O   0  0  0  0  0  0  0  0  0  0  0  0
    1.5478   17.5830  -29.2438 C   0  0  0  0  0  0  0  0  0  0  0  0
   -2.1870   11.7584  -28.4672 C   0  0  0  0  0  0  0  0  0  0  0  0
   -0.6626   10.1127  -30.0892 C   0  0  0  0  0  0  0  0  0  0  0  0
   -3.0584   12.4650  -27.7589 O   0  0  0  0  0  0  0  0  0  0  0  0
   -3.1082   18.4651  -23.9068 C   0  0  0  0  0  0  0  0  0  0  0  0
   -3.2107    8.2540  -27.4209 C   0  0  0  0  0  0  0  0  0  0  0  0
   -0.5373   19.3516  -27.6844 C   0  0  0  0  0  0  0  0  0  0  0  0
   -1.2820   15.8785  -27.0327 O   0  0  0  0  0  0  0  0  0  0  0  0
   -1.2219   14.0695  -28.8856 C   0  0  0  0  0  0  0  0  0  0  0  0
   -1.8290   19.1521  -21.1281 C   0  0  0  0  0  0  0  0  0  0  0  0
   -3.1880    9.7053  -27.3958 C   0  0  0  0  0  0  0  0  0  0  0  0
    0.0241   20.2289  -28.5435 C   0  0  0  0  0  0  0  0  0  0  0  0
   -0.9983   19.7386  -24.4407 O   0  0  0  0  0  0  0  0  0  0  0  0
    0.5947   17.3190  -28.3486 C   0  0  0  0  0  0  0  0  0  0  0  0
   -1.1025   16.3556  -21.3456 O   0  0  0  0  0  0  0  0  0  0  0  0
    0.8672   19.9823  -29.5406 C   0  0  0  0  0  0  0  0  0  0  0  0
   -1.2091   12.4106  -29.2274 C   0  0  0  0  0  0  0  0  0  0  0  0
    3.0541   16.2434  -30.6724 C   0  0  0  0  0  0  0  0  0  0  0  0
    2.6829   16.7104  -29.3723 O   0  0  0  0  0  0  0  0  0  0  0  0
   -1.5485    9.5130  -29.2271 C   0  0  0  0  0  0  0  0  0  0  0  0
   -0.3544   17.9717  -27.6751 C   0  0  0  0  0  0  0  0  0  0  0  0
   -2.5981   14.4407  -29.5212 C   0  0  0  0  0  0  0  0  0  0  0  0
   -2.0025   17.9613  -25.9466 N   0  0  0  0  0  0  0  0  0  0  0  0
   -1.0443   15.4766  -28.4239 C   0  0  0  0  0  0  0  0  0  0  0  0
   -2.2914   10.3223  -28.3675 C   0  0  0  0  0  0  0  0  0  0  0  0
   -1.1991   18.6388  -22.3569 C   0  0  0  0  0  0  0  0  0  0  0  0
    2.0947   18.8008  -31.2079 O   0  0  0  0  0  0  0  0  0  0  0  0
   -0.4697   11.4961  -30.0745 C   0  0  0  0  0  0  0  0  0  0  0  0
   -1.2444   16.9873  -19.9850 C   0  0  0  0  0  0  0  0  0  0  0  0
   -3.6596   10.3132  -26.1532 C   0  0  0  0  0  0  0  0  0  0  0  0
  1  8  1  0
  1 23  1  0
  1 34  1  0
  2 12  1  0
  2 20  1  0
  2 33  1  0
  3 17  1  0
  3 36  1  0
  4 15  1  0
  4 28  1  0
  4 30  2  3
  5 22  1  0
  5 33  1  0
  6  7  2  0
  6 12  1  0
  6 30  1  0
  8 21  1  0
  8 26  1  0
  9 11  1  0
  9 24  2  0
  9 32  1  0
 10 27  2  0
 10 35  1  0
 13 18  1  0
 14 19  1  0
 14 28  1  0
 15 31  1  0
 16 24  1  0
 16 29  1  0
 16 31  1  0
 17 33  1  0
 18 32  1  0
 18 37  1  0
 19 23  2  0
 21 28  2  0
 22 36  1  0
 24 35  1  0
 25 26  1  0
 27 32  1  0
M  END
>  <ID>  (1) 
conformer_0

$$$$
