
     RDKit          3D

 34 38  0  0  0  0  0  0  0  0999 V2000
    1.7819   16.3068  -29.2385 C   0  0  0  0  0  0  0  0  0  0  0  0
   -2.9625   12.0754  -27.6788 C   0  0  0  0  0  0  0  0  0  0  0  0
    1.0649   19.1836  -29.7858 C   0  0  0  0  0  0  0  0  0  0  0  0
    2.9075   18.0000  -30.6189 C   0  0  0  0  0  0  0  0  0  0  0  0
   -1.7266   17.6173  -20.3095 C   0  0  0  0  0  0  0  0  0  0  0  0
    2.0929   19.0911  -30.6058 C   0  0  0  0  0  0  0  0  0  0  0  0
   -2.4699   17.5915  -23.6540 C   0  0  0  0  0  0  0  0  0  0  0  0
    0.6396   16.9134  -28.7665 C   0  0  0  0  0  0  0  0  0  0  0  0
    2.7758   16.8378  -29.9327 C   0  0  0  0  0  0  0  0  0  0  0  0
   -0.4218   16.2277  -28.1213 C   0  0  0  0  0  0  0  0  0  0  0  0
   -2.7643   10.8124  -28.3636 C   0  0  0  0  0  0  0  0  0  0  0  0
   -1.3963   12.4451  -29.4028 C   0  0  0  0  0  0  0  0  0  0  0  0
   -0.8480   14.9767  -28.6316 C   0  0  0  0  0  0  0  0  0  0  0  0
   -0.7431   19.7084  -24.7204 C   0  0  0  0  0  0  0  0  0  0  0  0
   -1.2432   16.9288  -27.1657 C   0  0  0  0  0  0  0  0  0  0  0  0
   -2.2951   13.0823  -28.4357 C   0  0  0  0  0  0  0  0  0  0  0  0
   -4.7163   10.2379  -26.9453 C   0  0  0  0  0  0  0  0  0  0  0  0
   -1.7519   18.7664  -21.2277 C   0  0  0  0  0  0  0  0  0  0  0  0
   -3.6046    9.6819  -27.8336 C   0  0  0  0  0  0  0  0  0  0  0  0
   -3.7584   18.9336  -25.1965 C   0  0  0  0  0  0  0  0  0  0  0  0
   -1.4108   18.8395  -25.6917 C   0  0  0  0  0  0  0  0  0  0  0  0
   -0.2965   18.9773  -27.9260 N   0  0  0  0  0  0  0  0  0  0  0  0
   -1.7859   10.9554  -29.3350 C   0  0  0  0  0  0  0  0  0  0  0  0
   -0.9641   18.2934  -26.9778 C   0  0  0  0  0  0  0  0  0  0  0  0
   -2.3969   16.6354  -26.1033 C   0  0  0  0  0  0  0  0  0  0  0  0
   -1.7176   18.5146  -22.7157 C   0  0  0  0  0  0  0  0  0  0  0  0
   -0.4744   19.0702  -23.3795 C   0  0  0  0  0  0  0  0  0  0  0  0
    0.4870   18.3375  -28.8462 C   0  0  0  0  0  0  0  0  0  0  0  0
   -2.5182   17.9311  -25.1498 C   0  0  0  0  0  0  0  0  0  0  0  0
   -1.1113   10.0684  -30.3019 C   0  0  0  0  0  0  0  0  0  0  0  0
    0.1198   12.5487  -29.3771 C   0  0  0  0  0  0  0  0  0  0  0  0
   -0.8641   16.4633  -20.8313 C   0  0  0  0  0  0  0  0  0  0  0  0
   -2.7342    8.6651  -27.0470 C   0  0  0  0  0  0  0  0  0  0  0  0
   -2.1707   14.5176  -28.0969 C   0  0  0  0  0  0  0  0  0  0  0  0
  1  8  2  0
  1  9  1  0
  2 11  1  0
  2 16  1  0
  3  6  2  0
  3 28  1  0
  4  6  1  0
  4  9  2  0
  5 18  1  0
  5 32  1  0
  7 26  1  0
  7 29  1  0
  8 10  1  0
  8 28  1  0
 10 13  1  0
 10 15  1  0
 11 19  1  0
 11 23  2  0
 12 16  1  0
 12 23  1  0
 12 31  1  0
 13 34  1  0
 14 21  1  0
 14 27  1  0
 15 24  1  0
 15 25  1  0
 16 34  1  0
 17 19  1  0
 18 26  1  0
 19 33  1  0
 20 29  1  0
 21 24  1  0
 21 29  1  0
 22 24  1  0
 22 28  2  0
 23 30  1  0
 25 29  1  0
 26 27  1  0
M  END
>  <ID>  (1) 
conformer_0

$$$$
