
     RDKit          3D

 28 29  0  0  0  0  0  0  0  0999 V2000
    2.3945   17.4477  -29.1315 O   0  0  0  0  0  0  0  0  0  0  0  0
   -1.6016   12.8006  -28.6568 C   0  0  0  0  0  0  0  0  0  0  0  0
   -0.7191   18.6022  -26.7337 C   0  0  0  0  0  0  0  0  0  0  0  0
   -0.9459   10.6364  -30.0886 C   0  0  0  0  0  0  0  0  0  0  0  0
   -1.9868   14.2199  -28.3964 C   0  0  0  0  0  0  0  0  0  0  0  0
   -2.3670   18.0517  -22.0319 C   0  0  0  0  0  0  0  0  0  0  0  0
   -1.6588   16.4517  -27.1762 C   0  0  0  0  0  0  0  0  0  0  0  0
   -3.3151    9.6785  -27.0533 C   0  0  0  0  0  0  0  0  0  0  0  0
   -1.0229   15.1459  -28.9945 O   0  0  0  0  0  0  0  0  0  0  0  0
    1.1366   18.8588  -30.5415 C   0  0  0  0  0  0  0  0  0  0  0  0
   -1.1336   18.0032  -21.1201 C   0  0  0  0  0  0  0  0  0  0  0  0
    0.0353   18.4964  -27.8389 C   0  0  0  0  0  0  0  0  0  0  0  0
   -2.4910   11.8693  -27.9009 C   0  0  0  0  0  0  0  0  0  0  0  0
    1.0362   17.4475  -29.8457 C   0  0  0  0  0  0  0  0  0  0  0  0
   -2.7175   10.4462  -28.1757 C   0  0  0  0  0  0  0  0  0  0  0  0
   -0.9363   16.5757  -20.6361 C   0  0  0  0  0  0  0  0  0  0  0  0
   -1.4320   18.6165  -24.1985 C   0  0  0  0  0  0  0  0  0  0  0  0
    0.0448   17.3885  -28.6619 C   0  0  0  0  0  0  0  0  0  0  0  0
   -2.2942   19.1381  -23.0879 C   0  0  0  0  0  0  0  0  0  0  0  0
    0.1699   18.6242  -21.6603 C   0  0  0  0  0  0  0  0  0  0  0  0
   -1.4072   12.1157  -30.0675 C   0  0  0  0  0  0  0  0  0  0  0  0
   -0.8644   16.3293  -28.2915 C   0  0  0  0  0  0  0  0  0  0  0  0
    2.2905   18.4682  -31.5174 C   0  0  0  0  0  0  0  0  0  0  0  0
   -1.8073    9.7314  -29.1681 C   0  0  0  0  0  0  0  0  0  0  0  0
   -2.3616   17.7695  -25.1055 C   0  0  0  0  0  0  0  0  0  0  0  0
   -4.0745   10.4365  -26.1550 N   0  0  0  0  0  0  0  0  0  0  0  0
   -1.5831   17.5635  -26.3931 C   0  0  0  0  0  0  0  0  0  0  0  0
   -2.9888    8.4483  -26.8937 O   0  0  0  0  0  0  0  0  0  0  0  0
  1 14  1  0
  2  5  1  0
  2 13  1  0
  2 21  1  0
  3 12  2  0
  3 27  1  0
  4 21  1  0
  4 24  1  0
  5  9  1  0
  6 11  1  0
  6 19  1  0
  7 22  1  0
  7 27  2  0
  8 15  1  0
  8 26  1  0
  8 28  2  0
  9 22  1  0
 10 14  1  0
 10 23  1  0
 11 16  1  0
 11 20  1  0
 12 18  1  0
 13 15  2  0
 14 18  1  0
 15 24  1  0
 17 19  1  0
 17 25  1  0
 18 22  2  0
 25 27  1  0
M  END
>  <ID>  (1) 
conformer_0

$$$$
