
     RDKit          3D

 26 29  0  0  0  0  0  0  0  0999 V2000
   -0.5844   18.8275  -26.5257 C   0  0  0  0  0  0  0  0  0  0  0  0
   -1.9028   16.9283  -26.0524 C   0  0  0  0  0  0  0  0  0  0  0  0
   -0.4517   16.6843  -21.5255 O   0  0  0  0  0  0  0  0  0  0  0  0
   -1.8720   19.0966  -23.0616 O   0  0  0  0  0  0  0  0  0  0  0  0
   -2.4091   11.6022  -27.8387 N   0  0  0  0  0  0  0  0  0  0  0  0
   -2.2320   17.4285  -24.8107 C   0  0  0  0  0  0  0  0  0  0  0  0
   -2.3557   10.2163  -28.0686 N   0  0  0  0  0  0  0  0  0  0  0  0
   -1.8009   12.2560  -28.8734 C   0  0  0  0  0  0  0  0  0  0  0  0
   -2.7549    9.0861  -27.2167 C   0  0  0  0  0  0  0  0  0  0  0  0
   -1.4246   11.2797  -29.8103 C   0  0  0  0  0  0  0  0  0  0  0  0
   -1.2195   18.8231  -21.8581 C   0  0  0  0  0  0  0  0  0  0  0  0
   -1.7378   14.7133  -28.3666 C   0  0  0  0  0  0  0  0  0  0  0  0
   -1.7764    9.9807  -29.2861 C   0  0  0  0  0  0  0  0  0  0  0  0
   -1.6611   18.6197  -24.3576 C   0  0  0  0  0  0  0  0  0  0  0  0
    2.4868   17.7112  -30.2519 C   0  0  0  0  0  0  0  0  0  0  0  0
   -0.5784   16.9879  -28.2166 C   0  0  0  0  0  0  0  0  0  0  0  0
    0.0639   18.0189  -22.1549 C   0  0  0  0  0  0  0  0  0  0  0  0
   -1.6574   17.5455  -21.1583 C   0  0  0  0  0  0  0  0  0  0  0  0
   -1.5153   13.5694  -29.0520 N   0  0  0  0  0  0  0  0  0  0  0  0
   -2.7883   14.8419  -27.7685 O   0  0  0  0  0  0  0  0  0  0  0  0
   -0.7561   15.6689  -28.4885 N   0  0  0  0  0  0  0  0  0  0  0  0
    1.3771   18.8323  -30.0705 C   0  0  0  0  0  0  0  0  0  0  0  0
    0.4211   17.7434  -29.1559 C   0  0  0  0  0  0  0  0  0  0  0  0
    1.6730   16.7297  -29.4096 C   0  0  0  0  0  0  0  0  0  0  0  0
   -0.8836   19.3649  -25.2761 C   0  0  0  0  0  0  0  0  0  0  0  0
   -1.0238   17.5752  -26.9224 C   0  0  0  0  0  0  0  0  0  0  0  0
  1 25  2  0
  1 26  1  0
  2  6  1  0
  2 26  2  0
  3 17  1  0
  3 18  1  0
  4 11  1  0
  4 14  1  0
  5  7  1  0
  5  8  1  0
  6 14  2  0
  7  9  1  0
  7 13  1  0
  8 10  1  0
  8 19  2  3
 10 13  1  0
 11 17  1  0
 11 18  1  0
 12 19  1  0
 12 20  2  0
 12 21  1  0
 14 25  1  0
 15 22  1  0
 15 24  1  0
 16 21  1  0
 16 23  1  0
 16 26  1  0
 22 23  1  0
 23 24  1  0
M  END
>  <ID>  (1) 
conformer_0

$$$$
