
     RDKit          3D

 29 32  0  0  0  0  0  0  0  0999 V2000
    2.6135   18.6875  -30.4032 C   0  0  0  0  0  0  0  0  0  0  0  0
   -1.9454   14.8522  -28.0509 C   0  0  0  0  0  0  0  0  0  0  0  0
   -1.0726   16.0094  -27.8945 C   0  0  0  0  0  0  0  0  0  0  0  0
   -3.0046   14.7946  -27.4683 O   0  0  0  0  0  0  0  0  0  0  0  0
   -1.7387   18.1537  -24.9375 C   0  0  0  0  0  0  0  0  0  0  0  0
   -0.3357   16.5366  -21.5369 O   0  0  0  0  0  0  0  0  0  0  0  0
   -1.1349   18.0048  -23.5388 C   0  0  0  0  0  0  0  0  0  0  0  0
   -2.6348   10.4634  -28.4086 N   0  0  0  0  0  0  0  0  0  0  0  0
   -1.1622   17.6411  -21.0859 C   0  0  0  0  0  0  0  0  0  0  0  0
   -1.0068   10.7392  -29.9826 C   0  0  0  0  0  0  0  0  0  0  0  0
    2.9132   17.3444  -30.3677 C   0  0  0  0  0  0  0  0  0  0  0  0
   -1.3428    9.3313  -29.8125 N   0  0  0  0  0  0  0  0  0  0  0  0
   -1.4110   13.9091  -28.8756 N   0  0  0  0  0  0  0  0  0  0  0  0
   -1.8893   11.4724  -29.0762 C   0  0  0  0  0  0  0  0  0  0  0  0
   -1.0105   19.1145  -25.9174 S   0  0  0  0  0  0  0  0  0  0  0  0
    0.9233   16.9423  -29.0807 C   0  0  0  0  0  0  0  0  0  0  0  0
   -2.2314    9.1624  -28.7380 C   0  0  0  0  0  0  0  0  0  0  0  0
   -1.8573   18.2602  -22.2376 C   0  0  0  0  0  0  0  0  0  0  0  0
    2.0766   16.4402  -29.7182 C   0  0  0  0  0  0  0  0  0  0  0  0
   -0.1204   18.8702  -28.1205 N   0  0  0  0  0  0  0  0  0  0  0  0
    1.5473   19.2132  -29.7012 C   0  0  0  0  0  0  0  0  0  0  0  0
   -1.9704   16.9849  -25.7064 C   0  0  0  0  0  0  0  0  0  0  0  0
    0.0121   16.0875  -28.6953 N   0  0  0  0  0  0  0  0  0  0  0  0
    0.7662   18.3320  -28.9699 C   0  0  0  0  0  0  0  0  0  0  0  0
   -1.3269   12.5623  -28.3704 C   0  0  0  0  0  0  0  0  0  0  0  0
   -1.3306   17.0357  -26.9467 C   0  0  0  0  0  0  0  0  0  0  0  0
   -3.5896   10.7320  -27.3157 C   0  0  0  0  0  0  0  0  0  0  0  0
   -3.2003   18.8873  -24.5254 C   0  0  0  0  0  0  0  0  0  0  0  0
   -0.7698   18.3032  -27.1031 C   0  0  0  0  0  0  0  0  0  0  0  0
  1 11  1  0
  1 21  2  0
  2  3  1  0
  2  4  2  0
  2 13  1  0
  3 23  2  0
  3 26  1  0
  5  7  1  0
  5 15  1  0
  5 22  1  0
  5 28  1  0
  6  9  1  0
  7 18  1  0
  8 14  1  0
  8 17  1  0
  8 27  1  0
  9 18  1  0
 10 12  1  0
 10 14  1  0
 11 19  1  0
 12 17  1  0
 13 25  1  0
 14 25  1  0
 15 29  1  0
 16 19  2  0
 16 23  1  0
 16 24  1  0
 20 24  2  0
 20 29  1  0
 21 24  1  0
 22 26  1  0
 26 29  2  0
M  END
>  <ID>  (1) 
conformer_0

$$$$
