
     RDKit          3D

 31 34  0  0  0  0  0  0  0  0999 V2000
   -2.4005   16.5759  -26.2610 C   0  0  0  0  0  0  0  0  0  0  0  0
    1.7296   19.3747  -29.9797 C   0  0  0  0  0  0  0  0  0  0  0  0
    2.1196   18.0338  -30.1244 C   0  0  0  0  0  0  0  0  0  0  0  0
   -2.4840   18.5084  -24.7485 C   0  0  0  0  0  0  0  0  0  0  0  0
    0.6435   19.4567  -29.0766 C   0  0  0  0  0  0  0  0  0  0  0  0
   -0.3484   17.1914  -22.0429 C   0  0  0  0  0  0  0  0  0  0  0  0
   -0.8681   17.8678  -20.9547 C   0  0  0  0  0  0  0  0  0  0  0  0
   -2.4701   18.9529  -22.3562 C   0  0  0  0  0  0  0  0  0  0  0  0
   -1.9105   17.8048  -25.9218 C   0  0  0  0  0  0  0  0  0  0  0  0
   -1.9360   18.7203  -21.1001 C   0  0  0  0  0  0  0  0  0  0  0  0
   -0.9238   16.4678  -28.0473 N   0  0  0  0  0  0  0  0  0  0  0  0
   -1.7495   12.4516  -28.6833 C   0  0  0  0  0  0  0  0  0  0  0  0
   -1.9214    9.5613  -28.7547 C   0  0  0  0  0  0  0  0  0  0  0  0
   -1.1699   11.6980  -29.7076 C   0  0  0  0  0  0  0  0  0  0  0  0
   -1.2465   10.2993  -29.7402 C   0  0  0  0  0  0  0  0  0  0  0  0
   -0.8646   17.3842  -23.2911 C   0  0  0  0  0  0  0  0  0  0  0  0
    3.3538   17.6076  -30.8981 C   0  0  0  0  0  0  0  0  0  0  0  0
   -0.6232    9.6289  -30.7208 F   0  0  0  0  0  0  0  0  0  0  0  0
    1.2201   17.2667  -29.3595 N   0  0  0  0  0  0  0  0  0  0  0  0
   -1.5918   13.8801  -28.7028 N   0  0  0  0  0  0  0  0  0  0  0  0
   -1.9002   15.9098  -27.3733 C   0  0  0  0  0  0  0  0  0  0  0  0
   -3.7763   19.1938  -24.8811 C   0  0  0  0  0  0  0  0  0  0  0  0
   -2.4264   14.6223  -27.8793 C   0  0  0  0  0  0  0  0  0  0  0  0
   -2.5024   10.2935  -27.7257 C   0  0  0  0  0  0  0  0  0  0  0  0
   -3.1976    9.5814  -26.6294 N   0  0  0  0  0  0  0  0  0  0  0  0
    0.3951   18.1540  -28.7083 C   0  0  0  0  0  0  0  0  0  0  0  0
   -3.5262   14.2965  -27.5984 O   0  0  0  0  0  0  0  0  0  0  0  0
   -2.4213   11.6857  -27.6753 N   0  0  0  0  0  0  0  0  0  0  0  0
   -0.5497   17.7100  -27.7633 C   0  0  0  0  0  0  0  0  0  0  0  0
   -0.9818   18.3999  -26.6786 N   0  0  0  0  0  0  0  0  0  0  0  0
   -1.9313   18.2727  -23.4422 C   0  0  0  0  0  0  0  0  0  0  0  0
  1  9  2  0
  1 21  1  0
  2  3  1  0
  2  5  1  0
  3 17  1  0
  3 19  1  0
  4  9  1  0
  4 22  1  0
  4 31  1  0
  5 26  1  0
  6  7  2  0
  6 16  1  0
  7 10  1  0
  8 10  2  0
  8 31  1  0
  9 30  1  0
 11 21  2  0
 11 29  1  0
 12 14  1  0
 12 20  1  0
 12 28  2  0
 13 15  1  0
 13 24  1  0
 14 15  2  0
 15 18  1  0
 16 31  2  0
 19 26  1  0
 20 23  1  0
 21 23  1  0
 23 27  2  0
 24 25  2  0
 24 28  1  0
 26 29  1  0
 29 30  2  0
M  END
>  <ID>  (1) 
conformer_0

$$$$
