
     RDKit          3D

 44 50  0  0  0  0  0  0  0  0999 V2000
   -2.5869   13.6134  -28.0886 O   0  0  0  0  0  0  0  0  0  0  0  0
   -3.1219   15.7566  -26.6707 C   0  0  0  0  0  0  0  0  0  0  0  0
   -1.3879   17.2895  -27.3243 C   0  0  0  0  0  0  0  0  0  0  0  0
    2.7563   17.8483  -31.3990 C   0  0  0  0  0  0  0  0  0  0  0  0
   -2.9259    9.8839  -28.7443 C   0  0  0  0  0  0  0  0  0  0  0  0
   -1.7606   17.9754  -20.2007 C   0  0  0  0  0  0  0  0  0  0  0  0
    1.2051   18.9030  -28.9718 C   0  0  0  0  0  0  0  0  0  0  0  0
   -0.9511   17.8773  -23.2016 C   0  0  0  0  0  0  0  0  0  0  0  0
   -2.8034   11.2199  -28.0972 C   0  0  0  0  0  0  0  0  0  0  0  0
    0.7877   20.1347  -26.7414 C   0  0  0  0  0  0  0  0  0  0  0  0
   -1.8875   17.8109  -25.9538 C   0  0  0  0  0  0  0  0  0  0  0  0
   -1.6754   12.1144  -30.0942 C   0  0  0  0  0  0  0  0  0  0  0  0
   -1.4713   10.6478  -30.5013 C   0  0  0  0  0  0  0  0  0  0  0  0
    0.2573   19.2500  -21.4699 C   0  0  0  0  0  0  0  0  0  0  0  0
   -3.7005    8.9654  -27.7949 C   0  0  0  0  0  0  0  0  0  0  0  0
   -1.9871   15.9838  -27.7289 C   0  0  0  0  0  0  0  0  0  0  0  0
   -1.4034   19.0625  -25.4348 C   0  0  0  0  0  0  0  0  0  0  0  0
   -1.0859   20.0516  -21.7479 C   0  0  0  0  0  0  0  0  0  0  0  0
    1.6967   18.9196  -31.4386 C   0  0  0  0  0  0  0  0  0  0  0  0
   -1.9243    9.5596  -29.6805 N   0  0  0  0  0  0  0  0  0  0  0  0
   -4.6000    9.9856  -27.0606 C   0  0  0  0  0  0  0  0  0  0  0  0
    0.2059   19.4544  -28.0183 C   0  0  0  0  0  0  0  0  0  0  0  0
   -0.8664   15.7875  -20.8656 O   0  0  0  0  0  0  0  0  0  0  0  0
   -0.0417   17.7791  -22.0283 C   0  0  0  0  0  0  0  0  0  0  0  0
   -3.8417   11.3593  -27.0481 C   0  0  0  0  0  0  0  0  0  0  0  0
    2.5798   16.7464  -29.0918 C   0  0  0  0  0  0  0  0  0  0  0  0
   -2.0908   12.3642  -28.6651 C   0  0  0  0  0  0  0  0  0  0  0  0
   -1.2115   19.6370  -23.0587 C   0  0  0  0  0  0  0  0  0  0  0  0
   -0.7929   17.0476  -20.8426 C   0  0  0  0  0  0  0  0  0  0  0  0
   -2.2241   19.5280  -24.1667 C   0  0  0  0  0  0  0  0  0  0  0  0
   -0.5658   20.9435  -23.1106 F   0  0  0  0  0  0  0  0  0  0  0  0
   -0.3383   11.3943  -30.1461 C   0  0  0  0  0  0  0  0  0  0  0  0
   -0.0098   19.6062  -25.4492 C   0  0  0  0  0  0  0  0  0  0  0  0
    3.0299   16.5925  -30.6106 C   0  0  0  0  0  0  0  0  0  0  0  0
   -0.9012   18.4475  -27.9224 C   0  0  0  0  0  0  0  0  0  0  0  0
    1.5890   19.7751  -30.1378 C   0  0  0  0  0  0  0  0  0  0  0  0
   -3.3379   18.7334  -23.7846 O   0  0  0  0  0  0  0  0  0  0  0  0
   -2.0932   14.8403  -28.6712 C   0  0  0  0  0  0  0  0  0  0  0  0
    0.1937   16.5692  -29.5393 O   0  0  0  0  0  0  0  0  0  0  0  0
   -2.6200    8.4491  -26.7721 C   0  0  0  0  0  0  0  0  0  0  0  0
   -2.7200   20.8318  -24.4574 F   0  0  0  0  0  0  0  0  0  0  0  0
    1.1847   17.4388  -29.2000 C   0  0  0  0  0  0  0  0  0  0  0  0
   -2.0906   19.3775  -20.7421 C   0  0  0  0  0  0  0  0  0  0  0  0
   -3.1440   16.9113  -25.6826 C   0  0  0  0  0  0  0  0  0  0  0  0
  1 27  1  0
  1 38  1  0
  2 16  1  0
  2 44  1  0
  3 11  1  0
  3 16  1  0
  3 35  1  0
  4 19  1  0
  4 34  1  0
  5  9  1  0
  5 15  1  0
  5 20  1  0
  6 29  1  0
  6 43  1  0
  7 22  1  0
  7 36  1  0
  7 42  1  0
  8 24  1  0
  8 28  1  0
  9 25  1  0
  9 27  1  0
 10 22  1  0
 10 33  1  0
 11 17  1  0
 11 44  1  0
 12 27  1  0
 12 32  1  0
 13 20  1  0
 13 32  1  0
 14 18  1  0
 14 24  1  0
 15 21  1  0
 15 40  1  0
 16 38  1  0
 17 30  1  0
 17 33  1  0
 18 28  1  0
 18 43  1  0
 19 36  1  0
 21 25  1  0
 22 35  1  0
 23 29  2  0
 24 29  1  0
 26 34  1  0
 26 42  1  0
 28 30  1  0
 28 31  1  0
 30 37  1  0
 30 41  1  0
 39 42  1  0
M  END
>  <ID>  (1) 
conformer_0

$$$$
