
     RDKit          3D

 26 27  0  0  0  0  0  0  0  0999 V2000
   -4.1718   10.4728  -26.5401 C   0  0  0  0  0  0  0  0  0  0  0  0
   -0.9282   17.0529  -27.6688 C   0  0  0  0  0  0  0  0  0  0  0  0
   -1.9547   17.2368  -25.4431 C   0  0  0  0  0  0  0  0  0  0  0  0
   -3.1769   10.8539  -27.6166 C   0  0  0  0  0  0  0  0  0  0  0  0
   -2.0139   14.8525  -28.1036 C   0  0  0  0  0  0  0  0  0  0  0  0
   -2.8975   12.1970  -27.7906 C   0  0  0  0  0  0  0  0  0  0  0  0
   -2.0854   13.9671  -29.2895 C   0  0  0  0  0  0  0  0  0  0  0  0
   -2.2837   17.7548  -22.2082 C   0  0  0  0  0  0  0  0  0  0  0  0
   -3.2966   19.3265  -24.8573 C   0  0  0  0  0  0  0  0  0  0  0  0
   -0.3541   18.0523  -20.8987 C   0  0  0  0  0  0  0  0  0  0  0  0
   -1.4238   17.5341  -26.5841 O   0  0  0  0  0  0  0  0  0  0  0  0
    0.0770   17.8520  -28.2441 C   0  0  0  0  0  0  0  0  0  0  0  0
   -1.7140   10.2581  -29.4321 C   0  0  0  0  0  0  0  0  0  0  0  0
   -1.6072   18.2826  -23.2751 C   0  0  0  0  0  0  0  0  0  0  0  0
    2.6131   17.4903  -30.8317 Cl  0  0  0  0  0  0  0  0  0  0  0  0
    0.7400   17.7816  -29.1613 C   0  0  0  0  0  0  0  0  0  0  0  0
    1.5606   18.3035  -30.1089 C   0  0  0  0  0  0  0  0  0  0  0  0
   -1.6505   17.6491  -21.0192 C   0  0  0  0  0  0  0  0  0  0  0  0
    1.2437   19.6636  -30.5670 C   0  0  0  0  0  0  0  0  0  0  0  0
   -2.5798    9.8675  -28.3918 C   0  0  0  0  0  0  0  0  0  0  0  0
   -1.3028   15.9715  -28.2571 C   0  0  0  0  0  0  0  0  0  0  0  0
   -1.4775   11.6137  -29.6686 C   0  0  0  0  0  0  0  0  0  0  0  0
   -2.3228   18.2646  -24.5306 C   0  0  0  0  0  0  0  0  0  0  0  0
   -0.3255   18.7563  -23.1717 C   0  0  0  0  0  0  0  0  0  0  0  0
    0.3065   18.6138  -21.9595 C   0  0  0  0  0  0  0  0  0  0  0  0
   -2.1171   12.5630  -28.8845 C   0  0  0  0  0  0  0  0  0  0  0  0
  1  4  1  0
  2 11  1  0
  2 12  1  0
  2 21  2  3
  3 11  1  0
  3 23  1  0
  4  6  2  0
  4 20  1  0
  5  7  1  0
  5 21  1  0
  6 26  1  0
  7 26  1  0
  8 14  2  0
  8 18  1  0
  9 23  1  0
 10 18  2  0
 10 25  1  0
 12 16  2  3
 13 20  2  0
 13 22  1  0
 14 23  1  0
 14 24  1  0
 15 17  1  0
 16 17  1  0
 17 19  1  0
 22 26  2  0
 24 25  2  0
M  END
>  <ID>  (1) 
conformer_0

$$$$
