
     RDKit          3D

 34 38  0  0  0  0  0  0  0  0999 V2000
   -0.9253   17.5945  -27.4633 C   0  0  0  0  0  0  0  0  0  0  0  0
   -1.8080   11.9016  -28.7819 C   0  0  0  0  0  0  0  0  0  0  0  0
   -1.4837   13.3455  -28.7220 C   0  0  0  0  0  0  0  0  0  0  0  0
    0.6317   19.3301  -28.6070 C   0  0  0  0  0  0  0  0  0  0  0  0
   -1.2820   18.6119  -25.3618 C   0  0  0  0  0  0  0  0  0  0  0  0
   -1.8753   16.7811  -26.6907 C   0  0  0  0  0  0  0  0  0  0  0  0
    1.9478   18.5171  -30.3361 C   0  0  0  0  0  0  0  0  0  0  0  0
   -2.8937    9.8811  -27.9316 C   0  0  0  0  0  0  0  0  0  0  0  0
   -0.6802   15.9884  -28.8577 N   0  0  0  0  0  0  0  0  0  0  0  0
   -0.0379   18.8658  -21.9855 C   0  0  0  0  0  0  0  0  0  0  0  0
   -0.6403   18.9084  -24.2330 O   0  0  0  0  0  0  0  0  0  0  0  0
    0.3993   17.0691  -29.3081 C   0  0  0  0  0  0  0  0  0  0  0  0
   -2.4499   14.3110  -29.1005 O   0  0  0  0  0  0  0  0  0  0  0  0
   -2.1467   17.4429  -25.4357 C   0  0  0  0  0  0  0  0  0  0  0  0
   -4.2860   10.6588  -26.3222 C   0  0  0  0  0  0  0  0  0  0  0  0
   -1.3150    9.6931  -29.7107 C   0  0  0  0  0  0  0  0  0  0  0  0
   -1.8108   15.2529  -28.3739 C   0  0  0  0  0  0  0  0  0  0  0  0
   -0.2298   11.6588  -30.5990 O   0  0  0  0  0  0  0  0  0  0  0  0
   -3.7727    9.4665  -26.9550 O   0  0  0  0  0  0  0  0  0  0  0  0
    1.5967   19.5709  -29.5494 C   0  0  0  0  0  0  0  0  0  0  0  0
   -0.4077   17.4689  -22.2538 C   0  0  0  0  0  0  0  0  0  0  0  0
   -2.5563   18.6652  -22.6326 C   0  0  0  0  0  0  0  0  0  0  0  0
   -1.1278   11.0654  -29.6894 C   0  0  0  0  0  0  0  0  0  0  0  0
   -2.7404   11.2330  -27.9455 C   0  0  0  0  0  0  0  0  0  0  0  0
    0.0892   18.1020  -28.4726 C   0  0  0  0  0  0  0  0  0  0  0  0
   -0.6599   18.7220  -26.5861 C   0  0  0  0  0  0  0  0  0  0  0  0
   -2.6587   19.1110  -21.1910 C   0  0  0  0  0  0  0  0  0  0  0  0
   -3.5932   11.8133  -27.0309 O   0  0  0  0  0  0  0  0  0  0  0  0
   -1.1006   18.5136  -22.9784 C   0  0  0  0  0  0  0  0  0  0  0  0
    1.3832   17.2754  -30.2412 N   0  0  0  0  0  0  0  0  0  0  0  0
   -3.6288   17.5115  -25.1132 C   0  0  0  0  0  0  0  0  0  0  0  0
   -1.8726   18.1484  -20.2697 C   0  0  0  0  0  0  0  0  0  0  0  0
   -1.1889   16.9512  -20.9851 C   0  0  0  0  0  0  0  0  0  0  0  0
   -2.1994    9.0848  -28.8192 C   0  0  0  0  0  0  0  0  0  0  0  0
  1  6  1  0
  1 25  1  0
  1 26  1  0
  2  3  1  0
  2 23  2  0
  2 24  1  0
  3 13  1  0
  4 20  1  0
  4 25  2  0
  5 11  1  0
  5 14  1  0
  5 26  1  0
  6 14  1  0
  7 20  1  0
  7 30  2  0
  8 19  1  0
  8 24  2  0
  8 34  1  0
  9 12  2  3
  9 17  1  0
 10 21  1  0
 11 29  1  0
 12 25  1  0
 12 30  1  0
 13 17  1  0
 14 31  1  0
 15 19  1  0
 15 28  1  0
 16 23  1  0
 16 34  2  0
 18 23  1  0
 21 29  1  0
 21 33  1  0
 22 27  1  0
 22 29  1  0
 24 28  1  0
 27 32  1  0
 32 33  1  0
M  END
>  <ID>  (1) 
conformer_0

$$$$
