
     RDKit          3D

 52 55  0  0  0  0  0  0  0  0999 V2000
   -4.0375    6.7325  -29.5210 C   0  0  0  0  0  0  0  0  0  0  0  0
   -2.8247   16.2765  -26.4465 O   0  0  0  0  0  0  0  0  0  0  0  0
    0.7034   14.7003  -27.5325 C   0  0  0  0  0  0  0  0  0  0  0  0
   -4.0400    8.3537  -27.9390 C   0  0  0  0  0  0  0  0  0  0  0  0
   -2.5520    9.2968  -28.7124 C   0  0  0  0  0  0  0  0  0  0  0  0
    3.9509   17.1274  -30.5076 F   0  0  0  0  0  0  0  0  0  0  0  0
   -5.8868    6.2404  -28.3064 C   0  0  0  0  0  0  0  0  0  0  0  0
    0.4260   15.7608  -28.7930 C   0  0  0  0  0  0  0  0  0  0  0  0
    0.2503   17.1566  -28.9983 C   0  0  0  0  0  0  0  0  0  0  0  0
   -5.6936    4.0833  -27.4067 O   0  0  0  0  0  0  0  0  0  0  0  0
   -4.4074    6.1902  -27.0359 C   0  0  0  0  0  0  0  0  0  0  0  0
   -0.9174   16.6898  -20.9750 C   0  0  0  0  0  0  0  0  0  0  0  0
   -2.6572   11.9898  -29.1499 C   0  0  0  0  0  0  0  0  0  0  0  0
   -2.1697   15.7379  -27.5539 C   0  0  0  0  0  0  0  0  0  0  0  0
   -3.7765   17.9245  -24.7531 C   0  0  0  0  0  0  0  0  0  0  0  0
   -0.2329   19.8967  -26.2748 C   0  0  0  0  0  0  0  0  0  0  0  0
    3.6506   19.5054  -30.9714 F   0  0  0  0  0  0  0  0  0  0  0  0
    2.0673   21.0493  -30.8436 F   0  0  0  0  0  0  0  0  0  0  0  0
   -0.7656   19.3114  -25.0204 C   0  0  0  0  0  0  0  0  0  0  0  0
   -5.1274    9.0713  -28.1169 C   0  0  0  0  0  0  0  0  0  0  0  0
   -3.6947   19.3898  -25.0000 C   0  0  0  0  0  0  0  0  0  0  0  0
   -1.5454   11.1824  -27.2762 C   0  0  0  0  0  0  0  0  0  0  0  0
   -1.5720   19.3944  -23.6883 C   0  0  0  0  0  0  0  0  0  0  0  0
    1.0088   20.0025  -28.7188 C   0  0  0  0  0  0  0  0  0  0  0  0
    0.3194   19.3054  -27.5544 C   0  0  0  0  0  0  0  0  0  0  0  0
   -0.4810   18.0744  -28.0546 C   0  0  0  0  0  0  0  0  0  0  0  0
   -0.5208   17.4903  -22.3552 O   0  0  0  0  0  0  0  0  0  0  0  0
   -0.0578   18.8037  -21.5233 C   0  0  0  0  0  0  0  0  0  0  0  0
   -0.7561   12.4374  -27.1104 C   0  0  0  0  0  0  0  0  0  0  0  0
    2.5758   16.7513  -31.5839 C   0  0  0  0  0  0  0  0  0  0  0  0
    2.7170   16.8951  -28.7902 C   0  0  0  0  0  0  0  0  0  0  0  0
    1.5638   17.6773  -29.5725 C   0  0  0  0  0  0  0  0  0  0  0  0
    2.5271   16.9826  -30.2037 C   0  0  0  0  0  0  0  0  0  0  0  0
   -2.6094   17.0073  -25.2453 C   0  0  0  0  0  0  0  0  0  0  0  0
    0.0874   12.4605  -25.8644 O   0  0  0  0  0  0  0  0  0  0  0  0
    1.6435   19.0950  -29.6414 C   0  0  0  0  0  0  0  0  0  0  0  0
    2.2814   19.6856  -30.8925 C   0  0  0  0  0  0  0  0  0  0  0  0
   -3.5650    6.9947  -27.9712 C   0  0  0  0  0  0  0  0  0  0  0  0
   -2.8448   13.4324  -28.5686 C   0  0  0  0  0  0  0  0  0  0  0  0
   -1.6153   19.0307  -21.1122 C   0  0  0  0  0  0  0  0  0  0  0  0
    1.6320   19.1332  -31.9306 O   0  0  0  0  0  0  0  0  0  0  0  0
   -1.8575   10.4317  -25.9982 O   0  0  0  0  0  0  0  0  0  0  0  0
   -1.8251   14.3540  -28.1380 C   0  0  0  0  0  0  0  0  0  0  0  0
   -4.7659    5.2645  -29.3818 C   0  0  0  0  0  0  0  0  0  0  0  0
   -1.1998   10.0757  -30.6180 C   0  0  0  0  0  0  0  0  0  0  0  0
   -0.5591   13.7587  -27.6697 C   0  0  0  0  0  0  0  0  0  0  0  0
   -2.1642    9.0001  -30.0068 C   0  0  0  0  0  0  0  0  0  0  0  0
   -2.3197   10.7659  -28.3551 C   0  0  0  0  0  0  0  0  0  0  0  0
   -1.7867   17.7300  -20.2643 C   0  0  0  0  0  0  0  0  0  0  0  0
   -5.5306    4.8362  -28.1077 C   0  0  0  0  0  0  0  0  0  0  0  0
   -1.9052   18.2431  -22.6721 C   0  0  0  0  0  0  0  0  0  0  0  0
   -2.8985   20.2244  -23.9250 C   0  0  0  0  0  0  0  0  0  0  0  0
  1 38  1  0
  1 44  1  0
  2 14  1  0
  2 34  1  0
  3  8  1  0
  3 46  1  0
  4  5  1  0
  4 20  2  0
  4 38  1  0
  5 47  1  0
  5 48  1  0
  6 33  1  0
  7 50  1  0
  8  9  1  0
  9 26  1  0
  9 32  1  0
 10 50  2  0
 11 38  1  0
 12 49  1  0
 13 39  1  0
 13 48  1  0
 14 43  1  0
 15 21  1  0
 15 34  1  0
 16 19  2  0
 16 25  1  0
 17 37  1  0
 18 37  1  0
 19 23  1  0
 21 52  1  0
 22 29  1  0
 22 42  1  0
 22 48  1  0
 23 51  1  0
 23 52  1  0
 24 25  1  0
 24 36  1  0
 25 26  1  0
 27 28  1  0
 27 51  1  0
 28 40  1  0
 29 35  1  0
 29 46  1  0
 30 33  1  0
 31 33  1  0
 32 33  1  0
 32 36  1  0
 36 37  1  0
 37 41  1  0
 39 43  1  0
 40 49  1  0
 40 51  1  0
 43 46  1  0
 44 50  1  0
 45 47  1  0
M  END
>  <ID>  (1) 
conformer_0

$$$$
