
     RDKit          3D

 31 35  0  0  0  0  0  0  0  0999 V2000
   -2.0997   13.8437  -28.3362 C   0  0  0  0  0  0  0  0  0  0  0  0
   -1.2474   17.0591  -20.7397 C   0  0  0  0  0  0  0  0  0  0  0  0
    2.1158   18.2329  -30.7929 C   0  0  0  0  0  0  0  0  0  0  0  0
   -0.6566   18.8022  -26.8344 C   0  0  0  0  0  0  0  0  0  0  0  0
   -1.5383   12.7567  -28.9275 C   0  0  0  0  0  0  0  0  0  0  0  0
   -0.3576   17.0563  -28.3105 N   0  0  0  0  0  0  0  0  0  0  0  0
   -3.1701   13.7150  -27.5086 C   0  0  0  0  0  0  0  0  0  0  0  0
   -0.2808   17.2385  -21.9108 C   0  0  0  0  0  0  0  0  0  0  0  0
   -0.0329   18.1286  -27.8721 C   0  0  0  0  0  0  0  0  0  0  0  0
   -1.7227   10.1506  -28.8895 N   0  0  0  0  0  0  0  0  0  0  0  0
   -3.0817   11.4475  -27.6270 C   0  0  0  0  0  0  0  0  0  0  0  0
    2.1825   18.8364  -32.0127 F   0  0  0  0  0  0  0  0  0  0  0  0
   -2.5418    9.1642  -28.2264 C   0  0  0  0  0  0  0  0  0  0  0  0
    1.9805   16.8511  -28.5102 C   0  0  0  0  0  0  0  0  0  0  0  0
    3.1673   17.4586  -30.4183 C   0  0  0  0  0  0  0  0  0  0  0  0
   -1.6742   18.1033  -26.1989 C   0  0  0  0  0  0  0  0  0  0  0  0
    0.8421   17.6830  -28.7864 C   0  0  0  0  0  0  0  0  0  0  0  0
   -3.4657   10.0330  -27.3389 C   0  0  0  0  0  0  0  0  0  0  0  0
   -0.7818    9.7634  -29.8635 C   0  0  0  0  0  0  0  0  0  0  0  0
    1.0565   18.4317  -29.9723 C   0  0  0  0  0  0  0  0  0  0  0  0
   -3.8698   18.7206  -25.0035 C   0  0  0  0  0  0  0  0  0  0  0  0
   -1.8323   18.4494  -20.9805 C   0  0  0  0  0  0  0  0  0  0  0  0
   -2.0598   11.4993  -28.5496 C   0  0  0  0  0  0  0  0  0  0  0  0
   -2.3124   18.8111  -24.9201 C   0  0  0  0  0  0  0  0  0  0  0  0
   -1.6021   15.1024  -28.5494 N   0  0  0  0  0  0  0  0  0  0  0  0
   -3.6410   12.5674  -27.1099 N   0  0  0  0  0  0  0  0  0  0  0  0
    3.0523   16.7220  -29.2437 C   0  0  0  0  0  0  0  0  0  0  0  0
   -1.9039   18.2605  -23.5437 C   0  0  0  0  0  0  0  0  0  0  0  0
   -2.0846   16.8542  -26.7010 C   0  0  0  0  0  0  0  0  0  0  0  0
   -1.1173   18.6760  -22.3596 C   0  0  0  0  0  0  0  0  0  0  0  0
   -1.4055   16.2997  -27.8107 C   0  0  0  0  0  0  0  0  0  0  0  0
  1  5  2  0
  1  7  1  0
  1 25  1  0
  2  8  1  0
  2 22  1  0
  3 12  1  0
  3 15  2  0
  3 20  1  0
  4  9  2  0
  4 16  1  0
  5 23  1  0
  6  9  1  0
  6 31  2  0
  7 26  2  0
  8 30  1  0
  9 17  1  0
 10 13  1  0
 10 19  1  0
 10 23  1  0
 11 18  1  0
 11 23  2  0
 11 26  1  0
 13 18  1  0
 14 17  1  0
 14 27  2  0
 15 27  1  0
 16 24  1  0
 16 29  2  0
 17 20  2  0
 21 24  1  0
 22 30  1  0
 24 28  1  0
 25 31  1  0
 28 30  1  0
 29 31  1  0
M  END
>  <ID>  (1) 
conformer_0

$$$$
