
     RDKit          3D

 33 36  0  0  0  0  0  0  0  0999 V2000
   -0.5598   16.6127  -28.0375 C   0  0  0  0  0  0  0  0  0  0  0  0
    1.6915   16.6436  -29.2264 C   0  0  0  0  0  0  0  0  0  0  0  0
   -2.2446   11.4641  -28.3700 C   0  0  0  0  0  0  0  0  0  0  0  0
   -3.1804    9.4072  -27.2749 C   0  0  0  0  0  0  0  0  0  0  0  0
   -2.4773   12.3581  -27.3466 N   0  0  0  0  0  0  0  0  0  0  0  0
   -0.1056   16.8521  -21.6781 O   0  0  0  0  0  0  0  0  0  0  0  0
   -2.3148    9.9984  -28.2190 O   0  0  0  0  0  0  0  0  0  0  0  0
   -4.1655   18.0006  -24.9491 C   0  0  0  0  0  0  0  0  0  0  0  0
   -2.2732   17.2901  -26.3681 C   0  0  0  0  0  0  0  0  0  0  0  0
   -1.2470   18.7631  -22.4956 C   0  0  0  0  0  0  0  0  0  0  0  0
    0.3120   18.6228  -29.3092 C   0  0  0  0  0  0  0  0  0  0  0  0
   -1.9678   19.1095  -24.8227 C   0  0  0  0  0  0  0  0  0  0  0  0
    3.8058   16.7271  -30.4509 F   0  0  0  0  0  0  0  0  0  0  0  0
    2.3115   18.5513  -30.6057 C   0  0  0  0  0  0  0  0  0  0  0  0
   -1.1973   17.1781  -20.6838 C   0  0  0  0  0  0  0  0  0  0  0  0
    0.4976   17.2981  -28.8464 C   0  0  0  0  0  0  0  0  0  0  0  0
   -1.9146   11.9575  -29.6106 C   0  0  0  0  0  0  0  0  0  0  0  0
   -1.1188   17.6279  -27.0385 C   0  0  0  0  0  0  0  0  0  0  0  0
   -0.9343   19.6281  -25.6125 C   0  0  0  0  0  0  0  0  0  0  0  0
   -2.1526   19.5401  -23.3870 C   0  0  0  0  0  0  0  0  0  0  0  0
   -2.7848    9.9636  -25.9181 C   0  0  0  0  0  0  0  0  0  0  0  0
   -1.7476   11.0350  -30.7354 C   0  0  0  0  0  0  0  0  0  0  0  0
   -1.7092   13.3064  -29.7374 C   0  0  0  0  0  0  0  0  0  0  0  0
   -1.7809   14.1497  -28.6317 C   0  0  0  0  0  0  0  0  0  0  0  0
    2.5844   17.3050  -30.0837 C   0  0  0  0  0  0  0  0  0  0  0  0
   -4.5888    9.9305  -27.6156 C   0  0  0  0  0  0  0  0  0  0  0  0
   -0.4741   17.5622  -22.8886 C   0  0  0  0  0  0  0  0  0  0  0  0
   -2.7477   18.0830  -25.3913 C   0  0  0  0  0  0  0  0  0  0  0  0
    1.1674   19.2276  -30.1730 C   0  0  0  0  0  0  0  0  0  0  0  0
   -1.6733   18.5559  -21.0703 C   0  0  0  0  0  0  0  0  0  0  0  0
   -1.2937   15.5341  -28.5189 N   0  0  0  0  0  0  0  0  0  0  0  0
   -2.2860   13.6410  -27.4601 N   0  0  0  0  0  0  0  0  0  0  0  0
   -0.5130   18.8785  -26.6973 C   0  0  0  0  0  0  0  0  0  0  0  0
  1 16  1  0
  1 18  1  0
  1 31  1  0
  2 16  2  0
  2 25  1  0
  3  5  2  0
  3  7  1  0
  3 17  1  0
  4  7  1  0
  4 21  1  0
  4 26  1  0
  5 32  1  0
  6 15  1  0
  6 27  1  0
  8 28  1  0
  9 18  1  0
  9 28  2  0
 10 20  1  0
 10 27  1  0
 10 30  1  0
 11 16  1  0
 11 29  2  0
 12 19  1  0
 12 20  1  0
 12 28  1  0
 13 25  1  0
 14 25  2  0
 14 29  1  0
 15 30  1  0
 17 22  1  0
 17 23  2  0
 18 33  2  0
 19 33  1  0
 23 24  1  0
 24 31  1  0
 24 32  2  0
M  END
>  <ID>  (1) 
conformer_0

$$$$
