
     RDKit          3D

 27 28  0  0  0  0  0  0  0  0999 V2000
   -1.6567   11.8299  -30.1514 C   0  0  0  0  0  0  0  0  0  0  0  0
   -1.8264   12.6118  -29.0067 C   0  0  0  0  0  0  0  0  0  0  0  0
   -3.4261   10.0914  -26.5901 C   0  0  0  0  0  0  0  0  0  0  0  0
   -2.9471   14.7073  -27.4346 O   0  0  0  0  0  0  0  0  0  0  0  0
   -1.4194   13.9776  -29.0570 N   0  0  0  0  0  0  0  0  0  0  0  0
    0.1738   18.0314  -28.6882 C   0  0  0  0  0  0  0  0  0  0  0  0
   -2.3769   12.0064  -27.8652 C   0  0  0  0  0  0  0  0  0  0  0  0
   -0.2190   20.1841  -27.6095 Cl  0  0  0  0  0  0  0  0  0  0  0  0
   -0.2760   18.2382  -21.7172 C   0  0  0  0  0  0  0  0  0  0  0  0
   -0.3751   18.7880  -27.6697 C   0  0  0  0  0  0  0  0  0  0  0  0
   -2.8198   10.6732  -27.8768 C   0  0  0  0  0  0  0  0  0  0  0  0
   -1.8442   14.8467  -28.0693 C   0  0  0  0  0  0  0  0  0  0  0  0
   -2.4243   17.5786  -24.6342 C   0  0  0  0  0  0  0  0  0  0  0  0
   -1.1392   18.2286  -26.7310 C   0  0  0  0  0  0  0  0  0  0  0  0
   -3.5935   18.0765  -24.3428 O   0  0  0  0  0  0  0  0  0  0  0  0
   -0.2353   16.6561  -28.7673 C   0  0  0  0  0  0  0  0  0  0  0  0
   -2.1252   10.4731  -30.1636 C   0  0  0  0  0  0  0  0  0  0  0  0
   -1.5946   18.4268  -22.4622 C   0  0  0  0  0  0  0  0  0  0  0  0
   -1.1559   16.1450  -27.8734 C   0  0  0  0  0  0  0  0  0  0  0  0
   -1.2689   18.0260  -23.9183 O   0  0  0  0  0  0  0  0  0  0  0  0
    2.1029   18.2242  -30.3901 C   0  0  0  0  0  0  0  0  0  0  0  0
    3.1409   16.1927  -30.5576 C   0  0  0  0  0  0  0  0  0  0  0  0
   -2.7093    9.8979  -29.0221 C   0  0  0  0  0  0  0  0  0  0  0  0
   -1.5464   16.9586  -26.7431 C   0  0  0  0  0  0  0  0  0  0  0  0
    1.1007   18.8808  -29.6278 C   0  0  0  0  0  0  0  0  0  0  0  0
    1.9448   16.7407  -30.2039 O   0  0  0  0  0  0  0  0  0  0  0  0
   -2.2900   16.5510  -25.6105 N   0  0  0  0  0  0  0  0  0  0  0  0
  1  2  2  0
  1 17  1  0
  2  5  1  0
  2  7  1  0
  3 11  1  0
  4 12  2  0
  5 12  1  0
  6 10  2  0
  6 16  1  0
  6 25  1  0
  7 11  2  0
  8 10  1  0
  9 18  1  0
 10 14  1  0
 11 23  1  0
 12 19  1  0
 13 15  2  0
 13 20  1  0
 13 27  1  0
 14 24  2  0
 16 19  2  0
 17 23  2  0
 18 20  1  0
 19 24  1  0
 21 25  1  0
 21 26  1  0
 22 26  1  0
 24 27  1  0
M  END
>  <ID>  (1) 
conformer_0

$$$$
