
     RDKit          3D

 44 48  0  0  0  0  0  0  0  0999 V2000
   -1.6540   15.8704  -27.6578 C   0  0  0  0  0  0  0  0  0  0  0  0
   -0.6530   16.7662  -28.0691 C   0  0  0  0  0  0  0  0  0  0  0  0
   -0.6246   18.1404  -27.5035 C   0  0  0  0  0  0  0  0  0  0  0  0
    0.4546   19.0111  -28.1862 C   0  0  0  0  0  0  0  0  0  0  0  0
   -2.5084   10.1609  -29.7195 C   0  0  0  0  0  0  0  0  0  0  0  0
   -1.5742   10.3928  -30.8491 C   0  0  0  0  0  0  0  0  0  0  0  0
    3.0701   17.0921  -30.3733 C   0  0  0  0  0  0  0  0  0  0  0  0
   -2.3899   19.6117  -23.8333 C   0  0  0  0  0  0  0  0  0  0  0  0
   -2.7211    8.7249  -29.2255 C   0  0  0  0  0  0  0  0  0  0  0  0
   -1.4354   18.9882  -19.1913 C   0  0  0  0  0  0  0  0  0  0  0  0
    0.2554   18.8521  -20.9134 C   0  0  0  0  0  0  0  0  0  0  0  0
   -2.1907   18.2233  -20.2171 C   0  0  0  0  0  0  0  0  0  0  0  0
    2.1019   17.0285  -29.1762 C   0  0  0  0  0  0  0  0  0  0  0  0
   -3.4993   14.3949  -28.2777 C   0  0  0  0  0  0  0  0  0  0  0  0
   -4.7832   10.0148  -27.6729 O   0  0  0  0  0  0  0  0  0  0  0  0
   -3.6922   10.2393  -25.6518 O   0  0  0  0  0  0  0  0  0  0  0  0
   -2.5604   18.5930  -25.1186 C   0  0  0  0  0  0  0  0  0  0  0  0
   -4.8717   19.2358  -24.7170 C   0  0  0  0  0  0  0  0  0  0  0  0
   -0.1005   19.4158  -19.6121 C   0  0  0  0  0  0  0  0  0  0  0  0
    1.5426   19.0909  -30.4905 C   0  0  0  0  0  0  0  0  0  0  0  0
   -2.8175   19.0747  -21.3383 C   0  0  0  0  0  0  0  0  0  0  0  0
   -1.7731   12.4597  -29.5691 C   0  0  0  0  0  0  0  0  0  0  0  0
   -3.9499   17.3060  -23.3370 C   0  0  0  0  0  0  0  0  0  0  0  0
   -2.4191   16.0777  -26.4858 O   0  0  0  0  0  0  0  0  0  0  0  0
   -3.6611   18.1563  -22.0960 C   0  0  0  0  0  0  0  0  0  0  0  0
   -2.0489   14.7401  -28.4644 C   0  0  0  0  0  0  0  0  0  0  0  0
    2.5512   18.2396  -31.2999 C   0  0  0  0  0  0  0  0  0  0  0  0
   -3.9670   17.9374  -24.8303 C   0  0  0  0  0  0  0  0  0  0  0  0
    0.1678   13.6370  -28.7265 O   0  0  0  0  0  0  0  0  0  0  0  0
   -2.9741   20.6394  -21.5010 C   0  0  0  0  0  0  0  0  0  0  0  0
   -0.9423   11.7775  -30.6451 C   0  0  0  0  0  0  0  0  0  0  0  0
   -3.4817    9.8960  -27.0399 C   0  0  0  0  0  0  0  0  0  0  0  0
   -0.3517   18.6818  -22.2117 C   0  0  0  0  0  0  0  0  0  0  0  0
   -2.3760   11.3408  -28.8570 C   0  0  0  0  0  0  0  0  0  0  0  0
   -1.3432   18.6524  -26.1946 C   0  0  0  0  0  0  0  0  0  0  0  0
   -3.4949   19.6883  -22.6716 C   0  0  0  0  0  0  0  0  0  0  0  0
   -0.4784   19.9301  -25.7860 C   0  0  0  0  0  0  0  0  0  0  0  0
    1.1593   18.2862  -29.2670 C   0  0  0  0  0  0  0  0  0  0  0  0
   -2.9158    8.5508  -27.6625 C   0  0  0  0  0  0  0  0  0  0  0  0
   -1.8286   16.9163  -20.4949 O   0  0  0  0  0  0  0  0  0  0  0  0
   -1.1948   13.5908  -28.7628 C   0  0  0  0  0  0  0  0  0  0  0  0
   -4.8479   19.9749  -23.2953 F   0  0  0  0  0  0  0  0  0  0  0  0
   -2.3568   10.9787  -27.3992 C   0  0  0  0  0  0  0  0  0  0  0  0
   -1.0358   19.3520  -23.2254 C   0  0  0  0  0  0  0  0  0  0  0  0
  1  2  1  0
  1 24  1  0
  1 26  1  0
  2  3  1  0
  3  4  1  0
  3 35  1  0
  4 38  1  0
  5  6  1  0
  5  9  1  0
  5 34  1  0
  6 31  1  0
  7 13  1  0
  7 27  1  0
  8 17  1  0
  8 36  1  0
  8 44  1  0
  9 39  1  0
 10 12  1  0
 10 19  1  0
 11 19  1  0
 11 33  1  0
 12 21  1  0
 12 40  1  0
 13 38  1  0
 14 26  1  0
 15 32  1  0
 16 32  1  0
 17 28  1  0
 17 35  2  3
 18 28  1  0
 20 27  1  0
 20 38  1  0
 21 25  1  0
 21 30  1  0
 22 31  1  0
 22 34  1  0
 22 41  1  0
 23 25  1  0
 23 28  1  0
 26 41  1  0
 29 41  1  0
 30 36  1  0
 32 39  1  0
 32 43  1  0
 33 44  1  0
 34 43  1  0
 35 37  1  0
 36 42  1  0
M  END
>  <ID>  (1) 
conformer_0

$$$$
