
     RDKit          3D

 34 36  0  0  0  0  0  0  0  0999 V2000
   -2.9609   19.7308  -23.1850 C   0  0  0  0  0  0  0  0  0  0  0  0
   -0.2756   17.9300  -27.1047 N   0  0  0  0  0  0  0  0  0  0  0  0
   -1.4347   18.2117  -24.7650 C   0  0  0  0  0  0  0  0  0  0  0  0
    1.5099   19.2150  -31.1820 C   0  0  0  0  0  0  0  0  0  0  0  0
    0.9676   19.1650  -29.9361 C   0  0  0  0  0  0  0  0  0  0  0  0
   -1.5162   15.9653  -27.6151 C   0  0  0  0  0  0  0  0  0  0  0  0
   -1.0532   18.3762  -22.3918 C   0  0  0  0  0  0  0  0  0  0  0  0
   -0.9117   11.4411  -30.2432 C   0  0  0  0  0  0  0  0  0  0  0  0
   -1.0757   17.1028  -26.9141 C   0  0  0  0  0  0  0  0  0  0  0  0
   -0.3989   17.6897  -21.2298 C   0  0  0  0  0  0  0  0  0  0  0  0
    2.4561   18.2627  -31.5430 C   0  0  0  0  0  0  0  0  0  0  0  0
   -2.7177   12.0054  -28.5733 O   0  0  0  0  0  0  0  0  0  0  0  0
   -4.3471   10.5869  -26.3818 C   0  0  0  0  0  0  0  0  0  0  0  0
   -0.9913   17.6046  -23.5969 N   0  0  0  0  0  0  0  0  0  0  0  0
   -3.7955   18.8580  -25.3815 C   0  0  0  0  0  0  0  0  0  0  0  0
   -2.6577   19.0874  -24.4905 C   0  0  0  0  0  0  0  0  0  0  0  0
   -2.9133    8.4233  -26.7854 O   0  0  0  0  0  0  0  0  0  0  0  0
   -0.7988   15.2848  -28.5651 N   0  0  0  0  0  0  0  0  0  0  0  0
   -2.7457   15.4405  -27.2828 C   0  0  0  0  0  0  0  0  0  0  0  0
    2.1597   17.1386  -29.4260 C   0  0  0  0  0  0  0  0  0  0  0  0
   -1.0506   17.8755  -26.0098 C   0  0  0  0  0  0  0  0  0  0  0  0
   -1.1737   14.0353  -28.9808 C   0  0  0  0  0  0  0  0  0  0  0  0
   -1.2481   10.1523  -29.6778 C   0  0  0  0  0  0  0  0  0  0  0  0
   -2.3251   13.4352  -28.4538 C   0  0  0  0  0  0  0  0  0  0  0  0
   -3.1443   14.2306  -27.6877 C   0  0  0  0  0  0  0  0  0  0  0  0
   -2.2924   19.1644  -21.9825 C   0  0  0  0  0  0  0  0  0  0  0  0
   -3.4094   10.8300  -27.6266 C   0  0  0  0  0  0  0  0  0  0  0  0
   -0.6352   16.2713  -21.3039 O   0  0  0  0  0  0  0  0  0  0  0  0
   -1.6737    9.0047  -28.7501 C   0  0  0  0  0  0  0  0  0  0  0  0
    0.6271   18.2044  -27.9132 C   0  0  0  0  0  0  0  0  0  0  0  0
   -2.7493    9.4171  -27.8084 C   0  0  0  0  0  0  0  0  0  0  0  0
   -2.2818   11.2492  -29.8102 C   0  0  0  0  0  0  0  0  0  0  0  0
    2.7989   17.2278  -30.6816 C   0  0  0  0  0  0  0  0  0  0  0  0
    1.2448   18.1296  -29.1080 C   0  0  0  0  0  0  0  0  0  0  0  0
  1 16  1  0
  1 26  1  0
  2  9  2  3
  2 30  1  0
  3 14  1  0
  3 16  1  0
  3 21  1  0
  4  5  2  0
  4 11  1  0
  5 34  1  0
  6  9  1  0
  6 18  1  0
  6 19  1  0
  7 10  1  0
  7 14  1  0
  7 26  1  0
  8 23  1  0
  8 32  1  0
  9 21  1  0
 10 28  1  0
 11 33  2  0
 12 24  1  0
 12 32  1  0
 13 27  1  0
 15 16  1  0
 17 31  1  0
 18 22  2  0
 19 25  2  0
 20 33  1  0
 20 34  2  0
 22 24  1  0
 23 29  1  0
 24 25  1  0
 27 31  1  0
 29 31  1  0
 30 34  1  0
M  END
>  <ID>  (1) 
conformer_0

$$$$
