
     RDKit          3D

 40 47  0  0  0  0  0  0  0  0999 V2000
   -0.8715   17.5372  -27.4161 C   0  0  0  0  0  0  0  0  0  0  0  0
   -3.1396   17.7447  -24.4156 C   0  0  0  0  0  0  0  0  0  0  0  0
    3.8409   16.4042  -30.7647 F   0  0  0  0  0  0  0  0  0  0  0  0
   -1.1172   18.8592  -25.1326 C   0  0  0  0  0  0  0  0  0  0  0  0
   -1.0770   14.1175  -29.5032 N   0  0  0  0  0  0  0  0  0  0  0  0
   -0.3952   18.8899  -27.3275 C   0  0  0  0  0  0  0  0  0  0  0  0
   -0.4969   19.5501  -26.1462 C   0  0  0  0  0  0  0  0  0  0  0  0
   -1.8061   17.0493  -26.5094 C   0  0  0  0  0  0  0  0  0  0  0  0
   -3.6816    9.0803  -27.4793 C   0  0  0  0  0  0  0  0  0  0  0  0
    0.0597   18.9470  -20.5858 C   0  0  0  0  0  0  0  0  0  0  0  0
   -2.4394   13.7196  -27.4897 N   0  0  0  0  0  0  0  0  0  0  0  0
   -4.8947    9.8772  -27.0696 C   0  0  0  0  0  0  0  0  0  0  0  0
   -0.6555   19.1556  -23.9728 C   0  0  0  0  0  0  0  0  0  0  0  0
   -2.1272   18.5335  -22.2660 C   0  0  0  0  0  0  0  0  0  0  0  0
   -1.0583   15.3078  -28.5876 C   0  0  0  0  0  0  0  0  0  0  0  0
   -0.3827   16.6343  -28.4313 C   0  0  0  0  0  0  0  0  0  0  0  0
   -0.8683   18.8586  -22.7425 C   0  0  0  0  0  0  0  0  0  0  0  0
   -2.2999   18.6119  -20.8894 C   0  0  0  0  0  0  0  0  0  0  0  0
   -2.6477    8.4027  -26.5787 C   0  0  0  0  0  0  0  0  0  0  0  0
   -2.8752   10.0627  -28.3010 C   0  0  0  0  0  0  0  0  0  0  0  0
    0.7626   17.3256  -29.0502 C   0  0  0  0  0  0  0  0  0  0  0  0
    1.7946   16.5615  -29.5339 C   0  0  0  0  0  0  0  0  0  0  0  0
    0.8764   18.7370  -29.1533 C   0  0  0  0  0  0  0  0  0  0  0  0
   -1.6817   10.2830  -30.3928 C   0  0  0  0  0  0  0  0  0  0  0  0
    1.7504   19.3213  -30.0637 C   0  0  0  0  0  0  0  0  0  0  0  0
   -2.0704   17.8495  -25.3531 C   0  0  0  0  0  0  0  0  0  0  0  0
   -1.1749   18.8053  -20.0652 C   0  0  0  0  0  0  0  0  0  0  0  0
   -1.4367   11.6533  -30.2919 C   0  0  0  0  0  0  0  0  0  0  0  0
   -2.3216    9.4452  -29.4675 C   0  0  0  0  0  0  0  0  0  0  0  0
    2.6925   18.4776  -30.6621 C   0  0  0  0  0  0  0  0  0  0  0  0
    0.1677   19.5857  -28.3624 O   0  0  0  0  0  0  0  0  0  0  0  0
   -2.7670   11.3557  -27.9346 C   0  0  0  0  0  0  0  0  0  0  0  0
   -4.4239   17.2553  -24.9381 C   0  0  0  0  0  0  0  0  0  0  0  0
    2.7424   17.1558  -30.3174 C   0  0  0  0  0  0  0  0  0  0  0  0
   -3.1349   18.1616  -23.1282 N   0  0  0  0  0  0  0  0  0  0  0  0
   -2.3444   15.8559  -26.6799 N   0  0  0  0  0  0  0  0  0  0  0  0
   -2.2947   12.6235  -28.2530 C   0  0  0  0  0  0  0  0  0  0  0  0
   -1.9658   14.9532  -27.5721 C   0  0  0  0  0  0  0  0  0  0  0  0
    0.2273   19.0068  -21.9523 C   0  0  0  0  0  0  0  0  0  0  0  0
   -1.5692   12.8113  -29.4270 C   0  0  0  0  0  0  0  0  0  0  0  0
  1  6  1  0
  1  8  2  0
  1 16  1  0
  2 26  1  0
  2 33  1  0
  2 35  2  0
  3 34  1  0
  4  7  1  0
  4 13  2  0
  4 26  1  0
  5 15  1  0
  5 40  2  0
  6  7  2  0
  6 31  1  0
  8 26  1  0
  8 36  1  0
  9 12  1  0
  9 19  1  0
  9 20  1  0
 10 27  1  0
 10 39  2  0
 11 37  2  0
 11 38  1  0
 13 17  1  0
 14 17  2  0
 14 18  1  0
 14 35  1  0
 15 16  2  0
 15 38  1  0
 16 21  1  0
 17 39  1  0
 18 27  2  0
 20 29  1  0
 20 32  2  0
 21 22  2  0
 21 23  1  0
 22 34  1  0
 23 25  2  0
 23 31  1  0
 24 28  1  0
 24 29  2  0
 25 30  1  0
 28 40  1  0
 30 34  2  0
 32 37  1  0
 36 38  2  0
 37 40  1  0
M  END
>  <ID>  (1) 
conformer_0

$$$$
