
     RDKit          3D

 28 31  0  0  0  0  0  0  0  0999 V2000
    2.9008   16.7144  -29.2035 C   0  0  0  0  0  0  0  0  0  0  0  0
   -1.9858   15.3155  -27.7295 C   0  0  0  0  0  0  0  0  0  0  0  0
   -2.8894    8.8925  -27.8010 C   0  0  0  0  0  0  0  0  0  0  0  0
    3.8711   16.8651  -30.4819 O   0  0  0  0  0  0  0  0  0  0  0  0
   -1.8259   13.0383  -28.4314 C   0  0  0  0  0  0  0  0  0  0  0  0
   -2.6311   11.1690  -26.9436 C   0  0  0  0  0  0  0  0  0  0  0  0
   -2.3164   18.2108  -24.4903 C   0  0  0  0  0  0  0  0  0  0  0  0
   -0.7044   19.2738  -26.2385 N   0  0  0  0  0  0  0  0  0  0  0  0
   -1.8371   11.1639  -30.8760 Cl  0  0  0  0  0  0  0  0  0  0  0  0
   -2.2222   10.7030  -29.2579 C   0  0  0  0  0  0  0  0  0  0  0  0
   -1.5766   17.1984  -26.6938 C   0  0  0  0  0  0  0  0  0  0  0  0
    2.8427   17.9262  -30.9886 C   0  0  0  0  0  0  0  0  0  0  0  0
   -2.3060   16.0248  -26.6304 N   0  0  0  0  0  0  0  0  0  0  0  0
   -0.7279   18.0943  -22.4152 C   0  0  0  0  0  0  0  0  0  0  0  0
   -2.2477   11.6505  -28.2109 C   0  0  0  0  0  0  0  0  0  0  0  0
   -1.5146   18.2367  -25.8283 C   0  0  0  0  0  0  0  0  0  0  0  0
    0.8056   18.1690  -29.5329 C   0  0  0  0  0  0  0  0  0  0  0  0
   -2.9355    9.8079  -26.7544 C   0  0  0  0  0  0  0  0  0  0  0  0
   -2.6289   14.0934  -28.0167 O   0  0  0  0  0  0  0  0  0  0  0  0
   -2.5279    9.3516  -29.0802 C   0  0  0  0  0  0  0  0  0  0  0  0
   -0.7819   17.1790  -27.8741 C   0  0  0  0  0  0  0  0  0  0  0  0
    2.1992   18.0022  -29.6101 C   0  0  0  0  0  0  0  0  0  0  0  0
   -2.1044   18.4101  -23.0009 C   0  0  0  0  0  0  0  0  0  0  0  0
    0.0514   18.1804  -28.2831 N   0  0  0  0  0  0  0  0  0  0  0  0
   -0.7118   13.2622  -29.0845 O   0  0  0  0  0  0  0  0  0  0  0  0
   -1.0293   15.9686  -28.4971 C   0  0  0  0  0  0  0  0  0  0  0  0
   -3.8539   17.9977  -24.7618 C   0  0  0  0  0  0  0  0  0  0  0  0
   -0.0183   19.2398  -27.3731 C   0  0  0  0  0  0  0  0  0  0  0  0
  1  4  1  0
  1 22  1  0
  2 13  1  0
  2 19  1  0
  2 26  1  0
  3 18  2  0
  3 20  1  0
  4 12  1  0
  5 15  1  0
  5 19  1  0
  5 25  2  0
  6 15  2  0
  6 18  1  0
  7 16  1  0
  7 23  1  0
  7 27  1  0
  8 16  1  0
  8 28  2  0
  9 10  1  0
 10 15  1  0
 10 20  2  0
 11 13  1  0
 11 16  2  0
 11 21  1  0
 12 22  1  0
 14 23  1  0
 17 22  1  0
 17 24  1  0
 21 24  1  0
 21 26  1  0
 24 28  1  0
M  END
>  <ID>  (1) 
conformer_0

$$$$
