
     RDKit          3D

 28 29  0  0  0  0  0  0  0  0999 V2000
   -1.3366   11.3542  -29.2167 C   0  0  0  0  0  0  0  0  0  0  0  0
   -0.8247   16.5157  -20.9710 C   0  0  0  0  0  0  0  0  0  0  0  0
    0.9666   17.2036  -29.2552 C   0  0  0  0  0  0  0  0  0  0  0  0
   -2.6285   18.7426  -24.8264 C   0  0  0  0  0  0  0  0  0  0  0  0
   -1.6918   18.6823  -20.7018 C   0  0  0  0  0  0  0  0  0  0  0  0
   -0.7188   17.8230  -27.4079 C   0  0  0  0  0  0  0  0  0  0  0  0
   -2.2453    8.6910  -28.1620 C   0  0  0  0  0  0  0  0  0  0  0  0
   -0.0708   19.9667  -27.1378 C   0  0  0  0  0  0  0  0  0  0  0  0
   -1.2424   15.6392  -28.4114 C   0  0  0  0  0  0  0  0  0  0  0  0
   -1.4526   16.5617  -27.3293 C   0  0  0  0  0  0  0  0  0  0  0  0
   -3.0668    9.9024  -28.0357 C   0  0  0  0  0  0  0  0  0  0  0  0
   -2.0524   13.3522  -28.6710 C   0  0  0  0  0  0  0  0  0  0  0  0
    3.2658   16.8227  -30.2349 C   0  0  0  0  0  0  0  0  0  0  0  0
   -1.0997   12.7452  -29.3832 C   0  0  0  0  0  0  0  0  0  0  0  0
   -2.2335   16.2215  -26.3801 O   0  0  0  0  0  0  0  0  0  0  0  0
   -0.6619   17.8875  -21.5516 C   0  0  0  0  0  0  0  0  0  0  0  0
   -2.4087   14.7703  -28.6801 C   0  0  0  0  0  0  0  0  0  0  0  0
   -4.3846   10.0500  -27.4119 C   0  0  0  0  0  0  0  0  0  0  0  0
   -1.5792   19.2182  -25.5093 O   0  0  0  0  0  0  0  0  0  0  0  0
    0.6143   19.4071  -28.1920 C   0  0  0  0  0  0  0  0  0  0  0  0
   -0.8669   18.9634  -26.6102 C   0  0  0  0  0  0  0  0  0  0  0  0
    0.2987   18.0734  -28.3671 C   0  0  0  0  0  0  0  0  0  0  0  0
   -2.3945   11.2155  -28.3587 C   0  0  0  0  0  0  0  0  0  0  0  0
   -2.2377   18.7507  -23.3386 C   0  0  0  0  0  0  0  0  0  0  0  0
    1.8583   18.7480  -31.0046 O   0  0  0  0  0  0  0  0  0  0  0  0
    2.1003   17.6847  -30.0804 C   0  0  0  0  0  0  0  0  0  0  0  0
   -2.8076   12.4284  -27.9733 N   0  0  0  0  0  0  0  0  0  0  0  0
   -0.9544   17.9514  -23.0533 C   0  0  0  0  0  0  0  0  0  0  0  0
  1 14  1  0
  1 23  1  0
  2 16  1  0
  3 22  2  3
  3 26  1  0
  4 19  1  0
  4 24  1  0
  5 16  1  0
  6 10  1  0
  6 21  2  0
  6 22  1  0
  7 11  1  0
  8 20  1  0
  8 21  1  0
  9 10  1  0
  9 17  1  0
 10 15  2  0
 11 18  1  0
 11 23  1  0
 12 14  1  0
 12 17  1  0
 12 27  1  0
 13 26  1  0
 16 28  1  0
 19 21  1  0
 20 22  1  0
 23 27  1  0
 24 28  1  0
 25 26  1  0
M  END
>  <ID>  (1) 
conformer_0

$$$$
