
     RDKit          3D

 37 42  0  0  0  0  0  0  0  0999 V2000
   -0.7316   10.0455  -30.4418 C   0  0  0  0  0  0  0  0  0  0  0  0
   -1.4100   18.2744  -22.2720 C   0  0  0  0  0  0  0  0  0  0  0  0
    0.6979   11.9817  -30.5609 O   0  0  0  0  0  0  0  0  0  0  0  0
   -1.2698   12.3691  -29.5499 N   0  0  0  0  0  0  0  0  0  0  0  0
    0.2537   19.4871  -28.7045 C   0  0  0  0  0  0  0  0  0  0  0  0
   -2.8098    9.0746  -26.2261 C   0  0  0  0  0  0  0  0  0  0  0  0
   -1.6494   17.7068  -25.9581 C   0  0  0  0  0  0  0  0  0  0  0  0
   -0.8102   13.6868  -29.2633 C   0  0  0  0  0  0  0  0  0  0  0  0
   -0.3975   11.4221  -30.0459 C   0  0  0  0  0  0  0  0  0  0  0  0
   -3.7993   10.1908  -26.1304 C   0  0  0  0  0  0  0  0  0  0  0  0
   -2.8016   10.9780  -28.2416 C   0  0  0  0  0  0  0  0  0  0  0  0
    1.3345   17.2417  -28.6382 C   0  0  0  0  0  0  0  0  0  0  0  0
   -0.3348   19.0371  -27.5171 C   0  0  0  0  0  0  0  0  0  0  0  0
   -2.8920   13.3899  -28.3528 O   0  0  0  0  0  0  0  0  0  0  0  0
   -3.3889   18.3273  -23.7091 C   0  0  0  0  0  0  0  0  0  0  0  0
   -0.7861   16.4798  -27.8052 C   0  0  0  0  0  0  0  0  0  0  0  0
   -1.9038   18.5201  -23.6348 C   0  0  0  0  0  0  0  0  0  0  0  0
   -2.7355   15.6608  -26.6950 C   0  0  0  0  0  0  0  0  0  0  0  0
    3.0068   16.5110  -30.3189 C   0  0  0  0  0  0  0  0  0  0  0  0
    1.9368   18.8881  -30.4654 C   0  0  0  0  0  0  0  0  0  0  0  0
    0.3763   16.2034  -28.6567 C   0  0  0  0  0  0  0  0  0  0  0  0
   -0.8685   17.7224  -27.1296 C   0  0  0  0  0  0  0  0  0  0  0  0
    2.7557   16.6583  -28.7581 C   0  0  0  0  0  0  0  0  0  0  0  0
   -3.5271   11.3141  -26.9905 C   0  0  0  0  0  0  0  0  0  0  0  0
   -1.2335   18.6623  -24.8577 C   0  0  0  0  0  0  0  0  0  0  0  0
   -0.4062   17.3137  -22.1030 N   0  0  0  0  0  0  0  0  0  0  0  0
    1.2049   19.5223  -31.3708 O   0  0  0  0  0  0  0  0  0  0  0  0
    3.0469   17.9464  -30.8872 C   0  0  0  0  0  0  0  0  0  0  0  0
   -1.5986    9.2614  -29.7057 N   0  0  0  0  0  0  0  0  0  0  0  0
   -2.1938    9.6925  -28.5164 C   0  0  0  0  0  0  0  0  0  0  0  0
   -2.6362    8.5613  -27.6179 C   0  0  0  0  0  0  0  0  0  0  0  0
    1.1516   18.5100  -29.2800 C   0  0  0  0  0  0  0  0  0  0  0  0
   -2.0712   18.6800  -21.2477 O   0  0  0  0  0  0  0  0  0  0  0  0
   -1.7761   15.4791  -27.6543 C   0  0  0  0  0  0  0  0  0  0  0  0
   -2.6307   16.7495  -25.8664 C   0  0  0  0  0  0  0  0  0  0  0  0
   -1.7709   14.2532  -28.4565 C   0  0  0  0  0  0  0  0  0  0  0  0
   -2.5786   12.2031  -29.0527 C   0  0  0  0  0  0  0  0  0  0  0  0
  1  9  1  0
  1 29  2  0
  2 17  1  0
  2 26  1  0
  2 33  2  0
  3  9  2  0
  4  8  1  0
  4  9  1  0
  4 37  1  0
  5 13  1  0
  5 32  1  0
  6 10  1  0
  6 31  1  0
  7 22  1  0
  7 25  1  0
  7 35  2  0
  8 36  1  0
 10 24  1  0
 11 24  1  0
 11 30  1  0
 11 37  1  0
 12 21  1  0
 12 23  1  0
 12 32  1  0
 13 22  2  0
 14 36  1  0
 14 37  1  0
 15 17  1  0
 16 21  1  0
 16 22  1  0
 16 34  1  0
 17 25  1  0
 18 34  2  0
 18 35  1  0
 19 23  1  0
 19 28  1  0
 20 27  1  0
 20 28  1  0
 20 32  1  0
 29 30  1  0
 30 31  1  0
 34 36  1  0
M  END
>  <ID>  (1) 
conformer_0

$$$$
