
     RDKit          3D

 44 51  0  0  0  0  0  0  0  0999 V2000
   -3.4897   17.7045  -25.3027 C   0  0  0  0  0  0  0  0  0  0  0  0
   -1.7208   12.7839  -27.3585 O   0  0  0  0  0  0  0  0  0  0  0  0
    1.3661   18.1008  -29.4941 C   0  0  0  0  0  0  0  0  0  0  0  0
   -1.2381   18.4532  -21.7743 C   0  0  0  0  0  0  0  0  0  0  0  0
   -0.6919    9.4881  -30.2815 O   0  0  0  0  0  0  0  0  0  0  0  0
    2.2624   19.4842  -31.0504 O   0  0  0  0  0  0  0  0  0  0  0  0
   -3.3737   11.1072  -27.3137 C   0  0  0  0  0  0  0  0  0  0  0  0
   -3.9039    9.8884  -27.3885 C   0  0  0  0  0  0  0  0  0  0  0  0
   -2.5174   14.0102  -27.4487 C   0  0  0  0  0  0  0  0  0  0  0  0
    0.7881   19.1361  -22.9138 C   0  0  0  0  0  0  0  0  0  0  0  0
    0.1290   18.7925  -21.7263 C   0  0  0  0  0  0  0  0  0  0  0  0
    0.7732   19.2675  -28.9438 C   0  0  0  0  0  0  0  0  0  0  0  0
   -3.7400   19.2026  -24.9026 C   0  0  0  0  0  0  0  0  0  0  0  0
   -0.1194   10.8384  -32.3977 C   0  0  0  0  0  0  0  0  0  0  0  0
    2.3039   18.3431  -30.5346 C   0  0  0  0  0  0  0  0  0  0  0  0
   -1.3454   11.7470  -30.3448 C   0  0  0  0  0  0  0  0  0  0  0  0
   -3.3682   16.3323  -25.9015 O   0  0  0  0  0  0  0  0  0  0  0  0
   -1.9382   18.3013  -25.5558 C   0  0  0  0  0  0  0  0  0  0  0  0
   -0.4890   15.2911  -28.0338 C   0  0  0  0  0  0  0  0  0  0  0  0
    0.1476   19.0575  -24.1407 C   0  0  0  0  0  0  0  0  0  0  0  0
   -2.3287   11.6754  -27.9307 C   0  0  0  0  0  0  0  0  0  0  0  0
   -3.4515    8.7401  -27.9546 C   0  0  0  0  0  0  0  0  0  0  0  0
   -1.6896    9.6875  -29.3001 C   0  0  0  0  0  0  0  0  0  0  0  0
   -1.7127   15.2010  -27.3537 C   0  0  0  0  0  0  0  0  0  0  0  0
    0.0099   20.0453  -26.9246 O   0  0  0  0  0  0  0  0  0  0  0  0
    1.1552   16.8046  -29.0799 C   0  0  0  0  0  0  0  0  0  0  0  0
    3.0408   16.1166  -30.3297 C   0  0  0  0  0  0  0  0  0  0  0  0
   -1.4601   17.4329  -26.5822 C   0  0  0  0  0  0  0  0  0  0  0  0
   -5.0485    9.8008  -26.7051 F   0  0  0  0  0  0  0  0  0  0  0  0
   -0.4160   17.6574  -27.4784 C   0  0  0  0  0  0  0  0  0  0  0  0
   -2.4814   19.5980  -25.9050 O   0  0  0  0  0  0  0  0  0  0  0  0
   -0.5215   10.6650  -30.9882 C   0  0  0  0  0  0  0  0  0  0  0  0
    0.1109   16.5547  -28.1744 C   0  0  0  0  0  0  0  0  0  0  0  0
    3.1962   17.3359  -30.8912 C   0  0  0  0  0  0  0  0  0  0  0  0
   -1.9510   18.1590  -20.4644 C   0  0  0  0  0  0  0  0  0  0  0  0
   -1.8514   18.3851  -23.0561 C   0  0  0  0  0  0  0  0  0  0  0  0
   -1.1991   18.5732  -24.2329 C   0  0  0  0  0  0  0  0  0  0  0  0
   -1.8259   11.0213  -29.1126 C   0  0  0  0  0  0  0  0  0  0  0  0
   -0.0136   14.1975  -28.6845 O   0  0  0  0  0  0  0  0  0  0  0  0
    0.1151   19.0333  -27.7156 C   0  0  0  0  0  0  0  0  0  0  0  0
   -1.3309   16.7505  -20.1165 Cl  0  0  0  0  0  0  0  0  0  0  0  0
   -2.3673    8.5860  -28.8092 C   0  0  0  0  0  0  0  0  0  0  0  0
    2.0287   15.8224  -29.4757 C   0  0  0  0  0  0  0  0  0  0  0  0
   -2.1446   16.2817  -26.6743 C   0  0  0  0  0  0  0  0  0  0  0  0
  1 13  1  0
  1 17  1  0
  1 18  1  0
  2  9  1  0
  2 21  1  0
  3 12  1  0
  3 15  1  0
  3 26  1  0
  4 11  2  0
  4 35  1  0
  4 36  1  0
  5 23  1  0
  5 32  1  0
  6 15  2  0
  7  8  2  0
  7 21  1  0
  8 22  1  0
  8 29  1  0
  9 24  1  0
 10 11  1  0
 10 20  2  0
 12 40  1  0
 13 31  1  0
 14 32  1  0
 15 34  1  0
 16 32  1  0
 16 38  1  0
 17 44  1  0
 18 28  1  0
 18 31  1  0
 18 37  1  0
 19 24  1  0
 19 33  2  0
 19 39  1  0
 20 37  1  0
 21 38  1  0
 22 42  1  0
 23 38  1  0
 23 42  2  0
 24 44  2  0
 25 40  1  0
 26 33  1  0
 26 43  2  0
 27 34  2  0
 27 43  1  0
 28 30  1  0
 28 44  1  0
 30 33  1  0
 30 40  1  0
 35 41  1  0
 36 37  2  0
M  END
>  <ID>  (1) 
conformer_0

$$$$
