
     RDKit          3D

 24 25  0  0  0  0  0  0  0  0999 V2000
   -1.0458   18.4200  -26.6807 C   0  0  0  0  0  0  0  0  0  0  0  0
   -2.3978   12.9642  -28.6266 C   0  0  0  0  0  0  0  0  0  0  0  0
   -1.2901   12.1381  -29.2414 C   0  0  0  0  0  0  0  0  0  0  0  0
   -2.2270   18.6701  -24.4073 C   0  0  0  0  0  0  0  0  0  0  0  0
   -0.2559   19.0519  -27.7196 C   0  0  0  0  0  0  0  0  0  0  0  0
   -0.9167   10.1995  -30.6278 C   0  0  0  0  0  0  0  0  0  0  0  0
   -1.6981   19.2797  -25.6747 C   0  0  0  0  0  0  0  0  0  0  0  0
   -3.2097   11.0083  -27.3796 C   0  0  0  0  0  0  0  0  0  0  0  0
   -2.8028   10.2087  -28.6475 C   0  0  0  0  0  0  0  0  0  0  0  0
   -1.4346   17.0979  -26.8225 N   0  0  0  0  0  0  0  0  0  0  0  0
   -1.6939   18.7781  -21.2875 C   0  0  0  0  0  0  0  0  0  0  0  0
    1.1011   18.9320  -29.7794 O   0  0  0  0  0  0  0  0  0  0  0  0
   -1.9568   10.8480  -29.8045 C   0  0  0  0  0  0  0  0  0  0  0  0
   -3.8928   10.5644  -26.1667 C   0  0  0  0  0  0  0  0  0  0  0  0
   -1.0307   16.4104  -27.9852 C   0  0  0  0  0  0  0  0  0  0  0  0
   -2.3382   14.4024  -28.8298 C   0  0  0  0  0  0  0  0  0  0  0  0
   -0.1446   16.9484  -28.9858 C   0  0  0  0  0  0  0  0  0  0  0  0
    0.3685   18.2464  -28.7106 C   0  0  0  0  0  0  0  0  0  0  0  0
   -1.2468   14.9533  -27.9577 C   0  0  0  0  0  0  0  0  0  0  0  0
   -3.0187   12.4434  -27.4505 O   0  0  0  0  0  0  0  0  0  0  0  0
   -1.1967   17.8543  -23.7097 C   0  0  0  0  0  0  0  0  0  0  0  0
   -0.7731   18.2333  -22.3415 C   0  0  0  0  0  0  0  0  0  0  0  0
    2.2261   18.1989  -30.3624 C   0  0  0  0  0  0  0  0  0  0  0  0
   -0.0461   17.1211  -21.7694 O   0  0  0  0  0  0  0  0  0  0  0  0
  1  5  1  0
  1  7  1  0
  1 10  2  0
  2  3  1  0
  2 16  1  0
  2 20  1  0
  3 13  1  0
  4  7  1  0
  4 21  1  0
  5 18  1  0
  6 13  1  0
  8  9  2  0
  8 14  1  0
  8 20  1  0
  9 13  1  0
 10 15  1  0
 11 22  1  0
 12 18  1  0
 12 23  1  0
 15 17  2  0
 15 19  1  0
 16 19  1  0
 17 18  1  0
 21 22  1  0
 22 24  1  0
M  END
>  <ID>  (1) 
conformer_0

$$$$
