
     RDKit          3D

 46 51  0  0  0  0  0  0  0  0999 V2000
   -3.7061    8.3776  -28.6515 C   0  0  0  0  0  0  0  0  0  0  0  0
   -4.7566   10.2129  -27.5336 O   0  0  0  0  0  0  0  0  0  0  0  0
   -1.3249   16.9966  -27.3334 C   0  0  0  0  0  0  0  0  0  0  0  0
   -0.4790   18.0746  -27.3368 C   0  0  0  0  0  0  0  0  0  0  0  0
   -0.8058   17.4343  -20.6441 C   0  0  0  0  0  0  0  0  0  0  0  0
    3.9044   17.1001  -32.1790 C   0  0  0  0  0  0  0  0  0  0  0  0
   -3.1589    8.3496  -30.0413 C   0  0  0  0  0  0  0  0  0  0  0  0
   -1.9665   10.8736  -29.6623 C   0  0  0  0  0  0  0  0  0  0  0  0
    1.5978   19.5170  -30.4479 C   0  0  0  0  0  0  0  0  0  0  0  0
   -2.3948   18.9494  -22.4429 C   0  0  0  0  0  0  0  0  0  0  0  0
   -2.3329   18.3836  -25.4542 C   0  0  0  0  0  0  0  0  0  0  0  0
   -0.1102   18.0826  -21.7817 C   0  0  0  0  0  0  0  0  0  0  0  0
   -3.0701   16.0947  -26.1483 N   0  0  0  0  0  0  0  0  0  0  0  0
   -1.3734   13.2432  -29.6538 C   0  0  0  0  0  0  0  0  0  0  0  0
   -3.6181   18.3833  -24.6733 C   0  0  0  0  0  0  0  0  0  0  0  0
    0.1160   19.3047  -26.9366 S   0  0  0  0  0  4  0  0  0  0  0  0
   -2.6875   12.2864  -27.9243 C   0  0  0  0  0  0  0  0  0  0  0  0
   -2.1332    8.0672  -26.5600 F   0  0  0  0  0  0  0  0  0  0  0  0
    3.1043   18.2860  -31.9457 O   0  0  0  0  0  0  0  0  0  0  0  0
    0.8381   19.5762  -29.2548 C   0  0  0  0  0  0  0  0  0  0  0  0
   -2.1098   20.6568  -24.5833 O   0  0  0  0  0  0  0  0  0  0  0  0
    1.1639   17.2605  -28.8607 C   0  0  0  0  0  0  0  0  0  0  0  0
   -1.4647   19.4278  -24.8742 C   0  0  0  0  0  0  0  0  0  0  0  0
   -2.7117    9.2826  -26.5591 C   0  0  0  0  0  0  0  0  0  0  0  0
   -1.1268   16.1083  -20.9030 O   0  0  0  0  0  0  0  0  0  0  0  0
   -0.3364   19.3868  -23.8625 C   0  0  0  0  0  0  0  0  0  0  0  0
    3.7076   16.0731  -31.2909 C   0  0  0  0  0  0  0  0  0  0  0  0
   -2.6741   10.9916  -28.4916 C   0  0  0  0  0  0  0  0  0  0  0  0
   -0.5919   20.4725  -27.1173 O   0  0  0  0  0  1  0  0  0  0  0  0
    1.2440   19.3782  -26.1751 O   0  0  0  0  0  1  0  0  0  0  0  0
   -2.5469   10.2653  -25.6218 O   0  0  0  0  0  0  0  0  0  0  0  0
    2.7578   16.0613  -30.1837 C   0  0  0  0  0  0  0  0  0  0  0  0
   -1.9985   18.1951  -20.1555 C   0  0  0  0  0  0  0  0  0  0  0  0
   -2.1115   14.8157  -27.8017 C   0  0  0  0  0  0  0  0  0  0  0  0
   -3.0532   18.3279  -21.1970 C   0  0  0  0  0  0  0  0  0  0  0  0
   -3.7211   19.1594  -23.2629 S   0  0  0  0  0  0  0  0  0  0  0  0
   -2.0705   13.4338  -28.4569 C   0  0  0  0  0  0  0  0  0  0  0  0
   -2.2582   17.1460  -26.3160 C   0  0  0  0  0  0  0  0  0  0  0  0
   -3.3995    9.7028  -27.8851 C   0  0  0  0  0  0  0  0  0  0  0  0
    0.5446   18.4957  -28.3477 C   0  0  0  0  0  0  0  0  0  0  0  0
   -1.3431   15.8850  -28.0866 N   0  0  0  0  0  0  0  0  0  0  0  0
   -3.0043   14.9947  -26.8182 N   0  0  0  0  0  0  0  0  0  0  0  0
    2.0236   17.2122  -29.9252 C   0  0  0  0  0  0  0  0  0  0  0  0
   -0.9440   19.1191  -22.4605 C   0  0  0  0  0  0  0  0  0  0  0  0
   -1.3324   11.9727  -30.2574 C   0  0  0  0  0  0  0  0  0  0  0  0
    2.2210   18.3130  -30.7735 C   0  0  0  0  0  0  0  0  0  0  0  0
  1  7  1  0
  1 39  1  0
  2 39  1  0
  3  4  1  0
  3 38  1  0
  3 41  2  0
  4 16  1  0
  5 12  1  0
  5 25  1  0
  5 33  1  0
  6 19  1  0
  6 27  2  0
  8 28  2  0
  8 45  1  0
  9 20  1  0
  9 46  2  0
 10 35  1  0
 10 36  1  0
 10 44  1  0
 11 15  1  0
 11 23  1  0
 11 38  1  0
 12 44  1  0
 13 38  2  0
 13 42  1  0
 14 37  1  0
 14 45  2  0
 15 36  1  0
 16 29  1  0
 16 30  1  0
 16 40  1  0
 17 28  1  0
 17 37  2  0
 18 24  1  0
 19 46  1  0
 20 40  2  0
 21 23  1  0
 22 40  1  0
 22 43  2  0
 23 26  1  0
 24 31  1  0
 24 39  1  0
 26 44  1  0
 27 32  1  0
 28 39  1  0
 32 43  1  0
 33 35  1  0
 34 37  1  0
 34 41  1  0
 34 42  2  0
 43 46  1  0
M  END
>  <ID>  (1) 
conformer_0

$$$$
