
     RDKit          3D

 36 41  0  0  0  0  0  0  0  0999 V2000
   -1.5837   10.6251  -30.5429 C   0  0  0  0  0  0  0  0  0  0  0  0
   -1.9396   17.0208  -26.3092 C   0  0  0  0  0  0  0  0  0  0  0  0
   -1.5502   18.4175  -21.7682 C   0  0  0  0  0  0  0  0  0  0  0  0
   -1.9567   14.7865  -27.5742 C   0  0  0  0  0  0  0  0  0  0  0  0
    2.2180   19.8197  -29.6456 O   0  0  0  0  0  0  0  0  0  0  0  0
   -2.9838    8.3217  -26.8386 C   0  0  0  0  0  0  0  0  0  0  0  0
   -2.4544    9.5616  -29.8422 C   0  0  0  0  0  0  0  0  0  0  0  0
    0.3213   15.9257  -29.0147 N   0  0  0  0  0  0  0  0  0  0  0  0
   -1.9585   18.1568  -20.3175 C   0  0  0  0  0  0  0  0  0  0  0  0
   -1.6598   15.9534  -27.2394 C   0  0  0  0  0  0  0  0  0  0  0  0
   -1.2362   13.2244  -29.5163 C   0  0  0  0  0  0  0  0  0  0  0  0
   -1.3485   19.3116  -24.6997 C   0  0  0  0  0  0  0  0  0  0  0  0
   -2.1997   18.3208  -24.2060 C   0  0  0  0  0  0  0  0  0  0  0  0
    0.7527   18.1240  -28.5755 C   0  0  0  0  0  0  0  0  0  0  0  0
    1.2128   17.0203  -29.2924 C   0  0  0  0  0  0  0  0  0  0  0  0
    2.6199   17.3898  -30.0248 C   0  0  0  0  0  0  0  0  0  0  0  0
   -2.3097   11.4897  -28.5609 C   0  0  0  0  0  0  0  0  0  0  0  0
   -0.2046   17.6872  -21.9720 C   0  0  0  0  0  0  0  0  0  0  0  0
   -4.6492   10.3971  -26.8441 C   0  0  0  0  0  0  0  0  0  0  0  0
   -1.8088   13.6266  -28.3048 C   0  0  0  0  0  0  0  0  0  0  0  0
   -0.5242   16.3510  -28.0968 C   0  0  0  0  0  0  0  0  0  0  0  0
   -2.6739   17.3875  -25.1648 C   0  0  0  0  0  0  0  0  0  0  0  0
   -2.7973   10.1053  -28.4822 C   0  0  0  0  0  0  0  0  0  0  0  0
   -0.2196   17.6842  -27.7562 N   0  0  0  0  0  0  0  0  0  0  0  0
   -1.5774   11.8514  -29.6922 N   0  0  0  0  0  0  0  0  0  0  0  0
   -2.3949   10.3881  -25.9410 C   0  0  0  0  0  0  0  0  0  0  0  0
   -3.2386    9.7662  -27.0371 C   0  0  0  0  0  0  0  0  0  0  0  0
   -2.4689   18.2348  -22.8264 O   0  0  0  0  0  0  0  0  0  0  0  0
   -0.9787   18.0273  -26.6507 C   0  0  0  0  0  0  0  0  0  0  0  0
    1.2141   19.5293  -28.6549 C   0  0  0  0  0  0  0  0  0  0  0  0
    3.1286   16.1887  -30.7133 C   0  0  0  0  0  0  0  0  0  0  0  0
    1.7504   18.8131  -31.7448 O   0  0  0  0  0  0  0  0  0  0  0  0
   -2.4794   12.5550  -27.7149 C   0  0  0  0  0  0  0  0  0  0  0  0
   -0.7786   19.1657  -25.9589 C   0  0  0  0  0  0  0  0  0  0  0  0
    2.4536   18.7925  -30.6390 C   0  0  0  0  0  0  0  0  0  0  0  0
   -3.9266   16.9779  -24.9678 O   0  0  0  0  0  0  0  0  0  0  0  0
  1  7  1  0
  1 25  1  0
  2 10  1  0
  2 22  1  0
  2 29  1  0
  3  9  1  0
  3 18  1  0
  3 28  1  0
  4 10  2  3
  4 20  1  0
  5 30  1  0
  5 35  1  0
  6 27  1  0
  7 23  1  0
  8 15  1  0
  8 21  2  0
 10 21  1  0
 11 20  1  0
 11 25  1  0
 12 13  2  0
 12 34  1  0
 13 22  1  0
 13 28  1  0
 14 15  2  0
 14 24  1  0
 14 30  1  0
 15 16  1  0
 16 31  1  0
 16 35  1  0
 17 23  1  0
 17 25  1  0
 17 33  1  0
 19 27  1  0
 20 33  1  0
 21 24  1  0
 22 36  1  0
 23 27  1  0
 24 29  1  0
 26 27  1  0
 29 34  2  0
 32 35  2  0
M  END
>  <ID>  (1) 
conformer_0

$$$$
