
     RDKit          3D

 31 33  0  0  0  0  0  0  0  0999 V2000
   -1.7066   18.8232  -22.1649 C   0  0  0  0  0  0  0  0  0  0  0  0
   -2.0153   15.9770  -26.9405 C   0  0  0  0  0  0  0  0  0  0  0  0
   -0.7920   14.9376  -28.6956 C   0  0  0  0  0  0  0  0  0  0  0  0
    1.5302   19.0473  -30.9136 C   0  0  0  0  0  0  0  0  0  0  0  0
   -2.1405   13.0737  -27.9177 C   0  0  0  0  0  0  0  0  0  0  0  0
   -2.0844   17.9980  -25.6509 C   0  0  0  0  0  0  0  0  0  0  0  0
   -3.4616   11.2223  -27.0686 C   0  0  0  0  0  0  0  0  0  0  0  0
   -1.0601   11.5661  -29.8631 N   0  0  0  0  0  0  0  0  0  0  0  0
   -1.9029   18.1302  -20.8343 C   0  0  0  0  0  0  0  0  0  0  0  0
   -0.5237   18.3847  -27.5028 C   0  0  0  0  0  0  0  0  0  0  0  0
   -1.3344   13.8164  -28.6028 C   0  0  0  0  0  0  0  0  0  0  0  0
    0.6101   17.3428  -29.3734 C   0  0  0  0  0  0  0  0  0  0  0  0
    3.0550   17.1377  -30.0973 C   0  0  0  0  0  0  0  0  0  0  0  0
   -3.3290    9.1095  -28.2539 C   0  0  0  0  0  0  0  0  0  0  0  0
   -3.8363    9.9021  -27.2169 C   0  0  0  0  0  0  0  0  0  0  0  0
    1.8224   16.4504  -29.4604 C   0  0  0  0  0  0  0  0  0  0  0  0
   -1.0585   16.0785  -27.9045 C   0  0  0  0  0  0  0  0  0  0  0  0
   -1.2130   18.7412  -26.4460 C   0  0  0  0  0  0  0  0  0  0  0  0
   -2.5728   11.7868  -27.9404 C   0  0  0  0  0  0  0  0  0  0  0  0
   -2.4132    9.6745  -29.1352 C   0  0  0  0  0  0  0  0  0  0  0  0
   -3.3345   19.5168  -24.4038 O   0  0  0  0  0  0  0  0  0  0  0  0
    2.6098   18.0156  -31.2690 C   0  0  0  0  0  0  0  0  0  0  0  0
   -2.5754   18.5546  -24.4055 C   0  0  0  0  0  0  0  0  0  0  0  0
   -0.3436   17.2408  -28.2326 C   0  0  0  0  0  0  0  0  0  0  0  0
   -0.1368   16.9838  -21.9921 C   0  0  0  0  0  0  0  0  0  0  0  0
   -2.4759   16.7117  -25.9844 C   0  0  0  0  0  0  0  0  0  0  0  0
   -1.9961   10.9974  -29.0017 C   0  0  0  0  0  0  0  0  0  0  0  0
   -2.1083   17.9058  -23.2586 N   0  0  0  0  0  0  0  0  0  0  0  0
   -1.1136   16.8305  -20.8756 C   0  0  0  0  0  0  0  0  0  0  0  0
   -0.1298   11.3037  -30.6160 C   0  0  0  0  0  0  0  0  0  0  0  0
    1.0911   18.8047  -29.5067 C   0  0  0  0  0  0  0  0  0  0  0  0
  1  9  1  0
  1 28  1  0
  2 17  1  0
  2 26  2  0
  3 11  2  3
  3 17  1  0
  4 22  1  0
  4 31  1  0
  5 11  1  0
  5 19  2  3
  6 18  1  0
  6 23  1  0
  6 26  1  0
  7 15  2  0
  7 19  1  0
  8 27  1  0
  8 30  2  0
  9 29  1  0
 10 18  2  0
 10 24  1  0
 12 16  1  0
 12 24  1  0
 12 31  1  0
 13 16  1  0
 13 22  1  0
 14 15  1  0
 14 20  2  0
 17 24  2  0
 19 27  1  0
 20 27  1  0
 21 23  2  0
 23 28  1  0
 25 29  1  0
M  END
>  <ID>  (1) 
conformer_0

$$$$
