
     RDKit          3D

 37 38  0  0  0  0  0  0  0  0999 V2000
   -2.0066   16.8497  -26.3031 C   0  0  0  0  0  0  0  0  0  0  0  0
   -2.6128   12.0961  -28.7614 C   0  0  0  0  0  0  0  0  0  0  0  0
   -0.3343   11.6717  -29.1288 C   0  0  0  0  0  0  0  0  0  0  0  0
   -1.9621   15.7613  -27.1123 C   0  0  0  0  0  0  0  0  0  0  0  0
   -1.9052   19.0178  -21.9709 C   0  0  0  0  0  0  0  0  0  0  0  0
   -1.0395   14.5325  -28.9972 N   0  0  0  0  0  0  0  0  0  0  0  0
   -3.4324    9.0247  -27.9809 C   0  0  0  0  0  0  0  0  0  0  0  0
   -1.5640   10.4368  -27.4066 F   0  0  0  0  0  0  0  0  0  0  0  0
   -1.5257   19.0552  -20.6724 C   0  0  0  0  0  0  0  0  0  0  0  0
    0.4545   12.2178  -28.2467 F   0  0  0  0  0  0  0  0  0  0  0  0
   -3.7266   11.4184  -28.1196 F   0  0  0  0  0  0  0  0  0  0  0  0
    2.2267   18.4928  -31.8004 C   0  0  0  0  0  0  0  0  0  0  0  0
    1.6145   19.0166  -30.4850 C   0  0  0  0  0  0  0  0  0  0  0  0
    2.8972   17.0712  -29.4124 C   0  0  0  0  0  0  0  0  0  0  0  0
   -2.0975   13.4951  -28.6272 C   0  0  0  0  0  0  0  0  0  0  0  0
   -1.0826   15.7745  -28.2030 C   0  0  0  0  0  0  0  0  0  0  0  0
   -0.9692   19.0650  -25.4569 C   0  0  0  0  0  0  0  0  0  0  0  0
   -1.1926   17.9776  -26.4500 C   0  0  0  0  0  0  0  0  0  0  0  0
   -1.8260    9.8560  -29.5710 C   0  0  0  0  0  0  0  0  0  0  0  0
   -1.4219   16.6474  -22.0812 N   0  0  0  0  0  0  0  0  0  0  0  0
   -1.8888   17.8221  -22.6588 C   0  0  0  0  0  0  0  0  0  0  0  0
    1.6194   17.9194  -29.4555 C   0  0  0  0  0  0  0  0  0  0  0  0
   -1.5696   11.0234  -28.7343 C   0  0  0  0  0  0  0  0  0  0  0  0
   -2.3581   17.7735  -23.9649 N   0  0  0  0  0  0  0  0  0  0  0  0
   -1.0860   17.9327  -20.0508 C   0  0  0  0  0  0  0  0  0  0  0  0
    0.0791   11.6931  -30.3678 F   0  0  0  0  0  0  0  0  0  0  0  0
   -0.5714    9.1567  -29.6762 F   0  0  0  0  0  0  0  0  0  0  0  0
   -3.0069   19.9645  -24.4081 O   0  0  0  0  0  0  0  0  0  0  0  0
   -2.8931    8.9344  -29.2735 C   0  0  0  0  0  0  0  0  0  0  0  0
   -3.5309   10.2891  -26.1201 F   0  0  0  0  0  0  0  0  0  0  0  0
    0.0365   19.2482  -27.8683 O   0  0  0  0  0  0  0  0  0  0  0  0
   -2.1815   19.0489  -24.6416 C   0  0  0  0  0  0  0  0  0  0  0  0
    0.5186   17.0213  -29.5327 O   0  0  0  0  0  0  0  0  0  0  0  0
   -3.0779   10.3029  -27.3660 C   0  0  0  0  0  0  0  0  0  0  0  0
   -0.4853   18.0181  -27.6206 C   0  0  0  0  0  0  0  0  0  0  0  0
   -0.3410   16.9287  -28.4672 C   0  0  0  0  0  0  0  0  0  0  0  0
   -1.0179   16.7786  -20.7752 C   0  0  0  0  0  0  0  0  0  0  0  0
  1  4  2  0
  1 18  1  0
  2 11  1  0
  2 15  1  0
  2 23  1  0
  3 10  1  0
  3 23  1  0
  3 26  1  0
  4 16  1  0
  5  9  2  0
  5 21  1  0
  6 15  1  0
  6 16  1  0
  7 29  1  0
  7 34  1  0
  8 23  1  0
  9 25  1  0
 12 13  1  0
 13 22  1  0
 14 22  1  0
 16 36  1  0
 17 18  1  0
 17 32  1  0
 18 35  1  0
 19 23  1  0
 19 27  1  0
 19 29  1  0
 20 21  2  0
 20 37  1  0
 21 24  1  0
 22 33  1  0
 24 32  1  0
 25 37  2  0
 28 32  2  0
 30 34  1  0
 31 35  1  0
 33 36  1  0
 35 36  2  0
M  END
>  <ID>  (1) 
conformer_0

$$$$
