
     RDKit          3D

 27 29  0  0  0  0  0  0  0  0999 V2000
   -1.6859   14.3887  -28.3237 N   0  0  0  0  0  0  0  0  0  0  0  0
    0.6489   16.8590  -29.1217 C   0  0  0  0  0  0  0  0  0  0  0  0
   -2.1762   16.1556  -26.7539 C   0  0  0  0  0  0  0  0  0  0  0  0
    2.4547   18.2631  -30.1255 F   0  0  0  0  0  0  0  0  0  0  0  0
   -0.0154   18.4856  -21.9269 C   0  0  0  0  0  0  0  0  0  0  0  0
   -1.1979   16.9906  -20.8685 C   0  0  0  0  0  0  0  0  0  0  0  0
   -1.4070   15.6940  -27.8581 C   0  0  0  0  0  0  0  0  0  0  0  0
   -3.1687   10.1258  -26.0306 C   0  0  0  0  0  0  0  0  0  0  0  0
   -2.1282    9.8993  -29.8252 C   0  0  0  0  0  0  0  0  0  0  0  0
   -0.0993   19.0478  -27.5711 C   0  0  0  0  0  0  0  0  0  0  0  0
   -1.6808   17.4442  -26.4607 N   0  0  0  0  0  0  0  0  0  0  0  0
   -1.9690   17.3079  -22.0519 N   0  0  0  0  0  0  0  0  0  0  0  0
   -2.0153   11.5855  -28.1059 C   0  0  0  0  0  0  0  0  0  0  0  0
   -3.2499    9.5097  -27.4220 C   0  0  0  0  0  0  0  0  0  0  0  0
   -1.2560   18.4118  -22.7745 C   0  0  0  0  0  0  0  0  0  0  0  0
   -1.5861   11.2438  -30.4529 C   0  0  0  0  0  0  0  0  0  0  0  0
   -0.4232   16.7254  -28.2368 C   0  0  0  0  0  0  0  0  0  0  0  0
    0.9103   19.1744  -28.5044 C   0  0  0  0  0  0  0  0  0  0  0  0
   -1.2899   13.6265  -29.3511 N   0  0  0  0  0  0  0  0  0  0  0  0
   -0.7270   17.8219  -27.3932 C   0  0  0  0  0  0  0  0  0  0  0  0
   -3.6899   18.8099  -25.2238 Cl  0  0  0  0  0  0  0  0  0  0  0  0
   -4.6897    9.8159  -27.8079 C   0  0  0  0  0  0  0  0  0  0  0  0
    1.2866   18.0668  -29.2425 C   0  0  0  0  0  0  0  0  0  0  0  0
   -1.2968   12.1795  -29.2757 C   0  0  0  0  0  0  0  0  0  0  0  0
   -2.0592   18.1610  -25.2886 C   0  0  0  0  0  0  0  0  0  0  0  0
   -2.2542   10.1177  -28.3405 C   0  0  0  0  0  0  0  0  0  0  0  0
   -1.3086   18.2964  -24.1570 N   0  0  0  0  0  0  0  0  0  0  0  0
  1  7  1  0
  1 19  1  0
  2 17  1  0
  2 23  2  0
  3  7  1  0
  3 11  1  0
  4 23  1  0
  5 15  1  0
  6 12  1  0
  7 17  2  0
  8 14  1  0
  9 16  1  0
  9 26  1  0
 10 18  1  0
 10 20  2  0
 11 20  1  0
 11 25  1  0
 12 15  1  0
 13 24  1  0
 13 26  1  0
 14 22  1  0
 14 26  1  0
 15 27  1  0
 16 24  1  0
 17 20  1  0
 18 23  1  0
 19 24  1  0
 21 25  1  0
 25 27  2  3
M  END
>  <ID>  (1) 
conformer_0

$$$$
