
     RDKit          3D

 31 35  0  0  0  0  0  0  0  0999 V2000
   -2.5172   11.6951  -28.1282 C   0  0  0  0  0  0  0  0  0  0  0  0
   -0.1126   17.3142  -21.9715 C   0  0  0  0  0  0  0  0  0  0  0  0
   -1.8004   18.8639  -23.1052 C   0  0  0  0  0  0  0  0  0  0  0  0
   -0.5714   18.1152  -23.0556 C   0  0  0  0  0  0  0  0  0  0  0  0
   -3.3837   10.8036  -26.9001 S   0  0  0  0  0  0  0  0  0  0  0  0
    0.1642   19.6431  -27.4882 C   0  0  0  0  0  0  0  0  0  0  0  0
    2.4194   17.3938  -29.9709 C   0  0  0  0  0  0  0  0  0  0  0  0
   -3.6719   19.0610  -24.8009 C   0  0  0  0  0  0  0  0  0  0  0  0
   -1.3748   10.8483  -30.3705 C   0  0  0  0  0  0  0  0  0  0  0  0
    1.7259   18.7516  -30.2392 C   0  0  0  0  0  0  0  0  0  0  0  0
   -2.7341   18.7841  -21.9452 C   0  0  0  0  0  0  0  0  0  0  0  0
   -1.7447   13.0014  -28.1205 C   0  0  0  0  0  0  0  0  0  0  0  0
    0.0371   17.0594  -29.1956 C   0  0  0  0  0  0  0  0  0  0  0  0
    1.4247   16.4652  -29.2885 C   0  0  0  0  0  0  0  0  0  0  0  0
    3.2366   16.5198  -30.8958 C   0  0  0  0  0  0  0  0  0  0  0  0
   -2.1918   19.2469  -24.4631 C   0  0  0  0  0  0  0  0  0  0  0  0
   -1.9835   15.4117  -27.6921 O   0  0  0  0  0  0  0  0  0  0  0  0
   -2.7370    9.2705  -28.8354 C   0  0  0  0  0  0  0  0  0  0  0  0
   -1.1889   18.8382  -25.4996 C   0  0  0  0  0  0  0  0  0  0  0  0
    0.9923   19.3334  -28.9413 C   0  0  0  0  0  0  0  0  0  0  0  0
   -1.9726   18.7752  -20.6409 C   0  0  0  0  0  0  0  0  0  0  0  0
   -2.2293   10.6811  -29.1657 C   0  0  0  0  0  0  0  0  0  0  0  0
   -1.0137   16.5407  -21.1378 N   0  0  0  0  0  0  0  0  0  0  0  0
   -1.3369   17.5636  -26.2171 C   0  0  0  0  0  0  0  0  0  0  0  0
   -0.9413   19.9409  -26.5018 C   0  0  0  0  0  0  0  0  0  0  0  0
   -0.9965   16.2705  -28.3742 C   0  0  0  0  0  0  0  0  0  0  0  0
    0.0563   18.3636  -28.3013 C   0  0  0  0  0  0  0  0  0  0  0  0
   -1.0661   17.5869  -27.6843 C   0  0  0  0  0  0  0  0  0  0  0  0
   -2.4166   14.2818  -28.4956 C   0  0  0  0  0  0  0  0  0  0  0  0
   -1.7439   17.3721  -20.1507 C   0  0  0  0  0  0  0  0  0  0  0  0
   -3.1238    9.1711  -27.3673 C   0  0  0  0  0  0  0  0  0  0  0  0
  1  5  1  0
  1 12  1  0
  1 22  2  0
  2  4  1  0
  2 23  1  0
  3  4  2  0
  3 11  1  0
  3 16  1  0
  5 31  1  0
  6 25  1  0
  6 27  1  0
  7 10  1  0
  7 14  1  0
  7 15  1  0
  8 16  1  0
  9 22  1  0
 10 20  1  0
 11 21  1  0
 12 29  1  0
 13 14  1  0
 13 26  1  0
 13 27  1  0
 16 19  1  0
 17 26  1  0
 17 29  1  0
 18 22  1  0
 18 31  1  0
 19 24  1  0
 19 25  1  0
 20 27  1  0
 21 30  1  0
 23 30  1  0
 24 28  1  0
 26 28  1  0
 27 28  1  0
M  END
>  <ID>  (1) 
conformer_0

$$$$
