
     RDKit          3D

 37 41  0  0  0  0  0  0  0  0999 V2000
   -3.0868    8.5128  -27.0402 C   0  0  0  0  0  0  0  0  0  0  0  0
   -2.7289   10.8778  -27.4217 C   0  0  0  0  0  0  0  0  0  0  0  0
    2.8623   17.1873  -29.7853 C   0  0  0  0  0  0  0  0  0  0  0  0
   -2.4204   18.4095  -23.3067 C   0  0  0  0  0  0  0  0  0  0  0  0
   -2.7918    8.7362  -28.4944 C   0  0  0  0  0  0  0  0  0  0  0  0
   -2.1900   18.5580  -20.3620 C   0  0  0  0  0  0  0  0  0  0  0  0
   -2.2913   14.7427  -28.0865 C   0  0  0  0  0  0  0  0  0  0  0  0
   -0.3449   18.4804  -24.5412 C   0  0  0  0  0  0  0  0  0  0  0  0
    0.4429   16.7593  -29.7112 O   0  0  0  0  0  0  0  0  0  0  0  0
   -1.9884   12.4546  -28.9123 C   0  0  0  0  0  0  0  0  0  0  0  0
   -0.7292   17.6717  -26.9179 C   0  0  0  0  0  0  0  0  0  0  0  0
   -2.3539   17.5575  -25.4943 C   0  0  0  0  0  0  0  0  0  0  0  0
   -2.5020   10.1617  -28.6043 C   0  0  0  0  0  0  0  0  0  0  0  0
    1.3892   18.8372  -30.8204 C   0  0  0  0  0  0  0  0  0  0  0  0
    2.8826   16.0472  -30.7184 C   0  0  0  0  0  0  0  0  0  0  0  0
   -1.1286   16.6756  -27.6805 C   0  0  0  0  0  0  0  0  0  0  0  0
   -2.0484   11.0791  -29.5175 C   0  0  0  0  0  0  0  0  0  0  0  0
   -2.4292   12.2164  -27.6563 C   0  0  0  0  0  0  0  0  0  0  0  0
    3.2562   16.6488  -28.5782 F   0  0  0  0  0  0  0  0  0  0  0  0
   -3.0956   18.0581  -24.4135 C   0  0  0  0  0  0  0  0  0  0  0  0
    0.9946   20.0572  -28.4472 C   0  0  0  0  0  0  0  0  0  0  0  0
   -1.6593   13.9330  -29.1379 N   0  0  0  0  0  0  0  0  0  0  0  0
    1.1182   18.5713  -28.4061 C   0  0  0  0  0  0  0  0  0  0  0  0
   -4.4303   18.3070  -24.5970 F   0  0  0  0  0  0  0  0  0  0  0  0
   -2.2116   15.8239  -27.1521 C   0  0  0  0  0  0  0  0  0  0  0  0
   -1.0092   16.2842  -20.7746 C   0  0  0  0  0  0  0  0  0  0  0  0
    3.8630   17.9634  -30.2720 F   0  0  0  0  0  0  0  0  0  0  0  0
   -3.0008   16.5235  -26.2462 O   0  0  0  0  0  0  0  0  0  0  0  0
    1.4251   17.8411  -29.6730 C   0  0  0  0  0  0  0  0  0  0  0  0
   -3.1458    9.9505  -26.4163 C   0  0  0  0  0  0  0  0  0  0  0  0
   -1.0629   17.7546  -20.8291 C   0  0  0  0  0  0  0  0  0  0  0  0
    0.1255   18.1748  -27.6240 N   0  0  0  0  0  0  0  0  0  0  0  0
   -0.5480   16.3359  -28.8537 N   0  0  0  0  0  0  0  0  0  0  0  0
   -1.0341   18.4367  -23.2931 C   0  0  0  0  0  0  0  0  0  0  0  0
   -1.7261   10.7769  -30.7514 F   0  0  0  0  0  0  0  0  0  0  0  0
   -1.0696   17.9800  -25.5858 C   0  0  0  0  0  0  0  0  0  0  0  0
   -0.2671   18.2834  -21.9856 C   0  0  0  0  0  0  0  0  0  0  0  0
  1  5  1  0
  1 30  1  0
  2 13  1  0
  2 18  1  0
  2 30  1  0
  3 15  1  0
  3 19  1  0
  3 27  1  0
  3 29  1  0
  4 20  2  0
  4 34  1  0
  5 13  1  0
  6 31  1  0
  7 22  1  0
  7 25  1  0
  8 34  1  0
  8 36  1  0
  9 29  1  0
  9 33  1  0
 10 17  1  0
 10 18  1  0
 10 22  1  0
 11 16  1  0
 11 32  1  0
 11 36  1  0
 12 20  1  0
 12 28  1  0
 12 36  1  0
 13 17  2  0
 14 29  1  0
 16 25  1  0
 16 33  2  0
 17 35  1  0
 20 24  1  0
 21 23  1  0
 23 29  1  0
 23 32  1  0
 25 28  1  0
 26 31  1  0
 31 37  1  0
 34 37  1  0
M  END
>  <ID>  (1) 
conformer_0

$$$$
