
     RDKit          3D

 28 30  0  0  0  0  0  0  0  0999 V2000
   -2.8689    9.7733  -28.8888 C   0  0  0  0  0  0  0  0  0  0  0  0
   -1.6680    8.9151  -28.4287 C   0  0  0  0  0  0  0  0  0  0  0  0
   -2.4670   10.9291  -29.6862 C   0  0  0  0  0  0  0  0  0  0  0  0
   -1.2132   17.7514  -27.1247 C   0  0  0  0  0  0  0  0  0  0  0  0
   -4.0252    9.8519  -27.8987 C   0  0  0  0  0  0  0  0  0  0  0  0
    1.1226   19.6197  -30.8706 C   0  0  0  0  0  0  0  0  0  0  0  0
    2.7895   17.8730  -30.7705 O   0  0  0  0  0  0  0  0  0  0  0  0
   -1.2528   18.0626  -22.7174 N   0  0  0  0  0  0  0  0  0  0  0  0
    0.3075   19.3300  -28.2091 C   0  0  0  0  0  0  0  0  0  0  0  0
    0.0872   16.8977  -29.0015 C   0  0  0  0  0  0  0  0  0  0  0  0
    1.7499   18.5040  -30.0625 C   0  0  0  0  0  0  0  0  0  0  0  0
   -2.4602   15.9262  -26.4505 N   0  0  0  0  0  0  0  0  0  0  0  0
    0.8699   18.1205  -28.9146 C   0  0  0  0  0  0  0  0  0  0  0  0
   -2.2141   17.2650  -26.1904 C   0  0  0  0  0  0  0  0  0  0  0  0
   -2.0442   14.3418  -28.2834 C   0  0  0  0  0  0  0  0  0  0  0  0
   -0.3837   16.9887  -22.2584 O   0  0  0  0  0  0  0  0  0  0  0  0
   -1.5347   12.0016  -29.1461 C   0  0  0  0  0  0  0  0  0  0  0  0
   -2.1146   18.9696  -23.5925 C   0  0  0  0  0  0  0  0  0  0  0  0
   -1.7432   15.5894  -27.6444 C   0  0  0  0  0  0  0  0  0  0  0  0
   -1.4340   18.8978  -21.3960 C   0  0  0  0  0  0  0  0  0  0  0  0
   -3.3258   18.3131  -24.2023 C   0  0  0  0  0  0  0  0  0  0  0  0
   -2.2698   12.9074  -28.1117 C   0  0  0  0  0  0  0  0  0  0  0  0
   -3.1856   18.2258  -25.6753 C   0  0  0  0  0  0  0  0  0  0  0  0
   -0.9453   16.5980  -20.8909 C   0  0  0  0  0  0  0  0  0  0  0  0
   -1.7755   17.8147  -20.4203 C   0  0  0  0  0  0  0  0  0  0  0  0
    2.9877   16.4291  -30.6969 C   0  0  0  0  0  0  0  0  0  0  0  0
   -0.9380   16.7087  -28.0499 C   0  0  0  0  0  0  0  0  0  0  0  0
   -0.6507   19.0453  -27.1864 C   0  0  0  0  0  0  0  0  0  0  0  0
  1  2  1  0
  1  3  1  0
  1  5  1  0
  3 17  1  0
  4 14  1  0
  4 27  1  0
  4 28  2  0
  6 11  1  0
  7 11  1  0
  7 26  1  0
  8 16  1  0
  8 18  1  0
  8 20  1  0
  9 13  1  0
  9 28  1  0
 10 13  1  0
 10 27  2  0
 11 13  1  0
 12 14  1  0
 12 19  1  0
 14 23  1  0
 15 19  1  0
 15 22  1  0
 16 24  1  0
 17 22  1  0
 18 21  1  0
 19 27  1  0
 20 25  1  0
 21 23  1  0
 24 25  1  0
M  END
>  <ID>  (1) 
conformer_0

$$$$
