
     RDKit          3D

 28 30  0  0  0  0  0  0  0  0999 V2000
   -1.9288   11.3656  -29.8085 C   0  0  0  0  0  0  0  0  0  0  0  0
   -2.3339   19.1217  -23.1624 O   0  0  0  0  0  0  0  0  0  0  0  0
   -2.5846   18.8764  -24.5483 C   0  0  0  0  0  0  0  0  0  0  0  0
   -2.6535   10.3207  -27.8060 C   0  0  0  0  0  0  0  0  0  0  0  0
   -0.8247   18.7826  -26.2556 C   0  0  0  0  0  0  0  0  0  0  0  0
   -1.5046   12.4899  -29.0549 C   0  0  0  0  0  0  0  0  0  0  0  0
   -1.2301   13.6646  -26.7972 O   0  0  0  0  0  0  0  0  0  0  0  0
    0.1185   17.5826  -28.3014 C   0  0  0  0  0  0  0  0  0  0  0  0
   -1.2763   15.1454  -26.8338 C   0  0  0  0  0  0  0  0  0  0  0  0
    2.3782   18.2517  -30.5560 C   0  0  0  0  0  0  0  0  0  0  0  0
   -1.5569   17.8589  -25.1039 C   0  0  0  0  0  0  0  0  0  0  0  0
   -3.9778   18.4756  -24.9495 C   0  0  0  0  0  0  0  0  0  0  0  0
   -3.2653    8.9240  -27.0479 Cl  0  0  0  0  0  0  0  0  0  0  0  0
   -2.5173   10.2902  -29.1781 C   0  0  0  0  0  0  0  0  0  0  0  0
   -0.9845   17.7072  -27.2518 C   0  0  0  0  0  0  0  0  0  0  0  0
   -1.5897   18.0874  -21.1052 C   0  0  0  0  0  0  0  0  0  0  0  0
    2.9964   17.3775  -29.4679 C   0  0  0  0  0  0  0  0  0  0  0  0
   -1.8528   16.7011  -26.3026 C   0  0  0  0  0  0  0  0  0  0  0  0
    2.6002   15.9449  -29.3750 C   0  0  0  0  0  0  0  0  0  0  0  0
   -0.0493   16.1707  -28.9160 C   0  0  0  0  0  0  0  0  0  0  0  0
    2.6980   17.8213  -31.9472 C   0  0  0  0  0  0  0  0  0  0  0  0
   -2.2754   11.4518  -27.0530 C   0  0  0  0  0  0  0  0  0  0  0  0
   -1.2290   18.2757  -22.5355 C   0  0  0  0  0  0  0  0  0  0  0  0
    0.8384   18.8832  -28.6813 C   0  0  0  0  0  0  0  0  0  0  0  0
   -2.9727    9.0864  -29.9581 Cl  0  0  0  0  0  0  0  0  0  0  0  0
    1.1616   19.0440  -30.1663 C   0  0  0  0  0  0  0  0  0  0  0  0
   -1.3399   15.4547  -28.4535 C   0  0  0  0  0  0  0  0  0  0  0  0
   -1.6857   12.5579  -27.6582 C   0  0  0  0  0  0  0  0  0  0  0  0
  1  6  2  0
  1 14  1  0
  2  3  1  0
  2 23  1  0
  3 11  1  0
  3 12  1  0
  4 13  1  0
  4 14  2  0
  4 22  1  0
  5 11  1  0
  5 15  1  0
  6 28  1  0
  7  9  1  0
  7 28  1  0
  8 15  1  0
  8 20  1  0
  8 24  1  0
  9 18  1  0
  9 27  1  0
 10 17  1  0
 10 21  1  0
 10 26  1  0
 11 18  1  0
 14 25  1  0
 15 18  1  0
 16 23  1  0
 17 19  1  0
 20 27  1  0
 22 28  2  0
 24 26  1  0
M  END
>  <ID>  (1) 
conformer_0

$$$$
