
     RDKit          3D

 43 48  0  0  0  0  0  0  0  0999 V2000
    3.9382   18.0520  -30.4346 F   0  0  0  0  0  0  0  0  0  0  0  0
    1.3691   16.0647  -29.3460 O   0  0  0  0  0  0  0  0  0  0  0  0
    0.2989   19.6263  -27.3610 C   0  0  0  0  0  0  0  0  0  0  0  0
   -2.1762   13.8306  -28.4128 C   0  0  0  0  0  0  0  0  0  0  0  0
   -4.8125   10.6490  -26.6608 C   0  0  0  0  0  0  0  0  0  0  0  0
   -5.1159   12.1185  -26.1834 C   0  0  0  0  0  0  0  0  0  0  0  0
   -1.1505    9.2767  -30.3029 N   0  0  0  0  0  0  0  0  0  0  0  0
    2.8300   17.3376  -30.8172 C   0  0  0  0  0  0  0  0  0  0  0  0
    2.3680   17.9896  -31.9681 F   0  0  0  0  0  0  0  0  0  0  0  0
   -2.2912   18.8748  -24.7775 N   0  0  0  0  0  0  0  0  0  0  0  0
   -1.5846   13.3990  -29.6155 C   0  0  0  0  0  0  0  0  0  0  0  0
   -3.6673   16.9520  -25.2660 C   0  0  0  0  0  0  0  0  0  0  0  0
   -1.3925   18.8156  -25.8911 C   0  0  0  0  0  0  0  0  0  0  0  0
   -0.4635   19.7814  -26.2326 C   0  0  0  0  0  0  0  0  0  0  0  0
   -2.7941   11.5534  -27.9549 C   0  0  0  0  0  0  0  0  0  0  0  0
   -2.8435   12.9137  -27.6665 C   0  0  0  0  0  0  0  0  0  0  0  0
    1.5317   19.6039  -29.7998 C   0  0  0  0  0  0  0  0  0  0  0  0
   -1.6496   19.0355  -23.5052 C   0  0  0  0  0  0  0  0  0  0  0  0
   -0.3356   19.5050  -23.5545 O   0  0  0  0  0  0  0  0  0  0  0  0
   -1.0953   16.2327  -28.3863 N   0  0  0  0  0  0  0  0  0  0  0  0
   -1.5259   12.0614  -29.9169 C   0  0  0  0  0  0  0  0  0  0  0  0
    0.3550   18.4821  -21.4983 C   0  0  0  0  0  0  0  0  0  0  0  0
   -2.1080    8.7933  -28.2491 C   0  0  0  0  0  0  0  0  0  0  0  0
   -2.6465   16.8103  -26.3698 C   0  0  0  0  0  0  0  0  0  0  0  0
   -2.0262   11.1233  -29.0495 C   0  0  0  0  0  0  0  0  0  0  0  0
    1.6977   17.2544  -29.7129 C   0  0  0  0  0  0  0  0  0  0  0  0
   -3.6563   18.4536  -24.8721 C   0  0  0  0  0  0  0  0  0  0  0  0
   -2.1232   18.5249  -22.2119 C   0  0  0  0  0  0  0  0  0  0  0  0
   -2.0030   15.2616  -28.0185 C   0  0  0  0  0  0  0  0  0  0  0  0
   -1.7639    9.7156  -29.2213 C   0  0  0  0  0  0  0  0  0  0  0  0
   -0.7618   17.4916  -27.8165 C   0  0  0  0  0  0  0  0  0  0  0  0
    3.3144   16.0798  -31.1706 F   0  0  0  0  0  0  0  0  0  0  0  0
   -1.3599   19.2057  -19.9195 C   0  0  0  0  0  0  0  0  0  0  0  0
    0.2450   18.4952  -28.1664 C   0  0  0  0  0  0  0  0  0  0  0  0
    1.0959   18.3995  -29.2151 N   0  0  0  0  0  0  0  0  0  0  0  0
   -3.4039   10.5372  -27.2327 N   0  0  0  0  0  0  0  0  0  0  0  0
   -1.5765   17.7219  -26.7264 C   0  0  0  0  0  0  0  0  0  0  0  0
   -2.9143   15.6268  -27.0210 O   0  0  0  0  0  0  0  0  0  0  0  0
    0.6959   19.0207  -22.8003 C   0  0  0  0  0  0  0  0  0  0  0  0
   -2.8312    9.2678  -27.1749 C   0  0  0  0  0  0  0  0  0  0  0  0
   -1.2758   16.8472  -20.6512 O   0  0  0  0  0  0  0  0  0  0  0  0
   -1.1052   18.2509  -21.0968 C   0  0  0  0  0  0  0  0  0  0  0  0
   -2.9008    8.6157  -26.0547 F   0  0  0  0  0  0  0  0  0  0  0  0
  1  8  1  0
  2 26  2  0
  3 14  1  0
  3 34  2  0
  4 11  1  0
  4 16  2  0
  4 29  1  0
  5  6  1  0
  5 36  1  0
  7 30  2  0
  8  9  1  0
  8 26  1  0
  8 32  1  0
 10 13  1  0
 10 18  1  0
 10 27  1  0
 11 21  1  0
 12 24  1  0
 12 27  1  0
 13 14  2  0
 13 37  1  0
 15 16  1  0
 15 25  1  0
 15 36  1  0
 17 35  1  0
 18 19  1  0
 18 28  1  0
 19 39  1  0
 20 29  2  0
 20 31  1  0
 21 25  2  0
 22 39  2  0
 22 42  1  0
 23 30  1  0
 23 40  2  0
 24 37  2  0
 24 38  1  0
 25 30  1  0
 26 35  1  0
 28 42  1  0
 29 38  1  0
 31 34  1  0
 31 37  1  0
 33 42  1  0
 34 35  1  0
 36 40  1  0
 40 43  1  0
 41 42  1  0
M  END
>  <ID>  (1) 
conformer_0

$$$$
