
     RDKit          3D

 36 39  0  0  0  0  0  0  0  0999 V2000
   -2.3111   13.4036  -29.6082 N   0  0  0  0  0  0  0  0  0  0  0  0
   -1.0064   17.5594  -22.7160 C   0  0  0  0  0  0  0  0  0  0  0  0
   -2.3841   14.2395  -28.4675 C   0  0  0  0  0  0  0  0  0  0  0  0
   -1.0172   17.2069  -27.1397 C   0  0  0  0  0  0  0  0  0  0  0  0
   -2.0651    9.7175  -29.4254 C   0  0  0  0  0  0  0  0  0  0  0  0
   -4.4750   10.6722  -25.8332 Cl  0  0  0  0  0  0  0  0  0  0  0  0
   -1.3930   18.8071  -25.5320 C   0  0  0  0  0  0  0  0  0  0  0  0
    0.6374   19.9998  -29.7125 O   0  0  0  0  0  0  0  0  0  0  0  0
   -0.2521   18.2839  -27.6663 C   0  0  0  0  0  0  0  0  0  0  0  0
   -0.6626   16.1100  -20.6605 C   0  0  0  0  0  0  0  0  0  0  0  0
   -1.8397   18.2669  -20.7404 O   0  0  0  0  0  0  0  0  0  0  0  0
   -0.0959   14.2394  -28.9238 C   0  0  0  0  0  0  0  0  0  0  0  0
   -2.2078   11.0495  -29.0021 C   0  0  0  0  0  0  0  0  0  0  0  0
   -1.1334   15.0779  -28.4885 C   0  0  0  0  0  0  0  0  0  0  0  0
   -3.2441   14.4991  -27.6570 O   0  0  0  0  0  0  0  0  0  0  0  0
    0.9393   16.5783  -28.8612 C   0  0  0  0  0  0  0  0  0  0  0  0
   -0.5308   19.4285  -26.6645 C   0  0  0  0  0  0  0  0  0  0  0  0
   -2.2712   19.2153  -21.8053 C   0  0  0  0  0  0  0  0  0  0  0  0
   -1.9915   19.3686  -24.2621 C   0  0  0  0  0  0  0  0  0  0  0  0
    3.0215   16.2766  -29.9355 C   0  0  0  0  0  0  0  0  0  0  0  0
    0.0667   11.6112  -30.1879 C   0  0  0  0  0  0  0  0  0  0  0  0
   -1.2632   16.0847  -27.7441 N   0  0  0  0  0  0  0  0  0  0  0  0
   -1.1110   17.2274  -21.3370 C   0  0  0  0  0  0  0  0  0  0  0  0
   -3.5361   10.2783  -27.1660 C   0  0  0  0  0  0  0  0  0  0  0  0
   -2.6586    8.6712  -28.6955 C   0  0  0  0  0  0  0  0  0  0  0  0
    3.2369   17.5047  -30.4426 C   0  0  0  0  0  0  0  0  0  0  0  0
    1.2846   18.8311  -29.5953 C   0  0  0  0  0  0  0  0  0  0  0  0
   -3.3740    8.9522  -27.5340 C   0  0  0  0  0  0  0  0  0  0  0  0
    0.6374   17.8720  -28.7251 C   0  0  0  0  0  0  0  0  0  0  0  0
   -1.6142   17.5047  -25.9012 C   0  0  0  0  0  0  0  0  0  0  0  0
   -2.9636   11.2992  -27.8644 C   0  0  0  0  0  0  0  0  0  0  0  0
    1.9279   15.8282  -29.2984 C   0  0  0  0  0  0  0  0  0  0  0  0
   -1.5328   12.1678  -29.8248 C   0  0  0  0  0  0  0  0  0  0  0  0
    2.4425   18.6050  -30.3238 C   0  0  0  0  0  0  0  0  0  0  0  0
   -2.9957   20.1390  -24.3467 O   0  0  0  0  0  0  0  0  0  0  0  0
   -1.7348   18.7049  -23.0189 C   0  0  0  0  0  0  0  0  0  0  0  0
  1  3  1  0
  1 33  1  0
  2 23  1  0
  2 36  1  0
  3 14  1  0
  3 15  2  0
  4  9  1  0
  4 22  1  0
  4 30  1  0
  5 13  2  0
  5 25  1  0
  6 24  1  0
  7 17  1  0
  7 19  1  0
  7 30  1  0
  8 27  1  0
  9 17  1  0
  9 29  1  0
 10 23  1  0
 11 18  1  0
 11 23  1  0
 12 14  1  0
 13 31  1  0
 13 33  1  0
 14 22  1  0
 16 29  1  0
 16 32  2  0
 18 36  1  0
 19 35  2  0
 19 36  1  0
 20 26  2  0
 20 32  1  0
 21 33  1  0
 24 28  1  0
 24 31  2  0
 25 28  2  0
 26 34  1  0
 27 29  1  0
 27 34  2  0
M  END
>  <ID>  (1) 
conformer_0

$$$$
