
     RDKit          3D

 44 50  0  0  0  0  0  0  0  0999 V2000
   -1.4598   18.7840  -22.2669 C   0  0  0  0  0  0  0  0  0  0  0  0
    2.1020   17.6298  -30.0364 C   0  0  0  0  0  0  0  0  0  0  0  0
   -3.3701    9.8791  -27.4171 C   0  0  0  0  0  0  0  0  0  0  0  0
   -0.6351   12.1957  -29.4375 C   0  0  0  0  0  0  0  0  0  0  0  0
   -1.9533   18.3104  -25.8038 C   0  0  0  0  0  0  0  0  0  0  0  0
   -0.5247   16.6456  -21.4401 C   0  0  0  0  0  0  0  0  0  0  0  0
   -0.8682    9.0129  -28.9294 O   0  0  0  0  0  0  0  0  0  0  0  0
   -0.3661   18.3991  -27.5324 C   0  0  0  0  0  0  0  0  0  0  0  0
   -2.7550   12.2159  -28.3620 C   0  0  0  0  0  0  0  0  0  0  0  0
   -2.5322   10.7788  -28.2593 C   0  0  0  0  0  0  0  0  0  0  0  0
    0.5488   18.7590  -28.5664 C   0  0  0  0  0  0  0  0  0  0  0  0
   -4.6631   10.4340  -26.9227 C   0  0  0  0  0  0  0  0  0  0  0  0
    2.8203   16.4095  -30.4707 C   0  0  0  0  0  0  0  0  0  0  0  0
   -1.1056   19.0964  -26.5850 C   0  0  0  0  0  0  0  0  0  0  0  0
   -3.0041    9.1090  -29.9326 C   0  0  0  0  0  0  0  0  0  0  0  0
   -1.1945   10.8737  -31.4342 O   0  0  0  0  0  0  0  0  0  0  0  0
    1.9251   20.0251  -30.1195 C   0  0  0  0  0  0  0  0  0  0  0  0
    0.6302   12.6094  -29.7289 O   0  0  0  0  0  0  0  0  0  0  0  0
    0.9501   19.9763  -29.0984 C   0  0  0  0  0  0  0  0  0  0  0  0
    0.2098   13.1770  -27.0232 F   0  0  0  0  0  0  0  0  0  0  0  0
   -1.3326   16.2284  -26.8499 C   0  0  0  0  0  0  0  0  0  0  0  0
    0.4847   16.3731  -28.3977 C   0  0  0  0  0  0  0  0  0  0  0  0
   -1.7687   18.1921  -19.8797 C   0  0  0  0  0  0  0  0  0  0  0  0
    2.5012   18.8617  -30.5683 C   0  0  0  0  0  0  0  0  0  0  0  0
   -5.0295   11.8811  -27.1334 C   0  0  0  0  0  0  0  0  0  0  0  0
   -1.5431   14.8591  -27.0849 C   0  0  0  0  0  0  0  0  0  0  0  0
    1.1133   17.5451  -29.1027 C   0  0  0  0  0  0  0  0  0  0  0  0
   -2.2126   19.0374  -20.9744 C   0  0  0  0  0  0  0  0  0  0  0  0
   -3.2620    8.4037  -27.7324 C   0  0  0  0  0  0  0  0  0  0  0  0
   -2.8978   14.6835  -27.1225 O   0  0  0  0  0  0  0  0  0  0  0  0
    0.5528   14.9865  -28.4730 O   0  0  0  0  0  0  0  0  0  0  0  0
   -1.9079    9.9352  -29.3274 C   0  0  0  0  0  0  0  0  0  0  0  0
   -0.5256   14.0663  -27.8456 C   0  0  0  0  0  0  0  0  0  0  0  0
   -2.1015   16.9980  -25.9920 N   0  0  0  0  0  0  0  0  0  0  0  0
   -0.2693   17.8861  -22.2317 C   0  0  0  0  0  0  0  0  0  0  0  0
   -4.2768   12.5667  -28.3130 C   0  0  0  0  0  0  0  0  0  0  0  0
   -2.7544   20.4669  -24.3211 O   0  0  0  0  0  1  0  0  0  0  0  0
   -1.1890   11.0294  -30.0985 C   0  0  0  0  0  0  0  0  0  0  0  0
   -2.3451   18.3847  -23.2613 N   0  0  0  0  0  0  0  0  0  0  0  0
   -0.4261   16.9141  -27.5182 C   0  0  0  0  0  0  0  0  0  0  0  0
   -4.2570   18.6444  -24.7917 O   0  0  0  0  0  1  0  0  0  0  0  0
   -1.3132   16.8465  -20.2104 C   0  0  0  0  0  0  0  0  0  0  0  0
   -1.5100   13.0510  -28.6986 C   0  0  0  0  0  0  0  0  0  0  0  0
   -2.9014   19.0597  -24.4939 S   0  0  0  0  0  4  0  0  0  0  0  0
  1 28  1  0
  1 35  1  0
  1 39  1  0
  2 13  1  0
  2 24  2  0
  2 27  1  0
  3 10  1  0
  3 12  1  0
  3 29  1  0
  4 18  1  0
  4 38  1  0
  4 43  1  0
  5 14  1  0
  5 34  1  0
  5 44  1  0
  6 35  1  0
  6 42  1  0
  7 32  1  0
  8 11  1  0
  8 14  1  0
  8 40  1  0
  9 10  1  0
  9 36  1  0
  9 43  1  0
 10 32  1  0
 11 19  1  0
 11 27  2  0
 12 25  1  0
 15 32  1  0
 16 38  1  0
 17 19  2  0
 17 24  1  0
 20 33  1  0
 21 26  1  0
 21 34  2  0
 21 40  1  0
 22 27  1  0
 22 31  1  0
 22 40  2  0
 23 28  1  0
 23 42  1  0
 25 36  1  0
 26 30  1  0
 26 33  1  0
 31 33  1  0
 32 38  1  0
 33 43  1  0
 37 44  1  0
 39 44  1  0
 41 44  1  0
M  END
>  <ID>  (1) 
conformer_0

$$$$
