
     RDKit          3D

 44 49  0  0  0  0  0  0  0  0999 V2000
   -2.7119   18.1875  -26.3203 C   0  0  0  0  0  0  0  0  0  0  0  0
   -3.5129   18.0488  -23.9917 C   0  0  0  0  0  0  0  0  0  0  0  0
   -3.6353    8.1413  -28.8235 C   0  0  0  0  0  0  0  0  0  0  0  0
    1.9863   19.7573  -29.0672 C   0  0  0  0  0  0  0  0  0  0  0  0
   -1.1824   16.8842  -21.0432 C   0  0  0  0  0  0  0  0  0  0  0  0
   -2.0614   17.7732  -23.7882 N   0  0  0  0  0  0  0  0  0  0  0  0
   -4.7903    9.6557  -27.3238 O   0  0  0  0  0  0  0  0  0  0  0  0
   -3.8149   18.6741  -25.3502 C   0  0  0  0  0  0  0  0  0  0  0  0
   -2.4542    8.9950  -26.8351 C   0  0  0  0  0  0  0  0  0  0  0  0
   -1.8641   12.1564  -31.1208 O   0  0  0  0  0  0  0  0  0  0  0  0
   -1.6556   17.7109  -19.8044 C   0  0  0  0  0  0  0  0  0  0  0  0
    0.4495   18.9345  -21.4544 C   0  0  0  0  0  0  0  0  0  0  0  0
    0.0108   19.4148  -27.6516 C   0  0  0  0  0  0  0  0  0  0  0  0
   -2.0401   11.8376  -28.7498 C   0  0  0  0  0  0  0  0  0  0  0  0
   -0.1118   18.1247  -28.1263 C   0  0  0  0  0  0  0  0  0  0  0  0
   -1.4517    9.2727  -27.9482 C   0  0  0  0  0  0  0  0  0  0  0  0
   -3.8324    8.4740  -27.2998 C   0  0  0  0  0  0  0  0  0  0  0  0
   -2.7249   16.7789  -25.9937 N   0  0  0  0  0  0  0  0  0  0  0  0
   -2.6653   15.4116  -27.4828 C   0  0  0  0  0  0  0  0  0  0  0  0
   -1.0428   10.9626  -31.2803 C   0  0  0  0  0  0  0  0  0  0  0  0
   -0.7954   19.0112  -22.2695 C   0  0  0  0  0  0  0  0  0  0  0  0
   -1.1123    9.9389  -30.2124 C   0  0  0  0  0  0  0  0  0  0  0  0
    1.0586   20.2059  -28.1189 C   0  0  0  0  0  0  0  0  0  0  0  0
   -0.9737   20.0020  -26.7312 C   0  0  0  0  0  0  0  0  0  0  0  0
    2.6441   17.9972  -30.7435 C   0  0  0  0  0  0  0  0  0  0  0  0
    1.7376   18.4849  -29.6214 C   0  0  0  0  0  0  0  0  0  0  0  0
    3.1979   15.6951  -31.4908 C   0  0  0  0  0  0  0  0  0  0  0  0
    0.1257   19.4308  -20.0093 C   0  0  0  0  0  0  0  0  0  0  0  0
   -1.3890   19.2313  -19.7834 C   0  0  0  0  0  0  0  0  0  0  0  0
    0.7072   17.6604  -29.1328 C   0  0  0  0  0  0  0  0  0  0  0  0
   -1.5582   18.9989  -25.9041 C   0  0  0  0  0  0  0  0  0  0  0  0
    3.4323   16.7843  -30.4544 C   0  0  0  0  0  0  0  0  0  0  0  0
   -1.6199   17.6684  -22.3639 C   0  0  0  0  0  0  0  0  0  0  0  0
    3.1747   16.2124  -29.0390 C   0  0  0  0  0  0  0  0  0  0  0  0
   -3.3712    9.5596  -29.4499 C   0  0  0  0  0  0  0  0  0  0  0  0
   -1.2639   18.8463  -24.4845 C   0  0  0  0  0  0  0  0  0  0  0  0
   -2.0612   12.6037  -29.8595 C   0  0  0  0  0  0  0  0  0  0  0  0
   -1.8677   15.8373  -26.3802 O   0  0  0  0  0  0  0  0  0  0  0  0
   -2.3298   14.1797  -28.1724 C   0  0  0  0  0  0  0  0  0  0  0  0
    2.2447   18.4007  -31.9565 O   0  0  0  0  0  0  0  0  0  0  0  0
   -2.2940   14.0536  -29.5377 C   0  0  0  0  0  0  0  0  0  0  0  0
   -2.1109   12.8681  -27.6527 C   0  0  0  0  0  0  0  0  0  0  0  0
   -0.9916   21.4238  -26.4670 C   0  0  0  0  0  0  0  0  0  0  0  0
   -2.0398   10.2601  -29.0165 C   0  0  0  0  0  0  0  0  0  0  0  0
  1  8  1  0
  1 18  1  0
  1 31  1  0
  2  6  1  0
  2  8  1  0
  3 17  1  0
  3 35  1  0
  4 23  2  0
  4 26  1  0
  5 11  1  0
  5 33  1  0
  6 33  1  0
  6 36  1  0
  7 17  1  0
  9 16  1  0
  9 17  1  0
 10 20  1  0
 10 37  1  0
 11 29  1  0
 12 21  1  0
 12 28  1  0
 13 15  2  0
 13 23  1  0
 13 24  1  0
 14 37  2  0
 14 42  1  0
 14 44  1  0
 15 30  1  0
 16 44  1  0
 18 38  1  0
 19 38  1  0
 19 39  1  0
 20 22  2  0
 21 33  1  0
 22 44  1  0
 24 31  1  0
 24 43  1  0
 25 26  1  0
 25 32  1  0
 25 40  1  0
 26 30  2  0
 27 32  1  0
 28 29  1  0
 31 36  1  0
 32 34  1  0
 35 44  1  0
 37 41  1  0
 39 41  1  0
 39 42  1  0
M  END
>  <ID>  (1) 
conformer_0

$$$$
