
     RDKit          3D

 33 36  0  0  0  0  0  0  0  0999 V2000
   -0.5253   18.9458  -20.6961 F   0  0  0  0  0  0  0  0  0  0  0  0
   -2.4836    8.5396  -28.6822 C   0  0  0  0  0  0  0  0  0  0  0  0
   -1.5232   18.1732  -22.7440 C   0  0  0  0  0  0  0  0  0  0  0  0
   -1.7845    9.3178  -29.5762 C   0  0  0  0  0  0  0  0  0  0  0  0
   -2.5739   18.2744  -20.5087 F   0  0  0  0  0  0  0  0  0  0  0  0
   -0.4647   17.6331  -27.9677 C   0  0  0  0  0  0  0  0  0  0  0  0
    2.2885   17.3641  -30.2256 C   0  0  0  0  0  0  0  0  0  0  0  0
   -1.6854   13.9810  -28.3919 C   0  0  0  0  0  0  0  0  0  0  0  0
    1.8372   18.5999  -30.7942 C   0  0  0  0  0  0  0  0  0  0  0  0
   -1.8041   17.3034  -24.9935 C   0  0  0  0  0  0  0  0  0  0  0  0
   -2.1150   11.6896  -28.7830 C   0  0  0  0  0  0  0  0  0  0  0  0
   -1.9787   16.0608  -27.2932 N   0  0  0  0  0  0  0  0  0  0  0  0
   -0.9884   16.7632  -20.8330 F   0  0  0  0  0  0  0  0  0  0  0  0
   -0.9976   16.4694  -28.2463 O   0  0  0  0  0  0  0  0  0  0  0  0
    0.9099   17.6748  -29.9908 N   0  0  0  0  0  0  0  0  0  0  0  0
   -1.4386   18.0346  -21.1955 C   0  0  0  0  0  0  0  0  0  0  0  0
   -1.2665   18.4870  -25.5157 C   0  0  0  0  0  0  0  0  0  0  0  0
   -1.7714   17.1211  -23.6335 C   0  0  0  0  0  0  0  0  0  0  0  0
   -2.7515   14.9407  -27.8932 C   0  0  0  0  0  0  0  0  0  0  0  0
   -2.7565   11.4595  -27.5746 C   0  0  0  0  0  0  0  0  0  0  0  0
   -2.0250   13.0471  -29.2929 O   0  0  0  0  0  0  0  0  0  0  0  0
   -1.3258   19.4233  -23.2810 C   0  0  0  0  0  0  0  0  0  0  0  0
    0.7957   19.5347  -28.3647 C   0  0  0  0  0  0  0  0  0  0  0  0
   -0.5289   11.1640  -30.7066 C   0  0  0  0  0  0  0  0  0  0  0  0
   -3.6264   16.1980  -25.7438 O   0  0  0  0  0  0  0  0  0  0  0  0
    0.0086   19.7538  -27.1742 C   0  0  0  0  0  0  0  0  0  0  0  0
   -2.4246   16.4386  -26.0180 C   0  0  0  0  0  0  0  0  0  0  0  0
   -3.1769   10.2804  -27.0616 C   0  0  0  0  0  0  0  0  0  0  0  0
    0.5439   18.2106  -28.8241 C   0  0  0  0  0  0  0  0  0  0  0  0
   -0.7450   18.5377  -26.8940 C   0  0  0  0  0  0  0  0  0  0  0  0
   -1.5639   10.6615  -29.5961 C   0  0  0  0  0  0  0  0  0  0  0  0
   -1.1927   19.5725  -24.6685 C   0  0  0  0  0  0  0  0  0  0  0  0
   -3.0878    8.9835  -27.5181 C   0  0  0  0  0  0  0  0  0  0  0  0
  1 16  1  0
  2  4  1  0
  2 33  2  0
  3 16  1  0
  3 18  2  0
  3 22  1  0
  4 31  2  0
  5 16  1  0
  6 14  1  0
  6 29  2  0
  6 30  1  0
  7  9  1  0
  7 15  1  0
  8 19  1  0
  8 21  1  0
 10 17  1  0
 10 18  1  0
 10 27  1  0
 11 20  1  0
 11 21  1  0
 11 31  1  0
 12 14  1  0
 12 19  1  0
 12 27  1  0
 13 16  1  0
 15 29  1  0
 17 30  2  0
 17 32  1  0
 20 28  2  0
 22 32  2  0
 23 26  1  0
 23 29  1  0
 24 31  1  0
 25 27  2  0
 26 30  1  0
 28 33  1  0
M  END
>  <ID>  (1) 
conformer_0

$$$$
