
     RDKit          3D

 28 29  0  0  0  0  0  0  0  0999 V2000
    0.1876   18.5942  -22.1784 C   0  0  0  0  0  0  0  0  0  0  0  0
   -3.1141   18.6681  -24.5987 C   0  0  0  0  0  0  0  0  0  0  0  0
   -2.4990   13.4303  -27.7159 O   0  0  0  0  0  0  0  0  0  0  0  0
   -2.0574   10.4889  -30.0150 C   0  0  0  0  0  0  0  0  0  0  0  0
   -2.4608   16.0978  -27.0856 C   0  0  0  0  0  0  0  0  0  0  0  0
   -2.0216   18.1974  -20.8328 C   0  0  0  0  0  0  0  0  0  0  0  0
    2.4854   16.9636  -29.2299 C   0  0  0  0  0  0  0  0  0  0  0  0
    2.9634   16.4657  -30.7108 C   0  0  0  0  0  0  0  0  0  0  0  0
    1.1072   18.8362  -30.0300 C   0  0  0  0  0  0  0  0  0  0  0  0
   -1.6769   15.6084  -28.1160 C   0  0  0  0  0  0  0  0  0  0  0  0
   -1.2629   18.1971  -26.7406 C   0  0  0  0  0  0  0  0  0  0  0  0
   -0.0643   17.1118  -21.8878 C   0  0  0  0  0  0  0  0  0  0  0  0
   -2.0243   17.8922  -23.7694 C   0  0  0  0  0  0  0  0  0  0  0  0
   -2.4785    9.7627  -27.7926 C   0  0  0  0  0  0  0  0  0  0  0  0
   -2.4124   18.2464  -22.3334 C   0  0  0  0  0  0  0  0  0  0  0  0
   -2.3545   12.1317  -28.2227 C   0  0  0  0  0  0  0  0  0  0  0  0
    0.0944   17.2634  -28.5476 C   0  0  0  0  0  0  0  0  0  0  0  0
   -3.5415   17.9154  -25.8100 C   0  0  0  0  0  0  0  0  0  0  0  0
   -2.3421   17.3873  -26.5809 C   0  0  0  0  0  0  0  0  0  0  0  0
   -0.2245   18.2061  -27.5667 C   0  0  0  0  0  0  0  0  0  0  0  0
   -0.6123   16.1416  -28.7169 C   0  0  0  0  0  0  0  0  0  0  0  0
    1.1650   17.5244  -29.4197 N   0  0  0  0  0  0  0  0  0  0  0  0
   -2.1396   14.3592  -28.7467 C   0  0  0  0  0  0  0  0  0  0  0  0
   -2.6710    8.6702  -26.8221 C   0  0  0  0  0  0  0  0  0  0  0  0
   -2.0709   11.8663  -29.5824 C   0  0  0  0  0  0  0  0  0  0  0  0
   -2.2534    9.4600  -29.1143 C   0  0  0  0  0  0  0  0  0  0  0  0
   -1.0934   16.9335  -20.7314 C   0  0  0  0  0  0  0  0  0  0  0  0
   -2.5184   11.0890  -27.3392 C   0  0  0  0  0  0  0  0  0  0  0  0
  1 12  1  0
  2 13  1  0
  2 18  1  0
  3 16  1  0
  3 23  1  0
  4 25  2  0
  4 26  1  0
  5 10  2  0
  5 19  1  0
  6 15  1  0
  6 27  1  0
  7  8  1  0
  7 22  1  0
  9 22  1  0
 10 21  1  0
 10 23  1  0
 11 19  1  0
 11 20  2  0
 12 27  1  0
 13 15  1  0
 14 24  1  0
 14 26  2  0
 14 28  1  0
 16 25  1  0
 16 28  2  0
 17 20  1  0
 17 21  2  0
 17 22  1  0
 18 19  1  0
M  END
>  <ID>  (1) 
conformer_0

$$$$
