
     RDKit          3D

 39 42  0  0  0  0  0  0  0  0999 V2000
    2.7373   18.0884  -30.8200 C   0  0  0  0  0  0  0  0  0  0  0  0
    2.5084   18.5988  -31.9813 O   0  0  0  0  0  0  0  0  0  0  0  0
   -0.2294   16.5102  -20.4070 F   0  0  0  0  0  0  0  0  0  0  0  0
    1.5127   18.1438  -29.8696 C   0  0  0  0  0  0  0  0  0  0  0  0
    0.5003   19.6248  -25.4009 O   0  0  0  0  0  0  0  0  0  0  0  0
   -1.9936   19.0972  -26.1976 C   0  0  0  0  0  0  0  0  0  0  0  0
    0.1835   19.0352  -23.1772 C   0  0  0  0  0  0  0  0  0  0  0  0
   -1.6522   18.8234  -24.7555 C   0  0  0  0  0  0  0  0  0  0  0  0
   -0.3510   18.4362  -22.1272 C   0  0  0  0  0  0  0  0  0  0  0  0
    3.0580   15.6983  -31.0111 C   0  0  0  0  0  0  0  0  0  0  0  0
    1.2041   19.3558  -29.2866 C   0  0  0  0  0  0  0  0  0  0  0  0
   -0.1571   17.0613  -28.7174 C   0  0  0  0  0  0  0  0  0  0  0  0
   -1.5011   17.7616  -21.8931 C   0  0  0  0  0  0  0  0  0  0  0  0
   -2.9810    8.8997  -28.0540 C   0  0  0  0  0  0  0  0  0  0  0  0
   -2.4572   10.9631  -29.2717 C   0  0  0  0  0  0  0  0  0  0  0  0
   -2.0926   13.0471  -28.4938 C   0  0  0  0  0  0  0  0  0  0  0  0
   -2.1346   11.7414  -30.3191 N   0  0  0  0  0  0  0  0  0  0  0  0
    3.6825   17.0483  -30.5306 C   0  0  0  0  0  0  0  0  0  0  0  0
   -2.8205    9.6651  -26.8715 C   0  0  0  0  0  0  0  0  0  0  0  0
   -1.9794   15.8738  -26.4553 O   0  0  0  0  0  0  0  0  0  0  0  0
   -0.3170   19.1349  -24.4256 C   0  0  0  0  0  0  0  0  0  0  0  0
   -3.9329   18.4802  -24.5366 F   0  0  0  0  0  0  0  0  0  0  0  0
   -2.1816   14.0889  -27.6943 N   0  0  0  0  0  0  0  0  0  0  0  0
   -2.2399   15.8347  -20.7426 F   0  0  0  0  0  0  0  0  0  0  0  0
   -1.8829   17.6896  -19.6180 F   0  0  0  0  0  0  0  0  0  0  0  0
   -0.9536   15.9315  -28.5102 N   0  0  0  0  0  0  0  0  0  0  0  0
   -1.1852   18.2410  -26.8433 N   0  0  0  0  0  0  0  0  0  0  0  0
    0.7782   17.0401  -29.6194 N   0  0  0  0  0  0  0  0  0  0  0  0
   -1.4821   16.9377  -20.6407 C   0  0  0  0  0  0  0  0  0  0  0  0
   -3.0383    8.9636  -30.4413 O   0  0  0  0  0  0  0  0  0  0  0  0
   -2.6594   18.3703  -23.9171 C   0  0  0  0  0  0  0  0  0  0  0  0
   -1.7425   15.3929  -27.5540 C   0  0  0  0  0  0  0  0  0  0  0  0
    0.2604   19.3988  -28.2985 N   0  0  0  0  0  0  0  0  0  0  0  0
   -2.3793   11.7262  -28.0806 C   0  0  0  0  0  0  0  0  0  0  0  0
   -2.8246    9.5859  -29.2652 C   0  0  0  0  0  0  0  0  0  0  0  0
   -2.5415   11.0436  -26.8767 C   0  0  0  0  0  0  0  0  0  0  0  0
   -1.8582   13.0715  -29.8192 N   0  0  0  0  0  0  0  0  0  0  0  0
   -0.3529   18.2600  -27.9567 C   0  0  0  0  0  0  0  0  0  0  0  0
   -2.6380   17.8183  -22.6907 C   0  0  0  0  0  0  0  0  0  0  0  0
  1  2  1  0
  1  4  1  0
  1 18  1  0
  3 29  1  0
  4 11  2  0
  4 28  1  0
  5 21  1  0
  6  8  1  0
  6 27  1  0
  7  9  2  0
  7 21  1  0
  8 21  2  0
  8 31  1  0
  9 13  1  0
 10 18  1  0
 11 33  1  0
 12 26  1  0
 12 28  2  0
 12 38  1  0
 13 29  1  0
 13 39  1  0
 14 19  2  0
 14 35  1  0
 15 17  1  0
 15 34  1  0
 15 35  2  0
 16 23  2  3
 16 34  1  0
 16 37  1  0
 17 37  1  0
 19 36  1  0
 20 32  2  0
 22 31  1  0
 23 32  1  0
 24 29  1  0
 25 29  1  0
 26 32  1  0
 27 38  1  0
 30 35  1  0
 31 39  2  0
 33 38  2  0
 34 36  2  0
M  END
>  <ID>  (1) 
conformer_0

$$$$
