
     RDKit          3D

 31 32  0  0  0  0  0  0  0  0999 V2000
    0.5691   19.2969  -28.0606 C   0  0  0  0  0  0  0  0  0  0  0  0
   -1.7294   15.0793  -28.6738 N   0  0  0  0  0  0  0  0  0  0  0  0
   -0.1221   11.7405  -31.0515 C   0  0  0  0  0  0  0  0  0  0  0  0
    1.8617   18.2225  -29.9730 C   0  0  0  0  0  0  0  0  0  0  0  0
   -1.6821   12.2485  -29.1921 C   0  0  0  0  0  3  0  0  0  0  0  0
   -0.3409   19.2134  -27.0211 C   0  0  0  0  0  0  0  0  0  0  0  0
   -0.0397   17.0936  -28.8101 C   0  0  0  0  0  0  0  0  0  0  0  0
   -1.7083   15.9733  -27.7783 C   0  0  0  0  0  0  0  0  0  0  0  0
   -1.0862   11.3598  -29.9863 C   0  0  0  0  0  0  0  0  0  0  0  0
   -1.2494    9.9725  -29.8866 C   0  0  0  0  0  0  0  0  0  0  0  0
   -1.3239   19.0939  -20.8482 C   0  0  0  0  0  0  0  0  0  0  0  0
   -3.2737    9.8070  -26.5932 C   0  0  0  0  0  0  0  0  0  0  0  0
   -2.6271   17.8588  -22.4258 O   0  0  0  0  0  0  0  0  0  0  0  0
   -1.9651    9.5005  -28.8005 C   0  0  0  0  0  0  0  0  0  0  0  0
   -2.4342   11.7504  -28.0819 C   0  0  0  0  0  0  0  0  0  0  0  0
    0.7590   18.2105  -28.9375 C   0  0  0  0  0  0  0  0  0  0  0  0
   -2.8787    8.3480  -26.5187 C   0  0  0  0  0  0  0  0  0  0  0  0
   -0.6831   18.9335  -23.3841 C   0  0  0  0  0  0  0  0  0  0  0  0
   -0.4100   17.0889  -21.7528 C   0  0  0  0  0  0  0  0  0  0  0  0
   -2.5303   10.4289  -27.8572 C   0  0  0  0  0  0  0  0  0  0  0  0
   -1.0728   18.0527  -26.8090 C   0  0  0  0  0  0  0  0  0  0  0  0
    2.9221   17.3297  -29.6371 N   0  0  0  0  0  0  0  0  0  0  0  0
   -2.6633   10.4378  -25.4430 O   0  0  0  0  0  0  0  0  0  0  0  0
   -1.9064   17.9880  -25.5587 C   0  0  0  0  0  0  0  0  0  0  0  0
   -1.3107   18.2768  -22.1376 C   0  0  0  0  0  0  0  0  0  0  0  0
   -2.3761   14.0739  -28.0897 C   0  0  0  0  0  0  0  0  0  0  0  0
   -2.3321   12.8203  -28.3041 C   0  0  0  0  0  0  0  0  0  0  0  0
    1.7092   18.8241  -31.0767 O   0  0  0  0  0  0  0  0  0  0  0  0
   -1.6519   19.1144  -24.5496 C   0  0  0  0  0  0  0  0  0  0  0  0
   -4.7224   10.3229  -26.8069 C   0  0  0  0  0  0  0  0  0  0  0  0
   -0.9372   17.0473  -27.7884 C   0  0  0  0  0  0  0  0  0  0  0  0
  1  6  1  0
  1 16  1  0
  2  8  1  0
  2 26  1  0
  3  9  1  0
  4 16  1  0
  4 22  1  0
  4 28  2  0
  5  9  2  0
  5 27  1  0
  6 21  2  0
  7 16  2  0
  7 31  1  0
  8 31  2  3
  9 10  1  0
 10 14  2  0
 11 25  1  0
 12 17  1  0
 12 20  1  0
 12 23  1  0
 12 30  1  0
 13 25  1  0
 14 20  1  0
 15 20  2  0
 15 27  2  0
 18 25  1  0
 18 29  1  0
 19 25  1  0
 21 24  1  0
 21 31  1  0
 24 29  1  0
 26 27  1  0
M  END
>  <ID>  (1) 
conformer_0

$$$$
