
     RDKit          3D

 36 40  0  0  0  0  0  0  0  0999 V2000
   -0.9412   17.5376  -27.2570 C   0  0  0  0  0  0  0  0  0  0  0  0
    1.0165   18.7544  -31.3988 O   0  0  0  0  0  0  0  0  0  0  0  0
   -1.2501   19.3841  -25.7718 C   0  0  0  0  0  0  0  0  0  0  0  0
   -1.4883   17.4770  -22.3948 N   0  0  0  0  0  0  0  0  0  0  0  0
   -2.1963   12.6348  -28.6492 C   0  0  0  0  0  0  0  0  0  0  0  0
   -1.2265   17.2809  -21.0477 C   0  0  0  0  0  0  0  0  0  0  0  0
    2.3905   16.1620  -31.3537 C   0  0  0  0  0  0  0  0  0  0  0  0
   -4.6368   10.3826  -26.4840 C   0  0  0  0  0  0  0  0  0  0  0  0
   -2.4344   17.3864  -25.3611 C   0  0  0  0  0  0  0  0  0  0  0  0
   -0.6679   18.8514  -26.9052 C   0  0  0  0  0  0  0  0  0  0  0  0
   -2.1559   18.6557  -22.5705 C   0  0  0  0  0  0  0  0  0  0  0  0
   -2.0208    8.5330  -29.2192 F   0  0  0  0  0  0  0  0  0  0  0  0
   -1.6863   18.3446  -20.3899 C   0  0  0  0  0  0  0  0  0  0  0  0
    1.1106   18.8385  -29.0535 C   0  0  0  0  0  0  0  0  0  0  0  0
   -1.3420   12.1233  -29.6217 C   0  0  0  0  0  0  0  0  0  0  0  0
    3.2343   19.0557  -30.4676 C   0  0  0  0  0  0  0  0  0  0  0  0
   -2.2912   15.6568  -26.9301 N   0  0  0  0  0  0  0  0  0  0  0  0
   -1.7868   15.1179  -28.0181 C   0  0  0  0  0  0  0  0  0  0  0  0
   -3.8290    9.5481  -27.3615 O   0  0  0  0  0  0  0  0  0  0  0  0
   -1.8976   16.8386  -26.5448 C   0  0  0  0  0  0  0  0  0  0  0  0
   -1.2993   10.7408  -29.8084 C   0  0  0  0  0  0  0  0  0  0  0  0
    0.9209   17.3616  -28.8593 C   0  0  0  0  0  0  0  0  0  0  0  0
   -2.4827   13.9993  -28.6371 C   0  0  0  0  0  0  0  0  0  0  0  0
   -2.5725   19.2408  -23.7466 N   0  0  0  0  0  0  0  0  0  0  0  0
    3.9235   17.7580  -30.3875 C   0  0  0  0  0  0  0  0  0  0  0  0
   -2.3856   19.3121  -21.3429 O   0  0  0  0  0  0  0  0  0  0  0  0
   -0.2796   16.8586  -28.2550 N   0  0  0  0  0  0  0  0  0  0  0  0
   -2.8942   11.7784  -27.8438 N   0  0  0  0  0  0  0  0  0  0  0  0
   -2.0668   18.6284  -24.9858 C   0  0  0  0  0  0  0  0  0  0  0  0
    2.1922   16.6334  -28.9521 C   0  0  0  0  0  0  0  0  0  0  0  0
   -0.6533   16.0774  -20.6136 C   0  0  0  0  0  0  0  0  0  0  0  0
   -2.9127   10.4208  -28.0763 C   0  0  0  0  0  0  0  0  0  0  0  0
   -2.0647    9.8983  -29.0478 C   0  0  0  0  0  0  0  0  0  0  0  0
    1.8049   19.0130  -30.4148 C   0  0  0  0  0  0  0  0  0  0  0  0
   -0.7309   15.6622  -28.6648 C   0  0  0  0  0  0  0  0  0  0  0  0
    3.0545   16.6047  -30.1428 C   0  0  0  0  0  0  0  0  0  0  0  0
  1 10  1  0
  1 20  1  0
  1 27  1  0
  2 34  1  0
  3 10  2  0
  3 29  1  0
  4  6  1  0
  4 11  1  0
  5 15  1  0
  5 23  1  0
  5 28  2  0
  6 13  1  0
  6 31  1  0
  7 36  1  0
  8 19  1  0
  9 20  1  0
  9 29  2  0
 11 24  2  3
 11 26  1  0
 12 33  1  0
 13 26  1  0
 14 22  1  0
 14 34  1  0
 15 21  1  0
 16 25  2  0
 16 34  1  0
 17 18  1  0
 17 20  2  0
 18 23  1  0
 18 35  2  0
 19 32  1  0
 21 33  2  0
 22 27  1  0
 22 30  1  0
 24 29  1  0
 25 36  1  0
 27 35  1  0
 28 32  1  0
 30 36  1  0
 32 33  1  0
M  END
>  <ID>  (1) 
conformer_0

$$$$
