
     RDKit          3D

 41 44  0  0  0  0  0  0  0  0999 V2000
    2.0266   17.0814  -30.2714 C   0  0  0  0  0  0  0  0  0  0  0  0
   -3.2071   14.8832  -28.3959 O   0  0  0  0  0  0  0  0  0  0  0  0
   -1.9128   12.2930  -28.4906 N   0  0  0  0  0  0  0  0  0  0  0  0
    0.9936   19.1703  -29.1410 C   0  0  0  0  0  0  0  0  0  0  0  0
    1.9481   18.7383  -30.5714 S   0  0  0  0  0  4  0  0  0  0  0  0
   -3.2428   20.2293  -24.3223 F   0  0  0  0  0  0  0  0  0  0  0  0
   -2.3720   17.2390  -25.4163 C   0  0  0  0  0  0  0  0  0  0  0  0
   -1.0223   15.7495  -28.4166 N   0  0  0  0  0  0  0  0  0  0  0  0
   -0.2857   18.9281  -26.6457 C   0  0  0  0  0  0  0  0  0  0  0  0
   -2.7474   10.8602  -26.7225 C   0  0  0  0  0  0  0  0  0  0  0  0
   -1.4899   18.2188  -20.7831 C   0  0  0  0  0  0  0  0  0  0  0  0
    0.4128   17.9517  -28.7271 N   0  0  0  0  0  0  0  0  0  0  0  0
   -0.9853   15.9543  -21.1968 O   0  0  0  0  0  0  0  0  0  0  0  0
   -1.3581   10.4949  -30.9209 C   0  0  0  0  0  0  0  0  0  0  0  0
   -2.7202   19.0738  -23.7686 C   0  0  0  0  0  0  0  0  0  0  0  0
    3.3559   16.6369  -29.8722 C   0  0  0  0  0  0  0  0  0  0  0  0
   -1.6552   13.3490  -27.4893 C   0  0  0  0  0  0  0  0  0  0  0  0
   -0.3493   17.9266  -27.5800 C   0  0  0  0  0  0  0  0  0  0  0  0
   -1.4116   18.2224  -22.2852 C   0  0  0  0  0  0  0  0  0  0  0  0
   -2.8096    8.5569  -28.2732 C   0  0  0  0  0  0  0  0  0  0  0  0
   -2.8712   18.3888  -20.5247 F   0  0  0  0  0  0  0  0  0  0  0  0
   -0.8941   19.4078  -20.3831 F   0  0  0  0  0  0  0  0  0  0  0  0
   -3.2459    8.5042  -26.9835 C   0  0  0  0  0  0  0  0  0  0  0  0
   -0.1893   17.9376  -22.8172 C   0  0  0  0  0  0  0  0  0  0  0  0
   -2.0471   16.5687  -26.4907 C   0  0  0  0  0  0  0  0  0  0  0  0
   -0.9049   19.1426  -25.4816 C   0  0  0  0  0  0  0  0  0  0  0  0
   -2.2958    9.8046  -28.7991 C   0  0  0  0  0  0  0  0  0  0  0  0
   -2.0342   19.4788  -22.6489 O   0  0  0  0  0  0  0  0  0  0  0  0
   -1.9548   14.6998  -28.1744 C   0  0  0  0  0  0  0  0  0  0  0  0
   -1.1477   16.7606  -27.4790 C   0  0  0  0  0  0  0  0  0  0  0  0
   -1.6067   12.6048  -29.7889 C   0  0  0  0  0  0  0  0  0  0  0  0
   -1.9256   18.3988  -24.8869 C   0  0  0  0  0  0  0  0  0  0  0  0
    3.2196   19.2742  -30.7168 O   0  0  0  0  0  1  0  0  0  0  0  0
   -1.7851    9.5455  -30.0691 C   0  0  0  0  0  0  0  0  0  0  0  0
   -1.3453   11.8097  -30.7883 C   0  0  0  0  0  0  0  0  0  0  0  0
   -3.1798    9.6414  -26.2330 C   0  0  0  0  0  0  0  0  0  0  0  0
    1.0044   16.7870  -29.3069 C   0  0  0  0  0  0  0  0  0  0  0  0
   -3.7740   18.2838  -23.3299 F   0  0  0  0  0  0  0  0  0  0  0  0
   -1.0074   16.9627  -20.2397 C   0  0  0  0  0  0  0  0  0  0  0  0
    1.0500   18.9759  -31.6202 O   0  0  0  0  0  1  0  0  0  0  0  0
   -2.3003   10.9990  -28.0411 C   0  0  0  0  0  0  0  0  0  0  0  0
  1  5  1  0
  1 16  1  0
  1 37  1  0
  2 29  2  0
  3 17  1  0
  3 31  1  0
  3 41  1  0
  4  5  1  0
  4 12  1  0
  5 33  1  0
  5 40  1  0
  6 15  1  0
  7 25  2  0
  7 32  1  0
  8 29  1  0
  8 30  1  0
  9 18  1  0
  9 26  2  0
 10 36  2  0
 10 41  1  0
 11 19  1  0
 11 21  1  0
 11 22  1  0
 11 39  1  0
 12 18  1  0
 12 37  1  0
 13 39  1  0
 14 34  2  0
 14 35  1  0
 15 28  1  0
 15 32  1  0
 15 38  1  0
 17 29  1  0
 18 30  2  0
 19 24  1  0
 19 28  1  0
 20 23  2  0
 20 27  1  0
 23 36  1  0
 25 30  1  0
 26 32  1  0
 27 34  1  0
 27 41  2  0
 31 35  2  0
M  END
>  <ID>  (1) 
conformer_0

$$$$
