
     RDKit          3D

 33 36  0  0  0  0  0  0  0  0999 V2000
    0.5331   17.5369  -29.8109 O   0  0  0  0  0  0  0  0  0  0  0  0
   -2.0138   17.7342  -26.2469 C   0  0  0  0  0  0  0  0  0  0  0  0
    0.4352   17.9120  -21.7255 N   0  0  0  0  0  0  0  0  0  0  0  0
   -0.1669   19.1450  -26.5399 C   0  0  0  0  0  0  0  0  0  0  0  0
   -2.2667   18.5133  -23.2159 C   0  0  0  0  0  0  0  0  0  0  0  0
   -1.6083   12.1183  -29.1985 C   0  0  0  0  0  0  0  0  0  0  0  0
   -1.2473   10.8863  -29.7625 C   0  0  0  0  0  0  0  0  0  0  0  0
   -1.1356   18.6757  -25.7389 C   0  0  0  0  0  0  0  0  0  0  0  0
    1.7881   17.9278  -30.1392 C   0  0  0  0  0  0  0  0  0  0  0  0
   -2.6930    9.6836  -28.2796 C   0  0  0  0  0  0  0  0  0  0  0  0
   -4.1983   10.8892  -26.7041 C   0  0  0  0  0  0  0  0  0  0  0  0
    0.2184   18.7326  -27.7729 C   0  0  0  0  0  0  0  0  0  0  0  0
   -0.0514   19.4564  -23.6693 C   0  0  0  0  0  0  0  0  0  0  0  0
   -0.1067   17.6592  -28.6048 C   0  0  0  0  0  0  0  0  0  0  0  0
    2.9144   17.0071  -29.7383 C   0  0  0  0  0  0  0  0  0  0  0  0
    1.1150   19.5911  -28.2002 O   0  0  0  0  0  0  0  0  0  0  0  0
   -0.9611   16.1625  -20.8687 N   0  0  0  0  0  0  0  0  0  0  0  0
    0.4964   19.0706  -22.4351 C   0  0  0  0  0  0  0  0  0  0  0  0
   -3.1272   10.9243  -27.7382 C   0  0  0  0  0  0  0  0  0  0  0  0
   -2.5513   12.1591  -28.1728 C   0  0  0  0  0  0  0  0  0  0  0  0
   -0.7958   17.3616  -21.4199 C   0  0  0  0  0  0  0  0  0  0  0  0
   -1.2965   15.3600  -28.9582 C   0  0  0  0  0  0  0  0  0  0  0  0
   -2.6830   15.5682  -26.9505 C   0  0  0  0  0  0  0  0  0  0  0  0
   -2.1950   19.3192  -20.7516 C   0  0  0  0  0  0  0  0  0  0  0  0
   -1.8746   16.7662  -27.1816 C   0  0  0  0  0  0  0  0  0  0  0  0
   -1.0579   16.6752  -28.2801 C   0  0  0  0  0  0  0  0  0  0  0  0
   -2.2363   14.5910  -27.9676 C   0  0  0  0  0  0  0  0  0  0  0  0
   -1.9058   18.2982  -21.7882 C   0  0  0  0  0  0  0  0  0  0  0  0
    2.1381   18.7701  -31.2790 C   0  0  0  0  0  0  0  0  0  0  0  0
   -1.3170   19.0444  -24.2928 C   0  0  0  0  0  0  0  0  0  0  0  0
   -2.9276   13.3681  -27.5824 O   0  0  0  0  0  0  0  0  0  0  0  0
   -3.3621   17.6985  -25.6291 C   0  0  0  0  0  0  0  0  0  0  0  0
   -1.7662    9.6827  -29.2912 C   0  0  0  0  0  0  0  0  0  0  0  0
  1  9  1  0
  1 14  1  0
  2  8  1  0
  2 25  1  0
  2 32  1  0
  3 18  1  0
  3 21  1  0
  4  8  1  0
  4 12  2  0
  5 28  1  0
  5 30  1  0
  6  7  2  0
  6 20  1  0
  7 33  1  0
  8 30  1  0
  9 15  1  0
  9 29  1  0
 10 19  1  0
 10 33  2  0
 11 19  1  0
 12 14  1  0
 12 16  1  0
 13 18  1  0
 13 30  1  0
 14 26  1  0
 17 21  2  0
 19 20  2  0
 20 31  1  0
 21 28  1  0
 22 26  1  0
 22 27  1  0
 23 25  1  0
 23 27  1  0
 24 28  1  0
 25 26  2  0
 27 31  1  0
M  END
>  <ID>  (1) 
conformer_0

$$$$
