
     RDKit          3D

 33 36  0  0  0  0  0  0  0  0999 V2000
   -1.8360   16.7375  -26.4988 C   0  0  0  0  0  0  0  0  0  0  0  0
   -1.9320   18.5637  -23.3483 C   0  0  0  0  0  0  0  0  0  0  0  0
   -2.4122   13.6010  -28.6662 C   0  0  0  0  0  0  0  0  0  0  0  0
    1.5795   16.1944  -29.5071 O   0  0  0  0  0  0  0  0  0  0  0  0
   -1.1886   18.5215  -20.6357 C   0  0  0  0  0  0  0  0  0  0  0  0
   -2.5258   12.1693  -28.4241 C   0  0  0  0  0  0  0  0  0  0  0  0
   -0.3636   16.7251  -28.4334 C   0  0  0  0  0  0  0  0  0  0  0  0
    0.7582   17.4473  -29.1319 C   0  0  0  0  0  0  0  0  0  0  0  0
   -0.1791   18.6673  -27.0957 C   0  0  0  0  0  0  0  0  0  0  0  0
   -3.4288   11.6078  -27.4718 C   0  0  0  0  0  0  0  0  0  0  0  0
    2.8743   17.9349  -30.2300 C   0  0  0  0  0  0  0  0  0  0  0  0
   -1.8284   11.1505  -29.1701 C   0  0  0  0  0  0  0  0  0  0  0  0
    0.8583   19.2163  -30.7204 O   0  0  0  0  0  0  0  0  0  0  0  0
   -2.2843   17.2290  -25.2275 C   0  0  0  0  0  0  0  0  0  0  0  0
   -0.8257   16.1961  -21.0025 O   0  0  0  0  0  0  0  0  0  0  0  0
   -1.8749   14.9128  -28.0791 C   0  0  0  0  0  0  0  0  0  0  0  0
   -1.9958    9.7633  -29.0086 C   0  0  0  0  0  0  0  0  0  0  0  0
   -3.6633   10.2092  -27.3560 C   0  0  0  0  0  0  0  0  0  0  0  0
   -2.1857   19.6180  -22.7713 O   0  0  0  0  0  0  0  0  0  0  0  0
   -1.1539   17.4792  -22.9581 N   0  0  0  0  0  0  0  0  0  0  0  0
   -1.1946    8.8290  -29.7700 C   0  0  0  0  0  0  0  0  0  0  0  0
   -2.9465    9.2799  -28.1287 C   0  0  0  0  0  0  0  0  0  0  0  0
    0.8034   18.8296  -28.3172 C   0  0  0  0  0  0  0  0  0  0  0  0
    2.9778   16.6457  -29.3724 C   0  0  0  0  0  0  0  0  0  0  0  0
   -2.4631   18.4803  -24.7701 C   0  0  0  0  0  0  0  0  0  0  0  0
    1.5045   18.5507  -29.7469 C   0  0  0  0  0  0  0  0  0  0  0  0
   -0.8502   17.3615  -27.3054 C   0  0  0  0  0  0  0  0  0  0  0  0
   -0.8321   17.4141  -21.5357 C   0  0  0  0  0  0  0  0  0  0  0  0
   -0.8930   15.5315  -28.8298 C   0  0  0  0  0  0  0  0  0  0  0  0
   -0.6205   11.6442  -30.4184 Cl  0  0  0  0  0  0  0  0  0  0  0  0
   -2.6780   13.8707  -30.0087 O   0  0  0  0  0  0  0  0  0  0  0  0
   -2.3639   15.5129  -26.9317 C   0  0  0  0  0  0  0  0  0  0  0  0
   -3.7412   19.2520  -24.8635 C   0  0  0  0  0  0  0  0  0  0  0  0
  1 14  1  0
  1 27  2  0
  1 32  1  0
  2 19  2  0
  2 20  1  0
  2 25  1  0
  3  6  1  0
  3 16  1  0
  3 31  1  0
  4  8  1  0
  4 24  1  0
  5 28  1  0
  6 10  2  0
  6 12  1  0
  7  8  1  0
  7 27  1  0
  7 29  2  0
  8 23  1  0
  8 26  1  0
  9 23  1  0
  9 27  1  0
 10 18  1  0
 11 24  1  0
 11 26  1  0
 12 17  2  0
 12 30  1  0
 13 26  1  0
 14 25  1  0
 15 28  2  0
 16 29  1  0
 16 32  2  0
 17 21  1  0
 17 22  1  0
 18 22  2  0
 20 28  1  0
 25 33  1  0
M  END
>  <ID>  (1) 
conformer_0

$$$$
