
     RDKit          3D

 31 34  0  0  0  0  0  0  0  0999 V2000
   -3.5815   10.2222  -27.2797 C   0  0  0  0  0  0  0  0  0  0  0  0
   -1.7050   18.6304  -22.0054 C   0  0  0  0  0  0  0  0  0  0  0  0
   -2.8277   11.3357  -27.9271 C   0  0  0  0  0  0  0  0  0  0  0  0
   -1.0755   19.2508  -26.0400 C   0  0  0  0  0  0  0  0  0  0  0  0
   -2.0179   14.8202  -28.1525 C   0  0  0  0  0  0  0  0  0  0  0  0
    2.5033   17.4621  -30.2764 C   0  0  0  0  0  0  0  0  0  0  0  0
   -1.0350   16.8565  -27.4608 C   0  0  0  0  0  0  0  0  0  0  0  0
    0.5830   19.2803  -29.6595 C   0  0  0  0  0  0  0  0  0  0  0  0
   -2.0231    9.9706  -29.8022 N   0  0  0  0  0  0  0  0  0  0  0  0
   -2.9028    8.8813  -29.4498 C   0  0  0  0  0  0  0  0  0  0  0  0
   -0.2726   17.9982  -27.8779 C   0  0  0  0  0  0  0  0  0  0  0  0
   -0.9875   15.6685  -28.2694 N   0  0  0  0  0  0  0  0  0  0  0  0
   -3.1116   15.1826  -27.6472 O   0  0  0  0  0  0  0  0  0  0  0  0
    2.3432   18.5928  -31.0410 N   0  0  0  0  0  0  0  0  0  0  0  0
    1.6576   17.1935  -29.2290 C   0  0  0  0  0  0  0  0  0  0  0  0
   -1.6866   18.1091  -25.5813 C   0  0  0  0  0  0  0  0  0  0  0  0
   -2.1406   11.1976  -29.0712 C   0  0  0  0  0  0  0  0  0  0  0  0
    1.3643   19.4982  -30.7072 C   0  0  0  0  0  0  0  0  0  0  0  0
   -1.0951   17.6709  -21.2613 C   0  0  0  0  0  0  0  0  0  0  0  0
   -2.0603   13.3587  -28.3700 C   0  0  0  0  0  0  0  0  0  0  0  0
   -0.5449   16.5930  -21.4573 N   0  0  0  0  0  0  0  0  0  0  0  0
   -2.3642   18.2239  -24.3553 C   0  0  0  0  0  0  0  0  0  0  0  0
   -0.8424    9.9342  -30.6497 C   0  0  0  0  0  0  0  0  0  0  0  0
   -3.4119    8.8819  -27.9819 C   0  0  0  0  0  0  0  0  0  0  0  0
   -1.6086   12.5188  -29.3647 C   0  0  0  0  0  0  0  0  0  0  0  0
   -0.4114   19.1870  -27.1338 C   0  0  0  0  0  0  0  0  0  0  0  0
   -1.5028   18.6369  -20.8294 C   0  0  0  0  0  0  0  0  0  0  0  0
   -2.7679   12.6145  -27.4722 N   0  0  0  0  0  0  0  0  0  0  0  0
   -1.7218   16.9547  -26.2885 N   0  0  0  0  0  0  0  0  0  0  0  0
    0.6613   18.0983  -28.9511 C   0  0  0  0  0  0  0  0  0  0  0  0
   -2.0463   18.7499  -23.2069 C   0  0  0  0  0  0  0  0  0  0  0  0
  1  3  1  0
  1 24  1  0
  2 27  1  0
  2 31  1  0
  3 17  2  0
  3 28  1  0
  4 16  2  0
  4 26  1  0
  5 12  1  0
  5 13  2  0
  5 20  1  0
  6 14  2  0
  6 15  1  0
  7 11  1  0
  7 12  1  0
  7 29  2  0
  8 18  2  0
  8 30  1  0
  9 10  1  0
  9 17  1  0
  9 23  1  0
 10 24  1  0
 11 26  2  0
 11 30  1  0
 14 18  1  0
 15 30  2  0
 16 22  1  0
 16 29  1  0
 17 25  1  0
 19 21  3  0
 19 27  1  0
 20 25  1  0
 20 28  1  0
 22 31  1  0
M  END
>  <ID>  (1) 
conformer_0

$$$$
