
     RDKit          3D

 41 46  0  0  0  0  0  0  0  0999 V2000
   -1.6067   13.6640  -28.6007 C   0  0  0  0  0  0  0  0  0  0  0  0
   -0.1272   15.7146  -28.3576 C   0  0  0  0  0  0  0  0  0  0  0  0
   -1.4482   16.9649  -20.8414 C   0  0  0  0  0  0  0  0  0  0  0  0
    2.0737   18.1037  -30.1337 C   0  0  0  0  0  0  0  0  0  0  0  0
   -2.3100   19.5661  -20.5250 C   0  0  0  0  0  0  0  0  0  0  0  0
   -1.8476   18.2961  -23.2364 N   0  0  0  0  0  0  0  0  0  0  0  0
    3.3332   16.1807  -30.8702 C   0  0  0  0  0  0  0  0  0  0  0  0
   -0.5188   10.6404  -30.9571 C   0  0  0  0  0  0  0  0  0  0  0  0
   -0.9614   20.1902  -26.7491 O   0  0  0  0  0  0  0  0  0  0  0  0
   -2.1481   16.4050  -26.7216 C   0  0  0  0  0  0  0  0  0  0  0  0
   -3.8522   17.4421  -24.7029 C   0  0  0  0  0  0  0  0  0  0  0  0
   -2.5196   18.0650  -20.9227 C   0  0  0  0  0  0  0  0  0  0  0  0
   -3.4344   19.8351  -24.1146 C   0  0  0  0  0  0  0  0  0  0  0  0
    0.2918   18.7477  -21.6271 C   0  0  0  0  0  0  0  0  0  0  0  0
   -2.7156   11.6058  -28.1247 C   0  0  0  0  0  0  0  0  0  0  0  0
   -2.5479    9.6695  -29.9241 C   0  0  0  0  0  0  0  0  0  0  0  0
   -1.1169   18.9796  -26.6692 C   0  0  0  0  0  0  0  0  0  0  0  0
   -2.7164   14.0727  -28.3100 O   0  0  0  0  0  0  0  0  0  0  0  0
   -0.4628   14.3489  -28.4125 N   0  0  0  0  0  0  0  0  0  0  0  0
   -4.1952   18.5809  -23.4496 C   0  0  0  0  0  0  0  0  0  0  0  0
   -0.4585   16.2111  -21.4583 O   0  0  0  0  0  0  0  0  0  0  0  0
   -1.9930   19.2479  -24.3577 C   0  0  0  0  0  0  0  0  0  0  0  0
   -1.2810   10.5020  -29.6232 C   0  0  0  0  0  0  0  0  0  0  0  0
   -1.6626   12.0386  -29.1475 C   0  0  0  0  0  0  0  0  0  0  0  0
    1.1584   17.4505  -29.3243 C   0  0  0  0  0  0  0  0  0  0  0  0
   -2.7715   17.3647  -25.8087 C   0  0  0  0  0  0  0  0  0  0  0  0
   -0.4548   18.4045  -22.7797 C   0  0  0  0  0  0  0  0  0  0  0  0
   -2.5146    9.7949  -26.4167 C   0  0  0  0  0  0  0  0  0  0  0  0
   -4.5752   10.6642  -26.9075 C   0  0  0  0  0  0  0  0  0  0  0  0
   -3.2264   10.4112  -27.5745 C   0  0  0  0  0  0  0  0  0  0  0  0
    0.4238   19.0143  -20.4590 O   0  0  0  0  0  0  0  0  0  0  0  0
    1.8311   19.4863  -30.0341 C   0  0  0  0  0  0  0  0  0  0  0  0
   -3.1533   18.1504  -22.3421 C   0  0  0  0  0  0  0  0  0  0  0  0
    0.7347   19.6836  -29.0094 O   0  0  0  0  0  0  0  0  0  0  0  0
   -0.5235   17.9995  -27.6571 C   0  0  0  0  0  0  0  0  0  0  0  0
    0.3989   18.3996  -28.6094 C   0  0  0  0  0  0  0  0  0  0  0  0
    3.1290   17.5961  -30.8994 O   0  0  0  0  0  0  0  0  0  0  0  0
   -1.8456   18.4920  -25.5928 N   0  0  0  0  0  0  0  0  0  0  0  0
   -0.9122   16.6583  -27.5716 C   0  0  0  0  0  0  0  0  0  0  0  0
   -3.3923    9.3602  -28.7233 C   0  0  0  0  0  0  0  0  0  0  0  0
    0.9062   16.1405  -29.1301 C   0  0  0  0  0  0  0  0  0  0  0  0
  1 18  2  0
  1 19  1  0
  1 24  1  0
  2 19  1  0
  2 39  1  0
  2 41  2  0
  3 12  1  0
  3 21  1  0
  4 25  1  0
  4 32  1  0
  4 37  1  0
  5 12  1  0
  6 22  1  0
  6 27  1  0
  6 33  1  0
  7 37  1  0
  8 23  1  0
  9 17  2  0
 10 26  2  0
 10 39  1  0
 11 20  1  0
 11 26  1  0
 12 33  1  0
 13 20  1  0
 13 22  1  0
 14 27  1  0
 14 31  2  0
 15 24  2  0
 15 30  1  0
 16 23  1  0
 16 40  1  0
 17 35  1  0
 17 38  1  0
 20 33  1  0
 22 38  1  0
 23 24  1  0
 25 36  2  0
 25 41  1  0
 26 38  1  0
 28 30  1  0
 29 30  1  0
 30 40  1  0
 32 34  1  0
 34 36  1  0
 35 36  1  0
 35 39  2  0
M  END
>  <ID>  (1) 
conformer_0

$$$$
