
     RDKit          3D

 36 40  0  0  0  0  0  0  0  0999 V2000
   -1.4831   18.3094  -21.0819 C   0  0  0  0  0  0  0  0  0  0  0  0
    2.1691   18.4585  -31.7178 O   0  0  0  0  0  0  0  0  0  0  0  0
   -1.5056   13.0915  -29.8141 N   0  0  0  0  0  0  0  0  0  0  0  0
   -1.3508   11.7145  -30.0757 C   0  0  0  0  0  0  0  0  0  0  0  0
   -0.5840   17.3526  -27.5680 C   0  0  0  0  0  0  0  0  0  0  0  0
   -3.3757   19.8877  -24.2516 Cl  0  0  0  0  0  0  0  0  0  0  0  0
    0.6929   20.3070  -30.4592 O   0  0  0  0  0  0  0  0  0  0  0  0
   -0.8887   18.1430  -26.4250 C   0  0  0  0  0  0  0  0  0  0  0  0
   -0.5625   19.4594  -26.4194 N   0  0  0  0  0  0  0  0  0  0  0  0
   -3.3775    8.9046  -29.4694 C   0  0  0  0  0  0  0  0  0  0  0  0
    2.4807   17.1568  -29.6609 C   0  0  0  0  0  0  0  0  0  0  0  0
   -1.5325   17.6436  -25.2052 N   0  0  0  0  0  0  0  0  0  0  0  0
   -1.4758   17.8933  -23.8572 C   0  0  0  0  0  0  0  0  0  0  0  0
   -2.8193    9.9515  -27.1904 C   0  0  0  0  0  0  0  0  0  0  0  0
   -1.9695    9.2479  -29.3932 C   0  0  0  0  0  0  0  0  0  0  0  0
    0.2114   19.9312  -27.4411 C   0  0  0  0  0  0  0  0  0  0  0  0
   -2.7893    8.7320  -28.1037 C   0  0  0  0  0  0  0  0  0  0  0  0
   -0.6450   17.1200  -23.0554 C   0  0  0  0  0  0  0  0  0  0  0  0
   -2.3239   18.8692  -23.2059 C   0  0  0  0  0  0  0  0  0  0  0  0
    1.1494   16.8187  -29.1605 O   0  0  0  0  0  0  0  0  0  0  0  0
   -4.0712   10.3626  -26.3825 C   0  0  0  0  0  0  0  0  0  0  0  0
   -2.5811   12.4873  -27.7882 C   0  0  0  0  0  0  0  0  0  0  0  0
   -2.2609   15.5784  -27.5442 C   0  0  0  0  0  0  0  0  0  0  0  0
    0.4402   17.7733  -28.4180 C   0  0  0  0  0  0  0  0  0  0  0  0
   -2.3673   19.1170  -21.8674 C   0  0  0  0  0  0  0  0  0  0  0  0
   -2.6599   14.6841  -28.4869 O   0  0  0  0  0  0  0  0  0  0  0  0
    1.6083   19.6332  -29.5843 C   0  0  0  0  0  0  0  0  0  0  0  0
   -0.6284   17.4070  -21.6624 C   0  0  0  0  0  0  0  0  0  0  0  0
   -2.4365   11.1581  -28.0725 C   0  0  0  0  0  0  0  0  0  0  0  0
   -2.8878   15.7792  -26.4516 O   0  0  0  0  0  0  0  0  0  0  0  0
    2.9966   16.0692  -30.6026 C   0  0  0  0  0  0  0  0  0  0  0  0
   -2.1944   13.4065  -28.7015 C   0  0  0  0  0  0  0  0  0  0  0  0
   -1.8659   10.7502  -29.2341 C   0  0  0  0  0  0  0  0  0  0  0  0
   -1.2667   16.2600  -27.9710 C   0  0  0  0  0  0  0  0  0  0  0  0
    0.7436   19.1139  -28.4566 C   0  0  0  0  0  0  0  0  0  0  0  0
    2.4364   18.5868  -30.3195 C   0  0  0  0  0  0  0  0  0  0  0  0
  1 25  1  0
  1 28  2  0
  2 36  1  0
  3  4  2  0
  3 32  1  0
  4 33  1  0
  5  8  1  0
  5 24  1  0
  5 34  2  3
  6 19  1  0
  7 27  1  0
  8  9  2  0
  8 12  1  0
  9 16  1  0
 10 15  1  0
 10 17  1  0
 11 20  1  0
 11 31  1  0
 11 36  1  0
 12 13  1  0
 13 18  1  0
 13 19  2  0
 14 17  1  0
 14 21  1  0
 14 29  1  0
 15 33  1  0
 16 35  2  0
 18 28  1  0
 19 25  1  0
 20 24  1  0
 22 29  1  0
 22 32  2  0
 23 26  1  0
 23 30  2  0
 23 34  1  0
 24 35  1  0
 26 32  1  0
 27 35  1  0
 27 36  1  0
 29 33  2  0
M  END
>  <ID>  (1) 
conformer_0

$$$$
