
     RDKit          3D

 23 24  0  0  0  0  0  0  0  0999 V2000
   -2.4206   18.4535  -24.3627 C   0  0  0  0  0  0  0  0  0  0  0  0
    1.5203   18.2553  -29.3350 C   0  0  0  0  0  0  0  0  0  0  0  0
   -2.3144   13.7734  -27.7537 O   0  0  0  0  0  0  0  0  0  0  0  0
    0.5370   17.2456  -29.5273 O   0  0  0  0  0  0  0  0  0  0  0  0
   -1.4737   18.3725  -21.9703 C   0  0  0  0  0  0  0  0  0  0  0  0
   -0.3650   17.3021  -21.8343 C   0  0  0  0  0  0  0  0  0  0  0  0
   -1.8026   15.1631  -27.6568 C   0  0  0  0  0  0  0  0  0  0  0  0
   -3.4252   10.5598  -26.5514 C   0  0  0  0  0  0  0  0  0  0  0  0
   -1.4334   17.1264  -26.3155 C   0  0  0  0  0  0  0  0  0  0  0  0
    0.8127   19.6459  -29.2379 C   0  0  0  0  0  0  0  0  0  0  0  0
   -0.3507   16.8830  -28.4787 C   0  0  0  0  0  0  0  0  0  0  0  0
   -1.2397    9.9490  -29.5571 C   0  0  0  0  0  0  0  0  0  0  0  0
   -2.0373   12.4195  -28.2230 C   0  0  0  0  0  0  0  0  0  0  0  0
   -2.1292   15.9291  -26.5375 C   0  0  0  0  0  0  0  0  0  0  0  0
   -4.8696   10.8850  -26.8304 N   0  0  0  0  0  0  0  0  0  0  0  0
   -1.4754   17.7873  -25.0646 O   0  0  0  0  0  0  0  0  0  0  0  0
   -2.1502    9.8578  -28.5272 C   0  0  0  0  0  0  0  0  0  0  0  0
   -0.5945   17.6321  -27.2967 C   0  0  0  0  0  0  0  0  0  0  0  0
   -2.5250   17.9425  -22.9431 O   0  0  0  0  0  0  0  0  0  0  0  0
   -2.5565   10.9775  -27.7921 C   0  0  0  0  0  0  0  0  0  0  0  0
   -1.1087   12.3761  -29.2613 C   0  0  0  0  0  0  0  0  0  0  0  0
   -0.9882   15.6648  -28.6703 C   0  0  0  0  0  0  0  0  0  0  0  0
   -0.7096   11.2170  -29.8957 C   0  0  0  0  0  0  0  0  0  0  0  0
  1 16  1  0
  1 19  1  0
  2  4  1  0
  2 10  1  0
  3  7  1  0
  3 13  1  0
  4 11  1  0
  5  6  1  0
  5 19  1  0
  7 14  1  0
  7 22  2  0
  8 15  1  0
  8 20  1  0
  9 14  2  0
  9 16  1  0
  9 18  1  0
 11 18  2  0
 11 22  1  0
 12 17  2  0
 12 23  1  0
 13 20  2  0
 13 21  1  0
 17 20  1  0
 21 23  2  0
M  END
>  <ID>  (1) 
conformer_0

$$$$
