
     RDKit          3D

 34 38  0  0  0  0  0  0  0  0999 V2000
   -3.1050    9.2360  -26.9757 C   0  0  0  0  0  0  0  0  0  0  0  0
   -2.3641   14.4487  -28.5824 C   0  0  0  0  0  0  0  0  0  0  0  0
    1.8108   19.0341  -30.5745 C   0  0  0  0  0  0  0  0  0  0  0  0
    1.2112   15.4494  -29.2009 C   0  0  0  0  0  0  0  0  0  0  0  0
    2.3514   18.5469  -28.2785 C   0  0  0  0  0  0  0  0  0  0  0  0
    0.9349   18.7110  -27.8687 C   0  0  0  0  0  0  0  0  0  0  0  0
    0.8419   16.8982  -29.5267 C   0  0  0  0  0  0  0  0  0  0  0  0
   -2.7612   11.5033  -28.0832 C   0  0  0  0  0  0  0  0  0  0  0  0
   -2.8413   18.9715  -24.4997 C   0  0  0  0  0  0  0  0  0  0  0  0
   -1.0176   17.8594  -21.3609 C   0  0  0  0  0  0  0  0  0  0  0  0
    0.0781   19.3908  -26.9195 C   0  0  0  0  0  0  0  0  0  0  0  0
   -2.2133   12.9364  -28.6138 C   0  0  0  0  0  0  0  0  0  0  0  0
   -3.8287   10.6236  -27.2611 C   0  0  0  0  0  0  0  0  0  0  0  0
   -2.3332    8.9803  -28.2346 C   0  0  0  0  0  0  0  0  0  0  0  0
   -3.0169   16.8069  -25.8851 C   0  0  0  0  0  0  0  0  0  0  0  0
   -1.0512   18.4333  -26.5856 C   0  0  0  0  0  0  0  0  0  0  0  0
   -2.2823   17.9732  -22.2687 C   0  0  0  0  0  0  0  0  0  0  0  0
   -1.0473   17.2751  -27.5419 C   0  0  0  0  0  0  0  0  0  0  0  0
   -2.7869   15.0313  -27.3691 O   0  0  0  0  0  0  0  0  0  0  0  0
   -1.9251   19.1647  -25.6312 C   0  0  0  0  0  0  0  0  0  0  0  0
   -0.7050   11.7762  -30.4126 C   0  0  0  0  0  0  0  0  0  0  0  0
    0.2166   18.2093  -22.1560 C   0  0  0  0  0  0  0  0  0  0  0  0
   -1.9145   12.6861  -30.1516 C   0  0  0  0  0  0  0  0  0  0  0  0
   -1.1927   18.7968  -20.3295 O   0  0  0  0  0  0  0  0  0  0  0  0
    3.2340   16.9113  -30.3477 C   0  0  0  0  0  0  0  0  0  0  0  0
   -2.1072   16.2956  -27.0567 C   0  0  0  0  0  0  0  0  0  0  0  0
    2.1675   17.8174  -29.6567 C   0  0  0  0  0  0  0  0  0  0  0  0
   -0.9068   16.5018  -20.9231 O   0  0  0  0  0  0  0  0  0  0  0  0
   -2.0755   19.1669  -23.1829 C   0  0  0  0  0  0  0  0  0  0  0  0
    0.3501   19.5177  -30.3891 C   0  0  0  0  0  0  0  0  0  0  0  0
   -0.8914   10.3967  -29.7816 C   0  0  0  0  0  0  0  0  0  0  0  0
    0.0749   17.5851  -28.4656 C   0  0  0  0  0  0  0  0  0  0  0  0
   -3.5033   17.5538  -24.6236 C   0  0  0  0  0  0  0  0  0  0  0  0
   -2.0009   10.3723  -28.7600 C   0  0  0  0  0  0  0  0  0  0  0  0
  1 13  1  0
  1 14  1  0
  2 12  1  0
  2 19  1  0
  3 27  1  0
  3 30  1  0
  4  7  1  0
  5  6  1  0
  5 27  1  0
  6 11  1  0
  6 32  1  0
  7 27  1  0
  7 32  1  0
  8 12  1  0
  8 13  1  0
  8 34  2  0
  9 20  1  0
  9 29  1  0
  9 33  1  0
 10 17  1  0
 10 22  1  0
 10 24  1  0
 10 28  1  0
 11 16  1  0
 12 23  1  0
 14 34  1  0
 15 26  1  0
 15 33  1  0
 16 18  1  0
 16 20  1  0
 17 29  1  0
 18 26  2  0
 18 32  1  0
 19 26  1  0
 21 23  1  0
 21 31  1  0
 25 27  1  0
 31 34  1  0
M  END
>  <ID>  (1) 
conformer_0

$$$$
