
     RDKit          3D

 36 39  0  0  0  0  0  0  0  0999 V2000
   -4.1910   10.5719  -25.6610 O   0  0  0  0  0  0  0  0  0  0  0  0
    3.1626   17.3550  -30.4989 C   0  0  0  0  0  0  0  0  0  0  0  0
   -0.3027   19.4995  -26.8557 C   0  0  0  0  0  0  0  0  0  0  0  0
   -1.9220   10.3507  -26.9796 O   0  0  0  0  0  0  0  0  0  0  0  0
   -0.4127   11.2046  -31.2742 C   0  0  0  0  0  0  0  0  0  0  0  0
   -3.0148   10.1737  -27.8336 C   0  0  0  0  0  0  0  0  0  0  0  0
   -0.1290   16.2060  -28.6776 N   0  0  0  0  0  0  0  0  0  0  0  0
   -3.6694   18.5197  -25.6069 C   0  0  0  0  0  0  0  0  0  0  0  0
   -2.7296   10.7275  -29.2520 C   0  0  0  0  0  0  0  0  0  0  0  0
   -2.9650   13.3372  -27.7974 O   0  0  0  0  0  0  0  0  0  0  0  0
   -0.0708   17.0655  -22.2277 C   0  0  0  0  0  0  0  0  0  0  0  0
   -4.3639   10.4606  -27.1382 C   0  0  0  0  0  0  0  0  0  0  0  0
    1.4970   17.9880  -28.8701 C   0  0  0  0  0  0  0  0  0  0  0  0
   -1.9607   13.1929  -28.4907 C   0  0  0  0  0  0  0  0  0  0  0  0
    2.1794   18.3522  -31.0360 O   0  0  0  0  0  0  0  0  0  0  0  0
   -1.7221   18.6974  -21.6533 C   0  0  0  0  0  0  0  0  0  0  0  0
   -1.1003   14.2506  -28.5900 N   0  0  0  0  0  0  0  0  0  0  0  0
   -0.2764   11.6724  -29.8212 C   0  0  0  0  0  0  0  0  0  0  0  0
    2.4725   16.9014  -29.2234 C   0  0  0  0  0  0  0  0  0  0  0  0
   -1.8018   16.0492  -27.0386 N   0  0  0  0  0  0  0  0  0  0  0  0
   -1.5694   17.3346  -26.6491 C   0  0  0  0  0  0  0  0  0  0  0  0
   -0.1989   18.6155  -22.1606 C   0  0  0  0  0  0  0  0  0  0  0  0
   -2.3208   18.0052  -25.5622 N   0  0  0  0  0  0  0  0  0  0  0  0
   -1.7077   18.3126  -24.2525 C   0  0  0  0  0  0  0  0  0  0  0  0
   -4.4503   18.1492  -24.4931 O   0  0  0  0  0  0  0  0  0  0  0  0
    0.2088   17.4538  -28.2753 C   0  0  0  0  0  0  0  0  0  0  0  0
   -3.2379    9.2634  -29.8017 C   0  0  0  0  0  0  0  0  0  0  0  0
   -1.6717   11.9077  -29.2009 C   0  0  0  0  0  0  0  0  0  0  0  0
    1.3842   18.9254  -30.0010 C   0  0  0  0  0  0  0  0  0  0  0  0
    0.6650   19.9097  -29.8704 O   0  0  0  0  0  0  0  0  0  0  0  0
   -2.3954   18.0772  -22.8890 C   0  0  0  0  0  0  0  0  0  0  0  0
   -0.5594   18.0653  -27.2707 C   0  0  0  0  0  0  0  0  0  0  0  0
   -0.7934   16.5274  -21.0068 O   0  0  0  0  0  0  0  0  0  0  0  0
   -1.0344   15.5215  -28.0547 C   0  0  0  0  0  0  0  0  0  0  0  0
   -1.7028   17.6334  -20.5006 C   0  0  0  0  0  0  0  0  0  0  0  0
   -3.1851    8.7011  -28.3475 C   0  0  0  0  0  0  0  0  0  0  0  0
  1 12  1  0
  2 15  1  0
  2 19  1  0
  3 32  1  0
  4  6  1  0
  5 18  1  0
  6  9  1  0
  6 12  1  0
  6 36  1  0
  7 26  2  0
  7 34  1  0
  8 23  1  0
  8 25  1  0
  9 27  1  0
  9 28  1  0
 10 14  2  0
 11 22  1  0
 11 33  1  0
 13 19  1  0
 13 26  1  0
 13 29  1  0
 14 17  1  0
 14 28  1  0
 15 29  1  0
 16 22  1  0
 16 31  1  0
 16 35  1  0
 17 34  1  0
 18 28  1  0
 20 21  1  0
 20 34  2  0
 21 23  1  0
 21 32  2  0
 23 24  1  0
 24 31  2  3
 26 32  1  0
 27 36  1  0
 29 30  2  0
 33 35  1  0
M  END
>  <ID>  (1) 
conformer_0

$$$$
