
     RDKit          3D

 46 52  0  0  0  0  0  0  0  0999 V2000
   -2.0830   19.1823  -25.1952 C   0  0  0  0  0  0  0  0  0  0  0  0
   -0.8092   18.7936  -21.6483 C   0  0  0  0  0  0  0  0  0  0  0  0
   -0.9853   19.2798  -20.2429 C   0  0  0  0  0  0  0  0  0  0  0  0
   -2.0380   14.9146  -27.6760 C   0  0  0  0  0  0  0  0  0  0  0  0
   -1.8458   19.3665  -22.5707 C   0  0  0  0  0  0  0  0  0  0  0  0
   -5.5592    9.8353  -27.3990 O   0  0  0  0  0  0  0  0  0  0  0  0
    0.6387   17.9529  -28.9796 C   0  0  0  0  0  0  0  0  0  0  0  0
   -2.2512   13.4676  -27.9809 C   0  0  0  0  0  0  0  0  0  0  0  0
   -2.3275   18.6380  -19.7818 C   0  0  0  0  0  0  0  0  0  0  0  0
   -0.7608   16.4291  -20.2439 C   0  0  0  0  0  0  0  0  0  0  0  0
   -0.2424    9.7494  -30.5800 F   0  0  0  0  0  0  0  0  0  0  0  0
   -1.7723    8.5763  -29.2375 C   0  0  0  0  0  0  0  0  0  0  0  0
   -4.1313   10.4646  -25.6660 O   0  0  0  0  0  0  0  0  0  0  0  0
   -3.6029   19.2433  -25.0147 C   0  0  0  0  0  0  0  0  0  0  0  0
   -2.2786   17.0315  -26.3883 C   0  0  0  0  0  0  0  0  0  0  0  0
   -0.2500   16.3738  -21.6296 O   0  0  0  0  0  0  0  0  0  0  0  0
   -4.2428   17.9665  -24.4200 C   0  0  0  0  0  0  0  0  0  0  0  0
   -2.0745   17.1256  -19.9958 C   0  0  0  0  0  0  0  0  0  0  0  0
   -0.3639   17.6559  -28.1075 C   0  0  0  0  0  0  0  0  0  0  0  0
   -3.8489   20.5065  -24.1987 C   0  0  0  0  0  0  0  0  0  0  0  0
   -1.6612   10.9761  -29.1272 C   0  0  0  0  0  0  0  0  0  0  0  0
   -4.4058    9.9450  -26.8774 C   0  0  0  0  0  0  0  0  0  0  0  0
   -2.9547   12.3333  -27.5611 O   0  0  0  0  0  0  0  0  0  0  0  0
   -1.3791   18.8870  -23.9100 C   0  0  0  0  0  0  0  0  0  0  0  0
   -0.2071   21.2163  -27.5337 C   0  0  0  0  0  0  0  0  0  0  0  0
   -3.2949    9.8249  -27.7840 C   0  0  0  0  0  0  0  0  0  0  0  0
   -1.2392    9.7816  -29.6386 C   0  0  0  0  0  0  0  0  0  0  0  0
    3.1519   16.2481  -30.9439 C   0  0  0  0  0  0  0  0  0  0  0  0
   -1.7383   18.3203  -26.2573 C   0  0  0  0  0  0  0  0  0  0  0  0
    1.9792   18.5700  -32.1395 O   0  0  0  0  0  0  0  0  0  0  0  0
   -1.0724   15.4383  -28.6229 N   0  0  0  0  0  0  0  0  0  0  0  0
    1.3834   17.0531  -29.6745 O   0  0  0  0  0  0  0  0  0  0  0  0
    2.7110   17.4588  -30.1353 C   0  0  0  0  0  0  0  0  0  0  0  0
   -0.6882   16.5384  -28.3731 C   0  0  0  0  0  0  0  0  0  0  0  0
   -2.8232    8.6231  -28.3022 C   0  0  0  0  0  0  0  0  0  0  0  0
   -2.6585   11.0707  -28.1437 C   0  0  0  0  0  0  0  0  0  0  0  0
   -0.7627   18.7352  -27.2603 C   0  0  0  0  0  0  0  0  0  0  0  0
   -1.0693   12.1203  -29.6080 N   0  0  0  0  0  0  0  0  0  0  0  0
    1.7667   19.9036  -30.0222 C   0  0  0  0  0  0  0  0  0  0  0  0
   -1.4708   13.1156  -29.0254 C   0  0  0  0  0  0  0  0  0  0  0  0
    0.8300   19.3582  -28.9234 C   0  0  0  0  0  0  0  0  0  0  0  0
    2.4563   18.8704  -30.8604 C   0  0  0  0  0  0  0  0  0  0  0  0
   -0.2760   17.5735  -22.3439 C   0  0  0  0  0  0  0  0  0  0  0  0
   -2.5119   15.8083  -26.7662 C   0  0  0  0  0  0  0  0  0  0  0  0
   -0.6624   17.6458  -23.7198 O   0  0  0  0  0  0  0  0  0  0  0  0
   -0.0688   19.8675  -27.7837 C   0  0  0  0  0  0  0  0  0  0  0  0
  1 14  1  0
  1 24  1  0
  1 29  1  0
  2  3  1  0
  2  5  1  0
  2 43  1  0
  3  9  1  0
  4  8  1  0
  4 31  1  0
  4 44  1  0
  5 24  1  0
  6 22  2  0
  7 19  1  0
  7 32  1  0
  7 41  1  0
  8 23  1  0
  8 40  2  0
  9 18  1  0
 10 16  1  0
 10 18  1  0
 11 27  1  0
 12 27  2  0
 12 35  1  0
 13 22  1  0
 14 17  1  0
 14 20  1  0
 15 29  2  0
 15 44  2  0
 16 43  1  0
 19 34  1  0
 19 37  2  0
 21 27  1  0
 21 36  2  0
 21 38  1  0
 22 26  1  0
 23 36  1  0
 24 45  1  0
 25 46  1  0
 26 35  2  0
 26 36  1  0
 28 33  1  0
 29 37  1  0
 30 42  1  0
 31 34  1  0
 32 33  1  0
 33 42  1  0
 37 46  1  0
 38 40  1  0
 39 41  1  0
 39 42  1  0
 41 46  2  0
 43 45  1  0
M  END
>  <ID>  (1) 
conformer_0

$$$$
