
     RDKit          3D

 39 43  0  0  0  0  0  0  0  0999 V2000
   -1.2630   18.5366  -22.7044 C   0  0  0  0  0  0  0  0  0  0  0  0
    3.0279   17.0116  -29.9706 C   0  0  0  0  0  0  0  0  0  0  0  0
   -2.9344   18.1351  -24.3654 O   0  0  0  0  0  0  0  0  0  0  0  0
    0.7741   19.4930  -23.1040 C   0  0  0  0  0  0  0  0  0  0  0  0
    0.7925   19.0599  -21.7228 C   0  0  0  0  0  0  0  0  0  0  0  0
   -2.4557   14.3482  -28.6786 C   0  0  0  0  0  0  0  0  0  0  0  0
   -1.2275   19.0547  -20.1940 C   0  0  0  0  0  0  0  0  0  0  0  0
   -1.8253   15.7184  -27.8533 C   0  0  0  0  0  0  0  0  0  0  0  0
   -1.7889   10.0518  -29.4579 C   0  0  0  0  0  0  0  0  0  0  0  0
   -0.2204   17.2969  -28.3636 C   0  0  0  0  0  0  0  0  0  0  0  0
   -1.4938   12.3535  -30.1674 C   0  0  0  0  0  0  0  0  0  0  0  0
   -1.6308    8.7002  -29.6280 O   0  0  0  0  0  0  0  0  0  0  0  0
   -0.4131   17.0176  -20.9823 O   0  0  0  0  0  0  0  0  0  0  0  0
   -2.6331   18.0981  -22.9494 C   0  0  0  0  0  0  0  0  0  0  0  0
   -0.5022   18.3918  -21.3796 C   0  0  0  0  0  0  0  0  0  0  0  0
   -0.7972   16.0989  -28.5684 N   0  0  0  0  0  0  0  0  0  0  0  0
    0.8815   17.6450  -29.1793 C   0  0  0  0  0  0  0  0  0  0  0  0
    3.0119   18.1106  -30.8264 C   0  0  0  0  0  0  0  0  0  0  0  0
   -2.9318    9.4494  -27.3375 C   0  0  0  0  0  0  0  0  0  0  0  0
   -2.0923   12.8356  -28.9844 C   0  0  0  0  0  0  0  0  0  0  0  0
   -1.3650   10.9406  -30.4305 C   0  0  0  0  0  0  0  0  0  0  0  0
   -2.1337   16.3209  -26.6726 N   0  0  0  0  0  0  0  0  0  0  0  0
   -2.7677    9.9572  -25.9030 C   0  0  0  0  0  0  0  0  0  0  0  0
   -2.3710   10.5229  -28.2635 C   0  0  0  0  0  0  0  0  0  0  0  0
   -2.4754   11.8800  -28.0698 C   0  0  0  0  0  0  0  0  0  0  0  0
   -4.3388   18.1679  -24.6908 C   0  0  0  0  0  0  0  0  0  0  0  0
   -0.4493   19.1719  -23.6535 C   0  0  0  0  0  0  0  0  0  0  0  0
   -1.6056   17.5496  -26.4416 C   0  0  0  0  0  0  0  0  0  0  0  0
   -4.4309    9.4168  -27.6445 C   0  0  0  0  0  0  0  0  0  0  0  0
   -0.7266   18.1105  -27.3460 C   0  0  0  0  0  0  0  0  0  0  0  0
    1.9376   16.7472  -29.1810 C   0  0  0  0  0  0  0  0  0  0  0  0
   -2.7298   14.8346  -29.9359 O   0  0  0  0  0  0  0  0  0  0  0  0
    0.9027   18.7701  -29.9473 C   0  0  0  0  0  0  0  0  0  0  0  0
   -0.8678   19.2095  -24.9484 C   0  0  0  0  0  0  0  0  0  0  0  0
   -3.2415   14.3596  -27.6383 O   0  0  0  0  0  0  0  0  0  0  0  0
    1.9471   19.0189  -30.7997 C   0  0  0  0  0  0  0  0  0  0  0  0
   -0.2993   19.4567  -27.1995 C   0  0  0  0  0  0  0  0  0  0  0  0
   -0.3521   20.0261  -25.9776 C   0  0  0  0  0  0  0  0  0  0  0  0
   -1.8371   18.2638  -25.2491 C   0  0  0  0  0  0  0  0  0  0  0  0
  1 14  1  0
  1 15  1  0
  1 27  2  0
  2 18  2  0
  2 31  1  0
  3 26  1  0
  3 39  1  0
  4  5  1  0
  4 27  1  0
  5 15  1  0
  6  8  1  0
  6 20  1  0
  6 32  1  0
  6 35  1  0
  7 15  1  0
  8 16  1  0
  8 22  1  0
  9 12  1  0
  9 21  2  0
  9 24  1  0
 10 16  2  0
 10 17  1  0
 10 30  1  0
 11 20  2  0
 11 21  1  0
 13 15  1  0
 17 31  2  0
 17 33  1  0
 18 36  1  0
 19 23  1  0
 19 24  1  0
 19 29  1  0
 20 25  1  0
 22 28  2  0
 24 25  2  0
 27 34  1  0
 28 30  1  0
 28 39  1  0
 30 37  1  0
 33 36  2  0
 34 38  1  0
 34 39  1  0
 37 38  2  0
M  END
>  <ID>  (1) 
conformer_0

$$$$
