
     RDKit          3D

 33 36  0  0  0  0  0  0  0  0999 V2000
   -1.9181   18.6125  -23.3835 C   0  0  0  0  0  0  0  0  0  0  0  0
   -3.4980    9.8200  -26.6609 C   0  0  0  0  0  0  0  0  0  0  0  0
   -3.5811   18.3901  -24.9287 C   0  0  0  0  0  0  0  0  0  0  0  0
    3.2898   17.7708  -31.1834 C   0  0  0  0  0  0  0  0  0  0  0  0
   -0.3354   18.8217  -28.1664 C   0  0  0  0  0  0  0  0  0  0  0  0
   -3.1994   18.9059  -22.7575 C   0  0  0  0  0  0  0  0  0  0  0  0
   -1.2019   18.2762  -25.7055 C   0  0  0  0  0  0  0  0  0  0  0  0
   -2.3744   10.4649  -28.6422 C   0  0  0  0  0  0  0  0  0  0  0  0
   -1.3174   19.0160  -20.4901 C   0  0  0  0  0  0  0  0  0  0  0  0
   -1.6193   15.1786  -28.3594 C   0  0  0  0  0  0  0  0  0  0  0  0
   -2.8855   10.9847  -27.4896 C   0  0  0  0  0  0  0  0  0  0  0  0
    1.0700   19.1216  -28.4045 C   0  0  0  0  0  0  0  0  0  0  0  0
   -2.4465   15.1810  -27.2326 C   0  0  0  0  0  0  0  0  0  0  0  0
   -2.0717   12.7499  -28.5987 C   0  0  0  0  0  0  0  0  0  0  0  0
   -4.2081   18.8073  -23.6205 C   0  0  0  0  0  0  0  0  0  0  0  0
    2.8011   17.7713  -29.7192 C   0  0  0  0  0  0  0  0  0  0  0  0
   -0.5888   16.7771  -21.2879 C   0  0  0  0  0  0  0  0  0  0  0  0
   -0.8616   16.2626  -28.7505 C   0  0  0  0  0  0  0  0  0  0  0  0
   -2.6632   12.3524  -27.4739 N   0  0  0  0  0  0  0  0  0  0  0  0
    0.6878   18.3612  -30.6641 O   0  0  0  0  0  0  0  0  0  0  0  0
   -1.8573   11.5795  -29.3406 N   0  0  0  0  0  0  0  0  0  0  0  0
   -1.5587   17.3009  -26.7273 C   0  0  0  0  0  0  0  0  0  0  0  0
    1.5030   18.4625  -29.6975 C   0  0  0  0  0  0  0  0  0  0  0  0
   -2.4360   16.2636  -26.4714 C   0  0  0  0  0  0  0  0  0  0  0  0
   -0.8649   17.4122  -27.9363 C   0  0  0  0  0  0  0  0  0  0  0  0
   -1.2101   11.3200  -30.6256 C   0  0  0  0  0  0  0  0  0  0  0  0
   -3.1203    8.5016  -27.3585 C   0  0  0  0  0  0  0  0  0  0  0  0
   -2.5445    8.9198  -28.6795 C   0  0  0  0  0  0  0  0  0  0  0  0
   -0.3617   18.2789  -21.4048 C   0  0  0  0  0  0  0  0  0  0  0  0
    2.7590   16.3683  -29.1555 C   0  0  0  0  0  0  0  0  0  0  0  0
   -0.5447   18.6248  -22.8772 C   0  0  0  0  0  0  0  0  0  0  0  0
   -2.2060   18.3563  -24.7309 C   0  0  0  0  0  0  0  0  0  0  0  0
   -1.6035   13.9862  -29.1736 N   0  0  0  0  0  0  0  0  0  0  0  0
  1  6  1  0
  1 31  1  0
  1 32  2  0
  2 11  1  0
  2 27  1  0
  3 15  1  0
  3 32  1  0
  4 16  1  0
  5 12  1  0
  5 25  1  0
  6 15  1  0
  7 22  1  0
  7 32  1  0
  8 11  2  0
  8 21  1  0
  8 28  1  0
  9 29  1  0
 10 13  1  0
 10 18  2  0
 10 33  1  0
 11 19  1  0
 12 23  1  0
 13 24  2  0
 14 19  1  0
 14 21  1  0
 14 33  2  3
 16 23  1  0
 16 30  1  0
 17 29  1  0
 18 25  1  0
 20 23  2  0
 21 26  1  0
 22 24  1  0
 22 25  1  0
 27 28  1  0
 29 31  1  0
M  END
>  <ID>  (1) 
conformer_0

$$$$
