
     RDKit          3D

 42 46  0  0  0  0  0  0  0  0999 V2000
   -2.6883   13.7353  -27.9996 C   0  0  0  0  0  0  0  0  0  0  0  0
   -1.0591   12.9852  -29.3686 N   0  0  0  0  0  0  0  0  0  0  0  0
   -1.1818   16.7321  -20.0382 C   0  0  0  0  0  0  0  0  0  0  0  0
   -1.3932   15.7705  -28.3674 N   0  0  0  0  0  0  0  0  0  0  0  0
   -1.5229   17.5149  -27.0021 C   0  0  0  0  0  3  0  0  0  0  0  0
    0.3014   18.8008  -28.2861 C   0  0  0  0  0  0  0  0  0  0  0  0
   -0.9344   19.7590  -26.4151 C   0  0  0  0  0  0  0  0  0  0  0  0
   -2.7775   18.5837  -24.8595 S   0  0  0  0  0  4  0  0  0  0  0  0
   -0.6310   18.2751  -23.3139 C   0  0  0  0  0  0  0  0  0  0  0  0
   -0.4646   17.7237  -28.0045 C   0  0  0  0  0  0  0  0  0  0  0  0
    1.7461   18.6525  -32.6196 O   0  0  0  0  0  0  0  0  0  0  0  0
    1.5792   19.8944  -30.0357 O   0  0  0  0  0  0  0  0  0  0  0  0
   -1.7147   19.2203  -23.7923 N   0  0  0  0  0  0  0  0  0  0  0  0
   -4.2712    9.8425  -27.6953 C   0  0  0  0  0  0  0  0  0  0  0  0
   -0.1308   16.2266  -22.2214 O   0  0  0  0  0  0  0  0  0  0  0  0
   -2.3627   11.3360  -28.4772 C   0  0  0  0  0  0  0  0  0  0  0  0
    2.8622   16.7249  -31.5529 C   0  0  0  0  0  0  0  0  0  0  0  0
   -4.1238   10.5476  -26.5156 C   0  0  0  0  0  0  0  0  0  0  0  0
    2.3973   18.1593  -31.5905 C   0  0  0  0  0  0  0  0  0  0  0  0
    1.3744   18.6889  -29.4334 C   0  0  0  0  0  0  0  0  0  0  0  0
   -1.6602   18.5889  -26.1909 C   0  0  0  0  0  0  0  0  0  0  0  0
   -1.1200   16.8828  -27.8526 C   0  0  0  0  0  0  0  0  0  0  0  0
    0.0542   16.8785  -23.5580 C   0  0  0  0  0  0  0  0  0  0  0  0
    2.5092   19.0224  -30.3309 C   0  0  0  0  0  0  0  0  0  0  0  0
   -1.7681   10.2522  -29.2187 C   0  0  0  0  0  0  0  0  0  0  0  0
   -2.3533   14.9117  -28.0288 C   0  0  0  0  0  0  0  0  0  0  0  0
   -0.8343   16.9787  -21.3302 C   0  0  0  0  0  0  0  0  0  0  0  0
   -1.8770   17.7425  -19.3164 C   0  0  0  0  0  0  0  0  0  0  0  0
   -2.2753   18.8998  -19.9227 C   0  0  0  0  0  0  0  0  0  0  0  0
   -0.5899   10.2280  -30.0802 C   0  0  0  0  0  0  0  0  0  0  0  0
   -3.8345   19.5158  -25.1060 O   0  0  0  0  0  1  0  0  0  0  0  0
   -3.2146   17.2390  -24.5281 O   0  0  0  0  0  1  0  0  0  0  0  0
   -0.0138   19.8624  -27.4799 C   0  0  0  0  0  0  0  0  0  0  0  0
   -3.2098    8.6287  -27.8166 C   0  0  0  0  0  0  0  0  0  0  0  0
   -1.9497   19.1485  -21.2600 C   0  0  0  0  0  0  0  0  0  0  0  0
   -1.9807   12.7416  -28.6701 C   0  0  0  0  0  0  0  0  0  0  0  0
   -3.4716   10.9674  -27.5640 C   0  0  0  0  0  0  0  0  0  0  0  0
   -1.1958   18.1619  -21.9049 C   0  0  0  0  0  0  0  0  0  0  0  0
    1.2824   17.1430  -29.6283 C   0  0  0  0  0  0  0  0  0  0  0  0
    2.5448   16.5455  -29.1031 C   0  0  0  0  0  0  0  0  0  0  0  0
   -2.4082    8.9310  -29.0763 C   0  0  0  0  0  0  0  0  0  0  0  0
    3.5889   16.5938  -30.1969 C   0  0  0  0  0  0  0  0  0  0  0  0
  1 26  2  3
  1 36  1  0
  2 36  2  0
  3 27  2  0
  3 28  1  0
  4 22  1  0
  4 26  1  0
  5 21  2  0
  5 22  1  0
  6 10  2  0
  6 20  1  0
  6 33  1  0
  7 21  1  0
  7 33  2  0
  8 13  1  0
  8 21  1  0
  8 31  1  0
  8 32  1  0
  9 13  1  0
  9 23  1  0
  9 38  1  0
 10 22  2  0
 11 19  1  0
 12 20  1  0
 12 24  1  0
 14 18  1  0
 14 34  1  0
 15 23  1  0
 15 27  1  0
 16 25  2  0
 16 36  1  0
 16 37  1  0
 17 19  1  0
 17 42  1  0
 18 37  1  0
 19 24  1  0
 20 39  1  0
 25 30  1  0
 25 41  1  0
 27 38  1  0
 28 29  2  0
 29 35  1  0
 34 41  1  0
 35 38  2  0
 39 40  1  0
 40 42  1  0
M  END
>  <ID>  (1) 
conformer_0

$$$$
