
     RDKit          3D

 33 36  0  0  0  0  0  0  0  0999 V2000
   -1.9501   11.5571  -28.8330 C   0  0  0  0  0  0  0  0  0  0  0  0
   -1.2056   17.3707  -27.0615 C   0  0  0  0  0  0  0  0  0  0  0  0
   -1.5303   10.3737  -29.5265 C   0  0  0  0  0  0  0  0  0  0  0  0
    0.3030   18.4920  -28.8006 C   0  0  0  0  0  0  0  0  0  0  0  0
   -1.4167   12.9292  -29.2263 N   0  0  0  0  0  0  0  0  0  0  0  0
    1.1860   18.4135  -29.8797 C   0  0  0  0  0  0  0  0  0  0  0  0
    3.6381   17.7762  -30.6185 C   0  0  0  0  0  0  0  0  0  0  0  0
   -4.2898   10.9663  -25.9611 O   0  0  0  0  0  0  0  0  0  0  0  0
   -1.8606    9.0689  -29.2139 C   0  0  0  0  0  0  0  0  0  0  0  0
   -1.4233   18.8351  -23.6966 C   0  0  0  0  0  0  0  0  0  0  0  0
    2.4658   17.3100  -29.6261 S   0  0  0  0  0  4  0  0  0  0  0  0
   -0.5159   16.0194  -28.7104 C   0  0  0  0  0  0  0  0  0  0  0  0
   -2.6781    8.5767  -28.2416 C   0  0  0  0  0  0  0  0  0  0  0  0
   -0.4421   17.2160  -21.9923 C   0  0  0  0  0  0  0  0  0  0  0  0
   -1.2949   18.5161  -26.1501 C   0  0  0  0  0  0  0  0  0  0  0  0
   -0.5138   19.5896  -26.3232 O   0  0  0  0  0  0  0  0  0  0  0  0
   -1.6542   17.9210  -22.5542 C   0  0  0  0  0  0  0  0  0  0  0  0
   -1.8711   16.1348  -26.9986 N   0  0  0  0  0  0  0  0  0  0  0  0
   -3.4933   10.5838  -27.0355 C   0  0  0  0  0  0  0  0  0  0  0  0
    2.0453   15.9296  -29.9801 O   0  0  0  0  0  1  0  0  0  0  0  0
   -1.4327   15.2938  -28.0016 C   0  0  0  0  0  0  0  0  0  0  0  0
   -1.9193   13.9249  -28.2515 C   0  0  0  0  0  0  0  0  0  0  0  0
   -3.3980    9.2296  -27.2862 C   0  0  0  0  0  0  0  0  0  0  0  0
   -0.6100   10.5747  -30.8295 C   0  0  0  0  0  0  0  0  0  0  0  0
   -2.8373   11.6903  -27.7384 C   0  0  0  0  0  0  0  0  0  0  0  0
   -1.8483   18.4940  -21.1464 S   0  0  0  0  0  0  0  0  0  0  0  0
   -2.1730   18.5163  -24.9940 C   0  0  0  0  0  0  0  0  0  0  0  0
   -0.4000   17.3261  -28.1790 C   0  0  0  0  0  0  0  0  0  0  0  0
   -1.2045   17.1584  -20.5877 C   0  0  0  0  0  0  0  0  0  0  0  0
   -2.9955   13.1881  -27.4026 S   0  0  0  0  0  0  0  0  0  0  0  0
    2.7584   17.3385  -28.1609 O   0  0  0  0  0  1  0  0  0  0  0  0
    1.0996   18.8423  -31.1471 O   0  0  0  0  0  0  0  0  0  0  0  0
   -3.6527   18.6692  -25.1633 C   0  0  0  0  0  0  0  0  0  0  0  0
  1  3  1  0
  1  5  1  0
  1 25  1  0
  2 15  2  3
  2 18  1  0
  2 28  1  0
  3  9  2  0
  3 24  1  0
  4  6  1  0
  4 28  2  3
  5 22  1  0
  6 11  1  0
  6 32  2  0
  7 11  1  0
  8 19  1  0
  9 13  1  0
 10 17  1  0
 10 27  1  0
 11 20  1  0
 11 31  1  0
 12 21  1  0
 12 28  1  0
 13 23  2  0
 14 17  1  0
 14 29  1  0
 15 16  1  0
 15 27  1  0
 17 26  1  0
 18 21  1  0
 19 23  1  0
 19 25  2  0
 21 22  2  3
 22 30  1  0
 25 30  1  0
 26 29  1  0
 27 33  1  0
M  END
>  <ID>  (1) 
conformer_0

$$$$
