
     RDKit          3D

 46 50  0  0  0  0  0  0  0  0999 V2000
    0.2892   12.4685  -29.1548 C   0  0  0  0  0  0  0  0  0  0  0  0
   -3.0829   11.1470  -28.2023 C   0  0  0  0  0  0  0  0  0  0  0  0
   -3.1489   18.9773  -25.2510 C   0  0  0  0  0  0  0  0  0  0  0  0
   -1.7581    8.5478  -29.4147 C   0  0  0  0  0  0  0  0  0  0  0  0
   -4.3787    7.8903  -26.9958 O   0  0  0  0  0  0  0  0  0  0  0  0
    1.3545   18.6798  -29.2158 C   0  0  0  0  0  0  0  0  0  0  0  0
   -4.5904   10.5542  -26.4051 C   0  0  0  0  0  0  0  0  0  0  0  0
   -3.6140    8.6735  -27.7173 C   0  0  0  0  0  0  0  0  0  0  0  0
   -3.3014   12.6126  -27.9331 C   0  0  0  0  0  0  0  0  0  0  0  0
   -2.7501   17.8758  -22.9405 C   0  0  0  0  0  0  0  0  0  0  0  0
   -1.3441   19.1814  -20.6311 C   0  0  0  0  0  0  0  0  0  0  0  0
   -2.0315   17.9392  -20.3532 O   0  0  0  0  0  0  0  0  0  0  0  0
   -1.3801   18.5468  -23.0246 C   0  0  0  0  0  0  0  0  0  0  0  0
    0.5066   18.5039  -30.2628 C   0  0  0  0  0  0  0  0  0  0  0  0
   -1.9641   14.9940  -27.8008 C   0  0  0  0  0  0  0  0  0  0  0  0
   -0.5146   18.9972  -21.8847 C   0  0  0  0  0  0  0  0  0  0  0  0
    1.9419   19.0611  -30.3793 C   0  0  0  0  0  0  0  0  0  0  0  0
   -0.2690   16.3536  -21.6010 O   0  0  0  0  0  0  0  0  0  0  0  0
   -2.1491   10.9845  -29.3376 C   0  0  0  0  0  0  0  0  0  0  0  0
   -0.4220   17.0326  -27.3899 C   0  0  0  0  0  0  0  0  0  0  0  0
   -1.5822   17.5165  -26.5066 C   0  0  0  0  0  0  0  0  0  0  0  0
   -0.4269   15.5776  -27.5086 C   0  0  0  0  0  0  0  0  0  0  0  0
    2.7159   18.1387  -31.3253 C   0  0  0  0  0  0  0  0  0  0  0  0
   -2.7244    8.0577  -28.6256 C   0  0  0  0  0  0  0  0  0  0  0  0
   -2.0226   13.5163  -28.1169 N   0  0  0  0  0  0  0  0  0  0  0  0
   -0.9918   20.0388  -26.3272 C   0  0  0  0  0  0  0  0  0  0  0  0
   -0.1392   13.1091  -26.8104 O   0  0  0  0  0  0  0  0  0  0  0  0
    2.2105   18.1517  -32.6486 O   0  0  0  0  0  0  0  0  0  0  0  0
    2.1849   17.5403  -28.4494 C   0  0  0  0  0  0  0  0  0  0  0  0
   -3.2850   20.3108  -24.4698 C   0  0  0  0  0  0  0  0  0  0  0  0
   -1.4567    9.8147  -29.6506 C   0  0  0  0  0  0  0  0  0  0  0  0
   -1.1946   16.8026  -20.7104 C   0  0  0  0  0  0  0  0  0  0  0  0
    2.9480   16.7037  -30.8218 C   0  0  0  0  0  0  0  0  0  0  0  0
    2.8007   16.4826  -29.3293 C   0  0  0  0  0  0  0  0  0  0  0  0
    1.6899   19.7787  -26.9007 C   0  0  0  0  0  0  0  0  0  0  0  0
    0.8864   21.0382  -28.8660 O   0  0  0  0  0  0  0  0  0  0  0  0
   -0.7562   18.6872  -24.3118 C   0  0  0  0  0  0  0  0  0  0  0  0
   -0.2555   10.2095  -30.4913 C   0  0  0  0  0  0  0  0  0  0  0  0
   -3.6834   10.0951  -27.5201 N   0  0  0  0  0  0  0  0  0  0  0  0
   -1.8559   12.0466  -30.3274 C   0  0  0  0  0  0  0  0  0  0  0  0
   -1.5996   18.7342  -25.6311 C   0  0  0  0  0  0  0  0  0  0  0  0
   -0.6070   13.0317  -28.0213 C   0  0  0  0  0  0  0  0  0  0  0  0
   -0.2349   11.7828  -30.4817 C   0  0  0  0  0  0  0  0  0  0  0  0
   -0.6955   19.7182  -27.7722 C   0  0  0  0  0  0  0  0  0  0  0  0
    0.8513   19.7770  -28.1893 C   0  0  0  0  0  0  0  0  0  0  0  0
   -3.5745   17.8043  -24.2654 C   0  0  0  0  0  0  0  0  0  0  0  0
  1 42  1  0
  1 43  1  0
  2  9  1  0
  2 19  1  0
  2 39  1  0
  3 30  1  0
  3 41  1  0
  3 46  1  0
  4 24  1  0
  4 31  2  0
  5  8  2  0
  6 14  1  0
  6 17  1  0
  6 29  1  0
  6 45  1  0
  7 39  1  0
  8 24  1  0
  8 39  1  0
  9 25  1  0
 10 13  1  0
 10 46  1  0
 11 12  1  0
 11 16  1  0
 12 32  1  0
 13 16  1  0
 13 37  1  0
 15 22  1  0
 15 25  1  0
 17 23  1  0
 18 32  1  0
 19 31  1  0
 19 40  1  0
 20 21  1  0
 20 22  1  0
 21 41  1  0
 23 28  1  0
 23 33  1  0
 25 42  1  0
 26 41  1  0
 26 44  1  0
 27 42  2  0
 29 34  1  0
 31 38  1  0
 33 34  2  0
 35 45  1  0
 36 45  1  0
 37 41  1  0
 38 43  1  0
 40 43  1  0
 44 45  1  0
M  END
>  <ID>  (1) 
conformer_0

$$$$
