
     RDKit          3D

 42 44  0  0  0  0  0  0  0  0999 V2000
   -4.0420   18.8618  -24.9102 C   0  0  0  0  0  0  0  0  0  0  0  0
    2.8293   18.1431  -31.2416 C   0  0  0  0  0  0  0  0  0  0  0  0
   -2.6504    8.6587  -28.4784 C   0  0  0  0  0  0  0  0  0  0  0  0
   -2.0260   18.1160  -20.2435 C   0  0  0  0  0  0  0  0  0  0  0  0
    0.1872   19.0703  -20.6546 C   0  0  0  0  0  0  0  0  0  0  0  0
    4.3251   11.6195  -25.6196 C   0  0  0  0  0  0  0  0  0  0  0  0
   -1.1880   19.6753  -24.8292 C   0  0  0  0  0  0  0  0  0  0  0  0
    0.0533   17.2342  -29.5055 O   0  0  0  0  0  0  0  0  0  0  0  0
   -1.6357   10.5606  -29.5599 C   0  0  0  0  0  0  0  0  0  0  0  0
   -1.7234   18.0626  -26.6314 C   0  0  0  0  0  0  0  0  0  0  0  0
   -1.9954   12.4834  -31.0208 C   0  0  0  0  0  0  0  0  0  0  0  0
    1.2708   17.9284  -29.3847 C   0  0  0  0  0  0  0  0  0  0  0  0
   -1.7671   11.3217  -28.3787 C   0  0  0  0  0  0  0  0  0  0  0  0
   -1.7536   19.5172  -26.2582 C   0  0  0  0  0  0  0  0  0  0  0  0
    2.3571   11.9881  -26.1085 C   0  0  0  0  0  0  0  0  0  0  0  0
    2.9888   10.8635  -25.5648 C   0  0  0  0  0  0  0  0  0  0  0  0
    1.1260   12.1437  -26.7657 C   0  0  0  0  0  0  0  0  0  0  0  0
   -0.4416   16.9161  -28.2166 C   0  0  0  0  0  0  0  0  0  0  0  0
    0.9059   19.8217  -30.8660 C   0  0  0  0  0  0  0  0  0  0  0  0
   -3.1479    9.5302  -27.5329 C   0  0  0  0  0  0  0  0  0  0  0  0
   -0.9194   12.4854  -27.9657 N   0  0  0  0  0  0  0  0  0  0  0  0
   -1.4315   18.7967  -22.5460 C   0  0  0  0  0  0  0  0  0  0  0  0
   -0.4897   15.6442  -27.5699 C   0  0  0  0  0  0  0  0  0  0  0  0
   -0.9632   14.7724  -28.8523 C   0  0  0  0  0  0  0  0  0  0  0  0
   -1.3497   11.2288  -30.8637 C   0  0  0  0  0  0  0  0  0  0  0  0
   -2.9752   17.8098  -24.4659 C   0  0  0  0  0  0  0  0  0  0  0  0
   -3.9730    9.0296  -26.6091 F   0  0  0  0  0  0  0  0  0  0  0  0
   -2.9552   14.0541  -27.9204 O   0  0  0  0  0  0  0  0  0  0  0  0
   -0.9761   19.1244  -19.7564 C   0  0  0  0  0  0  0  0  0  0  0  0
    1.9655   18.2372  -28.1377 C   0  0  0  0  0  0  0  0  0  0  0  0
   -0.2794   10.6398  -31.6585 C   0  0  0  0  0  0  0  0  0  0  0  0
   -1.7459   13.7456  -28.2489 C   0  0  0  0  0  0  0  0  0  0  0  0
   -2.5223   17.0140  -25.8344 C   0  0  0  0  0  0  0  0  0  0  0  0
   -1.6657   18.5078  -23.9345 C   0  0  0  0  0  0  0  0  0  0  0  0
   -0.1065   18.3126  -21.9958 C   0  0  0  0  0  0  0  0  0  0  0  0
   -1.9011    9.1994  -29.5335 C   0  0  0  0  0  0  0  0  0  0  0  0
    1.7011   18.6860  -30.5363 C   0  0  0  0  0  0  0  0  0  0  0  0
   -3.6214   11.6277  -26.7735 O   0  0  0  0  0  0  0  0  0  0  0  0
   -2.5715   18.5962  -21.5795 C   0  0  0  0  0  0  0  0  0  0  0  0
   -2.8307   10.8651  -27.5574 C   0  0  0  0  0  0  0  0  0  0  0  0
   -0.5727   17.9013  -27.3325 N   0  0  0  0  0  0  0  0  0  0  0  0
    0.5958   13.3451  -27.2327 C   0  0  0  0  0  0  0  0  0  0  0  0
  1 26  1  0
  2 37  1  0
  3 20  1  0
  3 36  2  0
  4 29  1  0
  4 39  1  0
  5 29  1  0
  5 35  1  0
  6 16  1  0
  7 14  1  0
  7 34  1  0
  8 12  1  0
  8 18  1  0
  9 13  1  0
  9 25  1  0
  9 36  1  0
 10 14  1  0
 10 33  1  0
 10 41  1  0
 11 25  1  0
 12 30  1  0
 12 37  1  0
 13 21  1  0
 13 40  1  0
 15 16  1  0
 15 17  2  3
 17 42  1  0
 18 23  1  0
 18 41  1  0
 19 37  1  0
 20 27  1  0
 20 40  2  0
 21 32  1  0
 21 42  1  0
 22 34  1  0
 22 35  1  0
 22 39  1  0
 23 24  1  0
 24 32  1  0
 25 31  1  0
 26 33  1  0
 26 34  1  0
 28 32  2  0
 38 40  1  0
M  END
>  <ID>  (1) 
conformer_0

$$$$
