
     RDKit          3D

 46 52  0  0  0  0  0  0  0  0999 V2000
   -1.6255   11.7477  -26.2277 O   0  0  0  0  0  0  0  0  0  0  0  0
   -0.7358   17.0804  -27.9461 C   0  0  0  0  0  0  0  0  0  0  0  0
   -4.5569    9.3490  -27.6537 C   0  0  0  0  0  0  0  0  0  0  0  0
   -1.8859   19.0626  -24.8400 C   0  0  0  0  0  0  0  0  0  0  0  0
   -2.5753   15.0653  -27.3435 C   0  0  0  0  0  0  0  0  0  0  0  0
   -0.7660   15.8857  -28.5931 N   0  0  0  0  0  0  0  0  0  0  0  0
   -3.4073   19.5165  -24.7192 C   0  0  0  0  0  0  0  0  0  0  0  0
   -1.6177   14.8833  -28.2877 C   0  0  0  0  0  0  0  0  0  0  0  0
   -1.6103   18.1288  -25.8549 N   0  0  0  0  0  0  0  0  0  0  0  0
    0.1509   19.5420  -28.5180 C   0  0  0  0  0  0  0  0  0  0  0  0
   -3.5254   17.0680  -25.2171 O   0  0  0  0  0  0  0  0  0  0  0  0
    1.5170   18.7723  -30.4517 C   0  0  0  0  0  0  0  0  0  0  0  0
   -0.7662   10.2450  -31.1121 C   0  0  0  0  0  0  0  0  0  0  0  0
   -0.9271    9.7524  -29.6457 C   0  0  0  0  0  0  0  0  0  0  0  0
   -2.5131   10.5009  -27.9550 C   0  0  0  0  0  0  0  0  0  0  0  0
   -2.6625    8.1401  -28.8031 C   0  0  0  0  0  0  0  0  0  0  0  0
    1.1144   17.5691  -29.5733 C   0  0  0  0  0  0  0  0  0  0  0  0
   -3.9471   19.5023  -25.9673 F   0  0  0  0  0  0  0  0  0  0  0  0
   -0.5286   17.6975  -23.3265 C   0  0  0  0  0  0  0  0  0  0  0  0
   -2.4648   17.0839  -26.0655 N   0  0  0  0  0  0  0  0  0  0  0  0
   -1.1509    8.3967  -28.9373 C   0  0  0  0  0  0  0  0  0  0  0  0
   -4.8818   10.2752  -26.7015 C   0  0  0  0  0  0  0  0  0  0  0  0
   -0.8983   16.9166  -19.7837 F   0  0  0  0  0  0  0  0  0  0  0  0
    0.0966   11.5068  -31.2666 C   0  0  0  0  0  0  0  0  0  0  0  0
   -2.8913   15.8086  -26.4284 N   0  0  0  0  0  0  0  0  0  0  0  0
   -4.0008   11.2464  -26.2586 C   0  0  0  0  0  0  0  0  0  0  0  0
   -2.7387   11.2209  -26.8031 N   0  0  0  0  0  0  0  0  0  0  0  0
   -0.9348   19.9478  -25.4910 C   0  0  0  0  0  0  0  0  0  0  0  0
   -1.0726   17.5086  -20.9699 C   0  0  0  0  0  0  0  0  0  0  0  0
   -3.4833   20.7345  -24.1504 F   0  0  0  0  0  0  0  0  0  0  0  0
   -1.4390   10.8800  -28.8843 C   0  0  0  0  0  0  0  0  0  0  0  0
    3.2100   17.1228  -30.7224 C   0  0  0  0  0  0  0  0  0  0  0  0
   -1.9886   18.5178  -21.1177 C   0  0  0  0  0  0  0  0  0  0  0  0
    0.2305   12.1999  -29.9559 C   0  0  0  0  0  0  0  0  0  0  0  0
   -1.1992   12.2177  -29.3580 C   0  0  0  0  0  0  0  0  0  0  0  0
    2.5184   18.3130  -31.3393 O   0  0  0  0  0  0  0  0  0  0  0  0
   -1.5208   18.6092  -23.4544 C   0  0  0  0  0  0  0  0  0  0  0  0
   -2.2092   19.0701  -22.3695 C   0  0  0  0  0  0  0  0  0  0  0  0
   -3.2860    9.3803  -28.1949 C   0  0  0  0  0  0  0  0  0  0  0  0
    0.1954   18.0627  -28.5831 C   0  0  0  0  0  0  0  0  0  0  0  0
   -1.4256   17.4829  -26.8191 C   0  0  0  0  0  0  0  0  0  0  0  0
   -4.2468   18.6269  -23.9477 F   0  0  0  0  0  0  0  0  0  0  0  0
   -0.3138   17.1004  -22.0639 C   0  0  0  0  0  0  0  0  0  0  0  0
   -1.5611   13.5803  -29.0414 C   0  0  0  0  0  0  0  0  0  0  0  0
    2.3273   16.6522  -29.5652 C   0  0  0  0  0  0  0  0  0  0  0  0
    1.1100   20.0060  -29.6522 C   0  0  0  0  0  0  0  0  0  0  0  0
  1 27  1  0
  2  6  2  0
  2 40  1  0
  2 41  1  0
  3 22  2  0
  3 39  1  0
  4  7  1  0
  4  9  1  0
  4 28  1  0
  4 37  1  0
  5  8  1  0
  5 25  2  0
  6  8  1  0
  7 18  1  0
  7 30  1  0
  7 42  1  0
  8 44  2  0
  9 41  2  3
 10 40  1  0
 10 46  1  0
 11 20  1  0
 12 17  1  0
 12 36  1  0
 12 46  1  0
 13 14  1  0
 13 24  1  0
 14 21  1  0
 14 31  1  0
 15 27  1  0
 15 31  1  0
 15 39  1  0
 16 21  1  0
 16 39  1  0
 17 40  1  0
 17 45  1  0
 19 37  2  0
 19 43  1  0
 20 25  1  0
 20 41  1  0
 22 26  1  0
 23 29  1  0
 24 34  1  0
 26 27  1  0
 29 33  2  0
 29 43  1  0
 31 35  1  0
 32 36  1  0
 32 45  1  0
 33 38  1  0
 34 35  1  0
 35 44  2  0
 37 38  1  0
M  END
>  <ID>  (1) 
conformer_0

$$$$
