
     RDKit          3D

 28 31  0  0  0  0  0  0  0  0999 V2000
   -2.8566   17.6564  -24.1683 C   0  0  0  0  0  0  0  0  0  0  0  0
   -1.7816   18.9153  -22.4568 O   0  0  0  0  0  0  0  0  0  0  0  0
   -0.2287   18.6809  -27.5006 C   0  0  0  0  0  0  0  0  0  0  0  0
   -2.7859   17.0277  -25.4421 C   0  0  0  0  0  0  0  0  0  0  0  0
    0.3416   16.9084  -29.2001 C   0  0  0  0  0  0  0  0  0  0  0  0
   -2.0189   11.8702  -29.9418 C   0  0  0  0  0  0  0  0  0  0  0  0
   -2.7440   10.0129  -27.9987 C   0  0  0  0  0  0  0  0  0  0  0  0
   -1.8078   17.4196  -26.2726 C   0  0  0  0  0  0  0  0  0  0  0  0
   -1.9605   18.4629  -20.1249 C   0  0  0  0  0  0  0  0  0  0  0  0
   -1.4004   16.5110  -21.3368 O   0  0  0  0  0  0  0  0  0  0  0  0
   -1.2554   17.9774  -21.3979 C   0  0  0  0  0  0  0  0  0  0  0  0
   -1.4393   16.6497  -27.4696 C   0  0  0  0  0  0  0  0  0  0  0  0
   -1.0043   18.5732  -26.1434 C   0  0  0  0  0  0  0  0  0  0  0  0
   -2.4805    9.5561  -29.2790 C   0  0  0  0  0  0  0  0  0  0  0  0
    0.2698   18.1459  -21.6125 C   0  0  0  0  0  0  0  0  0  0  0  0
   -2.1061   10.4854  -30.2534 C   0  0  0  0  0  0  0  0  0  0  0  0
    0.6140   19.5636  -28.3254 C   0  0  0  0  0  0  0  0  0  0  0  0
   -3.1144    8.9778  -26.9776 C   0  0  0  0  0  0  0  0  0  0  0  0
   -2.6854   11.3526  -27.6734 C   0  0  0  0  0  0  0  0  0  0  0  0
   -2.5948   13.6510  -28.4257 O   0  0  0  0  0  0  0  0  0  0  0  0
   -1.0752   19.1800  -24.8299 C   0  0  0  0  0  0  0  0  0  0  0  0
   -0.3965   17.3830  -28.1389 C   0  0  0  0  0  0  0  0  0  0  0  0
   -1.8326   15.3756  -27.2572 O   0  0  0  0  0  0  0  0  0  0  0  0
   -1.4305   14.4188  -28.2142 C   0  0  0  0  0  0  0  0  0  0  0  0
   -1.9060   18.5921  -23.7969 C   0  0  0  0  0  0  0  0  0  0  0  0
    1.2076   17.7458  -29.8920 C   0  0  0  0  0  0  0  0  0  0  0  0
    1.3125   19.0689  -29.4387 C   0  0  0  0  0  0  0  0  0  0  0  0
   -2.3782   12.2792  -28.6768 C   0  0  0  0  0  0  0  0  0  0  0  0
  1  4  1  0
  1 25  1  0
  2 11  1  0
  2 25  1  0
  3 13  1  0
  3 17  2  0
  3 22  1  0
  4  8  2  0
  5 22  2  0
  5 26  1  0
  6 16  2  0
  6 28  1  0
  7 14  2  0
  7 18  1  0
  7 19  1  0
  8 12  1  0
  8 13  1  0
  9 11  1  0
 10 11  1  0
 11 15  1  0
 12 22  1  0
 12 23  1  0
 13 21  2  0
 14 16  1  0
 17 27  1  0
 19 28  2  0
 20 24  1  0
 20 28  1  0
 21 25  1  0
 23 24  1  0
 26 27  2  0
M  END
>  <ID>  (1) 
conformer_0

$$$$
