
     RDKit          3D

 34 40  0  0  0  0  0  0  0  0999 V2000
   -3.4411   17.7534  -22.9507 C   0  0  0  0  0  0  0  0  0  0  0  0
   -1.8172   13.1456  -28.6263 C   0  0  0  0  0  0  0  0  0  0  0  0
   -2.6537   11.0545  -27.7235 C   0  0  0  0  0  0  0  0  0  0  0  0
   -3.3147    8.7578  -27.4157 O   0  0  0  0  0  0  0  0  0  0  0  0
   -2.0950   10.3534  -28.7592 C   0  0  0  0  0  0  0  0  0  0  0  0
   -1.1700   12.4476  -29.6312 C   0  0  0  0  0  0  0  0  0  0  0  0
   -2.4349    8.8832  -28.6961 C   0  0  0  0  0  0  0  0  0  0  0  0
   -1.7547   18.1521  -25.6631 C   0  0  0  0  0  0  0  0  0  0  0  0
   -0.4382   16.3911  -28.6203 C   0  0  0  0  0  0  0  0  0  0  0  0
    1.6185   16.5673  -29.7164 O   0  0  0  0  0  0  0  0  0  0  0  0
    1.1804   19.4590  -29.6716 C   0  0  0  0  0  0  0  0  0  0  0  0
    0.1216   18.3048  -22.5987 N   0  0  0  0  0  0  0  0  0  0  0  0
   -3.3771   10.1109  -26.8097 C   0  0  0  0  0  0  0  0  0  0  0  0
   -1.3447   11.0204  -29.7062 C   0  0  0  0  0  0  0  0  0  0  0  0
   -0.2992   18.8912  -27.6223 C   0  0  0  0  0  0  0  0  0  0  0  0
   -1.2952   16.7104  -27.6260 C   0  0  0  0  0  0  0  0  0  0  0  0
   -1.5655   17.5049  -21.3274 C   0  0  0  0  0  0  0  0  0  0  0  0
   -1.1041   17.9694  -26.9720 C   0  0  0  0  0  0  0  0  0  0  0  0
    2.0804   18.6758  -30.6458 C   0  0  0  0  0  0  0  0  0  0  0  0
   -3.8032   18.1708  -24.3278 C   0  0  0  0  0  0  0  0  0  0  0  0
    2.7288   17.4664  -29.8535 C   0  0  0  0  0  0  0  0  0  0  0  0
    0.5544   17.1801  -29.0469 C   0  0  0  0  0  0  0  0  0  0  0  0
   -3.1487   17.6119  -25.6122 C   0  0  0  0  0  0  0  0  0  0  0  0
   -4.4261   10.7665  -26.0088 C   0  0  0  0  0  0  0  0  0  0  0  0
   -1.8917   14.6288  -28.5511 C   0  0  0  0  0  0  0  0  0  0  0  0
   -0.7429   20.2234  -24.8709 C   0  0  0  0  0  0  0  0  0  0  0  0
   -2.2454   15.6100  -27.4062 C   0  0  0  0  0  0  0  0  0  0  0  0
   -0.2202   17.7435  -21.3740 O   0  0  0  0  0  0  0  0  0  0  0  0
   -2.5138   12.4327  -27.6514 C   0  0  0  0  0  0  0  0  0  0  0  0
    0.4673   18.5167  -28.7150 C   0  0  0  0  0  0  0  0  0  0  0  0
   -0.9996   18.3499  -23.2865 C   0  0  0  0  0  0  0  0  0  0  0  0
   -1.1419   18.8777  -24.6164 C   0  0  0  0  0  0  0  0  0  0  0  0
   -0.6816   15.1783  -29.1920 O   0  0  0  0  0  0  0  0  0  0  0  0
   -2.0543   17.8383  -22.5204 C   0  0  0  0  0  0  0  0  0  0  0  0
  1 20  1  0
  1 34  1  0
  2  6  1  0
  2 25  1  0
  2 29  2  0
  3  5  2  0
  3 13  1  0
  3 29  1  0
  4  7  1  0
  4 13  1  0
  5  7  1  0
  5 14  1  0
  6 14  2  0
  8 18  1  0
  8 23  1  0
  8 32  1  0
  9 16  2  0
  9 22  1  0
  9 33  1  0
 10 21  1  0
 10 22  1  0
 11 19  1  0
 11 30  1  0
 12 28  1  0
 12 31  1  0
 13 24  1  0
 15 18  1  0
 15 30  2  0
 16 18  1  0
 16 27  1  0
 17 28  1  0
 17 34  1  0
 19 21  1  0
 20 23  1  0
 22 30  1  0
 25 27  1  0
 25 33  1  0
 26 32  1  0
 31 32  1  0
 31 34  2  0
M  END
>  <ID>  (1) 
conformer_0

$$$$
