
     RDKit          3D

 33 36  0  0  0  0  0  0  0  0999 V2000
    2.2720   19.0923  -30.3137 C   0  0  0  0  0  0  0  0  0  0  0  0
    0.3687   19.2912  -28.9658 C   0  0  0  0  0  0  0  0  0  0  0  0
    0.6350   17.9098  -28.9654 C   0  0  0  0  0  0  0  0  0  0  0  0
   -2.9469    9.5350  -30.0344 C   0  0  0  0  0  0  0  0  0  0  0  0
    2.0307   17.8345  -29.9073 C   0  0  0  0  0  0  0  0  0  0  0  0
   -1.6674   14.9887  -28.0644 C   0  0  0  0  0  0  0  0  0  0  0  0
    2.3274   16.4996  -29.9064 C   0  0  0  0  0  0  0  0  0  0  0  0
   -0.7589   16.0782  -28.0054 C   0  0  0  0  0  0  0  0  0  0  0  0
   -2.7280   15.1965  -27.1545 C   0  0  0  0  0  0  0  0  0  0  0  0
    1.2917   19.9907  -29.7925 C   0  0  0  0  0  0  0  0  0  0  0  0
   -2.9802   19.1250  -24.2228 C   0  0  0  0  0  0  0  0  0  0  0  0
   -0.8887   11.1494  -29.8464 C   0  0  0  0  0  0  0  0  0  0  0  0
   -1.7660   13.7176  -28.7874 C   0  0  0  0  0  0  0  0  0  0  0  0
   -0.0616   17.3192  -21.8101 C   0  0  0  0  0  0  0  0  0  0  0  0
   -1.6803   18.8878  -24.7028 C   0  0  0  0  0  0  0  0  0  0  0  0
   -2.2951   18.5645  -20.7392 O   0  0  0  0  0  0  0  0  0  0  0  0
    0.2404   11.0430  -28.8147 C   0  0  0  0  0  0  0  0  0  0  0  0
   -0.7677   18.2865  -26.8463 C   0  0  0  0  0  0  0  0  0  0  0  0
   -3.2762   19.0015  -22.8571 C   0  0  0  0  0  0  0  0  0  0  0  0
   -2.5469   12.6504  -27.9911 O   0  0  0  0  0  0  0  0  0  0  0  0
   -2.2872   10.7516  -29.4577 C   0  0  0  0  0  0  0  0  0  0  0  0
   -0.5972   11.1627  -31.3389 C   0  0  0  0  0  0  0  0  0  0  0  0
   -3.8812   10.2977  -27.5240 C   0  0  0  0  0  0  0  0  0  0  0  0
   -4.3428   10.7097  -26.1678 N   0  0  0  0  0  0  0  0  0  0  0  0
   -2.7744   11.2235  -28.1322 C   0  0  0  0  0  0  0  0  0  0  0  0
   -1.3315   17.0162  -27.1181 C   0  0  0  0  0  0  0  0  0  0  0  0
   -0.7157   18.3176  -23.9523 C   0  0  0  0  0  0  0  0  0  0  0  0
   -1.3317   19.3750  -26.1115 C   0  0  0  0  0  0  0  0  0  0  0  0
   -2.1978   18.5112  -22.0825 C   0  0  0  0  0  0  0  0  0  0  0  0
    1.3830   15.6979  -29.1821 C   0  0  0  0  0  0  0  0  0  0  0  0
   -2.5193   16.4593  -26.5502 O   0  0  0  0  0  0  0  0  0  0  0  0
   -0.9959   18.0598  -22.6488 C   0  0  0  0  0  0  0  0  0  0  0  0
    0.3771   16.5550  -28.6900 C   0  0  0  0  0  0  0  0  0  0  0  0
  1  5  1  0
  1 10  1  0
  2  3  1  0
  2 10  1  0
  3  5  2  0
  3 33  1  0
  4 21  1  0
  5  7  1  0
  6  8  1  0
  6  9  1  0
  6 13  1  0
  7 30  1  0
  8 26  2  0
  8 33  1  0
  9 31  1  0
 11 15  2  0
 11 19  1  0
 12 17  1  0
 12 21  1  0
 12 22  1  0
 13 20  1  0
 14 32  1  0
 15 27  1  0
 15 28  1  0
 16 29  1  0
 18 26  1  0
 18 28  1  0
 19 29  1  0
 20 25  1  0
 21 25  1  0
 23 24  1  0
 23 25  1  0
 26 31  1  0
 27 32  2  0
 29 32  1  0
 30 33  1  0
M  END
>  <ID>  (1) 
conformer_0

$$$$
