
     RDKit          3D

 30 32  0  0  0  0  0  0  0  0999 V2000
   -2.3699   16.5135  -26.3013 C   0  0  0  0  0  0  0  0  0  0  0  0
   -2.8758   14.1719  -27.4923 O   0  0  0  0  0  1  0  0  0  0  0  0
   -1.7756   18.6806  -25.4394 C   0  0  0  0  0  0  0  0  0  0  0  0
    3.8730   17.5906  -30.6596 F   0  0  0  0  0  0  0  0  0  0  0  0
   -0.9092   13.1833  -28.9025 C   0  0  0  0  0  0  0  0  0  0  0  0
   -0.8840   17.0600  -21.2021 C   0  0  0  0  0  0  0  0  0  0  0  0
   -2.1291   14.4136  -28.6761 P   0  0  0  0  0  4  0  0  0  0  0  0
   -1.5504   16.6247  -27.4454 C   0  0  0  0  0  0  0  0  0  0  0  0
   -2.2901   11.1026  -28.9241 C   0  0  0  0  0  0  0  0  0  0  0  0
   -1.0600   18.8584  -26.6551 C   0  0  0  0  0  0  0  0  0  0  0  0
    1.0400   16.5476  -28.7204 C   0  0  0  0  0  0  0  0  0  0  0  0
    1.9227   18.7962  -30.0142 C   0  0  0  0  0  0  0  0  0  0  0  0
   -3.2080   10.1075  -26.8979 C   0  0  0  0  0  0  0  0  0  0  0  0
    0.2862   17.7206  -28.5441 C   0  0  0  0  0  0  0  0  0  0  0  0
   -1.4338   15.7222  -28.4335 O   0  0  0  0  0  0  0  0  0  0  0  0
   -1.6138   12.1243  -29.7009 O   0  0  0  0  0  0  0  0  0  0  0  0
   -0.8729   18.0795  -22.4200 C   0  0  0  0  0  0  0  0  0  0  0  0
   -2.8386   14.3855  -29.9417 O   0  0  0  0  0  0  0  0  0  0  0  0
   -2.5244    9.9075  -29.5720 C   0  0  0  0  0  0  0  0  0  0  0  0
    0.7652   18.8437  -29.2918 C   0  0  0  0  0  0  0  0  0  0  0  0
    2.2092   16.4891  -29.3906 C   0  0  0  0  0  0  0  0  0  0  0  0
   -3.3115    8.8820  -27.5434 C   0  0  0  0  0  0  0  0  0  0  0  0
   -0.6366   20.1280  -26.9561 O   0  0  0  0  0  0  0  0  0  0  0  0
   -2.9832    8.7706  -28.8896 C   0  0  0  0  0  0  0  0  0  0  0  0
   -0.7819   17.8068  -27.5749 C   0  0  0  0  0  0  0  0  0  0  0  0
   -2.4582   17.4950  -25.3103 C   0  0  0  0  0  0  0  0  0  0  0  0
   -1.8192   19.5833  -24.3065 O   0  0  0  0  0  0  0  0  0  0  0  0
   -2.6823   11.2182  -27.5632 C   0  0  0  0  0  0  0  0  0  0  0  0
   -2.0358   18.9183  -22.9879 C   0  0  0  0  0  0  0  0  0  0  0  0
    2.6688   17.6324  -30.0185 C   0  0  0  0  0  0  0  0  0  0  0  0
  1  8  2  0
  1 26  1  0
  2  7  2  0
  3 10  1  0
  3 26  2  0
  3 27  1  0
  4 30  1  0
  5  7  1  0
  5 16  1  0
  6 17  1  0
  7 15  1  0
  7 18  1  0
  8 15  1  0
  8 25  1  0
  9 16  1  0
  9 19  1  0
  9 28  2  0
 10 23  1  0
 10 25  1  0
 11 14  2  0
 11 21  1  0
 12 20  2  0
 12 30  1  0
 13 22  2  0
 13 28  1  0
 14 20  1  0
 14 25  1  0
 17 29  2  3
 19 24  2  0
 21 30  2  0
 22 24  1  0
 27 29  1  0
M  END
>  <ID>  (1) 
conformer_0

$$$$
