
     RDKit          3D

 29 31  0  0  0  0  0  0  0  0999 V2000
    2.6086   16.7900  -29.3820 C   0  0  0  0  0  0  0  0  0  0  0  0
   -1.7021   14.3101  -27.9227 C   0  0  0  0  0  0  0  0  0  0  0  0
    1.2290   17.4162  -29.6069 C   0  0  0  0  0  0  0  0  0  0  0  0
    3.3565   16.8227  -30.7721 C   0  0  0  0  0  0  0  0  0  0  0  0
   -2.4879   12.1490  -28.1490 C   0  0  0  0  0  0  0  0  0  0  0  0
   -0.7477   12.9321  -29.5160 C   0  0  0  0  0  0  0  0  0  0  0  0
   -2.6278   19.2679  -24.5056 C   0  0  0  0  0  0  0  0  0  0  0  0
   -3.5365   20.3354  -24.5527 F   0  0  0  0  0  0  0  0  0  0  0  0
   -0.8239   16.5380  -21.0859 O   0  0  0  0  0  0  0  0  0  0  0  0
    0.1267   16.6239  -29.0866 N   0  0  0  0  0  0  0  0  0  0  0  0
   -0.5722   17.6619  -21.8300 C   0  0  0  0  0  0  0  0  0  0  0  0
   -1.5384   10.3995  -29.5293 C   0  0  0  0  0  0  0  0  0  0  0  0
   -1.7335   15.4942  -27.1321 N   0  0  0  0  0  0  0  0  0  0  0  0
   -0.8805   17.1573  -24.3343 C   0  0  0  0  0  0  0  0  0  0  0  0
   -1.4806   17.4314  -25.5821 C   0  0  0  0  0  0  0  0  0  0  0  0
   -2.6609    9.7085  -28.6566 C   0  0  0  0  0  0  0  0  0  0  0  0
   -2.0400   18.9944  -23.2950 C   0  0  0  0  0  0  0  0  0  0  0  0
   -1.5317   11.8682  -29.1116 C   0  0  0  0  0  0  0  0  0  0  0  0
    0.1019   18.6886  -21.2687 O   0  0  0  0  0  0  0  0  0  0  0  0
   -1.1557   17.9013  -23.1841 C   0  0  0  0  0  0  0  0  0  0  0  0
   -0.8875   14.1251  -28.9701 N   0  0  0  0  0  0  0  0  0  0  0  0
   -3.3190   10.8728  -27.8860 C   0  0  0  0  0  0  0  0  0  0  0  0
   -2.3524   18.5219  -25.6168 C   0  0  0  0  0  0  0  0  0  0  0  0
   -1.2128   16.6449  -26.8074 C   0  0  0  0  0  0  0  0  0  0  0  0
   -4.3123   10.7221  -26.8659 C   0  0  0  0  0  0  0  0  0  0  0  0
    1.1167   18.4346  -30.4167 O   0  0  0  0  0  0  0  0  0  0  0  0
   -0.0345   18.4481  -27.6377 O   0  0  0  0  0  0  0  0  0  0  0  0
   -2.5508   13.3695  -27.5479 N   0  0  0  0  0  0  0  0  0  0  0  0
   -0.3691   17.2538  -27.8854 C   0  0  0  0  0  0  0  0  0  0  0  0
  1  3  1  0
  1  4  1  0
  2 13  1  0
  2 21  2  0
  2 28  1  0
  3 10  1  0
  3 26  2  0
  5 18  1  0
  5 22  1  0
  5 28  2  0
  6 18  2  0
  6 21  1  0
  7  8  1  0
  7 17  2  0
  7 23  1  0
  9 11  2  0
 10 29  1  0
 11 19  1  0
 11 20  1  0
 12 16  1  0
 12 18  1  0
 13 24  1  0
 14 15  1  0
 14 20  2  0
 15 23  2  0
 15 24  1  0
 16 22  1  0
 17 20  1  0
 22 25  1  0
 24 29  1  0
 27 29  2  0
M  END
>  <ID>  (1) 
conformer_0

$$$$
