
     RDKit          3D

 42 48  0  0  0  0  0  0  0  0999 V2000
   -0.1185   16.7979  -21.6895 O   0  0  0  0  0  0  0  0  0  0  0  0
   -2.2834   17.6682  -20.8667 C   0  0  0  0  0  0  0  0  0  0  0  0
    0.5305   19.1486  -28.0868 C   0  0  0  0  0  0  0  0  0  0  0  0
   -1.9786   18.8023  -24.4913 C   0  0  0  0  0  0  0  0  0  0  0  0
   -2.4240    9.1389  -28.4117 C   0  0  0  0  0  0  0  0  0  0  0  0
   -2.4006   17.5016  -26.7100 C   0  0  0  0  0  0  0  0  0  0  0  0
   -1.6559   19.0193  -20.3513 C   0  0  0  0  0  0  0  0  0  0  0  0
    4.0724   17.7076  -30.3042 C   0  0  0  0  0  0  0  0  0  0  0  0
    1.5158   18.9000  -29.0792 N   0  0  0  0  0  0  0  0  0  0  0  0
    0.2966   18.2131  -21.6912 C   0  0  0  0  0  0  0  0  0  0  0  0
   -0.2323   19.0032  -22.8908 C   0  0  0  0  0  0  0  0  0  0  0  0
    2.4195   18.2734  -31.9760 C   0  0  0  0  0  0  0  0  0  0  0  0
   -3.5593   17.6089  -25.8843 C   0  0  0  0  0  0  0  0  0  0  0  0
   -3.4355   18.5399  -24.6888 C   0  0  0  0  0  0  0  0  0  0  0  0
   -2.4718   17.8175  -22.2864 C   0  0  0  0  0  0  0  0  0  0  0  0
   -1.1796   15.8620  -28.1543 C   0  0  0  0  0  0  0  0  0  0  0  0
   -2.8804   11.3835  -27.5824 C   0  0  0  0  0  0  0  0  0  0  0  0
   -1.1609   16.5737  -20.6356 C   0  0  0  0  0  0  0  0  0  0  0  0
   -0.1473   11.6134  -30.1511 C   0  0  0  0  0  0  0  0  0  0  0  0
    1.6132   17.6801  -29.6646 C   0  0  0  0  0  0  0  0  0  0  0  0
    2.7342   17.3762  -30.7963 C   0  0  0  0  0  0  0  0  0  0  0  0
   -1.6918   18.8192  -23.0512 C   0  0  0  0  0  0  0  0  0  0  0  0
   -4.0287   19.7439  -24.9370 F   0  0  0  0  0  0  0  0  0  0  0  0
   -2.0903   13.5945  -28.3588 C   0  0  0  0  0  0  0  0  0  0  0  0
    0.7675   16.6977  -29.3272 C   0  0  0  0  0  0  0  0  0  0  0  0
   -2.1389   12.0803  -28.5641 C   0  0  0  0  0  0  0  0  0  0  0  0
   -1.0955   19.1565  -25.5347 C   0  0  0  0  0  0  0  0  0  0  0  0
   -3.1718   14.1341  -27.6944 C   0  0  0  0  0  0  0  0  0  0  0  0
   -3.6558    9.5262  -26.3105 C   0  0  0  0  0  0  0  0  0  0  0  0
   -1.3231   11.6876  -30.9642 C   0  0  0  0  0  0  0  0  0  0  0  0
    2.8292   15.8980  -31.0066 C   0  0  0  0  0  0  0  0  0  0  0  0
   -1.2977   18.3313  -26.6929 N   0  0  0  0  0  0  0  0  0  0  0  0
   -2.9573   10.0226  -27.4815 C   0  0  0  0  0  0  0  0  0  0  0  0
   -2.3077   16.2534  -27.3875 C   0  0  0  0  0  0  0  0  0  0  0  0
   -3.3216   15.3775  -27.1880 C   0  0  0  0  0  0  0  0  0  0  0  0
   -1.6967    9.7508  -29.4620 C   0  0  0  0  0  0  0  0  0  0  0  0
   -1.5027   11.1823  -29.5669 C   0  0  0  0  0  0  0  0  0  0  0  0
   -0.2192   16.9022  -28.3946 C   0  0  0  0  0  0  0  0  0  0  0  0
   -0.3308   18.1270  -27.7164 C   0  0  0  0  0  0  0  0  0  0  0  0
   -0.2099   18.9984  -20.5219 O   0  0  0  0  0  0  0  0  0  0  0  0
   -1.1117   14.5479  -28.6836 C   0  0  0  0  0  0  0  0  0  0  0  0
   -4.3644   18.0087  -23.7959 F   0  0  0  0  0  0  0  0  0  0  0  0
  1 10  1  0
  1 18  1  0
  2  7  1  0
  2 15  1  0
  2 18  1  0
  3  9  2  0
  3 39  1  0
  4 14  1  0
  4 22  1  0
  4 27  1  0
  5 33  1  0
  5 36  1  0
  6 13  1  0
  6 32  1  0
  6 34  1  0
  7 40  1  0
  8 21  1  0
  9 20  1  0
 10 11  1  0
 10 40  1  0
 11 22  1  0
 12 21  1  0
 13 14  1  0
 14 23  1  0
 14 42  1  0
 15 22  1  0
 16 34  2  0
 16 38  1  0
 16 41  1  0
 17 26  1  0
 17 33  2  0
 19 30  1  0
 20 21  1  0
 20 25  2  0
 21 31  1  0
 24 26  1  0
 24 28  1  0
 24 41  2  0
 25 38  1  0
 26 37  1  0
 27 32  1  0
 28 35  2  0
 29 33  1  0
 30 37  1  0
 32 39  1  0
 34 35  1  0
 36 37  1  0
 38 39  2  0
M  END
>  <ID>  (1) 
conformer_0

$$$$
