
     RDKit          3D

 34 37  0  0  0  0  0  0  0  0999 V2000
    0.3301   17.2331  -29.1836 N   0  0  0  0  0  0  0  0  0  0  0  0
   -1.4450   12.3596  -29.6796 C   0  0  0  0  0  0  0  0  0  0  0  0
   -2.1037   12.8066  -28.5612 C   0  0  0  0  0  0  0  0  0  0  0  0
   -0.9418   17.7187  -22.4719 C   0  0  0  0  0  0  0  0  0  0  0  0
   -0.8790   10.4938  -31.1730 C   0  0  0  0  0  0  0  0  0  0  0  0
   -0.4339   17.2819  -28.1279 C   0  0  0  0  0  0  0  0  0  0  0  0
   -1.2754   18.0402  -24.6807 C   0  0  0  0  0  0  0  0  0  0  0  0
   -1.5649   17.4188  -20.1162 C   0  0  0  0  0  0  0  0  0  0  0  0
   -2.0180   18.6090  -22.6038 C   0  0  0  0  0  0  0  0  0  0  0  0
   -2.8151   20.1085  -24.3758 C   0  0  0  0  0  0  0  0  0  0  0  0
   -0.5433   17.0398  -21.2090 C   0  0  0  0  0  0  0  0  0  0  0  0
   -2.3558   14.2251  -28.2599 C   0  0  0  0  0  0  0  0  0  0  0  0
   -2.0198   10.0878  -29.0749 N   0  0  0  0  0  0  0  0  0  0  0  0
    2.2199   18.1636  -30.5385 C   0  0  0  0  0  0  0  0  0  0  0  0
   -3.1645    8.3405  -27.0841 O   0  0  0  0  0  0  0  0  0  0  0  0
    1.0603   19.4366  -28.5941 C   0  0  0  0  0  0  0  0  0  0  0  0
   -0.4505   18.2383  -27.1073 N   0  0  0  0  0  0  0  0  0  0  0  0
   -2.6079   10.5715  -27.9407 C   0  0  0  0  0  0  0  0  0  0  0  0
   -1.2555   17.7305  -26.0275 C   0  0  0  0  0  0  0  0  0  0  0  0
    0.2446   19.4198  -27.4203 C   0  0  0  0  0  0  0  0  0  0  0  0
   -1.4209   15.1564  -28.4889 N   0  0  0  0  0  0  0  0  0  0  0  0
   -3.6521   18.9841  -24.7102 C   0  0  0  0  0  0  0  0  0  0  0  0
    1.1405   18.2882  -29.4322 C   0  0  0  0  0  0  0  0  0  0  0  0
    3.0517   16.9090  -30.3148 C   0  0  0  0  0  0  0  0  0  0  0  0
   -1.4674   10.9684  -29.9472 C   0  0  0  0  0  0  0  0  0  0  0  0
   -4.3377   10.4478  -26.1620 C   0  0  0  0  0  0  0  0  0  0  0  0
   -1.9328   16.5732  -26.5204 C   0  0  0  0  0  0  0  0  0  0  0  0
   -2.3084   18.8538  -23.9922 C   0  0  0  0  0  0  0  0  0  0  0  0
   -3.3687   14.4943  -27.5872 O   0  0  0  0  0  0  0  0  0  0  0  0
    1.8288   18.5665  -31.8023 O   0  0  0  0  0  0  0  0  0  0  0  0
   -0.4052   17.4725  -23.7494 C   0  0  0  0  0  0  0  0  0  0  0  0
   -2.6247   11.9013  -27.6732 N   0  0  0  0  0  0  0  0  0  0  0  0
   -3.3255    9.6730  -26.9334 C   0  0  0  0  0  0  0  0  0  0  0  0
   -1.3522   16.2706  -27.7622 C   0  0  0  0  0  0  0  0  0  0  0  0
  1  6  2  0
  1 23  1  0
  2  3  2  0
  2 25  1  0
  3 12  1  0
  3 32  1  0
  4  9  1  0
  4 11  1  0
  4 31  1  0
  5 25  1  0
  6 17  1  0
  6 34  1  0
  7 19  1  0
  7 28  1  0
  7 31  1  0
  8 11  1  0
  9 28  1  0
 10 22  1  0
 10 28  1  0
 12 21  1  0
 12 29  2  0
 13 18  1  0
 13 25  2  0
 14 23  1  0
 14 24  1  0
 14 30  1  0
 15 33  1  0
 16 20  1  0
 16 23  2  0
 17 19  1  0
 17 20  1  0
 18 32  2  0
 18 33  1  0
 19 27  1  0
 21 34  1  0
 26 33  1  0
 27 34  1  0
M  END
>  <ID>  (1) 
conformer_0

$$$$
