
     RDKit          3D

 32 34  0  0  0  0  0  0  0  0999 V2000
   -3.1805   18.1041  -23.2143 O   0  0  0  0  0  0  0  0  0  0  0  0
   -3.2074    9.0188  -27.9161 C   0  0  0  0  0  0  0  0  0  0  0  0
   -0.8929   16.4762  -20.8192 C   0  0  0  0  0  0  0  0  0  0  0  0
   -1.6012   19.1114  -24.4110 O   0  0  0  0  0  0  0  0  0  0  0  0
   -2.7684   11.5377  -28.1045 C   0  0  0  0  0  0  0  0  0  0  0  0
   -1.3624   17.9473  -20.8849 C   0  0  0  0  0  0  0  0  0  0  0  0
   -1.3460   12.3645  -29.7667 C   0  0  0  0  0  0  0  0  0  0  0  0
   -1.3376   10.9949  -30.1893 C   0  0  0  0  0  0  0  0  0  0  0  0
   -0.9780   18.3903  -22.3021 N   0  0  0  0  0  0  0  0  0  0  0  0
    1.5025   16.1244  -29.0452 C   0  0  0  0  0  0  0  0  0  0  0  0
   -1.3845   15.2735  -28.0370 N   0  0  0  0  0  0  0  0  0  0  0  0
   -2.4649    8.8967  -29.0975 N   0  0  0  0  0  0  0  0  0  0  0  0
   -1.8174   17.1157  -26.0597 C   0  0  0  0  0  0  0  0  0  0  0  0
   -2.1999   12.6692  -28.6470 C   0  0  0  0  0  0  0  0  0  0  0  0
   -1.2984   16.5596  -27.2834 C   0  0  0  0  0  0  0  0  0  0  0  0
   -1.4731   18.4250  -25.6052 C   0  0  0  0  0  0  0  0  0  0  0  0
    1.5037   18.9590  -30.1679 C   0  0  0  0  0  0  0  0  0  0  0  0
   -3.6509    8.0036  -27.2737 O   0  0  0  0  0  0  0  0  0  0  0  0
    0.5056   17.0735  -28.8440 N   0  0  0  0  0  0  0  0  0  0  0  0
   -2.3814   14.2660  -28.4138 C   0  0  0  0  0  0  0  0  0  0  0  0
   -0.8239   19.2936  -26.4530 C   0  0  0  0  0  0  0  0  0  0  0  0
   -2.0259   18.6105  -23.2802 C   0  0  0  0  0  0  0  0  0  0  0  0
    2.7214   18.5951  -30.7364 C   0  0  0  0  0  0  0  0  0  0  0  0
   -3.3497   10.4523  -27.4980 N   0  0  0  0  0  0  0  0  0  0  0  0
   -0.4113   18.7855  -27.5118 C   0  0  0  0  0  0  0  0  0  0  0  0
   -1.9958   10.0576  -29.5451 C   0  0  0  0  0  0  0  0  0  0  0  0
    3.2348   17.3015  -30.4144 C   0  0  0  0  0  0  0  0  0  0  0  0
   -2.8143   14.6773  -29.6736 F   0  0  0  0  0  0  0  0  0  0  0  0
   -3.3454   14.4782  -27.5317 F   0  0  0  0  0  0  0  0  0  0  0  0
    2.6424   16.3389  -29.6902 C   0  0  0  0  0  0  0  0  0  0  0  0
    0.8316   18.2267  -29.4504 C   0  0  0  0  0  0  0  0  0  0  0  0
   -0.4301   17.4419  -27.9079 C   0  0  0  0  0  0  0  0  0  0  0  0
  1 22  2  0
  2 12  1  0
  2 18  2  0
  2 24  1  0
  3  6  1  0
  4 16  1  0
  4 22  1  0
  5 14  1  0
  5 24  1  0
  6  9  1  0
  7  8  2  0
  7 14  1  0
  8 26  1  0
  9 22  1  0
 10 19  1  0
 10 30  2  0
 11 15  1  0
 11 20  1  0
 12 26  1  0
 13 15  1  0
 13 16  2  0
 14 20  1  0
 15 32  1  0
 16 21  1  0
 17 23  2  0
 17 31  1  0
 19 31  1  0
 19 32  1  0
 20 28  1  0
 20 29  1  0
 21 25  2  0
 23 27  1  0
 25 32  1  0
 27 30  1  0
M  END
>  <ID>  (1) 
conformer_0

$$$$
