
     RDKit          3D

 26 28  0  0  0  0  0  0  0  0999 V2000
   -1.9281   12.1463  -28.3409 C   0  0  0  0  0  0  0  0  0  0  0  0
   -0.4162   18.2448  -27.0658 C   0  0  0  0  0  0  0  0  0  0  0  0
   -1.9951   18.0564  -22.6489 C   0  0  0  0  0  0  0  0  0  0  0  0
   -1.0602   16.9390  -27.0701 C   0  0  0  0  0  0  0  0  0  0  0  0
   -1.8136   10.9749  -29.3299 C   0  0  0  0  0  0  0  0  0  0  0  0
    0.4596   16.7333  -29.7462 N   0  0  0  0  0  0  0  0  0  0  0  0
   -2.7448   11.8804  -27.3149 O   0  0  0  0  0  0  0  0  0  0  0  0
    1.5602   18.7868  -30.4352 C   0  0  0  0  0  0  0  0  0  0  0  0
   -1.9072   16.6736  -26.0653 C   0  0  0  0  0  0  0  0  0  0  0  0
   -2.6814    9.7412  -28.9197 C   0  0  0  0  0  0  0  0  0  0  0  0
   -1.9253   19.1339  -21.9436 O   0  0  0  0  0  0  0  0  0  0  0  0
   -1.8679   14.8073  -28.0965 N   0  0  0  0  0  0  0  0  0  0  0  0
   -0.4099   10.4295  -29.5864 C   0  0  0  0  0  0  0  0  0  0  0  0
   -1.1243   19.0341  -24.8112 C   0  0  0  0  0  0  0  0  0  0  0  0
   -0.8728   15.7770  -27.9914 C   0  0  0  0  0  0  0  0  0  0  0  0
    0.2935   15.6121  -28.8150 C   0  0  0  0  0  0  0  0  0  0  0  0
    2.6741   17.2938  -29.1295 C   0  0  0  0  0  0  0  0  0  0  0  0
   -1.8978   13.5998  -28.8263 C   0  0  0  0  0  0  0  0  0  0  0  0
   -1.7786   18.1065  -24.1107 C   0  0  0  0  0  0  0  0  0  0  0  0
   -2.1272   17.1422  -24.9078 C   0  0  0  0  0  0  0  0  0  0  0  0
   -2.2531   11.3971  -30.7034 C   0  0  0  0  0  0  0  0  0  0  0  0
    1.1019   17.8997  -29.0964 C   0  0  0  0  0  0  0  0  0  0  0  0
    2.7647   17.8088  -30.6188 C   0  0  0  0  0  0  0  0  0  0  0  0
   -0.5902   19.1291  -26.0276 C   0  0  0  0  0  0  0  0  0  0  0  0
    0.4461   18.6958  -28.1558 C   0  0  0  0  0  0  0  0  0  0  0  0
   -1.9271   16.8676  -22.1201 O   0  0  0  0  0  0  0  0  0  0  0  0
  1  5  1  0
  1  7  1  0
  1 18  1  0
  2  4  1  0
  2 24  2  0
  2 25  1  0
  3 11  2  0
  3 19  1  0
  3 26  1  0
  4  9  1  0
  4 15  1  0
  5 10  1  0
  5 13  1  0
  5 21  1  0
  6 16  1  0
  6 22  1  0
  8 22  1  0
  8 23  1  0
  9 20  2  0
 12 15  2  3
 12 18  1  0
 14 19  2  0
 14 24  1  0
 15 16  1  0
 17 22  1  0
 17 23  1  0
 19 20  1  0
 22 25  1  0
M  END
>  <ID>  (1) 
conformer_0

$$$$
