
     RDKit          3D

 42 46  0  0  0  0  0  0  0  0999 V2000
   -0.7840   18.9733  -21.8601 C   0  0  0  0  0  0  0  0  0  0  0  0
   -2.0148   16.3255  -26.7753 C   0  0  0  0  0  0  0  0  0  0  0  0
   -0.1164   20.1005  -22.2573 F   0  0  0  0  0  0  0  0  0  0  0  0
   -1.1625   17.9273  -22.7074 C   0  0  0  0  0  0  0  0  0  0  0  0
   -3.3155    8.4507  -26.5729 C   0  0  0  0  0  0  0  0  0  0  0  0
   -0.6865   11.5800  -30.5760 C   0  0  0  0  0  0  0  0  0  0  0  0
    1.7102   18.5441  -32.4432 O   0  0  0  0  0  0  0  0  0  0  0  0
   -3.9858   18.2807  -24.7180 C   0  0  0  0  0  0  0  0  0  0  0  0
   -2.6590   17.4594  -24.7088 C   0  0  0  0  0  0  0  0  0  0  0  0
    2.7902   18.8965  -31.5021 C   0  0  0  0  0  0  0  0  0  0  0  0
   -0.1720   12.6086  -27.2211 C   0  0  0  0  0  0  0  0  0  0  0  0
   -1.2912   18.5453  -26.5232 N   0  0  0  0  0  0  0  0  0  0  0  0
   -2.8038    9.7323  -26.5357 C   0  0  0  0  0  0  0  0  0  0  0  0
   -3.2971    8.4201  -28.9091 C   0  0  0  0  0  0  0  0  0  0  0  0
   -0.7473   12.4030  -29.6184 C   0  0  0  0  0  0  0  0  0  0  0  0
   -3.5067   19.7290  -24.5773 C   0  0  0  0  0  0  0  0  0  0  0  0
   -0.4984   18.4486  -27.6183 C   0  0  0  0  0  0  0  0  0  0  0  0
    1.0968   19.3442  -29.1130 C   0  0  0  0  0  0  0  0  0  0  0  0
    2.7589   17.9454  -30.3275 C   0  0  0  0  0  0  0  0  0  0  0  0
   -3.0693   14.0327  -27.9905 O   0  0  0  0  0  0  0  0  0  0  0  0
   -1.1870   12.7503  -28.3351 N   0  0  0  0  0  0  0  0  0  0  0  0
   -1.8607   13.9617  -28.1622 C   0  0  0  0  0  0  0  0  0  0  0  0
    3.3241   16.6151  -30.6312 C   0  0  0  0  0  0  0  0  0  0  0  0
   -3.5998    7.8006  -27.7807 C   0  0  0  0  0  0  0  0  0  0  0  0
    1.4478   18.0752  -29.4993 C   0  0  0  0  0  0  0  0  0  0  0  0
   -1.2229   16.4617  -20.8917 C   0  0  0  0  0  0  0  0  0  0  0  0
    0.7349   16.9663  -29.0927 C   0  0  0  0  0  0  0  0  0  0  0  0
   -2.6408    9.7159  -28.9075 C   0  0  0  0  0  0  0  0  0  0  0  0
   -0.2622   17.1802  -28.1805 C   0  0  0  0  0  0  0  0  0  0  0  0
   -2.0821   19.7308  -24.0414 O   0  0  0  0  0  0  0  0  0  0  0  0
   -1.9943   17.4862  -26.1221 C   0  0  0  0  0  0  0  0  0  0  0  0
   -1.2109   16.6271  -22.2352 C   0  0  0  0  0  0  0  0  0  0  0  0
   -0.9536   19.8723  -19.6274 F   0  0  0  0  0  0  0  0  0  0  0  0
   -1.1298   17.5049  -20.0145 C   0  0  0  0  0  0  0  0  0  0  0  0
   -2.3355    9.9408  -30.2447 C   0  0  0  0  0  0  0  0  0  0  0  0
    0.1355   19.6040  -28.1353 C   0  0  0  0  0  0  0  0  0  0  0  0
   -0.9611   18.8051  -20.5052 C   0  0  0  0  0  0  0  0  0  0  0  0
   -2.4520   10.3986  -27.7069 C   0  0  0  0  0  0  0  0  0  0  0  0
   -1.4381   10.5293  -30.9670 C   0  0  0  0  0  0  0  0  0  0  0  0
   -1.6781   18.3189  -23.9617 C   0  0  0  0  0  0  0  0  0  0  0  0
   -1.0626   16.1405  -27.7254 C   0  0  0  0  0  0  0  0  0  0  0  0
   -0.8370   14.9203  -28.2253 N   0  0  0  0  0  0  0  0  0  0  0  0
  1  3  1  0
  1  4  1  0
  1 37  1  0
  2 31  2  0
  2 41  1  0
  4 32  1  0
  4 40  1  0
  5 13  2  0
  5 24  1  0
  6 15  1  0
  6 39  2  3
  7 10  1  0
  8  9  1  0
  8 16  1  0
  9 31  1  0
  9 40  1  0
 10 19  1  0
 11 21  1  0
 12 17  2  0
 12 31  1  0
 13 38  1  0
 14 24  2  0
 14 28  1  0
 15 21  1  0
 16 30  1  0
 17 29  1  0
 17 36  1  0
 18 25  1  0
 18 36  1  0
 19 23  1  0
 19 25  1  0
 20 22  2  0
 21 22  1  0
 22 42  1  0
 25 27  2  0
 26 32  2  0
 26 34  1  0
 27 29  1  0
 28 35  1  0
 28 38  2  0
 29 41  2  0
 30 40  1  0
 33 37  1  0
 34 37  2  0
 35 39  1  0
 41 42  1  0
M  END
>  <ID>  (1) 
conformer_0

$$$$
