
     RDKit          3D

 29 31  0  0  0  0  0  0  0  0999 V2000
   -2.1776   16.1891  -27.0917 C   0  0  0  0  0  0  0  0  0  0  0  0
   -1.7889   13.2916  -29.2096 N   0  0  0  0  0  0  0  0  0  0  0  0
   -0.2861   18.8326  -27.3099 C   0  0  0  0  0  0  0  0  0  0  0  0
   -1.9999   18.9621  -24.8848 C   0  0  0  0  0  0  0  0  0  0  0  0
   -2.8621   10.4548  -27.0016 C   0  0  0  0  0  0  0  0  0  0  0  0
   -1.7878   14.5035  -28.5170 C   0  0  0  0  0  0  0  0  0  0  0  0
   -2.2813   10.9958  -29.6459 C   0  0  0  0  0  0  0  0  0  0  0  0
    0.7590   19.6808  -27.8197 C   0  0  0  0  0  0  0  0  0  0  0  0
    0.6923   17.5886  -28.9886 C   0  0  0  0  0  0  0  0  0  0  0  0
   -1.1956   16.5882  -27.9480 C   0  0  0  0  0  0  0  0  0  0  0  0
    3.8622   17.8765  -30.4550 O   0  0  0  0  0  0  0  0  0  0  0  0
   -2.5767   14.8545  -27.4245 C   0  0  0  0  0  0  0  0  0  0  0  0
   -3.4738   18.4251  -24.8540 C   0  0  0  0  0  0  0  0  0  0  0  0
    2.4881   16.0585  -30.5843 O   0  0  0  0  0  0  0  0  0  0  0  0
   -1.1502   18.9618  -26.1110 C   0  0  0  0  0  0  0  0  0  0  0  0
   -3.0496    9.4860  -27.9387 C   0  0  0  0  0  0  0  0  0  0  0  0
   -2.7400    9.6777  -29.2513 C   0  0  0  0  0  0  0  0  0  0  0  0
   -2.1065   18.0266  -22.3921 C   0  0  0  0  0  0  0  0  0  0  0  0
   -0.8672   17.5014  -21.4567 C   0  0  0  0  0  0  0  0  0  0  0  0
    1.5919   18.1522  -29.7542 C   0  0  0  0  0  0  0  0  0  0  0  0
   -1.3871   18.8082  -23.5063 C   0  0  0  0  0  0  0  0  0  0  0  0
   -3.5992    8.2392  -27.5328 F   0  0  0  0  0  0  0  0  0  0  0  0
    2.7428   17.3374  -30.3118 C   0  0  0  0  0  0  0  0  0  0  0  0
    1.6980   18.8913  -28.6105 C   0  0  0  0  0  0  0  0  0  0  0  0
   -0.3107   17.6706  -28.0844 C   0  0  0  0  0  0  0  0  0  0  0  0
   -2.4273   11.7419  -27.3592 C   0  0  0  0  0  0  0  0  0  0  0  0
   -2.1829   12.0142  -28.7110 C   0  0  0  0  0  0  0  0  0  0  0  0
   -1.0088   15.5357  -28.8786 C   0  0  0  0  0  0  0  0  0  0  0  0
   -1.6965   18.5874  -21.0352 C   0  0  0  0  0  0  0  0  0  0  0  0
  1 10  1  0
  1 12  1  0
  2  6  1  0
  2 27  2  3
  3  8  1  0
  3 15  2  0
  3 25  1  0
  4 13  1  0
  4 15  2  0
  4 21  1  0
  5 16  2  0
  5 26  1  0
  6 12  1  0
  6 28  1  0
  7 17  2  0
  7 27  1  0
  8 24  1  0
  9 20  1  0
  9 25  1  0
 10 25  2  3
 10 28  1  0
 11 23  2  0
 14 23  1  0
 16 17  1  0
 16 22  1  0
 18 21  1  0
 18 29  1  0
 19 29  1  0
 20 23  1  0
 20 24  1  0
 26 27  1  0
M  END
>  <ID>  (1) 
conformer_0

$$$$
