
     RDKit          3D

 42 45  0  0  0  0  0  0  0  0999 V2000
    1.6615   18.4111  -31.6010 O   0  0  0  0  0  0  0  0  0  0  0  0
    5.2762   17.0351  -26.2884 C   0  0  0  0  0  0  0  0  0  0  0  0
   -2.0807   18.4789  -20.7626 C   0  0  0  0  0  0  0  0  0  0  0  0
   -3.0499   12.9808  -27.7537 C   0  0  0  0  0  0  0  0  0  0  0  0
   -1.6778   18.5279  -25.6681 C   0  0  0  0  0  0  0  0  0  0  0  0
    1.0741   19.5182  -29.1710 C   0  0  0  0  0  0  0  0  0  0  0  0
    4.9560   16.4764  -27.4824 C   0  0  0  0  0  0  0  0  0  0  0  0
   -1.1071   14.5817  -27.9631 C   0  0  0  0  0  0  0  0  0  0  0  0
   -4.1863   10.6308  -26.0847 C   0  0  0  0  0  0  0  0  0  0  0  0
   -2.3676    8.9592  -28.8879 C   0  0  0  0  0  0  0  0  0  0  0  0
    6.3936   15.3256  -25.8318 C   0  0  0  0  0  0  0  0  0  0  0  0
   -3.1540    9.1784  -27.7866 C   0  0  0  0  0  0  0  0  0  0  0  0
    2.1863   17.8318  -30.5909 C   0  0  0  0  0  0  0  0  0  0  0  0
   -1.5516   19.7525  -26.4861 C   0  0  0  0  0  0  0  0  0  0  0  0
   -2.8669   11.5531  -27.9900 C   0  0  0  0  0  0  0  0  0  0  0  0
   -2.8431   18.4943  -22.0477 C   0  0  0  0  0  0  0  0  0  0  0  0
   -0.7698   17.7318  -20.9018 C   0  0  0  0  0  0  0  0  0  0  0  0
   -0.2618   14.2471  -26.8656 C   0  0  0  0  0  0  0  0  0  0  0  0
    3.8422   16.2348  -29.6497 C   0  0  0  0  0  0  0  0  0  0  0  0
    6.2097   16.5138  -25.5517 C   0  0  0  0  0  0  0  0  0  0  0  0
   -0.9610   16.3338  -21.0121 O   0  0  0  0  0  0  0  0  0  0  0  0
    1.9365   18.3546  -29.3268 N   0  0  0  0  0  0  0  0  0  0  0  0
   -2.8663   14.3412  -29.7984 F   0  0  0  0  0  0  0  0  0  0  0  0
   -1.3211   17.0525  -27.6308 C   0  0  0  0  0  0  0  0  0  0  0  0
   -1.8208   17.2339  -26.2596 C   0  0  0  0  0  0  0  0  0  0  0  0
   -1.7606   10.0624  -29.4851 C   0  0  0  0  0  0  0  0  0  0  0  0
   -2.0692   13.6531  -28.7648 C   0  0  0  0  0  0  0  0  0  0  0  0
   -0.1346   19.1941  -28.4046 C   0  0  0  0  0  0  0  0  0  0  0  0
   -3.3874   10.4698  -27.3063 C   0  0  0  0  0  0  0  0  0  0  0  0
   -2.0132   11.3538  -29.0183 C   0  0  0  0  0  0  0  0  0  0  0  0
   -0.5585   17.9307  -28.3670 C   0  0  0  0  0  0  0  0  0  0  0  0
    2.8959   16.5626  -30.6317 C   0  0  0  0  0  0  0  0  0  0  0  0
   -1.3785   12.5672  -29.4752 N   0  0  0  0  0  0  0  0  0  0  0  0
   -0.5208   18.8575  -23.1792 C   0  0  0  0  0  0  0  0  0  0  0  0
   -2.6742   18.7049  -24.5415 C   0  0  0  0  0  0  0  0  0  0  0  0
   -0.9643    9.9206  -30.5255 F   0  0  0  0  0  0  0  0  0  0  0  0
    3.9301   16.9977  -28.4192 N   0  0  0  0  0  0  0  0  0  0  0  0
   -1.5519   15.8618  -28.2036 N   0  0  0  0  0  0  0  0  0  0  0  0
   -1.9912   18.7404  -23.2274 C   0  0  0  0  0  0  0  0  0  0  0  0
    0.1234   18.3589  -21.9599 C   0  0  0  0  0  0  0  0  0  0  0  0
   -3.6911    8.1001  -27.1594 F   0  0  0  0  0  0  0  0  0  0  0  0
   -0.6618   20.1881  -27.5110 C   0  0  0  0  0  0  0  0  0  0  0  0
  1 13  2  0
  2  7  2  3
  2 20  1  0
  3 16  1  0
  3 17  1  0
  4 15  1  0
  4 27  1  0
  5 14  1  0
  5 25  1  0
  5 35  1  0
  6 22  1  0
  6 28  1  0
  7 37  1  0
  8 18  1  0
  8 27  1  0
  8 38  2  3
  9 29  1  0
 10 12  2  0
 10 26  1  0
 11 20  1  0
 12 29  1  0
 12 41  1  0
 13 22  1  0
 13 32  1  0
 14 42  1  0
 15 29  2  0
 15 30  1  0
 16 39  1  0
 17 21  1  0
 17 40  1  0
 19 32  2  3
 19 37  1  0
 23 27  1  0
 24 25  1  0
 24 31  2  0
 24 38  1  0
 26 30  2  0
 26 36  1  0
 27 33  1  0
 28 31  1  0
 28 42  2  0
 30 33  1  0
 34 39  1  0
 34 40  2  0
 35 39  1  0
M  END
>  <ID>  (1) 
conformer_0

$$$$
