
     RDKit          3D

 36 39  0  0  0  0  0  0  0  0999 V2000
   -0.2644   18.9072  -27.6545 C   0  0  0  0  0  0  0  0  0  0  0  0
    1.9427   19.1377  -31.0374 C   0  0  0  0  0  0  0  0  0  0  0  0
   -0.6988   16.5950  -28.0768 C   0  0  0  0  0  0  0  0  0  0  0  0
   -3.5912    9.3606  -28.5665 C   0  0  0  0  0  0  0  0  0  0  0  0
   -3.4689   10.6935  -27.4607 C   0  0  0  0  0  0  0  0  0  0  0  0
    1.9526   16.8360  -29.4635 C   0  0  0  0  0  0  0  0  0  0  0  0
   -0.9713   20.6097  -26.2420 O   0  0  0  0  0  0  0  0  0  0  0  0
    1.0317   17.8488  -29.2781 C   0  0  0  0  0  0  0  0  0  0  0  0
    2.8760   16.9895  -30.4562 C   0  0  0  0  0  0  0  0  0  0  0  0
   -2.5373   11.7072  -28.1393 C   0  0  0  0  0  0  0  0  0  0  0  0
    1.1586   19.3287  -22.8909 C   0  0  0  0  0  0  0  0  0  0  0  0
    0.4607   18.7241  -21.7805 C   0  0  0  0  0  0  0  0  0  0  0  0
   -1.6282   16.3303  -27.1386 C   0  0  0  0  0  0  0  0  0  0  0  0
   -1.5860   12.0087  -30.4669 N   0  0  0  0  0  0  0  0  0  0  0  0
   -1.3709   17.4486  -20.7325 C   0  0  0  0  0  0  0  0  0  0  0  0
   -0.6766   18.6427  -24.2953 C   0  0  0  0  0  0  0  0  0  0  0  0
   -2.0538   14.1949  -28.0901 N   0  0  0  0  0  0  0  0  0  0  0  0
    0.0059   17.7432  -28.2887 C   0  0  0  0  0  0  0  0  0  0  0  0
   -2.9715   18.5998  -23.5341 C   0  0  0  0  0  0  0  0  0  0  0  0
   -1.4827   18.3667  -23.1762 C   0  0  0  0  0  0  0  0  0  0  0  0
   -2.2469   18.0808  -20.0309 O   0  0  0  0  0  0  0  0  0  0  0  0
   -3.7621   17.6492  -23.4547 O   0  0  0  0  0  0  0  0  0  0  0  0
   -0.7798   19.2836  -26.5081 C   0  0  0  0  0  0  0  0  0  0  0  0
   -2.8692   13.1069  -28.0691 C   0  0  0  0  0  0  0  0  0  0  0  0
   -0.8555   16.2542  -20.4784 O   0  0  0  0  0  0  0  0  0  0  0  0
    2.8614   18.1146  -31.2710 C   0  0  0  0  0  0  0  0  0  0  0  0
   -0.8340   18.2000  -21.9049 C   0  0  0  0  0  0  0  0  0  0  0  0
   -1.1462   18.2492  -25.5777 C   0  0  0  0  0  0  0  0  0  0  0  0
   -2.4254   15.2190  -27.3173 N   0  0  0  0  0  0  0  0  0  0  0  0
   -1.7728   17.1203  -25.9932 C   0  0  0  0  0  0  0  0  0  0  0  0
   -2.6710    9.7484  -29.7451 C   0  0  0  0  0  0  0  0  0  0  0  0
    1.0668   19.0072  -30.0528 C   0  0  0  0  0  0  0  0  0  0  0  0
   -2.1202   11.1555  -29.4720 C   0  0  0  0  0  0  0  0  0  0  0  0
    0.6139   19.2740  -24.1523 C   0  0  0  0  0  0  0  0  0  0  0  0
   -2.8638    9.3549  -27.3279 C   0  0  0  0  0  0  0  0  0  0  0  0
   -3.2723   19.7123  -24.2872 O   0  0  0  0  0  0  0  0  0  0  0  0
  1 18  1  0
  1 23  2  0
  2 26  1  0
  2 32  2  0
  3 13  1  0
  3 18  2  0
  4 31  1  0
  4 35  1  0
  5 10  1  0
  5 35  1  0
  6  8  1  0
  6  9  2  0
  7 23  1  0
  8 18  1  0
  8 32  1  0
  9 26  1  0
 10 24  1  0
 10 33  1  0
 11 12  1  0
 11 34  2  0
 12 27  2  0
 13 29  1  0
 13 30  2  0
 14 33  1  0
 15 21  2  0
 15 25  1  0
 15 27  1  0
 16 20  1  0
 16 28  1  0
 16 34  1  0
 17 24  1  0
 17 29  2  3
 19 20  1  0
 19 22  2  0
 19 36  1  0
 20 27  1  0
 23 28  1  0
 28 30  1  0
 31 33  1  0
M  END
>  <ID>  (1) 
conformer_0

$$$$
