
     RDKit          3D

 30 33  0  0  0  0  0  0  0  0999 V2000
   -2.5372   10.2757  -27.9081 C   0  0  0  0  0  0  0  0  0  0  0  0
   -1.0211   18.7604  -26.8297 C   0  0  0  0  0  0  0  0  0  0  0  0
    1.3395   19.5843  -29.5411 C   0  0  0  0  0  0  0  0  0  0  0  0
   -1.7104   12.3331  -28.9314 C   0  0  0  0  0  0  0  0  0  0  0  0
   -1.5401   19.1035  -24.0290 C   0  0  0  0  0  0  0  0  0  0  0  0
    1.7887   15.8942  -29.3065 C   0  0  0  0  0  0  0  0  0  0  0  0
   -1.5380   17.8679  -22.1978 N   0  0  0  0  0  0  0  0  0  0  0  0
   -2.1095   14.4798  -27.7962 O   0  0  0  0  0  0  0  0  0  0  0  0
   -1.4898   13.7958  -28.8885 C   0  0  0  0  0  0  0  0  0  0  0  0
   -1.1207   19.0688  -22.6672 C   0  0  0  0  0  0  0  0  0  0  0  0
    0.4642   19.8271  -28.4949 C   0  0  0  0  0  0  0  0  0  0  0  0
   -1.5703   10.1683  -30.0975 C   0  0  0  0  0  0  0  0  0  0  0  0
   -3.2600    9.6308  -26.7421 C   0  0  0  0  0  0  0  0  0  0  0  0
   -2.3264   11.6418  -27.8788 C   0  0  0  0  0  0  0  0  0  0  0  0
   -3.4489   16.4637  -25.6475 O   0  0  0  0  0  0  0  0  0  0  0  0
    1.6555   18.2852  -29.9176 C   0  0  0  0  0  0  0  0  0  0  0  0
   -1.0671   17.2652  -20.9658 C   0  0  0  0  0  0  0  0  0  0  0  0
   -1.3527   11.5716  -30.0605 C   0  0  0  0  0  0  0  0  0  0  0  0
   -2.1386    9.4999  -29.0007 C   0  0  0  0  0  0  0  0  0  0  0  0
    0.0196   17.4331  -28.3958 C   0  0  0  0  0  0  0  0  0  0  0  0
    2.6258   18.0573  -31.0801 C   0  0  0  0  0  0  0  0  0  0  0  0
   -2.5079   17.2437  -25.5687 C   0  0  0  0  0  0  0  0  0  0  0  0
    1.0839   17.2098  -29.2486 C   0  0  0  0  0  0  0  0  0  0  0  0
   -1.0299   16.6585  -27.7558 C   0  0  0  0  0  0  0  0  0  0  0  0
   -1.6072   17.4806  -26.6964 C   0  0  0  0  0  0  0  0  0  0  0  0
   -4.5752   10.5954  -26.3617 Cl  0  0  0  0  0  0  0  0  0  0  0  0
   -0.1483   18.7450  -27.9112 C   0  0  0  0  0  0  0  0  0  0  0  0
   -1.6195   15.5547  -28.3799 C   0  0  0  0  0  0  0  0  0  0  0  0
   -2.2622   17.1682  -23.1340 C   0  0  0  0  0  0  0  0  0  0  0  0
   -2.1629   17.8668  -24.3216 C   0  0  0  0  0  0  0  0  0  0  0  0
  1 13  1  0
  1 14  2  0
  1 19  1  0
  2 25  1  0
  2 27  1  0
  3 11  1  0
  3 16  2  0
  4  9  1  0
  4 14  1  0
  4 18  2  0
  5 10  1  0
  5 30  1  0
  6 23  1  0
  7 10  1  0
  7 17  1  0
  7 29  1  0
  8  9  1  0
  8 28  1  0
 11 27  2  0
 12 18  1  0
 12 19  2  0
 13 26  1  0
 15 22  2  0
 16 21  1  0
 16 23  1  0
 20 23  1  0
 20 24  1  0
 20 27  1  0
 22 25  1  0
 22 30  1  0
 24 25  1  0
 24 28  1  0
 29 30  1  0
M  END
>  <ID>  (1) 
conformer_0

$$$$
