
     RDKit          3D

 26 28  0  0  0  0  0  0  0  0999 V2000
   -2.3521   11.1542  -29.3970 C   0  0  0  0  0  0  0  0  0  0  0  0
   -1.6758   17.8931  -23.0368 N   0  0  0  0  0  0  0  0  0  0  0  0
    1.8130   19.2687  -28.5268 C   0  0  0  0  0  0  0  0  0  0  0  0
   -2.3572   11.6695  -28.1097 C   0  0  0  0  0  0  0  0  0  0  0  0
   -1.6529   18.5281  -24.2923 C   0  0  0  0  0  0  0  0  0  0  0  0
   -2.1728   17.6868  -25.3400 C   0  0  0  0  0  0  0  0  0  0  0  0
    1.1964   18.0131  -29.2996 C   0  0  0  0  0  0  0  0  0  0  0  0
   -1.8032   14.2516  -28.0032 C   0  0  0  0  0  0  0  0  0  0  0  0
   -3.0569    8.9292  -28.5748 C   0  0  0  0  0  0  0  0  0  0  0  0
   -0.5846   16.6386  -21.3716 N   0  0  0  0  0  0  0  0  0  0  0  0
   -2.2573   15.1448  -27.0327 N   0  0  0  0  0  0  0  0  0  0  0  0
   -2.6638   10.8346  -27.0540 C   0  0  0  0  0  0  0  0  0  0  0  0
    2.2482   16.8283  -29.2376 C   0  0  0  0  0  0  0  0  0  0  0  0
   -3.0226    9.4505  -27.2977 C   0  0  0  0  0  0  0  0  0  0  0  0
   -0.7384   16.2033  -28.4199 N   0  0  0  0  0  0  0  0  0  0  0  0
   -0.9575   14.8996  -28.9079 C   0  0  0  0  0  0  0  0  0  0  0  0
   -1.5968   16.2353  -27.2295 C   0  0  0  0  0  0  0  0  0  0  0  0
   -2.0716   12.9665  -27.8595 N   0  0  0  0  0  0  0  0  0  0  0  0
   -2.8025   19.6510  -24.2097 C   0  0  0  0  0  0  0  0  0  0  0  0
    0.9130   18.4161  -30.5537 O   0  0  0  0  0  0  0  0  0  0  0  0
   -0.0554   17.4610  -28.4507 C   0  0  0  0  0  0  0  0  0  0  0  0
   -1.4351   17.4260  -26.5850 C   0  0  0  0  0  0  0  0  0  0  0  0
   -0.4174   18.9030  -21.2462 O   0  0  0  0  0  0  0  0  0  0  0  0
   -2.7184    9.7688  -29.6099 C   0  0  0  0  0  0  0  0  0  0  0  0
   -0.8538   17.9363  -21.8886 C   0  0  0  0  0  0  0  0  0  0  0  0
   -0.4775   18.1793  -27.3539 C   0  0  0  0  0  0  0  0  0  0  0  0
  1  4  1  0
  1 24  1  0
  2  5  1  0
  2 25  1  0
  3  7  1  0
  4 12  2  0
  4 18  1  0
  5  6  1  0
  5 19  1  0
  6 22  1  0
  7 13  1  0
  7 20  1  0
  7 21  1  0
  8 11  2  0
  8 16  1  0
  8 18  1  0
  9 14  1  0
  9 24  2  0
 10 25  1  0
 11 17  1  0
 12 14  1  0
 15 16  1  0
 15 17  1  0
 15 21  1  0
 17 22  2  0
 21 26  1  0
 22 26  1  0
 23 25  2  0
M  END
>  <ID>  (1) 
conformer_0

$$$$
