
     RDKit          3D

 29 30  0  0  0  0  0  0  0  0999 V2000
   -1.6960   17.6197  -23.0889 N   0  0  0  0  0  0  0  0  0  0  0  0
   -2.8243    9.6608  -28.6685 C   0  0  0  0  0  0  0  0  0  0  0  0
    2.4071   18.6351  -30.6944 C   0  0  0  0  0  0  0  0  0  0  0  0
   -1.9487   17.9597  -25.4834 C   0  0  0  0  0  0  0  0  0  0  0  0
    0.4467   18.7298  -29.2489 C   0  0  0  0  0  0  0  0  0  0  0  0
    0.4282   17.5292  -28.5745 C   0  0  0  0  0  0  0  0  0  0  0  0
   -1.7660   18.5433  -21.8019 C   0  0  0  0  0  0  0  0  0  0  0  0
   -2.8622   19.6526  -23.9026 C   0  0  0  0  0  0  0  0  0  0  0  0
   -3.5185    8.9020  -27.6176 C   0  0  0  0  0  0  0  0  0  0  0  0
   -1.4840   16.4186  -27.1341 C   0  0  0  0  0  0  0  0  0  0  0  0
   -0.8524   10.1963  -30.1665 C   0  0  0  0  0  0  0  0  0  0  0  0
   -0.6696   14.5403  -28.9655 O   0  0  0  0  0  0  0  0  0  0  0  0
   -2.9102   11.0960  -28.3246 C   0  0  0  0  0  0  0  0  0  0  0  0
    1.4256   16.5902  -28.7380 C   0  0  0  0  0  0  0  0  0  0  0  0
   -2.3459   13.2700  -28.4293 N   0  0  0  0  0  0  0  0  0  0  0  0
   -0.6385   17.2020  -27.7257 N   0  0  0  0  0  0  0  0  0  0  0  0
   -0.8189   17.9302  -20.8752 C   0  0  0  0  0  0  0  0  0  0  0  0
   -0.9787   16.4399  -20.9477 C   0  0  0  0  0  0  0  0  0  0  0  0
   -1.7643   16.6162  -25.7340 O   0  0  0  0  0  0  0  0  0  0  0  0
    2.9733   17.4004  -30.3905 C   0  0  0  0  0  0  0  0  0  0  0  0
   -1.7745   11.9692  -28.5069 C   0  0  0  0  0  0  0  0  0  0  0  0
   -1.6863   18.9794  -26.2276 O   0  0  0  0  0  0  0  0  0  0  0  0
   -2.3853   15.4691  -27.6645 C   0  0  0  0  0  0  0  0  0  0  0  0
    2.4569   16.4908  -29.5054 C   0  0  0  0  0  0  0  0  0  0  0  0
   -0.8238   11.6539  -29.6645 C   0  0  0  0  0  0  0  0  0  0  0  0
   -1.4011    9.2675  -29.0552 C   0  0  0  0  0  0  0  0  0  0  0  0
   -2.5502   18.1801  -24.1155 C   0  0  0  0  0  0  0  0  0  0  0  0
    1.3003   19.1773  -30.1398 C   0  0  0  0  0  0  0  0  0  0  0  0
   -1.7114   14.4283  -28.4087 C   0  0  0  0  0  0  0  0  0  0  0  0
  1  7  1  0
  1 27  1  0
  2  9  1  0
  2 13  1  0
  2 26  1  0
  3 20  2  0
  3 28  1  0
  4 19  1  0
  4 22  2  0
  4 27  1  0
  5  6  1  0
  5 28  2  0
  6 14  1  0
  6 16  1  0
  7 17  1  0
  8 27  1  0
 10 16  1  0
 10 19  1  0
 10 23  1  0
 11 25  1  0
 11 26  1  0
 12 29  2  0
 13 21  1  0
 14 24  2  0
 15 21  1  0
 15 29  1  0
 17 18  1  0
 20 24  1  0
 21 25  1  0
 23 29  1  0
M  END
>  <ID>  (1) 
conformer_0

$$$$
