
     RDKit          3D

 30 32  0  0  0  0  0  0  0  0999 V2000
   -2.0619   12.9000  -29.1717 C   0  0  0  0  0  0  0  0  0  0  0  0
   -2.7748   10.2123  -28.9372 C   0  0  0  0  0  0  0  0  0  0  0  0
   -0.6435   18.3342  -22.4841 C   0  0  0  0  0  0  0  0  0  0  0  0
   -1.4068   17.2288  -20.6381 C   0  0  0  0  0  0  0  0  0  0  0  0
   -1.6103   17.9098  -25.9222 C   0  0  0  0  0  0  0  0  0  0  0  0
    0.9547   19.8697  -29.5824 C   0  0  0  0  0  0  0  0  0  0  0  0
   -1.4210   16.0176  -27.4541 C   0  0  0  0  0  0  0  0  0  0  0  0
   -1.2875   10.5970  -28.8279 O   0  0  0  0  0  0  0  0  0  0  0  0
   -0.2102   18.8195  -27.7887 C   0  0  0  0  0  0  0  0  0  0  0  0
   -3.0012   11.3077  -26.8527 O   0  0  0  0  0  0  0  0  0  0  0  0
   -1.1043   11.4371  -31.0077 C   0  0  0  0  0  0  0  0  0  0  0  0
   -1.7024   18.5481  -21.2604 C   0  0  0  0  0  0  0  0  0  0  0  0
   -0.2806   16.9761  -21.6236 C   0  0  0  0  0  0  0  0  0  0  0  0
    1.2117   18.2309  -29.6693 C   0  0  0  0  0  0  0  0  0  0  0  0
   -4.8125    9.9579  -27.4379 C   0  0  0  0  0  0  0  0  0  0  0  0
    0.0433   17.7467  -28.6741 C   0  0  0  0  0  0  0  0  0  0  0  0
   -1.8660   14.6928  -27.5687 O   0  0  0  0  0  0  0  0  0  0  0  0
    0.3889   20.1566  -28.2336 C   0  0  0  0  0  0  0  0  0  0  0  0
    2.4707   17.8200  -28.8099 C   0  0  0  0  0  0  0  0  0  0  0  0
   -0.5782   16.5060  -28.4697 C   0  0  0  0  0  0  0  0  0  0  0  0
    1.4485   17.9410  -30.9270 O   0  0  0  0  0  0  0  0  0  0  0  0
   -3.3118   10.1115  -27.4925 C   0  0  0  0  0  0  0  0  0  0  0  0
   -2.6326    8.8561  -26.9266 C   0  0  0  0  0  0  0  0  0  0  0  0
   -0.9627   11.8087  -29.5521 C   0  0  0  0  0  0  0  0  0  0  0  0
   -1.8734   16.6383  -26.3283 C   0  0  0  0  0  0  0  0  0  0  0  0
   -2.1794   18.3730  -24.5642 C   0  0  0  0  0  0  0  0  0  0  0  0
   -1.2741   14.0435  -28.6638 C   0  0  0  0  0  0  0  0  0  0  0  0
   -1.4449   17.7269  -23.5304 N   0  0  0  0  0  0  0  0  0  0  0  0
   -3.7180   18.4579  -24.6463 C   0  0  0  0  0  0  0  0  0  0  0  0
   -0.8827   18.8209  -26.6468 C   0  0  0  0  0  0  0  0  0  0  0  0
  1 24  1  0
  1 27  1  0
  2  8  1  0
  2 22  1  0
  3 12  1  0
  3 13  1  0
  3 28  1  0
  4 12  1  0
  4 13  1  0
  5 25  1  0
  5 26  1  0
  5 30  1  0
  6 14  1  0
  6 18  1  0
  7 17  1  0
  7 20  1  0
  7 25  2  0
  8 24  1  0
  9 16  1  0
  9 18  1  0
  9 30  2  0
 10 22  1  0
 11 24  1  0
 14 16  1  0
 14 19  1  0
 14 21  1  0
 15 22  1  0
 16 20  2  0
 17 27  1  0
 22 23  1  0
 26 28  1  0
 26 29  1  0
M  END
>  <ID>  (1) 
conformer_0

$$$$
