
     RDKit          3D

 44 48  0  0  0  0  0  0  0  0999 V2000
   -1.9498   12.4410  -30.2313 C   0  0  0  0  0  0  0  0  0  0  0  0
   -3.8827   10.5024  -27.2173 C   0  0  0  0  0  0  0  0  0  0  0  0
   -1.1144   17.0339  -20.4016 C   0  0  0  0  0  0  0  0  0  0  0  0
   -0.9603   19.6551  -24.6021 C   0  0  0  0  0  0  0  0  0  0  0  0
   -0.5679   17.7633  -21.5595 C   0  0  0  0  0  0  0  0  0  0  0  0
    0.4530   18.8070  -21.4362 C   0  0  0  0  0  0  0  0  0  0  0  0
   -1.6913   18.8966  -25.6067 C   0  0  0  0  0  0  0  0  0  0  0  0
   -3.8586   18.7359  -24.4399 C   0  0  0  0  0  0  0  0  0  0  0  0
   -1.8001   18.6678  -22.0829 C   0  0  0  0  0  0  0  0  0  0  0  0
   -0.1408   17.2979  -28.4901 C   0  0  0  0  0  0  0  0  0  0  0  0
   -1.9863   12.9624  -28.8625 C   0  0  0  0  0  0  0  0  0  0  0  0
   -0.0498   16.8598  -22.3662 O   0  0  0  0  0  0  0  0  0  0  0  0
   -2.0014   10.9371  -30.4337 C   0  0  0  0  0  0  0  0  0  0  0  0
    2.6596   20.0882  -30.7048 F   0  0  0  0  0  0  0  0  0  0  0  0
   -2.8511   17.9137  -22.0969 F   0  0  0  0  0  0  0  0  0  0  0  0
    2.1530   18.3295  -31.8722 F   0  0  0  0  0  0  0  0  0  0  0  0
    1.4080   18.4687  -29.5735 C   0  0  0  0  0  0  0  0  0  0  0  0
    0.6279   19.3746  -28.6883 C   0  0  0  0  0  0  0  0  0  0  0  0
   -1.8724   19.6687  -21.0655 F   0  0  0  0  0  0  0  0  0  0  0  0
   -0.3534   18.5973  -27.9119 C   0  0  0  0  0  0  0  0  0  0  0  0
   -2.2600   14.3528  -28.3543 C   0  0  0  0  0  0  0  0  0  0  0  0
   -2.7062   17.9778  -24.9505 C   0  0  0  0  0  0  0  0  0  0  0  0
    1.1065   19.2226  -22.5140 F   0  0  0  0  0  0  0  0  0  0  0  0
   -1.3664   18.3764  -26.8803 N   0  0  0  0  0  0  0  0  0  0  0  0
    0.9474   17.2360  -29.2906 C   0  0  0  0  0  0  0  0  0  0  0  0
   -1.9257   11.9545  -27.7482 C   0  0  0  0  0  0  0  0  0  0  0  0
    2.4580   18.7770  -30.6429 C   0  0  0  0  0  0  0  0  0  0  0  0
   -1.3431   15.7390  -20.5098 F   0  0  0  0  0  0  0  0  0  0  0  0
   -3.2245   14.5290  -27.6871 O   0  0  0  0  0  0  0  0  0  0  0  0
    3.6238   18.1537  -30.4015 F   0  0  0  0  0  0  0  0  0  0  0  0
    1.6172   16.0741  -29.5404 F   0  0  0  0  0  0  0  0  0  0  0  0
   -3.7229   20.0867  -24.1433 O   0  0  0  0  0  0  0  0  0  0  0  0
   -1.3557   15.2884  -28.8058 N   0  0  0  0  0  0  0  0  0  0  0  0
   -1.3002   19.3881  -23.1809 C   0  0  0  0  0  0  0  0  0  0  0  0
   -2.0360   17.0591  -27.1091 C   0  0  0  0  0  0  0  0  0  0  0  0
   -2.7035   10.2012  -29.3700 C   0  0  0  0  0  0  0  0  0  0  0  0
    0.7204   19.3389  -20.2955 F   0  0  0  0  0  0  0  0  0  0  0  0
   -3.0909    8.7733  -29.2916 C   0  0  0  0  0  0  0  0  0  0  0  0
   -2.7125   10.7273  -27.9755 C   0  0  0  0  0  0  0  0  0  0  0  0
   -1.3176   17.6088  -19.2804 F   0  0  0  0  0  0  0  0  0  0  0  0
   -2.8681    8.2868  -27.8632 C   0  0  0  0  0  0  0  0  0  0  0  0
   -2.6763    9.5798  -27.0010 C   0  0  0  0  0  0  0  0  0  0  0  0
   -2.8858   16.8379  -25.8704 C   0  0  0  0  0  0  0  0  0  0  0  0
   -1.1916   16.3975  -28.1490 C   0  0  0  0  0  0  0  0  0  0  0  0
  1 11  2  0
  1 13  1  0
  2 39  1  0
  3  5  1  0
  3 28  1  0
  3 40  1  0
  4  7  1  0
  4 34  1  0
  5  6  1  0
  5  9  1  0
  5 12  1  0
  6 23  1  0
  6 37  1  0
  7 22  1  0
  7 24  1  0
  8 22  1  0
  8 32  1  0
  9 15  1  0
  9 19  1  0
  9 34  1  0
 10 20  1  0
 10 25  1  0
 10 44  2  0
 11 21  1  0
 11 26  1  0
 13 36  1  0
 14 27  1  0
 16 27  1  0
 17 18  1  0
 17 25  1  0
 17 27  1  0
 18 20  1  0
 20 24  1  0
 21 29  2  0
 21 33  1  0
 22 43  1  0
 24 35  1  0
 25 31  1  0
 26 39  1  0
 27 30  1  0
 33 44  1  0
 35 43  1  0
 35 44  1  0
 36 38  1  0
 36 39  1  0
 38 41  1  0
 39 42  1  0
 41 42  1  0
M  END
>  <ID>  (1) 
conformer_0

$$$$
