
     RDKit          3D

 27 28  0  0  0  0  0  0  0  0999 V2000
   -2.6732    9.9060  -28.5399 C   0  0  0  0  0  0  0  0  0  0  0  0
   -2.7601   18.0797  -23.4950 C   0  0  0  0  0  0  0  0  0  0  0  0
   -1.8871   14.7179  -28.1936 N   0  0  0  0  0  0  0  0  0  0  0  0
   -2.6016   17.6992  -25.8745 C   0  0  0  0  0  0  0  0  0  0  0  0
   -1.6900   18.0257  -23.0075 C   0  0  0  0  0  0  0  0  0  0  0  0
    0.4542   18.6511  -21.8853 C   0  0  0  0  0  0  0  0  0  0  0  0
   -0.8143   16.6667  -21.0675 C   0  0  0  0  0  0  0  0  0  0  0  0
   -2.0524   12.2074  -28.8606 C   0  0  0  0  0  0  0  0  0  0  0  0
   -3.0859    8.6312  -27.6561 Cl  0  0  0  0  0  0  0  0  0  0  0  0
   -2.1572   11.8164  -30.4945 S   0  0  0  0  0  0  0  0  0  0  0  0
   -1.7775   13.5011  -28.5449 C   0  0  0  0  0  0  0  0  0  0  0  0
    3.0867   16.9827  -30.2244 C   0  0  0  0  0  0  0  0  0  0  0  0
    0.7355   18.4160  -29.0982 C   0  0  0  0  0  0  0  0  0  0  0  0
   -0.6963   17.9863  -27.4223 C   0  0  0  0  0  0  0  0  0  0  0  0
   -2.6675    9.8694  -30.0501 S   0  0  0  0  0  0  0  0  0  0  0  0
   -1.7138   18.8963  -20.6432 C   0  0  0  0  0  0  0  0  0  0  0  0
    0.1579   19.0080  -27.9468 C   0  0  0  0  0  0  0  0  0  0  0  0
    0.3036   17.1196  -29.2691 N   0  0  0  0  0  0  0  0  0  0  0  0
    1.5564   19.0684  -30.2695 C   0  0  0  0  0  0  0  0  0  0  0  0
   -0.9839   18.0663  -21.7256 C   0  0  0  0  0  0  0  0  0  0  0  0
   -1.4892   17.9362  -26.3238 C   0  0  0  0  0  0  0  0  0  0  0  0
   -3.3099   17.8264  -24.7533 C   0  0  0  0  0  0  0  0  0  0  0  0
   -2.1820   11.2497  -26.6253 O   0  0  0  0  0  0  0  0  0  0  0  0
   -2.3163   11.1289  -27.9568 C   0  0  0  0  0  0  0  0  0  0  0  0
    2.5164   18.1244  -31.0244 C   0  0  0  0  0  0  0  0  0  0  0  0
   -1.3763   15.7745  -28.2125 N   0  0  0  0  0  0  0  0  0  0  0  0
   -0.5990   16.8672  -28.3428 C   0  0  0  0  0  0  0  0  0  0  0  0
  1  9  1  0
  1 15  1  0
  1 24  2  0
  2  5  2  3
  2 22  1  0
  3 11  1  0
  3 26  1  0
  4 21  2  3
  4 22  1  0
  5 20  1  0
  6 20  1  0
  7 20  1  0
  8 10  1  0
  8 11  1  0
  8 24  1  0
 10 15  1  0
 12 25  1  0
 13 17  1  0
 13 18  1  0
 13 19  1  0
 14 17  1  0
 14 21  1  0
 14 27  2  0
 16 20  1  0
 18 27  1  0
 19 25  1  0
 23 24  1  0
 26 27  1  0
M  END
>  <ID>  (1) 
conformer_0

$$$$
