
     RDKit          3D

 39 44  0  0  0  0  0  0  0  0999 V2000
   -3.1083    8.7533  -26.8572 N   0  0  0  0  0  0  0  0  0  0  0  0
   -3.7585   18.1231  -22.8851 F   0  0  0  0  0  0  0  0  0  0  0  0
   -2.2409   16.1225  -26.6118 N   0  0  0  0  0  0  0  0  0  0  0  0
    3.4500   15.8450  -31.0850 C   0  0  0  0  0  0  0  0  0  0  0  0
   -0.6549   16.6733  -28.2014 N   0  0  0  0  0  0  0  0  0  0  0  0
   -2.3512    9.6222  -29.2341 C   0  0  0  0  0  0  0  0  0  0  0  0
   -1.3148   15.5478  -28.7426 C   0  0  0  0  0  0  0  0  0  0  0  0
   -2.3351   14.4442  -28.9435 C   0  0  0  0  0  0  0  0  0  0  0  0
   -3.6429    8.1020  -27.8896 N   0  0  0  0  0  0  0  0  0  0  0  0
   -2.3115   10.7578  -28.1907 C   0  0  0  0  0  0  0  0  0  0  0  0
   -2.7469   18.8603  -23.4255 C   0  0  0  0  0  0  0  0  0  0  0  0
   -1.4402   18.4738  -22.9706 C   0  0  0  0  0  0  0  0  0  0  0  0
   -2.9740   20.2164  -23.1715 F   0  0  0  0  0  0  0  0  0  0  0  0
    0.2332   18.6105  -21.3254 O   0  0  0  0  0  0  0  0  0  0  0  0
   -0.8776   18.2961  -26.5077 C   0  0  0  0  0  0  0  0  0  0  0  0
   -1.2655   11.3650  -30.2103 C   0  0  0  0  0  0  0  0  0  0  0  0
   -2.1711   15.0568  -27.6595 N   0  0  0  0  0  0  0  0  0  0  0  0
   -1.4104   18.4783  -25.2202 C   0  0  0  0  0  0  0  0  0  0  0  0
    1.3563   16.8440  -29.5336 C   0  0  0  0  0  0  0  0  0  0  0  0
    0.4137   17.3942  -28.7199 C   0  0  0  0  0  0  0  0  0  0  0  0
   -2.6391   10.0793  -26.8889 C   0  0  0  0  0  0  0  0  0  0  0  0
   -2.3222   12.2761  -27.7153 N   0  0  0  0  0  0  0  0  0  0  0  0
    1.2085   19.6369  -29.2107 C   0  0  0  0  0  0  0  0  0  0  0  0
   -0.1436   19.2015  -27.2199 N   0  0  0  0  0  0  0  0  0  0  0  0
   -3.2551    8.5247  -29.1892 C   0  0  0  0  0  0  0  0  0  0  0  0
   -0.9998   18.1675  -21.5812 C   0  0  0  0  0  0  0  0  0  0  0  0
    3.4283   17.2705  -30.8971 O   0  0  0  0  0  0  0  0  0  0  0  0
    2.2843   17.6968  -30.1806 C   0  0  0  0  0  0  0  0  0  0  0  0
   -2.3703   10.6423  -25.7620 O   0  0  0  0  0  0  0  0  0  0  0  0
   -0.6381   18.3991  -24.0844 C   0  0  0  0  0  0  0  0  0  0  0  0
   -1.5197   13.4151  -29.3584 O   0  0  0  0  0  0  0  0  0  0  0  0
    0.4575   18.7479  -28.3685 C   0  0  0  0  0  0  0  0  0  0  0  0
   -3.8664   18.8491  -25.5893 F   0  0  0  0  0  0  0  0  0  0  0  0
   -1.3058   17.0795  -27.0602 C   0  0  0  0  0  0  0  0  0  0  0  0
   -1.6765   17.1836  -20.7626 C   0  0  0  0  0  0  0  0  0  0  0  0
   -1.7275   10.0672  -30.3780 N   0  0  0  0  0  0  0  0  0  0  0  0
   -2.6375   18.6588  -24.9136 C   0  0  0  0  0  0  0  0  0  0  0  0
    2.1043   19.0744  -30.1183 C   0  0  0  0  0  0  0  0  0  0  0  0
   -1.8405   12.0307  -28.8872 C   0  0  0  0  0  0  0  0  0  0  0  0
  1  9  1  0
  1 21  1  0
  2 11  1  0
  3 17  1  0
  3 34  2  0
  4 27  1  0
  5  7  1  0
  5 20  1  0
  5 34  1  0
  6 10  1  0
  6 25  1  0
  6 36  1  0
  7 17  1  0
  8 17  1  0
  8 31  1  0
  9 25  2  0
 10 21  1  0
 10 39  1  0
 11 12  1  0
 11 13  1  0
 11 37  1  0
 12 26  1  0
 12 30  1  0
 14 26  1  0
 15 18  1  0
 15 24  1  0
 15 34  1  0
 16 36  1  0
 16 39  1  0
 18 30  1  0
 18 37  2  0
 19 20  2  0
 19 28  1  0
 20 32  1  0
 21 29  2  0
 22 39  1  0
 23 32  1  0
 23 38  1  0
 24 32  2  0
 26 35  1  0
 27 28  1  0
 28 38  2  0
 31 39  1  0
 33 37  1  0
M  END
>  <ID>  (1) 
conformer_0

$$$$
