
     RDKit          3D

 43 46  0  0  0  0  0  0  0  0999 V2000
   -0.5212   19.5799  -26.4442 C   0  0  0  0  0  0  0  0  0  0  0  0
   -3.8613   10.3983  -26.6311 C   0  0  0  0  0  0  0  0  0  0  0  0
   -2.7411   13.0202  -27.7534 C   0  0  0  0  0  0  0  0  0  0  0  0
    0.7895   19.1693  -28.7155 C   0  0  0  0  0  0  0  0  0  0  0  0
   -1.3003   16.1475  -20.8062 O   0  0  0  0  0  0  0  0  0  0  0  0
   -1.6791   20.3535  -25.7454 C   0  0  0  0  0  0  0  0  0  0  0  0
   -3.0367    9.3166  -28.5566 C   0  0  0  0  0  0  0  0  0  0  0  0
   -1.8451   16.1264  -27.6565 C   0  0  0  0  0  0  0  0  0  0  0  0
   -2.6514   19.2378  -25.3384 C   0  0  0  0  0  0  0  0  0  0  0  0
   -2.5190   11.6571  -28.2655 C   0  0  0  0  0  0  0  0  0  0  0  0
   -2.3029   13.9801  -28.8503 C   0  0  0  0  0  0  0  0  0  0  0  0
    1.0637   19.8599  -30.0270 C   0  0  0  0  0  0  0  0  0  0  0  0
   -2.4195   18.8735  -23.7910 C   0  0  0  0  0  0  0  0  0  0  0  0
    2.1431   17.6382  -30.0574 C   0  0  0  0  0  0  0  0  0  0  0  0
   -0.5266   12.5868  -29.5889 C   0  0  0  0  0  0  0  0  0  0  0  0
   -1.6420   15.1452  -28.5233 O   0  0  0  0  0  0  0  0  0  0  0  0
    0.4185   20.0027  -27.5337 C   0  0  0  0  0  0  0  0  0  0  0  0
   -0.6681   10.2272  -30.9959 O   0  0  0  0  0  0  0  0  0  0  0  0
    1.2823   16.6213  -30.3244 O   0  0  0  0  0  0  0  0  0  0  0  0
   -3.9477   19.9476  -25.3882 C   0  0  0  0  0  0  0  0  0  0  0  0
    1.8996   18.1155  -28.5734 C   0  0  0  0  0  0  0  0  0  0  0  0
   -3.8462    8.3108  -28.1926 F   0  0  0  0  0  0  0  0  0  0  0  0
   -2.6564   16.4417  -26.3713 C   0  0  0  0  0  0  0  0  0  0  0  0
   -3.1281   10.4819  -27.8222 C   0  0  0  0  0  0  0  0  0  0  0  0
   -1.0443   18.5799  -21.2120 C   0  0  0  0  0  0  0  0  0  0  0  0
   -1.6194   11.6001  -29.3265 C   0  0  0  0  0  0  0  0  0  0  0  0
    0.3050   18.2676  -21.5032 O   0  0  0  0  0  0  0  0  0  0  0  0
   -1.2313   19.5471  -20.1117 C   0  0  0  0  0  0  0  0  0  0  0  0
   -1.1244   18.5236  -23.6597 O   0  0  0  0  0  0  0  0  0  0  0  0
   -1.7559   18.8764  -22.4560 C   0  0  0  0  0  0  0  0  0  0  0  0
   -3.7268   18.0300  -23.5077 C   0  0  0  0  0  0  0  0  0  0  0  0
   -1.7018   17.4899  -20.3298 C   0  0  0  0  0  0  0  0  0  0  0  0
   -0.9908   18.1777  -26.6829 C   0  0  0  0  0  0  0  0  0  0  0  0
   -2.2130    9.1852  -29.6138 C   0  0  0  0  0  0  0  0  0  0  0  0
   -5.1636   10.3325  -26.7064 F   0  0  0  0  0  0  0  0  0  0  0  0
    3.5861   17.1985  -30.2854 C   0  0  0  0  0  0  0  0  0  0  0  0
   -0.8718   17.2865  -27.8589 C   0  0  0  0  0  0  0  0  0  0  0  0
    1.9394   18.9600  -30.8962 C   0  0  0  0  0  0  0  0  0  0  0  0
   -2.3136   17.9357  -26.0219 O   0  0  0  0  0  0  0  0  0  0  0  0
   -3.1759   10.3184  -25.5120 F   0  0  0  0  0  0  0  0  0  0  0  0
   -1.4968   10.3165  -29.9912 C   0  0  0  0  0  0  0  0  0  0  0  0
   -1.7539   13.2629  -29.9857 O   0  0  0  0  0  0  0  0  0  0  0  0
   -4.5667   17.6287  -24.5947 O   0  0  0  0  0  0  0  0  0  0  0  0
  1  6  1  0
  1 17  1  0
  1 33  1  0
  2 24  1  0
  2 35  1  0
  2 40  1  0
  3 10  1  0
  3 11  1  0
  4 12  1  0
  4 17  1  0
  4 21  1  0
  5 32  1  0
  6  9  1  0
  7 22  1  0
  7 24  2  0
  7 34  1  0
  8 16  1  0
  8 23  1  0
  8 37  1  0
  9 13  1  0
  9 20  1  0
  9 39  1  0
 10 24  1  0
 10 26  1  0
 11 16  1  0
 11 42  1  0
 12 38  1  0
 13 29  1  0
 13 30  1  0
 13 31  1  0
 14 19  1  0
 14 21  1  0
 14 36  1  0
 14 38  1  0
 15 26  1  0
 15 42  1  0
 18 41  1  0
 25 27  1  0
 25 28  1  0
 25 30  1  0
 25 32  1  0
 26 41  1  0
 31 43  1  0
 33 37  1  0
 33 39  1  0
 34 41  2  0
M  END
>  <ID>  (1) 
conformer_0

$$$$
