
     RDKit          3D

 33 35  0  0  0  0  0  0  0  0999 V2000
   -3.9385    8.9965  -27.2387 O   0  0  0  0  0  1  0  0  0  0  0  0
   -3.7662   18.5438  -24.7889 C   0  0  0  0  0  0  0  0  0  0  0  0
   -0.5473   15.2208  -28.8122 N   0  0  0  0  0  0  0  0  0  0  0  0
   -1.4952   18.1959  -24.8117 C   0  0  0  0  0  0  0  0  0  0  0  0
    2.9233   18.0501  -30.6161 C   0  0  0  0  0  0  0  0  0  0  0  0
   -1.7956   12.3887  -30.2085 C   0  0  0  0  0  0  0  0  0  0  0  0
   -1.3439   11.1465  -30.9142 C   0  0  0  0  0  0  0  0  0  0  0  0
   -3.5833   10.3778  -26.7923 S   0  0  0  0  0  4  0  0  0  0  0  0
    0.1202   16.3645  -28.8240 N   0  0  0  0  0  0  0  0  0  0  0  0
    1.7209   18.9186  -30.9037 C   0  0  0  0  0  0  0  0  0  0  0  0
   -0.3011   17.4650  -28.0704 C   0  0  0  0  0  0  0  0  0  0  0  0
   -3.8653   19.0971  -25.9945 F   0  0  0  0  0  0  0  0  0  0  0  0
   -2.2689   10.0251  -28.9241 C   0  0  0  0  0  0  0  0  0  0  0  0
   -1.3548   17.5419  -20.3995 Cl  0  0  0  0  0  0  0  0  0  0  0  0
   -4.8421   17.9341  -24.3545 F   0  0  0  0  0  0  0  0  0  0  0  0
   -2.6861   11.2955  -28.1168 C   0  0  0  0  0  0  0  0  0  0  0  0
    0.0983   18.9164  -28.4412 C   0  0  0  0  0  0  0  0  0  0  0  0
   -1.5738   15.0337  -27.9319 C   0  0  0  0  0  0  0  0  0  0  0  0
   -1.4123   17.8646  -22.0698 C   0  0  0  0  0  0  0  0  0  0  0  0
   -1.2457   18.1039  -25.9973 C   0  0  0  0  0  0  0  0  0  0  0  0
   -2.5850   18.3295  -24.0834 C   0  0  0  0  0  0  0  0  0  0  0  0
   -0.4003   17.8609  -22.7696 C   0  0  0  0  0  0  0  0  0  0  0  0
   -2.5823   10.3175  -25.6835 O   0  0  0  0  0  1  0  0  0  0  0  0
    2.5974   17.2807  -29.2811 C   0  0  0  0  0  0  0  0  0  0  0  0
   -2.4295   13.7756  -27.9634 C   0  0  0  0  0  0  0  0  0  0  0  0
   -1.1850   17.1643  -27.0458 C   0  0  0  0  0  0  0  0  0  0  0  0
    0.8475   19.2441  -29.6698 C   0  0  0  0  0  0  0  0  0  0  0  0
    1.4044   16.4638  -29.6777 C   0  0  0  0  0  0  0  0  0  0  0  0
   -1.9924   12.6069  -28.6979 C   0  0  0  0  0  0  0  0  0  0  0  0
   -1.8755   16.0173  -27.0046 C   0  0  0  0  0  0  0  0  0  0  0  0
   -1.1418   10.0267  -29.8944 C   0  0  0  0  0  0  0  0  0  0  0  0
   -4.9728   11.1817  -26.4593 C   0  0  0  0  0  0  0  0  0  0  0  0
   -2.5492   18.1758  -22.7251 C   0  0  0  0  0  0  0  0  0  0  0  0
  1  8  1  0
  2 12  1  0
  2 15  1  0
  2 21  1  0
  3  9  1  0
  3 18  2  0
  4 20  1  0
  4 21  2  3
  5 10  1  0
  5 24  1  0
  6  7  1  0
  6 29  1  0
  7 31  1  0
  8 16  1  0
  8 23  1  0
  8 32  1  0
  9 11  1  0
  9 28  1  0
 10 27  1  0
 11 17  2  0
 11 26  1  0
 13 16  1  0
 13 31  1  0
 14 19  1  0
 16 29  1  0
 17 27  1  0
 18 25  1  0
 18 30  1  0
 19 22  2  0
 19 33  1  0
 20 26  1  0
 21 33  1  0
 24 28  1  0
 25 29  1  0
 26 30  2  0
M  END
>  <ID>  (1) 
conformer_0

$$$$
