
     RDKit          3D

 28 30  0  0  0  0  0  0  0  0999 V2000
   -1.2665   17.9003  -21.2742 C   0  0  0  0  0  0  0  0  0  0  0  0
   -1.2256   17.7450  -26.1400 C   0  0  0  0  0  0  0  0  0  0  0  0
   -3.0535   18.0556  -23.9683 C   0  0  0  0  0  0  0  0  0  0  0  0
   -0.1152   17.2746  -28.1453 C   0  0  0  0  0  0  0  0  0  0  0  0
   -2.1822   10.9453  -30.3906 C   0  0  0  0  0  0  0  0  0  0  0  0
   -1.0033   18.4157  -22.5321 O   0  0  0  0  0  0  0  0  0  0  0  0
   -2.4409   11.6599  -27.7289 C   0  0  0  0  0  0  0  0  0  0  0  0
   -0.3141   18.2388  -27.1513 O   0  0  0  0  0  0  0  0  0  0  0  0
    2.1785   16.7554  -29.4904 C   0  0  0  0  0  0  0  0  0  0  0  0
    1.9965   18.7392  -30.9410 C   0  0  0  0  0  0  0  0  0  0  0  0
    2.8759   17.5320  -30.6565 C   0  0  0  0  0  0  0  0  0  0  0  0
   -2.1727   14.1001  -28.2295 C   0  0  0  0  0  0  0  0  0  0  0  0
   -1.1772   14.9824  -28.5300 N   0  0  0  0  0  0  0  0  0  0  0  0
   -3.1967   14.4553  -27.5794 O   0  0  0  0  0  0  0  0  0  0  0  0
    0.9010   17.4164  -29.1967 C   0  0  0  0  0  0  0  0  0  0  0  0
   -2.0074   12.3016  -30.0091 C   0  0  0  0  0  0  0  0  0  0  0  0
   -1.0071   18.3067  -24.9119 C   0  0  0  0  0  0  0  0  0  0  0  0
   -2.1717   12.6951  -28.6832 C   0  0  0  0  0  0  0  0  0  0  0  0
   -0.8951   16.5460  -21.0165 N   0  0  0  0  0  0  0  0  0  0  0  0
   -1.7961   16.6210  -26.7627 C   0  0  0  0  0  0  0  0  0  0  0  0
   -2.5933   10.3389  -28.1185 C   0  0  0  0  0  0  0  0  0  0  0  0
    0.9721   18.8048  -29.8120 C   0  0  0  0  0  0  0  0  0  0  0  0
   -2.8899    9.3040  -27.0547 C   0  0  0  0  0  0  0  0  0  0  0  0
   -3.4815   17.5277  -25.1543 C   0  0  0  0  0  0  0  0  0  0  0  0
   -1.6512   18.3257  -23.7179 C   0  0  0  0  0  0  0  0  0  0  0  0
   -2.4888    9.9422  -29.4439 C   0  0  0  0  0  0  0  0  0  0  0  0
   -1.8204   18.6042  -20.3626 O   0  0  0  0  0  0  0  0  0  0  0  0
   -1.1027   16.2189  -27.8352 C   0  0  0  0  0  0  0  0  0  0  0  0
  1  6  1  0
  1 19  1  0
  1 27  2  0
  2  8  1  0
  2 17  1  0
  2 20  1  0
  3 24  2  0
  3 25  1  0
  4  8  1  0
  4 15  1  0
  4 28  1  0
  5 16  2  0
  5 26  1  0
  6 25  1  0
  7 18  2  0
  7 21  1  0
  9 11  1  0
  9 15  1  0
 10 11  1  0
 10 22  1  0
 12 13  1  0
 12 14  2  0
 12 18  1  0
 13 28  2  3
 15 22  1  0
 16 18  1  0
 17 25  1  0
 20 28  1  0
 21 23  1  0
 21 26  2  0
M  END
>  <ID>  (1) 
conformer_0

$$$$
