
     RDKit          3D

 15 16  0  0  0  0  0  0  0  0999 V2000
    1.0449   -8.6701    7.4049 C   0  0  0  0  0  0  0  0  0  0  0  0
    0.9529   -8.0098    8.5221 C   0  0  0  0  0  0  0  0  0  0  0  0
    0.6598   -6.6323    8.3380 O   0  0  0  0  0  0  0  0  0  0  0  0
    1.5071  -10.1011    7.6413 C   0  0  0  0  0  0  0  0  0  0  0  0
    1.9434  -10.4121    8.8310 C   0  0  0  0  0  0  0  0  0  0  0  0
    2.4474  -11.4610    9.2197 C   0  0  0  0  0  0  0  0  0  0  0  0
    1.8501   -8.6220    9.5786 C   0  0  0  0  0  0  0  0  0  0  0  0
    2.9904  -11.7626   10.5583 C   0  0  0  0  0  0  0  0  0  0  0  0
    2.4814  -12.4937    8.3736 C   0  0  0  0  0  0  0  0  0  0  0  0
    1.7638   -8.9870   10.7801 O   0  0  0  0  0  0  0  0  0  0  0  0
    1.5131  -11.1256    6.7247 C   0  0  0  0  0  0  0  0  0  0  0  0
    4.1138  -11.6312   10.8347 O   0  0  0  0  0  0  0  0  0  0  0  0
    2.0350  -11.9258   11.5518 N   0  0  0  0  0  0  0  0  0  0  0  0
    3.0516  -13.7095    8.7094 N   0  0  0  0  0  0  0  0  0  0  0  0
    2.0369  -12.2891    7.0551 N   0  0  0  0  0  0  0  0  0  0  0  0
  1  2  1  0
  2  3  1  0
  1  4  1  0
  4  5  1  0
  5  6  2  0
  2  7  1  0
  5  7  1  0
  6  8  1  0
  6  9  1  0
  7 10  1  0
  4 11  2  0
  8 12  2  0
  8 13  1  0
  9 14  1  0
  9 15  2  0
 11 15  1  0
M  END
>  <ID>  (1) 
conformer_0

$$$$
