
     RDKit          3D

 15 16  0  0  0  0  0  0  0  0999 V2000
    1.1224   -6.5401    8.6489 O   0  0  0  0  0  0  0  0  0  0  0  0
    1.9978   -7.2338    9.0932 C   0  0  0  0  0  0  0  0  0  0  0  0
    2.1370   -8.6553    8.7592 C   0  0  0  0  0  0  0  0  0  0  0  0
    3.1161   -9.4042    9.2904 C   0  0  0  0  0  0  0  0  0  0  0  0
    3.0695  -10.8847    9.0325 C   0  0  0  0  0  0  0  0  0  0  0  0
    4.0266   -8.8026   10.1127 C   0  0  0  0  0  0  0  0  0  0  0  0
    2.9255  -11.2496    7.7358 C   0  0  0  0  0  0  0  0  0  0  0  0
    2.8627  -12.5544    7.3747 C   0  0  0  0  0  0  0  0  0  0  0  0
    3.0401   -6.6059    9.8215 C   0  0  0  0  0  0  0  0  0  0  0  0
    3.5179  -11.7017    9.9133 C   0  0  0  0  0  0  0  0  0  0  0  0
    3.0570   -5.3146    9.8549 F   0  0  0  0  0  0  0  0  0  0  0  0
    3.4873  -13.1409    9.5164 C   0  0  0  0  0  0  0  0  0  0  0  0
    3.9003  -14.0171   10.5979 N   0  0  0  0  0  0  0  0  0  0  0  0
    3.2338  -13.5074    8.3551 N   0  0  0  0  0  0  0  0  0  0  0  0
    4.1394   -7.3048   10.3054 C   0  0  0  0  0  0  0  0  0  0  0  0
  1  2  1  0
  2  3  1  0
  3  4  2  0
  4  5  1  0
  4  6  1  0
  5  7  1  0
  7  8  2  0
  2  9  2  0
  5 10  2  0
  9 11  1  0
 10 12  1  0
 12 13  1  0
  8 14  1  0
 12 14  2  0
  6 15  2  0
  9 15  1  0
M  END
>  <ID>  (1) 
conformer_0

$$$$
