
     RDKit          3D

 22 25  0  0  0  0  0  0  0  0999 V2000
    4.2113   -6.5063    9.8417 O   0  0  0  0  0  0  0  0  0  0  0  0
    3.8532   -7.6355    9.9214 C   0  0  0  0  0  0  0  0  0  0  0  0
    4.5943   -8.4574   10.6059 N   0  0  0  0  0  0  0  0  0  0  0  0
    4.1347   -9.7336   10.8349 C   0  0  0  0  0  0  0  0  0  0  0  0
    4.6022  -10.4102   11.9490 C   0  0  0  0  0  0  0  0  0  0  0  0
    3.9109  -11.4979   12.3533 C   0  0  0  0  0  0  0  0  0  0  0  0
    2.8214   -8.0295    8.9263 C   0  0  0  0  0  0  0  0  0  0  0  0
    3.0398  -10.1229   10.0610 C   0  0  0  0  0  0  0  0  0  0  0  0
    2.3998   -9.3174    9.1575 C   0  0  0  0  0  0  0  0  0  0  0  0
    5.7873   -9.9714   12.7817 C   0  0  0  0  0  0  0  0  0  0  0  0
    5.9180  -10.2357   13.8599 O   0  0  0  0  0  0  0  0  0  0  0  0
    2.4832  -11.5154   10.5976 C   0  0  0  0  0  0  0  0  0  0  0  0
    1.4040   -9.8598    8.3757 C   0  0  0  0  0  0  0  0  0  0  0  0
    5.9864   -8.0965   10.9981 C   0  0  0  0  0  0  0  0  0  0  0  0
    4.4483  -12.3009   13.5135 O   0  0  0  0  0  0  0  0  0  0  0  0
    0.9989   -8.6915    7.4125 C   0  0  0  0  0  0  0  0  0  0  0  0
    1.5757   -7.5556    8.1050 N   0  0  0  0  0  0  0  0  0  0  0  0
    6.4980   -8.7919   12.0924 C   0  0  0  0  0  0  0  0  0  0  0  0
    0.8491   -6.4736    8.5256 C   0  0  0  0  0  0  0  0  0  0  0  0
    2.9523  -12.1921   11.6934 C   0  0  0  0  0  0  0  0  0  0  0  0
    7.6597   -8.3953   12.7309 O   0  0  0  0  0  0  0  0  0  0  0  0
    1.1714  -11.2622    7.9564 C   0  0  0  0  0  0  0  0  0  0  0  0
  1  2  2  0
  2  3  1  0
  3  4  1  0
  4  5  1  0
  5  6  2  0
  2  7  1  0
  4  8  2  0
  7  9  1  0
  8  9  1  0
  5 10  1  0
 10 11  2  0
  8 12  1  0
  9 13  2  0
  3 14  1  0
  6 15  1  0
 13 16  1  0
  7 17  1  0
 16 17  1  0
 10 18  1  0
 14 18  2  0
 17 19  1  0
  6 20  1  0
 12 20  2  0
 18 21  1  0
 13 22  1  0
M  END
>  <ID>  (1) 
conformer_0

$$$$
