
     RDKit          3D

 20 22  0  0  0  0  0  0  0  0999 V2000
    4.2113   -6.5063    9.8417 O   0  0  0  0  0  0  0  0  0  0  0  0
    3.8532   -7.6355    9.9214 C   0  0  0  0  0  0  0  0  0  0  0  0
    4.5943   -8.4574   10.6059 N   0  0  0  0  0  0  0  0  0  0  0  0
    4.1347   -9.7336   10.8349 C   0  0  0  0  0  0  0  0  0  0  0  0
    2.8789  -10.0828   10.2269 C   0  0  0  0  0  0  0  0  0  0  0  0
    2.1159   -9.1836    9.4265 C   0  0  0  0  0  0  0  0  0  0  0  0
    5.8752   -8.1527   11.1251 C   0  0  0  0  0  0  0  0  0  0  0  0
    1.0383   -9.6468    8.6032 C   0  0  0  0  0  0  0  0  0  0  0  0
    5.1375  -10.7227   10.5425 O   0  0  0  0  0  0  0  0  0  0  0  0
    6.8650   -9.0726   10.6846 C   0  0  0  0  0  0  0  0  0  0  0  0
    8.1425   -8.7951   11.1596 O   0  0  0  0  0  0  0  0  0  0  0  0
    6.4351  -10.4869   11.0965 C   0  0  0  0  0  0  0  0  0  0  0  0
    2.6088   -7.8556    9.2971 C   0  0  0  0  0  0  0  0  0  0  0  0
    2.3435  -11.3548   10.2811 C   0  0  0  0  0  0  0  0  0  0  0  0
    7.0864  -11.3727   11.8457 C   0  0  0  0  0  0  0  0  0  0  0  0
    0.3571   -8.5967    7.7519 C   0  0  0  0  0  0  0  0  0  0  0  0
    1.2618  -11.7596    9.5742 C   0  0  0  0  0  0  0  0  0  0  0  0
    1.0994   -8.1024    6.6929 O   0  0  0  0  0  0  0  0  0  0  0  0
    0.5681  -10.8785    8.7693 C   0  0  0  0  0  0  0  0  0  0  0  0
    6.4746  -11.8147   12.9811 O   0  0  0  0  0  0  0  0  0  0  0  0
  1  2  2  0
  2  3  1  0
  3  4  1  0
  4  5  1  0
  5  6  1  0
  3  7  1  0
  6  8  2  0
  4  9  1  0
  7 10  1  0
 10 11  1  0
  9 12  1  0
 10 12  1  0
  2 13  1  0
  6 13  1  0
  5 14  2  0
 12 15  1  0
  8 16  1  0
 14 17  1  0
 16 18  1  0
  8 19  1  0
 17 19  2  0
 15 20  1  0
M  END
>  <ID>  (1) 
conformer_0

$$$$
