
     RDKit          3D

 14 15  0  0  0  0  0  0  0  0999 V2000
    0.1122   -7.5295    7.7119 C   0  0  0  0  0  0  0  0  0  0  0  0
    0.8946   -7.6357    8.7582 O   0  0  0  0  0  0  0  0  0  0  0  0
    2.1102   -8.2555    8.6328 C   0  0  0  0  0  0  0  0  0  0  0  0
    2.2479   -9.3771    8.2308 C   0  0  0  0  0  0  0  0  0  0  0  0
    1.2183  -10.0745    7.4174 O   0  0  0  0  0  0  0  0  0  0  0  0
    3.5287  -10.0213    8.1051 C   0  0  0  0  0  0  0  0  0  0  0  0
    3.8208  -11.2384    7.4161 C   0  0  0  0  0  0  0  0  0  0  0  0
    3.1741   -7.5579    9.5674 C   0  0  0  0  0  0  0  0  0  0  0  0
    4.4422   -9.4044    8.7947 C   0  0  0  0  0  0  0  0  0  0  0  0
    1.5660  -11.4525    7.1581 C   0  0  0  0  0  0  0  0  0  0  0  0
    2.5639  -12.0418    7.3111 C   0  0  0  0  0  0  0  0  0  0  0  0
    2.9293   -6.3342   10.0892 O   0  0  0  0  0  0  0  0  0  0  0  0
    4.2358   -8.1718    9.4998 C   0  0  0  0  0  0  0  0  0  0  0  0
    5.4791   -7.4727   10.1576 O   0  0  0  0  0  0  0  0  0  0  0  0
  1  2  1  0
  2  3  1  0
  3  4  2  0
  4  5  1  0
  4  6  1  0
  6  7  1  0
  3  8  1  0
  6  9  2  0
  5 10  1  0
  7 11  1  0
 10 11  1  0
  8 12  1  0
  8 13  2  0
  9 13  1  0
 13 14  1  0
M  END
>  <ID>  (1) 
conformer_0

$$$$
