
     RDKit          3D

 20 23  0  0  0  0  0  0  0  0999 V2000
    1.0449   -8.6701    7.4049 C   0  0  0  0  0  0  0  0  0  0  0  0
    1.7904   -9.6662    7.6279 C   0  0  0  0  0  0  0  0  0  0  0  0
    2.3123  -10.0121    8.6885 C   0  0  0  0  0  0  0  0  0  0  0  0
    3.1531  -11.2148    8.8678 C   0  0  0  0  0  0  0  0  0  0  0  0
    2.0916   -9.2029    9.8672 C   0  0  0  0  0  0  0  0  0  0  0  0
    2.9304  -12.2133    8.0026 C   0  0  0  0  0  0  0  0  0  0  0  0
    2.9905  -11.6881   10.2425 C   0  0  0  0  0  0  0  0  0  0  0  0
    3.0149  -10.6152   11.2586 C   0  0  0  0  0  0  0  0  0  0  0  0
    3.7197  -12.8369   10.5057 C   0  0  0  0  0  0  0  0  0  0  0  0
    3.6515  -13.7974    9.5517 C   0  0  0  0  0  0  0  0  0  0  0  0
    4.1761  -15.1219    9.7778 C   0  0  0  0  0  0  0  0  0  0  0  0
    2.0856   -9.6227   11.1655 C   0  0  0  0  0  0  0  0  0  0  0  0
    2.4416   -8.5607   12.0704 O   0  0  0  0  0  0  0  0  0  0  0  0
    0.7586   -7.8937    8.4051 C   0  0  0  0  0  0  0  0  0  0  0  0
   -0.0733   -6.7430    8.1168 F   0  0  0  0  0  0  0  0  0  0  0  0
    1.1844   -8.0913    9.6891 C   0  0  0  0  0  0  0  0  0  0  0  0
    3.3754  -13.4505    8.2335 C   0  0  0  0  0  0  0  0  0  0  0  0
    4.2615  -16.0288    8.8008 C   0  0  0  0  0  0  0  0  0  0  0  0
    3.9630  -15.7102    7.5070 C   0  0  0  0  0  0  0  0  0  0  0  0
    3.5286  -14.4203    7.2508 C   0  0  0  0  0  0  0  0  0  0  0  0
  1  2  1  0
  2  3  2  0
  3  4  1  0
  3  5  1  0
  4  6  1  0
  4  7  1  0
  7  8  1  0
  7  9  1  0
  9 10  1  0
 10 11  2  0
  5 12  1  0
  8 12  1  0
 12 13  1  0
  1 14  2  0
 14 15  1  0
  5 16  2  0
 14 16  1  0
  6 17  1  0
 10 17  1  0
 11 18  1  0
 18 19  2  0
 17 20  2  0
 19 20  1  0
M  END
>  <ID>  (1) 
conformer_0

$$$$
