
     RDKit          3D

 16 17  0  0  0  0  0  0  0  0999 V2000
    4.2475   -6.4076   10.2292 O   0  0  0  0  0  0  0  0  0  0  0  0
    3.8770   -7.5794    9.9739 C   0  0  0  0  0  0  0  0  0  0  0  0
    4.4571   -8.6254   10.4532 C   0  0  0  0  0  0  0  0  0  0  0  0
    2.7959   -7.7047    9.0220 C   0  0  0  0  0  0  0  0  0  0  0  0
    4.0660   -9.9305   10.1237 C   0  0  0  0  0  0  0  0  0  0  0  0
    2.3375   -9.0371    8.6862 C   0  0  0  0  0  0  0  0  0  0  0  0
    2.0396   -6.5680    8.4534 O   0  0  0  0  0  0  0  0  0  0  0  0
    0.6528   -6.6357    8.5140 C   0  0  0  0  0  0  0  0  0  0  0  0
    3.0339  -10.0963    9.2189 C   0  0  0  0  0  0  0  0  0  0  0  0
    1.1153   -9.2229    7.7824 C   0  0  0  0  0  0  0  0  0  0  0  0
    5.6609   -8.3911   11.3209 C   0  0  0  0  0  0  0  0  0  0  0  0
    1.2378  -10.1269    6.8024 C   0  0  0  0  0  0  0  0  0  0  0  0
   -0.0593   -9.6060    8.7088 C   0  0  0  0  0  0  0  0  0  0  0  0
    6.6140   -7.8058   10.9813 O   0  0  0  0  0  0  0  0  0  0  0  0
    0.5846   -7.7711    7.3328 C   0  0  0  0  0  0  0  0  0  0  0  0
    5.5325   -8.7222   12.6488 O   0  0  0  0  0  0  0  0  0  0  0  0
  1  2  1  0
  2  3  1  0
  2  4  2  0
  3  5  2  0
  4  6  1  0
  4  7  1  0
  7  8  1  0
  5  9  1  0
  6  9  2  0
  6 10  1  0
  3 11  1  0
 10 12  1  0
 10 13  1  0
 11 14  2  0
  8 15  1  0
 10 15  1  0
 11 16  1  0
M  END
>  <ID>  (1) 
conformer_0

$$$$
