
     RDKit          3D

 17 17  0  0  0  0  0  0  0  0999 V2000
    1.7585   -6.1202    9.5402 O   0  0  0  0  0  0  0  0  0  0  0  0
    2.1978   -7.2765    9.2908 C   0  0  0  0  0  0  0  0  0  0  0  0
    3.5470   -7.6936    9.6279 C   0  0  0  0  0  0  0  0  0  0  0  0
    1.5765   -7.7975    7.9720 C   0  0  0  0  0  0  0  0  0  0  0  0
    3.8171   -8.7715   10.1453 N   0  0  0  0  0  0  0  0  0  0  0  0
    2.9964   -9.7425   10.0345 C   0  0  0  0  0  0  0  0  0  0  0  0
    4.4215   -8.6102   11.5163 C   0  0  0  0  0  0  0  0  0  0  0  0
    5.8346   -8.6550   11.4902 C   0  0  0  0  0  0  0  0  0  0  0  0
    6.4962   -9.0408   12.5621 C   0  0  0  0  0  0  0  0  0  0  0  0
    0.4116   -7.2879    7.6755 O   0  0  0  0  0  0  0  0  0  0  0  0
    2.4054  -10.0612    8.6660 C   0  0  0  0  0  0  0  0  0  0  0  0
    4.1283   -6.4480   10.1245 O   0  0  0  0  0  0  0  0  0  0  0  0
    1.4065   -9.3457    8.1107 C   0  0  0  0  0  0  0  0  0  0  0  0
    1.0491   -9.7705    6.7805 O   0  0  0  0  0  0  0  0  0  0  0  0
    6.0397   -9.8400   13.2224 O   0  0  0  0  0  0  0  0  0  0  0  0
    7.7357   -8.4132   12.8809 O   0  0  0  0  0  0  0  0  0  0  0  0
    2.2115  -11.4997    8.5716 O   0  0  0  0  0  0  0  0  0  0  0  0
  1  2  1  0
  2  3  1  0
  2  4  1  0
  3  5  1  0
  5  6  1  0
  5  7  1  0
  7  8  1  0
  8  9  1  0
  4 10  1  0
  6 11  1  0
  3 12  1  0
  4 13  1  0
 11 13  1  0
 13 14  1  0
  9 15  2  0
  9 16  1  0
 11 17  1  0
M  END
>  <ID>  (1) 
conformer_0

$$$$
