
     RDKit          3D

 12 11  0  0  0  0  0  0  0  0999 V2000
    0.4304   -6.8570    8.5307 O   0  0  0  0  0  0  0  0  0  0  0  0
    0.7580   -7.9635    8.0240 C   0  0  0  0  0  0  0  0  0  0  0  0
    1.7064   -8.8144    8.9177 C   0  0  0  0  0  0  0  0  0  0  0  0
    2.8059   -8.0268    9.3315 N   0  0  0  0  0  0  0  0  0  0  0  0
    3.5487   -8.4382   10.4625 C   0  0  0  0  0  0  0  0  0  0  0  0
    3.4599   -9.5134   11.0196 O   0  0  0  0  0  0  0  0  0  0  0  0
    4.6380   -7.5314   10.8465 C   0  0  0  0  0  0  0  0  0  0  0  0
    2.1652   -9.9572    8.0478 C   0  0  0  0  0  0  0  0  0  0  0  0
    1.2317  -10.8313    7.6909 C   0  0  0  0  0  0  0  0  0  0  0  0
    4.6757   -6.4223   10.2359 O   0  0  0  0  0  0  0  0  0  0  0  0
    5.3594   -7.8476   11.7752 O   0  0  0  0  0  0  0  0  0  0  0  0
    2.8237   -9.3918    6.9226 O   0  0  0  0  0  0  0  0  0  0  0  0
  1  2  1  0
  2  3  1  0
  3  4  1  0
  4  5  1  0
  5  6  1  0
  5  7  1  0
  3  8  1  0
  8  9  1  0
  7 10  2  0
  7 11  1  0
  8 12  1  0
M  END
>  <ID>  (1) 
conformer_0

$$$$
