
     RDKit          3D

 12 12  0  0  0  0  0  0  0  0999 V2000
    0.8768   -6.4477    8.9367 O   0  0  0  0  0  0  0  0  0  0  0  0
    1.1442   -7.5256    8.3383 C   0  0  0  0  0  0  0  0  0  0  0  0
    2.2076   -8.4249    8.9177 C   0  0  0  0  0  0  0  0  0  0  0  0
    0.0048   -8.4663    8.1150 C   0  0  0  0  0  0  0  0  0  0  0  0
    2.6886   -9.5043    8.1324 C   0  0  0  0  0  0  0  0  0  0  0  0
    1.5096  -10.3871    7.7089 C   0  0  0  0  0  0  0  0  0  0  0  0
    1.9988  -11.4776    6.7995 C   0  0  0  0  0  0  0  0  0  0  0  0
    1.5478   -8.7803   10.0712 O   0  0  0  0  0  0  0  0  0  0  0  0
    0.9911  -11.1211    8.9155 O   0  0  0  0  0  0  0  0  0  0  0  0
    0.4614   -9.4632    7.1520 O   0  0  0  0  0  0  0  0  0  0  0  0
    3.1934   -8.9299    6.9010 O   0  0  0  0  0  0  0  0  0  0  0  0
    2.2688  -11.0092    5.6485 O   0  0  0  0  0  0  0  0  0  0  0  0
  1  2  1  0
  2  3  1  0
  2  4  1  0
  3  5  1  0
  5  6  1  0
  6  7  1  0
  3  8  1  0
  6  9  1  0
  4 10  1  0
  6 10  1  0
  5 11  1  0
  7 12  1  0
M  END
>  <ID>  (1) 
conformer_0

$$$$
