
     RDKit          3D

 14 14  0  0  0  0  0  0  0  0999 V2000
    4.2113   -6.5063    9.8417 O   0  0  0  0  0  0  0  0  0  0  0  0
    4.4656   -7.5621   10.0625 C   0  0  0  0  0  0  0  0  0  0  0  0
    3.4644   -8.4647    9.9703 N   0  0  0  0  0  0  0  0  0  0  0  0
    2.0638   -8.1657    9.5597 C   0  0  0  0  0  0  0  0  0  0  0  0
    1.2208   -9.3075    9.9277 O   0  0  0  0  0  0  0  0  0  0  0  0
    1.8211  -10.3706   10.0540 C   0  0  0  0  0  0  0  0  0  0  0  0
    1.7437   -8.0109    8.0928 C   0  0  0  0  0  0  0  0  0  0  0  0
    5.7792   -8.0297   10.3104 C   0  0  0  0  0  0  0  0  0  0  0  0
    0.9220   -8.9175    7.5622 O   0  0  0  0  0  0  0  0  0  0  0  0
    6.0701   -8.2565   11.6984 O   0  0  0  0  0  0  0  0  0  0  0  0
    7.2918   -8.5168   12.2822 C   0  0  0  0  0  0  0  0  0  0  0  0
    3.3500   -9.9468   10.3595 C   0  0  0  0  0  0  0  0  0  0  0  0
    6.6520   -8.0922    9.5481 O   0  0  0  0  0  0  0  0  0  0  0  0
    7.5959   -8.3088   13.4401 C   0  0  0  0  0  0  0  0  0  0  0  0
  1  2  2  0
  2  3  1  0
  3  4  1  0
  4  5  1  0
  5  6  1  0
  4  7  1  0
  2  8  1  0
  7  9  1  0
  8 10  1  0
 10 11  1  0
  3 12  1  0
  6 12  1  0
  8 13  2  0
 11 14  1  0
M  END
>  <ID>  (1) 
conformer_0

$$$$
