
     RDKit          3D

 20 23  0  0  0  0  0  0  0  0999 V2000
    1.0449   -8.6701    7.4049 C   0  0  0  0  0  0  0  0  0  0  0  0
    1.7904   -9.6662    7.6279 C   0  0  0  0  0  0  0  0  0  0  0  0
    2.3123  -10.0121    8.6885 C   0  0  0  0  0  0  0  0  0  0  0  0
    3.1531  -11.2148    8.8678 C   0  0  0  0  0  0  0  0  0  0  0  0
    2.0916   -9.2029    9.8672 C   0  0  0  0  0  0  0  0  0  0  0  0
    2.9304  -12.2133    8.0026 C   0  0  0  0  0  0  0  0  0  0  0  0
    2.9905  -11.6881   10.2425 C   0  0  0  0  0  0  0  0  0  0  0  0
    3.0149  -10.6152   11.2586 C   0  0  0  0  0  0  0  0  0  0  0  0
    3.7197  -12.8369   10.5057 C   0  0  0  0  0  0  0  0  0  0  0  0
    3.6515  -13.7974    9.5517 C   0  0  0  0  0  0  0  0  0  0  0  0
    4.1761  -15.1219    9.7778 C   0  0  0  0  0  0  0  0  0  0  0  0
    4.4751  -13.1451   11.6317 C   0  0  0  0  0  0  0  0  0  0  0  0
    3.3544  -13.4099    8.2500 N   0  0  0  0  0  0  0  0  0  0  0  0
    4.7960  -15.2548   11.1030 C   0  0  0  0  0  0  0  0  0  0  0  0
    1.8081   -9.7968   11.0370 O   0  0  0  0  0  0  0  0  0  0  0  0
    0.6191   -7.8337    8.4096 C   0  0  0  0  0  0  0  0  0  0  0  0
    4.5704  -12.0686   12.7283 O   0  0  0  0  0  0  0  0  0  0  0  0
    2.6089  -12.0430    6.7921 O   0  0  0  0  0  0  0  0  0  0  0  0
    4.9651  -14.3746   12.0430 C   0  0  0  0  0  0  0  0  0  0  0  0
    0.9260   -8.3071    9.6809 C   0  0  0  0  0  0  0  0  0  0  0  0
  1  2  1  0
  2  3  2  0
  3  4  1  0
  3  5  1  0
  4  6  1  0
  4  7  1  0
  7  8  1  0
  7  9  1  0
  9 10  1  0
 10 11  2  0
  9 12  2  0
  6 13  1  0
 10 13  1  0
 11 14  1  0
  5 15  1  0
  8 15  1  0
  1 16  2  0
 12 17  1  0
  6 18  2  0
 12 19  1  0
 14 19  2  0
  5 20  2  0
 16 20  1  0
M  END
>  <ID>  (1) 
conformer_0

$$$$
