
     RDKit          3D

 19 20  0  0  0  0  0  0  0  0999 V2000
    4.2475   -6.4076   10.2292 O   0  0  0  0  0  0  0  0  0  0  0  0
    4.4249   -7.5513   10.0951 C   0  0  0  0  0  0  0  0  0  0  0  0
    3.4394   -8.3652    9.8076 N   0  0  0  0  0  0  0  0  0  0  0  0
    5.6950   -8.1220   10.5519 C   0  0  0  0  0  0  0  0  0  0  0  0
    5.9514   -8.1963   11.9292 N   0  0  0  0  0  0  0  0  0  0  0  0
    3.6232   -9.8231    9.6819 C   0  0  0  0  0  0  0  0  0  0  0  0
    3.6720  -10.4097    8.5749 C   0  0  0  0  0  0  0  0  0  0  0  0
    3.6520  -10.4158   10.9033 O   0  0  0  0  0  0  0  0  0  0  0  0
    6.8091   -7.8904    9.9080 O   0  0  0  0  0  0  0  0  0  0  0  0
    3.1397   -9.8462    7.4933 C   0  0  0  0  0  0  0  0  0  0  0  0
    4.8843  -10.9765    8.1630 C   0  0  0  0  0  0  0  0  0  0  0  0
    7.1668   -8.4682   12.5597 C   0  0  0  0  0  0  0  0  0  0  0  0
    2.2794   -7.7446    9.1968 C   0  0  0  0  0  0  0  0  0  0  0  0
    2.6604  -10.7222    6.3640 C   0  0  0  0  0  0  0  0  0  0  0  0
    1.9214   -8.7153    7.7316 C   0  0  0  0  0  0  0  0  0  0  0  0
    7.1354   -9.3211   13.7251 C   0  0  0  0  0  0  0  0  0  0  0  0
    4.8328  -12.0556    7.1018 C   0  0  0  0  0  0  0  0  0  0  0  0
    3.9195  -11.4839    5.9545 C   0  0  0  0  0  0  0  0  0  0  0  0
    6.0542  -10.1792   13.6274 O   0  0  0  0  0  0  0  0  0  0  0  0
  1  2  2  0
  2  3  1  0
  2  4  1  0
  4  5  1  0
  3  6  1  0
  6  7  1  0
  6  8  2  0
  4  9  2  0
  7 10  1  0
  7 11  1  0
  5 12  1  0
  3 13  1  0
 10 14  1  0
 10 15  1  0
 13 15  1  0
 12 16  1  0
 11 17  1  0
 14 18  1  0
 17 18  1  0
 16 19  1  0
M  END
>  <ID>  (1) 
conformer_0

$$$$
