
     RDKit          3D

 22 24  0  0  0  0  0  0  0  0999 V2000
    2.7029   -6.5300   10.0125 O   0  0  0  0  0  0  0  0  0  0  0  0
    2.5844   -7.5789    9.4518 C   0  0  0  0  0  0  0  0  0  0  0  0
    1.4961   -8.1812    9.0463 C   0  0  0  0  0  0  0  0  0  0  0  0
    1.5320   -9.3327    8.3359 C   0  0  0  0  0  0  0  0  0  0  0  0
    3.6528   -8.5322    9.4440 N   0  0  0  0  0  0  0  0  0  0  0  0
    3.7214   -9.7306    8.8075 C   0  0  0  0  0  0  0  0  0  0  0  0
    0.3052   -9.9533    7.8639 O   0  0  0  0  0  0  0  0  0  0  0  0
    5.1178   -7.9133    9.9657 C   0  0  0  0  0  0  0  0  0  0  0  0
    2.6506  -10.0691    8.0456 N   0  0  0  0  0  0  0  0  0  0  0  0
    5.6478   -8.6843   11.0034 C   0  0  0  0  0  0  0  0  0  0  0  0
    2.7158  -10.9939    7.0170 C   0  0  0  0  0  0  0  0  0  0  0  0
    6.9427   -8.3039   11.3138 C   0  0  0  0  0  0  0  0  0  0  0  0
    3.6943  -10.7938    6.0674 C   0  0  0  0  0  0  0  0  0  0  0  0
    0.3564   -7.2496    8.8072 C   0  0  0  0  0  0  0  0  0  0  0  0
    5.0589   -9.6034   11.7213 C   0  0  0  0  0  0  0  0  0  0  0  0
    5.6036  -10.2491   12.8154 C   0  0  0  0  0  0  0  0  0  0  0  0
    2.7568  -12.4535    7.5060 C   0  0  0  0  0  0  0  0  0  0  0  0
    3.2798  -13.3204    6.5358 N   0  0  0  0  0  0  0  0  0  0  0  0
    6.8443   -9.9345   13.2417 C   0  0  0  0  0  0  0  0  0  0  0  0
    7.3840  -10.5534   14.4172 O   0  0  0  0  0  0  0  0  0  0  0  0
    3.9458  -12.2781    5.5451 C   0  0  0  0  0  0  0  0  0  0  0  0
    7.6409   -8.9714   12.5796 C   0  0  0  0  0  0  0  0  0  0  0  0
  1  2  2  0
  2  3  1  0
  3  4  1  0
  2  5  1  0
  5  6  1  0
  4  7  2  0
  5  8  1  0
  4  9  1  0
  6  9  1  0
  8 10  1  0
  9 11  1  0
 10 12  1  0
 11 13  1  0
  3 14  1  0
 10 15  2  0
 15 16  1  0
 11 17  1  0
 17 18  1  0
 16 19  2  0
 19 20  1  0
 13 21  1  0
 18 21  1  0
 12 22  2  0
 19 22  1  0
M  END
>  <ID>  (1) 
conformer_0

$$$$
