
     RDKit          3D

 22 23  0  0  0  0  0  0  0  0999 V2000
    4.2113   -6.5063    9.8417 O   0  0  0  0  0  0  0  0  0  0  0  0
    4.4656   -7.5621   10.0625 C   0  0  0  0  0  0  0  0  0  0  0  0
    3.4644   -8.4647    9.9703 N   0  0  0  0  0  0  0  0  0  0  0  0
    2.0638   -8.1657    9.5597 C   0  0  0  0  0  0  0  0  0  0  0  0
    5.7075   -7.9058   10.6017 C   0  0  0  0  0  0  0  0  0  0  0  0
    3.9469   -9.8223    9.7261 C   0  0  0  0  0  0  0  0  0  0  0  0
    1.2613   -9.2898    9.6841 O   0  0  0  0  0  0  0  0  0  0  0  0
    5.1431  -10.1955   10.3834 C   0  0  0  0  0  0  0  0  0  0  0  0
    1.7877   -7.3492    8.3773 C   0  0  0  0  0  0  0  0  0  0  0  0
    0.4840   -9.3416    8.4572 C   0  0  0  0  0  0  0  0  0  0  0  0
    5.5178  -11.6605   10.4174 C   0  0  0  0  0  0  0  0  0  0  0  0
    0.7957   -8.0694    7.7078 C   0  0  0  0  0  0  0  0  0  0  0  0
    0.9844  -10.6598    7.7676 C   0  0  0  0  0  0  0  0  0  0  0  0
    6.1834   -9.2160   10.7489 C   0  0  0  0  0  0  0  0  0  0  0  0
    7.4488   -9.4612   11.3620 C   0  0  0  0  0  0  0  0  0  0  0  0
    7.5089   -9.6588   12.7071 C   0  0  0  0  0  0  0  0  0  0  0  0
    1.5267   -6.0550    8.7262 O   0  0  0  0  0  0  0  0  0  0  0  0
    7.3726  -10.8787   13.1511 O   0  0  0  0  0  0  0  0  0  0  0  0
    5.6381  -12.3397    9.4881 O   0  0  0  0  0  0  0  0  0  0  0  0
    1.7806  -11.4306    8.4827 O   0  0  0  0  0  0  0  0  0  0  0  0
    7.6294   -8.8100   13.6814 O   0  0  0  0  0  0  0  0  0  0  0  0
    5.1748  -12.1133   11.7299 O   0  0  0  0  0  0  0  0  0  0  0  0
  1  2  2  0
  2  3  1  0
  3  4  1  0
  2  5  1  0
  3  6  1  0
  4  7  1  0
  6  8  2  0
  4  9  1  0
  7 10  1  0
  8 11  1  0
  9 12  1  0
 10 12  1  0
 10 13  1  0
  5 14  2  0
  8 14  1  0
 14 15  1  0
 15 16  1  0
  9 17  1  0
 16 18  1  0
 11 19  2  0
 13 20  1  0
 16 21  2  0
 11 22  1  0
M  END
>  <ID>  (1) 
conformer_0

$$$$
