
     RDKit          3D

  6  5  0  0  0  0  0  0  0  0999 V2000
    7.5893  -10.1467   13.8878 O   0  0  0  0  0  0  0  0  0  0  0  0
    7.1659   -9.3591   13.0701 C   0  0  0  0  0  0  0  0  0  0  0  0
    7.7360   -8.3824   12.5629 O   0  0  0  0  0  0  0  0  0  0  0  0
    5.6226   -9.3664   13.1356 C   0  0  0  0  0  0  0  0  0  0  0  0
    5.0352  -10.5026   13.6151 C   0  0  0  0  0  0  0  0  0  0  0  0
    4.9124  -11.5027   12.8210 O   0  0  0  0  0  0  0  0  0  0  0  0
  1  2  1  0
  2  3  2  0
  2  4  1  0
  4  5  1  0
  5  6  1  0
M  END
>  <ID>  (1) 
conformer_0

$$$$
