
     RDKit          3D

 20 21  0  0  0  0  0  0  0  0999 V2000
    0.3954   -6.7715    8.4216 O   0  0  0  0  0  0  0  0  0  0  0  0
    1.0068   -7.9143    8.4951 C   0  0  0  0  0  0  0  0  0  0  0  0
    0.7574   -8.9189    7.8930 C   0  0  0  0  0  0  0  0  0  0  0  0
    2.1554   -7.8238    9.4685 C   0  0  0  0  0  0  0  0  0  0  0  0
    1.5986  -10.1362    8.0727 C   0  0  0  0  0  0  0  0  0  0  0  0
    2.4648   -6.6184   10.1554 O   0  0  0  0  0  0  0  0  0  0  0  0
    1.2117  -11.3274    7.2753 C   0  0  0  0  0  0  0  0  0  0  0  0
    2.5810  -10.1066    8.9282 C   0  0  0  0  0  0  0  0  0  0  0  0
    2.9065   -8.9806    9.6449 C   0  0  0  0  0  0  0  0  0  0  0  0
    4.0641   -9.0194   10.6078 C   0  0  0  0  0  0  0  0  0  0  0  0
    3.8782   -9.5796   11.7388 C   0  0  0  0  0  0  0  0  0  0  0  0
    2.6491   -9.9401   12.3054 C   0  0  0  0  0  0  0  0  0  0  0  0
    2.5542  -10.6277   13.5093 C   0  0  0  0  0  0  0  0  0  0  0  0
    5.0147   -9.8532   12.5599 C   0  0  0  0  0  0  0  0  0  0  0  0
    4.8511  -10.4166   13.8679 C   0  0  0  0  0  0  0  0  0  0  0  0
    6.3265   -9.2249   12.2204 C   0  0  0  0  0  0  0  0  0  0  0  0
    6.7471   -8.1450   12.4901 O   0  0  0  0  0  0  0  0  0  0  0  0
    7.2168  -10.0108   11.7028 O   0  0  0  0  0  0  0  0  0  0  0  0
    3.6301  -10.8006   14.3092 C   0  0  0  0  0  0  0  0  0  0  0  0
    2.1927  -12.3184    7.3801 O   0  0  0  0  0  0  0  0  0  0  0  0
  1  2  1  0
  2  3  2  0
  2  4  1  0
  3  5  1  0
  4  6  1  0
  5  7  1  0
  5  8  2  0
  4  9  2  0
  8  9  1  0
  9 10  1  0
 10 11  1  0
 11 12  1  0
 12 13  2  0
 11 14  2  0
 14 15  1  0
 14 16  1  0
 16 17  2  0
 16 18  1  0
 13 19  1  0
 15 19  2  0
  7 20  1  0
M  END
>  <ID>  (1) 
conformer_0

$$$$
