
     RDKit          3D

  8  7  0  0  0  0  0  0  0  0999 V2000
    8.0881   -8.5555   13.1617 O   0  0  0  0  0  0  0  0  0  0  0  0
    7.0480   -9.0281   12.7231 C   0  0  0  0  0  0  0  0  0  0  0  0
    6.5488  -10.0254   13.6558 C   0  0  0  0  0  0  0  0  0  0  0  0
    7.0195  -11.2244   13.5370 O   0  0  0  0  0  0  0  0  0  0  0  0
    6.4605   -8.6502   11.6811 C   0  0  0  0  0  0  0  0  0  0  0  0
    6.9115   -7.9255   10.7389 O   0  0  0  0  0  0  0  0  0  0  0  0
    5.2630   -9.2919   11.2196 O   0  0  0  0  0  0  0  0  0  0  0  0
    5.5117   -9.7428   14.3054 O   0  0  0  0  0  0  0  0  0  0  0  0
  1  2  2  0
  2  3  1  0
  3  4  1  0
  2  5  1  0
  5  6  1  0
  5  7  2  0
  3  8  2  0
M  END
>  <ID>  (1) 
conformer_0

$$$$
