
     RDKit          3D

  7  6  0  0  0  0  0  0  0  0999 V2000
    8.0881   -8.5555   13.1617 O   0  0  0  0  0  0  0  0  0  0  0  0
    7.0480   -9.0281   12.7231 C   0  0  0  0  0  0  0  0  0  0  0  0
    6.5488  -10.0254   13.6558 C   0  0  0  0  0  0  0  0  0  0  0  0
    7.0195  -11.2244   13.5370 C   0  0  0  0  0  0  0  0  0  0  0  0
    6.2652   -8.4574   11.8827 O   0  0  0  0  0  0  0  0  0  0  0  0
    6.9847  -11.9159   12.5634 O   0  0  0  0  0  0  0  0  0  0  0  0
    7.6916  -11.7430   14.6290 O   0  0  0  0  0  0  0  0  0  0  0  0
  1  2  2  0
  2  3  1  0
  3  4  1  0
  2  5  1  0
  4  6  2  0
  4  7  1  0
M  END
>  <ID>  (1) 
conformer_0

$$$$
