
     RDKit          3D

 15 15  0  0  0  0  0  0  0  0999 V2000
    2.7029   -6.5300   10.0125 O   0  0  0  0  0  0  0  0  0  0  0  0
    2.5844   -7.5789    9.4518 C   0  0  0  0  0  0  0  0  0  0  0  0
    3.5150   -8.5326    9.5766 N   0  0  0  0  0  0  0  0  0  0  0  0
    1.4362   -7.8995    8.4866 C   0  0  0  0  0  0  0  0  0  0  0  0
    3.4698   -9.8248    8.9630 C   0  0  0  0  0  0  0  0  0  0  0  0
    0.3373   -6.9398    8.4733 C   0  0  0  0  0  0  0  0  0  0  0  0
    4.4481   -8.5220   10.7934 C   0  0  0  0  0  0  0  0  0  0  0  0
    4.3293  -10.7466    9.2753 O   0  0  0  0  0  0  0  0  0  0  0  0
    4.6910   -9.4733   11.6177 C   0  0  0  0  0  0  0  0  0  0  0  0
    2.4174  -10.1262    8.0417 N   0  0  0  0  0  0  0  0  0  0  0  0
    5.9401   -9.4722   12.3507 C   0  0  0  0  0  0  0  0  0  0  0  0
    6.2483  -10.1816   13.1915 O   0  0  0  0  0  0  0  0  0  0  0  0
    6.8277   -8.5262   11.8243 O   0  0  0  0  0  0  0  0  0  0  0  0
    2.2844  -11.4011    7.3713 C   0  0  0  0  0  0  0  0  0  0  0  0
    1.3783   -9.1508    7.8890 C   0  0  0  0  0  0  0  0  0  0  0  0
  1  2  2  0
  2  3  1  0
  2  4  1  0
  3  5  1  0
  4  6  1  0
  3  7  1  0
  5  8  2  0
  7  9  1  0
  5 10  1  0
  9 11  1  0
 11 12  2  0
 11 13  1  0
 10 14  1  0
  4 15  2  0
 10 15  1  0
M  END
>  <ID>  (1) 
conformer_0

$$$$
