
     RDKit          3D

 20 23  0  0  0  0  0  0  0  0999 V2000
    4.2113   -6.5063    9.8417 O   0  0  0  0  0  0  0  0  0  0  0  0
    3.8532   -7.6355    9.9214 C   0  0  0  0  0  0  0  0  0  0  0  0
    4.5943   -8.4574   10.6059 N   0  0  0  0  0  0  0  0  0  0  0  0
    4.1347   -9.7336   10.8349 C   0  0  0  0  0  0  0  0  0  0  0  0
    4.6022  -10.4102   11.9490 C   0  0  0  0  0  0  0  0  0  0  0  0
    3.9109  -11.4979   12.3533 C   0  0  0  0  0  0  0  0  0  0  0  0
    2.8214   -8.0295    8.9263 C   0  0  0  0  0  0  0  0  0  0  0  0
    3.0398  -10.1229   10.0610 C   0  0  0  0  0  0  0  0  0  0  0  0
    2.3998   -9.3174    9.1575 C   0  0  0  0  0  0  0  0  0  0  0  0
    5.7873   -9.9714   12.7817 C   0  0  0  0  0  0  0  0  0  0  0  0
    1.8168   -7.0654    8.6473 O   0  0  0  0  0  0  0  0  0  0  0  0
    2.9219  -12.0777   11.6104 C   0  0  0  0  0  0  0  0  0  0  0  0
    6.3375   -8.7205   12.6186 C   0  0  0  0  0  0  0  0  0  0  0  0
    1.3991   -9.8240    8.3907 C   0  0  0  0  0  0  0  0  0  0  0  0
    1.0381  -11.1785    8.5491 C   0  0  0  0  0  0  0  0  0  0  0  0
    5.8411   -7.8139   11.3260 C   0  0  0  0  0  0  0  0  0  0  0  0
    2.3390  -13.3021   11.9171 O   0  0  0  0  0  0  0  0  0  0  0  0
    7.4934   -8.1807   13.1453 C   0  0  0  0  0  0  0  0  0  0  0  0
    2.4142  -11.4143   10.3959 C   0  0  0  0  0  0  0  0  0  0  0  0
    1.6040  -11.8938    9.4591 C   0  0  0  0  0  0  0  0  0  0  0  0
  1  2  2  0
  2  3  1  0
  3  4  1  0
  4  5  1  0
  5  6  2  0
  2  7  1  0
  4  8  2  0
  7  9  1  0
  8  9  1  0
  5 10  1  0
  7 11  1  0
  6 12  1  0
 10 13  2  0
  9 14  2  0
 14 15  1  0
  3 16  1  0
 13 16  1  0
 12 17  1  0
 13 18  1  0
  8 19  1  0
 12 19  2  0
 15 20  2  0
 19 20  1  0
M  END
>  <ID>  (1) 
conformer_0

$$$$
