
     RDKit          3D

 20 23  0  0  0  0  0  0  0  0999 V2000
    4.2113   -6.5063    9.8417 O   0  0  0  0  0  0  0  0  0  0  0  0
    3.8532   -7.6355    9.9214 C   0  0  0  0  0  0  0  0  0  0  0  0
    4.5943   -8.4574   10.6059 N   0  0  0  0  0  0  0  0  0  0  0  0
    4.1347   -9.7336   10.8349 C   0  0  0  0  0  0  0  0  0  0  0  0
    4.6022  -10.4102   11.9490 C   0  0  0  0  0  0  0  0  0  0  0  0
    3.9109  -11.4979   12.3533 C   0  0  0  0  0  0  0  0  0  0  0  0
    2.8214   -8.0295    8.9263 C   0  0  0  0  0  0  0  0  0  0  0  0
    3.0398  -10.1229   10.0610 C   0  0  0  0  0  0  0  0  0  0  0  0
    2.3998   -9.3174    9.1575 C   0  0  0  0  0  0  0  0  0  0  0  0
    5.8179   -8.0709   11.1863 C   0  0  0  0  0  0  0  0  0  0  0  0
    1.8786   -7.1669    8.4631 N   0  0  0  0  0  0  0  0  0  0  0  0
    2.7094  -11.9477   11.6721 C   0  0  0  0  0  0  0  0  0  0  0  0
    1.3401   -9.7883    8.4160 C   0  0  0  0  0  0  0  0  0  0  0  0
    0.4796   -8.9943    7.7445 C   0  0  0  0  0  0  0  0  0  0  0  0
    0.6574   -7.5441    8.0016 C   0  0  0  0  0  0  0  0  0  0  0  0
    6.1764   -8.4757   12.4530 C   0  0  0  0  0  0  0  0  0  0  0  0
    2.1336  -13.1224   12.0616 O   0  0  0  0  0  0  0  0  0  0  0  0
    2.3479  -11.2934   10.5559 C   0  0  0  0  0  0  0  0  0  0  0  0
    7.4237   -8.2828   12.8778 O   0  0  0  0  0  0  0  0  0  0  0  0
    5.8279   -9.8665   12.5358 C   0  0  0  0  0  0  0  0  0  0  0  0
  1  2  2  0
  2  3  1  0
  3  4  1  0
  4  5  1  0
  5  6  2  0
  2  7  1  0
  4  8  2  0
  7  9  1  0
  8  9  1  0
  3 10  1  0
  7 11  1  0
  6 12  1  0
  9 13  2  0
 13 14  1  0
 11 15  1  0
 14 15  1  0
 10 16  1  0
 12 17  1  0
  8 18  1  0
 12 18  2  0
 16 19  1  0
  5 20  1  0
 16 20  1  0
M  END
>  <ID>  (1) 
conformer_0

$$$$
