
     RDKit          3D

 20 22  0  0  0  0  0  0  0  0999 V2000
    1.1224   -6.5401    8.6489 O   0  0  0  0  0  0  0  0  0  0  0  0
    1.2725   -7.7908    8.1930 C   0  0  0  0  0  0  0  0  0  0  0  0
    0.4713   -8.3180    7.2865 C   0  0  0  0  0  0  0  0  0  0  0  0
    2.1286   -8.6120    9.0795 C   0  0  0  0  0  0  0  0  0  0  0  0
    2.2820   -9.9237    8.7589 C   0  0  0  0  0  0  0  0  0  0  0  0
    3.1631  -10.7669    9.5353 C   0  0  0  0  0  0  0  0  0  0  0  0
    3.7337   -9.9286   10.5826 C   0  0  0  0  0  0  0  0  0  0  0  0
    2.9549   -7.9971   10.1270 C   0  0  0  0  0  0  0  0  0  0  0  0
    0.8804   -9.7757    7.0417 C   0  0  0  0  0  0  0  0  0  0  0  0
    4.6628  -10.7941   11.5240 C   0  0  0  0  0  0  0  0  0  0  0  0
    5.7718   -9.9822   11.9690 C   0  0  0  0  0  0  0  0  0  0  0  0
    1.6558  -10.5033    7.7804 C   0  0  0  0  0  0  0  0  0  0  0  0
    2.8769   -6.5495   10.2556 O   0  0  0  0  0  0  0  0  0  0  0  0
    6.7969  -10.5119   12.8162 C   0  0  0  0  0  0  0  0  0  0  0  0
    4.3661  -11.9029   12.2610 C   0  0  0  0  0  0  0  0  0  0  0  0
    7.9930   -9.7175   13.2579 C   0  0  0  0  0  0  0  0  0  0  0  0
    3.6978   -8.6834   10.7753 C   0  0  0  0  0  0  0  0  0  0  0  0
    5.2761  -12.4871   13.1903 C   0  0  0  0  0  0  0  0  0  0  0  0
    6.4396  -11.6241   13.3787 C   0  0  0  0  0  0  0  0  0  0  0  0
    7.8137   -8.3759   13.1668 O   0  0  0  0  0  0  0  0  0  0  0  0
  1  2  1  0
  2  3  2  0
  2  4  1  0
  4  5  2  0
  5  6  1  0
  6  7  2  0
  4  8  1  0
  3  9  1  0
  7 10  1  0
 10 11  1  0
  5 12  1  0
  9 12  2  0
  8 13  1  0
 11 14  2  0
 10 15  2  0
 14 16  1  0
  7 17  1  0
  8 17  2  0
 15 18  1  0
 14 19  1  0
 18 19  2  0
 16 20  1  0
M  END
>  <ID>  (1) 
conformer_0

$$$$
