
     RDKit          3D

 21 23  0  0  0  0  0  0  0  0999 V2000
    2.7029   -6.5300   10.0125 O   0  0  0  0  0  0  0  0  0  0  0  0
    2.5844   -7.5789    9.4518 C   0  0  0  0  0  0  0  0  0  0  0  0
    3.5150   -8.5326    9.5766 N   0  0  0  0  0  0  0  0  0  0  0  0
    1.4362   -7.8995    8.4866 C   0  0  0  0  0  0  0  0  0  0  0  0
    3.4698   -9.8248    8.9630 C   0  0  0  0  0  0  0  0  0  0  0  0
    4.6472   -8.4169   10.5902 C   0  0  0  0  0  0  0  0  0  0  0  0
    5.3195   -9.6045   10.9508 C   0  0  0  0  0  0  0  0  0  0  0  0
    5.7783   -7.6048    9.9898 C   0  0  0  0  0  0  0  0  0  0  0  0
    4.5926  -10.4243   12.0103 N   0  0  0  0  0  0  0  0  0  0  0  0
    3.3113  -10.5949   12.0260 C   0  0  0  0  0  0  0  0  0  0  0  0
    1.4404   -9.0053    7.7700 C   0  0  0  0  0  0  0  0  0  0  0  0
    0.3916   -6.9097    8.3098 C   0  0  0  0  0  0  0  0  0  0  0  0
    5.3277  -11.4934   12.6425 C   0  0  0  0  0  0  0  0  0  0  0  0
    6.8570   -7.9783   10.5416 O   0  0  0  0  0  0  0  0  0  0  0  0
    0.4677   -9.2676    6.8580 F   0  0  0  0  0  0  0  0  0  0  0  0
    2.4313  -10.0553    8.0268 C   0  0  0  0  0  0  0  0  0  0  0  0
    6.3014  -11.1920   13.5144 C   0  0  0  0  0  0  0  0  0  0  0  0
    6.6294   -9.2413   11.2652 C   0  0  0  0  0  0  0  0  0  0  0  0
    2.5054   -9.9043   12.7779 O   0  0  0  0  0  0  0  0  0  0  0  0
    7.6416  -11.0779   12.9370 C   0  0  0  0  0  0  0  0  0  0  0  0
    7.6432   -9.6744   12.2061 C   0  0  0  0  0  0  0  0  0  0  0  0
  1  2  2  0
  2  3  1  0
  2  4  1  0
  3  5  1  0
  3  6  1  0
  6  7  1  0
  6  8  1  0
  7  9  1  0
  9 10  1  0
  4 11  2  0
  4 12  1  0
  9 13  1  0
  8 14  1  0
 11 15  1  0
  5 16  2  0
 11 16  1  0
 13 17  1  0
  7 18  1  0
 14 18  1  0
 10 19  2  0
 17 20  1  0
 18 21  2  0
 20 21  1  0
M  END
>  <ID>  (1) 
conformer_0

$$$$
