
     RDKit          3D

 20 21  0  0  0  0  0  0  0  0999 V2000
    4.2113   -6.5063    9.8417 O   0  0  0  0  0  0  0  0  0  0  0  0
    3.3680   -7.3087    9.6831 C   0  0  0  0  0  0  0  0  0  0  0  0
    3.2873   -8.3941   10.3094 N   0  0  0  0  0  0  0  0  0  0  0  0
    4.2510   -8.6858   11.3986 C   0  0  0  0  0  0  0  0  0  0  0  0
    2.5806   -9.4716    9.8823 C   0  0  0  0  0  0  0  0  0  0  0  0
    2.1650  -10.3470   10.8076 C   0  0  0  0  0  0  0  0  0  0  0  0
    5.5835   -8.7980   11.2430 C   0  0  0  0  0  0  0  0  0  0  0  0
    2.1489   -6.7882    9.0061 N   0  0  0  0  0  0  0  0  0  0  0  0
    3.2270  -10.8279   11.6356 N   0  0  0  0  0  0  0  0  0  0  0  0
    3.0615  -12.1224   12.0580 C   0  0  0  0  0  0  0  0  0  0  0  0
    4.0245  -12.6825   12.6317 O   0  0  0  0  0  0  0  0  0  0  0  0
    3.8052   -9.8643   12.3176 C   0  0  0  0  0  0  0  0  0  0  0  0
    4.2769  -14.0390   12.5496 C   0  0  0  0  0  0  0  0  0  0  0  0
    6.3946   -8.7617   12.3649 C   0  0  0  0  0  0  0  0  0  0  0  0
    2.0322  -12.7964   11.8629 O   0  0  0  0  0  0  0  0  0  0  0  0
    1.3711   -9.0012    8.9373 C   0  0  0  0  0  0  0  0  0  0  0  0
    1.5861   -7.8308    8.1906 C   0  0  0  0  0  0  0  0  0  0  0  0
    7.5323   -8.0013   12.5239 O   0  0  0  0  0  0  0  0  0  0  0  0
    6.3261   -9.8059   13.2389 O   0  0  0  0  0  0  0  0  0  0  0  0
    0.3178   -7.2810    7.6479 C   0  0  0  0  0  0  0  0  0  0  0  0
  1  2  2  0
  2  3  1  0
  3  4  1  0
  3  5  1  0
  5  6  1  0
  4  7  1  0
  2  8  1  0
  6  9  1  0
  9 10  1  0
 10 11  1  0
  4 12  1  0
  9 12  1  0
 11 13  1  0
  7 14  1  0
 10 15  2  0
  5 16  1  0
  8 17  1  0
 16 17  1  0
 14 18  2  0
 14 19  1  0
 17 20  1  0
M  END
>  <ID>  (1) 
conformer_0

$$$$
