
     RDKit          3D

 20 23  0  0  0  0  0  0  0  0999 V2000
    4.2113   -6.5063    9.8417 O   0  0  0  0  0  0  0  0  0  0  0  0
    3.3680   -7.3087    9.6831 C   0  0  0  0  0  0  0  0  0  0  0  0
    3.2873   -8.3941   10.3094 N   0  0  0  0  0  0  0  0  0  0  0  0
    4.2510   -8.6858   11.3986 C   0  0  0  0  0  0  0  0  0  0  0  0
    2.5806   -9.4716    9.8823 C   0  0  0  0  0  0  0  0  0  0  0  0
    1.5719   -9.1438    8.8603 C   0  0  0  0  0  0  0  0  0  0  0  0
    3.7896   -9.8435   12.1909 C   0  0  0  0  0  0  0  0  0  0  0  0
    4.7669  -10.2569   13.1230 C   0  0  0  0  0  0  0  0  0  0  0  0
    1.5484   -7.9649    8.2182 N   0  0  0  0  0  0  0  0  0  0  0  0
    5.5374   -8.3506   11.3614 C   0  0  0  0  0  0  0  0  0  0  0  0
    2.7089  -10.6486   10.3296 C   0  0  0  0  0  0  0  0  0  0  0  0
    2.2632   -6.9318    8.7804 C   0  0  0  0  0  0  0  0  0  0  0  0
    6.4702   -8.7170   12.3082 C   0  0  0  0  0  0  0  0  0  0  0  0
    6.1075   -9.7079   13.3266 C   0  0  0  0  0  0  0  0  0  0  0  0
    1.1106  -10.1709    8.0350 C   0  0  0  0  0  0  0  0  0  0  0  0
    7.8111   -8.1484   12.3154 O   0  0  0  0  0  0  0  0  0  0  0  0
    0.3333   -9.7923    6.8828 C   0  0  0  0  0  0  0  0  0  0  0  0
    0.3940   -8.4658    6.5174 C   0  0  0  0  0  0  0  0  0  0  0  0
    0.8295   -7.5695    7.2426 C   0  0  0  0  0  0  0  0  0  0  0  0
    3.1680  -10.8116   11.6571 C   0  0  0  0  0  0  0  0  0  0  0  0
  1  2  2  0
  2  3  1  0
  3  4  1  0
  3  5  1  0
  5  6  1  0
  4  7  1  0
  7  8  2  0
  6  9  1  0
  4 10  2  0
  5 11  2  0
  2 12  1  0
  9 12  1  0
 10 13  1  0
  8 14  1  0
 13 14  2  0
  6 15  2  0
 13 16  1  0
 15 17  1  0
 17 18  2  0
  9 19  1  0
 18 19  1  0
  7 20  1  0
 11 20  1  0
M  END
>  <ID>  (1) 
conformer_0

$$$$
