
     RDKit          3D

 14 14  0  0  0  0  0  0  0  0999 V2000
    1.3405   -6.1720    9.1313 O   0  0  0  0  0  0  0  0  0  0  0  0
    1.4657   -7.2974    8.6731 C   0  0  0  0  0  0  0  0  0  0  0  0
    2.5263   -8.1320    9.2139 C   0  0  0  0  0  0  0  0  0  0  0  0
    2.7970   -9.1930    8.5668 C   0  0  0  0  0  0  0  0  0  0  0  0
    0.6541   -7.7028    7.6901 C   0  0  0  0  0  0  0  0  0  0  0  0
   -0.3958   -6.9229    7.2996 F   0  0  0  0  0  0  0  0  0  0  0  0
    3.4070   -7.5505   10.2460 C   0  0  0  0  0  0  0  0  0  0  0  0
    1.9348   -9.7444    7.5703 C   0  0  0  0  0  0  0  0  0  0  0  0
    3.5064   -8.1036   11.2317 O   0  0  0  0  0  0  0  0  0  0  0  0
    2.1912  -11.0314    6.9383 C   0  0  0  0  0  0  0  0  0  0  0  0
    4.2882   -6.5965    9.8645 O   0  0  0  0  0  0  0  0  0  0  0  0
    1.6302  -12.0560    7.3850 O   0  0  0  0  0  0  0  0  0  0  0  0
    2.9552  -10.9837    5.9001 O   0  0  0  0  0  0  0  0  0  0  0  0
    0.8357   -8.9598    7.1849 C   0  0  0  0  0  0  0  0  0  0  0  0
  1  2  1  0
  2  3  1  0
  3  4  2  0
  2  5  2  0
  5  6  1  0
  3  7  1  0
  4  8  1  0
  7  9  2  0
  8 10  1  0
  7 11  1  0
 10 12  2  0
 10 13  1  0
  5 14  1  0
  8 14  2  0
M  END
>  <ID>  (1) 
conformer_0

$$$$
