
     RDKit          3D

 20 22  0  0  0  0  0  0  0  0999 V2000
    0.6653   -6.5523    8.6170 O   0  0  0  0  0  0  0  0  0  0  0  0
    1.6820   -7.2158    8.9595 C   0  0  0  0  0  0  0  0  0  0  0  0
    2.7838   -6.6631    9.6257 C   0  0  0  0  0  0  0  0  0  0  0  0
    2.1142   -8.5201    8.3464 C   0  0  0  0  0  0  0  0  0  0  0  0
    3.2398   -9.1666    8.7154 C   0  0  0  0  0  0  0  0  0  0  0  0
    4.2217   -8.3674    9.5028 C   0  0  0  0  0  0  0  0  0  0  0  0
    3.4648  -10.5274    8.1303 C   0  0  0  0  0  0  0  0  0  0  0  0
    3.9923   -7.1756    9.8928 C   0  0  0  0  0  0  0  0  0  0  0  0
    5.6047   -9.0392    9.7349 C   0  0  0  0  0  0  0  0  0  0  0  0
    5.7892   -9.1274   11.1679 N   0  0  0  0  0  0  0  0  0  0  0  0
    5.2231   -9.8424   12.0149 C   0  0  0  0  0  0  0  0  0  0  0  0
    5.5376   -9.7630   13.3966 C   0  0  0  0  0  0  0  0  0  0  0  0
    7.2721   -8.8190   11.5676 C   0  0  0  0  0  0  0  0  0  0  0  0
    4.0988  -10.4365   11.7922 O   0  0  0  0  0  0  0  0  0  0  0  0
    7.5755   -8.6850   12.9090 C   0  0  0  0  0  0  0  0  0  0  0  0
    6.9311   -9.7463   13.6209 C   0  0  0  0  0  0  0  0  0  0  0  0
    0.9142   -8.9908    7.5651 C   0  0  0  0  0  0  0  0  0  0  0  0
    1.4145  -10.1327    6.7791 C   0  0  0  0  0  0  0  0  0  0  0  0
    2.2987  -11.1041    7.5766 N   0  0  0  0  0  0  0  0  0  0  0  0
    2.7581  -12.2468    6.7279 C   0  0  0  0  0  0  0  0  0  0  0  0
  1  2  1  0
  2  3  2  0
  2  4  1  0
  4  5  2  0
  5  6  1  0
  5  7  1  0
  3  8  1  0
  6  8  2  0
  6  9  1  0
  9 10  1  0
 10 11  1  0
 11 12  1  0
 10 13  1  0
 11 14  2  0
 13 15  1  0
 12 16  1  0
 15 16  1  0
  4 17  1  0
 17 18  1  0
  7 19  1  0
 18 19  1  0
 19 20  1  0
M  END
>  <ID>  (1) 
conformer_0

$$$$
