
     RDKit          3D

 19 22  0  0  0  0  0  0  0  0999 V2000
    4.2113   -6.5063    9.8417 O   0  0  0  0  0  0  0  0  0  0  0  0
    3.8532   -7.6355    9.9214 C   0  0  0  0  0  0  0  0  0  0  0  0
    4.5943   -8.4574   10.6059 N   0  0  0  0  0  0  0  0  0  0  0  0
    4.1347   -9.7336   10.8349 C   0  0  0  0  0  0  0  0  0  0  0  0
    4.6022  -10.4102   11.9490 C   0  0  0  0  0  0  0  0  0  0  0  0
    3.9109  -11.4979   12.3533 C   0  0  0  0  0  0  0  0  0  0  0  0
    2.8214   -8.0295    8.9263 C   0  0  0  0  0  0  0  0  0  0  0  0
    3.0398  -10.1229   10.0610 C   0  0  0  0  0  0  0  0  0  0  0  0
    2.3998   -9.3174    9.1575 C   0  0  0  0  0  0  0  0  0  0  0  0
    5.7873   -9.9714   12.7817 C   0  0  0  0  0  0  0  0  0  0  0  0
    2.9296  -12.1177   11.5849 C   0  0  0  0  0  0  0  0  0  0  0  0
    6.3885   -8.7559   12.5550 C   0  0  0  0  0  0  0  0  0  0  0  0
    2.4220  -11.3985   10.5287 C   0  0  0  0  0  0  0  0  0  0  0  0
    5.5864  -10.1126   14.2440 O   0  0  0  0  0  0  0  0  0  0  0  0
    7.4422   -8.3018   12.9486 O   0  0  0  0  0  0  0  0  0  0  0  0
    1.4036   -9.8146    8.2017 C   0  0  0  0  0  0  0  0  0  0  0  0
    1.9296   -7.3753    8.0833 N   0  0  0  0  0  0  0  0  0  0  0  0
    0.9095   -8.1874    7.6550 C   0  0  0  0  0  0  0  0  0  0  0  0
    5.8790   -7.9979   11.2490 C   0  0  0  0  0  0  0  0  0  0  0  0
  1  2  2  0
  2  3  1  0
  3  4  1  0
  4  5  1  0
  5  6  2  0
  2  7  1  0
  4  8  2  0
  7  9  1  0
  8  9  1  0
  5 10  1  0
  6 11  1  0
 10 12  1  0
  8 13  1  0
 11 13  2  0
 10 14  1  0
 12 15  1  0
  9 16  2  0
  7 17  2  0
 16 18  1  0
 17 18  1  0
  3 19  1  0
 12 19  1  0
M  END
>  <ID>  (1) 
conformer_0

$$$$
