
     RDKit          3D

 21 23  0  0  0  0  0  0  0  0999 V2000
    4.2113   -6.5063    9.8417 O   0  0  0  0  0  0  0  0  0  0  0  0
    3.8532   -7.6355    9.9214 C   0  0  0  0  0  0  0  0  0  0  0  0
    4.5943   -8.4574   10.6059 N   0  0  0  0  0  0  0  0  0  0  0  0
    4.1347   -9.7336   10.8349 C   0  0  0  0  0  0  0  0  0  0  0  0
    4.6022  -10.4102   11.9490 C   0  0  0  0  0  0  0  0  0  0  0  0
    3.9109  -11.4979   12.3533 C   0  0  0  0  0  0  0  0  0  0  0  0
    2.8214   -8.0295    8.9263 C   0  0  0  0  0  0  0  0  0  0  0  0
    3.0398  -10.1229   10.0610 C   0  0  0  0  0  0  0  0  0  0  0  0
    5.6945   -9.9561   12.7707 C   0  0  0  0  0  0  0  0  0  0  0  0
    2.4815   -9.3103    9.1460 N   0  0  0  0  0  0  0  0  0  0  0  0
    1.3668   -9.8752    8.3598 C   0  0  0  0  0  0  0  0  0  0  0  0
    2.4439  -11.4663   10.5658 C   0  0  0  0  0  0  0  0  0  0  0  0
    7.0729  -10.2064   12.2877 C   0  0  0  0  0  0  0  0  0  0  0  0
    7.6821  -11.2833   12.8695 C   0  0  0  0  0  0  0  0  0  0  0  0
    1.4505   -7.2026    9.1311 C   0  0  0  0  0  0  0  0  0  0  0  0
    7.9605   -8.9942   12.5769 C   0  0  0  0  0  0  0  0  0  0  0  0
    8.6053   -8.5763   11.7483 O   0  0  0  0  0  0  0  0  0  0  0  0
    7.6767   -8.1627   13.5304 O   0  0  0  0  0  0  0  0  0  0  0  0
    0.8473   -8.6596    7.5402 C   0  0  0  0  0  0  0  0  0  0  0  0
    2.9587  -12.0627   11.6251 C   0  0  0  0  0  0  0  0  0  0  0  0
    0.5745   -7.5148    8.0764 C   0  0  0  0  0  0  0  0  0  0  0  0
  1  2  2  0
  2  3  1  0
  3  4  1  0
  4  5  1  0
  5  6  2  0
  2  7  1  0
  4  8  2  0
  5  9  1  0
  7 10  1  0
  8 10  1  0
 10 11  1  0
  8 12  1  0
  9 13  1  0
 13 14  1  0
  7 15  1  0
 13 16  1  0
 16 17  2  0
 16 18  1  0
 11 19  1  0
  6 20  1  0
 12 20  2  0
 15 21  1  0
 19 21  1  0
M  END
>  <ID>  (1) 
conformer_0

$$$$
