
     RDKit          3D

  9  9  0  0  0  0  0  0  0  0999 V2000
    0.9270   -6.3831    8.8255 O   0  0  0  0  0  0  0  0  0  0  0  0
    1.8860   -7.1604    9.1357 C   0  0  0  0  0  0  0  0  0  0  0  0
    1.8949   -8.5356    8.5899 C   0  0  0  0  0  0  0  0  0  0  0  0
    3.0279   -6.7055    9.5771 O   0  0  0  0  0  0  0  0  0  0  0  0
    1.0612   -8.8286    7.7179 C   0  0  0  0  0  0  0  0  0  0  0  0
    1.1312  -10.3292    7.3580 C   0  0  0  0  0  0  0  0  0  0  0  0
    2.6618   -9.5810    9.3988 C   0  0  0  0  0  0  0  0  0  0  0  0
    2.6502  -10.8271    9.0614 C   0  0  0  0  0  0  0  0  0  0  0  0
    1.8050  -11.1927    7.9767 C   0  0  0  0  0  0  0  0  0  0  0  0
  1  2  1  0
  2  3  1  0
  2  4  2  0
  3  5  2  0
  5  6  1  0
  3  7  1  0
  7  8  2  0
  6  9  2  0
  8  9  1  0
M  END
>  <ID>  (1) 
conformer_0

$$$$
