
     RDKit          3D

  6  5  0  0  0  0  0  0  0  0999 V2000
    7.5893  -10.1467   13.8878 O   0  0  0  0  0  0  0  0  0  0  0  0
    7.1659   -9.3591   13.0701 C   0  0  0  0  0  0  0  0  0  0  0  0
    5.9070   -9.2846   13.0032 C   0  0  0  0  0  0  0  0  0  0  0  0
    5.0925  -10.0655   13.7850 O   0  0  0  0  0  0  0  0  0  0  0  0
    7.8601   -9.3449   11.9819 O   0  0  0  0  0  0  0  0  0  0  0  0
    5.2393   -8.3458   12.2007 O   0  0  0  0  0  0  0  0  0  0  0  0
  1  2  1  0
  2  3  1  0
  3  4  2  0
  2  5  1  0
  3  6  1  0
M  END
>  <ID>  (1) 
conformer_0

$$$$
