
     RDKit          3D

 21 22  0  0  0  0  0  0  0  0999 V2000
    4.2475   -6.4076   10.2292 O   0  0  0  0  0  0  0  0  0  0  0  0
    4.4249   -7.5513   10.0951 C   0  0  0  0  0  0  0  0  0  0  0  0
    3.4394   -8.3652    9.8076 N   0  0  0  0  0  0  0  0  0  0  0  0
    5.6950   -8.1220   10.5519 C   0  0  0  0  0  0  0  0  0  0  0  0
    5.9514   -8.1963   11.9292 N   0  0  0  0  0  0  0  0  0  0  0  0
    3.6232   -9.8231    9.6819 C   0  0  0  0  0  0  0  0  0  0  0  0
    3.6720  -10.4097    8.5749 C   0  0  0  0  0  0  0  0  0  0  0  0
    4.1257  -11.5578    8.3464 C   0  0  0  0  0  0  0  0  0  0  0  0
    7.0001   -8.8560   12.5314 C   0  0  0  0  0  0  0  0  0  0  0  0
    6.4876   -9.6841   13.4909 C   0  0  0  0  0  0  0  0  0  0  0  0
    5.3355  -11.8480    8.8391 O   0  0  0  0  0  0  0  0  0  0  0  0
    2.2523  -10.2778    7.8487 C   0  0  0  0  0  0  0  0  0  0  0  0
    8.1457   -8.2944   12.6343 O   0  0  0  0  0  0  0  0  0  0  0  0
    3.7314  -12.4949    7.4128 N   0  0  0  0  0  0  0  0  0  0  0  0
    2.1393   -7.7984    9.3178 C   0  0  0  0  0  0  0  0  0  0  0  0
    2.5743  -12.3118    6.6380 C   0  0  0  0  0  0  0  0  0  0  0  0
    1.3304   -8.7536    8.4445 C   0  0  0  0  0  0  0  0  0  0  0  0
    0.5425   -8.2940    7.4582 C   0  0  0  0  0  0  0  0  0  0  0  0
    5.2865  -10.1502   13.5457 O   0  0  0  0  0  0  0  0  0  0  0  0
    2.2749  -13.0266    5.7425 O   0  0  0  0  0  0  0  0  0  0  0  0
    1.8285  -11.0085    6.9237 C   0  0  0  0  0  0  0  0  0  0  0  0
  1  2  2  0
  2  3  1  0
  2  4  1  0
  4  5  1  0
  3  6  1  0
  6  7  1  0
  7  8  1  0
  5  9  1  0
  9 10  1  0
  8 11  2  0
  7 12  1  0
  9 13  2  0
  8 14  1  0
  3 15  1  0
 14 16  1  0
 12 17  1  0
 15 17  1  0
 17 18  1  0
 10 19  1  0
 16 20  2  0
 12 21  2  0
 16 21  1  0
M  END
>  <ID>  (1) 
conformer_0

$$$$
