
     RDKit          3D

 22 25  0  0  0  0  0  0  0  0999 V2000
    4.2113   -6.5063    9.8417 O   0  0  0  0  0  0  0  0  0  0  0  0
    3.8532   -7.6355    9.9214 C   0  0  0  0  0  0  0  0  0  0  0  0
    4.5943   -8.4574   10.6059 N   0  0  0  0  0  0  0  0  0  0  0  0
    4.1347   -9.7336   10.8349 C   0  0  0  0  0  0  0  0  0  0  0  0
    4.6022  -10.4102   11.9490 O   0  0  0  0  0  0  0  0  0  0  0  0
    2.9362  -10.2817   10.2531 C   0  0  0  0  0  0  0  0  0  0  0  0
    2.5640  -11.5847   10.5592 C   0  0  0  0  0  0  0  0  0  0  0  0
    1.6281  -12.1510   10.0510 O   0  0  0  0  0  0  0  0  0  0  0  0
    5.8018   -9.9814   12.6202 C   0  0  0  0  0  0  0  0  0  0  0  0
    2.2877   -9.3851    9.2465 C   0  0  0  0  0  0  0  0  0  0  0  0
    3.4184  -12.3788   11.0421 O   0  0  0  0  0  0  0  0  0  0  0  0
    6.2909  -10.8037   13.3982 C   0  0  0  0  0  0  0  0  0  0  0  0
    2.7089   -7.9913    9.2472 C   0  0  0  0  0  0  0  0  0  0  0  0
    6.4788   -8.7552   12.1040 C   0  0  0  0  0  0  0  0  0  0  0  0
    5.7000  -11.9354   13.9764 C   0  0  0  0  0  0  0  0  0  0  0  0
    1.2618   -9.7662    8.4860 C   0  0  0  0  0  0  0  0  0  0  0  0
    0.8415   -8.4144    7.7385 C   0  0  0  0  0  0  0  0  0  0  0  0
    1.7475   -7.3349    8.3686 N   0  0  0  0  0  0  0  0  0  0  0  0
    7.6995   -8.3894   12.6803 C   0  0  0  0  0  0  0  0  0  0  0  0
    5.8085   -7.9484   11.1332 C   0  0  0  0  0  0  0  0  0  0  0  0
    7.4841  -10.5244   14.0273 C   0  0  0  0  0  0  0  0  0  0  0  0
    8.2169   -9.2934   13.6447 C   0  0  0  0  0  0  0  0  0  0  0  0
  1  2  2  0
  2  3  1  0
  3  4  1  0
  4  5  1  0
  4  6  2  0
  6  7  1  0
  7  8  2  0
  5  9  1  0
  6 10  1  0
  7 11  1  0
  9 12  1  0
  2 13  1  0
 10 13  1  0
  9 14  2  0
 12 15  1  0
 10 16  2  0
 16 17  1  0
 13 18  1  0
 17 18  1  0
 14 19  1  0
  3 20  1  0
 14 20  1  0
 12 21  2  0
 19 22  2  0
 21 22  1  0
M  END
>  <ID>  (1) 
conformer_0

$$$$
