
     RDKit          3D

 20 20  0  0  0  0  0  0  0  0999 V2000
    1.3405   -6.1720    9.1313 O   0  0  0  0  0  0  0  0  0  0  0  0
    1.4657   -7.2974    8.6731 C   0  0  0  0  0  0  0  0  0  0  0  0
    0.5965   -7.7893    7.8499 C   0  0  0  0  0  0  0  0  0  0  0  0
    2.4906   -8.2377    9.2197 C   0  0  0  0  0  0  0  0  0  0  0  0
    2.4873   -9.5794    8.7834 C   0  0  0  0  0  0  0  0  0  0  0  0
    3.4536   -7.7269   10.1240 C   0  0  0  0  0  0  0  0  0  0  0  0
    1.4609   -9.8724    7.7635 C   0  0  0  0  0  0  0  0  0  0  0  0
    4.4513   -8.5338   10.4414 N   0  0  0  0  0  0  0  0  0  0  0  0
    1.5550  -11.3970    7.3434 C   0  0  0  0  0  0  0  0  0  0  0  0
    4.2626   -9.5919   11.1881 C   0  0  0  0  0  0  0  0  0  0  0  0
    3.5175   -6.4848   10.3237 O   0  0  0  0  0  0  0  0  0  0  0  0
    5.8445   -7.9909   10.2956 C   0  0  0  0  0  0  0  0  0  0  0  0
    6.4564   -8.2741    9.1400 C   0  0  0  0  0  0  0  0  0  0  0  0
    6.6671   -8.0404   11.5484 C   0  0  0  0  0  0  0  0  0  0  0  0
    3.4438   -9.5554   12.1706 C   0  0  0  0  0  0  0  0  0  0  0  0
    2.1312   -9.8844   12.1094 O   0  0  0  0  0  0  0  0  0  0  0  0
    6.3672   -7.7085   12.6471 O   0  0  0  0  0  0  0  0  0  0  0  0
    4.0147  -10.2627   13.4624 C   0  0  0  0  0  0  0  0  0  0  0  0
    7.6618   -8.9722   11.5088 O   0  0  0  0  0  0  0  0  0  0  0  0
    0.5377   -9.0929    7.3825 C   0  0  0  0  0  0  0  0  0  0  0  0
  1  2  1  0
  2  3  2  0
  2  4  1  0
  4  5  2  0
  4  6  1  0
  5  7  1  0
  6  8  1  0
  7  9  1  0
  8 10  1  0
  6 11  2  0
  8 12  1  0
 12 13  1  0
 12 14  1  0
 10 15  1  0
 15 16  1  0
 14 17  2  0
 15 18  1  0
 14 19  1  0
  3 20  1  0
  7 20  2  0
M  END
>  <ID>  (1) 
conformer_0

$$$$
