
     RDKit          3D

 22 23  0  0  0  0  0  0  0  0999 V2000
    4.2475   -6.4076   10.2292 O   0  0  0  0  0  0  0  0  0  0  0  0
    4.4249   -7.5513   10.0951 C   0  0  0  0  0  0  0  0  0  0  0  0
    3.4394   -8.3652    9.8076 N   0  0  0  0  0  0  0  0  0  0  0  0
    5.6950   -8.1220   10.5519 C   0  0  0  0  0  0  0  0  0  0  0  0
    5.9514   -8.1963   11.9292 N   0  0  0  0  0  0  0  0  0  0  0  0
    3.6232   -9.8231    9.6819 C   0  0  0  0  0  0  0  0  0  0  0  0
    3.6720  -10.4097    8.5749 C   0  0  0  0  0  0  0  0  0  0  0  0
    4.1257  -11.5578    8.3464 C   0  0  0  0  0  0  0  0  0  0  0  0
    7.0001   -8.8560   12.5314 C   0  0  0  0  0  0  0  0  0  0  0  0
    6.5204   -8.6796    9.8135 O   0  0  0  0  0  0  0  0  0  0  0  0
    2.2537  -10.3514    7.9021 C   0  0  0  0  0  0  0  0  0  0  0  0
    2.3165   -7.7917    9.0290 C   0  0  0  0  0  0  0  0  0  0  0  0
    1.8231   -6.7842    9.2688 O   0  0  0  0  0  0  0  0  0  0  0  0
    6.5387  -10.0560   13.2921 C   0  0  0  0  0  0  0  0  0  0  0  0
    7.3999  -10.9354   13.6503 O   0  0  0  0  0  0  0  0  0  0  0  0
    2.1892  -10.8789    6.6203 C   0  0  0  0  0  0  0  0  0  0  0  0
    1.3140  -10.9756    8.8882 C   0  0  0  0  0  0  0  0  0  0  0  0
    1.7684   -8.7124    7.9736 C   0  0  0  0  0  0  0  0  0  0  0  0
    0.7611   -8.3411    7.2943 O   0  0  0  0  0  0  0  0  0  0  0  0
    5.2354  -10.1865   13.5985 O   0  0  0  0  0  0  0  0  0  0  0  0
    2.7823  -12.1657    6.6378 C   0  0  0  0  0  0  0  0  0  0  0  0
    4.1890  -12.0826    6.9995 C   0  0  0  0  0  0  0  0  0  0  0  0
  1  2  2  0
  2  3  1  0
  2  4  1  0
  4  5  1  0
  3  6  1  0
  6  7  1  0
  7  8  1  0
  5  9  1  0
  4 10  2  0
  7 11  1  0
  3 12  1  0
 12 13  2  0
  9 14  1  0
 14 15  2  0
 11 16  1  0
 11 17  1  0
 11 18  1  0
 12 18  1  0
 18 19  2  0
 14 20  1  0
 16 21  1  0
  8 22  1  0
 21 22  1  0
M  END
>  <ID>  (1) 
conformer_0

$$$$
