
     RDKit          3D

 13 14  0  0  0  0  0  0  0  0999 V2000
    1.7585   -6.1202    9.5402 O   0  0  0  0  0  0  0  0  0  0  0  0
    2.6640   -7.0283    9.6215 C   0  0  0  0  0  0  0  0  0  0  0  0
    2.2814   -8.2881    9.1000 C   0  0  0  0  0  0  0  0  0  0  0  0
    3.9229   -6.6858    9.0449 C   0  0  0  0  0  0  0  0  0  0  0  0
    3.2038   -8.9957    8.4469 C   0  0  0  0  0  0  0  0  0  0  0  0
    1.0342   -8.0806    8.2747 O   0  0  0  0  0  0  0  0  0  0  0  0
    2.9795  -10.0765    7.7737 N   0  0  0  0  0  0  0  0  0  0  0  0
    4.9791   -6.1717    9.7490 O   0  0  0  0  0  0  0  0  0  0  0  0
    2.2906  -10.4090    6.7606 C   0  0  0  0  0  0  0  0  0  0  0  0
    3.1168  -11.2639    8.6611 C   0  0  0  0  0  0  0  0  0  0  0  0
    2.2120  -11.7430    6.5446 C   0  0  0  0  0  0  0  0  0  0  0  0
    2.8154  -12.2997    7.7354 N   0  0  0  0  0  0  0  0  0  0  0  0
    4.1440   -7.8605    8.1625 C   0  0  0  0  0  0  0  0  0  0  0  0
  1  2  1  0
  2  3  1  0
  2  4  1  0
  3  5  1  0
  3  6  1  0
  5  7  1  0
  4  8  1  0
  7  9  1  0
  7 10  1  0
  9 11  2  0
 10 12  2  0
 11 12  1  0
  4 13  1  0
  5 13  2  0
M  END
>  <ID>  (1) 
conformer_0

$$$$
