
     RDKit          3D

  9  9  0  0  0  0  0  0  0  0999 V2000
    0.3497   -7.6049    7.6638 O   0  0  0  0  0  0  0  0  0  0  0  0
    0.9527   -7.7714    8.6838 C   0  0  0  0  0  0  0  0  0  0  0  0
    2.2090   -7.0319    8.8188 C   0  0  0  0  0  0  0  0  0  0  0  0
    0.7822   -8.8615    9.5053 C   0  0  0  0  0  0  0  0  0  0  0  0
    1.7495   -9.3102   10.3749 C   0  0  0  0  0  0  0  0  0  0  0  0
    2.8471   -8.4037   10.6955 C   0  0  0  0  0  0  0  0  0  0  0  0
    3.0741   -7.3134    9.8687 C   0  0  0  0  0  0  0  0  0  0  0  0
    4.0247   -6.4992   10.0290 O   0  0  0  0  0  0  0  0  0  0  0  0
    3.6711   -8.6896   11.6151 O   0  0  0  0  0  0  0  0  0  0  0  0
  1  2  1  0
  2  3  1  0
  2  4  2  0
  4  5  1  0
  5  6  2  0
  3  7  2  0
  6  7  1  0
  7  8  1  0
  6  9  1  0
M  END
>  <ID>  (1) 
conformer_0

$$$$
