
     RDKit          3D

 22 26  0  0  0  0  0  0  0  0999 V2000
    4.2113   -6.5063    9.8417 O   0  0  0  0  0  0  0  0  0  0  0  0
    3.8532   -7.6355    9.9214 C   0  0  0  0  0  0  0  0  0  0  0  0
    4.5943   -8.4574   10.6059 N   0  0  0  0  0  0  0  0  0  0  0  0
    4.1347   -9.7336   10.8349 C   0  0  0  0  0  0  0  0  0  0  0  0
    4.6022  -10.4102   11.9490 C   0  0  0  0  0  0  0  0  0  0  0  0
    3.9109  -11.4979   12.3533 C   0  0  0  0  0  0  0  0  0  0  0  0
    2.8214   -8.0295    8.9263 C   0  0  0  0  0  0  0  0  0  0  0  0
    3.0398  -10.1229   10.0610 C   0  0  0  0  0  0  0  0  0  0  0  0
    2.3998   -9.3174    9.1575 C   0  0  0  0  0  0  0  0  0  0  0  0
    5.7873   -9.9714   12.7817 C   0  0  0  0  0  0  0  0  0  0  0  0
    5.9180  -10.2357   13.8599 O   0  0  0  0  0  0  0  0  0  0  0  0
    2.4832  -11.5154   10.5976 C   0  0  0  0  0  0  0  0  0  0  0  0
    1.4040   -9.8598    8.3757 C   0  0  0  0  0  0  0  0  0  0  0  0
    5.9864   -8.0965   10.9981 C   0  0  0  0  0  0  0  0  0  0  0  0
    2.9561  -12.1321   11.6456 C   0  0  0  0  0  0  0  0  0  0  0  0
    2.0705   -7.2213    8.1393 C   0  0  0  0  0  0  0  0  0  0  0  0
    6.5454   -8.7819   12.1451 C   0  0  0  0  0  0  0  0  0  0  0  0
    1.0067  -11.3651    8.3425 C   0  0  0  0  0  0  0  0  0  0  0  0
    7.6698   -8.4631   12.6495 O   0  0  0  0  0  0  0  0  0  0  0  0
    0.8297   -8.8253    7.3914 C   0  0  0  0  0  0  0  0  0  0  0  0
    1.5516  -12.0675    9.5731 C   0  0  0  0  0  0  0  0  0  0  0  0
    1.1122   -7.6808    7.4044 C   0  0  0  0  0  0  0  0  0  0  0  0
  1  2  2  0
  2  3  1  0
  3  4  1  0
  4  5  1  0
  5  6  2  0
  2  7  1  0
  4  8  2  0
  7  9  1  0
  8  9  1  0
  5 10  1  0
 10 11  2  0
  8 12  1  0
  9 13  2  0
  3 14  1  0
  6 15  1  0
 12 15  2  0
  7 16  2  0
 10 17  1  0
 14 17  1  0
 13 18  1  0
 17 19  2  0
 13 20  1  0
 12 21  1  0
 18 21  1  0
 16 22  1  0
 20 22  2  0
M  END
>  <ID>  (1) 
conformer_0

$$$$
