
     RDKit          3D

 21 24  0  0  0  0  0  0  0  0999 V2000
    4.2113   -6.5063    9.8417 O   0  0  0  0  0  0  0  0  0  0  0  0
    3.8532   -7.6355    9.9214 C   0  0  0  0  0  0  0  0  0  0  0  0
    4.5943   -8.4574   10.6059 N   0  0  0  0  0  0  0  0  0  0  0  0
    4.1347   -9.7336   10.8349 C   0  0  0  0  0  0  0  0  0  0  0  0
    4.6022  -10.4102   11.9490 C   0  0  0  0  0  0  0  0  0  0  0  0
    3.9109  -11.4979   12.3533 C   0  0  0  0  0  0  0  0  0  0  0  0
    2.8214   -8.0295    8.9263 C   0  0  0  0  0  0  0  0  0  0  0  0
    3.0398  -10.1229   10.0610 C   0  0  0  0  0  0  0  0  0  0  0  0
    5.6945   -9.9561   12.7707 C   0  0  0  0  0  0  0  0  0  0  0  0
    2.3551   -9.3633    9.1306 C   0  0  0  0  0  0  0  0  0  0  0  0
    1.9141   -7.1004    8.5210 O   0  0  0  0  0  0  0  0  0  0  0  0
    2.1102  -10.0734    7.8783 C   0  0  0  0  0  0  0  0  0  0  0  0
    2.1071  -11.3574    7.9808 C   0  0  0  0  0  0  0  0  0  0  0  0
    5.8365   -9.9936   13.8708 O   0  0  0  0  0  0  0  0  0  0  0  0
    5.7997   -7.9095   11.1736 C   0  0  0  0  0  0  0  0  0  0  0  0
    2.8567  -11.6661   10.1870 C   0  0  0  0  0  0  0  0  0  0  0  0
    6.4439   -8.7371   12.2109 C   0  0  0  0  0  0  0  0  0  0  0  0
    3.1138   -9.6882    7.0759 O   0  0  0  0  0  0  0  0  0  0  0  0
    7.6018   -8.3815   12.7005 O   0  0  0  0  0  0  0  0  0  0  0  0
    3.0888  -12.1848   11.6089 C   0  0  0  0  0  0  0  0  0  0  0  0
    2.2251  -12.1963    9.1463 O   0  0  0  0  0  0  0  0  0  0  0  0
  1  2  2  0
  2  3  1  0
  3  4  1  0
  4  5  1  0
  5  6  2  0
  2  7  1  0
  4  8  2  0
  5  9  1  0
  7 10  1  0
  8 10  1  0
  7 11  1  0
 10 12  1  0
 12 13  1  0
  9 14  2  0
  3 15  1  0
  8 16  1  0
  9 17  1  0
 15 17  1  0
 12 18  1  0
 17 19  2  0
  6 20  1  0
 16 20  2  0
 13 21  1  0
 16 21  1  0
M  END
>  <ID>  (1) 
conformer_0

$$$$
