
     RDKit          3D

 16 18  0  0  0  0  0  0  0  0999 V2000
    4.2113   -6.5063    9.8417 O   0  0  0  0  0  0  0  0  0  0  0  0
    3.8532   -7.6355    9.9214 C   0  0  0  0  0  0  0  0  0  0  0  0
    4.5943   -8.4574   10.6059 N   0  0  0  0  0  0  0  0  0  0  0  0
    4.1347   -9.7336   10.8349 C   0  0  0  0  0  0  0  0  0  0  0  0
    2.8789  -10.0828   10.2269 C   0  0  0  0  0  0  0  0  0  0  0  0
    2.1159   -9.1836    9.4265 C   0  0  0  0  0  0  0  0  0  0  0  0
    5.8752   -8.1527   11.1251 C   0  0  0  0  0  0  0  0  0  0  0  0
    1.0383   -9.6468    8.6032 C   0  0  0  0  0  0  0  0  0  0  0  0
    0.2918   -8.5852    8.0954 C   0  0  0  0  0  0  0  0  0  0  0  0
    2.5481   -7.8694    9.2618 C   0  0  0  0  0  0  0  0  0  0  0  0
    1.9208   -6.9604    8.6928 C   0  0  0  0  0  0  0  0  0  0  0  0
    6.3849   -8.8969   12.2217 C   0  0  0  0  0  0  0  0  0  0  0  0
    0.7168   -7.2427    8.0274 C   0  0  0  0  0  0  0  0  0  0  0  0
    4.0976  -10.1196   12.2894 C   0  0  0  0  0  0  0  0  0  0  0  0
    5.4091   -9.7055   12.9698 C   0  0  0  0  0  0  0  0  0  0  0  0
    7.5346   -8.4946   12.9012 C   0  0  0  0  0  0  0  0  0  0  0  0
  1  2  2  0
  2  3  1  0
  3  4  1  0
  4  5  1  0
  5  6  1  0
  3  7  1  0
  6  8  2  0
  8  9  1  0
  2 10  1  0
  6 10  1  0
 10 11  2  0
  7 12  1  0
  9 13  2  0
 11 13  1  0
  4 14  1  0
 12 15  2  0
 14 15  1  0
 12 16  1  0
M  END
>  <ID>  (1) 
conformer_0

$$$$
