
     RDKit          3D

 21 23  0  0  0  0  0  0  0  0999 V2000
    0.3497   -7.6049    7.6638 C   0  0  0  0  0  0  0  0  0  0  0  0
    0.9962   -8.8493    7.3698 C   0  0  0  0  0  0  0  0  0  0  0  0
    2.3580   -8.7452    7.3789 N   0  0  0  0  0  0  0  0  0  0  0  0
    3.0379   -8.4496    8.5996 C   0  0  0  0  0  0  0  0  0  0  0  0
    3.1520   -9.8986    6.7177 C   0  0  0  0  0  0  0  0  0  0  0  0
    2.8589  -11.1229    7.1480 N   0  0  0  0  0  0  0  0  0  0  0  0
    3.7094   -7.1314    8.4447 O   0  0  0  0  0  0  0  0  0  0  0  0
    3.4405   -9.0766    9.5981 C   0  0  0  0  0  0  0  0  0  0  0  0
    4.3618   -6.5804    9.5541 C   0  0  0  0  0  0  0  0  0  0  0  0
    3.7343   -9.4926    5.8152 O   0  0  0  0  0  0  0  0  0  0  0  0
    2.8925  -10.3501    9.9543 C   0  0  0  0  0  0  0  0  0  0  0  0
    2.9213  -11.3646    8.7367 C   0  0  0  0  0  0  0  0  0  0  0  0
    4.6266   -7.6114   10.5596 C   0  0  0  0  0  0  0  0  0  0  0  0
    2.8059  -12.6372    8.9907 O   0  0  0  0  0  0  0  0  0  0  0  0
    3.0860  -12.2211    6.3301 C   0  0  0  0  0  0  0  0  0  0  0  0
    5.6037   -7.0823   11.4438 O   0  0  0  0  0  0  0  0  0  0  0  0
    3.9868   -8.5923   10.7453 N   0  0  0  0  0  0  0  0  0  0  0  0
    2.7314  -10.8359   11.2009 C   0  0  0  0  0  0  0  0  0  0  0  0
    3.9619   -9.2505   12.0147 C   0  0  0  0  0  0  0  0  0  0  0  0
    2.0079  -12.1700   11.3383 N   0  0  0  0  0  0  0  0  0  0  0  0
    3.2653  -10.3079   12.3134 C   0  0  0  0  0  0  0  0  0  0  0  0
  1  2  1  0
  2  3  1  0
  3  4  1  0
  3  5  1  0
  5  6  1  0
  4  7  1  0
  4  8  2  0
  7  9  1  0
  5 10  2  0
  8 11  1  0
  6 12  1  0
 11 12  1  0
  9 13  1  0
 12 14  2  0
  6 15  1  0
 13 16  2  0
  8 17  1  0
 13 17  1  0
 11 18  2  0
 17 19  1  0
 18 20  1  0
 18 21  1  0
 19 21  2  0
M  END
>  <ID>  (1) 
conformer_0

$$$$
