
     RDKit          3D

 21 22  0  0  0  0  0  0  0  0999 V2000
    2.7029   -6.5300   10.0125 O   0  0  0  0  0  0  0  0  0  0  0  0
    2.5844   -7.5789    9.4518 C   0  0  0  0  0  0  0  0  0  0  0  0
    3.5150   -8.5326    9.5766 N   0  0  0  0  0  0  0  0  0  0  0  0
    1.4362   -7.8995    8.4866 C   0  0  0  0  0  0  0  0  0  0  0  0
    3.4698   -9.8248    8.9630 C   0  0  0  0  0  0  0  0  0  0  0  0
    0.3373   -6.9398    8.4733 C   0  0  0  0  0  0  0  0  0  0  0  0
    4.4481   -8.5220   10.7934 C   0  0  0  0  0  0  0  0  0  0  0  0
    4.3293  -10.7466    9.2753 O   0  0  0  0  0  0  0  0  0  0  0  0
    4.6910   -9.4733   11.6177 C   0  0  0  0  0  0  0  0  0  0  0  0
    2.3588  -10.1608    8.0876 N   0  0  0  0  0  0  0  0  0  0  0  0
    5.9405   -9.4724   12.3507 C   0  0  0  0  0  0  0  0  0  0  0  0
    1.3969   -9.1434    7.8945 C   0  0  0  0  0  0  0  0  0  0  0  0
    3.5698  -10.1564   12.0862 C   0  0  0  0  0  0  0  0  0  0  0  0
    2.2833  -11.4224    7.4849 C   0  0  0  0  0  0  0  0  0  0  0  0
    6.7203   -8.4253   12.3572 C   0  0  0  0  0  0  0  0  0  0  0  0
    6.0399  -10.4532   13.4372 C   0  0  0  0  0  0  0  0  0  0  0  0
    2.3381   -9.8273   11.9596 O   0  0  0  0  0  0  0  0  0  0  0  0
    7.8667   -8.3387   13.1594 C   0  0  0  0  0  0  0  0  0  0  0  0
    3.6581  -11.3197   12.7604 O   0  0  0  0  0  0  0  0  0  0  0  0
    8.1568   -9.3243   14.0577 C   0  0  0  0  0  0  0  0  0  0  0  0
    7.2695  -10.4198   14.0005 C   0  0  0  0  0  0  0  0  0  0  0  0
  1  2  2  0
  2  3  1  0
  2  4  1  0
  3  5  1  0
  4  6  1  0
  3  7  1  0
  5  8  2  0
  7  9  1  0
  5 10  1  0
  9 11  1  0
  4 12  2  0
 10 12  1  0
  9 13  1  0
 10 14  1  0
 11 15  2  0
 11 16  1  0
 13 17  2  0
 15 18  1  0
 13 19  1  0
 18 20  2  0
 16 21  2  0
 20 21  1  0
M  END
>  <ID>  (1) 
conformer_0

$$$$
