
     RDKit          3D

 19 20  0  0  0  0  0  0  0  0999 V2000
    2.7029   -6.5300   10.0125 O   0  0  0  0  0  0  0  0  0  0  0  0
    2.5844   -7.5789    9.4518 C   0  0  0  0  0  0  0  0  0  0  0  0
    1.4961   -8.1812    9.0463 C   0  0  0  0  0  0  0  0  0  0  0  0
    3.8410   -8.3256    9.2169 N   0  0  0  0  0  0  0  0  0  0  0  0
    0.7313   -7.4700    8.0806 O   0  0  0  0  0  0  0  0  0  0  0  0
    1.1045   -9.4316    9.2735 C   0  0  0  0  0  0  0  0  0  0  0  0
    2.1708  -10.4513    9.3666 C   0  0  0  0  0  0  0  0  0  0  0  0
    3.5286   -9.7890    9.5515 C   0  0  0  0  0  0  0  0  0  0  0  0
    4.7422  -10.7450    9.6493 C   0  0  0  0  0  0  0  0  0  0  0  0
    5.1459   -7.8220    9.5111 C   0  0  0  0  0  0  0  0  0  0  0  0
    4.8729  -11.6669    9.0110 O   0  0  0  0  0  0  0  0  0  0  0  0
    5.8143  -10.0753   10.1904 N   0  0  0  0  0  0  0  0  0  0  0  0
    6.1071   -8.6172    9.9338 C   0  0  0  0  0  0  0  0  0  0  0  0
    7.0016  -10.8789   10.6198 C   0  0  0  0  0  0  0  0  0  0  0  0
    6.9353  -11.0116   12.0192 C   0  0  0  0  0  0  0  0  0  0  0  0
    7.2269   -8.2697   10.3530 O   0  0  0  0  0  0  0  0  0  0  0  0
    5.8671  -10.6945   12.7006 O   0  0  0  0  0  0  0  0  0  0  0  0
    5.9632   -9.6450   13.6259 C   0  0  0  0  0  0  0  0  0  0  0  0
    6.2271   -8.4322   13.0059 O   0  0  0  0  0  0  0  0  0  0  0  0
  1  2  2  0
  2  3  1  0
  2  4  1  0
  3  5  1  0
  3  6  2  0
  6  7  1  0
  4  8  1  0
  7  8  2  0
  8  9  1  0
  4 10  1  0
  9 11  2  0
  9 12  1  0
 10 13  1  0
 12 13  1  0
 12 14  1  0
 14 15  1  0
 13 16  2  0
 15 17  1  0
 17 18  1  0
 18 19  1  0
M  END
>  <ID>  (1) 
conformer_0

$$$$
