
     RDKit          3D

 18 18  0  0  0  0  0  0  0  0999 V2000
    1.7585   -6.1202    9.5402 O   0  0  0  0  0  0  0  0  0  0  0  0
    2.1978   -7.2765    9.2908 C   0  0  0  0  0  0  0  0  0  0  0  0
    3.5470   -7.6936    9.6279 C   0  0  0  0  0  0  0  0  0  0  0  0
    1.5765   -7.7975    7.9720 C   0  0  0  0  0  0  0  0  0  0  0  0
    3.8171   -8.7715   10.1453 N   0  0  0  0  0  0  0  0  0  0  0  0
    2.9964   -9.7425   10.0345 C   0  0  0  0  0  0  0  0  0  0  0  0
    4.4215   -8.6102   11.5163 C   0  0  0  0  0  0  0  0  0  0  0  0
    5.8346   -8.6550   11.4902 C   0  0  0  0  0  0  0  0  0  0  0  0
    6.4962   -9.0408   12.5621 C   0  0  0  0  0  0  0  0  0  0  0  0
    0.4116   -7.2879    7.6755 O   0  0  0  0  0  0  0  0  0  0  0  0
    4.1589   -6.4146   10.0026 O   0  0  0  0  0  0  0  0  0  0  0  0
    2.3224   -9.9982    8.6871 C   0  0  0  0  0  0  0  0  0  0  0  0
    1.8796  -11.5256    8.6405 C   0  0  0  0  0  0  0  0  0  0  0  0
    3.3082   -9.9926    7.6301 O   0  0  0  0  0  0  0  0  0  0  0  0
    1.2488   -9.3141    8.3372 C   0  0  0  0  0  0  0  0  0  0  0  0
    6.4072   -8.1442   10.4098 O   0  0  0  0  0  0  0  0  0  0  0  0
    7.7551   -8.4477   12.8270 O   0  0  0  0  0  0  0  0  0  0  0  0
    6.5862  -10.2755   12.9866 O   0  0  0  0  0  0  0  0  0  0  0  0
  1  2  1  0
  2  3  1  0
  2  4  1  0
  3  5  1  0
  5  6  1  0
  5  7  1  0
  7  8  1  0
  8  9  1  0
  4 10  1  0
  3 11  1  0
  6 12  1  0
 12 13  1  0
 12 14  1  0
  4 15  1  0
 12 15  1  0
  8 16  2  0
  9 17  1  0
  9 18  2  0
M  END
>  <ID>  (1) 
conformer_0

$$$$
