
     RDKit          3D

 12 13  0  0  0  0  0  0  0  0999 V2000
    1.7496   -6.1056    9.5115 O   0  0  0  0  0  0  0  0  0  0  0  0
    2.1842   -7.2745    9.2926 C   0  0  0  0  0  0  0  0  0  0  0  0
    1.4641   -8.1300    8.4067 C   0  0  0  0  0  0  0  0  0  0  0  0
    1.7404   -9.4969    8.1553 C   0  0  0  0  0  0  0  0  0  0  0  0
    0.7635  -10.2406    7.3504 C   0  0  0  0  0  0  0  0  0  0  0  0
    3.4908   -7.8343    9.6590 C   0  0  0  0  0  0  0  0  0  0  0  0
    2.8922   -9.9594    8.6498 C   0  0  0  0  0  0  0  0  0  0  0  0
    3.7735   -9.1564    9.3758 C   0  0  0  0  0  0  0  0  0  0  0  0
    1.1935  -11.5459    7.4197 C   0  0  0  0  0  0  0  0  0  0  0  0
    4.4323   -7.0562   10.3315 O   0  0  0  0  0  0  0  0  0  0  0  0
    2.6061  -11.6310    7.2074 C   0  0  0  0  0  0  0  0  0  0  0  0
    3.3191  -11.2801    8.2983 N   0  0  0  0  0  0  0  0  0  0  0  0
  1  2  1  0
  2  3  2  0
  3  4  1  0
  4  5  1  0
  2  6  1  0
  4  7  2  0
  6  8  2  0
  7  8  1  0
  5  9  1  0
  6 10  1  0
  9 11  1  0
  7 12  1  0
 11 12  1  0
M  END
>  <ID>  (1) 
conformer_0

$$$$
