
     RDKit          3D

 22 25  0  0  0  0  0  0  0  0999 V2000
    4.2113   -6.5063    9.8417 O   0  0  0  0  0  0  0  0  0  0  0  0
    3.3680   -7.3087    9.6831 C   0  0  0  0  0  0  0  0  0  0  0  0
    3.2873   -8.3941   10.3094 N   0  0  0  0  0  0  0  0  0  0  0  0
    4.2510   -8.6858   11.3986 C   0  0  0  0  0  0  0  0  0  0  0  0
    2.5806   -9.4716    9.8823 C   0  0  0  0  0  0  0  0  0  0  0  0
    1.5719   -9.1438    8.8603 C   0  0  0  0  0  0  0  0  0  0  0  0
    3.7896   -9.8435   12.1909 C   0  0  0  0  0  0  0  0  0  0  0  0
    4.7669  -10.2569   13.1230 C   0  0  0  0  0  0  0  0  0  0  0  0
    1.5484   -7.9649    8.2182 N   0  0  0  0  0  0  0  0  0  0  0  0
    5.5374   -8.3506   11.3614 C   0  0  0  0  0  0  0  0  0  0  0  0
    2.7089  -10.6486   10.3296 C   0  0  0  0  0  0  0  0  0  0  0  0
    2.2632   -6.9318    8.7804 C   0  0  0  0  0  0  0  0  0  0  0  0
    6.4702   -8.7170   12.3082 C   0  0  0  0  0  0  0  0  0  0  0  0
    3.2376  -10.8096   11.6601 N   0  0  0  0  0  0  0  0  0  0  0  0
    1.8346   -5.7957    8.7353 O   0  0  0  0  0  0  0  0  0  0  0  0
    2.3616  -11.7627    9.5245 C   0  0  0  0  0  0  0  0  0  0  0  0
    2.7279  -12.9502   10.0221 O   0  0  0  0  0  0  0  0  0  0  0  0
    6.0392   -9.5645   13.3465 C   0  0  0  0  0  0  0  0  0  0  0  0
    1.1688  -10.2727    8.0254 C   0  0  0  0  0  0  0  0  0  0  0  0
    7.7700   -8.2071   12.3498 O   0  0  0  0  0  0  0  0  0  0  0  0
    1.4668  -11.5488    8.4822 C   0  0  0  0  0  0  0  0  0  0  0  0
    0.7405   -7.8109    7.1291 O   0  0  0  0  0  0  0  0  0  0  0  0
  1  2  2  0
  2  3  1  0
  3  4  1  0
  3  5  1  0
  5  6  1  0
  4  7  1  0
  7  8  2  0
  6  9  1  0
  4 10  2  0
  5 11  2  0
  2 12  1  0
  9 12  1  0
 10 13  1  0
  7 14  1  0
 11 14  1  0
 12 15  2  0
 11 16  1  0
 16 17  1  0
  8 18  1  0
 13 18  2  0
  6 19  2  0
 13 20  1  0
 16 21  2  0
 19 21  1  0
  9 22  1  0
M  END
>  <ID>  (1) 
conformer_0

$$$$
