
     RDKit          3D

 18 19  0  0  0  0  0  0  0  0999 V2000
    1.3963   -6.3157    9.1604 O   0  0  0  0  0  0  0  0  0  0  0  0
    1.9051   -7.5059    9.1480 C   0  0  0  0  0  0  0  0  0  0  0  0
    3.1923   -7.8439    9.6774 C   0  0  0  0  0  0  0  0  0  0  0  0
    3.6597   -9.0194    9.6470 C   0  0  0  0  0  0  0  0  0  0  0  0
    4.9937   -9.3272   10.1995 C   0  0  0  0  0  0  0  0  0  0  0  0
    3.7542   -6.6987   10.3291 O   0  0  0  0  0  0  0  0  0  0  0  0
    5.1037   -9.4461   11.5157 N   0  0  0  0  0  0  0  0  0  0  0  0
    3.9198  -10.0381   12.1607 C   0  0  0  0  0  0  0  0  0  0  0  0
    6.2322   -9.1464   12.2138 C   0  0  0  0  0  0  0  0  0  0  0  0
    1.2024   -8.3617    8.1927 C   0  0  0  0  0  0  0  0  0  0  0  0
    7.1328   -8.3137   11.8313 O   0  0  0  0  0  0  0  0  0  0  0  0
    4.3144  -10.5304   13.4540 C   0  0  0  0  0  0  0  0  0  0  0  0
    6.4917   -9.5807   13.6337 C   0  0  0  0  0  0  0  0  0  0  0  0
    2.9087   -9.9188    8.8054 C   0  0  0  0  0  0  0  0  0  0  0  0
    5.4342  -10.2739   14.2258 C   0  0  0  0  0  0  0  0  0  0  0  0
    1.9141   -9.6977    8.2457 C   0  0  0  0  0  0  0  0  0  0  0  0
    1.0657  -10.7130    7.4858 C   0  0  0  0  0  0  0  0  0  0  0  0
    1.7606  -11.5670    7.0068 C   0  0  0  0  0  0  0  0  0  0  0  0
  1  2  1  0
  2  3  1  0
  3  4  2  0
  4  5  1  0
  3  6  1  0
  5  7  1  0
  7  8  1  0
  7  9  1  0
  2 10  2  0
  9 11  2  0
  8 12  2  0
  9 13  1  0
  4 14  1  0
 12 15  1  0
 13 15  2  0
 10 16  1  0
 14 16  2  0
 16 17  1  0
 17 18  1  0
M  END
>  <ID>  (1) 
conformer_0

$$$$
