
     RDKit          3D

 13 14  0  0  0  0  0  0  0  0999 V2000
    1.6711   -9.6863    6.5892 C   0  0  0  0  0  0  0  0  0  0  0  0
    1.4714   -8.9042    7.6826 C   0  0  0  0  0  0  0  0  0  0  0  0
    2.3523   -9.0067    8.6861 C   0  0  0  0  0  0  0  0  0  0  0  0
    0.5899   -7.7344    7.7199 C   0  0  0  0  0  0  0  0  0  0  0  0
    3.3719  -10.0007    8.6998 C   0  0  0  0  0  0  0  0  0  0  0  0
    0.6786   -7.1985    8.9754 C   0  0  0  0  0  0  0  0  0  0  0  0
    2.5230  -10.6343    6.6686 C   0  0  0  0  0  0  0  0  0  0  0  0
    1.8421   -7.3688   10.0021 C   0  0  0  0  0  0  0  0  0  0  0  0
    3.3743  -10.8817    7.5893 C   0  0  0  0  0  0  0  0  0  0  0  0
    4.2060  -12.0149    7.5126 C   0  0  0  0  0  0  0  0  0  0  0  0
    2.5576   -8.2661    9.8233 C   0  0  0  0  0  0  0  0  0  0  0  0
    3.7051  -13.2149    7.2279 N   0  0  0  0  0  0  0  0  0  0  0  0
    4.4869  -14.3547    7.1948 C   0  0  0  0  0  0  0  0  0  0  0  0
  1  2  1  0
  2  3  2  0
  2  4  1  0
  3  5  1  0
  4  6  2  0
  1  7  2  0
  6  8  1  0
  5  9  2  0
  7  9  1  0
  9 10  1  0
  3 11  1  0
  8 11  2  0
 10 12  1  0
 12 13  1  0
M  END
>  <ID>  (1) 
conformer_0

$$$$
