
     RDKit          3D

 22 25  0  0  0  0  0  0  0  0999 V2000
    4.2113   -6.5063    9.8417 O   0  0  0  0  0  0  0  0  0  0  0  0
    3.8532   -7.6355    9.9214 C   0  0  0  0  0  0  0  0  0  0  0  0
    4.5943   -8.4574   10.6059 N   0  0  0  0  0  0  0  0  0  0  0  0
    4.1347   -9.7336   10.8349 C   0  0  0  0  0  0  0  0  0  0  0  0
    4.6022  -10.4102   11.9490 C   0  0  0  0  0  0  0  0  0  0  0  0
    3.9109  -11.4979   12.3533 C   0  0  0  0  0  0  0  0  0  0  0  0
    2.8214   -8.0295    8.9263 C   0  0  0  0  0  0  0  0  0  0  0  0
    3.0398  -10.1229   10.0610 C   0  0  0  0  0  0  0  0  0  0  0  0
    2.3998   -9.3174    9.1575 C   0  0  0  0  0  0  0  0  0  0  0  0
    5.8179   -8.0709   11.1863 C   0  0  0  0  0  0  0  0  0  0  0  0
    1.8786   -7.1669    8.4631 N   0  0  0  0  0  0  0  0  0  0  0  0
    2.7094  -11.9477   11.6721 C   0  0  0  0  0  0  0  0  0  0  0  0
    2.1581  -13.1753   12.1670 O   0  0  0  0  0  0  0  0  0  0  0  0
    6.7084   -9.0533   11.6841 C   0  0  0  0  0  0  0  0  0  0  0  0
    5.8085   -9.8765   12.5626 C   0  0  0  0  0  0  0  0  0  0  0  0
    1.3628   -9.7698    8.4155 C   0  0  0  0  0  0  0  0  0  0  0  0
    7.2736   -9.7329   10.7184 O   0  0  0  0  0  0  0  0  0  0  0  0
    0.7521   -7.5404    7.7799 C   0  0  0  0  0  0  0  0  0  0  0  0
   -0.1027   -6.6094    7.2231 C   0  0  0  0  0  0  0  0  0  0  0  0
    7.5809   -8.2949   12.5448 O   0  0  0  0  0  0  0  0  0  0  0  0
    2.4117  -11.3658   10.4845 C   0  0  0  0  0  0  0  0  0  0  0  0
    0.5617   -8.9097    7.7077 C   0  0  0  0  0  0  0  0  0  0  0  0
  1  2  2  0
  2  3  1  0
  3  4  1  0
  4  5  1  0
  5  6  2  0
  2  7  1  0
  4  8  2  0
  7  9  1  0
  8  9  1  0
  3 10  1  0
  7 11  1  0
  6 12  1  0
 12 13  1  0
 10 14  1  0
  5 15  1  0
 14 15  1  0
  9 16  2  0
 14 17  1  0
 11 18  2  0
 18 19  1  0
 14 20  1  0
  8 21  1  0
 12 21  2  0
 16 22  1  0
 18 22  1  0
M  END
>  <ID>  (1) 
conformer_0

$$$$
