
     RDKit          3D

 21 24  0  0  0  0  0  0  0  0999 V2000
    4.2113   -6.5063    9.8417 O   0  0  0  0  0  0  0  0  0  0  0  0
    3.3680   -7.3087    9.6831 C   0  0  0  0  0  0  0  0  0  0  0  0
    3.2873   -8.3941   10.3094 N   0  0  0  0  0  0  0  0  0  0  0  0
    4.2510   -8.6858   11.3986 C   0  0  0  0  0  0  0  0  0  0  0  0
    2.5806   -9.4716    9.8823 C   0  0  0  0  0  0  0  0  0  0  0  0
    1.5719   -9.1438    8.8603 C   0  0  0  0  0  0  0  0  0  0  0  0
    3.7896   -9.8435   12.1909 C   0  0  0  0  0  0  0  0  0  0  0  0
    4.7669  -10.2569   13.1230 C   0  0  0  0  0  0  0  0  0  0  0  0
    1.5484   -7.9649    8.2182 N   0  0  0  0  0  0  0  0  0  0  0  0
    5.5374   -8.3506   11.3614 C   0  0  0  0  0  0  0  0  0  0  0  0
    2.7089  -10.6486   10.3296 C   0  0  0  0  0  0  0  0  0  0  0  0
    2.9950  -10.8595   11.6697 C   0  0  0  0  0  0  0  0  0  0  0  0
    5.9914   -9.5513   13.4071 C   0  0  0  0  0  0  0  0  0  0  0  0
    2.4257   -6.9574    8.6212 C   0  0  0  0  0  0  0  0  0  0  0  0
    0.8694  -10.1247    8.3324 C   0  0  0  0  0  0  0  0  0  0  0  0
    1.7272  -11.7078    9.8379 C   0  0  0  0  0  0  0  0  0  0  0  0
    1.4410   -5.9828    9.3439 O   0  0  0  0  0  0  0  0  0  0  0  0
    0.0450   -9.7904    7.0805 F   0  0  0  0  0  0  0  0  0  0  0  0
    6.3508   -8.5496   12.5077 C   0  0  0  0  0  0  0  0  0  0  0  0
    7.6787   -7.9480   12.5788 O   0  0  0  0  0  0  0  0  0  0  0  0
    1.0390  -11.2820    8.7572 C   0  0  0  0  0  0  0  0  0  0  0  0
  1  2  2  0
  2  3  1  0
  3  4  1  0
  3  5  1  0
  5  6  1  0
  4  7  1  0
  7  8  2  0
  6  9  1  0
  4 10  2  0
  5 11  2  0
  7 12  1  0
 11 12  1  0
  8 13  1  0
  2 14  1  0
  9 14  1  0
  6 15  2  0
 11 16  1  0
 14 17  1  0
 15 18  1  0
 10 19  1  0
 13 19  2  0
 19 20  1  0
 15 21  1  0
 16 21  2  0
M  END
>  <ID>  (1) 
conformer_0

$$$$
