
     RDKit          3D

 21 24  0  0  0  0  0  0  0  0999 V2000
    4.2113   -6.5063    9.8417 O   0  0  0  0  0  0  0  0  0  0  0  0
    3.3680   -7.3087    9.6831 C   0  0  0  0  0  0  0  0  0  0  0  0
    3.2873   -8.3941   10.3094 N   0  0  0  0  0  0  0  0  0  0  0  0
    4.2510   -8.6858   11.3986 C   0  0  0  0  0  0  0  0  0  0  0  0
    2.5806   -9.4716    9.8823 C   0  0  0  0  0  0  0  0  0  0  0  0
    1.5719   -9.1438    8.8603 C   0  0  0  0  0  0  0  0  0  0  0  0
    3.7896   -9.8435   12.1909 C   0  0  0  0  0  0  0  0  0  0  0  0
    4.7669  -10.2569   13.1230 C   0  0  0  0  0  0  0  0  0  0  0  0
    1.5484   -7.9649    8.2182 N   0  0  0  0  0  0  0  0  0  0  0  0
    5.5374   -8.3506   11.3614 C   0  0  0  0  0  0  0  0  0  0  0  0
    2.7089  -10.6486   10.3296 C   0  0  0  0  0  0  0  0  0  0  0  0
    2.9950  -10.8595   11.6697 C   0  0  0  0  0  0  0  0  0  0  0  0
    5.9914   -9.5513   13.4071 C   0  0  0  0  0  0  0  0  0  0  0  0
    2.4257   -6.9574    8.6212 C   0  0  0  0  0  0  0  0  0  0  0  0
    2.5179  -11.6903    9.4083 C   0  0  0  0  0  0  0  0  0  0  0  0
    1.5009   -5.9243    9.3218 O   0  0  0  0  0  0  0  0  0  0  0  0
    1.7413  -11.4591    8.2844 C   0  0  0  0  0  0  0  0  0  0  0  0
    6.3683   -8.5663   12.5094 C   0  0  0  0  0  0  0  0  0  0  0  0
    0.6337   -7.6945    7.1924 C   0  0  0  0  0  0  0  0  0  0  0  0
    7.7110   -7.8994   12.6229 O   0  0  0  0  0  0  0  0  0  0  0  0
    1.4535  -10.1765    7.8409 C   0  0  0  0  0  0  0  0  0  0  0  0
  1  2  2  0
  2  3  1  0
  3  4  1  0
  3  5  1  0
  5  6  1  0
  4  7  1  0
  7  8  2  0
  6  9  1  0
  4 10  2  0
  5 11  2  0
  7 12  1  0
 11 12  1  0
  8 13  1  0
  2 14  1  0
  9 14  1  0
 11 15  1  0
 14 16  1  0
 15 17  2  0
 10 18  1  0
 13 18  2  0
  9 19  1  0
 18 20  1  0
  6 21  2  0
 17 21  1  0
M  END
>  <ID>  (1) 
conformer_0

$$$$
