
     RDKit          3D

  6  5  0  0  0  0  0  0  0  0999 V2000
    8.0881   -8.5555   13.1617 O   0  0  0  0  0  0  0  0  0  0  0  0
    7.4064   -9.2986   13.2549 C   0  0  0  0  0  0  0  0  0  0  0  0
    7.5620  -10.4858   13.8816 N   0  0  0  0  0  0  0  0  0  0  0  0
    6.1262   -9.3861   12.4604 C   0  0  0  0  0  0  0  0  0  0  0  0
    6.0906   -8.4100   11.4595 O   0  0  0  0  0  0  0  0  0  0  0  0
    5.0338  -10.0121   12.7608 O   0  0  0  0  0  0  0  0  0  0  0  0
  1  2  2  0
  2  3  1  0
  2  4  1  0
  4  5  1  0
  4  6  2  0
M  END
>  <ID>  (1) 
conformer_0

$$$$
