
     RDKit          3D

 20 22  0  0  0  0  0  0  0  0999 V2000
    4.2113   -6.5063    9.8417 O   0  0  0  0  0  0  0  0  0  0  0  0
    3.8532   -7.6355    9.9214 C   0  0  0  0  0  0  0  0  0  0  0  0
    4.5943   -8.4574   10.6059 N   0  0  0  0  0  0  0  0  0  0  0  0
    4.1347   -9.7336   10.8349 C   0  0  0  0  0  0  0  0  0  0  0  0
    2.8789  -10.0828   10.2269 C   0  0  0  0  0  0  0  0  0  0  0  0
    2.1159   -9.1836    9.4265 C   0  0  0  0  0  0  0  0  0  0  0  0
    5.8752   -8.1527   11.1251 C   0  0  0  0  0  0  0  0  0  0  0  0
    1.0383   -9.6468    8.6032 C   0  0  0  0  0  0  0  0  0  0  0  0
    5.1375  -10.7227   10.5425 O   0  0  0  0  0  0  0  0  0  0  0  0
    6.8650   -9.0726   10.6846 C   0  0  0  0  0  0  0  0  0  0  0  0
    6.3928  -10.3522   11.1637 C   0  0  0  0  0  0  0  0  0  0  0  0
    8.1613   -8.8326   11.3355 O   0  0  0  0  0  0  0  0  0  0  0  0
    0.5698  -10.9055    8.6574 C   0  0  0  0  0  0  0  0  0  0  0  0
    7.3011  -11.5532   10.8507 C   0  0  0  0  0  0  0  0  0  0  0  0
    0.3453   -8.5311    8.0256 C   0  0  0  0  0  0  0  0  0  0  0  0
    2.6586   -7.8541    9.3236 C   0  0  0  0  0  0  0  0  0  0  0  0
    7.1929  -11.9435    9.7869 O   0  0  0  0  0  0  0  0  0  0  0  0
    0.7887   -7.2100    7.9763 C   0  0  0  0  0  0  0  0  0  0  0  0
    1.9185   -6.8727    8.6955 C   0  0  0  0  0  0  0  0  0  0  0  0
    8.1504  -11.9538   11.7744 O   0  0  0  0  0  0  0  0  0  0  0  0
  1  2  2  0
  2  3  1  0
  3  4  1  0
  4  5  1  0
  5  6  1  0
  3  7  1  0
  6  8  2  0
  4  9  1  0
  7 10  1  0
  9 11  1  0
 10 11  1  0
 10 12  1  0
  8 13  1  0
 11 14  1  0
  8 15  1  0
  2 16  1  0
  6 16  1  0
 14 17  2  0
 15 18  2  0
 16 19  2  0
 18 19  1  0
 14 20  1  0
M  END
>  <ID>  (1) 
conformer_0

$$$$
