
     RDKit          3D

 22 25  0  0  0  0  0  0  0  0999 V2000
    4.2113   -6.5063    9.8417 O   0  0  0  0  0  0  0  0  0  0  0  0
    4.4656   -7.5621   10.0625 C   0  0  0  0  0  0  0  0  0  0  0  0
    3.4644   -8.4647    9.9703 N   0  0  0  0  0  0  0  0  0  0  0  0
    2.0638   -8.1657    9.5597 C   0  0  0  0  0  0  0  0  0  0  0  0
    5.7075   -7.9058   10.6017 C   0  0  0  0  0  0  0  0  0  0  0  0
    3.9469   -9.8223    9.7261 C   0  0  0  0  0  0  0  0  0  0  0  0
    1.2613   -9.2898    9.6841 O   0  0  0  0  0  0  0  0  0  0  0  0
    5.1431  -10.1955   10.3834 C   0  0  0  0  0  0  0  0  0  0  0  0
    1.7877   -7.3492    8.3773 C   0  0  0  0  0  0  0  0  0  0  0  0
    0.4840   -9.3416    8.4572 C   0  0  0  0  0  0  0  0  0  0  0  0
    5.5178  -11.6605   10.4174 C   0  0  0  0  0  0  0  0  0  0  0  0
    0.7957   -8.0694    7.7078 C   0  0  0  0  0  0  0  0  0  0  0  0
    4.5302  -12.5647   10.4200 C   0  0  0  0  0  0  0  0  0  0  0  0
    6.1788   -9.2043   10.7821 C   0  0  0  0  0  0  0  0  0  0  0  0
    7.4710   -9.4065   11.4186 C   0  0  0  0  0  0  0  0  0  0  0  0
    7.4758   -9.2575   12.8369 C   0  0  0  0  0  0  0  0  0  0  0  0
    0.8152  -10.4767    7.4797 C   0  0  0  0  0  0  0  0  0  0  0  0
    3.4162  -12.4002    9.5265 C   0  0  0  0  0  0  0  0  0  0  0  0
    2.8964  -10.9681    9.4379 C   0  0  0  0  0  0  0  0  0  0  0  0
    1.6766  -11.3220    8.6346 O   0  0  0  0  0  0  0  0  0  0  0  0
    6.5429   -8.6476   13.4097 O   0  0  0  0  0  0  0  0  0  0  0  0
    8.3182   -9.7946   13.5120 O   0  0  0  0  0  0  0  0  0  0  0  0
  1  2  2  0
  2  3  1  0
  3  4  1  0
  2  5  1  0
  3  6  1  0
  4  7  1  0
  6  8  2  0
  4  9  1  0
  7 10  1  0
  8 11  1  0
  9 12  1  0
 10 12  1  0
 11 13  2  0
  5 14  2  0
  8 14  1  0
 14 15  1  0
 15 16  1  0
 10 17  1  0
 13 18  1  0
  6 19  1  0
 18 19  2  0
 17 20  1  0
 19 20  1  0
 16 21  2  0
 16 22  1  0
M  END
>  <ID>  (1) 
conformer_0

$$$$
