
     RDKit          3D

 12 12  0  0  0  0  0  0  0  0999 V2000
    2.7029   -6.5300   10.0125 O   0  0  0  0  0  0  0  0  0  0  0  0
    2.5844   -7.5789    9.4518 C   0  0  0  0  0  0  0  0  0  0  0  0
    1.4961   -8.1812    9.0463 C   0  0  0  0  0  0  0  0  0  0  0  0
    1.5320   -9.3327    8.3359 C   0  0  0  0  0  0  0  0  0  0  0  0
    3.6528   -8.5322    9.4440 N   0  0  0  0  0  0  0  0  0  0  0  0
    3.7214   -9.7306    8.8075 C   0  0  0  0  0  0  0  0  0  0  0  0
    0.3052   -9.9533    7.8639 O   0  0  0  0  0  0  0  0  0  0  0  0
    5.1178   -7.9133    9.9657 C   0  0  0  0  0  0  0  0  0  0  0  0
    6.1174   -8.2589    9.2633 O   0  0  0  0  0  0  0  0  0  0  0  0
    0.6673   -7.1644    8.1250 O   0  0  0  0  0  0  0  0  0  0  0  0
    5.1757   -7.8116   11.2875 O   0  0  0  0  0  0  0  0  0  0  0  0
    2.5837  -10.1136    8.4070 N   0  0  0  0  0  0  0  0  0  0  0  0
  1  2  2  0
  2  3  1  0
  3  4  1  0
  2  5  1  0
  5  6  1  0
  4  7  2  0
  5  8  1  0
  8  9  1  0
  3 10  1  0
  8 11  2  0
  4 12  1  0
  6 12  2  0
M  END
>  <ID>  (1) 
conformer_0

$$$$
