
     RDKit          3D

 17 19  0  0  0  0  0  0  0  0999 V2000
    1.0449   -8.6701    7.4049 C   0  0  0  0  0  0  0  0  0  0  0  0
    1.7904   -9.6662    7.6279 C   0  0  0  0  0  0  0  0  0  0  0  0
    2.3123  -10.0121    8.6885 C   0  0  0  0  0  0  0  0  0  0  0  0
    3.1531  -11.2148    8.8678 C   0  0  0  0  0  0  0  0  0  0  0  0
    2.0916   -9.2029    9.8672 C   0  0  0  0  0  0  0  0  0  0  0  0
    2.9304  -12.2133    8.0026 C   0  0  0  0  0  0  0  0  0  0  0  0
    0.7038   -7.7398    8.4693 C   0  0  0  0  0  0  0  0  0  0  0  0
    3.0116  -11.7042   10.2506 C   0  0  0  0  0  0  0  0  0  0  0  0
    1.2548   -7.9604    9.7152 C   0  0  0  0  0  0  0  0  0  0  0  0
    3.6940  -12.8353   10.4301 C   0  0  0  0  0  0  0  0  0  0  0  0
    3.8322  -13.4325    8.2006 C   0  0  0  0  0  0  0  0  0  0  0  0
    3.6977  -13.2655   11.8632 N   0  0  0  0  0  0  0  0  0  0  0  0
    3.3094  -12.2552   12.5456 C   0  0  0  0  0  0  0  0  0  0  0  0
    3.0811  -12.0559   13.8385 O   0  0  0  0  0  0  0  0  0  0  0  0
    2.8438  -11.1939   11.5731 N   0  0  0  0  0  0  0  0  0  0  0  0
    4.1545  -13.7488    9.4323 N   0  0  0  0  0  0  0  0  0  0  0  0
    4.0642  -14.3731    7.1048 C   0  0  0  0  0  0  0  0  0  0  0  0
  1  2  1  0
  2  3  2  0
  3  4  1  0
  3  5  1  0
  4  6  1  0
  1  7  2  0
  4  8  1  0
  5  9  2  0
  7  9  1  0
  8 10  1  0
  6 11  1  0
 10 12  2  0
 12 13  1  0
 13 14  2  0
  8 15  2  0
 13 15  1  0
 10 16  1  0
 11 16  2  0
 11 17  1  0
M  END
>  <ID>  (1) 
conformer_0

$$$$
