
     RDKit          3D

 15 17  0  0  0  0  0  0  0  0999 V2000
    1.0449   -8.6701    7.4049 C   0  0  0  0  0  0  0  0  0  0  0  0
    1.7904   -9.6662    7.6279 C   0  0  0  0  0  0  0  0  0  0  0  0
    2.3123  -10.0121    8.6885 C   0  0  0  0  0  0  0  0  0  0  0  0
    3.1531  -11.2148    8.8678 C   0  0  0  0  0  0  0  0  0  0  0  0
    2.0916   -9.2029    9.8672 C   0  0  0  0  0  0  0  0  0  0  0  0
    2.9304  -12.2133    8.0026 C   0  0  0  0  0  0  0  0  0  0  0  0
    2.9905  -11.6881   10.2425 C   0  0  0  0  0  0  0  0  0  0  0  0
    1.2878   -8.0585    9.6894 C   0  0  0  0  0  0  0  0  0  0  0  0
    3.7187  -12.7706   10.6018 C   0  0  0  0  0  0  0  0  0  0  0  0
    2.5512   -9.6438   11.2185 C   0  0  0  0  0  0  0  0  0  0  0  0
    0.8704   -7.6251    8.4525 C   0  0  0  0  0  0  0  0  0  0  0  0
    3.9887  -13.0573   11.8933 O   0  0  0  0  0  0  0  0  0  0  0  0
    3.3967  -13.9412    9.8830 O   0  0  0  0  0  0  0  0  0  0  0  0
    3.4021  -10.6919   11.2183 N   0  0  0  0  0  0  0  0  0  0  0  0
    3.6117  -13.5798    8.4788 C   0  0  0  0  0  0  0  0  0  0  0  0
  1  2  1  0
  2  3  2  0
  3  4  1  0
  3  5  1  0
  4  6  1  0
  4  7  1  0
  5  8  2  0
  7  9  1  0
  5 10  1  0
  1 11  2  0
  8 11  1  0
  9 12  1  0
  9 13  1  0
  7 14  1  0
 10 14  1  0
  6 15  1  0
 13 15  1  0
M  END
>  <ID>  (1) 
conformer_0

$$$$
