
     RDKit          3D

 20 21  0  0  0  0  0  0  0  0999 V2000
    4.2475   -6.4076   10.2292 O   0  0  0  0  0  0  0  0  0  0  0  0
    4.4249   -7.5513   10.0951 C   0  0  0  0  0  0  0  0  0  0  0  0
    5.4498   -8.1994   10.4755 C   0  0  0  0  0  0  0  0  0  0  0  0
    3.2988   -8.2414    9.5727 N   0  0  0  0  0  0  0  0  0  0  0  0
    3.3863   -9.7070    9.4775 C   0  0  0  0  0  0  0  0  0  0  0  0
    5.5338   -9.5719   10.7471 C   0  0  0  0  0  0  0  0  0  0  0  0
    2.3923  -10.2527    8.7332 C   0  0  0  0  0  0  0  0  0  0  0  0
    1.2794   -9.4743    8.1870 C   0  0  0  0  0  0  0  0  0  0  0  0
    2.2244   -7.4852    9.1202 C   0  0  0  0  0  0  0  0  0  0  0  0
    6.3348   -7.6829   11.6021 O   0  0  0  0  0  0  0  0  0  0  0  0
    4.3351  -10.3439   10.1865 C   0  0  0  0  0  0  0  0  0  0  0  0
    2.2020   -6.1883    9.2402 O   0  0  0  0  0  0  0  0  0  0  0  0
    0.3145  -10.1492    7.3890 C   0  0  0  0  0  0  0  0  0  0  0  0
    6.7515  -10.3233   10.3726 C   0  0  0  0  0  0  0  0  0  0  0  0
    1.2478   -8.0903    8.3237 C   0  0  0  0  0  0  0  0  0  0  0  0
    4.1854  -11.5896   10.3608 O   0  0  0  0  0  0  0  0  0  0  0  0
    7.5361  -10.8079   11.4681 C   0  0  0  0  0  0  0  0  0  0  0  0
    7.6328   -9.9394   12.5446 O   0  0  0  0  0  0  0  0  0  0  0  0
    8.7813  -11.3800   11.3159 O   0  0  0  0  0  0  0  0  0  0  0  0
    0.2385   -7.2895    7.8245 O   0  0  0  0  0  0  0  0  0  0  0  0
  1  2  2  0
  2  3  1  0
  2  4  1  0
  4  5  1  0
  3  6  1  0
  5  7  2  0
  7  8  1  0
  4  9  1  0
  3 10  1  0
  5 11  1  0
  6 11  1  0
  9 12  2  0
  8 13  1  0
  6 14  1  0
  8 15  2  0
  9 15  1  0
 11 16  2  0
 14 17  1  0
 17 18  1  0
 17 19  2  0
 15 20  1  0
M  END
>  <ID>  (1) 
conformer_0

$$$$
