
     RDKit          3D

 14 14  0  0  0  0  0  0  0  0999 V2000
    0.1620   -7.1477    8.2638 O   0  0  0  0  0  0  0  0  0  0  0  0
    0.7388   -8.1348    7.8430 C   0  0  0  0  0  0  0  0  0  0  0  0
    2.0458   -8.4680    8.2524 C   0  0  0  0  0  0  0  0  0  0  0  0
    2.4561   -7.9317    9.3539 N   0  0  0  0  0  0  0  0  0  0  0  0
    3.0794   -6.6681    9.3047 C   0  0  0  0  0  0  0  0  0  0  0  0
    2.5099   -8.5425   10.6355 C   0  0  0  0  0  0  0  0  0  0  0  0
    2.5481   -9.6223    7.6597 C   0  0  0  0  0  0  0  0  0  0  0  0
    1.7234  -10.2402    6.6142 C   0  0  0  0  0  0  0  0  0  0  0  0
    1.8574   -9.6098   10.9611 O   0  0  0  0  0  0  0  0  0  0  0  0
   -0.0474   -8.8146    6.8501 C   0  0  0  0  0  0  0  0  0  0  0  0
    0.6045   -9.8654    6.2665 C   0  0  0  0  0  0  0  0  0  0  0  0
    2.5851  -11.4058    6.2070 C   0  0  0  0  0  0  0  0  0  0  0  0
    3.4791   -8.1675   11.6197 O   0  0  0  0  0  0  0  0  0  0  0  0
    2.4037  -12.5871    6.7503 O   0  0  0  0  0  0  0  0  0  0  0  0
  1  2  1  0
  2  3  1  0
  3  4  1  0
  4  5  1  0
  4  6  1  0
  3  7  2  0
  7  8  1  0
  6  9  2  0
  2 10  2  0
  8 11  2  0
 10 11  1  0
  8 12  1  0
  6 13  1  0
 12 14  1  0
M  END
>  <ID>  (1) 
conformer_0

$$$$
