
     RDKit          3D

 20 24  0  0  0  0  0  0  0  0999 V2000
    1.0449   -8.6701    7.4049 C   0  0  0  0  0  0  0  0  0  0  0  0
    1.7904   -9.6662    7.6279 C   0  0  0  0  0  0  0  0  0  0  0  0
    2.3123  -10.0121    8.6885 C   0  0  0  0  0  0  0  0  0  0  0  0
    3.1531  -11.2148    8.8678 C   0  0  0  0  0  0  0  0  0  0  0  0
    2.0916   -9.2029    9.8672 C   0  0  0  0  0  0  0  0  0  0  0  0
    2.9304  -12.2133    8.0026 C   0  0  0  0  0  0  0  0  0  0  0  0
    2.9905  -11.6881   10.2425 C   0  0  0  0  0  0  0  0  0  0  0  0
    3.0149  -10.6152   11.2586 C   0  0  0  0  0  0  0  0  0  0  0  0
    3.7197  -12.8369   10.5057 C   0  0  0  0  0  0  0  0  0  0  0  0
    3.6515  -13.7974    9.5517 C   0  0  0  0  0  0  0  0  0  0  0  0
    4.1761  -15.1219    9.7778 C   0  0  0  0  0  0  0  0  0  0  0  0
    2.0856   -9.6227   11.1655 C   0  0  0  0  0  0  0  0  0  0  0  0
    3.8830  -16.1233    9.2466 C   0  0  0  0  0  0  0  0  0  0  0  0
    2.5830  -11.8636    6.7053 C   0  0  0  0  0  0  0  0  0  0  0  0
    1.8514  -10.6212    6.5011 C   0  0  0  0  0  0  0  0  0  0  0  0
    3.3905  -13.4887    8.2609 C   0  0  0  0  0  0  0  0  0  0  0  0
    0.7448   -7.8901    8.5769 C   0  0  0  0  0  0  0  0  0  0  0  0
    3.3609  -14.6414    7.4048 C   0  0  0  0  0  0  0  0  0  0  0  0
    1.0932   -8.1876    9.6703 C   0  0  0  0  0  0  0  0  0  0  0  0
    3.6859  -15.8916    7.7730 C   0  0  0  0  0  0  0  0  0  0  0  0
  1  2  1  0
  2  3  2  0
  3  4  1  0
  3  5  1  0
  4  6  1  0
  4  7  1  0
  7  8  1  0
  7  9  1  0
  9 10  1  0
 10 11  2  0
  5 12  1  0
  8 12  1  0
 11 13  1  0
  6 14  2  0
  2 15  1  0
 14 15  1  0
  6 16  1  0
 10 16  1  0
  1 17  2  0
 16 18  2  0
  5 19  2  0
 17 19  1  0
 13 20  2  0
 18 20  1  0
M  END
>  <ID>  (1) 
conformer_0

$$$$
