
     RDKit          3D

 26 29  0  0  0  0  0  0  0  0999 V2000
   46.6654   35.3078   78.0410 O   0  0  0  0  0  0  0  0  0  0  0  0
   45.1216   36.8787   78.8127 N   0  0  0  0  0  0  0  0  0  0  0  0
   46.3844   35.6312   84.5380 C   0  0  0  0  0  0  0  0  0  0  0  0
   45.2461   36.9304   80.1504 N   0  0  0  0  0  0  0  0  0  0  0  0
   43.9782   39.0819   82.8881 C   0  0  0  0  0  0  0  0  0  0  0  0
   46.3716   37.2440   76.6206 C   0  0  0  0  0  0  0  0  0  0  0  0
   44.5205   36.7096   82.9340 N   0  0  0  0  0  0  0  0  0  0  0  0
   45.0844   35.7011   85.1902 C   0  0  0  0  0  0  0  0  0  0  0  0
   45.4607   35.8486   82.3474 C   0  0  0  0  0  0  0  0  0  0  0  0
   44.3779   37.9418   82.2201 C   0  0  0  0  0  0  0  0  0  0  0  0
   45.9400   33.7147   83.1618 O   0  0  0  0  0  0  0  0  0  0  0  0
   42.7587   36.2464   85.4210 C   0  0  0  0  0  0  0  0  0  0  0  0
   44.0235   36.4303   84.3769 C   0  0  0  0  0  0  0  0  0  0  0  0
   44.0894   41.6248   80.2791 F   0  0  0  0  0  0  0  0  0  0  0  0
   44.5332   39.2661   80.1828 C   0  0  0  0  0  0  0  0  0  0  0  0
   45.2489   35.8188   86.6579 C   0  0  0  0  0  0  0  0  0  0  0  0
   44.1096   35.6520   87.5616 C   0  0  0  0  0  0  0  0  0  0  0  0
   45.7876   35.9240   80.9741 C   0  0  0  0  0  0  0  0  0  0  0  0
   44.7098   38.0590   80.8378 C   0  0  0  0  0  0  0  0  0  0  0  0
   46.1545   34.9944   83.2970 C   0  0  0  0  0  0  0  0  0  0  0  0
   41.6465   35.9582   84.5738 O   0  0  0  0  0  0  0  0  0  0  0  0
   45.7506   36.1634   77.6248 C   0  0  0  0  0  0  0  0  0  0  0  0
   43.8731   40.2979   82.2589 C   0  0  0  0  0  0  0  0  0  0  0  0
   42.8430   35.5572   86.8060 C   0  0  0  0  0  0  0  0  0  0  0  0
   44.1692   40.3971   80.9110 C   0  0  0  0  0  0  0  0  0  0  0  0
   44.7771   35.4370   76.6017 C   0  0  0  0  0  0  0  0  0  0  0  0
  1 22  1  0
  2  4  1  0
  2 22  1  0
  3  8  1  0
  3 20  1  0
  4 18  1  0
  4 19  1  0
  5 10  1  0
  5 23  2  0
  6 22  1  0
  7  9  1  0
  7 10  1  0
  7 13  1  0
  8 13  1  0
  8 16  1  0
  9 18  2  0
  9 20  1  0
 10 19  2  0
 11 20  1  0
 12 13  1  0
 12 21  1  0
 12 24  1  0
 14 25  1  0
 15 19  1  0
 15 25  2  0
 16 17  1  0
 17 24  1  0
 22 26  1  0
 23 25  1  0
M  END
>  <ID>  (1) 
conformer_0

$$$$
