
     RDKit          3D

 22 24  0  0  0  0  0  0  0  0999 V2000
   45.0531   37.1891   82.6031 C   0  0  0  0  0  0  0  0  0  0  0  0
   43.6191   36.5508   84.5416 C   0  0  0  0  0  0  0  0  0  0  0  0
   44.1736   40.4478   80.8974 C   0  0  0  0  0  0  0  0  0  0  0  0
   43.5044   38.9317   83.1588 O   0  0  0  0  0  0  0  0  0  0  0  0
   47.4185   36.7060   84.3814 O   0  0  0  0  0  0  0  0  0  0  0  0
   47.1473   35.9064   79.0257 O   0  0  0  0  0  0  0  0  0  0  0  0
   45.6039   37.0662   80.2222 C   0  0  0  0  0  0  0  0  0  0  0  0
   44.3831   36.1137   88.1092 C   0  0  0  0  0  0  0  0  0  0  0  0
   44.6867   36.2614   86.7067 C   0  0  0  0  0  0  0  0  0  0  0  0
   46.0240   35.9455   86.1816 C   0  0  0  0  0  0  0  0  0  0  0  0
   43.5763   35.7429   85.8490 C   0  0  0  0  0  0  0  0  0  0  0  0
   44.5215   39.0340   81.0728 C   0  0  0  0  0  0  0  0  0  0  0  0
   46.0230   36.2951   79.0481 C   0  0  0  0  0  0  0  0  0  0  0  0
   45.2451   35.1811   77.0107 C   0  0  0  0  0  0  0  0  0  0  0  0
   45.1730   36.3521   77.9755 O   0  0  0  0  0  0  0  0  0  0  0  0
   43.3186   35.0931   88.1721 C   0  0  0  0  0  0  0  0  0  0  0  0
   45.0123   36.7118   84.0170 C   0  0  0  0  0  0  0  0  0  0  0  0
   45.6428   36.5267   81.5228 C   0  0  0  0  0  0  0  0  0  0  0  0
   44.3687   38.3872   82.2865 C   0  0  0  0  0  0  0  0  0  0  0  0
   42.5419   35.3166   86.8984 C   0  0  0  0  0  0  0  0  0  0  0  0
   45.0941   38.3592   80.0141 C   0  0  0  0  0  0  0  0  0  0  0  0
   46.2171   36.4691   84.7861 C   0  0  0  0  0  0  0  0  0  0  0  0
  1 17  1  0
  1 18  1  0
  1 19  2  0
  2 11  1  0
  2 17  1  0
  3 12  1  0
  4 19  1  0
  5 22  1  0
  6 13  2  0
  7 13  1  0
  7 18  2  0
  7 21  1  0
  8  9  1  0
  8 16  1  0
  9 10  1  0
  9 11  1  0
 10 22  1  0
 11 20  1  0
 12 19  1  0
 12 21  2  0
 13 15  1  0
 14 15  1  0
 16 20  1  0
 17 22  2  0
M  END
>  <ID>  (1) 
conformer_0

$$$$
