
     RDKit          3D

 24 25  0  0  0  0  0  0  0  0999 V2000
   42.3595   36.4759   83.9820 C   0  0  0  0  0  0  0  0  0  0  0  0
   45.4667   35.6925   83.4762 C   0  0  0  0  0  0  0  0  0  0  0  0
   45.3655   35.8067   77.5218 C   0  0  0  0  0  0  0  0  0  0  0  0
   42.7617   38.7991   85.8606 O   0  0  0  0  0  0  0  0  0  0  0  0
   47.0553   36.0004   85.1358 O   0  0  0  0  0  0  0  0  0  0  0  0
   44.3395   38.2289   80.9504 C   0  0  0  0  0  0  0  0  0  0  0  0
   45.9635   36.5001   84.6033 C   0  0  0  0  0  0  0  0  0  0  0  0
   45.9480   35.9263   81.0176 C   0  0  0  0  0  0  0  0  0  0  0  0
   45.3425   36.3847   82.2059 C   0  0  0  0  0  0  0  0  0  0  0  0
   45.3638   34.2950   83.4724 C   0  0  0  0  0  0  0  0  0  0  0  0
   41.4361   36.9549   84.9891 C   0  0  0  0  0  0  0  0  0  0  0  0
   43.5615   37.1858   84.3234 C   0  0  0  0  0  0  0  0  0  0  0  0
   44.6500   35.7328   75.2684 O   0  0  0  0  0  0  0  0  0  0  0  0
   43.7492   37.6890   85.7296 C   0  0  0  0  0  0  0  0  0  0  0  0
   45.5922   36.1806   76.0357 C   0  0  0  0  0  0  0  0  0  0  0  0
   46.0044   38.0490   84.7589 C   0  0  0  0  0  0  0  0  0  0  0  0
   44.5854   37.5971   82.1614 C   0  0  0  0  0  0  0  0  0  0  0  0
   46.3530   36.1470   78.5463 C   0  0  0  0  0  0  0  0  0  0  0  0
   45.7348   36.6138   79.7937 C   0  0  0  0  0  0  0  0  0  0  0  0
   46.5815   36.7829   75.6016 O   0  0  0  0  0  0  0  0  0  0  0  0
   45.1266   38.3795   85.9591 C   0  0  0  0  0  0  0  0  0  0  0  0
   43.3102   40.1180   86.0307 C   0  0  0  0  0  0  0  0  0  0  0  0
   44.8957   37.7337   79.7815 C   0  0  0  0  0  0  0  0  0  0  0  0
   43.9811   38.1981   83.3448 C   0  0  0  0  0  0  0  0  0  0  0  0
  1 11  1  0
  1 12  1  0
  2  7  1  0
  2  9  1  0
  2 10  1  0
  3 15  1  0
  3 18  1  0
  4 14  1  0
  4 22  1  0
  5  7  1  0
  6 17  2  0
  6 23  1  0
  7 16  1  0
  8  9  2  0
  8 19  1  0
  9 17  1  0
 12 14  1  0
 12 24  1  0
 13 15  2  0
 14 21  1  0
 15 20  1  0
 16 21  1  0
 17 24  1  0
 18 19  1  0
 19 23  2  0
M  END
>  <ID>  (1) 
conformer_0

$$$$
