
     RDKit          3D

 24 24  0  0  0  0  0  0  0  0999 V2000
   45.0660   37.5347   81.3758 C   0  0  0  0  0  0  0  0  0  0  0  0
   43.0598   35.5951   85.7984 C   0  0  0  0  0  0  0  0  0  0  0  0
   46.6178   35.9105   85.8727 O   0  0  0  0  0  0  0  0  0  0  0  0
   46.3657   35.4873   80.0264 C   0  0  0  0  0  0  0  0  0  0  0  0
   43.2134   39.2593   82.0457 O   0  0  0  0  0  1  0  0  0  0  0  0
   45.6988   36.4972   82.0350 C   0  0  0  0  0  0  0  0  0  0  0  0
   46.5707   35.1898   77.4472 O   0  0  0  0  0  0  0  0  0  0  0  0
   44.3091   36.4105   86.2241 C   0  0  0  0  0  0  0  0  0  0  0  0
   45.0207   37.4761   79.9410 C   0  0  0  0  0  0  0  0  0  0  0  0
   42.5024   36.1220   84.4041 C   0  0  0  0  0  0  0  0  0  0  0  0
   44.4800   38.7492   82.3523 S   0  0  0  0  0  4  0  0  0  0  0  0
   45.4142   38.4897   84.6960 O   0  0  0  0  0  0  0  0  0  0  0  0
   44.3701   38.0101   83.9060 C   0  0  0  0  0  0  0  0  0  0  0  0
   45.5233   35.4795   86.2424 C   0  0  0  0  0  0  0  0  0  0  0  0
   46.2998   35.4943   81.4073 C   0  0  0  0  0  0  0  0  0  0  0  0
   45.6147   36.4705   75.2612 C   0  0  0  0  0  0  0  0  0  0  0  0
   45.5229   39.7531   82.2704 O   0  0  0  0  0  1  0  0  0  0  0  0
   43.1226   37.3686   84.0427 N   0  0  0  0  0  0  0  0  0  0  0  0
   40.5187   36.6687   83.0937 O   0  0  0  0  0  0  0  0  0  0  0  0
   45.2751   34.3610   86.7020 O   0  0  0  0  0  0  0  0  0  0  0  0
   45.8544   36.1968   77.8051 C   0  0  0  0  0  0  0  0  0  0  0  0
   45.2415   37.0062   76.7354 C   0  0  0  0  0  0  0  0  0  0  0  0
   40.9482   36.2433   84.3900 C   0  0  0  0  0  0  0  0  0  0  0  0
   45.7131   36.4678   79.2495 C   0  0  0  0  0  0  0  0  0  0  0  0
  1  6  1  0
  1  9  2  0
  1 11  1  0
  2  8  1  0
  2 10  1  0
  3 14  2  0
  4 15  1  0
  4 24  1  0
  5 11  1  0
  6 15  2  0
  7 21  1  0
  8 14  1  0
  9 24  1  0
 10 18  1  0
 10 23  1  0
 11 13  1  0
 11 17  1  0
 12 13  2  0
 13 18  1  0
 14 20  1  0
 16 22  1  0
 19 23  1  0
 21 22  1  0
 21 24  2  3
M  END
>  <ID>  (1) 
conformer_0

$$$$
