
     RDKit          3D

 31 34  0  0  0  0  0  0  0  0999 V2000
   44.1989   40.7804   80.0152 C   0  0  0  0  0  0  0  0  0  0  0  0
   43.2146   40.9460   82.2022 C   0  0  0  0  0  0  0  0  0  0  0  0
   44.8453   37.6197   81.8872 C   0  0  0  0  0  0  0  0  0  0  0  0
   43.9789   35.4796   86.2958 C   0  0  0  0  0  0  0  0  0  0  0  0
   46.1393   37.4809   77.5085 C   0  0  0  0  0  0  0  0  0  0  0  0
   46.2533   35.0971   82.6718 O   0  0  0  0  0  0  0  0  0  0  0  0
   44.3634   38.9527   81.5843 C   0  0  0  0  0  0  0  0  0  0  0  0
   46.1538   35.9846   86.2176 O   0  0  0  0  0  0  0  0  0  0  0  0
   42.6606   35.2501   88.2761 C   0  0  0  0  0  0  0  0  0  0  0  0
   43.7452   35.6435   89.0336 C   0  0  0  0  0  0  0  0  0  0  0  0
   46.1527   36.2403   83.4853 C   0  0  0  0  0  0  0  0  0  0  0  0
   43.4534   39.2239   83.9086 C   0  0  0  0  0  0  0  0  0  0  0  0
   42.7874   35.1602   86.8983 C   0  0  0  0  0  0  0  0  0  0  0  0
   43.4979   41.5285   80.9508 C   0  0  0  0  0  0  0  0  0  0  0  0
   43.7372   36.2842   83.7739 C   0  0  0  0  0  0  0  0  0  0  0  0
   44.9704   35.8952   88.4364 C   0  0  0  0  0  0  0  0  0  0  0  0
   45.2407   36.5327   79.7706 C   0  0  0  0  0  0  0  0  0  0  0  0
   44.8628   37.0575   83.1776 C   0  0  0  0  0  0  0  0  0  0  0  0
   45.0392   35.7953   87.0689 C   0  0  0  0  0  0  0  0  0  0  0  0
   45.9372   37.2175   80.9649 C   0  0  0  0  0  0  0  0  0  0  0  0
   47.3457   37.0034   83.6477 O   0  0  0  0  0  0  0  0  0  0  0  0
   46.0994   35.5394   79.0798 C   0  0  0  0  0  0  0  0  0  0  0  0
   45.2890   36.1682   75.5893 C   0  0  0  0  0  0  0  0  0  0  0  0
   45.4149   35.2458   76.7810 C   0  0  0  0  0  0  0  0  0  0  0  0
   42.5054   41.6385   83.0636 O   0  0  0  0  0  0  0  0  0  0  0  0
   44.2744   35.4999   84.9324 C   0  0  0  0  0  0  0  0  0  0  0  0
   43.6900   39.6668   82.5669 C   0  0  0  0  0  0  0  0  0  0  0  0
   46.3371   35.9723   77.7341 O   0  0  0  0  0  0  0  0  0  0  0  0
   46.0095   37.4736   75.9525 C   0  0  0  0  0  0  0  0  0  0  0  0
   45.7430   35.7515   84.9131 C   0  0  0  0  0  0  0  0  0  0  0  0
   44.5942   39.5220   80.3451 C   0  0  0  0  0  0  0  0  0  0  0  0
  1 14  1  0
  1 31  2  0
  2 14  1  0
  2 25  1  0
  2 27  2  0
  3  7  1  0
  3 18  1  0
  3 20  1  0
  4 13  1  0
  4 19  2  0
  4 26  1  0
  5 29  1  0
  6 11  1  0
  7 27  1  0
  7 31  1  0
  8 19  1  0
  8 30  1  0
  9 10  1  0
  9 13  2  0
 10 16  2  0
 11 18  1  0
 11 21  1  0
 11 30  1  0
 12 27  1  0
 15 18  1  0
 15 26  1  0
 16 19  1  0
 17 20  1  0
 17 22  1  0
 22 28  1  0
 23 24  1  0
 23 29  1  0
 24 28  1  0
 26 30  1  0
M  END
>  <ID>  (1) 
conformer_0

$$$$
