
     RDKit          3D

 33 35  0  0  0  0  0  0  0  0999 V2000
   43.3366   37.6313   86.5451 C   0  0  0  0  0  0  0  0  0  0  0  0
   46.8647   37.9401   76.0547 O   0  0  0  0  0  0  0  0  0  0  0  0
   43.3733   40.2459   84.4535 C   0  0  0  0  0  0  0  0  0  0  0  0
   42.2541   39.1706   84.7912 C   0  0  0  0  0  0  0  0  0  0  0  0
   39.9261   38.7672   84.0038 C   0  0  0  0  0  0  0  0  0  0  0  0
   45.8038   36.5790   78.2992 N   0  0  0  0  0  0  0  0  0  0  0  0
   46.0655   37.7981   86.1117 O   0  0  0  0  0  0  0  0  0  0  0  0
   43.5486   40.9117   82.9557 C   0  0  0  0  0  0  0  0  0  0  0  0
   45.4736   33.8464   82.6429 C   0  0  0  0  0  0  0  0  0  0  0  0
   42.1356   36.7965   84.5382 C   0  0  0  0  0  0  0  0  0  0  0  0
   42.5807   37.8669   85.2435 C   0  0  0  0  0  0  0  0  0  0  0  0
   44.4312   38.1655   80.5434 C   0  0  0  0  0  0  0  0  0  0  0  0
   44.0076   36.2332   86.7863 C   0  0  0  0  0  0  0  0  0  0  0  0
   44.9522   35.2033   84.5779 O   0  0  0  0  0  0  0  0  0  0  0  0
   46.4309   36.1095   82.7906 C   0  0  0  0  0  0  0  0  0  0  0  0
   44.1068   35.0249   87.7272 C   0  0  0  0  0  0  0  0  0  0  0  0
   45.4769   37.2239   80.6352 C   0  0  0  0  0  0  0  0  0  0  0  0
   41.5767   35.8051   82.4613 C   0  0  0  0  0  0  0  0  0  0  0  0
   45.6345   36.2315   85.7799 S   0  0  0  0  0  4  0  0  0  0  0  0
   40.9373   39.5434   84.5050 C   0  0  0  0  0  0  0  0  0  0  0  0
   47.4562   36.2493   79.7940 O   0  0  0  0  0  0  0  0  0  0  0  0
   41.2288   36.7471   83.5503 C   0  0  0  0  0  0  0  0  0  0  0  0
   45.8164   37.2576   76.0038 C   0  0  0  0  0  0  0  0  0  0  0  0
   45.6187   35.1212   83.3575 C   0  0  0  0  0  0  0  0  0  0  0  0
   45.4205   38.3370   82.6717 C   0  0  0  0  0  0  0  0  0  0  0  0
   44.2851   40.4554   81.5948 C   0  0  0  0  0  0  0  0  0  0  0  0
   40.0547   37.4976   83.4890 C   0  0  0  0  0  0  0  0  0  0  0  0
   46.3126   36.6854   79.6273 C   0  0  0  0  0  0  0  0  0  0  0  0
   44.8369   37.4749   75.2821 O   0  0  0  0  0  0  0  0  0  0  0  0
   45.6986   36.0408   76.9641 C   0  0  0  0  0  0  0  0  0  0  0  0
   44.5502   38.9825   81.7179 C   0  0  0  0  0  0  0  0  0  0  0  0
   46.9157   35.5976   85.9570 O   0  0  0  0  0  0  0  0  0  0  0  0
   45.9202   37.1326   81.9872 C   0  0  0  0  0  0  0  0  0  0  0  0
  1 11  1  0
  1 13  1  0
  2 23  2  0
  3  4  1  0
  3  8  1  0
  4 11  1  0
  4 20  1  0
  5 20  1  0
  5 27  2  0
  6 28  1  0
  6 30  1  0
  7 19  1  0
  8 26  1  0
  9 24  1  0
 10 11  2  0
 10 22  1  0
 12 17  1  0
 12 31  1  0
 13 16  1  0
 13 19  1  0
 14 19  1  0
 14 24  1  0
 15 24  1  0
 15 33  1  0
 17 28  1  0
 17 33  1  0
 18 22  1  0
 19 32  1  0
 21 28  2  0
 22 27  1  0
 23 29  1  0
 23 30  1  0
 25 31  1  0
 25 33  1  0
 26 31  1  0
M  END
>  <ID>  (1) 
conformer_0

$$$$
