
     RDKit          3D

 33 35  0  0  0  0  0  0  0  0999 V2000
   45.1995   37.7217   82.5997 C   0  0  0  0  0  0  0  0  0  0  0  0
   46.5455   35.8236   81.8934 O   0  0  0  0  0  0  0  0  0  0  0  0
   43.4352   41.1869   82.0558 C   0  0  0  0  0  0  0  0  0  0  0  0
   43.8748   34.5199   74.9984 C   0  0  0  0  0  0  0  0  0  0  0  0
   40.1474   36.9507   84.5902 C   0  0  0  0  0  0  0  0  0  0  0  0
   45.3250   36.4396   78.1529 C   0  0  0  0  0  0  0  0  0  0  0  0
   43.6016   41.3846   80.6464 C   0  0  0  0  0  0  0  0  0  0  0  0
   46.1052   36.7916   76.9287 C   0  0  0  0  0  0  0  0  0  0  0  0
   44.8385   39.2983   80.5763 C   0  0  0  0  0  0  0  0  0  0  0  0
   45.9736   36.8189   86.4501 O   0  0  0  0  0  0  0  0  0  0  0  0
   44.0931   34.9486   73.6780 C   0  0  0  0  0  0  0  0  0  0  0  0
   43.8800   40.1799   84.5229 S   0  0  0  0  0  0  0  0  0  0  0  0
   45.1600   35.6756   85.7659 S   0  0  0  0  0  4  0  0  0  0  0  0
   45.4555   36.1307   75.8139 C   0  0  0  0  0  0  0  0  0  0  0  0
   44.3230   40.4238   79.9274 C   0  0  0  0  0  0  0  0  0  0  0  0
   44.0430   36.8449   83.2873 C   0  0  0  0  0  0  0  0  0  0  0  0
   45.0118   35.9558   73.4371 C   0  0  0  0  0  0  0  0  0  0  0  0
   42.4969   36.1213   85.0834 C   0  0  0  0  0  0  0  0  0  0  0  0
   46.2976   38.1230   83.6481 C   0  0  0  0  0  0  0  0  0  0  0  0
   46.1736   36.3382   79.2617 C   0  0  0  0  0  0  0  0  0  0  0  0
   44.0278   40.1066   82.6857 C   0  0  0  0  0  0  0  0  0  0  0  0
   41.6856   36.4712   82.8240 C   0  0  0  0  0  0  0  0  0  0  0  0
   45.8116   36.7644   81.5481 C   0  0  0  0  0  0  0  0  0  0  0  0
   42.9825   36.6517   82.4316 C   0  0  0  0  0  0  0  0  0  0  0  0
   44.5312   35.1246   76.0668 C   0  0  0  0  0  0  0  0  0  0  0  0
   44.5777   34.8250   86.9077 O   0  0  0  0  0  0  0  0  0  0  0  0
   41.4179   36.4445   84.2070 C   0  0  0  0  0  0  0  0  0  0  0  0
   45.9921   34.8635   84.8850 O   0  0  0  0  0  0  0  0  0  0  0  0
   47.3485   36.0678   79.2507 O   0  0  0  0  0  0  0  0  0  0  0  0
   43.8153   36.2602   84.6397 C   0  0  0  0  0  0  0  0  0  0  0  0
   45.5062   36.8887   80.2428 N   0  0  0  0  0  0  0  0  0  0  0  0
   45.7145   36.5289   74.5077 C   0  0  0  0  0  0  0  0  0  0  0  0
   44.7102   39.0466   81.9185 C   0  0  0  0  0  0  0  0  0  0  0  0
  1 16  1  0
  1 19  1  0
  1 23  1  0
  1 33  1  0
  2 23  2  0
  3  7  2  0
  3 21  1  0
  4 11  2  0
  4 25  1  0
  5 27  1  0
  6  8  1  0
  6 20  1  0
  7 15  1  0
  8 14  1  0
  9 15  2  0
  9 33  1  0
 10 13  1  0
 11 17  1  0
 12 21  1  0
 13 26  1  0
 13 28  1  0
 13 30  1  0
 14 25  2  0
 14 32  1  0
 16 24  1  0
 16 30  1  0
 17 32  2  0
 18 27  1  0
 18 30  2  0
 20 29  2  0
 20 31  1  0
 21 33  2  0
 22 24  2  0
 22 27  1  0
 23 31  1  0
M  END
>  <ID>  (1) 
conformer_0

$$$$
