
     RDKit          3D

 25 26  0  0  0  0  0  0  0  0999 V2000
   46.6572   35.8739   81.3057 O   0  0  0  0  0  0  0  0  0  0  0  0
   45.2961   36.8742   79.5183 N   0  0  0  0  0  0  0  0  0  0  0  0
   44.6627   34.4186   75.8574 C   0  0  0  0  0  0  0  0  0  0  0  0
   45.2742   36.5397   76.2488 C   0  0  0  0  0  0  0  0  0  0  0  0
   44.2211   39.2047   83.2193 C   0  0  0  0  0  0  0  0  0  0  0  0
   43.8299   40.5183   83.2546 C   0  0  0  0  0  0  0  0  0  0  0  0
   45.5525   35.7692   77.3782 C   0  0  0  0  0  0  0  0  0  0  0  0
   45.2409   34.4433   77.1282 C   0  0  0  0  0  0  0  0  0  0  0  0
   46.0898   36.2623   78.5948 C   0  0  0  0  0  0  0  0  0  0  0  0
   43.7168   41.2470   82.0410 C   0  0  0  0  0  0  0  0  0  0  0  0
   45.6362   36.1288   84.4396 C   0  0  0  0  0  0  0  0  0  0  0  0
   42.4588   36.1992   82.8314 C   0  0  0  0  0  0  0  0  0  0  0  0
   47.2748   36.1009   78.8724 O   0  0  0  0  0  0  0  0  0  0  0  0
   42.0077   36.4916   85.3311 C   0  0  0  0  0  0  0  0  0  0  0  0
   44.4947   38.5164   82.0135 C   0  0  0  0  0  0  0  0  0  0  0  0
   45.3240   36.3748   83.1549 C   0  0  0  0  0  0  0  0  0  0  0  0
   43.0966   35.9366   84.3625 C   0  0  0  0  0  0  0  0  0  0  0  0
   46.7832   36.1875   84.8799 O   0  0  0  0  0  0  0  0  0  0  0  0
   44.6820   35.7177   75.3250 C   0  0  0  0  0  0  0  0  0  0  0  0
   45.6868   36.6221   80.8507 C   0  0  0  0  0  0  0  0  0  0  0  0
   44.8759   37.0953   81.9570 C   0  0  0  0  0  0  0  0  0  0  0  0
   44.3879   35.6332   85.1767 C   0  0  0  0  0  0  0  0  0  0  0  0
   44.7670   35.1969   86.5773 C   0  0  0  0  0  0  0  0  0  0  0  0
   44.3790   39.2761   80.8350 C   0  0  0  0  0  0  0  0  0  0  0  0
   43.9961   40.6060   80.8497 C   0  0  0  0  0  0  0  0  0  0  0  0
  1 20  2  0
  2  9  1  0
  2 20  1  0
  3  8  1  0
  3 19  1  0
  4  7  1  0
  4 19  1  0
  5  6  2  0
  5 15  1  0
  6 10  1  0
  7  8  1  0
  7  9  1  0
  9 13  2  0
 10 25  2  0
 11 16  2  0
 11 18  1  0
 11 22  1  0
 12 17  1  0
 14 17  1  0
 15 21  1  0
 15 24  2  0
 16 21  2  0
 17 22  1  0
 20 21  1  0
 22 23  1  0
 24 25  1  0
M  END
>  <ID>  (1) 
conformer_0

$$$$
