
     RDKit          3D

 18 17  0  0  0  0  0  0  0  0999 V2000
   44.1129   35.7694   86.0668 C   0  0  0  0  0  0  0  0  0  0  0  0
   44.0367   36.9592   83.8270 C   0  0  0  0  0  0  0  0  0  0  0  0
   43.0778   41.0413   82.6691 C   0  0  0  0  0  0  0  0  0  0  0  0
   47.2656   36.1019   84.7952 O   0  0  0  0  0  0  0  0  0  0  0  0
   44.8632   36.0997   84.7795 C   0  0  0  0  0  0  0  0  0  0  0  0
   45.9879   36.2838   79.3899 C   0  0  0  0  0  0  0  0  0  0  0  0
   45.5613   36.2242   77.9833 C   0  0  0  0  0  0  0  0  0  0  0  0
   42.9163   35.0806   85.8282 O   0  0  0  0  0  0  0  0  0  0  0  0
   44.2808   38.8582   82.1441 C   0  0  0  0  0  0  0  0  0  0  0  0
   46.1505   36.8658   85.0265 C   0  0  0  0  0  0  0  0  0  0  0  0
   46.4608   35.1827   77.3303 O   0  0  0  0  0  0  0  0  0  0  0  0
   44.8662   37.6126   82.8021 C   0  0  0  0  0  0  0  0  0  0  0  0
   43.9578   39.9040   83.2726 C   0  0  0  0  0  0  0  0  0  0  0  0
   45.2206   36.9828   80.3696 C   0  0  0  0  0  0  0  0  0  0  0  0
   42.7722   37.0897   84.0369 O   0  0  0  0  0  0  0  0  0  0  0  0
   45.4740   36.7177   81.8028 C   0  0  0  0  0  0  0  0  0  0  0  0
   46.0219   35.6178   82.2017 O   0  0  0  0  0  0  0  0  0  0  0  0
   47.2296   36.0142   79.6099 O   0  0  0  0  0  0  0  0  0  0  0  0
  1  5  1  0
  1  8  1  0
  2  5  1  0
  2 12  1  0
  2 15  1  0
  3 13  1  0
  4 10  1  0
  5 10  1  0
  6  7  1  0
  6 14  1  0
  6 18  1  0
  7 11  1  0
  9 12  1  0
  9 13  1  0
 12 16  1  0
 14 16  1  0
 16 17  1  0
M  END
>  <ID>  (1) 
conformer_0

$$$$
