
     RDKit          3D

 31 35  0  0  0  0  0  0  0  0999 V2000
   42.6379   36.6739   83.2823 C   0  0  0  0  0  0  0  0  0  0  0  0
   44.1965   40.8265   80.1865 C   0  0  0  0  0  0  0  0  0  0  0  0
   45.7187   36.8540   77.3083 C   0  0  0  0  0  0  0  0  0  0  0  0
   45.4978   35.4386   86.3001 C   0  0  0  0  0  0  0  0  0  0  0  0
   44.4296   34.8108   87.1573 C   0  0  0  0  0  0  0  0  0  0  0  0
   44.1756   38.5192   83.8081 C   0  0  0  0  0  0  0  0  0  0  0  0
   47.0752   36.2766   84.1365 O   0  0  0  0  0  0  0  0  0  0  0  0
   43.8367   41.7176   81.4295 C   0  0  0  0  0  0  0  0  0  0  0  0
   46.0092   35.8214   76.6569 O   0  0  0  0  0  0  0  0  0  0  0  0
   45.5422   37.9841   76.7553 O   0  0  0  0  0  0  0  0  0  0  0  0
   46.4684   35.9080   86.9560 O   0  0  0  0  0  0  0  0  0  0  0  0
   43.8810   40.5122   82.2563 N   0  0  0  0  0  0  0  0  0  0  0  0
   45.7314   36.4843   81.1699 C   0  0  0  0  0  0  0  0  0  0  0  0
   40.3357   36.5616   84.7906 C   0  0  0  0  0  0  0  0  0  0  0  0
   45.6669   34.3274   83.1707 C   0  0  0  0  0  0  0  0  0  0  0  0
   42.3675   37.7671   85.4505 C   0  0  0  0  0  0  0  0  0  0  0  0
   45.8422   35.8280   83.7694 C   0  0  0  0  0  0  0  0  0  0  0  0
   42.9963   37.5740   84.1954 C   0  0  0  0  0  0  0  0  0  0  0  0
   40.4119   36.0493   83.5606 C   0  0  0  0  0  0  0  0  0  0  0  0
   41.0923   37.2463   85.6634 C   0  0  0  0  0  0  0  0  0  0  0  0
   45.1673   37.4105   80.2133 C   0  0  0  0  0  0  0  0  0  0  0  0
   43.8145   39.9605   83.6154 C   0  0  0  0  0  0  0  0  0  0  0  0
   45.7802   36.7172   78.8290 C   0  0  0  0  0  0  0  0  0  0  0  0
   44.4806   38.4036   81.2373 C   0  0  0  0  0  0  0  0  0  0  0  0
   45.4584   36.7079   82.5406 N   0  0  0  0  0  0  0  0  0  0  0  0
   44.7889   37.9641   82.5968 C   0  0  0  0  0  0  0  0  0  0  0  0
   41.5890   36.0228   82.7585 C   0  0  0  0  0  0  0  0  0  0  0  0
   43.9149   39.6587   81.0903 C   0  0  0  0  0  0  0  0  0  0  0  0
   46.5525   35.6475   79.2853 C   0  0  0  0  0  0  0  0  0  0  0  0
   45.0441   35.7183   85.0841 N   0  0  0  0  0  0  0  0  0  0  0  0
   46.5296   35.5041   80.6323 O   0  0  0  0  0  0  0  0  0  0  0  0
  1 18  1  0
  1 27  1  0
  2  8  1  0
  2 28  1  0
  3  9  2  0
  3 10  1  0
  3 23  1  0
  4  5  1  0
  4 11  2  0
  4 30  1  0
  6 18  1  0
  6 22  1  0
  6 26  1  0
  7 17  1  0
  8 12  1  0
 12 22  1  0
 12 28  1  0
 13 21  2  0
 13 25  1  0
 13 31  1  0
 14 19  2  0
 14 20  1  0
 15 17  1  0
 16 18  1  0
 16 20  2  0
 17 25  1  0
 17 30  1  0
 19 27  1  0
 21 23  1  0
 21 24  1  0
 23 29  1  0
 24 26  1  0
 24 28  1  0
 25 26  1  0
 29 31  1  0
M  END
>  <ID>  (1) 
conformer_0

$$$$
