
     RDKit          3D

 15 15  0  0  0  0  0  0  0  0999 V2000
   45.7227   35.8547   84.8679 C   0  0  0  0  0  0  0  0  0  0  0  0
   44.3600   37.4228   82.2901 C   0  0  0  0  0  0  0  0  0  0  0  0
   44.3515   37.8347   80.9598 C   0  0  0  0  0  0  0  0  0  0  0  0
   46.0055   36.2034   77.8681 C   0  0  0  0  0  0  0  0  0  0  0  0
   45.0922   35.3280   83.5907 C   0  0  0  0  0  0  0  0  0  0  0  0
   45.1131   36.9435   80.1938 C   0  0  0  0  0  0  0  0  0  0  0  0
   44.5210   37.7974   85.8309 N   0  0  0  0  0  0  0  0  0  0  0  0
   45.0277   36.2458   82.4332 C   0  0  0  0  0  0  0  0  0  0  0  0
   43.7708   35.4394   86.5009 C   0  0  0  0  0  0  0  0  0  0  0  0
   46.5270   35.1782   78.2464 O   0  0  0  0  0  0  0  0  0  0  0  0
   44.7754   36.3647   85.8918 C   0  0  0  0  0  0  0  0  0  0  0  0
   46.9716   36.1524   84.8582 O   0  0  0  0  0  0  0  0  0  0  0  0
   45.5772   35.9513   81.1368 O   0  0  0  0  0  0  0  0  0  0  0  0
   46.1291   36.6408   76.6548 O   0  0  0  0  0  0  0  0  0  0  0  0
   45.2336   37.0917   78.7881 C   0  0  0  0  0  0  0  0  0  0  0  0
  1  5  1  0
  1 11  1  0
  1 12  2  0
  2  3  1  0
  2  8  1  0
  3  6  1  0
  4 10  2  0
  4 14  1  0
  4 15  1  0
  5  8  1  0
  6 13  1  0
  6 15  2  3
  7 11  1  0
  8 13  1  0
  9 11  1  0
M  END
>  <ID>  (1) 
conformer_0

$$$$
