
     RDKit          3D

 21 22  0  0  0  0  0  0  0  0999 V2000
   45.1857   37.0156   79.5918 C   0  0  0  0  0  0  0  0  0  0  0  0
   44.4550   37.7284   83.1769 C   0  0  0  0  0  0  0  0  0  0  0  0
   46.3955   36.6345   75.5533 O   0  0  0  0  0  0  0  0  0  0  0  0
   45.4679   35.4411   83.4866 C   0  0  0  0  0  0  0  0  0  0  0  0
   41.7956   35.8413   85.2374 C   0  0  0  0  0  0  0  0  0  0  0  0
   46.1326   36.8797   81.7344 O   0  0  0  0  0  0  0  0  0  0  0  0
   45.1965   38.6346   85.3989 C   0  0  0  0  0  0  0  0  0  0  0  0
   46.2684   36.5260   80.4027 C   0  0  0  0  0  0  0  0  0  0  0  0
   47.3255   36.0297   79.9545 O   0  0  0  0  0  0  0  0  0  0  0  0
   45.6929   37.8237   84.2085 C   0  0  0  0  0  0  0  0  0  0  0  0
   46.6728   36.0466   85.5706 O   0  0  0  0  0  0  0  0  0  0  0  0
   45.6276   36.3109   84.7664 C   0  0  0  0  0  0  0  0  0  0  0  0
   43.0949   35.7705   84.5369 C   0  0  0  0  0  0  0  0  0  0  0  0
   45.7056   35.6249   77.5975 C   0  0  0  0  0  0  0  0  0  0  0  0
   44.2393   36.3156   85.4709 C   0  0  0  0  0  0  0  0  0  0  0  0
   44.3328   35.4523   75.5999 C   0  0  0  0  0  0  0  0  0  0  0  0
   45.3336   37.0434   78.1083 C   0  0  0  0  0  0  0  0  0  0  0  0
   44.0101   37.7434   85.9548 C   0  0  0  0  0  0  0  0  0  0  0  0
   44.8846   36.4189   82.4028 C   0  0  0  0  0  0  0  0  0  0  0  0
   45.5666   35.8527   76.0972 C   0  0  0  0  0  0  0  0  0  0  0  0
   44.2138   37.8317   80.1529 O   0  0  0  0  0  0  0  0  0  0  0  0
  1  8  1  0
  1 17  1  0
  1 21  1  0
  2 10  1  0
  2 19  1  0
  3 20  2  0
  4 12  1  0
  4 19  1  0
  5 13  1  0
  6  8  1  0
  6 19  1  0
  7 10  1  0
  7 18  1  0
  8  9  2  0
 10 12  1  0
 11 12  1  0
 12 15  1  0
 13 15  1  0
 14 17  1  0
 14 20  1  0
 15 18  1  0
 16 20  1  0
M  END
>  <ID>  (1) 
conformer_0

$$$$
