
     RDKit          3D

 22 23  0  0  0  0  0  0  0  0999 V2000
   46.1044   35.9524   81.8484 C   0  0  0  0  0  0  0  0  0  0  0  0
   46.3942   36.6508   84.7353 C   0  0  0  0  0  0  0  0  0  0  0  0
   42.0314   39.7956   84.6401 C   0  0  0  0  0  0  0  0  0  0  0  0
   46.2816   35.8822   80.4962 C   0  0  0  0  0  0  0  0  0  0  0  0
   44.5441   35.4947   76.1589 C   0  0  0  0  0  0  0  0  0  0  0  0
   44.3787   37.5155   81.5533 C   0  0  0  0  0  0  0  0  0  0  0  0
   42.6991   36.5973   86.1982 C   0  0  0  0  0  0  0  0  0  0  0  0
   45.8030   36.4496   78.1372 C   0  0  0  0  0  0  0  0  0  0  0  0
   46.4457   36.9329   75.8610 O   0  0  0  0  0  0  0  0  0  0  0  0
   45.4704   36.5481   76.6761 C   0  0  0  0  0  0  0  0  0  0  0  0
   45.1488   36.7738   82.4361 C   0  0  0  0  0  0  0  0  0  0  0  0
   47.4883   36.9990   84.1936 O   0  0  0  0  0  0  0  0  0  0  0  0
   46.4771   36.2286   85.9361 O   0  0  0  0  0  0  0  0  0  0  0  0
   42.7021   37.4522   84.8624 C   0  0  0  0  0  0  0  0  0  0  0  0
   43.7820   35.5122   86.0028 C   0  0  0  0  0  0  0  0  0  0  0  0
   44.1595   37.9143   84.4837 C   0  0  0  0  0  0  0  0  0  0  0  0
   44.2140   35.4660   84.4511 C   0  0  0  0  0  0  0  0  0  0  0  0
   45.5240   36.6272   79.5777 C   0  0  0  0  0  0  0  0  0  0  0  0
   41.5482   38.3644   84.7175 C   0  0  0  0  0  0  0  0  0  0  0  0
   44.5424   37.4506   80.1409 C   0  0  0  0  0  0  0  0  0  0  0  0
   45.0183   36.7611   83.9784 C   0  0  0  0  0  0  0  0  0  0  0  0
   46.6906   35.2348   78.0484 O   0  0  0  0  0  0  0  0  0  0  0  0
  1  4  2  0
  1 11  1  0
  2 12  2  0
  2 13  1  0
  2 21  1  0
  3 19  1  0
  4 18  1  0
  5 10  1  0
  6 11  2  0
  6 20  1  0
  7 14  1  0
  7 15  1  0
  8 10  1  0
  8 18  1  0
  8 22  1  0
  9 10  1  0
 11 21  1  0
 14 16  1  0
 14 19  1  0
 15 17  1  0
 16 21  1  0
 17 21  1  0
 18 20  2  0
M  END
>  <ID>  (1) 
conformer_0

$$$$
