
     RDKit          3D

 28 32  0  0  0  0  0  0  0  0999 V2000
   42.6714   35.2548   86.6548 C   0  0  0  0  0  0  0  0  0  0  0  0
   47.0713   36.5136   84.1660 O   0  0  0  0  0  0  0  0  0  0  0  0
   43.7609   40.8848   84.4358 C   0  0  0  0  0  0  0  0  0  0  0  0
   45.5246   36.4669   78.6800 N   0  0  0  0  0  0  0  0  0  0  0  0
   45.6894   37.1315   75.1268 C   0  0  0  0  0  0  0  0  0  0  0  0
   44.4654   35.9372   85.1340 N   0  0  0  0  0  0  0  0  0  0  0  0
   46.0210   36.2055   83.4512 C   0  0  0  0  0  0  0  0  0  0  0  0
   45.2501   35.1285   84.2184 C   0  0  0  0  0  0  0  0  0  0  0  0
   44.8891   37.1610   83.1564 C   0  0  0  0  0  0  0  0  0  0  0  0
   45.5681   36.9513   80.9070 C   0  0  0  0  0  0  0  0  0  0  0  0
   46.2811   36.4972   79.7737 C   0  0  0  0  0  0  0  0  0  0  0  0
   45.9604   36.6066   82.1950 C   0  0  0  0  0  0  0  0  0  0  0  0
   44.4188   37.7621   80.9108 C   0  0  0  0  0  0  0  0  0  0  0  0
   45.1395   36.0061   74.5956 C   0  0  0  0  0  0  0  0  0  0  0  0
   44.7995   34.9689   75.4384 C   0  0  0  0  0  0  0  0  0  0  0  0
   47.4084   36.1515   79.8135 O   0  0  0  0  0  0  0  0  0  0  0  0
   43.7697   39.5384   84.1281 C   0  0  0  0  0  0  0  0  0  0  0  0
   44.9632   35.1115   76.8184 C   0  0  0  0  0  0  0  0  0  0  0  0
   44.6653   39.0134   86.2574 C   0  0  0  0  0  0  0  0  0  0  0  0
   44.2133   41.2768   85.6726 C   0  0  0  0  0  0  0  0  0  0  0  0
   44.2483   38.6059   85.0121 C   0  0  0  0  0  0  0  0  0  0  0  0
   45.8329   37.2883   76.4985 C   0  0  0  0  0  0  0  0  0  0  0  0
   44.0218   37.9688   82.2759 C   0  0  0  0  0  0  0  0  0  0  0  0
   45.4793   36.2638   77.3675 C   0  0  0  0  0  0  0  0  0  0  0  0
   44.1371   35.4604   86.4598 C   0  0  0  0  0  0  0  0  0  0  0  0
   44.2884   37.2116   84.5652 C   0  0  0  0  0  0  0  0  0  0  0  0
   43.2620   39.0804   82.8287 C   0  0  0  0  0  0  0  0  0  0  0  0
   44.6623   40.3427   86.5867 C   0  0  0  0  0  0  0  0  0  0  0  0
  1 25  1  0
  2  7  1  0
  3 17  2  0
  3 20  1  0
  4 11  1  0
  4 24  1  0
  5 14  2  0
  5 22  1  0
  6  8  1  0
  6 25  1  0
  6 26  1  0
  7  8  1  0
  7  9  1  0
  7 12  1  0
  9 23  1  0
  9 26  1  0
 10 11  1  0
 10 12  1  0
 10 13  1  0
 11 16  2  0
 13 23  1  0
 14 15  1  0
 15 18  1  0
 17 21  1  0
 17 27  1  0
 18 24  2  0
 19 21  2  0
 19 28  1  0
 20 28  2  0
 21 26  1  0
 22 24  1  0
 23 27  1  0
M  END
>  <ID>  (1) 
conformer_0

$$$$
