
     RDKit          3D

 25 27  0  0  0  0  0  0  0  0999 V2000
   42.5592   37.2061   82.5530 C   0  0  0  0  0  0  0  0  0  0  0  0
   46.2841   35.9501   77.7701 C   0  0  0  0  0  0  0  0  0  0  0  0
   44.8805   38.3098   83.8524 C   0  0  0  0  0  0  0  0  0  0  0  0
   46.3111   35.7601   80.2187 C   0  0  0  0  0  0  0  0  0  0  0  0
   45.2652   40.0605   85.6474 C   0  0  0  0  0  0  0  0  0  0  0  0
   45.8064   36.0542   81.5037 C   0  0  0  0  0  0  0  0  0  0  0  0
   44.2971   37.6007   80.4985 C   0  0  0  0  0  0  0  0  0  0  0  0
   42.5296   35.6888   84.7446 C   0  0  0  0  0  0  0  0  0  0  0  0
   43.9357   37.0638   83.0792 C   0  0  0  0  0  0  0  0  0  0  0  0
   44.7594   36.9334   81.6907 C   0  0  0  0  0  0  0  0  0  0  0  0
   45.3997   38.6088   85.2884 C   0  0  0  0  0  0  0  0  0  0  0  0
   46.1425   36.2400   85.8443 C   0  0  0  0  0  0  0  0  0  0  0  0
   44.7640   37.6687   87.4891 O   0  0  0  0  0  0  0  0  0  0  0  0
   45.8516   37.7268   86.4884 C   0  0  0  0  0  0  0  0  0  0  0  0
   46.4316   35.3593   86.8542 O   0  0  0  0  0  0  0  0  0  0  0  0
   41.4104   36.6545   82.8988 C   0  0  0  0  0  0  0  0  0  0  0  0
   43.7587   36.1382   84.3464 C   0  0  0  0  0  0  0  0  0  0  0  0
   45.7931   36.3854   79.0845 C   0  0  0  0  0  0  0  0  0  0  0  0
   43.9370   40.5188   85.5603 O   0  0  0  0  0  0  0  0  0  0  0  0
   46.5784   34.7297   77.6053 O   0  0  0  0  0  0  0  0  0  0  0  0
   46.3356   36.8019   76.8428 O   0  0  0  0  0  0  0  0  0  0  0  0
   41.3401   35.8775   84.0660 C   0  0  0  0  0  0  0  0  0  0  0  0
   44.7734   37.3348   79.2233 C   0  0  0  0  0  0  0  0  0  0  0  0
   44.9352   35.7641   85.1189 C   0  0  0  0  0  0  0  0  0  0  0  0
   47.1520   36.4013   84.8700 O   0  0  0  0  0  0  0  0  0  0  0  0
  1  9  1  0
  1 16  2  0
  2 18  1  0
  2 20  2  0
  2 21  1  0
  3  9  1  0
  3 11  1  0
  4  6  2  0
  4 18  1  0
  5 11  1  0
  5 19  1  0
  6 10  1  0
  7 10  2  0
  7 23  1  0
  8 17  2  0
  8 22  1  0
  9 10  1  0
  9 17  1  0
 11 14  1  0
 12 14  1  0
 12 15  1  0
 12 24  1  0
 12 25  1  0
 13 14  1  0
 16 22  1  0
 17 24  1  0
 18 23  2  0
M  END
>  <ID>  (1) 
conformer_0

$$$$
