
     RDKit          3D

 33 35  0  0  0  0  0  0  0  0999 V2000
   45.3384   35.5363   83.1221 C   0  0  0  0  0  0  0  0  0  0  0  0
   43.8914   39.2032   85.5458 C   0  0  0  0  0  0  0  0  0  0  0  0
   43.9631   38.5063   81.1419 C   0  0  0  0  0  0  0  0  0  0  0  0
   43.6803   35.0307   89.2007 C   0  0  0  0  0  0  0  0  0  0  0  0
   44.3428   36.8446   86.4155 C   0  0  0  0  0  0  0  0  0  0  0  0
   44.9346   36.2234   81.8975 C   0  0  0  0  0  0  0  0  0  0  0  0
   45.8059   36.1455   80.7274 C   0  0  0  0  0  0  0  0  0  0  0  0
   44.6987   35.6321   87.0613 C   0  0  0  0  0  0  0  0  0  0  0  0
   39.7461   38.9604   85.6414 C   0  0  0  0  0  0  0  0  0  0  0  0
   41.0867   37.2468   83.9883 C   0  0  0  0  0  0  0  0  0  0  0  0
   44.1651   37.4358   82.1446 C   0  0  0  0  0  0  0  0  0  0  0  0
   43.6579   39.9904   86.3546 O   0  0  0  0  0  0  0  0  0  0  0  0
   43.3508   38.1174   84.6701 C   0  0  0  0  0  0  0  0  0  0  0  0
   41.8473   38.1221   84.7464 C   0  0  0  0  0  0  0  0  0  0  0  0
   39.0479   38.0074   84.9439 C   0  0  0  0  0  0  0  0  0  0  0  0
   46.5267   35.3474   83.3297 O   0  0  0  0  0  0  0  0  0  0  0  0
   44.2657   36.9484   84.8915 C   0  0  0  0  0  0  0  0  0  0  0  0
   44.3896   35.5649   84.2831 C   0  0  0  0  0  0  0  0  0  0  0  0
   47.2243   35.8541   78.6274 O   0  0  0  0  0  0  0  0  0  0  0  0
   39.7213   37.1538   84.1058 C   0  0  0  0  0  0  0  0  0  0  0  0
   45.2360   36.6389   79.4077 C   0  0  0  0  0  0  0  0  0  0  0  0
   46.0751   36.0756   78.3039 C   0  0  0  0  0  0  0  0  0  0  0  0
   45.6526   34.8576   86.5744 O   0  0  0  0  0  0  0  0  0  0  0  0
   44.7612   35.7447   88.5752 C   0  0  0  0  0  0  0  0  0  0  0  0
   45.8985   36.3077   89.0019 O   0  0  0  0  0  0  0  0  0  0  0  0
   45.6282   35.9976   76.9682 C   0  0  0  0  0  0  0  0  0  0  0  0
   43.8612   39.8212   81.9294 C   0  0  0  0  0  0  0  0  0  0  0  0
   41.1092   38.9951   85.5170 C   0  0  0  0  0  0  0  0  0  0  0  0
   44.2469   38.0024   83.5292 C   0  0  0  0  0  0  0  0  0  0  0  0
   44.5268   39.5214   83.2100 C   0  0  0  0  0  0  0  0  0  0  0  0
   44.4146   41.3522   80.1503 C   0  0  0  0  0  0  0  0  0  0  0  0
   43.6864   41.2246   81.4856 C   0  0  0  0  0  0  0  0  0  0  0  0
   41.6622   36.3356   82.9454 C   0  0  0  0  0  0  0  0  0  0  0  0
  1  6  1  0
  1 16  2  0
  1 18  1  0
  2 12  2  0
  2 13  1  0
  3 11  1  0
  3 27  1  0
  4 24  1  0
  5  8  1  0
  5 17  1  0
  6  7  1  0
  6 11  1  0
  7 21  1  0
  8 23  1  0
  8 24  1  0
  9 15  2  0
  9 28  1  0
 10 14  1  0
 10 20  2  0
 10 33  1  0
 11 29  1  0
 13 14  1  0
 13 17  1  0
 13 29  1  0
 14 28  2  0
 15 20  1  0
 17 18  1  0
 19 22  2  0
 21 22  1  0
 22 26  1  0
 24 25  1  0
 27 30  1  0
 27 32  1  0
 29 30  1  0
 31 32  1  0
M  END
>  <ID>  (1) 
conformer_0

$$$$
