
     RDKit          3D

 16 16  0  0  0  0  0  0  0  0999 V2000
   46.1676   36.3226   85.0129 C   0  0  0  0  0  0  0  0  0  0  0  0
   44.9480   36.3366   84.1343 C   0  0  0  0  0  0  0  0  0  0  0  0
   47.2884   36.5354   84.5101 O   0  0  0  0  0  0  0  0  0  0  0  0
   46.0564   36.0655   86.2601 O   0  0  0  0  0  0  0  0  0  0  0  0
   45.5685   37.3586   81.6934 C   0  0  0  0  0  0  0  0  0  0  0  0
   43.1010   37.7446   83.6007 C   0  0  0  0  0  0  0  0  0  0  0  0
   44.6891   37.4300   82.9950 C   0  0  0  0  0  0  0  0  0  0  0  0
   45.3955   36.4169   76.7210 C   0  0  0  0  0  0  0  0  0  0  0  0
   42.5392   35.7267   85.1677 C   0  0  0  0  0  0  0  0  0  0  0  0
   46.8155   35.5953   78.4425 O   0  0  0  0  0  0  0  0  0  0  0  0
   46.4978   36.4684   75.8708 O   0  0  0  0  0  0  0  0  0  0  0  0
   44.9726   34.8375   83.2593 Cl  0  0  0  0  0  0  0  0  0  0  0  0
   43.6423   36.8561   84.9986 C   0  0  0  0  0  0  0  0  0  0  0  0
   45.4102   36.3989   80.5465 C   0  0  0  0  0  0  0  0  0  0  0  0
   45.1279   37.0491   79.2091 C   0  0  0  0  0  0  0  0  0  0  0  0
   45.7781   36.2335   78.1591 C   0  0  0  0  0  0  0  0  0  0  0  0
  1  2  1  0
  1  3  2  0
  1  4  1  0
  2  7  1  0
  2 12  1  0
  2 13  1  0
  5  7  1  0
  5 14  1  0
  6  7  1  0
  6 13  1  0
  8 11  1  0
  8 16  1  0
  9 13  1  0
 10 16  2  0
 14 15  1  0
 15 16  1  0
M  END
>  <ID>  (1) 
conformer_0

$$$$
