
     RDKit          3D

 30 30  0  0  0  0  0  0  0  0999 V2000
   42.7494   38.2594   83.6742 C   0  0  0  0  0  0  0  0  0  0  0  0
   45.2056   36.3580   75.9397 C   0  0  0  0  0  0  0  0  0  0  0  0
   44.8967   40.0920   86.7790 C   0  0  0  0  0  0  0  0  0  0  0  0
   43.2488   41.7759   85.9139 C   0  0  0  0  0  0  0  0  0  0  0  0
   46.6402   34.9408   77.3157 O   0  0  0  0  0  0  0  0  0  0  0  0
   42.5569   36.5499   85.4261 O   0  0  0  0  0  0  0  0  0  0  0  0
   45.4828   36.6540   78.4160 C   0  0  0  0  0  0  0  0  0  0  0  0
   43.2878   37.6104   84.9228 C   0  0  0  0  0  0  0  0  0  0  0  0
   45.7533   35.7253   82.1400 C   0  0  0  0  0  0  0  0  0  0  0  0
   45.7245   36.4655   80.8914 C   0  0  0  0  0  0  0  0  0  0  0  0
   42.4825   40.9813   82.9058 C   0  0  0  0  0  0  0  0  0  0  0  0
   44.6646   35.3517   85.7980 C   0  0  0  0  0  0  0  0  0  0  0  0
   45.7292   37.7756   75.7679 C   0  0  0  0  0  0  0  0  0  0  0  0
   45.2884   37.6179   83.7899 C   0  0  0  0  0  0  0  0  0  0  0  0
   46.0843   35.9588   79.6093 C   0  0  0  0  0  0  0  0  0  0  0  0
   46.9118   38.1515   85.8181 O   0  0  0  0  0  0  0  0  0  0  0  0
   44.6920   37.7269   85.1383 O   0  0  0  0  0  0  0  0  0  0  0  0
   44.5826   37.4808   80.8027 C   0  0  0  0  0  0  0  0  0  0  0  0
   44.8585   36.2469   83.2284 C   0  0  0  0  0  0  0  0  0  0  0  0
   42.7048   39.7507   83.7854 C   0  0  0  0  0  0  0  0  0  0  0  0
   45.4583   35.6696   87.0466 C   0  0  0  0  0  0  0  0  0  0  0  0
   44.0116   40.0316   84.3888 O   0  0  0  0  0  0  0  0  0  0  0  0
   45.6989   35.8358   77.2560 C   0  0  0  0  0  0  0  0  0  0  0  0
   43.2288   35.5501   86.1940 C   0  0  0  0  0  0  0  0  0  0  0  0
   44.5749   35.3657   84.3187 O   0  0  0  0  0  0  0  0  0  0  0  0
   42.9305   35.1382   87.3426 O   0  0  0  0  0  0  0  0  0  0  0  0
   46.1748   37.3083   84.9794 C   0  0  0  0  0  0  0  0  0  0  0  0
   44.1468   40.6312   85.6344 C   0  0  0  0  0  0  0  0  0  0  0  0
   47.1169   36.3240   84.6416 O   0  0  0  0  0  0  0  0  0  0  0  0
   41.9158   37.4785   82.9647 O   0  0  0  0  0  0  0  0  0  0  0  0
  1  8  1  0
  1 20  1  0
  1 30  1  0
  2 13  1  0
  2 23  1  0
  3 28  1  0
  4 28  1  0
  5 23  1  0
  6  8  1  0
  6 24  1  0
  7 15  1  0
  7 23  1  0
  8 17  1  0
  9 10  1  0
  9 19  1  0
 10 15  1  0
 10 18  1  0
 11 20  1  0
 12 21  1  0
 12 24  1  0
 12 25  1  0
 14 17  1  0
 14 19  1  0
 14 27  1  0
 16 27  1  0
 19 25  1  0
 20 22  1  0
 22 28  1  0
 24 26  2  0
 27 29  1  0
M  END
>  <ID>  (1) 
conformer_0

$$$$
