
     RDKit          3D

 22 22  0  0  0  0  0  0  0  0999 V2000
   43.3246   38.4890   84.2524 O   0  0  0  0  0  0  0  0  0  0  0  0
   45.9114   36.5330   84.8108 C   0  0  0  0  0  0  0  0  0  0  0  0
   44.9591   37.2381   78.6354 N   0  0  0  0  0  0  0  0  0  0  0  0
   46.4063   35.8805   80.0533 N   0  0  0  0  0  0  0  0  0  0  0  0
   46.2751   35.4293   77.6347 C   0  0  0  0  0  0  0  0  0  0  0  0
   43.7441   34.7635   87.6845 O   0  0  0  0  0  0  0  0  0  0  0  0
   44.5493   37.8732   79.7104 C   0  0  0  0  0  0  0  0  0  0  0  0
   44.9665   37.5767   80.9779 C   0  0  0  0  0  0  0  0  0  0  0  0
   43.5796   35.5685   84.5676 O   0  0  0  0  0  0  0  0  0  0  0  0
   42.5460   36.4025   84.8424 C   0  0  0  0  0  0  0  0  0  0  0  0
   45.1906   36.3779   86.0751 C   0  0  0  0  0  0  0  0  0  0  0  0
   43.9661   39.5657   81.8413 O   0  0  0  0  0  0  0  0  0  0  0  0
   44.3663   38.3488   82.1054 C   0  0  0  0  0  0  0  0  0  0  0  0
   45.8848   36.5715   81.1027 C   0  0  0  0  0  0  0  0  0  0  0  0
   45.8838   36.1906   78.8036 C   0  0  0  0  0  0  0  0  0  0  0  0
   46.9085   35.8244   84.5161 O   0  0  0  0  0  0  0  0  0  0  0  0
   44.0574   37.7302   83.3749 C   0  0  0  0  0  0  0  0  0  0  0  0
   42.9799   35.6368   86.9447 C   0  0  0  0  0  0  0  0  0  0  0  0
   43.7197   36.2592   85.7219 C   0  0  0  0  0  0  0  0  0  0  0  0
   46.0590   36.1585   87.0878 O   0  0  0  0  0  0  0  0  0  0  0  0
   46.2010   36.2944   76.4492 C   0  0  0  0  0  0  0  0  0  0  0  0
   45.3755   37.3586   83.8045 C   0  0  0  0  0  0  0  0  0  0  0  0
  1 17  1  0
  2 11  1  0
  2 16  2  0
  2 22  1  0
  3  7  2  0
  3 15  1  0
  4 14  2  0
  4 15  1  0
  5 15  1  0
  5 21  1  0
  6 18  1  0
  7  8  1  0
  8 13  1  0
  8 14  1  0
  9 10  1  0
  9 19  1  0
 11 19  1  0
 11 20  1  0
 12 13  1  0
 13 17  1  0
 17 22  1  0
 18 19  1  0
M  END
>  <ID>  (1) 
conformer_0

$$$$
