
     RDKit          3D

 32 35  0  0  0  0  0  0  0  0999 V2000
   45.1573   35.6149   76.5067 C   0  0  0  0  0  0  0  0  0  0  0  0
   41.1320   36.3020   83.1088 C   0  0  0  0  0  0  0  0  0  0  0  0
   45.4759   36.9637   78.4329 C   0  0  0  0  0  0  0  0  0  0  0  0
   44.2286   35.2433   85.9965 C   0  0  0  0  0  0  0  0  0  0  0  0
   46.1171   36.6958   86.4657 C   0  0  0  0  0  0  0  0  0  0  0  0
   40.2458   36.7842   84.0617 C   0  0  0  0  0  0  0  0  0  0  0  0
   46.5850   35.5544   79.9962 N   0  0  0  0  0  0  0  0  0  0  0  0
   46.2397   35.8835   81.2301 C   0  0  0  0  0  0  0  0  0  0  0  0
   41.5645   38.7427   84.2760 C   0  0  0  0  0  0  0  0  0  0  0  0
   45.3941   35.8936   85.4800 C   0  0  0  0  0  0  0  0  0  0  0  0
   43.4680   39.1919   82.6833 C   0  0  0  0  0  0  0  0  0  0  0  0
   43.8839   41.3708   81.9665 C   0  0  0  0  0  0  0  0  0  0  0  0
   46.5338   34.9660   82.2570 O   0  0  0  0  0  0  0  0  0  0  0  0
   45.6359   37.0146   81.7481 C   0  0  0  0  0  0  0  0  0  0  0  0
   46.2732   35.8814   78.7872 C   0  0  0  0  0  0  0  0  0  0  0  0
   45.1107   38.0058   80.7798 C   0  0  0  0  0  0  0  0  0  0  0  0
   44.6088   40.4433   81.0867 C   0  0  0  0  0  0  0  0  0  0  0  0
   40.4728   38.0234   84.6493 C   0  0  0  0  0  0  0  0  0  0  0  0
   44.8398   37.0006   77.0964 C   0  0  0  0  0  0  0  0  0  0  0  0
   45.1414   37.8686   79.4003 C   0  0  0  0  0  0  0  0  0  0  0  0
   44.9970   33.9949   83.5735 O   0  0  0  0  0  0  0  0  0  0  0  0
   43.2936   40.5939   82.9895 C   0  0  0  0  0  0  0  0  0  0  0  0
   45.8028   36.5575   76.1356 N   0  0  0  0  0  0  0  0  0  0  0  0
   46.0809   37.9485   86.3767 O   0  0  0  0  0  0  0  0  0  0  0  0
   42.2093   37.0124   82.7311 C   0  0  0  0  0  0  0  0  0  0  0  0
   45.5908   36.1053   84.0569 N   0  0  0  0  0  0  0  0  0  0  0  0
   44.4310   39.1087   81.5063 C   0  0  0  0  0  0  0  0  0  0  0  0
   45.6736   34.9390   83.2900 C   0  0  0  0  0  0  0  0  0  0  0  0
   45.5986   37.2879   83.2087 C   0  0  0  0  0  0  0  0  0  0  0  0
   46.5918   36.0003   87.4053 O   0  0  0  0  0  0  0  0  0  0  0  0
   42.4329   38.2996   83.2703 C   0  0  0  0  0  0  0  0  0  0  0  0
   45.1591   34.4188   76.7975 O   0  0  0  0  0  0  0  0  0  0  0  0
  1 23  1  0
  1 32  2  0
  2  6  1  0
  2 25  2  0
  3 15  1  0
  3 19  1  0
  3 20  1  0
  4 10  1  0
  5 10  1  0
  5 24  2  0
  5 30  1  0
  6 18  1  0
  7  8  1  0
  7 15  2  0
  8 13  1  0
  8 14  2  0
  9 18  2  0
  9 31  1  0
 10 26  1  0
 11 22  1  0
 11 27  1  0
 11 31  1  0
 12 17  1  0
 12 22  1  0
 13 28  1  0
 14 16  1  0
 14 29  1  0
 16 20  2  0
 16 27  1  0
 17 27  1  0
 19 23  1  0
 21 28  2  0
 25 31  1  0
 26 28  1  0
 26 29  1  0
M  END
>  <ID>  (1) 
conformer_0

$$$$
