
     RDKit          3D

 21 23  0  0  0  0  0  0  0  0999 V2000
   45.0567   38.1595   79.6058 C   0  0  0  0  0  0  0  0  0  0  0  0
   45.2299   36.4679   81.7845 C   0  0  0  0  0  0  0  0  0  0  0  0
   43.0334   36.1942   83.5270 C   0  0  0  0  0  0  0  0  0  0  0  0
   43.3604   37.6796   82.9715 C   0  0  0  0  0  0  0  0  0  0  0  0
   45.6224   36.8629   79.4893 C   0  0  0  0  0  0  0  0  0  0  0  0
   46.0662   38.1092   76.6425 O   0  0  0  0  0  0  0  0  0  0  0  0
   45.8190   36.2929   78.2136 C   0  0  0  0  0  0  0  0  0  0  0  0
   46.2854   35.8776   87.1339 O   0  0  0  0  0  0  0  0  0  0  0  0
   45.8146   36.0943   80.6209 C   0  0  0  0  0  0  0  0  0  0  0  0
   44.7040   35.5046   85.3613 C   0  0  0  0  0  0  0  0  0  0  0  0
   45.8281   34.9085   78.0280 N   0  0  0  0  0  0  0  0  0  0  0  0
   44.3833   38.4991   80.7568 C   0  0  0  0  0  0  0  0  0  0  0  0
   44.4042   35.5033   83.8784 C   0  0  0  0  0  0  0  0  0  0  0  0
   45.4387   35.8467   76.0061 C   0  0  0  0  0  0  0  0  0  0  0  0
   44.8570   36.0568   74.8634 O   0  0  0  0  0  0  0  0  0  0  0  0
   47.0269   36.2619   85.0687 O   0  0  0  0  0  0  0  0  0  0  0  0
   45.6330   34.6297   76.6681 C   0  0  0  0  0  0  0  0  0  0  0  0
   45.4468   35.7830   83.0031 O   0  0  0  0  0  0  0  0  0  0  0  0
   44.3792   37.5676   81.8193 C   0  0  0  0  0  0  0  0  0  0  0  0
   46.0978   35.8865   85.8719 C   0  0  0  0  0  0  0  0  0  0  0  0
   45.7392   36.8790   76.9670 C   0  0  0  0  0  0  0  0  0  0  0  0
  1  5  1  0
  1 12  2  0
  2  9  2  0
  2 18  1  0
  2 19  1  0
  3  4  1  0
  3 13  1  0
  4 19  1  0
  5  7  1  0
  5  9  1  0
  6 21  1  0
  7 11  1  0
  7 21  1  0
  8 20  2  0
 10 13  1  0
 10 20  1  0
 11 17  1  0
 12 19  1  0
 13 18  1  0
 14 15  1  0
 14 17  1  0
 14 21  1  0
 16 20  1  0
M  END
>  <ID>  (1) 
conformer_0

$$$$
