
     RDKit          3D

 25 26  0  0  0  0  0  0  0  0999 V2000
   42.8853   35.3088   86.6403 C   0  0  0  0  0  0  0  0  0  0  0  0
   47.9911   36.7017   84.5684 O   0  0  0  0  0  0  0  0  0  0  0  0
   41.8805   35.6886   84.4989 C   0  0  0  0  0  0  0  0  0  0  0  0
   44.1762   40.2044   81.0500 C   0  0  0  0  0  0  0  0  0  0  0  0
   46.4614   34.8281   77.7580 O   0  0  0  0  0  0  0  0  0  0  0  0
   46.2819   34.8749   82.2026 O   0  0  0  0  0  0  0  0  0  0  0  0
   43.3985   40.7945   82.0493 N   0  0  0  0  0  0  0  0  0  0  0  0
   45.8844   36.0285   81.7228 C   0  0  0  0  0  0  0  0  0  0  0  0
   46.7654   35.8704   86.5666 O   0  0  0  0  0  0  0  0  0  0  0  0
   46.8028   36.8843   85.4194 S   0  0  0  0  0  4  0  0  0  0  0  0
   43.2939   40.1132   83.2683 C   0  0  0  0  0  0  0  0  0  0  0  0
   46.2018   36.1118   80.2353 C   0  0  0  0  0  0  0  0  0  0  0  0
   44.0925   35.7508   86.1322 C   0  0  0  0  0  0  0  0  0  0  0  0
   46.5480   38.3130   85.9503 O   0  0  0  0  0  0  0  0  0  0  0  0
   45.3422   36.9657   82.6835 N   0  0  0  0  0  0  0  0  0  0  0  0
   44.6978   38.2914   82.5007 C   0  0  0  0  0  0  0  0  0  0  0  0
   43.9569   38.9550   83.4926 C   0  0  0  0  0  0  0  0  0  0  0  0
   46.0169   36.0173   77.7594 C   0  0  0  0  0  0  0  0  0  0  0  0
   44.2206   36.1581   84.7836 C   0  0  0  0  0  0  0  0  0  0  0  0
   45.4840   36.6450   84.1343 C   0  0  0  0  0  0  0  0  0  0  0  0
   43.0931   36.0677   84.0073 C   0  0  0  0  0  0  0  0  0  0  0  0
   46.1577   36.8485   76.7863 O   0  0  0  0  0  0  0  0  0  0  0  0
   41.7839   35.2750   85.8310 C   0  0  0  0  0  0  0  0  0  0  0  0
   45.4474   36.5901   79.0507 C   0  0  0  0  0  0  0  0  0  0  0  0
   44.8323   38.9937   81.2737 C   0  0  0  0  0  0  0  0  0  0  0  0
  1 13  2  0
  1 23  1  0
  2 10  1  0
  3 21  1  0
  3 23  2  0
  4  7  1  0
  4 25  2  0
  5 18  2  0
  6  8  2  0
  7 11  1  0
  8 12  1  0
  8 15  1  0
  9 10  1  0
 10 14  1  0
 10 20  1  0
 11 17  2  0
 12 24  1  0
 13 19  1  0
 15 16  1  0
 15 20  1  0
 16 17  1  0
 16 25  1  0
 18 22  1  0
 18 24  1  0
 19 20  1  0
 19 21  2  0
M  END
>  <ID>  (1) 
conformer_0

$$$$
