
     RDKit          3D

 31 34  0  0  0  0  0  0  0  0999 V2000
   45.3421   36.1046   84.3010 C   0  0  0  0  0  0  0  0  0  0  0  0
   44.6599   39.5111   81.8180 C   0  0  0  0  0  0  0  0  0  0  0  0
   41.7720   36.3175   84.9760 C   0  0  0  0  0  0  0  0  0  0  0  0
   45.0293   37.2335   81.0801 C   0  0  0  0  0  0  0  0  0  0  0  0
   46.1195   34.0897   77.8632 O   0  0  0  0  0  0  0  0  0  0  0  0
   46.2958   36.0993   78.8215 N   0  0  0  0  0  0  0  0  0  0  0  0
   44.5027   35.2906   75.7301 C   0  0  0  0  0  0  0  0  0  0  0  0
   45.7675   37.5906   74.8511 C   0  0  0  0  0  0  0  0  0  0  0  0
   42.2603   37.6321   83.0642 C   0  0  0  0  0  0  0  0  0  0  0  0
   44.4727   35.5939   74.3527 O   0  0  0  0  0  0  0  0  0  0  0  0
   43.1775   36.2252   85.1861 C   0  0  0  0  0  0  0  0  0  0  0  0
   44.0320   36.8008   84.2409 N   0  0  0  0  0  0  0  0  0  0  0  0
   45.5643   35.9356   76.5196 C   0  0  0  0  0  0  0  0  0  0  0  0
   44.1522   40.2557   82.9358 C   0  0  0  0  0  0  0  0  0  0  0  0
   46.4122   35.5397   80.1017 C   0  0  0  0  0  0  0  0  0  0  0  0
   45.8848   35.2630   83.4825 O   0  0  0  0  0  0  0  0  0  0  0  0
   47.0786   36.7423   85.7082 O   0  0  0  0  0  0  0  0  0  0  0  0
   46.0168   35.2851   77.7823 C   0  0  0  0  0  0  0  0  0  0  0  0
   43.6922   39.3671   83.8874 C   0  0  0  0  0  0  0  0  0  0  0  0
   41.3429   36.9341   83.7812 C   0  0  0  0  0  0  0  0  0  0  0  0
   45.1686   36.7291   73.8541 C   0  0  0  0  0  0  0  0  0  0  0  0
   46.3548   36.6454   81.0944 C   0  0  0  0  0  0  0  0  0  0  0  0
   45.6437   38.8721   74.9166 O   0  0  0  0  0  0  0  0  0  0  0  0
   43.6143   37.9119   83.3482 C   0  0  0  0  0  0  0  0  0  0  0  0
   44.4663   38.1270   82.0782 C   0  0  0  0  0  0  0  0  0  0  0  0
   43.0091   34.8534   87.4907 C   0  0  0  0  0  0  0  0  0  0  0  0
   45.1075   35.6196   86.7117 C   0  0  0  0  0  0  0  0  0  0  0  0
   40.9307   35.8984   85.8358 O   0  0  0  0  0  0  0  0  0  0  0  0
   43.6597   35.5895   86.4012 N   0  0  0  0  0  0  0  0  0  0  0  0
   46.3149   36.9147   75.9357 O   0  0  0  0  0  0  0  0  0  0  0  0
   45.9545   36.1264   85.6721 C   0  0  0  0  0  0  0  0  0  0  0  0
  1 12  1  0
  1 16  2  0
  1 31  1  0
  2 14  1  0
  2 25  1  0
  3 11  1  0
  3 20  1  0
  3 28  2  0
  4 22  1  0
  4 25  1  0
  5 18  2  0
  6 15  1  0
  6 18  1  0
  7 10  1  0
  7 13  1  0
  8 21  1  0
  8 23  2  0
  8 30  1  0
  9 20  2  0
  9 24  1  0
 10 21  1  0
 11 12  1  0
 11 29  1  0
 12 24  1  0
 13 18  1  0
 13 30  1  0
 14 19  1  0
 15 22  1  0
 17 31  2  0
 19 24  1  0
 24 25  1  0
 26 29  1  0
 27 29  1  0
 27 31  1  0
M  END
>  <ID>  (1) 
conformer_0

$$$$
