
     RDKit          3D

 30 32  0  0  0  0  0  0  0  0999 V2000
   44.6997   37.7669   82.6750 C   0  0  0  0  0  0  0  0  0  0  0  0
   44.5822   37.9366   85.4929 C   0  0  0  0  0  0  0  0  0  0  0  0
   45.4644   36.6617   82.1198 C   0  0  0  0  0  0  0  0  0  0  0  0
   42.3307   37.6637   86.6416 C   0  0  0  0  0  0  0  0  0  0  0  0
   44.5166   36.8122   87.5651 C   0  0  0  0  0  0  0  0  0  0  0  0
   43.4561   35.7598   85.5263 C   0  0  0  0  0  0  0  0  0  0  0  0
   45.8381   36.9516   87.5912 O   0  0  0  0  0  0  0  0  0  0  0  0
   44.5585   38.6654   81.5504 C   0  0  0  0  0  0  0  0  0  0  0  0
   45.6420   36.0110   84.4539 C   0  0  0  0  0  0  0  0  0  0  0  0
   46.5800   34.9790   77.7595 O   0  0  0  0  0  0  0  0  0  0  0  0
   43.8151   37.9350   86.8523 C   0  0  0  0  0  0  0  0  0  0  0  0
   45.5647   35.5501   83.0208 C   0  0  0  0  0  0  0  0  0  0  0  0
   45.6188   36.8014   80.6908 C   0  0  0  0  0  0  0  0  0  0  0  0
   45.7092   37.1204   76.2486 C   0  0  0  0  0  0  0  0  0  0  0  0
   43.0884   38.7871   83.9751 O   0  0  0  0  0  0  0  0  0  0  0  0
   45.1935   38.0906   80.3488 O   0  0  0  0  0  0  0  0  0  0  0  0
   45.9501   34.3549   82.7077 O   0  0  0  0  0  0  0  0  0  0  0  0
   45.5776   37.1222   77.7787 C   0  0  0  0  0  0  0  0  0  0  0  0
   46.8704   36.0148   84.9108 O   0  0  0  0  0  0  0  0  0  0  0  0
   46.0905   35.9214   78.4359 C   0  0  0  0  0  0  0  0  0  0  0  0
   41.4292   36.4916   84.3482 C   0  0  0  0  0  0  0  0  0  0  0  0
   43.8644   35.9526   88.4383 C   0  0  0  0  0  0  0  0  0  0  0  0
   45.5391   38.3237   75.7552 O   0  0  0  0  0  0  0  0  0  0  0  0
   44.4850   36.6728   84.9349 C   0  0  0  0  0  0  0  0  0  0  0  0
   43.8431   39.9026   81.3278 C   0  0  0  0  0  0  0  0  0  0  0  0
   42.1449   36.5290   85.6672 C   0  0  0  0  0  0  0  0  0  0  0  0
   46.1368   35.7695   79.8615 C   0  0  0  0  0  0  0  0  0  0  0  0
   44.0415   37.7244   84.0415 C   0  0  0  0  0  0  0  0  0  0  0  0
   44.1746   40.9989   80.4154 C   0  0  0  0  0  0  0  0  0  0  0  0
   45.8597   36.1671   75.4787 O   0  0  0  0  0  0  0  0  0  0  0  0
  1  3  2  0
  1  8  1  0
  1 28  1  0
  2 11  1  0
  2 24  1  0
  3 12  1  0
  3 13  1  0
  4 11  1  0
  4 26  1  0
  5  7  1  0
  5 11  1  0
  5 22  1  0
  6 24  1  0
  6 26  1  0
  8 16  1  0
  8 25  1  0
  9 12  1  0
  9 19  1  0
  9 24  1  0
 10 20  2  0
 12 17  1  0
 13 16  1  0
 13 27  2  3
 14 18  1  0
 14 23  2  0
 14 30  1  0
 15 28  1  0
 18 20  1  0
 20 27  1  0
 21 26  1  0
 24 28  1  0
 25 29  1  0
M  END
>  <ID>  (1) 
conformer_0

$$$$
