
     RDKit          3D

 29 28  0  0  0  0  0  0  0  0999 V2000
   45.8210   36.3798   78.6172 C   0  0  0  0  0  0  0  0  0  0  0  0
   45.3361   34.5033   86.7658 O   0  0  0  0  0  0  0  0  0  0  0  0
   45.3414   35.7952   87.2962 P   0  0  0  0  0  0  0  0  0  0  0  0
   42.4525   39.2274   83.5526 F   0  0  0  0  0  0  0  0  0  0  0  0
   46.0695   36.0720   88.5631 O   0  0  0  0  0  0  0  0  0  0  0  0
   45.9306   38.4826   82.2413 C   0  0  0  0  0  0  0  0  0  0  0  0
   46.2437   35.7346   79.8064 O   0  0  0  0  0  0  0  0  0  0  0  0
   44.3002   37.7347   86.5673 C   0  0  0  0  0  0  0  0  0  0  0  0
   41.6298   38.2339   84.0609 C   0  0  0  0  0  0  0  0  0  0  0  0
   46.0025   36.5183   84.9601 C   0  0  0  0  0  0  0  0  0  0  0  0
   43.5690   37.7662   85.3245 O   0  0  0  0  0  0  0  0  0  0  0  0
   47.3034   36.4113   84.5783 O   0  0  0  0  0  0  0  0  0  0  0  0
   45.1583   36.2608   76.3125 C   0  0  0  0  0  0  0  0  0  0  0  0
   45.9909   36.9314   81.8129 C   0  0  0  0  0  0  0  0  0  0  0  0
   45.0498   35.9911   84.0193 C   0  0  0  0  0  0  0  0  0  0  0  0
   46.6876   36.6542   80.6042 N   0  0  0  0  0  0  0  0  0  0  0  0
   45.7573   37.0957   86.2605 C   0  0  0  0  0  0  0  0  0  0  0  0
   41.3551   37.5383   86.2871 O   0  0  0  0  0  0  0  0  0  0  0  0
   45.3642   38.4577   75.4449 O   0  0  0  0  0  0  0  0  0  0  0  0
   45.9910   34.5793   82.3010 O   0  0  0  0  0  0  0  0  0  0  0  0
   45.9104   37.3187   75.5764 C   0  0  0  0  0  0  0  0  0  0  0  0
   45.8830   35.5050   77.4150 C   0  0  0  0  0  0  0  0  0  0  0  0
   42.1613   37.8081   85.3500 C   0  0  0  0  0  0  0  0  0  0  0  0
   43.6997   36.4433   87.3243 C   0  0  0  0  0  0  0  0  0  0  0  0
   41.5110   37.1295   83.2489 F   0  0  0  0  0  0  0  0  0  0  0  0
   45.6341   35.7723   82.6264 C   0  0  0  0  0  0  0  0  0  0  0  0
   43.1836   36.7020   88.4870 O   0  0  0  0  0  0  0  0  0  0  0  0
   47.0204   37.0246   75.0687 O   0  0  0  0  0  0  0  0  0  0  0  0
   44.2251   35.3652   75.6137 C   0  0  0  0  0  0  0  0  0  0  0  0
  1  7  1  0
  1 22  1  0
  2  3  1  0
  3  5  1  0
  3 17  1  0
  4  9  1  0
  6 14  1  0
  7 16  1  0
  8 11  1  0
  8 17  1  0
  8 24  1  0
  9 23  1  0
  9 25  1  0
 10 12  1  0
 10 15  1  0
 10 17  1  0
 11 23  1  0
 13 21  1  0
 13 22  1  0
 13 29  1  0
 14 16  1  0
 14 26  2  3
 15 26  1  0
 18 23  2  0
 19 21  2  0
 20 26  1  0
 21 28  1  0
 24 27  1  0
M  END
>  <ID>  (1) 
conformer_0

$$$$
