
     RDKit          3D

 32 34  0  0  0  0  0  0  0  0999 V2000
   45.0281   34.3664   86.7527 O   0  0  0  0  0  0  0  0  0  0  0  0
   46.1711   35.1049   77.5885 O   0  0  0  0  0  0  0  0  0  0  0  0
   43.5997   35.5455   84.0868 C   0  0  0  0  0  0  0  0  0  0  0  0
   46.5960   35.5144   80.1334 N   0  0  0  0  0  0  0  0  0  0  0  0
   40.1738   36.8628   83.2964 C   0  0  0  0  0  0  0  0  0  0  0  0
   45.8943   36.2967   77.9961 C   0  0  0  0  0  0  0  0  0  0  0  0
   45.0774   37.1380   80.2772 C   0  0  0  0  0  0  0  0  0  0  0  0
   45.2769   35.7350   86.7747 C   0  0  0  0  0  0  0  0  0  0  0  0
   41.3472   36.1365   83.2369 C   0  0  0  0  0  0  0  0  0  0  0  0
   45.2509   36.6245   85.6020 C   0  0  0  0  0  0  0  0  0  0  0  0
   45.0792   36.0773   84.1857 C   0  0  0  0  0  0  0  0  0  0  0  0
   45.7779   37.4284   75.5543 P   0  0  0  0  0  4  0  0  0  0  0  0
   43.5821   36.8616   88.0652 O   0  0  0  0  0  0  0  0  0  0  0  0
   45.3081   37.1571   83.1148 C   0  0  0  0  0  0  0  0  0  0  0  0
   45.5453   36.7510   81.6751 C   0  0  0  0  0  0  0  0  0  0  0  0
   46.1872   37.3042   77.1593 O   0  0  0  0  0  0  0  0  0  0  0  0
   45.9160   34.9763   84.0370 O   0  0  0  0  0  0  0  0  0  0  0  0
   45.1395   39.0371   84.8432 C   0  0  0  0  0  0  0  0  0  0  0  0
   45.8419   37.9877   85.7156 C   0  0  0  0  0  0  0  0  0  0  0  0
   42.3405   36.3329   84.2325 C   0  0  0  0  0  0  0  0  0  0  0  0
   40.8740   37.9885   85.2887 C   0  0  0  0  0  0  0  0  0  0  0  0
   39.9267   37.7870   84.3015 C   0  0  0  0  0  0  0  0  0  0  0  0
   44.3689   39.3304   82.5415 O   0  0  0  0  0  0  0  0  0  0  0  0
   44.5076   36.5842   75.4099 O   0  0  0  0  0  1  0  0  0  0  0  0
   45.8149   36.4172   79.4144 C   0  0  0  0  0  0  0  0  0  0  0  0
   46.8749   36.8697   74.6576 O   0  0  0  0  0  0  0  0  0  0  0  0
   45.5498   38.8857   75.3231 O   0  0  0  0  0  0  0  0  0  0  0  0
   42.0340   37.2720   85.2495 C   0  0  0  0  0  0  0  0  0  0  0  0
   44.9648   38.5296   83.4391 C   0  0  0  0  0  0  0  0  0  0  0  0
   45.4005   36.0910   89.1311 O   0  0  0  0  0  0  0  0  0  0  0  0
   46.4498   35.7727   81.3938 C   0  0  0  0  0  0  0  0  0  0  0  0
   44.7451   36.2908   88.0741 C   0  0  0  0  0  0  0  0  0  0  0  0
  1  8  1  0
  2  6  2  0
  3 11  1  0
  3 20  1  0
  4 25  1  0
  4 31  1  0
  5  9  2  0
  5 22  1  0
  6 16  1  0
  6 25  1  0
  7 15  1  0
  7 25  1  0
  8 10  1  0
  8 32  1  0
  9 20  1  0
 10 11  1  0
 10 19  1  0
 11 14  1  0
 11 17  1  0
 12 16  1  0
 12 24  2  0
 12 26  1  0
 12 27  1  0
 13 32  2  0
 14 15  1  0
 14 29  1  0
 15 31  1  0
 18 19  1  0
 18 29  1  0
 20 28  1  0
 21 22  1  0
 21 28  2  0
 23 29  1  0
 30 32  1  0
M  END
>  <ID>  (1) 
conformer_0

$$$$
