
     RDKit          3D

 28 30  0  0  0  0  0  0  0  0999 V2000
   44.5254   37.2205   80.6097 O   0  0  0  0  0  0  0  0  0  0  0  0
   44.3194   35.2253   75.9108 C   0  0  0  0  0  0  0  0  0  0  0  0
   44.0797   38.2251   81.5049 C   0  0  0  0  0  0  0  0  0  0  0  0
   44.4012   36.5070   83.3130 C   0  0  0  0  0  0  0  0  0  0  0  0
   45.6198   36.5146   81.0896 C   0  0  0  0  0  0  0  0  0  0  0  0
   42.3283   37.2406   85.5750 C   0  0  0  0  0  0  0  0  0  0  0  0
   45.4684   35.6077   86.9083 C   0  0  0  0  0  0  0  0  0  0  0  0
   43.4776   39.0743   83.6828 C   0  0  0  0  0  0  0  0  0  0  0  0
   46.4801   35.8621   80.1443 C   0  0  0  0  0  0  0  0  0  0  0  0
   45.1216   36.8406   77.6166 C   0  0  0  0  0  0  0  0  0  0  0  0
   46.7625   35.2292   78.0922 O   0  0  0  0  0  0  0  0  0  0  0  0
   43.8472   37.8575   82.8957 C   0  0  0  0  0  0  0  0  0  0  0  0
   43.7483   36.8011   85.8064 C   0  0  0  0  0  0  0  0  0  0  0  0
   45.6504   35.4213   85.3804 C   0  0  0  0  0  0  0  0  0  0  0  0
   44.0080   36.0543   87.0764 C   0  0  0  0  0  0  0  0  0  0  0  0
   44.6125   36.2565   84.7769 C   0  0  0  0  0  0  0  0  0  0  0  0
   46.3198   36.6934   87.2962 O   0  0  0  0  0  0  0  0  0  0  0  0
   43.6664   41.4869   80.4760 C   0  0  0  0  0  0  0  0  0  0  0  0
   42.8819   35.1145   87.3835 C   0  0  0  0  0  0  0  0  0  0  0  0
   43.9161   40.7151   81.7937 C   0  0  0  0  0  0  0  0  0  0  0  0
   46.7720   36.9904   83.1659 O   0  0  0  0  0  0  0  0  0  0  0  0
   44.7204   39.5650   81.2718 C   0  0  0  0  0  0  0  0  0  0  0  0
   46.4847   36.5516   75.6505 O   0  0  0  0  0  0  0  0  0  0  0  0
   43.0739   40.3047   82.9344 C   0  0  0  0  0  0  0  0  0  0  0  0
   45.7345   36.1920   82.5770 C   0  0  0  0  0  0  0  0  0  0  0  0
   45.9659   36.1680   78.7138 C   0  0  0  0  0  0  0  0  0  0  0  0
   45.4057   36.1764   76.2521 C   0  0  0  0  0  0  0  0  0  0  0  0
   46.0010   34.7996   82.6635 O   0  0  0  0  0  0  0  0  0  0  0  0
  1  3  1  0
  1  5  1  0
  2 27  1  0
  3 12  1  0
  3 22  1  0
  4 12  1  0
  4 16  1  0
  4 25  1  0
  5  9  1  0
  5 25  1  0
  6 13  1  0
  7 14  1  0
  7 15  1  0
  7 17  1  0
  8 12  1  0
  8 24  1  0
  9 26  1  0
 10 26  1  0
 10 27  1  0
 11 26  1  0
 13 15  1  0
 13 16  1  0
 14 16  1  0
 15 19  1  0
 18 20  1  0
 20 22  1  0
 20 24  1  0
 21 25  1  0
 23 27  1  0
 25 28  1  0
M  END
>  <ID>  (1) 
conformer_0

$$$$
