
     RDKit          3D

 23 24  0  0  0  0  0  0  0  0999 V2000
   45.2798   37.1195   83.3099 C   0  0  0  0  0  0  0  0  0  0  0  0
   45.8378   34.9623   77.8369 C   0  0  0  0  0  0  0  0  0  0  0  0
   45.8439   36.2635   78.4364 C   0  0  0  0  0  0  0  0  0  0  0  0
   45.2043   37.6065   80.3374 N   0  0  0  0  0  0  0  0  0  0  0  0
   42.9247   37.2240   82.9893 C   0  0  0  0  0  0  0  0  0  0  0  0
   45.1826   38.3139   75.5700 O   0  0  0  0  0  0  0  0  0  0  0  0
   46.5576   35.7951   80.6537 O   0  0  0  0  0  0  0  0  0  0  0  0
   41.4733   36.0403   84.4168 F   0  0  0  0  0  0  0  0  0  0  0  0
   45.4650   37.2366   76.2850 C   0  0  0  0  0  0  0  0  0  0  0  0
   44.1281   39.7494   80.4707 C   0  0  0  0  0  0  0  0  0  0  0  0
   45.1611   36.3655   84.4560 C   0  0  0  0  0  0  0  0  0  0  0  0
   42.7510   36.3898   84.0754 C   0  0  0  0  0  0  0  0  0  0  0  0
   46.3631   36.0668   85.2545 C   0  0  0  0  0  0  0  0  0  0  0  0
   44.4704   40.0252   82.1874 C   0  0  0  0  0  0  0  0  0  0  0  0
   45.7132   34.8297   76.4711 C   0  0  0  0  0  0  0  0  0  0  0  0
   45.9260   36.4731   79.8536 C   0  0  0  0  0  0  0  0  0  0  0  0
   45.7184   37.3946   77.6110 C   0  0  0  0  0  0  0  0  0  0  0  0
   44.5026   38.4723   81.3750 C   0  0  0  0  0  0  0  0  0  0  0  0
   47.4631   36.4713   84.7637 O   0  0  0  0  0  0  0  0  0  0  0  0
   46.2884   35.5519   86.4239 O   0  0  0  0  0  0  0  0  0  0  0  0
   43.8518   35.9483   84.8129 C   0  0  0  0  0  0  0  0  0  0  0  0
   45.4831   35.9746   75.6849 C   0  0  0  0  0  0  0  0  0  0  0  0
   44.2174   37.5588   82.5884 C   0  0  0  0  0  0  0  0  0  0  0  0
  1 11  2  0
  1 23  1  0
  2  3  1  0
  2 15  2  0
  3 16  1  0
  3 17  1  0
  4 16  1  0
  4 18  1  0
  5 12  1  0
  5 23  2  0
  6  9  1  0
  7 16  2  0
  8 12  1  0
  9 17  2  0
  9 22  1  0
 10 18  1  0
 11 13  1  0
 11 21  1  0
 12 21  2  0
 13 19  2  0
 13 20  1  0
 14 18  1  0
 15 22  1  0
 18 23  1  0
M  END
>  <ID>  (1) 
conformer_0

$$$$
