
     RDKit          3D

 40 43  0  0  0  0  0  0  0  0999 V2000
   45.9254   34.1016   82.4799 S   0  0  0  0  0  0  0  0  0  0  0  0
   45.9026   37.2012   76.5831 C   0  0  0  0  0  0  0  0  0  0  0  0
   44.5446   38.4162   81.4757 N   0  0  0  0  0  0  0  0  0  0  0  0
   43.5215   35.1010   87.6889 C   0  0  0  0  0  0  0  0  0  0  0  0
   45.5136   35.9733   86.4722 C   0  0  0  0  0  0  0  0  0  0  0  0
   41.3013   37.5490   86.2394 C   0  0  0  0  0  0  0  0  0  0  0  0
   41.0713   38.0199   84.9589 O   0  0  0  0  0  0  0  0  0  0  0  0
   39.7831   40.2823   84.8206 F   0  0  0  0  0  0  0  0  0  0  0  0
   47.1439   36.2408   84.7295 O   0  0  0  0  0  0  0  0  0  0  0  0
   43.3468   40.0616   82.8069 C   0  0  0  0  0  0  0  0  0  0  0  0
   46.0744   35.1613   78.1303 O   0  0  0  0  0  0  0  0  0  0  0  0
   44.9810   35.4550   84.1838 N   0  0  0  0  0  0  0  0  0  0  0  0
   42.9938   39.1050   83.7552 C   0  0  0  0  0  0  0  0  0  0  0  0
   45.3286   36.2619   74.2823 C   0  0  0  0  0  0  0  0  0  0  0  0
   46.2875   36.3092   78.9237 C   0  0  0  0  0  0  0  0  0  0  0  0
   44.0348   36.0190   86.5567 C   0  0  0  0  0  0  0  0  0  0  0  0
   44.7700   36.1267   81.8245 N   0  0  0  0  0  0  0  0  0  0  0  0
   44.3265   36.2703   71.5418 C   0  0  0  0  0  0  0  0  0  0  0  0
   45.5232   38.3503   76.3293 O   0  0  0  0  0  0  0  0  0  0  0  0
   45.1894   35.3259   82.7776 C   0  0  0  0  0  0  0  0  0  0  0  0
   42.6357   36.7280   86.3805 C   0  0  0  0  0  0  0  0  0  0  0  0
   44.8576   35.0785   73.6572 C   0  0  0  0  0  0  0  0  0  0  0  0
   46.4196   36.8539   77.7251 N   0  0  0  0  0  0  0  0  0  0  0  0
   46.3258   35.8662   87.4883 O   0  0  0  0  0  0  0  0  0  0  0  0
   42.6141   41.2506   82.7368 C   0  0  0  0  0  0  0  0  0  0  0  0
   45.8713   36.2356   75.5876 N   0  0  0  0  0  0  0  0  0  0  0  0
   45.1096   37.0634   79.6498 C   0  0  0  0  0  0  0  0  0  0  0  0
   40.9743   40.2697   84.2249 C   0  0  0  0  0  0  0  0  0  0  0  0
   43.9175   38.1575   84.1178 N   0  0  0  0  0  0  0  0  0  0  0  0
   42.1707   35.7298   87.6174 C   0  0  0  0  0  0  0  0  0  0  0  0
   44.3725   35.1163   72.3107 C   0  0  0  0  0  0  0  0  0  0  0  0
   41.7055   39.1251   84.3594 C   0  0  0  0  0  0  0  0  0  0  0  0
   44.3828   39.7476   81.8409 C   0  0  0  0  0  0  0  0  0  0  0  0
   45.9916   35.8445   85.0789 C   0  0  0  0  0  0  0  0  0  0  0  0
   44.7965   37.4264   72.1605 C   0  0  0  0  0  0  0  0  0  0  0  0
   47.3817   36.2262   79.7443 O   0  0  0  0  0  0  0  0  0  0  0  0
   45.0841   37.1910   81.0229 C   0  0  0  0  0  0  0  0  0  0  0  0
   41.4205   41.3711   83.4889 C   0  0  0  0  0  0  0  0  0  0  0  0
   44.1566   34.8274   88.7467 O   0  0  0  0  0  0  0  0  0  0  0  0
   45.2765   37.3737   73.4631 C   0  0  0  0  0  0  0  0  0  0  0  0
  1 20  2  0
  2 19  2  0
  2 23  1  0
  2 26  1  0
  3 33  1  0
  3 37  2  0
  4 16  1  0
  4 30  1  0
  4 39  1  0
  5 16  1  0
  5 24  1  0
  5 34  1  0
  6  7  1  0
  6 21  1  0
  7 32  1  0
  8 28  1  0
  9 34  2  0
 10 13  1  0
 10 25  2  0
 10 33  1  0
 11 15  1  0
 12 20  1  0
 12 34  1  0
 13 29  1  0
 13 32  1  0
 14 22  2  0
 14 26  1  0
 14 40  1  0
 15 23  1  0
 15 27  1  0
 15 36  1  0
 16 21  1  0
 17 20  1  0
 17 37  1  0
 18 31  2  0
 18 35  1  0
 21 30  1  0
 22 31  1  0
 25 38  1  0
 27 37  1  0
 28 32  2  0
 28 38  1  0
 35 40  2  0
M  END
>  <ID>  (1) 
conformer_0

$$$$
