
     RDKit          3D

 31 34  0  0  0  0  0  0  0  0999 V2000
   45.6385   36.7740   79.5605 C   0  0  0  0  0  0  0  0  0  0  0  0
   45.5347   36.8505   75.6160 C   0  0  0  0  0  0  0  0  0  0  0  0
   46.0264   34.6793   84.3582 O   0  0  0  0  0  0  0  0  0  0  0  0
   45.3100   35.6470   76.2374 C   0  0  0  0  0  0  0  0  0  0  0  0
   44.1251   35.2511   73.2716 C   0  0  0  0  0  0  0  0  0  0  0  0
   45.1817   36.6379   82.3031 C   0  0  0  0  0  0  0  0  0  0  0  0
   44.4453   35.3574   86.1169 C   0  0  0  0  0  0  0  0  0  0  0  0
   45.8154   35.5046   77.5884 C   0  0  0  0  0  0  0  0  0  0  0  0
   44.7219   36.4540   83.6689 C   0  0  0  0  0  0  0  0  0  0  0  0
   40.7585   37.6910   84.5955 C   0  0  0  0  0  0  0  0  0  0  0  0
   46.4249   36.7310   85.5154 O   0  0  0  0  0  0  0  0  0  0  0  0
   45.4727   35.8452   84.8740 C   0  0  0  0  0  0  0  0  0  0  0  0
   44.1187   34.4410   74.3921 C   0  0  0  0  0  0  0  0  0  0  0  0
   44.9300   37.8050   80.1593 C   0  0  0  0  0  0  0  0  0  0  0  0
   46.1625   35.6909   80.2788 C   0  0  0  0  0  0  0  0  0  0  0  0
   44.7061   36.5263   73.2806 C   0  0  0  0  0  0  0  0  0  0  0  0
   45.8469   36.7869   78.2331 O   0  0  0  0  0  0  0  0  0  0  0  0
   43.5894   40.7543   83.5420 C   0  0  0  0  0  0  0  0  0  0  0  0
   40.9330   36.4443   84.0015 C   0  0  0  0  0  0  0  0  0  0  0  0
   45.2682   37.1704   74.3136 C   0  0  0  0  0  0  0  0  0  0  0  0
   44.0988   39.2861   83.5290 C   0  0  0  0  0  0  0  0  0  0  0  0
   44.4606   39.0072   82.1442 N   0  0  0  0  0  0  0  0  0  0  0  0
   43.3069   36.8686   83.7675 C   0  0  0  0  0  0  0  0  0  0  0  0
   45.9152   35.6805   81.6464 C   0  0  0  0  0  0  0  0  0  0  0  0
   45.3494   34.5912   87.2051 C   0  0  0  0  0  0  0  0  0  0  0  0
   44.8251   37.7876   81.5644 C   0  0  0  0  0  0  0  0  0  0  0  0
   42.1976   36.0220   83.5808 C   0  0  0  0  0  0  0  0  0  0  0  0
   41.8475   38.5684   84.6034 C   0  0  0  0  0  0  0  0  0  0  0  0
   43.0525   38.2186   84.0039 C   0  0  0  0  0  0  0  0  0  0  0  0
   44.6216   34.5886   75.6501 C   0  0  0  0  0  0  0  0  0  0  0  0
   45.3978   39.2761   84.4468 C   0  0  0  0  0  0  0  0  0  0  0  0
  1 14  2  0
  1 15  1  0
  1 17  1  0
  2  4  2  0
  2 20  1  0
  3 12  1  0
  4  8  1  0
  4 30  1  0
  5 13  1  0
  5 16  1  0
  6  9  1  0
  6 24  2  0
  6 26  1  0
  7 12  1  0
  7 25  1  0
  8 17  1  0
  9 12  1  0
  9 23  1  0
 10 19  1  0
 10 28  2  0
 11 12  1  0
 13 30  2  0
 14 26  1  0
 15 24  1  0
 16 20  2  0
 18 21  1  0
 19 27  2  0
 21 22  1  0
 21 29  1  0
 21 31  1  0
 22 26  2  0
 23 27  1  0
 23 29  1  0
 28 29  1  0
M  END
>  <ID>  (1) 
conformer_0

$$$$
