
     RDKit          3D

 25 27  0  0  0  0  0  0  0  0999 V2000
   41.3798   37.2774   83.7826 C   0  0  0  0  0  0  0  0  0  0  0  0
   43.8270   37.6029   83.6684 C   0  0  0  0  0  0  0  0  0  0  0  0
   45.4526   35.7061   84.5133 C   0  0  0  0  0  0  0  0  0  0  0  0
   40.1043   38.0244   84.2677 C   0  0  0  0  0  0  0  0  0  0  0  0
   45.3957   36.7423   78.2371 C   0  0  0  0  0  0  0  0  0  0  0  0
   44.7392   38.1216   82.6260 C   0  0  0  0  0  0  0  0  0  0  0  0
   42.5517   38.3077   84.0376 C   0  0  0  0  0  0  0  0  0  0  0  0
   45.8204   37.1129   82.1831 C   0  0  0  0  0  0  0  0  0  0  0  0
   44.8927   37.3615   79.5631 C   0  0  0  0  0  0  0  0  0  0  0  0
   46.3850   35.6444   78.7844 C   0  0  0  0  0  0  0  0  0  0  0  0
   44.1941   36.4213   84.4372 C   0  0  0  0  0  0  0  0  0  0  0  0
   41.6889   36.1460   84.7773 C   0  0  0  0  0  0  0  0  0  0  0  0
   43.0560   35.7120   84.8437 O   0  0  0  0  0  0  0  0  0  0  0  0
   47.5605   36.5752   84.9360 O   0  0  0  0  0  0  0  0  0  0  0  0
   45.7041   34.7786   83.5891 O   0  0  0  0  0  0  0  0  0  0  0  0
   40.6172   39.0521   85.3161 C   0  0  0  0  0  0  0  0  0  0  0  0
   42.1416   38.6742   85.5594 C   0  0  0  0  0  0  0  0  0  0  0  0
   46.4502   36.0746   85.4926 C   0  0  0  0  0  0  0  0  0  0  0  0
   45.7947   36.8906   80.7246 C   0  0  0  0  0  0  0  0  0  0  0  0
   42.5814   39.7358   83.4065 C   0  0  0  0  0  0  0  0  0  0  0  0
   46.4821   37.0014   76.1349 O   0  0  0  0  0  0  0  0  0  0  0  0
   45.5263   36.4591   76.6537 C   0  0  0  0  0  0  0  0  0  0  0  0
   46.2014   35.9460   86.8701 C   0  0  0  0  0  0  0  0  0  0  0  0
   44.7260   35.6401   76.2383 O   0  0  0  0  0  0  0  0  0  0  0  0
   46.6889   35.8812   80.1716 C   0  0  0  0  0  0  0  0  0  0  0  0
  1  4  1  0
  1  7  1  0
  1 12  1  0
  2  6  1  0
  2  7  1  0
  2 11  1  0
  3 11  1  0
  3 15  1  0
  3 18  1  0
  4 16  1  0
  5  9  1  0
  5 10  1  0
  5 22  1  0
  6  8  1  0
  7 17  1  0
  7 20  1  0
  8 19  1  0
  9 19  1  0
 10 25  1  0
 11 13  1  0
 12 13  1  0
 14 18  1  0
 16 17  1  0
 18 23  1  0
 19 25  1  0
 21 22  2  0
 22 24  1  0
M  END
>  <ID>  (1) 
conformer_0

$$$$
