
     RDKit          3D

 26 27  0  0  0  0  0  0  0  0999 V2000
   45.6967   35.5864   77.4721 C   0  0  0  0  0  0  0  0  0  0  0  0
   42.4370   36.9003   84.5513 C   0  0  0  0  0  0  0  0  0  0  0  0
   45.2920   37.2406   84.2083 C   0  0  0  0  0  0  0  0  0  0  0  0
   43.6919   36.2895   85.0480 C   0  0  0  0  0  0  0  0  0  0  0  0
   46.3526   35.9297   78.8190 C   0  0  0  0  0  0  0  0  0  0  0  0
   45.3060   37.7971   76.0197 C   0  0  0  0  0  0  0  0  0  0  0  0
   43.4043   39.0348   85.0581 C   0  0  0  0  0  0  0  0  0  0  0  0
   47.0367   36.0071   85.1575 O   0  0  0  0  0  0  0  0  0  0  0  0
   41.4203   36.1224   83.8128 C   0  0  0  0  0  0  0  0  0  0  0  0
   44.9977   38.1742   81.6511 C   0  0  0  0  0  0  0  0  0  0  0  0
   45.6860   34.0846   82.8294 O   0  0  0  0  0  0  0  0  0  0  0  0
   46.2520   36.9506   85.3160 C   0  0  0  0  0  0  0  0  0  0  0  0
   43.8439   39.1489   83.6154 C   0  0  0  0  0  0  0  0  0  0  0  0
   45.6800   37.1511   80.8746 C   0  0  0  0  0  0  0  0  0  0  0  0
   42.0934   38.1899   85.1277 C   0  0  0  0  0  0  0  0  0  0  0  0
   46.2120   37.6447   86.3467 O   0  0  0  0  0  0  0  0  0  0  0  0
   45.9949   36.6482   76.3812 C   0  0  0  0  0  0  0  0  0  0  0  0
   44.8259   37.7761   78.7765 O   0  0  0  0  0  0  0  0  0  0  0  0
   46.9691   36.2308   75.6129 O   0  0  0  0  0  0  0  0  0  0  0  0
   45.2749   35.3848   82.6635 C   0  0  0  0  0  0  0  0  0  0  0  0
   44.6639   37.9976   83.0607 C   0  0  0  0  0  0  0  0  0  0  0  0
   43.4090   35.1527   86.0462 C   0  0  0  0  0  0  0  0  0  0  0  0
   44.3252   39.2597   81.1097 O   0  0  0  0  0  0  0  0  0  0  0  0
   44.6153   35.8448   83.9649 C   0  0  0  0  0  0  0  0  0  0  0  0
   46.1630   36.0537   81.6693 C   0  0  0  0  0  0  0  0  0  0  0  0
   45.7122   37.1136   79.4288 C   0  0  0  0  0  0  0  0  0  0  0  0
  1  5  1  0
  1 17  1  0
  2  4  1  0
  2  9  1  0
  2 15  1  0
  3 12  1  0
  3 21  1  0
  3 24  1  0
  4 22  1  0
  4 24  1  0
  5 26  1  0
  6 17  1  0
  7 13  1  0
  7 15  1  0
  8 12  2  0
 10 14  2  0
 10 21  1  0
 10 23  1  0
 11 20  1  0
 12 16  1  0
 13 21  1  0
 14 25  1  0
 14 26  1  0
 17 19  1  0
 18 26  2  0
 20 24  1  0
 20 25  1  0
M  END
>  <ID>  (1) 
conformer_0

$$$$
