
     RDKit          3D

 19 19  0  0  0  0  0  0  0  0999 V2000
   46.4944   36.4844   84.8754 C   0  0  0  0  0  0  0  0  0  0  0  0
   45.3477   36.3780   83.9285 C   0  0  0  0  0  0  0  0  0  0  0  0
   45.4806   36.8790   82.5661 C   0  0  0  0  0  0  0  0  0  0  0  0
   47.6353   36.6256   84.3524 O   0  0  0  0  0  0  0  0  0  0  0  0
   44.6793   39.1762   82.6366 O   0  0  0  0  0  0  0  0  0  0  0  0
   46.2626   34.5780   77.6420 O   0  0  0  0  0  0  0  0  0  0  0  0
   46.4114   36.5013   86.1707 O   0  0  0  0  0  0  0  0  0  0  0  0
   42.8976   36.9983   84.0113 C   0  0  0  0  0  0  0  0  0  0  0  0
   46.0138   35.7995   77.8480 C   0  0  0  0  0  0  0  0  0  0  0  0
   46.3179   36.1761   81.5766 C   0  0  0  0  0  0  0  0  0  0  0  0
   43.9983   36.3560   84.5372 C   0  0  0  0  0  0  0  0  0  0  0  0
   42.5485   35.5617   86.2892 C   0  0  0  0  0  0  0  0  0  0  0  0
   45.6101   36.0400   80.2359 C   0  0  0  0  0  0  0  0  0  0  0  0
   46.5753   36.3641   79.1224 C   0  0  0  0  0  0  0  0  0  0  0  0
   41.6696   36.9554   84.5899 C   0  0  0  0  0  0  0  0  0  0  0  0
   45.4310   36.6289   77.0792 O   0  0  0  0  0  0  0  0  0  0  0  0
   41.4979   36.2329   85.7349 C   0  0  0  0  0  0  0  0  0  0  0  0
   44.5474   37.8873   81.9961 C   0  0  0  0  0  0  0  0  0  0  0  0
   43.8035   35.6258   85.6800 C   0  0  0  0  0  0  0  0  0  0  0  0
  1  2  1  0
  1  4  2  0
  1  7  1  0
  2  3  1  0
  2 11  1  0
  3 10  1  0
  3 18  1  0
  5 18  1  0
  6  9  2  0
  8 11  2  0
  8 15  1  0
  9 14  1  0
  9 16  1  0
 10 13  1  0
 11 19  1  0
 12 17  1  0
 12 19  2  0
 13 14  1  0
 15 17  2  0
M  END
>  <ID>  (1) 
conformer_0

$$$$
