
     RDKit          3D

 30 32  0  0  0  0  0  0  0  0999 V2000
   44.2640   36.3397   84.4839 C   0  0  0  0  0  0  0  0  0  0  0  0
   45.4310   35.3527   84.3491 C   0  0  0  0  0  0  0  0  0  0  0  0
   44.9692   36.2168   82.0730 C   0  0  0  0  0  0  0  0  0  0  0  0
   44.9976   36.0924   87.0156 C   0  0  0  0  0  0  0  0  0  0  0  0
   42.8261   35.8479   83.9252 C   0  0  0  0  0  0  0  0  0  0  0  0
   44.2825   38.8586   81.4145 C   0  0  0  0  0  0  0  0  0  0  0  0
   43.3891   41.0838   82.0531 C   0  0  0  0  0  0  0  0  0  0  0  0
   43.9731   36.0353   86.0820 C   0  0  0  0  0  0  0  0  0  0  0  0
   42.4725   35.6646   87.9537 C   0  0  0  0  0  0  0  0  0  0  0  0
   44.2368   39.2537   85.0112 O   0  0  0  0  0  0  0  0  0  0  0  0
   43.5044   35.8167   88.8600 C   0  0  0  0  0  0  0  0  0  0  0  0
   45.0702   35.7833   76.5598 C   0  0  0  0  0  0  0  0  0  0  0  0
   44.7635   36.0108   88.4055 C   0  0  0  0  0  0  0  0  0  0  0  0
   46.3037   36.3009   86.7156 O   0  0  0  0  0  0  0  0  0  0  0  0
   45.5947   37.0601   75.4300 S   0  0  0  0  0  4  0  0  0  0  0  0
   44.7185   36.8788   74.2489 O   0  0  0  0  0  0  0  0  0  0  0  0
   44.2546   40.2825   81.1838 C   0  0  0  0  0  0  0  0  0  0  0  0
   44.1075   38.4149   82.7348 C   0  0  0  0  0  0  0  0  0  0  0  0
   45.8649   35.8707   79.8511 N   0  0  0  0  0  0  0  0  0  0  0  0
   45.4312   38.3768   76.0570 O   0  0  0  0  0  0  0  0  0  0  0  0
   45.2743   36.7258   80.7939 C   0  0  0  0  0  0  0  0  0  0  0  0
   42.7237   35.7429   86.6051 C   0  0  0  0  0  0  0  0  0  0  0  0
   44.5883   37.1194   83.1120 N   0  0  0  0  0  0  0  0  0  0  0  0
   44.7752   37.9844   80.4391 C   0  0  0  0  0  0  0  0  0  0  0  0
   46.9917   36.7835   75.0746 O   0  0  0  0  0  0  0  0  0  0  0  0
   46.2643   36.4143   78.6867 C   0  0  0  0  0  0  0  0  0  0  0  0
   43.7809   39.3905   83.7735 C   0  0  0  0  0  0  0  0  0  0  0  0
   42.9976   40.5520   83.3960 C   0  0  0  0  0  0  0  0  0  0  0  0
   46.2145   35.4258   77.5283 C   0  0  0  0  0  0  0  0  0  0  0  0
   46.6627   35.7604   84.0491 O   0  0  0  0  0  0  0  0  0  0  0  0
  1  2  1  0
  1  5  1  0
  1  8  1  0
  1 23  1  0
  2 30  1  0
  3 21  1  0
  3 23  1  0
  4  8  2  0
  4 13  1  0
  4 14  1  0
  6 17  1  0
  6 18  1  0
  6 24  1  0
  7 17  1  0
  7 28  1  0
  8 22  1  0
  9 11  1  0
  9 22  2  0
 10 27  1  0
 11 13  2  0
 12 15  1  0
 12 29  1  0
 15 16  1  0
 15 20  1  0
 15 25  1  0
 18 23  1  0
 18 27  1  0
 19 21  1  0
 19 26  1  0
 21 24  1  0
 26 29  1  0
 27 28  1  0
M  END
>  <ID>  (1) 
conformer_0

$$$$
