
     RDKit          3D

 29 33  0  0  0  0  0  0  0  0999 V2000
   42.9967   38.3914   84.4365 C   0  0  0  0  0  0  0  0  0  0  0  0
   46.9149   36.9897   75.4954 O   0  0  0  0  0  0  0  0  0  0  0  0
   45.4821   36.8165   78.7433 C   0  0  0  0  0  0  0  0  0  0  0  0
   43.6105   39.8955   82.4994 C   0  0  0  0  0  0  0  0  0  0  0  0
   43.0965   37.4134   86.7823 C   0  0  0  0  0  0  0  0  0  0  0  0
   44.7124   37.8677   79.2978 C   0  0  0  0  0  0  0  0  0  0  0  0
   44.5399   37.9422   80.6953 C   0  0  0  0  0  0  0  0  0  0  0  0
   43.5177   38.1125   82.9217 C   0  0  0  0  0  0  0  0  0  0  0  0
   47.0314   36.2223   83.9400 O   0  0  0  0  0  0  0  0  0  0  0  0
   43.6803   38.7974   81.5263 N   0  0  0  0  0  0  0  0  0  0  0  0
   46.1095   35.8997   79.6586 C   0  0  0  0  0  0  0  0  0  0  0  0
   43.5242   37.4220   85.4627 C   0  0  0  0  0  0  0  0  0  0  0  0
   44.8195   37.5189   75.3786 O   0  0  0  0  0  0  0  0  0  0  0  0
   45.0284   36.1092   87.3261 C   0  0  0  0  0  0  0  0  0  0  0  0
   44.6508   36.0095   83.7903 O   0  0  0  0  0  0  0  0  0  0  0  0
   45.7886   37.0657   76.0147 C   0  0  0  0  0  0  0  0  0  0  0  0
   46.3000   35.1654   82.0756 O   0  0  0  0  0  0  0  0  0  0  0  0
   42.2455   38.0206   83.2682 O   0  0  0  0  0  0  0  0  0  0  0  0
   45.8858   36.0250   81.0064 C   0  0  0  0  0  0  0  0  0  0  0  0
   44.1121   39.2638   83.7675 C   0  0  0  0  0  0  0  0  0  0  0  0
   45.3269   35.9826   85.9978 C   0  0  0  0  0  0  0  0  0  0  0  0
   45.5466   36.4643   77.3333 C   0  0  0  0  0  0  0  0  0  0  0  0
   45.8926   35.6650   88.2124 O   0  0  0  0  0  0  0  0  0  0  0  0
   45.3529   34.9454   77.0855 C   0  0  0  0  0  0  0  0  0  0  0  0
   44.5165   36.4993   85.0858 C   0  0  0  0  0  0  0  0  0  0  0  0
   43.3918   36.5031   88.9607 F   0  0  0  0  0  0  0  0  0  0  0  0
   45.9973   35.8081   83.3498 C   0  0  0  0  0  0  0  0  0  0  0  0
   43.8433   36.6833   87.6896 C   0  0  0  0  0  0  0  0  0  0  0  0
   45.1833   37.0253   81.4028 C   0  0  0  0  0  0  0  0  0  0  0  0
  1 12  1  0
  1 18  1  0
  1 20  1  0
  2 16  2  0
  3  6  2  0
  3 11  1  0
  3 22  1  0
  4 10  1  0
  4 20  1  0
  5 12  1  0
  5 28  2  0
  6  7  1  0
  7 10  1  0
  7 29  2  0
  8 10  1  0
  8 18  1  0
  8 20  1  0
  9 27  2  0
 11 19  2  0
 12 25  1  0
 13 16  1  0
 14 21  2  0
 14 23  1  0
 14 28  1  0
 15 25  1  0
 15 27  1  0
 16 22  1  0
 17 19  1  0
 17 27  1  0
 19 29  1  0
 21 25  1  0
 22 24  1  0
 26 28  1  0
M  END
>  <ID>  (1) 
conformer_0

$$$$
