
     RDKit          3D

 32 34  0  0  0  0  0  0  0  0999 V2000
   42.9483   41.1332   84.1743 C   0  0  0  0  0  0  0  0  0  0  0  0
   40.9679   36.8094   84.4427 C   0  0  0  0  0  0  0  0  0  0  0  0
   45.2347   37.0401   80.4203 C   0  0  0  0  0  0  0  0  0  0  0  0
   41.8063   36.8075   85.5386 N   0  0  0  0  0  0  0  0  0  0  0  0
   41.6644   38.6793   86.9599 O   0  0  0  0  0  0  0  0  0  0  0  0
   44.1603   39.6263   82.7907 C   0  0  0  0  0  0  0  0  0  0  0  0
   46.4078   36.4357   84.7049 O   0  0  0  0  0  0  0  0  0  0  0  0
   42.6676   35.0910   88.6418 C   0  0  0  0  0  0  0  0  0  0  0  0
   46.2152   35.8964   78.7943 N   0  0  0  0  0  0  0  0  0  0  0  0
   44.7458   37.5328   79.2043 C   0  0  0  0  0  0  0  0  0  0  0  0
   45.7613   36.3503   83.5416 C   0  0  0  0  0  0  0  0  0  0  0  0
   44.0862   38.5497   83.6493 C   0  0  0  0  0  0  0  0  0  0  0  0
   45.4089   36.8198   78.2295 N   0  0  0  0  0  0  0  0  0  0  0  0
   42.6342   37.8996   86.1329 C   0  0  0  0  0  0  0  0  0  0  0  0
   43.2268   38.8169   84.8895 C   0  0  0  0  0  0  0  0  0  0  0  0
   46.5916   37.6853   86.5230 O   0  0  0  0  0  0  0  0  0  0  0  0
   44.9099   37.3760   83.0370 N   0  0  0  0  0  0  0  0  0  0  0  0
   44.4092   38.2591   88.0196 O   0  0  0  0  0  0  0  0  0  0  0  0
   44.7205   37.4926   81.6789 C   0  0  0  0  0  0  0  0  0  0  0  0
   46.1875   36.0209   80.1880 C   0  0  0  0  0  0  0  0  0  0  0  0
   44.6378   36.2409   86.4885 C   0  0  0  0  0  0  0  0  0  0  0  0
   45.3539   36.9326   76.7607 C   0  0  0  0  0  0  0  0  0  0  0  0
   41.3391   37.0415   89.1393 C   0  0  0  0  0  0  0  0  0  0  0  0
   43.6242   37.2073   87.2970 C   0  0  0  0  0  0  0  0  0  0  0  0
   46.8333   34.9576   78.0737 O   0  0  0  0  0  0  0  0  0  0  0  0
   45.9630   35.2431   82.9624 O   0  0  0  0  0  0  0  0  0  0  0  0
   43.6066   40.8619   82.9601 C   0  0  0  0  0  0  0  0  0  0  0  0
   41.3939   36.0338   83.1727 C   0  0  0  0  0  0  0  0  0  0  0  0
   39.9243   37.8422   84.1193 C   0  0  0  0  0  0  0  0  0  0  0  0
   42.5855   36.5500   88.3460 C   0  0  0  0  0  0  0  0  0  0  0  0
   42.8068   40.1013   85.0562 C   0  0  0  0  0  0  0  0  0  0  0  0
   45.9644   36.6795   85.9872 C   0  0  0  0  0  0  0  0  0  0  0  0
  1 27  1  0
  1 31  1  0
  2  4  1  0
  2 28  1  0
  2 29  1  0
  3 10  1  0
  3 19  2  3
  3 20  1  0
  4 14  1  0
  5 14  1  0
  6 12  1  0
  6 27  2  0
  7 11  1  0
  7 32  1  0
  8 30  1  0
  9 13  1  0
  9 20  1  0
  9 25  1  0
 10 13  1  0
 11 17  1  0
 11 26  2  0
 12 15  1  0
 12 17  1  0
 13 22  1  0
 14 15  1  0
 14 24  1  0
 15 31  2  0
 16 32  2  0
 17 19  1  0
 18 24  1  0
 21 24  1  0
 21 32  1  0
 23 30  1  0
 24 30  1  0
M  END
>  <ID>  (1) 
conformer_0

$$$$
