
     RDKit          3D

 31 33  0  0  0  0  0  0  0  0999 V2000
   45.5701   34.4873   82.7483 C   0  0  0  0  0  0  0  0  0  0  0  0
   43.5779   37.1944   83.8532 C   0  0  0  0  0  0  0  0  0  0  0  0
   44.9008   35.9835   85.5235 C   0  0  0  0  0  0  0  0  0  0  0  0
   44.7834   37.9593   79.9145 C   0  0  0  0  0  0  0  0  0  0  0  0
   45.4820   36.6514   81.7120 C   0  0  0  0  0  0  0  0  0  0  0  0
   45.6501   35.9343   82.9313 N   0  0  0  0  0  0  0  0  0  0  0  0
   41.0244   36.3088   83.4256 C   0  0  0  0  0  0  0  0  0  0  0  0
   44.9698   36.8965   87.8722 C   0  0  0  0  0  0  0  0  0  0  0  0
   45.5569   36.8813   79.3749 C   0  0  0  0  0  0  0  0  0  0  0  0
   41.2107   36.1214   84.8818 C   0  0  0  0  0  0  0  0  0  0  0  0
   43.7376   38.6001   83.5451 C   0  0  0  0  0  0  0  0  0  0  0  0
   43.4796   41.3931   82.2019 C   0  0  0  0  0  0  0  0  0  0  0  0
   45.8769   36.1621   84.3647 C   0  0  0  0  0  0  0  0  0  0  0  0
   44.7765   37.8907   81.3788 C   0  0  0  0  0  0  0  0  0  0  0  0
   46.6394   35.2338   78.0655 O   0  0  0  0  0  0  0  0  0  0  0  0
   42.3919   36.4076   85.8279 C   0  0  0  0  0  0  0  0  0  0  0  0
   44.7728   35.9598   76.0741 O   0  0  0  0  0  0  0  0  0  0  0  0
   45.9909   36.1153   80.5271 C   0  0  0  0  0  0  0  0  0  0  0  0
   42.1660   36.3067   87.0577 O   0  0  0  0  0  0  0  0  0  0  0  0
   45.5448   36.1004   86.8477 C   0  0  0  0  0  0  0  0  0  0  0  0
   45.9116   36.4311   78.0620 C   0  0  0  0  0  0  0  0  0  0  0  0
   45.5199   38.1179   76.3802 O   0  0  0  0  0  0  0  0  0  0  0  0
   46.6296   35.4777   87.0960 O   0  0  0  0  0  0  0  0  0  0  0  0
   44.1998   38.9524   82.1909 C   0  0  0  0  0  0  0  0  0  0  0  0
   47.1009   36.3945   84.5987 O   0  0  0  0  0  0  0  0  0  0  0  0
   42.9477   41.7920   83.4395 C   0  0  0  0  0  0  0  0  0  0  0  0
   42.9775   40.8444   84.5033 C   0  0  0  0  0  0  0  0  0  0  0  0
   43.3497   39.5836   84.4112 C   0  0  0  0  0  0  0  0  0  0  0  0
   43.6501   36.8567   85.2690 C   0  0  0  0  0  0  0  0  0  0  0  0
   45.4454   36.8464   76.7406 C   0  0  0  0  0  0  0  0  0  0  0  0
   43.9921   40.2760   81.7983 C   0  0  0  0  0  0  0  0  0  0  0  0
  1  6  1  0
  2 11  1  0
  2 29  1  0
  3 13  1  0
  3 20  1  0
  3 29  1  0
  4  9  1  0
  4 14  1  0
  5  6  1  0
  5 14  2  0
  5 18  1  0
  6 13  1  0
  7 10  1  0
  8 20  1  0
  9 18  1  0
  9 21  2  3
 10 16  1  0
 11 24  2  0
 11 28  1  0
 12 26  1  0
 12 31  2  0
 13 25  2  0
 14 24  1  0
 15 21  1  0
 16 19  2  0
 16 29  1  0
 17 30  2  0
 20 23  2  0
 21 30  1  0
 22 30  1  0
 24 31  1  0
 26 27  1  0
 27 28  2  0
M  END
>  <ID>  (1) 
conformer_0

$$$$
