
     RDKit          3D

 30 34  0  0  0  0  0  0  0  0999 V2000
   44.5554   36.2193   72.4805 C   0  0  0  0  0  0  0  0  0  0  0  0
   44.6703   37.6146   81.3253 C   0  0  0  0  0  0  0  0  0  0  0  0
   45.5765   36.0638   76.7312 C   0  0  0  0  0  0  0  0  0  0  0  0
   46.9242   35.9806   85.6212 O   0  0  0  0  0  0  0  0  0  0  0  0
   44.9562   36.1020   73.9190 C   0  0  0  0  0  0  0  0  0  0  0  0
   44.5201   35.0840   74.7499 C   0  0  0  0  0  0  0  0  0  0  0  0
   42.1225   39.4134   84.6829 C   0  0  0  0  0  0  0  0  0  0  0  0
   45.0718   35.3297   71.5463 O   0  0  0  0  0  0  0  0  0  0  0  0
   45.6125   36.8658   79.1900 N   0  0  0  0  0  0  0  0  0  0  0  0
   42.9804   36.0390   86.6607 C   0  0  0  0  0  0  0  0  0  0  0  0
   40.8694   37.6352   86.4207 C   0  0  0  0  0  0  0  0  0  0  0  0
   45.7432   35.6221   85.7239 C   0  0  0  0  0  0  0  0  0  0  0  0
   44.4192   37.4351   82.7128 C   0  0  0  0  0  0  0  0  0  0  0  0
   45.3614   34.8178   86.6868 O   0  0  0  0  0  0  0  0  0  0  0  0
   44.8174   35.0768   76.1358 N   0  0  0  0  0  0  0  0  0  0  0  0
   45.7349   37.0729   74.5136 N   0  0  0  0  0  0  0  0  0  0  0  0
   41.9581   36.9840   87.3617 C   0  0  0  0  0  0  0  0  0  0  0  0
   43.4986   38.2167   83.4376 C   0  0  0  0  0  0  0  0  0  0  0  0
   46.1116   35.7275   81.3392 C   0  0  0  0  0  0  0  0  0  0  0  0
   43.1390   39.6460   83.4527 C   0  0  0  0  0  0  0  0  0  0  0  0
   41.2734   37.1013   84.9528 C   0  0  0  0  0  0  0  0  0  0  0  0
   45.9688   36.0138   78.1784 C   0  0  0  0  0  0  0  0  0  0  0  0
   45.4705   36.7411   80.6090 C   0  0  0  0  0  0  0  0  0  0  0  0
   46.7682   35.1673   78.3957 O   0  0  0  0  0  0  0  0  0  0  0  0
   46.0242   37.0680   75.8725 C   0  0  0  0  0  0  0  0  0  0  0  0
   44.8297   36.2525   84.8258 N   0  0  0  0  0  0  0  0  0  0  0  0
   43.6754   36.7990   85.5022 C   0  0  0  0  0  0  0  0  0  0  0  0
   45.9088   35.5640   82.7128 C   0  0  0  0  0  0  0  0  0  0  0  0
   45.0675   36.3986   83.4290 C   0  0  0  0  0  0  0  0  0  0  0  0
   42.7431   37.7910   84.7359 C   0  0  0  0  0  0  0  0  0  0  0  0
  1  5  1  0
  1  8  1  0
  2 13  1  0
  2 23  2  0
  3 15  2  0
  3 22  1  0
  3 25  1  0
  4 12  2  0
  5  6  1  0
  5 16  2  0
  6 15  1  0
  7 20  1  0
  7 30  1  0
  9 22  1  0
  9 23  1  0
 10 17  1  0
 10 27  1  0
 11 17  1  0
 11 21  1  0
 12 14  1  0
 12 26  1  0
 13 18  1  0
 13 29  1  0
 16 25  1  0
 18 20  1  0
 18 30  1  0
 19 23  1  0
 19 28  1  0
 21 30  1  0
 22 24  2  0
 26 27  1  0
 26 29  1  0
 27 30  1  0
 28 29  2  0
M  END
>  <ID>  (1) 
conformer_0

$$$$
