
     RDKit          3D

 29 31  0  0  0  0  0  0  0  0999 V2000
   42.8959   35.8033   85.7998 C   0  0  0  0  0  0  0  0  0  0  0  0
   44.7458   35.4306   87.9963 O   0  0  0  0  0  0  0  0  0  0  0  0
   47.1652   37.0377   75.0035 O   0  0  0  0  0  0  0  0  0  0  0  0
   44.7963   37.1737   82.3524 C   0  0  0  0  0  0  0  0  0  0  0  0
   42.6598   36.5175   83.5115 C   0  0  0  0  0  0  0  0  0  0  0  0
   45.9534   35.2494   83.6732 O   0  0  0  0  0  0  0  0  0  0  0  0
   43.8415   40.6744   81.1939 C   0  0  0  0  0  0  0  0  0  0  0  0
   46.2952   36.4170   86.7197 O   0  0  0  0  0  0  0  0  0  0  0  0
   42.4662   42.2360   82.2974 F   0  0  0  0  0  0  0  0  0  0  0  0
   45.6624   36.4066   81.5357 C   0  0  0  0  0  0  0  0  0  0  0  0
   46.0463   37.3009   75.4700 C   0  0  0  0  0  0  0  0  0  0  0  0
   45.1505   35.8352   86.8334 C   0  0  0  0  0  0  0  0  0  0  0  0
   46.1395   36.2342   79.1027 C   0  0  0  0  0  0  0  0  0  0  0  0
   45.2529   36.6688   80.1185 C   0  0  0  0  0  0  0  0  0  0  0  0
   45.6580   38.4478   75.8462 O   0  0  0  0  0  0  0  0  0  0  0  0
   44.0325   39.1800   83.4575 C   0  0  0  0  0  0  0  0  0  0  0  0
   43.3974   40.3585   83.5240 C   0  0  0  0  0  0  0  0  0  0  0  0
   44.2795   35.7633   85.6732 C   0  0  0  0  0  0  0  0  0  0  0  0
   43.2347   41.1053   82.3580 C   0  0  0  0  0  0  0  0  0  0  0  0
   44.0536   36.5064   83.4010 C   0  0  0  0  0  0  0  0  0  0  0  0
   42.0843   36.1519   84.6970 C   0  0  0  0  0  0  0  0  0  0  0  0
   44.8068   35.8379   84.3388 C   0  0  0  0  0  0  0  0  0  0  0  0
   46.0500   35.2026   82.2897 C   0  0  0  0  0  0  0  0  0  0  0  0
   45.7647   36.4295   77.7958 N   0  0  0  0  0  0  0  0  0  0  0  0
   44.4778   38.5768   82.2663 C   0  0  0  0  0  0  0  0  0  0  0  0
   47.3157   36.0458   79.3410 O   0  0  0  0  0  0  0  0  0  0  0  0
   45.3205   35.3437   76.8710 C   0  0  0  0  0  0  0  0  0  0  0  0
   44.4742   39.4371   81.1428 C   0  0  0  0  0  0  0  0  0  0  0  0
   45.0492   36.1302   75.5155 C   0  0  0  0  0  0  0  0  0  0  0  0
  1 18  2  0
  1 21  1  0
  2 12  2  0
  3 11  2  0
  4 10  1  0
  4 20  1  0
  4 25  1  0
  5 20  1  0
  5 21  2  0
  6 22  1  0
  6 23  1  0
  7 19  2  0
  7 28  1  0
  8 12  1  0
  9 19  1  0
 10 14  1  0
 10 23  1  0
 11 15  1  0
 11 29  1  0
 12 18  1  0
 13 14  1  0
 13 24  1  0
 13 26  2  0
 16 17  2  0
 16 25  1  0
 17 19  1  0
 18 22  1  0
 20 22  1  0
 24 27  1  0
 25 28  2  0
 27 29  1  0
M  END
>  <ID>  (1) 
conformer_0

$$$$
