
     RDKit          3D

 31 32  0  0  0  0  0  0  0  0999 V2000
   43.5664   36.0777   83.9162 C   0  0  0  0  0  0  0  0  0  0  0  0
   47.0748   36.1789   79.5683 O   0  0  0  0  0  0  0  0  0  0  0  0
   44.4511   36.1426   85.1664 C   0  0  0  0  0  0  0  0  0  0  0  0
   45.9803   36.3728   78.9497 C   0  0  0  0  0  0  0  0  0  0  0  0
   45.1425   35.7042   89.4925 C   0  0  0  0  0  0  0  0  0  0  0  0
   43.6583   37.0410   82.7532 C   0  0  0  0  0  0  0  0  0  0  0  0
   43.6023   39.1920   83.9288 C   0  0  0  0  0  0  0  0  0  0  0  0
   45.5524   35.5305   77.8832 C   0  0  0  0  0  0  0  0  0  0  0  0
   41.8546   40.9109   83.6839 C   0  0  0  0  0  0  0  0  0  0  0  0
   44.2734   38.2799   82.8991 C   0  0  0  0  0  0  0  0  0  0  0  0
   43.9439   35.1707   86.2451 C   0  0  0  0  0  0  0  0  0  0  0  0
   45.5096   36.2251   88.1871 C   0  0  0  0  0  0  0  0  0  0  0  0
   42.1722   39.4792   83.6417 C   0  0  0  0  0  0  0  0  0  0  0  0
   40.5655   41.0233   84.4104 C   0  0  0  0  0  0  0  0  0  0  0  0
   46.3772   37.4615   84.1602 C   0  0  0  0  0  0  0  0  0  0  0  0
   41.0728   38.6669   84.1931 C   0  0  0  0  0  0  0  0  0  0  0  0
   45.4977   36.1396   76.5179 C   0  0  0  0  0  0  0  0  0  0  0  0
   45.5204   38.0807   86.4643 C   0  0  0  0  0  0  0  0  0  0  0  0
   45.9905   37.2703   76.3120 O   0  0  0  0  0  0  0  0  0  0  0  0
   42.9702   41.7250   83.0427 C   0  0  0  0  0  0  0  0  0  0  0  0
   42.9173   35.3837   87.3151 C   0  0  0  0  0  0  0  0  0  0  0  0
   45.2539   37.6509   80.8649 C   0  0  0  0  0  0  0  0  0  0  0  0
   44.9400   37.0875   82.1272 C   0  0  0  0  0  0  0  0  0  0  0  0
   46.3717   35.3642   83.0429 O   0  0  0  0  0  0  0  0  0  0  0  0
   44.8099   37.5084   87.6808 C   0  0  0  0  0  0  0  0  0  0  0  0
   44.9641   37.1076   79.6225 N   0  0  0  0  0  0  0  0  0  0  0  0
   46.5641   35.7878   87.6053 O   0  0  0  0  0  0  0  0  0  0  0  0
   44.8900   35.4725   75.6309 O   0  0  0  0  0  0  0  0  0  0  0  0
   40.0117   39.5946   84.6638 C   0  0  0  0  0  0  0  0  0  0  0  0
   46.0699   36.6243   82.9611 C   0  0  0  0  0  0  0  0  0  0  0  0
   45.5339   37.0908   85.3581 C   0  0  0  0  0  0  0  0  0  0  0  0
  1  3  2  0
  1  6  1  0
  2  4  2  0
  3 11  1  0
  3 31  1  0
  4  8  1  0
  4 26  1  0
  5 12  1  0
  6 10  1  0
  6 23  1  0
  7 10  1  0
  7 13  1  0
  8 17  1  0
  9 13  1  0
  9 14  1  0
  9 20  1  0
 11 21  1  0
 12 25  1  0
 12 27  2  0
 13 16  1  0
 14 29  1  0
 15 30  1  0
 15 31  1  0
 16 29  1  0
 17 19  2  0
 17 28  1  0
 18 25  1  0
 18 31  1  0
 22 23  1  0
 22 26  1  0
 23 30  1  0
 24 30  1  0
M  END
>  <ID>  (1) 
conformer_0

$$$$
