
     RDKit          3D

 40 41  0  0  0  0  0  0  0  0999 V2000
   40.2387   38.9165   85.5634 C   0  0  0  0  0  0  0  0  0  0  0  0
   40.7486   36.9597   83.5564 C   0  0  0  0  0  0  0  0  0  0  0  0
   45.9513   36.5850   84.8219 C   0  0  0  0  0  0  0  0  0  0  0  0
   44.6539   40.2456   85.5059 O   0  0  0  0  0  0  0  0  0  0  0  0
   45.9692   36.2327   77.7727 C   0  0  0  0  0  0  0  0  0  0  0  0
   45.0556   34.7669   83.2056 O   0  0  0  0  0  0  0  0  0  0  0  0
   46.6098   36.6274   81.9590 C   0  0  0  0  0  0  0  0  0  0  0  0
   45.1371   36.5468   80.0270 C   0  0  0  0  0  0  0  0  0  0  0  0
   42.7836   41.5203   82.5986 C   0  0  0  0  0  0  0  0  0  0  0  0
   42.9135   40.9920   83.9770 C   0  0  0  0  0  0  0  0  0  0  0  0
   46.5531   36.5120   75.3553 C   0  0  0  0  0  0  0  0  0  0  0  0
   45.1297   35.4201   84.4131 C   0  0  0  0  0  0  0  0  0  0  0  0
   44.6193   38.8659   83.6072 C   0  0  0  0  0  0  0  0  0  0  0  0
   46.7325   35.1676   78.0275 O   0  0  0  0  0  0  0  0  0  0  0  0
   45.1116   37.0892   78.6442 C   0  0  0  0  0  0  0  0  0  0  0  0
   44.3377   36.3472   76.1242 O   0  0  0  0  0  0  0  0  0  0  0  0
   41.8134   36.5445   83.6484 F   0  0  0  0  0  0  0  0  0  0  0  0
   47.3048   36.3660   84.6100 O   0  0  0  0  0  0  0  0  0  0  0  0
   44.0726   41.4337   81.8064 C   0  0  0  0  0  0  0  0  0  0  0  0
   45.5656   36.7139   86.2663 C   0  0  0  0  0  0  0  0  0  0  0  0
   41.4948   38.3871   85.3250 C   0  0  0  0  0  0  0  0  0  0  0  0
   38.0068   39.2144   84.7031 C   0  0  0  0  0  0  0  0  0  0  0  0
   44.7339   35.6625   86.7302 C   0  0  0  0  0  0  0  0  0  0  0  0
   45.6002   36.3111   76.3329 C   0  0  0  0  0  0  0  0  0  0  0  0
   45.5139   35.7576   82.5220 C   0  0  0  0  0  0  0  0  0  0  0  0
   42.6334   38.9293   85.8185 O   0  0  0  0  0  0  0  0  0  0  0  0
   41.6275   37.3673   84.4262 C   0  0  0  0  0  0  0  0  0  0  0  0
   43.5371   39.7094   86.2679 C   0  0  0  0  0  0  0  0  0  0  0  0
   46.1127   37.7733   86.9562 O   0  0  0  0  0  0  0  0  0  0  0  0
   38.6494   40.2902   86.7260 C   0  0  0  0  0  0  0  0  0  0  0  0
   39.9016   39.7032   86.6184 C   0  0  0  0  0  0  0  0  0  0  0  0
   43.3146   40.2902   87.5785 C   0  0  0  0  0  0  0  0  0  0  0  0
   44.0827   40.5430   80.5873 C   0  0  0  0  0  0  0  0  0  0  0  0
   37.7069   40.0612   85.7319 C   0  0  0  0  0  0  0  0  0  0  0  0
   39.2573   38.5803   84.6120 C   0  0  0  0  0  0  0  0  0  0  0  0
   44.6671   34.6171   85.5910 C   0  0  0  0  0  0  0  0  0  0  0  0
   44.2808   40.3214   84.0877 C   0  0  0  0  0  0  0  0  0  0  0  0
   45.6198   37.8434   84.0953 C   0  0  0  0  0  0  0  0  0  0  0  0
   39.5033   37.5954   83.6322 C   0  0  0  0  0  0  0  0  0  0  0  0
   46.6066   36.4555   80.4691 C   0  0  0  0  0  0  0  0  0  0  0  0
  1 21  1  0
  1 31  2  0
  1 35  1  0
  2 17  1  0
  2 39  1  0
  3 12  1  0
  3 18  1  0
  3 20  1  0
  3 38  1  0
  4 28  1  0
  4 37  1  0
  5 14  1  0
  5 15  1  0
  5 24  1  0
  6 12  1  0
  6 25  1  0
  7 25  1  0
  7 40  1  0
  8 15  1  0
  8 40  1  0
  9 10  1  0
  9 19  1  0
 10 37  1  0
 11 24  1  0
 12 36  1  0
 13 37  1  0
 13 38  1  0
 16 24  2  0
 19 33  1  0
 20 23  1  0
 20 29  1  0
 21 26  1  0
 21 27  2  0
 22 34  2  0
 22 35  1  0
 23 36  1  0
 26 28  1  0
 28 32  1  0
 30 31  1  0
 30 34  1  0
 35 39  2  3
M  END
>  <ID>  (1) 
conformer_0

$$$$
