
     RDKit          3D

 25 27  0  0  0  0  0  0  0  0999 V2000
   45.7222   35.9931   77.5821 C   0  0  0  0  0  0  0  0  0  0  0  0
   42.3523   36.8723   84.9143 C   0  0  0  0  0  0  0  0  0  0  0  0
   42.0698   36.2836   86.1592 C   0  0  0  0  0  0  0  0  0  0  0  0
   44.5570   35.8949   84.9022 C   0  0  0  0  0  0  0  0  0  0  0  0
   43.0949   35.6367   86.8461 C   0  0  0  0  0  0  0  0  0  0  0  0
   45.8971   36.2315   82.7634 N   0  0  0  0  0  0  0  0  0  0  0  0
   45.7122   34.1335   83.6564 O   0  0  0  0  0  0  0  0  0  0  0  0
   44.1613   40.0270   81.1983 C   0  0  0  0  0  0  0  0  0  0  0  0
   45.1966   36.7584   78.6515 O   0  0  0  0  0  0  0  0  0  0  0  0
   44.1967   41.3476   80.4487 C   0  0  0  0  0  0  0  0  0  0  0  0
   43.6489   36.7938   84.3395 C   0  0  0  0  0  0  0  0  0  0  0  0
   45.8329   35.4856   84.0615 C   0  0  0  0  0  0  0  0  0  0  0  0
   46.9390   35.8033   84.8152 O   0  0  0  0  0  0  0  0  0  0  0  0
   44.2898   35.3921   86.1849 C   0  0  0  0  0  0  0  0  0  0  0  0
   45.6759   36.6903   79.9548 C   0  0  0  0  0  0  0  0  0  0  0  0
   43.5972   38.9738   83.3027 C   0  0  0  0  0  0  0  0  0  0  0  0
   44.9682   37.1585   82.3148 C   0  0  0  0  0  0  0  0  0  0  0  0
   45.3362   36.2888   76.2104 C   0  0  0  0  0  0  0  0  0  0  0  0
   44.6640   38.8918   80.5901 C   0  0  0  0  0  0  0  0  0  0  0  0
   46.6418   35.9659   80.2801 O   0  0  0  0  0  0  0  0  0  0  0  0
   42.9629   35.3171   88.2453 C   0  0  0  0  0  0  0  0  0  0  0  0
   44.0572   37.6534   83.2637 C   0  0  0  0  0  0  0  0  0  0  0  0
   45.0602   37.6209   80.9627 C   0  0  0  0  0  0  0  0  0  0  0  0
   43.6390   40.0545   82.5122 C   0  0  0  0  0  0  0  0  0  0  0  0
   46.6805   35.1738   77.7288 O   0  0  0  0  0  0  0  0  0  0  0  0
  1  9  1  0
  1 18  1  0
  1 25  2  0
  2  3  2  0
  2 11  1  0
  3  5  1  0
  4 11  1  0
  4 12  1  0
  4 14  1  0
  5 14  2  0
  5 21  1  0
  6 12  1  0
  6 17  2  0
  7 12  1  0
  8 10  1  0
  8 19  1  0
  8 24  1  0
  9 15  1  0
 11 22  1  0
 12 13  1  0
 15 20  2  0
 15 23  1  0
 16 22  1  0
 16 24  2  0
 17 22  1  0
 17 23  1  0
 19 23  2  0
M  END
>  <ID>  (1) 
conformer_0

$$$$
