
     RDKit          3D

 24 25  0  0  0  0  0  0  0  0999 V2000
   45.7830   36.6653   86.6143 O   0  0  0  0  0  0  0  0  0  0  0  0
   47.3136   36.7668   84.2537 O   0  0  0  0  0  0  0  0  0  0  0  0
   43.9158   40.2747   82.7655 C   0  0  0  0  0  0  0  0  0  0  0  0
   46.0749   38.1292   76.5058 C   0  0  0  0  0  0  0  0  0  0  0  0
   46.7402   35.0548   78.0659 O   0  0  0  0  0  0  0  0  0  0  0  0
   44.3401   39.5251   80.5476 C   0  0  0  0  0  0  0  0  0  0  0  0
   45.7379   36.7341   76.7704 C   0  0  0  0  0  0  0  0  0  0  0  0
   44.6748   38.2846   81.0912 C   0  0  0  0  0  0  0  0  0  0  0  0
   43.8030   35.7960   83.6924 C   0  0  0  0  0  0  0  0  0  0  0  0
   43.9544   40.5312   81.3953 C   0  0  0  0  0  0  0  0  0  0  0  0
   45.4894   35.9568   85.4839 C   0  0  0  0  0  0  0  0  0  0  0  0
   46.0188   36.6246   84.2295 C   0  0  0  0  0  0  0  0  0  0  0  0
   45.6508   35.6984   81.9635 C   0  0  0  0  0  0  0  0  0  0  0  0
   45.0115   36.5879   83.0899 C   0  0  0  0  0  0  0  0  0  0  0  0
   43.6344   41.7817   80.9255 F   0  0  0  0  0  0  0  0  0  0  0  0
   46.0471   34.5714   82.3592 O   0  0  0  0  0  0  0  0  0  0  0  0
   46.1230   36.1812   78.0908 C   0  0  0  0  0  0  0  0  0  0  0  0
   44.2567   39.0465   83.2589 C   0  0  0  0  0  0  0  0  0  0  0  0
   46.1163   36.1114   80.5825 C   0  0  0  0  0  0  0  0  0  0  0  0
   45.4037   36.4986   79.2978 C   0  0  0  0  0  0  0  0  0  0  0  0
   44.9808   35.9031   76.0520 O   0  0  0  0  0  0  0  0  0  0  0  0
   42.5239   36.6581   83.9567 C   0  0  0  0  0  0  0  0  0  0  0  0
   44.1735   35.3091   85.1362 C   0  0  0  0  0  0  0  0  0  0  0  0
   44.6586   37.9639   82.4606 C   0  0  0  0  0  0  0  0  0  0  0  0
  1 11  1  0
  2 12  1  0
  3 10  2  0
  3 18  1  0
  4  7  1  0
  5 17  2  0
  6  8  2  0
  6 10  1  0
  7 17  1  0
  7 21  1  0
  8 24  1  0
  9 14  1  0
  9 22  1  0
  9 23  1  0
 10 15  1  0
 11 12  1  0
 11 23  1  0
 12 14  1  0
 13 14  1  0
 13 16  2  0
 13 19  1  0
 14 24  1  0
 17 20  1  0
 18 24  2  0
 19 20  1  0
M  END
>  <ID>  (1) 
conformer_0

$$$$
