
     RDKit          3D

 14 14  0  0  0  0  0  0  0  0999 V2000
   43.5757   35.5410   86.1263 C   0  0  0  0  0  0  0  0  0  0  0  0
   44.5037   36.2635   83.5098 C   0  0  0  0  0  0  0  0  0  0  0  0
   46.7380   36.2410   84.5132 O   0  0  0  0  0  0  0  0  0  0  0  0
   45.8167   36.2496   77.5728 O   0  0  0  0  0  0  0  0  0  0  0  0
   45.0666   36.5670   82.2235 C   0  0  0  0  0  0  0  0  0  0  0  0
   44.9312   35.7427   85.8834 C   0  0  0  0  0  0  0  0  0  0  0  0
   44.5911   36.8473   80.9648 C   0  0  0  0  0  0  0  0  0  0  0  0
   46.3863   36.5535   82.1939 O   0  0  0  0  0  0  0  0  0  0  0  0
   42.7047   35.7172   85.0591 C   0  0  0  0  0  0  0  0  0  0  0  0
   45.4095   36.0886   84.5989 C   0  0  0  0  0  0  0  0  0  0  0  0
   45.0182   36.9153   79.7029 C   0  0  0  0  0  0  0  0  0  0  0  0
   46.0009   36.3462   78.8667 C   0  0  0  0  0  0  0  0  0  0  0  0
   47.1417   36.0659   79.2946 O   0  0  0  0  0  0  0  0  0  0  0  0
   43.1590   36.0755   83.7913 C   0  0  0  0  0  0  0  0  0  0  0  0
  1  6  2  0
  1  9  1  0
  2  5  1  0
  2 10  2  0
  2 14  1  0
  3 10  1  0
  4 12  2  0
  5  7  2  3
  5  8  1  0
  6 10  1  0
  7 11  1  0
  9 14  2  0
 11 12  1  0
 12 13  1  0
M  END
>  <ID>  (1) 
conformer_0

$$$$
