
     RDKit          3D

 32 36  0  0  0  0  0  0  0  0999 V2000
   44.8290   37.9681   81.4829 C   0  0  0  0  0  0  0  0  0  0  0  0
   43.6274   41.0797   85.3590 C   0  0  0  0  0  0  0  0  0  0  0  0
   41.3057   40.9103   84.9322 C   0  0  0  0  0  0  0  0  0  0  0  0
   44.1690   35.1737   86.0749 C   0  0  0  0  0  0  0  0  0  0  0  0
   44.8644   36.6954   72.8311 C   0  0  0  0  0  0  0  0  0  0  0  0
   45.3092   36.0312   75.5225 C   0  0  0  0  0  0  0  0  0  0  0  0
   44.3630   35.5103   73.3683 C   0  0  0  0  0  0  0  0  0  0  0  0
   45.7782   37.2328   75.0238 N   0  0  0  0  0  0  0  0  0  0  0  0
   42.6731   35.5162   85.6313 C   0  0  0  0  0  0  0  0  0  0  0  0
   46.8522   36.9585   85.4470 O   0  0  0  0  0  0  0  0  0  0  0  0
   42.0221   39.7027   84.3530 C   0  0  0  0  0  0  0  0  0  0  0  0
   45.5778   37.5195   73.6719 C   0  0  0  0  0  0  0  0  0  0  0  0
   42.4254   41.9130   85.3292 C   0  0  0  0  0  0  0  0  0  0  0  0
   45.8595   36.2274   80.1882 C   0  0  0  0  0  0  0  0  0  0  0  0
   45.4216   35.0067   83.5820 O   0  0  0  0  0  0  0  0  0  0  0  0
   45.1537   37.8594   83.9856 C   0  0  0  0  0  0  0  0  0  0  0  0
   45.6978   36.8579   84.8733 C   0  0  0  0  0  0  0  0  0  0  0  0
   45.5896   35.5988   76.9164 C   0  0  0  0  0  0  0  0  0  0  0  0
   43.4779   39.8352   84.6128 C   0  0  0  0  0  0  0  0  0  0  0  0
   44.9026   41.0441   85.9999 C   0  0  0  0  0  0  0  0  0  0  0  0
   45.5014   39.8358   85.6434 C   0  0  0  0  0  0  0  0  0  0  0  0
   45.5985   35.9137   82.5029 C   0  0  0  0  0  0  0  0  0  0  0  0
   46.6271   39.5010   86.2707 O   0  0  0  0  0  0  0  0  0  0  0  0
   45.1863   37.2624   82.6424 C   0  0  0  0  0  0  0  0  0  0  0  0
   46.3906   35.7931   79.0205 O   0  0  0  0  0  0  0  0  0  0  0  0
   45.1385   37.3984   80.2335 C   0  0  0  0  0  0  0  0  0  0  0  0
   45.8333   36.5729   77.9113 C   0  0  0  0  0  0  0  0  0  0  0  0
   44.5996   35.1811   74.6808 C   0  0  0  0  0  0  0  0  0  0  0  0
   45.1026   35.5804   84.8930 C   0  0  0  0  0  0  0  0  0  0  0  0
   43.9598   35.5765   87.6079 C   0  0  0  0  0  0  0  0  0  0  0  0
   44.7253   39.1047   84.6256 C   0  0  0  0  0  0  0  0  0  0  0  0
   46.0873   35.4478   81.2822 C   0  0  0  0  0  0  0  0  0  0  0  0
  1 24  1  0
  1 26  2  0
  2 13  1  0
  2 19  2  0
  2 20  1  0
  3 11  1  0
  3 13  1  0
  4  9  1  0
  4 29  1  0
  4 30  1  0
  5  7  2  0
  5 12  1  0
  6  8  1  0
  6 18  1  0
  6 28  2  0
  7 28  1  0
  8 12  2  0
 10 17  1  0
 11 19  1  0
 14 25  1  0
 14 26  1  0
 14 32  2  0
 15 22  1  0
 15 29  1  0
 16 17  1  0
 16 24  2  0
 16 31  1  0
 17 29  1  0
 18 27  1  0
 19 31  1  0
 20 21  1  0
 21 23  1  0
 21 31  2  0
 22 24  1  0
 22 32  1  0
 25 27  1  0
M  END
>  <ID>  (1) 
conformer_0

$$$$
