
     RDKit          3D

 24 25  0  0  0  0  0  0  0  0999 V2000
   41.0422   36.5728   83.9915 C   0  0  0  0  0  0  0  0  0  0  0  0
   47.4738   36.1028   85.0042 O   0  0  0  0  0  1  0  0  0  0  0  0
   41.6532   38.8326   84.2038 O   0  0  0  0  0  0  0  0  0  0  0  0
   45.6973   36.6000   81.6449 C   0  0  0  0  0  0  0  0  0  0  0  0
   42.4768   36.7623   83.6733 C   0  0  0  0  0  0  0  0  0  0  0  0
   45.1844   36.8992   84.0647 C   0  0  0  0  0  0  0  0  0  0  0  0
   45.5406   34.5824   83.0643 O   0  0  0  0  0  0  0  0  0  0  0  0
   45.2552   38.3142   83.6633 C   0  0  0  0  0  0  0  0  0  0  0  0
   42.8139   38.1444   83.9769 C   0  0  0  0  0  0  0  0  0  0  0  0
   46.8360   36.2119   79.4891 N   0  0  0  0  0  0  0  0  0  0  0  0
   46.2259   35.7705   78.3460 C   0  0  0  0  0  0  0  0  0  0  0  0
   44.9251   37.0280   75.2574 N   0  0  0  0  0  0  0  0  0  0  0  0
   40.5502   37.9037   84.4471 C   0  0  0  0  0  0  0  0  0  0  0  0
   45.3246   34.0371   77.0849 C   0  0  0  0  0  0  0  0  0  0  0  0
   45.3379   35.1307   86.2208 O   0  0  0  0  0  0  0  0  0  0  0  0
   43.9285   38.8778   83.4992 O   0  0  0  0  0  0  0  0  0  0  0  0
   45.8409   34.4249   78.2447 C   0  0  0  0  0  0  0  0  0  0  0  0
   46.0979   36.4453   85.5072 P   0  0  0  0  0  4  0  0  0  0  0  0
   45.9918   36.6264   77.3073 N   0  0  0  0  0  0  0  0  0  0  0  0
   45.3079   36.1950   76.2145 C   0  0  0  0  0  0  0  0  0  0  0  0
   46.1347   37.6243   86.5557 O   0  0  0  0  0  0  0  0  0  0  0  0
   46.4445   35.9340   80.6662 C   0  0  0  0  0  0  0  0  0  0  0  0
   45.4272   35.9259   82.9553 C   0  0  0  0  0  0  0  0  0  0  0  0
   45.0026   34.8678   76.0775 N   0  0  0  0  0  0  0  0  0  0  0  0
  1  5  1  0
  1 13  1  0
  2 18  2  0
  3  9  1  0
  3 13  1  0
  4 22  2  3
  4 23  1  0
  5  9  1  0
  6  8  1  0
  6 18  1  0
  6 23  1  0
  7 23  1  0
  8 16  1  0
  9 16  1  0
 10 11  1  0
 10 22  1  0
 11 17  1  0
 11 19  2  0
 12 20  2  0
 14 17  2  0
 14 24  1  0
 15 18  1  0
 18 21  1  0
 19 20  1  0
 20 24  1  0
M  END
>  <ID>  (1) 
conformer_0

$$$$
