
     RDKit          3D

 22 23  0  0  0  0  0  0  0  0999 V2000
   44.2640   40.2382   80.6708 C   0  0  0  0  0  0  0  0  0  0  0  0
   45.3444   36.8375   78.7628 O   0  0  0  0  0  0  0  0  0  0  0  0
   44.7021   36.0265   84.2685 C   0  0  0  0  0  0  0  0  0  0  0  0
   45.4305   36.7469   80.0637 C   0  0  0  0  0  0  0  0  0  0  0  0
   44.6206   37.4390   82.2574 C   0  0  0  0  0  0  0  0  0  0  0  0
   46.5246   36.8115   76.6267 O   0  0  0  0  0  0  0  0  0  0  0  0
   46.1299   35.6978   80.8014 O   0  0  0  0  0  0  0  0  0  0  0  0
   45.1788   36.3207   82.9322 C   0  0  0  0  0  0  0  0  0  0  0  0
   43.2690   35.0253   88.2360 C   0  0  0  0  0  0  0  0  0  0  0  0
   46.0648   35.5114   82.1881 O   0  0  0  0  0  0  0  0  0  0  0  0
   46.2590   34.7574   77.8729 O   0  0  0  0  0  0  0  0  0  0  0  0
   44.7972   37.6935   80.8665 C   0  0  0  0  0  0  0  0  0  0  0  0
   43.9113   38.3419   83.0027 O   0  0  0  0  0  0  0  0  0  0  0  0
   43.3224   35.9330   84.6031 C   0  0  0  0  0  0  0  0  0  0  0  0
   46.9030   35.9039   85.1342 O   0  0  0  0  0  0  0  0  0  0  0  0
   43.7676   35.3521   86.8975 C   0  0  0  0  0  0  0  0  0  0  0  0
   42.8848   35.5774   85.8636 C   0  0  0  0  0  0  0  0  0  0  0  0
   44.3727   35.8281   76.7783 O   0  0  0  0  0  0  0  0  0  0  0  0
   44.2869   38.8687   80.3177 O   0  0  0  0  0  0  0  0  0  0  0  0
   45.1274   35.4326   86.6343 C   0  0  0  0  0  0  0  0  0  0  0  0
   45.5986   35.7760   85.3473 C   0  0  0  0  0  0  0  0  0  0  0  0
   45.6249   36.0423   77.4939 S   0  0  0  0  0  4  0  0  0  0  0  0
  1 19  1  0
  2  4  1  0
  2 22  1  0
  3  8  1  0
  3 14  2  0
  3 21  1  0
  4  7  1  0
  4 12  2  0
  5  8  2  0
  5 12  1  0
  5 13  1  0
  6 22  1  0
  7 10  1  0
  8 10  1  0
  9 16  1  0
 11 22  1  0
 12 19  1  0
 14 17  1  0
 15 21  1  0
 16 17  2  0
 16 20  1  0
 18 22  1  0
 20 21  2  0
M  END
>  <ID>  (1) 
conformer_0

$$$$
