
     RDKit          3D

 19 19  0  0  0  0  0  0  0  0999 V2000
   45.5283   36.6823   78.1775 N   0  0  0  0  0  0  0  0  0  0  0  0
   44.8317   35.8860   84.8165 C   0  0  0  0  0  0  0  0  0  0  0  0
   43.7970   35.0372   86.7934 C   0  0  0  0  0  0  0  0  0  0  0  0
   45.2917   36.0127   75.9626 C   0  0  0  0  0  0  0  0  0  0  0  0
   43.5748   36.1689   84.2966 C   0  0  0  0  0  0  0  0  0  0  0  0
   45.5998   35.4637   77.3462 C   0  0  0  0  0  0  0  0  0  0  0  0
   47.0610   36.1692   79.7424 O   0  0  0  0  0  0  0  0  0  0  0  0
   44.9243   35.3029   86.0582 C   0  0  0  0  0  0  0  0  0  0  0  0
   46.0533   36.6079   82.6630 C   0  0  0  0  0  0  0  0  0  0  0  0
   45.6053   38.0752   82.5467 C   0  0  0  0  0  0  0  0  0  0  0  0
   42.4444   35.9093   85.0237 C   0  0  0  0  0  0  0  0  0  0  0  0
   44.8334   37.0150   80.4152 C   0  0  0  0  0  0  0  0  0  0  0  0
   47.2116   36.2158   84.6498 O   0  0  0  0  0  0  0  0  0  0  0  0
   42.5647   35.3303   86.2667 C   0  0  0  0  0  0  0  0  0  0  0  0
   45.9423   36.6322   79.4630 C   0  0  0  0  0  0  0  0  0  0  0  0
   45.1402   38.4269   81.0810 C   0  0  0  0  0  0  0  0  0  0  0  0
   46.0887   36.8526   75.5627 O   0  0  0  0  0  0  0  0  0  0  0  0
   46.0686   36.1730   84.0798 C   0  0  0  0  0  0  0  0  0  0  0  0
   44.1815   35.6696   75.5660 O   0  0  0  0  0  0  0  0  0  0  0  0
  1  6  1  0
  1 15  1  0
  2  5  2  0
  2  8  1  0
  2 18  1  0
  3  8  2  0
  3 14  1  0
  4  6  1  0
  4 17  2  0
  4 19  1  0
  5 11  1  0
  7 15  2  0
  9 10  1  0
  9 18  1  0
 10 16  1  0
 11 14  2  0
 12 15  1  0
 12 16  1  0
 13 18  2  0
M  END
>  <ID>  (1) 
conformer_0

$$$$
