
     RDKit          3D

 23 23  0  0  0  0  0  0  0  0999 V2000
   45.8008   36.6284   75.6599 C   0  0  0  0  0  0  0  0  0  0  0  0
   42.1487   36.4873   85.9244 C   0  0  0  0  0  0  0  0  0  0  0  0
   46.1168   36.9516   77.0446 C   0  0  0  0  0  0  0  0  0  0  0  0
   43.8495   37.5393   84.7286 C   0  0  0  0  0  0  0  0  0  0  0  0
   45.5065   35.1659   85.5678 N   0  0  0  0  0  0  0  0  0  0  0  0
   43.5693   36.5306   85.6588 C   0  0  0  0  0  0  0  0  0  0  0  0
   45.3803   36.5054   79.3372 C   0  0  0  0  0  0  0  0  0  0  0  0
   45.5186   37.8814   74.8339 C   0  0  0  0  0  0  0  0  0  0  0  0
   42.2013   37.4254   82.7981 C   0  0  0  0  0  0  0  0  0  0  0  0
   47.6782   36.1429   79.7565 O   0  0  0  0  0  0  0  0  0  0  0  0
   42.4737   39.5669   84.1655 C   0  0  0  0  0  0  0  0  0  0  0  0
   44.6792   35.6219   75.5173 C   0  0  0  0  0  0  0  0  0  0  0  0
   44.4797   35.5792   86.1925 C   0  0  0  0  0  0  0  0  0  0  0  0
   45.1230   37.8921   84.0758 C   0  0  0  0  0  0  0  0  0  0  0  0
   46.4781   35.9690   80.1846 C   0  0  0  0  0  0  0  0  0  0  0  0
   44.9256   38.3326   82.5826 C   0  0  0  0  0  0  0  0  0  0  0  0
   42.5524   38.0374   84.1461 C   0  0  0  0  0  0  0  0  0  0  0  0
   45.6048   37.4508   81.7382 N   0  0  0  0  0  0  0  0  0  0  0  0
   46.2049   36.1980   81.6130 C   0  0  0  0  0  0  0  0  0  0  0  0
   46.3196   35.2873   82.4556 O   0  0  0  0  0  0  0  0  0  0  0  0
   44.2742   35.2192   87.4040 N   0  0  0  0  0  0  0  0  0  0  0  0
   45.5860   35.8817   77.9788 C   0  0  0  0  0  0  0  0  0  0  0  0
   41.5009   37.5066   85.1213 C   0  0  0  0  0  0  0  0  0  0  0  0
  1  3  1  0
  1  8  1  0
  1 12  1  0
  2  6  1  0
  2 23  1  0
  3 22  1  0
  4  6  2  0
  4 14  1  0
  4 17  1  0
  5 13  2  0
  6 13  1  0
  7 15  1  0
  7 22  1  0
  9 17  1  0
 10 15  1  0
 11 17  1  0
 13 21  1  0
 14 16  1  0
 15 19  1  0
 16 18  1  0
 17 23  1  0
 18 19  1  0
 19 20  2  0
M  END
>  <ID>  (1) 
conformer_0

$$$$
