
     RDKit          3D

 28 30  0  0  0  0  0  0  0  0999 V2000
   45.9017   36.2469   78.3227 C   0  0  0  0  0  0  0  0  0  0  0  0
   43.5120   39.7834   83.5366 C   0  0  0  0  0  0  0  0  0  0  0  0
   44.9950   36.3861   74.7775 O   0  0  0  0  0  0  0  0  0  0  0  0
   44.9665   38.3240   80.2732 C   0  0  0  0  0  0  0  0  0  0  0  0
   44.7613   37.6904   82.9178 C   0  0  0  0  0  0  0  0  0  0  0  0
   46.5345   37.8246   86.5389 O   0  0  0  0  0  0  0  0  0  0  0  0
   46.0777   35.3580   82.8558 S   0  0  0  0  0  0  0  0  0  0  0  0
   45.1757   35.9539   86.0628 C   0  0  0  0  0  0  0  0  0  0  0  0
   44.3431   39.1783   81.1454 C   0  0  0  0  0  0  0  0  0  0  0  0
   45.5431   37.1118   80.7082 C   0  0  0  0  0  0  0  0  0  0  0  0
   46.3469   36.3155   79.7477 C   0  0  0  0  0  0  0  0  0  0  0  0
   45.2928   35.5949   84.6633 C   0  0  0  0  0  0  0  0  0  0  0  0
   45.8861   37.8825   76.1686 O   0  0  0  0  0  0  0  0  0  0  0  0
   43.9476   35.7488   86.7862 O   0  0  0  0  0  0  0  0  0  0  0  0
   45.5026   36.7101   75.8663 C   0  0  0  0  0  0  0  0  0  0  0  0
   41.8249   36.9659   86.4563 O   0  0  0  0  0  0  0  0  0  0  0  0
   46.0747   36.3302   88.2003 O   0  0  0  0  0  0  0  0  0  0  0  0
   43.8689   40.7258   80.5770 Cl  0  0  0  0  0  0  0  0  0  0  0  0
   40.9668   37.1629   85.2750 C   0  0  0  0  0  0  0  0  0  0  0  0
   43.8995   35.2240   84.2079 O   0  0  0  0  0  0  0  0  0  0  0  0
   46.0810   36.7170   87.0115 C   0  0  0  0  0  0  0  0  0  0  0  0
   42.8487   35.9267   84.6748 C   0  0  0  0  0  0  0  0  0  0  0  0
   45.3681   35.6898   77.0001 C   0  0  0  0  0  0  0  0  0  0  0  0
   45.3890   36.8026   82.1109 C   0  0  0  0  0  0  0  0  0  0  0  0
   41.6073   36.4033   84.1400 C   0  0  0  0  0  0  0  0  0  0  0  0
   47.5220   36.0981   79.9941 O   0  0  0  0  0  0  0  0  0  0  0  0
   42.7021   35.8907   86.1760 C   0  0  0  0  0  0  0  0  0  0  0  0
   44.2075   38.8512   82.5179 C   0  0  0  0  0  0  0  0  0  0  0  0
  1 11  1  0
  1 23  1  0
  2 28  1  0
  3 15  2  0
  4  9  2  0
  4 10  1  0
  5 24  1  0
  5 28  2  0
  6 21  2  0
  7 12  1  0
  7 24  1  0
  8 12  2  0
  8 14  1  0
  8 21  1  0
  9 18  1  0
  9 28  1  0
 10 11  1  0
 10 24  2  0
 11 26  2  0
 12 20  1  0
 13 15  1  0
 14 27  1  0
 15 23  1  0
 16 19  1  0
 16 27  1  0
 17 21  1  0
 19 25  1  0
 20 22  1  0
 22 25  1  0
 22 27  1  0
M  END
>  <ID>  (1) 
conformer_0

$$$$
