
     RDKit          3D

 21 22  0  0  0  0  0  0  0  0999 V2000
   45.3259   35.5802   83.5070 C   0  0  0  0  0  0  0  0  0  0  0  0
   42.8605   37.5744   83.2908 C   0  0  0  0  0  0  0  0  0  0  0  0
   45.3413   34.9842   85.9772 O   0  0  0  0  0  0  0  0  0  0  0  0
   41.6243   37.0691   83.0492 O   0  0  0  0  0  0  0  0  0  0  0  0
   45.3900   36.3674   79.7495 C   0  0  0  0  0  0  0  0  0  0  0  0
   46.2849   35.9977   77.5629 O   0  0  0  0  0  0  0  0  0  0  0  0
   46.0316   35.4475   82.2759 O   0  0  0  0  0  0  0  0  0  0  0  0
   47.6220   36.1208   79.3114 O   0  0  0  0  0  0  0  0  0  0  0  0
   43.2908   35.7767   84.6427 C   0  0  0  0  0  0  0  0  0  0  0  0
   46.4655   36.1262   78.7989 C   0  0  0  0  0  0  0  0  0  0  0  0
   45.1580   37.9000   83.3533 C   0  0  0  0  0  0  0  0  0  0  0  0
   45.6028   37.7345   81.8490 C   0  0  0  0  0  0  0  0  0  0  0  0
   41.7181   39.6238   84.0753 C   0  0  0  0  0  0  0  0  0  0  0  0
   42.8571   38.7242   84.2945 C   0  0  0  0  0  0  0  0  0  0  0  0
   43.3470   38.1823   85.6209 C   0  0  0  0  0  0  0  0  0  0  0  0
   44.1447   36.6755   83.5998 C   0  0  0  0  0  0  0  0  0  0  0  0
   43.0396   36.6810   85.8347 C   0  0  0  0  0  0  0  0  0  0  0  0
   46.9985   35.9893   85.0301 O   0  0  0  0  0  0  0  0  0  0  0  0
   45.9100   35.4493   84.9372 C   0  0  0  0  0  0  0  0  0  0  0  0
   44.5027   37.2872   79.4201 O   0  0  0  0  0  0  0  0  0  0  0  0
   45.7775   36.3332   81.1890 C   0  0  0  0  0  0  0  0  0  0  0  0
  1  7  1  0
  1 16  1  0
  1 19  1  0
  2  4  1  0
  2 14  1  0
  2 16  1  0
  3 19  2  0
  5 10  1  0
  5 20  1  0
  5 21  1  0
  6 10  2  0
  7 21  1  0
  8 10  1  0
  9 16  1  0
  9 17  1  0
 11 12  1  0
 11 16  1  0
 12 21  1  0
 13 14  1  0
 14 15  1  0
 15 17  1  0
 18 19  1  0
M  END
>  <ID>  (1) 
conformer_0

$$$$
