
     RDKit          3D

 28 30  0  0  0  0  0  0  0  0999 V2000
   44.8038   37.4200   88.8440 C   0  0  0  0  0  0  0  0  0  0  0  0
   46.4439   36.8425   80.9458 C   0  0  0  0  0  0  0  0  0  0  0  0
   45.7293   36.4705   76.2865 O   0  0  0  0  0  0  0  0  0  0  0  0
   43.3763   35.9476   84.2682 C   0  0  0  0  0  0  0  0  0  0  0  0
   43.0455   37.0451   83.2962 C   0  0  0  0  0  0  0  0  0  0  0  0
   43.7650   38.2679   83.2979 C   0  0  0  0  0  0  0  0  0  0  0  0
   45.8774   36.3115   86.9332 C   0  0  0  0  0  0  0  0  0  0  0  0
   46.0631   35.8733   79.8542 C   0  0  0  0  0  0  0  0  0  0  0  0
   43.9502   41.5539   79.9650 C   0  0  0  0  0  0  0  0  0  0  0  0
   41.2194   36.7997   84.7695 C   0  0  0  0  0  0  0  0  0  0  0  0
   43.4542   39.2855   84.1528 S   0  0  0  0  0  0  0  0  0  0  0  0
   44.8335   36.3504   84.6340 C   0  0  0  0  0  0  0  0  0  0  0  0
   44.8354   38.5445   82.1780 C   0  0  0  0  0  0  0  0  0  0  0  0
   45.5200   36.3189   83.2652 C   0  0  0  0  0  0  0  0  0  0  0  0
   45.9089   35.9147   77.3958 C   0  0  0  0  0  0  0  0  0  0  0  0
   42.4578   36.2050   85.4501 C   0  0  0  0  0  0  0  0  0  0  0  0
   45.5107   36.2004   88.3702 C   0  0  0  0  0  0  0  0  0  0  0  0
   44.3429   40.0346   81.7636 C   0  0  0  0  0  0  0  0  0  0  0  0
   44.7481   35.9664   86.0998 C   0  0  0  0  0  0  0  0  0  0  0  0
   46.7342   37.1835   86.3693 O   0  0  0  0  0  0  0  0  0  0  0  0
   45.3504   37.0906   81.9391 C   0  0  0  0  0  0  0  0  0  0  0  0
   41.5530   37.0743   83.3256 C   0  0  0  0  0  0  0  0  0  0  0  0
   43.4549   36.3846   86.5773 O   0  0  0  0  0  0  0  0  0  0  0  0
   46.6025   34.8473   77.5459 O   0  0  0  0  0  0  0  0  0  0  0  0
   45.5827   36.6991   78.6547 C   0  0  0  0  0  0  0  0  0  0  0  0
   46.1359   35.1786   83.0955 O   0  0  0  0  0  0  0  0  0  0  0  0
   41.3964   35.8155   82.4999 C   0  0  0  0  0  0  0  0  0  0  0  0
   44.4001   40.1661   80.2764 C   0  0  0  0  0  0  0  0  0  0  0  0
  1 17  1  0
  2  8  1  0
  2 21  1  0
  3 15  2  0
  4  5  1  0
  4 12  1  0
  4 16  1  0
  5  6  1  0
  5 22  1  0
  6 11  2  0
  6 13  1  0
  7 17  1  0
  7 19  1  0
  7 20  1  0
  8 25  1  0
  9 28  1  0
 10 16  1  0
 10 22  1  0
 12 14  1  0
 12 19  1  0
 13 18  1  0
 13 21  1  0
 14 21  1  0
 14 26  1  0
 15 24  1  0
 15 25  1  0
 16 23  1  0
 18 28  1  0
 19 23  1  0
 22 27  1  0
M  END
>  <ID>  (1) 
conformer_0

$$$$
