
     RDKit          3D

 27 29  0  0  0  0  0  0  0  0999 V2000
   46.5672   36.8767   84.6713 C   0  0  0  0  0  0  0  0  0  0  0  0
   45.3953   37.7276   81.2733 C   0  0  0  0  0  0  0  0  0  0  0  0
   45.2194   34.6885   77.0897 C   0  0  0  0  0  0  0  0  0  0  0  0
   45.1165   36.3944   74.9084 C   0  0  0  0  0  0  0  0  0  0  0  0
   44.0756   38.2794   83.1790 C   0  0  0  0  0  0  0  0  0  0  0  0
   46.2802   36.4041   79.3695 C   0  0  0  0  0  0  0  0  0  0  0  0
   44.8061   35.0853   74.7378 C   0  0  0  0  0  0  0  0  0  0  0  0
   46.0589   35.3142   82.9328 O   0  0  0  0  0  0  0  0  0  0  0  0
   44.9124   38.8632   80.5872 C   0  0  0  0  0  0  0  0  0  0  0  0
   45.8516   36.5400   83.4142 C   0  0  0  0  0  0  0  0  0  0  0  0
   41.4114   36.3468   85.8222 C   0  0  0  0  0  0  0  0  0  0  0  0
   42.7980   38.2317   85.3003 C   0  0  0  0  0  0  0  0  0  0  0  0
   44.8750   34.2027   75.8261 C   0  0  0  0  0  0  0  0  0  0  0  0
   46.1134   37.4007   85.7558 O   0  0  0  0  0  0  0  0  0  0  0  0
   47.3517   35.9755   79.1241 O   0  0  0  0  0  0  0  0  0  0  0  0
   47.6723   36.3684   84.7503 O   0  0  0  0  0  0  0  0  0  0  0  0
   42.9027   36.2407   83.9803 C   0  0  0  0  0  0  0  0  0  0  0  0
   45.4067   36.9174   76.1766 C   0  0  0  0  0  0  0  0  0  0  0  0
   41.9644   35.6628   84.7448 C   0  0  0  0  0  0  0  0  0  0  0  0
   41.8339   37.6519   86.0971 C   0  0  0  0  0  0  0  0  0  0  0  0
   45.3572   36.0633   77.2718 C   0  0  0  0  0  0  0  0  0  0  0  0
   44.0862   39.8205   81.2748 C   0  0  0  0  0  0  0  0  0  0  0  0
   45.2655   36.6201   78.5287 O   0  0  0  0  0  0  0  0  0  0  0  0
   43.2903   37.5857   84.1797 C   0  0  0  0  0  0  0  0  0  0  0  0
   45.1061   37.5324   82.6270 C   0  0  0  0  0  0  0  0  0  0  0  0
   46.1460   36.7425   80.6983 N   0  0  0  0  0  0  0  0  0  0  0  0
   43.7230   39.5254   82.5865 C   0  0  0  0  0  0  0  0  0  0  0  0
  1 10  1  0
  1 14  2  0
  1 16  1  0
  2  9  2  0
  2 25  1  0
  2 26  1  0
  3 13  2  0
  3 21  1  0
  4  7  2  0
  4 18  1  0
  5 24  1  0
  5 25  1  0
  5 27  1  0
  6 15  2  0
  6 23  1  0
  6 26  1  0
  7 13  1  0
  8 10  1  0
  9 22  1  0
 10 25  1  0
 11 19  2  0
 11 20  1  0
 12 20  2  0
 12 24  1  0
 17 19  1  0
 17 24  2  0
 18 21  2  0
 21 23  1  0
 22 27  2  0
M  END
>  <ID>  (1) 
conformer_0

$$$$
