
     RDKit          3D

 28 29  0  0  0  0  0  0  0  0999 V2000
   46.6713   34.9720   77.6734 O   0  0  0  0  0  0  0  0  0  0  0  0
   44.7296   37.9061   81.0692 C   0  0  0  0  0  0  0  0  0  0  0  0
   44.7476   37.5786   82.4661 C   0  0  0  0  0  0  0  0  0  0  0  0
   43.8033   35.2935   87.5939 C   0  0  0  0  0  0  0  0  0  0  0  0
   42.6733   35.9402   83.6061 O   0  0  0  0  0  0  0  0  0  0  0  0
   45.7887   37.2364   75.8157 C   0  0  0  0  0  0  0  0  0  0  0  0
   44.3345   39.2171   80.7016 C   0  0  0  0  0  0  0  0  0  0  0  0
   44.5168   35.8384   85.3267 C   0  0  0  0  0  0  0  0  0  0  0  0
   44.4037   38.5760   83.3920 C   0  0  0  0  0  0  0  0  0  0  0  0
   46.8739   36.1797   84.5769 O   0  0  0  0  0  0  0  0  0  0  0  0
   41.4326   36.5260   83.3760 C   0  0  0  0  0  0  0  0  0  0  0  0
   45.6869   34.4591   82.2633 S   0  0  0  0  0  0  0  0  0  0  0  0
   45.0068   37.0120   80.1123 N   0  0  0  0  0  0  0  0  0  0  0  0
   46.6617   36.6963   75.1132 O   0  0  0  0  0  0  0  0  0  0  0  0
   43.9912   40.1785   81.6394 C   0  0  0  0  0  0  0  0  0  0  0  0
   43.1359   35.7944   84.9211 C   0  0  0  0  0  0  0  0  0  0  0  0
   44.7906   35.6034   86.6933 C   0  0  0  0  0  0  0  0  0  0  0  0
   47.0982   36.0302   80.0805 O   0  0  0  0  0  0  0  0  0  0  0  0
   46.0652   35.7018   87.1963 O   0  0  0  0  0  0  0  0  0  0  0  0
   45.1802   36.2601   82.8948 C   0  0  0  0  0  0  0  0  0  0  0  0
   42.1565   35.5402   85.8784 C   0  0  0  0  0  0  0  0  0  0  0  0
   45.6148   38.4951   75.9709 O   0  0  0  0  0  0  0  0  0  0  0  0
   44.0070   39.8457   83.0118 C   0  0  0  0  0  0  0  0  0  0  0  0
   45.0445   36.3510   76.8109 C   0  0  0  0  0  0  0  0  0  0  0  0
   45.6039   36.1046   84.3468 C   0  0  0  0  0  0  0  0  0  0  0  0
   42.4940   35.2759   87.1781 C   0  0  0  0  0  0  0  0  0  0  0  0
   46.0655   36.3384   79.5082 C   0  0  0  0  0  0  0  0  0  0  0  0
   45.9460   36.1065   78.0173 C   0  0  0  0  0  0  0  0  0  0  0  0
  1 28  1  0
  2  3  1  0
  2  7  2  0
  2 13  1  0
  3  9  1  0
  3 20  1  0
  4 17  2  0
  4 26  1  0
  5 11  1  0
  5 16  1  0
  6 14  2  0
  6 22  1  0
  6 24  1  0
  7 15  1  0
  8 16  1  0
  8 17  1  0
  8 25  2  3
  9 23  2  0
 10 25  1  0
 12 20  1  0
 13 27  1  0
 15 23  1  0
 16 21  1  0
 17 19  1  0
 18 27  2  0
 20 25  1  0
 21 26  2  0
 24 28  1  0
 27 28  1  0
M  END
>  <ID>  (1) 
conformer_0

$$$$
