
     RDKit          3D

 27 30  0  0  0  0  0  0  0  0999 V2000
   45.3381   37.9588   80.2117 C   0  0  0  0  0  0  0  0  0  0  0  0
   45.7991   35.6390   77.3682 C   0  0  0  0  0  0  0  0  0  0  0  0
   46.1256   36.9240   76.9402 C   0  0  0  0  0  0  0  0  0  0  0  0
   44.6585   38.4705   81.2840 C   0  0  0  0  0  0  0  0  0  0  0  0
   45.4343   36.6710   82.6965 C   0  0  0  0  0  0  0  0  0  0  0  0
   44.9850   34.7949   76.6240 C   0  0  0  0  0  0  0  0  0  0  0  0
   43.6042   40.8841   81.4261 C   0  0  0  0  0  0  0  0  0  0  0  0
   45.6665   37.3519   75.6907 C   0  0  0  0  0  0  0  0  0  0  0  0
   43.0413   39.4334   83.4386 C   0  0  0  0  0  0  0  0  0  0  0  0
   46.0278   36.7544   80.3714 C   0  0  0  0  0  0  0  0  0  0  0  0
   45.5903   36.1754   84.0710 C   0  0  0  0  0  0  0  0  0  0  0  0
   43.7791   38.1370   83.6656 C   0  0  0  0  0  0  0  0  0  0  0  0
   44.4913   35.2728   75.3902 C   0  0  0  0  0  0  0  0  0  0  0  0
   43.3432   40.8296   82.9331 C   0  0  0  0  0  0  0  0  0  0  0  0
   46.3419   36.4078   87.2697 O   0  0  0  0  0  0  0  0  0  0  0  0
   46.8824   36.1785   79.3465 C   0  0  0  0  0  0  0  0  0  0  0  0
   44.0701   39.7033   81.0130 O   0  0  0  0  0  0  0  0  0  0  0  0
   45.5238   35.2909   87.0882 C   0  0  0  0  0  0  0  0  0  0  0  0
   44.6382   37.7784   82.5234 C   0  0  0  0  0  0  0  0  0  0  0  0
   46.0605   36.1098   81.5917 C   0  0  0  0  0  0  0  0  0  0  0  0
   43.0974   35.0008   86.7242 C   0  0  0  0  0  0  0  0  0  0  0  0
   46.7272   35.9009   84.4019 O   0  0  0  0  0  0  0  0  0  0  0  0
   44.4107   35.4681   86.1498 C   0  0  0  0  0  0  0  0  0  0  0  0
   44.8417   36.5334   74.9239 C   0  0  0  0  0  0  0  0  0  0  0  0
   44.5181   36.2090   84.9526 N   0  0  0  0  0  0  0  0  0  0  0  0
   43.3088   37.0076   84.4861 C   0  0  0  0  0  0  0  0  0  0  0  0
   46.3065   35.1236   78.6284 O   0  0  0  0  0  0  0  0  0  0  0  0
  1  4  2  0
  1 10  1  0
  2  3  2  0
  2  6  1  0
  2 27  1  0
  3  8  1  0
  4 17  1  0
  4 19  1  0
  5 11  1  0
  5 19  2  0
  5 20  1  0
  6 13  2  0
  7 14  1  0
  7 17  1  0
  8 24  2  0
  9 12  1  0
  9 14  1  0
 10 16  1  0
 10 20  2  0
 11 22  2  0
 11 25  1  0
 12 19  1  0
 12 26  1  0
 13 24  1  0
 15 18  1  0
 16 27  1  0
 18 23  1  0
 21 23  1  0
 23 25  1  0
 25 26  1  0
M  END
>  <ID>  (1) 
conformer_0

$$$$
