
     RDKit          3D

 28 30  0  0  0  0  0  0  0  0999 V2000
   44.3338   36.2181   86.6750 C   0  0  0  0  0  0  0  0  0  0  0  0
   46.6134   35.1694   78.4477 O   0  0  0  0  0  0  0  0  0  0  0  0
   45.9385   36.0920   82.1813 C   0  0  0  0  0  0  0  0  0  0  0  0
   43.6355   36.8001   82.8983 C   0  0  0  0  0  0  0  0  0  0  0  0
   43.0468   36.2352   84.1866 C   0  0  0  0  0  0  0  0  0  0  0  0
   44.8626   37.5233   80.6738 C   0  0  0  0  0  0  0  0  0  0  0  0
   41.7353   36.4789   84.7038 C   0  0  0  0  0  0  0  0  0  0  0  0
   45.5351   37.4956   75.0833 C   0  0  0  0  0  0  0  0  0  0  0  0
   43.9121   39.6206   81.5249 O   0  0  0  0  0  0  0  0  0  0  0  0
   45.3518   36.2732   75.9945 C   0  0  0  0  0  0  0  0  0  0  0  0
   45.1112   37.3763   73.7050 C   0  0  0  0  0  0  0  0  0  0  0  0
   43.6051   40.9934   81.1559 C   0  0  0  0  0  0  0  0  0  0  0  0
   45.4464   36.7130   77.4202 N   0  0  0  0  0  0  0  0  0  0  0  0
   44.6542   41.4671   80.1889 C   0  0  0  0  0  0  0  0  0  0  0  0
   47.5908   36.3016   85.0870 O   0  0  0  0  0  0  0  0  0  0  0  0
   44.0883   35.9715   85.2535 C   0  0  0  0  0  0  0  0  0  0  0  0
   45.8142   36.7132   79.9342 C   0  0  0  0  0  0  0  0  0  0  0  0
   45.8513   36.3047   86.8799 C   0  0  0  0  0  0  0  0  0  0  0  0
   45.6863   38.6447   75.6478 O   0  0  0  0  0  0  0  0  0  0  0  0
   40.8204   37.0823   83.7148 C   0  0  0  0  0  0  0  0  0  0  0  0
   44.8982   37.1522   82.0937 C   0  0  0  0  0  0  0  0  0  0  0  0
   44.5478   38.9470   80.4129 C   0  0  0  0  0  0  0  0  0  0  0  0
   41.5223   36.2013   85.9536 O   0  0  0  0  0  0  0  0  0  0  0  0
   45.3986   35.8807   84.6312 C   0  0  0  0  0  0  0  0  0  0  0  0
   45.7099   35.2336   83.3368 C   0  0  0  0  0  0  0  0  0  0  0  0
   46.4470   35.9065   85.6300 C   0  0  0  0  0  0  0  0  0  0  0  0
   45.9077   36.1464   78.6210 C   0  0  0  0  0  0  0  0  0  0  0  0
   46.4660   35.8680   80.9463 O   0  0  0  0  0  0  0  0  0  0  0  0
  1 16  1  0
  1 18  1  0
  2 27  2  0
  3 21  1  0
  3 25  1  0
  3 28  1  0
  4  5  1  0
  4 21  1  0
  5  7  2  3
  5 16  1  0
  6 17  1  0
  6 21  1  0
  6 22  1  0
  7 20  1  0
  7 23  1  0
  8 10  1  0
  8 11  1  0
  8 19  1  0
  9 12  1  0
  9 22  1  0
 10 13  1  0
 12 14  1  0
 13 27  1  0
 15 26  1  0
 16 24  1  0
 17 27  1  0
 17 28  1  0
 18 26  1  0
 24 25  1  0
 24 26  1  0
M  END
>  <ID>  (1) 
conformer_0

$$$$
