
     RDKit          3D

 26 27  0  0  0  0  0  0  0  0999 V2000
   41.7690   35.7685   87.1377 O   0  0  0  0  0  0  0  0  0  0  0  0
   46.7158   35.8905   82.3320 O   0  0  0  0  0  0  0  0  0  0  0  0
   46.0050   35.8097   78.9409 C   0  0  0  0  0  0  0  0  0  0  0  0
   43.5126   37.0463   82.9595 C   0  0  0  0  0  0  0  0  0  0  0  0
   45.1253   35.3136   85.3391 C   0  0  0  0  0  0  0  0  0  0  0  0
   45.3173   35.5180   75.9516 C   0  0  0  0  0  0  0  0  0  0  0  0
   41.6731   36.1894   84.4911 C   0  0  0  0  0  0  0  0  0  0  0  0
   41.3844   37.4211   85.3523 C   0  0  0  0  0  0  0  0  0  0  0  0
   45.0154   36.7592   76.3575 C   0  0  0  0  0  0  0  0  0  0  0  0
   45.2823   37.2947   81.1273 C   0  0  0  0  0  0  0  0  0  0  0  0
   46.5470   35.5354   80.1290 N   0  0  0  0  0  0  0  0  0  0  0  0
   45.8768   34.5810   76.7778 C   0  0  0  0  0  0  0  0  0  0  0  0
   44.0152   36.2712   85.3704 C   0  0  0  0  0  0  0  0  0  0  0  0
   46.2067   36.2163   81.2152 C   0  0  0  0  0  0  0  0  0  0  0  0
   46.5201   36.9490   86.5503 O   0  0  0  0  0  0  0  0  0  0  0  0
   41.9401   38.5995   84.8553 O   0  0  0  0  0  0  0  0  0  0  0  0
   46.1668   34.8219   78.0094 N   0  0  0  0  0  0  0  0  0  0  0  0
   45.0204   37.4548   77.4503 C   0  0  0  0  0  0  0  0  0  0  0  0
   46.2390   35.6302   86.2874 C   0  0  0  0  0  0  0  0  0  0  0  0
   43.1439   36.2110   84.1463 C   0  0  0  0  0  0  0  0  0  0  0  0
   40.6418   35.9663   83.3909 C   0  0  0  0  0  0  0  0  0  0  0  0
   45.3856   37.0777   78.7679 C   0  0  0  0  0  0  0  0  0  0  0  0
   44.6044   37.7725   82.3649 C   0  0  0  0  0  0  0  0  0  0  0  0
   45.0349   37.8250   79.8662 C   0  0  0  0  0  0  0  0  0  0  0  0
   41.4883   37.1074   86.8499 C   0  0  0  0  0  0  0  0  0  0  0  0
   45.1585   38.7820   83.0208 O   0  0  0  0  0  0  0  0  0  0  0  0
  1 25  1  0
  2 14  2  0
  3 11  2  0
  3 17  1  0
  3 22  1  0
  4 20  1  0
  4 23  1  0
  5 13  1  0
  5 19  1  0
  6  9  1  0
  6 12  1  0
  7  8  1  0
  7 20  1  0
  7 21  1  0
  8 16  1  0
  8 25  1  0
  9 18  2  0
 10 14  1  0
 10 23  1  0
 10 24  1  0
 11 14  1  0
 12 17  2  0
 13 20  1  0
 15 19  1  0
 18 22  1  0
 22 24  2  0
 23 26  1  0
M  END
>  <ID>  (1) 
conformer_0

$$$$
