
     RDKit          3D

 23 25  0  0  0  0  0  0  0  0999 V2000
   43.7529   40.3891   82.6382 C   0  0  0  0  0  0  0  0  0  0  0  0
   42.6741   35.6411   85.3669 C   0  0  0  0  0  0  0  0  0  0  0  0
   44.2898   34.9741   87.2102 C   0  0  0  0  0  0  0  0  0  0  0  0
   46.5418   34.3081   77.6008 O   0  0  0  0  0  0  0  0  0  0  0  0
   44.5649   39.8629   80.0316 C   0  0  0  0  0  0  0  0  0  0  0  0
   47.2928   36.3062   84.3778 O   0  0  0  0  0  0  0  0  0  0  0  0
   45.7060   36.5275   82.7919 N   0  0  0  0  0  0  0  0  0  0  0  0
   45.7695   36.5837   81.4303 C   0  0  0  0  0  0  0  0  0  0  0  0
   45.3573   36.0092   76.8264 O   0  0  0  0  0  0  0  0  0  0  0  0
   45.9442   35.9538   79.1114 C   0  0  0  0  0  0  0  0  0  0  0  0
   43.7346   36.4534   84.7104 C   0  0  0  0  0  0  0  0  0  0  0  0
   43.6768   41.4064   81.6372 C   0  0  0  0  0  0  0  0  0  0  0  0
   44.2000   39.1727   82.3042 C   0  0  0  0  0  0  0  0  0  0  0  0
   44.6394   38.8377   81.0140 C   0  0  0  0  0  0  0  0  0  0  0  0
   45.9563   35.3846   77.7268 C   0  0  0  0  0  0  0  0  0  0  0  0
   45.0743   35.9498   85.0605 C   0  0  0  0  0  0  0  0  0  0  0  0
   45.1928   37.5597   80.5955 C   0  0  0  0  0  0  0  0  0  0  0  0
   46.4134   35.5554   80.5883 O   0  0  0  0  0  0  0  0  0  0  0  0
   45.2437   34.9482   86.1262 C   0  0  0  0  0  0  0  0  0  0  0  0
   46.1170   36.1897   84.0242 C   0  0  0  0  0  0  0  0  0  0  0  0
   44.1034   41.0990   80.3374 C   0  0  0  0  0  0  0  0  0  0  0  0
   45.2310   37.1400   79.2684 C   0  0  0  0  0  0  0  0  0  0  0  0
   42.9649   35.4378   86.8352 C   0  0  0  0  0  0  0  0  0  0  0  0
  1 12  1  0
  1 13  2  0
  2 11  1  0
  2 23  1  0
  3 19  1  0
  3 23  1  0
  4 15  2  0
  5 14  1  0
  5 21  2  0
  6 20  2  0
  7  8  1  0
  7 20  1  0
  8 17  2  0
  8 18  1  0
  9 15  1  0
 10 15  1  0
 10 18  1  0
 10 22  1  0
 11 16  1  0
 12 21  1  0
 13 14  1  0
 14 17  1  0
 16 19  1  0
 16 20  1  0
 17 22  1  0
M  END
>  <ID>  (1) 
conformer_0

$$$$
