
     RDKit          3D

 16 17  0  0  0  0  0  0  0  0999 V2000
   44.9107   36.7000   83.0223 O   0  0  0  0  0  0  0  0  0  0  0  0
   46.5966   35.2045   77.7548 O   0  0  0  0  0  0  0  0  0  0  0  0
   43.8449   35.4714   86.1978 C   0  0  0  0  0  0  0  0  0  0  0  0
   47.2399   36.2489   84.9846 O   0  0  0  0  0  0  0  0  0  0  0  0
   44.2907   36.2215   84.1221 C   0  0  0  0  0  0  0  0  0  0  0  0
   46.9410   36.0074   79.8997 O   0  0  0  0  0  0  0  0  0  0  0  0
   42.0369   36.2542   83.2314 C   0  0  0  0  0  0  0  0  0  0  0  0
   45.0972   36.8651   78.6920 C   0  0  0  0  0  0  0  0  0  0  0  0
   44.9061   37.1770   80.1762 C   0  0  0  0  0  0  0  0  0  0  0  0
   46.1417   36.6274   80.8747 C   0  0  0  0  0  0  0  0  0  0  0  0
   42.6454   35.5881   85.4505 C   0  0  0  0  0  0  0  0  0  0  0  0
   46.2990   35.9739   78.6858 C   0  0  0  0  0  0  0  0  0  0  0  0
   46.1779   35.8796   85.7262 C   0  0  0  0  0  0  0  0  0  0  0  0
   46.0717   36.6359   82.3249 C   0  0  0  0  0  0  0  0  0  0  0  0
   44.8394   35.8724   85.3195 C   0  0  0  0  0  0  0  0  0  0  0  0
   42.9618   36.0196   84.2219 N   0  0  0  0  0  0  0  0  0  0  0  0
  1  5  1  0
  1 14  1  0
  2 12  2  0
  3 11  1  0
  3 15  1  0
  4 13  1  0
  5 15  1  0
  5 16  1  0
  6 10  1  0
  6 12  1  0
  7 16  1  0
  8  9  1  0
  8 12  1  0
  9 10  1  0
 10 14  1  0
 11 16  1  0
 13 15  2  3
M  END
>  <ID>  (1) 
conformer_0

$$$$
