
     RDKit          3D

 27 29  0  0  0  0  0  0  0  0999 V2000
   44.4227   37.4441   80.2326 N   0  0  0  0  0  0  0  0  0  0  0  0
   46.9546   36.3679   84.9913 O   0  0  0  0  0  0  0  0  0  0  0  0
   44.9306   37.2757   79.0029 C   0  0  0  0  0  0  0  0  0  0  0  0
   42.6892   35.2609   86.7779 C   0  0  0  0  0  0  0  0  0  0  0  0
   44.8457   35.9662   75.6430 O   0  0  0  0  0  1  0  0  0  0  0  0
   41.9319   37.6447   86.1389 C   0  0  0  0  0  0  0  0  0  0  0  0
   46.3037   36.1124   86.1634 C   0  0  0  0  0  0  0  0  0  0  0  0
   45.4834   38.0016   76.4118 O   0  0  0  0  0  1  0  0  0  0  0  0
   40.2735   36.4071   83.9116 C   0  0  0  0  0  0  0  0  0  0  0  0
   45.0986   38.3469   82.3581 C   0  0  0  0  0  0  0  0  0  0  0  0
   46.4052   35.0936   81.9603 O   0  0  0  0  0  0  0  0  0  0  0  0
   45.3386   37.2341   81.2931 C   0  0  0  0  0  0  0  0  0  0  0  0
   46.0573   38.1358   83.5835 C   0  0  0  0  0  0  0  0  0  0  0  0
   46.7303   35.9003   79.9148 O   0  0  0  0  0  0  0  0  0  0  0  0
   46.2665   35.8556   77.5591 C   0  0  0  0  0  0  0  0  0  0  0  0
   44.8121   36.2053   85.9619 C   0  0  0  0  0  0  0  0  0  0  0  0
   42.1143   36.1949   85.7235 C   0  0  0  0  0  0  0  0  0  0  0  0
   46.2413   36.0443   81.1364 C   0  0  0  0  0  0  0  0  0  0  0  0
   44.6894   36.3055   84.4700 C   0  0  0  0  0  0  0  0  0  0  0  0
   41.1163   38.4308   85.1103 C   0  0  0  0  0  0  0  0  0  0  0  0
   46.0228   36.3671   78.8945 C   0  0  0  0  0  0  0  0  0  0  0  0
   46.7315   35.9901   87.3351 O   0  0  0  0  0  0  0  0  0  0  0  0
   39.8583   37.5782   84.7656 C   0  0  0  0  0  0  0  0  0  0  0  0
   46.0726   36.6578   83.9200 C   0  0  0  0  0  0  0  0  0  0  0  0
   41.5678   35.8063   84.3979 C   0  0  0  0  0  0  0  0  0  0  0  0
   45.4848   36.6580   76.5429 N   0  0  0  0  0  0  0  0  0  0  0  0
   44.0621   35.7641   87.1961 C   0  0  0  0  0  0  0  0  0  0  0  0
  1  3  1  0
  1 12  1  0
  2  7  1  0
  2 24  1  0
  3 21  2  0
  4 17  1  0
  4 27  1  0
  5 26  1  0
  6 17  1  0
  6 20  1  0
  7 16  1  0
  7 22  2  0
  8 26  1  0
  9 23  1  0
  9 25  1  0
 10 12  1  0
 10 13  1  0
 11 18  2  0
 12 18  1  0
 13 24  1  0
 14 18  1  0
 14 21  1  0
 15 21  1  0
 15 26  1  0
 16 19  1  0
 16 27  1  0
 17 25  1  0
 19 24  1  0
 20 23  1  0
M  END
>  <ID>  (1) 
conformer_0

$$$$
