
     RDKit          3D

 30 32  0  0  0  0  0  0  0  0999 V2000
   46.0783   38.1959   86.2937 O   0  0  0  0  0  0  0  0  0  0  0  0
   46.3713   38.0209   82.5767 C   0  0  0  0  0  0  0  0  0  0  0  0
   41.7846   38.7832   84.7797 C   0  0  0  0  0  0  0  0  0  0  0  0
   44.3540   35.0582   74.7218 C   0  0  0  0  0  0  0  0  0  0  0  0
   45.8027   38.9902   81.4875 C   0  0  0  0  0  0  0  0  0  0  0  0
   44.8956   35.8124   75.8589 C   0  0  0  0  0  0  0  0  0  0  0  0
   40.8017   37.7481   84.1672 C   0  0  0  0  0  0  0  0  0  0  0  0
   46.0309   36.6521   86.1612 S   0  0  0  0  0  4  0  0  0  0  0  0
   46.8296   35.9968   78.7650 O   0  0  0  0  0  0  0  0  0  0  0  0
   43.7871   39.0566   83.0790 C   0  0  0  0  0  0  0  0  0  0  0  0
   44.9070   34.8208   84.1941 C   0  0  0  0  0  0  0  0  0  0  0  0
   43.7047   36.9508   85.0160 C   0  0  0  0  0  0  0  0  0  0  0  0
   45.3858   34.4410   82.9344 C   0  0  0  0  0  0  0  0  0  0  0  0
   45.0280   36.2525   84.3894 C   0  0  0  0  0  0  0  0  0  0  0  0
   44.0572   40.9158   81.6368 C   0  0  0  0  0  0  0  0  0  0  0  0
   47.2052   35.9881   85.7452 O   0  0  0  0  0  0  0  0  0  0  0  0
   45.6979   37.0827   75.7422 C   0  0  0  0  0  0  0  0  0  0  0  0
   42.6753   39.5698   83.7080 C   0  0  0  0  0  0  0  0  0  0  0  0
   41.0177   36.3097   84.5916 C   0  0  0  0  0  0  0  0  0  0  0  0
   44.4922   39.6470   82.0973 C   0  0  0  0  0  0  0  0  0  0  0  0
   42.9777   41.5095   82.2820 C   0  0  0  0  0  0  0  0  0  0  0  0
   45.6411   35.6997   78.1794 C   0  0  0  0  0  0  0  0  0  0  0  0
   46.6397   36.4215   80.0832 C   0  0  0  0  0  0  0  0  0  0  0  0
   45.5029   34.9009   76.9404 C   0  0  0  0  0  0  0  0  0  0  0  0
   45.2996   35.9782   87.3031 O   0  0  0  0  0  0  0  0  0  0  0  0
   42.4478   36.0675   84.9187 C   0  0  0  0  0  0  0  0  0  0  0  0
   42.2952   40.8766   83.3396 C   0  0  0  0  0  0  0  0  0  0  0  0
   45.9149   35.6138   82.2458 C   0  0  0  0  0  0  0  0  0  0  0  0
   46.4445   35.5888   81.0498 O   0  0  0  0  0  0  0  0  0  0  0  0
   45.7615   36.7445   83.1087 C   0  0  0  0  0  0  0  0  0  0  0  0
  1  8  1  0
  2  5  1  0
  2 30  1  0
  3  7  1  0
  3 18  1  0
  4  6  1  0
  5 20  1  0
  6 17  1  0
  6 24  1  0
  7 19  1  0
  8 14  1  0
  8 16  1  0
  8 25  1  0
  9 22  1  0
  9 23  1  0
 10 18  2  0
 10 20  1  0
 11 13  1  0
 11 14  1  0
 12 14  1  0
 12 26  1  0
 13 28  1  0
 14 30  1  0
 15 20  2  0
 15 21  1  0
 18 27  1  0
 19 26  1  0
 21 27  2  0
 22 24  1  0
 23 29  1  0
 28 29  1  0
 28 30  2  0
M  END
>  <ID>  (1) 
conformer_0

$$$$
