
     RDKit          3D

 27 28  0  0  0  0  0  0  0  0999 V2000
   44.3025   37.1489   83.6787 C   0  0  0  0  0  0  0  0  0  0  0  0
   44.3531   37.8949   81.2484 C   0  0  0  0  0  0  0  0  0  0  0  0
   44.7328   37.7154   79.9080 C   0  0  0  0  0  0  0  0  0  0  0  0
   45.5702   36.6639   79.5412 C   0  0  0  0  0  0  0  0  0  0  0  0
   45.1439   36.4768   84.7184 C   0  0  0  0  0  0  0  0  0  0  0  0
   45.9480   36.3065   78.1820 C   0  0  0  0  0  0  0  0  0  0  0  0
   44.7489   37.0453   82.2806 C   0  0  0  0  0  0  0  0  0  0  0  0
   46.2620   37.5260   86.5101 O   0  0  0  0  0  0  0  0  0  0  0  0
   45.3262   37.8284   73.4754 C   0  0  0  0  0  0  0  0  0  0  0  0
   45.3065   36.8934   74.5656 O   0  0  0  0  0  0  0  0  0  0  0  0
   42.2900   36.9890   85.0831 C   0  0  0  0  0  0  0  0  0  0  0  0
   44.3852   36.0191   86.0227 C   0  0  0  0  0  0  0  0  0  0  0  0
   41.1511   38.7046   83.6113 O   0  0  0  0  0  0  0  0  0  0  0  0
   42.4230   38.8542   83.6448 C   0  0  0  0  0  0  0  0  0  0  0  0
   46.6408   35.3786   86.2596 O   0  0  0  0  0  0  0  0  0  0  0  0
   45.6919   37.2651   75.8508 C   0  0  0  0  0  0  0  0  0  0  0  0
   45.6073   36.0365   81.8689 C   0  0  0  0  0  0  0  0  0  0  0  0
   46.7944   35.3034   78.1172 O   0  0  0  0  0  0  0  0  0  0  0  0
   45.9186   36.3979   85.9785 C   0  0  0  0  0  0  0  0  0  0  0  0
   46.0217   35.8660   80.5544 C   0  0  0  0  0  0  0  0  0  0  0  0
   45.1483   36.4574   76.9807 C   0  0  0  0  0  0  0  0  0  0  0  0
   45.6932   38.5569   76.0788 O   0  0  0  0  0  0  0  0  0  0  0  0
   43.1191   37.7439   84.1508 N   0  0  0  0  0  0  0  0  0  0  0  0
   43.1660   40.0887   83.4185 C   0  0  0  0  0  0  0  0  0  0  0  0
   42.9834   35.6297   85.3853 C   0  0  0  0  0  0  0  0  0  0  0  0
   44.1758   35.3114   87.3271 O   0  0  0  0  0  0  0  0  0  0  0  0
   46.1146   35.0623   82.6840 Cl  0  0  0  0  0  0  0  0  0  0  0  0
  1  5  1  0
  1  7  1  0
  1 23  1  0
  2  3  2  0
  2  7  1  0
  3  4  1  0
  4  6  1  0
  4 20  2  0
  5 12  1  0
  5 19  1  0
  6 18  1  0
  6 21  1  0
  7 17  2  0
  8 19  2  0
  9 10  1  0
 10 16  1  0
 11 23  1  0
 11 25  1  0
 12 25  1  0
 12 26  1  0
 13 14  2  0
 14 23  1  0
 14 24  1  0
 15 19  1  0
 16 21  1  0
 16 22  2  0
 17 20  1  0
 17 27  1  0
M  END
>  <ID>  (1) 
conformer_0

$$$$
