
     RDKit          3D

 21 22  0  0  0  0  0  0  0  0999 V2000
   47.0980   36.5186   84.5404 O   0  0  0  0  0  0  0  0  0  0  0  0
   43.3302   36.6077   85.2380 C   0  0  0  0  0  0  0  0  0  0  0  0
   46.5806   34.9260   77.8359 O   0  0  0  0  0  0  0  0  0  0  0  0
   43.0666   38.4787   83.8980 C   0  0  0  0  0  0  0  0  0  0  0  0
   45.8255   37.0247   78.3630 C   0  0  0  0  0  0  0  0  0  0  0  0
   45.6985   36.2915   82.1620 C   0  0  0  0  0  0  0  0  0  0  0  0
   43.2923   39.6539   83.3568 O   0  0  0  0  0  0  0  0  0  0  0  0
   44.2264   37.9961   81.5637 C   0  0  0  0  0  0  0  0  0  0  0  0
   45.3233   35.5365   85.9205 C   0  0  0  0  0  0  0  0  0  0  0  0
   45.6706   36.5739   84.8445 C   0  0  0  0  0  0  0  0  0  0  0  0
   43.8866   35.6396   86.1498 C   0  0  0  0  0  0  0  0  0  0  0  0
   44.4978   37.8922   80.2419 C   0  0  0  0  0  0  0  0  0  0  0  0
   44.7189   37.1796   82.6137 C   0  0  0  0  0  0  0  0  0  0  0  0
   42.0495   37.1479   85.4894 O   0  0  0  0  0  0  0  0  0  0  0  0
   45.4807   36.9801   79.7730 C   0  0  0  0  0  0  0  0  0  0  0  0
   45.8346   35.8711   77.5762 C   0  0  0  0  0  0  0  0  0  0  0  0
   44.0566   37.2611   84.0443 C   0  0  0  0  0  0  0  0  0  0  0  0
   41.8724   38.2981   84.6558 C   0  0  0  0  0  0  0  0  0  0  0  0
   43.1238   34.7564   86.9762 C   0  0  0  0  0  0  0  0  0  0  0  0
   44.9623   35.7861   76.4289 C   0  0  0  0  0  0  0  0  0  0  0  0
   46.0491   36.1535   80.7920 C   0  0  0  0  0  0  0  0  0  0  0  0
  1 10  1  0
  2 11  1  0
  2 14  1  0
  2 17  1  0
  3 16  2  0
  4  7  1  0
  4 17  1  0
  4 18  1  0
  5 15  1  0
  5 16  1  0
  6 13  2  0
  6 21  1  0
  8 12  2  0
  8 13  1  0
  9 10  1  0
  9 11  1  0
 11 19  1  0
 12 15  1  0
 13 17  1  0
 14 18  1  0
 15 21  2  0
 16 20  1  0
M  END
>  <ID>  (1) 
conformer_0

$$$$
