
     RDKit          3D

 29 32  0  0  0  0  0  0  0  0999 V2000
   46.8787   36.0061   85.2370 O   0  0  0  0  0  0  0  0  0  0  0  0
   46.0843   34.2394   82.4509 O   0  0  0  0  0  0  0  0  0  0  0  0
   46.0579   36.0006   79.6712 C   0  0  0  0  0  0  0  0  0  0  0  0
   45.5946   36.9373   78.6785 C   0  0  0  0  0  0  0  0  0  0  0  0
   40.8756   39.2244   84.2140 C   0  0  0  0  0  0  0  0  0  0  0  0
   44.2373   36.0516   76.7138 O   0  0  0  0  0  0  0  0  0  0  0  0
   45.7909   36.2450   81.0301 C   0  0  0  0  0  0  0  0  0  0  0  0
   42.2710   37.5861   83.7138 N   0  0  0  0  0  0  0  0  0  0  0  0
   39.9758   35.7877   83.2724 C   0  0  0  0  0  0  0  0  0  0  0  0
   45.7649   37.8744   76.2689 O   0  0  0  0  0  0  0  0  0  0  0  0
   45.2085   37.4350   81.3732 C   0  0  0  0  0  0  0  0  0  0  0  0
   45.9479   35.4291   82.3100 C   0  0  0  0  0  0  0  0  0  0  0  0
   42.9273   38.7881   83.4753 C   0  0  0  0  0  0  0  0  0  0  0  0
   40.9396   37.8408   84.0794 C   0  0  0  0  0  0  0  0  0  0  0  0
   46.3357   38.2815   83.4954 O   0  0  0  0  0  0  0  0  0  0  0  0
   44.7377   38.3156   80.4202 C   0  0  0  0  0  0  0  0  0  0  0  0
   44.9730   38.0998   79.0531 C   0  0  0  0  0  0  0  0  0  0  0  0
   45.7044   36.1996   84.9882 C   0  0  0  0  0  0  0  0  0  0  0  0
   44.6825   35.9482   86.0860 C   0  0  0  0  0  0  0  0  0  0  0  0
   45.5369   36.5986   76.9910 S   0  0  0  0  0  4  0  0  0  0  0  0
   39.9707   36.9078   84.1104 O   0  0  0  0  0  0  0  0  0  0  0  0
   46.6294   35.6438   76.8336 O   0  0  0  0  0  0  0  0  0  0  0  0
   44.2025   39.0232   82.9339 C   0  0  0  0  0  0  0  0  0  0  0  0
   42.1106   39.7932   83.8235 N   0  0  0  0  0  0  0  0  0  0  0  0
   45.1262   37.6873   82.9237 C   0  0  0  0  0  0  0  0  0  0  0  0
   44.9357   34.8423   86.8759 O   0  0  0  0  0  0  0  0  0  0  0  0
   43.9352   35.3187   83.6324 C   0  0  0  0  0  0  0  0  0  0  0  0
   42.6984   36.1513   83.6692 C   0  0  0  0  0  0  0  0  0  0  0  0
   45.2175   36.1940   83.5431 C   0  0  0  0  0  0  0  0  0  0  0  0
  1 18  2  0
  2 12  2  0
  3  4  1  0
  3  7  1  0
  4 17  2  0
  4 20  1  0
  5 14  1  0
  5 24  1  0
  6 20  1  0
  7 11  2  0
  7 12  1  0
  8 13  1  0
  8 14  1  0
  8 28  1  0
  9 21  1  0
 10 20  1  0
 11 16  1  0
 11 25  1  0
 12 29  1  0
 13 23  1  0
 13 24  2  0
 14 21  1  0
 15 25  1  0
 16 17  1  0
 18 19  1  0
 18 29  1  0
 19 26  1  0
 20 22  1  0
 23 25  1  0
 25 29  1  0
 27 28  1  0
 27 29  1  0
M  END
>  <ID>  (1) 
conformer_0

$$$$
