
     RDKit          3D

 35 37  0  0  0  0  0  0  0  0999 V2000
   45.8232   36.7395   77.8546 N   0  0  0  0  0  0  0  0  0  0  0  0
   44.1645   33.7993   74.9979 C   0  0  0  0  0  0  0  0  0  0  0  0
   45.2668   35.9260   74.3701 C   0  0  0  0  0  0  0  0  0  0  0  0
   44.9484   36.4280   83.9524 C   0  0  0  0  0  0  0  0  0  0  0  0
   45.4227   35.8892   76.8287 C   0  0  0  0  0  0  0  0  0  0  0  0
   46.4944   35.4360   81.9268 F   0  0  0  0  0  0  0  0  0  0  0  0
   47.3413   36.3697   85.0587 O   0  0  0  0  0  0  0  0  0  0  0  0
   44.7713   33.6944   76.2255 C   0  0  0  0  0  0  0  0  0  0  0  0
   42.9637   40.9072   83.6202 C   0  0  0  0  0  0  0  0  0  0  0  0
   43.0735   41.4299   82.3484 C   0  0  0  0  0  0  0  0  0  0  0  0
   45.4870   34.5706   76.8711 N   0  0  0  0  0  0  0  0  0  0  0  0
   46.3718   36.7616   81.5121 C   0  0  0  0  0  0  0  0  0  0  0  0
   42.4975   36.2096   82.6360 C   0  0  0  0  0  0  0  0  0  0  0  0
   44.6744   37.5559   83.0540 C   0  0  0  0  0  0  0  0  0  0  0  0
   46.7397   36.8983   80.0437 C   0  0  0  0  0  0  0  0  0  0  0  0
   44.8676   38.5192   80.7283 C   0  0  0  0  0  0  0  0  0  0  0  0
   47.3712   37.4875   82.2640 C   0  0  0  0  0  0  0  0  0  0  0  0
   41.5441   35.7369   86.1659 C   0  0  0  0  0  0  0  0  0  0  0  0
   46.6444   35.6322   86.9886 O   0  0  0  0  0  0  0  0  0  0  0  0
   43.5013   39.6847   83.9245 C   0  0  0  0  0  0  0  0  0  0  0  0
   45.7478   36.3418   79.1538 C   0  0  0  0  0  0  0  0  0  0  0  0
   45.2135   36.5815   75.6220 N   0  0  0  0  0  0  0  0  0  0  0  0
   43.9590   34.9077   87.3186 C   0  0  0  0  0  0  0  0  0  0  0  0
   46.4122   36.1034   85.8527 C   0  0  0  0  0  0  0  0  0  0  0  0
   43.7680   40.7013   81.3734 C   0  0  0  0  0  0  0  0  0  0  0  0
   44.2409   39.4471   81.6805 C   0  0  0  0  0  0  0  0  0  0  0  0
   42.7080   35.5625   85.2488 C   0  0  0  0  0  0  0  0  0  0  0  0
   44.1004   38.9427   82.9505 C   0  0  0  0  0  0  0  0  0  0  0  0
   45.0094   36.3588   85.3998 C   0  0  0  0  0  0  0  0  0  0  0  0
   47.9822   36.5709   79.8855 O   0  0  0  0  0  0  0  0  0  0  0  0
   45.0189   37.2723   81.6114 C   0  0  0  0  0  0  0  0  0  0  0  0
   42.5356   36.4768   84.0573 C   0  0  0  0  0  0  0  0  0  0  0  0
   41.3012   36.0678   83.3763 C   0  0  0  0  0  0  0  0  0  0  0  0
   44.2080   34.9519   74.1235 C   0  0  0  0  0  0  0  0  0  0  0  0
   43.9703   35.5665   86.0182 C   0  0  0  0  0  0  0  0  0  0  0  0
  1  5  2  3
  1 21  1  0
  2  8  2  0
  2 34  1  0
  3 22  1  0
  3 34  1  0
  4 14  1  0
  4 29  1  0
  5 11  1  0
  5 22  1  0
  6 12  1  0
  7 24  2  0
  8 11  1  0
  9 10  2  0
  9 20  1  0
 10 25  1  0
 12 15  1  0
 12 17  1  0
 12 31  1  0
 13 32  1  0
 13 33  1  0
 14 28  1  0
 14 31  1  0
 15 21  1  0
 15 30  1  0
 16 26  1  0
 16 31  1  0
 18 27  1  0
 19 24  1  0
 20 28  2  0
 23 35  1  0
 24 29  1  0
 25 26  2  0
 26 28  1  0
 27 32  1  0
 27 35  1  0
 29 35  1  0
M  END
>  <ID>  (1) 
conformer_0

$$$$
