
     RDKit          3D

 24 26  0  0  0  0  0  0  0  0999 V2000
   44.7319   37.8955   85.2961 C   0  0  0  0  0  0  0  0  0  0  0  0
   45.8299   36.7373   78.1874 C   0  0  0  0  0  0  0  0  0  0  0  0
   47.1802   36.5654   84.6074 O   0  0  0  0  0  0  0  0  0  0  0  0
   45.8935   35.9988   76.9433 C   0  0  0  0  0  0  0  0  0  0  0  0
   45.9808   37.4681   87.4390 O   0  0  0  0  0  0  0  0  0  0  0  0
   45.5058   36.7095   75.7446 C   0  0  0  0  0  0  0  0  0  0  0  0
   43.2196   38.5087   82.9295 O   0  0  0  0  0  0  0  0  0  0  0  0
   46.2167   36.6415   83.8644 C   0  0  0  0  0  0  0  0  0  0  0  0
   44.4336   35.9229   86.6489 C   0  0  0  0  0  0  0  0  0  0  0  0
   45.2621   37.1018   86.4079 C   0  0  0  0  0  0  0  0  0  0  0  0
   44.7384   37.2968   81.5160 C   0  0  0  0  0  0  0  0  0  0  0  0
   46.3323   35.8477   80.3513 C   0  0  0  0  0  0  0  0  0  0  0  0
   44.8243   37.0871   84.0385 C   0  0  0  0  0  0  0  0  0  0  0  0
   43.4245   35.6487   85.6030 C   0  0  0  0  0  0  0  0  0  0  0  0
   45.9539   36.5130   81.5082 C   0  0  0  0  0  0  0  0  0  0  0  0
   44.4093   37.8375   82.8131 C   0  0  0  0  0  0  0  0  0  0  0  0
   46.3738   35.9627   82.6685 O   0  0  0  0  0  0  0  0  0  0  0  0
   44.6851   37.4293   78.7191 C   0  0  0  0  0  0  0  0  0  0  0  0
   44.2722   37.5537   80.1256 C   0  0  0  0  0  0  0  0  0  0  0  0
   46.7515   36.1493   79.1228 C   0  0  0  0  0  0  0  0  0  0  0  0
   43.0515   34.5738   87.9496 C   0  0  0  0  0  0  0  0  0  0  0  0
   46.5233   34.8504   76.9462 O   0  0  0  0  0  0  0  0  0  0  0  0
   44.1929   35.3903   87.8585 O   0  0  0  0  0  0  0  0  0  0  0  0
   43.9491   35.8904   84.2145 C   0  0  0  0  0  0  0  0  0  0  0  0
  1 10  1  0
  1 13  1  0
  2  4  1  0
  2 18  1  0
  2 20  1  0
  3  8  2  0
  4  6  1  0
  4 22  1  0
  5 10  1  0
  7 16  1  0
  8 13  1  0
  8 17  1  0
  9 10  1  0
  9 14  1  0
  9 23  1  0
 11 15  1  0
 11 16  1  0
 11 19  1  0
 12 15  1  0
 12 20  1  0
 13 16  1  0
 13 24  1  0
 14 24  1  0
 15 17  1  0
 18 19  2  0
 21 23  1  0
M  END
>  <ID>  (1) 
conformer_0

$$$$
