
     RDKit          3D

 24 25  0  0  0  0  0  0  0  0999 V2000
   41.6447   37.1155   84.8653 C   0  0  0  0  0  0  0  0  0  0  0  0
   40.8048   36.7221   83.5193 C   0  0  0  0  0  0  0  0  0  0  0  0
   46.4209   35.6653   80.2738 C   0  0  0  0  0  0  0  0  0  0  0  0
   46.6700   35.1194   77.5414 O   0  0  0  0  0  0  0  0  0  0  0  0
   45.2288   36.7980   76.9713 N   0  0  0  0  0  0  0  0  0  0  0  0
   43.8675   38.4346   85.1453 N   0  0  0  0  0  0  0  0  0  0  0  0
   45.9349   37.7739   76.0143 C   0  0  0  0  0  0  0  0  0  0  0  0
   42.1620   35.8279   85.3653 C   0  0  0  0  0  0  0  0  0  0  0  0
   44.3957   39.5486   83.1980 O   0  0  0  0  0  0  0  0  0  0  0  0
   45.3909   37.3075   83.5645 C   0  0  0  0  0  0  0  0  0  0  0  0
   45.4643   37.0460   82.0126 C   0  0  0  0  0  0  0  0  0  0  0  0
   44.7852   37.7564   81.0349 C   0  0  0  0  0  0  0  0  0  0  0  0
   46.6517   37.2930   84.4792 C   0  0  0  0  0  0  0  0  0  0  0  0
   44.5646   38.5580   83.9445 C   0  0  0  0  0  0  0  0  0  0  0  0
   47.2931   36.2328   84.5582 O   0  0  0  0  0  0  0  0  0  0  0  0
   46.2543   35.9972   81.6017 C   0  0  0  0  0  0  0  0  0  0  0  0
   45.7871   36.4475   79.2747 C   0  0  0  0  0  0  0  0  0  0  0  0
   46.8729   38.1276   85.4660 O   0  0  0  0  0  0  0  0  0  0  0  0
   43.3386   35.3392   84.5877 C   0  0  0  0  0  0  0  0  0  0  0  0
   44.5753   36.0551   84.0872 C   0  0  0  0  0  0  0  0  0  0  0  0
   44.9470   37.4691   79.6681 C   0  0  0  0  0  0  0  0  0  0  0  0
   46.0010   36.0960   77.8753 C   0  0  0  0  0  0  0  0  0  0  0  0
   40.1895   37.2725   84.6800 C   0  0  0  0  0  0  0  0  0  0  0  0
   42.3745   38.3708   85.2090 C   0  0  0  0  0  0  0  0  0  0  0  0
  1  8  1  0
  1 23  1  0
  1 24  1  0
  2 23  1  0
  3 16  2  0
  3 17  1  0
  4 22  2  0
  5  7  1  0
  5 22  1  0
  6 14  1  0
  6 24  1  0
  8 19  1  0
  9 14  2  0
 10 11  1  0
 10 13  1  0
 10 14  1  0
 10 20  1  0
 11 12  2  0
 11 16  1  0
 12 21  1  0
 13 15  2  0
 13 18  1  0
 17 21  2  0
 17 22  1  0
 19 20  1  0
M  END
>  <ID>  (1) 
conformer_0

$$$$
