
     RDKit          3D

 17 18  0  0  0  0  0  0  0  0999 V2000
   44.4349   37.2982   82.2423 C   0  0  0  0  0  0  0  0  0  0  0  0
   46.3353   36.1685   80.5503 C   0  0  0  0  0  0  0  0  0  0  0  0
   46.4482   35.3626   78.0925 O   0  0  0  0  0  0  0  0  0  0  0  0
   43.2792   37.0464   84.5906 C   0  0  0  0  0  0  0  0  0  0  0  0
   44.6978   37.1808   85.2593 C   0  0  0  0  0  0  0  0  0  0  0  0
   45.3782   37.1839   77.4147 O   0  0  0  0  0  0  0  0  0  0  0  0
   45.5865   36.6722   82.7514 C   0  0  0  0  0  0  0  0  0  0  0  0
   42.7981   35.5550   84.7131 C   0  0  0  0  0  0  0  0  0  0  0  0
   45.8808   35.0525   84.6345 O   0  0  0  0  0  0  0  0  0  0  0  0
   47.2015   37.1218   84.6713 O   0  0  0  0  0  0  0  0  0  0  0  0
   45.3452   36.7848   79.8604 C   0  0  0  0  0  0  0  0  0  0  0  0
   45.9454   36.4731   84.3246 C   0  0  0  0  0  0  0  0  0  0  0  0
   44.3097   37.4595   80.7924 C   0  0  0  0  0  0  0  0  0  0  0  0
   45.6825   36.4346   78.3418 C   0  0  0  0  0  0  0  0  0  0  0  0
   42.2317   37.7245   85.5244 C   0  0  0  0  0  0  0  0  0  0  0  0
   43.3200   37.6793   83.1782 C   0  0  0  0  0  0  0  0  0  0  0  0
   46.4854   36.1242   81.8869 C   0  0  0  0  0  0  0  0  0  0  0  0
  1  7  1  0
  1 13  2  0
  1 16  1  0
  2 11  2  0
  2 17  1  0
  3 14  2  0
  4  5  1  0
  4  8  1  0
  4 15  1  0
  4 16  1  0
  5 12  1  0
  6 14  1  0
  7 12  1  0
  7 17  2  0
  9 12  1  0
 10 12  1  0
 11 13  1  0
 11 14  1  0
M  END
>  <ID>  (1) 
conformer_0

$$$$
