
     RDKit          3D

 26 27  0  0  0  0  0  0  0  0999 V2000
   46.0151   35.9197   80.5298 C   0  0  0  0  0  0  0  0  0  0  0  0
   45.9510   36.3832   78.1735 C   0  0  0  0  0  0  0  0  0  0  0  0
   47.2360   36.2348   84.9253 O   0  0  0  0  0  0  0  0  0  0  0  0
   46.7061   35.3370   78.0669 O   0  0  0  0  0  0  0  0  0  0  0  0
   42.1365   37.8554   83.6360 N   0  0  0  0  0  0  0  0  0  0  0  0
   44.1602   37.7661   82.1661 C   0  0  0  0  0  0  0  0  0  0  0  0
   42.7726   35.8782   86.1716 C   0  0  0  0  0  0  0  0  0  0  0  0
   45.7561   38.7138   75.9310 O   0  0  0  0  0  0  0  0  0  0  0  0
   44.6328   35.4661   87.2896 O   0  0  0  0  0  0  0  0  0  0  0  0
   42.3575   35.4608   87.4262 C   0  0  0  0  0  0  0  0  0  0  0  0
   44.7827   36.5548   82.5684 C   0  0  0  0  0  0  0  0  0  0  0  0
   45.2014   36.8335   77.1174 O   0  0  0  0  0  0  0  0  0  0  0  0
   44.4007   36.0728   83.7900 O   0  0  0  0  0  0  0  0  0  0  0  0
   44.8856   36.4044   85.0025 C   0  0  0  0  0  0  0  0  0  0  0  0
   45.5757   36.7620   79.5359 C   0  0  0  0  0  0  0  0  0  0  0  0
   45.6833   35.8174   81.8219 C   0  0  0  0  0  0  0  0  0  0  0  0
   45.6178   37.4526   75.9026 C   0  0  0  0  0  0  0  0  0  0  0  0
   46.4268   38.0754   85.8762 O   0  0  0  0  0  0  0  0  0  0  0  0
   44.1183   35.9346   86.1166 C   0  0  0  0  0  0  0  0  0  0  0  0
   46.2597   34.8100   82.4809 O   0  0  0  0  0  0  0  0  0  0  0  0
   44.7964   37.8633   79.7842 C   0  0  0  0  0  0  0  0  0  0  0  0
   46.2698   36.9442   85.2589 C   0  0  0  0  0  0  0  0  0  0  0  0
   43.5393   35.1906   88.1479 C   0  0  0  0  0  0  0  0  0  0  0  0
   44.2311   38.2810   80.9024 C   0  0  0  0  0  0  0  0  0  0  0  0
   45.2649   36.7671   74.6743 C   0  0  0  0  0  0  0  0  0  0  0  0
   43.3610   38.4860   83.2251 C   0  0  0  0  0  0  0  0  0  0  0  0
  1 15  1  0
  1 16  2  0
  2  4  2  0
  2 12  1  0
  2 15  1  0
  3 22  2  0
  5 26  1  0
  6 11  2  0
  6 24  1  0
  6 26  1  0
  7 10  1  0
  7 19  1  0
  8 17  2  0
  9 19  1  0
  9 23  1  0
 10 23  1  0
 11 13  1  0
 11 16  1  0
 12 17  1  0
 13 14  1  0
 14 19  1  0
 14 22  1  0
 15 21  1  0
 16 20  1  0
 17 25  1  0
 18 22  1  0
 21 24  2  0
M  END
>  <ID>  (1) 
conformer_0

$$$$
