
     RDKit          3D

 31 33  0  0  0  0  0  0  0  0999 V2000
   42.8973   36.2183   83.7931 C   0  0  0  0  0  0  0  0  0  0  0  0
   46.7113   35.5966   86.6658 O   0  0  0  0  0  0  0  0  0  0  0  0
   44.6365   38.8934   82.4962 C   0  0  0  0  0  0  0  0  0  0  0  0
   46.7450   35.6788   81.2612 O   0  0  0  0  0  0  0  0  0  0  0  0
   44.3632   39.8526   80.2763 C   0  0  0  0  0  0  0  0  0  0  0  0
   46.9141   35.7977   78.5919 O   0  0  0  0  0  0  0  0  0  0  0  0
   42.9579   35.8820   86.1502 C   0  0  0  0  0  0  0  0  0  0  0  0
   43.5312   42.1339   80.1851 F   0  0  0  0  0  0  0  0  0  0  0  0
   45.0586   34.2049   83.0237 O   0  0  0  0  0  0  0  0  0  0  0  0
   44.7249   38.7201   81.0446 C   0  0  0  0  0  0  0  0  0  0  0  0
   41.5757   36.5836   83.8133 C   0  0  0  0  0  0  0  0  0  0  0  0
   43.6590   41.0754   82.2628 C   0  0  0  0  0  0  0  0  0  0  0  0
   45.1439   35.7049   84.9861 C   0  0  0  0  0  0  0  0  0  0  0  0
   40.9324   36.6038   85.0355 C   0  0  0  0  0  0  0  0  0  0  0  0
   45.7911   36.8303   76.8926 C   0  0  0  0  0  0  0  0  0  0  0  0
   45.5226   35.4023   83.5196 C   0  0  0  0  0  0  0  0  0  0  0  0
   44.0422   40.0262   83.0596 C   0  0  0  0  0  0  0  0  0  0  0  0
   45.7726   36.4983   81.3926 C   0  0  0  0  0  0  0  0  0  0  0  0
   45.1119   34.4952   76.6614 O   0  0  0  0  0  0  0  0  0  0  0  0
   46.1179   37.6427   86.0934 O   0  0  0  0  0  0  0  0  0  0  0  0
   45.3861   35.6848   76.0063 C   0  0  0  0  0  0  0  0  0  0  0  0
   45.0279   37.0467   79.1594 N   0  0  0  0  0  0  0  0  0  0  0  0
   45.2129   37.4898   80.4576 C   0  0  0  0  0  0  0  0  0  0  0  0
   45.2178   37.8516   83.3268 C   0  0  0  0  0  0  0  0  0  0  0  0
   41.6128   36.2103   86.1837 C   0  0  0  0  0  0  0  0  0  0  0  0
   45.9340   36.4925   78.3362 C   0  0  0  0  0  0  0  0  0  0  0  0
   44.7672   36.1554   74.7430 C   0  0  0  0  0  0  0  0  0  0  0  0
   43.8543   41.0266   80.8948 C   0  0  0  0  0  0  0  0  0  0  0  0
   45.3343   36.5746   82.7096 N   0  0  0  0  0  0  0  0  0  0  0  0
   46.0943   36.3694   85.9320 C   0  0  0  0  0  0  0  0  0  0  0  0
   43.6392   35.9293   84.9325 C   0  0  0  0  0  0  0  0  0  0  0  0
  1 11  2  0
  1 31  1  0
  2 30  2  0
  3 10  1  0
  3 17  2  0
  3 24  1  0
  4 18  2  0
  5 10  2  0
  5 28  1  0
  6 26  2  0
  7 25  1  0
  7 31  2  0
  8 28  1  0
  9 16  1  0
 10 23  1  0
 11 14  1  0
 12 17  1  0
 12 28  2  0
 13 16  1  0
 13 30  1  0
 13 31  1  0
 14 25  2  0
 15 21  1  0
 15 26  1  0
 16 29  1  0
 18 23  1  0
 18 29  1  0
 19 21  1  0
 20 30  1  0
 21 27  1  0
 22 23  1  0
 22 26  1  0
 24 29  1  0
M  END
>  <ID>  (1) 
conformer_0

$$$$
