
     RDKit          3D

 19 19  0  0  0  0  0  0  0  0999 V2000
   46.6640   36.1585   85.1188 O   0  0  0  0  0  0  0  0  0  0  0  0
   43.8730   36.8349   83.5781 C   0  0  0  0  0  0  0  0  0  0  0  0
   41.5889   36.2487   84.1109 C   0  0  0  0  0  0  0  0  0  0  0  0
   43.2838   35.8717   85.7216 C   0  0  0  0  0  0  0  0  0  0  0  0
   44.8749   37.3688   82.5893 C   0  0  0  0  0  0  0  0  0  0  0  0
   45.0599   36.0870   75.5697 N   0  0  0  0  0  0  0  0  0  0  0  0
   41.9526   35.8018   85.3466 C   0  0  0  0  0  0  0  0  0  0  0  0
   46.6731   35.6495   79.6171 O   0  0  0  0  0  0  0  0  0  0  0  0
   45.7015   36.3841   81.8316 C   0  0  0  0  0  0  0  0  0  0  0  0
   45.5416   36.9705   76.3657 C   0  0  0  0  0  0  0  0  0  0  0  0
   45.4683   36.5117   85.4418 O   0  0  0  0  0  0  0  0  0  0  0  0
   44.2203   36.3994   84.8620 C   0  0  0  0  0  0  0  0  0  0  0  0
   46.2052   35.3692   78.2746 C   0  0  0  0  0  0  0  0  0  0  0  0
   45.6251   38.2176   76.1034 O   0  0  0  0  0  0  0  0  0  0  0  0
   42.5082   36.7499   83.2378 C   0  0  0  0  0  0  0  0  0  0  0  0
   45.8072   36.5196   80.3393 C   0  0  0  0  0  0  0  0  0  0  0  0
   45.6244   36.5985   77.7951 C   0  0  0  0  0  0  0  0  0  0  0  0
   44.6230   38.6939   81.7701 C   0  0  0  0  0  0  0  0  0  0  0  0
   46.1987   35.3141   82.3096 O   0  0  0  0  0  0  0  0  0  0  0  0
  1 11  1  0
  2  5  1  0
  2 12  2  0
  2 15  1  0
  3  7  1  0
  3 15  2  0
  4  7  2  0
  4 12  1  0
  5  9  1  0
  5 18  1  0
  6 10  1  0
  8 13  1  0
  8 16  1  0
  9 16  1  0
  9 19  2  0
 10 14  2  0
 10 17  1  0
 11 12  1  0
 13 17  1  0
M  END
>  <ID>  (1) 
conformer_0

$$$$
