
     RDKit          3D

 31 34  0  0  0  0  0  0  0  0999 V2000
   44.0138   37.7211   85.3662 O   0  0  0  0  0  0  0  0  0  0  0  0
   42.7479   41.8983   82.5667 C   0  0  0  0  0  0  0  0  0  0  0  0
   45.6861   36.3770   82.3022 C   0  0  0  0  0  0  0  0  0  0  0  0
   45.3236   36.0588   88.0554 C   0  0  0  0  0  0  0  0  0  0  0  0
   43.5712   35.0252   86.7618 C   0  0  0  0  0  0  0  0  0  0  0  0
   46.3243   35.3614   82.6417 O   0  0  0  0  0  0  0  0  0  0  0  0
   45.2473   37.4722   74.6338 C   0  0  0  0  0  0  0  0  0  0  0  0
   43.8300   41.2806   80.1757 Cl  0  0  0  0  0  0  0  0  0  0  0  0
   43.8889   39.7967   82.3777 C   0  0  0  0  0  0  0  0  0  0  0  0
   43.5917   39.4811   83.6403 C   0  0  0  0  0  0  0  0  0  0  0  0
   42.8856   34.7448   87.9120 C   0  0  0  0  0  0  0  0  0  0  0  0
   42.5962   39.9956   85.7372 O   0  0  0  0  0  0  0  0  0  0  0  0
   44.7165   36.6688   84.5778 C   0  0  0  0  0  0  0  0  0  0  0  0
   43.9762   38.2508   84.1721 N   0  0  0  0  0  0  0  0  0  0  0  0
   45.6029   35.9560   85.5415 C   0  0  0  0  0  0  0  0  0  0  0  0
   45.4456   36.3075   76.4252 N   0  0  0  0  0  0  0  0  0  0  0  0
   43.4039   35.1047   89.1483 C   0  0  0  0  0  0  0  0  0  0  0  0
   45.9050   35.7742   77.5774 C   0  0  0  0  0  0  0  0  0  0  0  0
   42.4280   41.5712   83.9203 C   0  0  0  0  0  0  0  0  0  0  0  0
   45.5140   36.6303   81.0059 N   0  0  0  0  0  0  0  0  0  0  0  0
   46.5427   34.7433   77.6253 O   0  0  0  0  0  0  0  0  0  0  0  0
   42.8614   40.3589   84.4694 C   0  0  0  0  0  0  0  0  0  0  0  0
   46.2427   36.1026   79.9699 C   0  0  0  0  0  0  0  0  0  0  0  0
   46.8423   35.8943   85.4143 O   0  0  0  0  0  0  0  0  0  0  0  0
   44.8198   35.6710   86.8009 C   0  0  0  0  0  0  0  0  0  0  0  0
   44.6257   35.7749   89.2236 C   0  0  0  0  0  0  0  0  0  0  0  0
   44.8702   37.3621   83.2820 C   0  0  0  0  0  0  0  0  0  0  0  0
   43.4711   40.9680   81.8337 C   0  0  0  0  0  0  0  0  0  0  0  0
   45.8162   37.7193   76.0997 C   0  0  0  0  0  0  0  0  0  0  0  0
   45.8166   36.7143   78.6884 C   0  0  0  0  0  0  0  0  0  0  0  0
   44.9764   35.9600   75.1366 C   0  0  0  0  0  0  0  0  0  0  0  0
  1 13  1  0
  1 14  1  0
  2 19  2  0
  2 28  1  0
  3  6  2  0
  3 20  1  0
  3 27  1  0
  4 25  2  0
  4 26  1  0
  5 11  2  0
  5 25  1  0
  7 29  1  0
  7 31  1  0
  8 28  1  0
  9 10  1  0
  9 28  2  0
 10 14  1  0
 10 22  2  0
 11 17  1  0
 12 22  1  0
 13 15  1  0
 13 27  1  0
 14 27  1  0
 15 24  2  0
 15 25  1  0
 16 18  1  0
 16 29  1  0
 16 31  1  0
 17 26  2  0
 18 21  2  0
 18 30  1  0
 19 22  1  0
 20 23  1  0
 23 30  1  0
M  END
>  <ID>  (1) 
conformer_0

$$$$
