
     RDKit          3D

 42 46  0  0  0  0  0  0  0  0999 V2000
   41.7302   37.4004   91.1740 O   0  0  0  0  0  0  0  0  0  0  0  0
   44.8628   35.3579   90.8851 C   0  0  0  0  0  0  0  0  0  0  0  0
   45.9142   35.3251   81.8666 N   0  0  0  0  0  0  0  0  0  0  0  0
   45.7813   35.5965   86.0350 C   0  0  0  0  0  0  0  0  0  0  0  0
   40.5945   38.2377   86.6302 O   0  0  0  0  0  0  0  0  0  0  0  0
   41.3241   38.1515   87.8005 C   0  0  0  0  0  0  0  0  0  0  0  0
   41.7020   37.3794   85.6283 C   0  0  0  0  0  0  0  0  0  0  0  0
   45.3689   35.5806   88.4357 C   0  0  0  0  0  0  0  0  0  0  0  0
   40.5672   37.7840   89.0775 C   0  0  0  0  0  0  0  0  0  0  0  0
   42.5024   36.5690   90.3830 C   0  0  0  0  0  0  0  0  0  0  0  0
   44.6457   36.5362   83.5732 C   0  0  0  0  0  0  0  0  0  0  0  0
   40.6301   37.8648   85.4968 C   0  0  0  0  0  0  0  0  0  0  0  0
   46.1714   36.1516   79.5165 C   0  0  0  0  0  0  0  0  0  0  0  0
   41.6961   36.3131   83.5426 C   0  0  0  0  0  0  0  0  0  0  0  0
   43.6762   37.0355   89.4901 C   0  0  0  0  0  0  0  0  0  0  0  0
   45.3027   36.3444   87.2222 C   0  0  0  0  0  0  0  0  0  0  0  0
   43.0129   41.6143   82.3759 C   0  0  0  0  0  0  0  0  0  0  0  0
   45.3657   35.4455   83.1008 C   0  0  0  0  0  0  0  0  0  0  0  0
   45.7396   36.2708   80.8955 C   0  0  0  0  0  0  0  0  0  0  0  0
   45.9664   36.2492   77.2092 C   0  0  0  0  0  0  0  0  0  0  0  0
   40.4437   36.9104   83.3387 C   0  0  0  0  0  0  0  0  0  0  0  0
   45.1971   36.6816   74.9801 C   0  0  0  0  0  0  0  0  0  0  0  0
   47.3674   36.0328   79.3498 O   0  0  0  0  0  0  0  0  0  0  0  0
   44.5668   37.9027   83.2792 O   0  0  0  0  0  0  0  0  0  0  0  0
   45.3443   36.4576   78.5411 O   0  0  0  0  0  0  0  0  0  0  0  0
   44.6499   35.0024   85.2910 C   0  0  0  0  0  0  0  0  0  0  0  0
   44.9713   35.7086   76.1812 C   0  0  0  0  0  0  0  0  0  0  0  0
   42.4443   36.6111   84.6954 C   0  0  0  0  0  0  0  0  0  0  0  0
   44.1958   39.6139   81.6557 C   0  0  0  0  0  0  0  0  0  0  0  0
   46.9874   35.0895   86.2311 O   0  0  0  0  0  0  0  0  0  0  0  0
   43.0134   41.9225   80.8991 C   0  0  0  0  0  0  0  0  0  0  0  0
   45.2162   37.4765   81.0986 C   0  0  0  0  0  0  0  0  0  0  0  0
   43.9859   40.5414   82.7547 C   0  0  0  0  0  0  0  0  0  0  0  0
   44.5087   40.0663   80.2556 C   0  0  0  0  0  0  0  0  0  0  0  0
   44.9217   36.2551   89.6869 C   0  0  0  0  0  0  0  0  0  0  0  0
   43.8074   36.1737   84.8036 C   0  0  0  0  0  0  0  0  0  0  0  0
   45.6480   37.6736   87.1621 O   0  0  0  0  0  0  0  0  0  0  0  0
   44.2863   41.5403   80.1702 C   0  0  0  0  0  0  0  0  0  0  0  0
   39.8841   37.7664   84.2853 C   0  0  0  0  0  0  0  0  0  0  0  0
   44.6929   38.3429   81.9846 C   0  0  0  0  0  0  0  0  0  0  0  0
   45.3622   34.4469   84.0337 O   0  0  0  0  0  0  0  0  0  0  0  0
   41.4147   38.3677   90.2477 C   0  0  0  0  0  0  0  0  0  0  0  0
  1 10  1  0
  1 42  1  0
  2 35  1  0
  3 18  1  0
  3 19  2  0
  4 16  1  0
  4 26  1  0
  4 30  1  0
  5  6  1  0
  5 12  1  0
  6  9  1  0
  7 12  2  0
  7 28  1  0
  8 16  1  0
  8 35  1  0
  9 42  1  0
 10 15  1  0
 11 18  1  0
 11 24  1  0
 11 36  1  0
 12 39  1  0
 13 19  1  0
 13 23  2  0
 13 25  1  0
 14 21  2  0
 14 28  1  0
 15 35  1  0
 16 37  1  0
 17 31  1  0
 17 33  1  0
 18 41  1  0
 19 32  1  0
 20 25  1  0
 20 27  1  0
 21 39  1  0
 22 27  1  0
 24 40  1  0
 26 36  1  0
 26 41  1  0
 28 36  1  0
 29 33  1  0
 29 34  1  0
 29 40  1  0
 31 38  1  0
 32 40  2  0
 34 38  1  0
M  END
>  <ID>  (1) 
conformer_0

$$$$
