
     RDKit          3D

 21 21  0  0  0  0  0  0  0  0999 V2000
   45.1884   35.4526   84.1169 C   0  0  0  0  0  0  0  0  0  0  0  0
   46.1277   35.9572   87.2389 O   0  0  0  0  0  0  0  0  0  0  0  0
   44.0251   35.4688   75.7383 O   0  0  0  0  0  0  0  0  0  0  0  0
   45.6504   36.8099   80.5704 N   0  0  0  0  0  0  0  0  0  0  0  0
   44.9179   36.2840   82.8844 C   0  0  0  0  0  0  0  0  0  0  0  0
   45.1919   36.6472   79.2985 O   0  0  0  0  0  0  0  0  0  0  0  0
   45.0989   35.9553   76.1460 C   0  0  0  0  0  0  0  0  0  0  0  0
   43.4327   40.8069   82.2531 O   0  0  0  0  0  0  0  0  0  0  0  0
   46.2808   36.7043   86.2448 C   0  0  0  0  0  0  0  0  0  0  0  0
   46.5863   35.1215   81.8671 O   0  0  0  0  0  0  0  0  0  0  0  0
   45.7339   35.9844   81.6908 C   0  0  0  0  0  0  0  0  0  0  0  0
   44.3817   38.0760   84.5975 C   0  0  0  0  0  0  0  0  0  0  0  0
   46.1793   36.4049   78.2874 C   0  0  0  0  0  0  0  0  0  0  0  0
   44.4989   38.6024   82.2138 C   0  0  0  0  0  0  0  0  0  0  0  0
   45.6889   35.2435   77.4189 C   0  0  0  0  0  0  0  0  0  0  0  0
   45.4377   37.1609   75.9247 O   0  0  0  0  0  0  0  0  0  0  0  0
   43.7494   39.6701   82.8470 C   0  0  0  0  0  0  0  0  0  0  0  0
   46.5604   37.9537   86.3158 O   0  0  0  0  0  0  0  0  0  0  0  0
   45.0515   37.7197   83.3081 C   0  0  0  0  0  0  0  0  0  0  0  0
   43.7421   39.4393   84.3014 C   0  0  0  0  0  0  0  0  0  0  0  0
   46.2238   36.0433   84.9701 O   0  0  0  0  0  0  0  0  0  0  0  0
  1  5  1  0
  1 21  1  0
  2  9  2  0
  3  7  2  0
  4  6  1  0
  4 11  1  0
  5 11  1  0
  5 19  1  0
  6 13  1  0
  7 15  1  0
  7 16  1  0
  8 17  1  0
  9 18  1  0
  9 21  1  0
 10 11  2  0
 12 19  1  0
 12 20  1  0
 13 15  1  0
 14 17  1  0
 14 19  1  0
 17 20  1  0
M  END
>  <ID>  (1) 
conformer_0

$$$$
