
     RDKit          3D

 39 42  0  0  0  0  0  0  0  0999 V2000
   43.0668   40.2384   82.4916 C   0  0  0  0  0  0  0  0  0  0  0  0
   43.8034   40.8711   80.3013 O   0  0  0  0  0  0  0  0  0  0  0  0
   42.3167   40.3511   88.9504 C   0  0  0  0  0  0  0  0  0  0  0  0
   47.0026   35.8079   81.0080 O   0  0  0  0  0  0  0  0  0  0  0  0
   45.3602   35.8149   83.1039 C   0  0  0  0  0  0  0  0  0  0  0  0
   45.7134   34.6545   83.1010 O   0  0  0  0  0  0  0  0  0  0  0  0
   45.8961   36.1373   78.3938 C   0  0  0  0  0  0  0  0  0  0  0  0
   43.0756   39.3010   83.5182 C   0  0  0  0  0  0  0  0  0  0  0  0
   44.1157   38.3148   83.5215 C   0  0  0  0  0  0  0  0  0  0  0  0
   42.0009   39.2389   84.4467 O   0  0  0  0  0  0  0  0  0  0  0  0
   43.8663   40.0092   81.3615 C   0  0  0  0  0  0  0  0  0  0  0  0
   45.9420   37.1881   76.1475 C   0  0  0  0  0  0  0  0  0  0  0  0
   44.6001   37.6877   84.8007 C   0  0  0  0  0  0  0  0  0  0  0  0
   44.7127   38.9088   81.2987 C   0  0  0  0  0  0  0  0  0  0  0  0
   45.5665   36.1775   77.0001 C   0  0  0  0  0  0  0  0  0  0  0  0
   45.6119   38.4270   87.2336 C   0  0  0  0  0  0  0  0  0  0  0  0
   44.7756   36.2215   74.2722 C   0  0  0  0  0  0  0  0  0  0  0  0
   40.6601   37.0376   83.9064 C   0  0  0  0  0  0  0  0  0  0  0  0
   44.9297   35.0865   76.4073 C   0  0  0  0  0  0  0  0  0  0  0  0
   44.4789   35.1328   75.0765 C   0  0  0  0  0  0  0  0  0  0  0  0
   44.4189   36.1367   86.7220 S   0  0  0  0  0  3  0  0  0  0  0  0
   45.3547   37.4016   86.1872 C   0  0  0  0  0  0  0  0  0  0  0  0
   46.6636   35.1967   78.5919 O   0  0  0  0  0  0  0  0  0  0  0  0
   43.7829   40.0937   87.1095 C   0  0  0  0  0  0  0  0  0  0  0  0
   46.6837   39.3516   86.8637 O   0  0  0  0  0  0  0  0  0  0  0  0
   45.5207   37.2411   74.8121 C   0  0  0  0  0  0  0  0  0  0  0  0
   45.1472   34.8494   86.5494 O   0  0  0  0  0  1  0  0  0  0  0  0
   44.0975   38.7780   89.0664 C   0  0  0  0  0  0  0  0  0  0  0  0
   43.0497   39.4119   89.6715 C   0  0  0  0  0  0  0  0  0  0  0  0
   39.3924   38.9947   84.5992 C   0  0  0  0  0  0  0  0  0  0  0  0
   45.3890   36.7677   79.5266 O   0  0  0  0  0  0  0  0  0  0  0  0
   46.6629   37.0167   85.6445 O   0  0  0  0  0  0  0  0  0  0  0  0
   45.9146   36.3995   80.7808 C   0  0  0  0  0  0  0  0  0  0  0  0
   44.4772   39.1143   87.8050 C   0  0  0  0  0  0  0  0  0  0  0  0
   44.9823   36.3209   84.2819 N   0  0  0  0  0  0  0  0  0  0  0  0
   44.7263   37.9611   82.2982 C   0  0  0  0  0  0  0  0  0  0  0  0
   42.6863   40.6836   87.6633 C   0  0  0  0  0  0  0  0  0  0  0  0
   40.8188   38.5261   84.3504 C   0  0  0  0  0  0  0  0  0  0  0  0
   45.2566   36.6810   82.0256 N   0  0  0  0  0  0  0  0  0  0  0  0
  1  8  1  0
  1 11  1  0
  2 11  1  0
  3 29  2  0
  3 37  1  0
  4 33  2  0
  5  6  2  0
  5 35  1  0
  5 39  1  0
  7 15  1  0
  7 23  2  0
  7 31  1  0
  8  9  1  0
  8 10  1  0
  9 13  1  0
  9 36  1  0
 10 38  1  0
 11 14  2  0
 12 15  2  0
 12 26  1  0
 13 22  1  0
 13 35  1  0
 14 36  1  0
 15 19  1  0
 16 22  1  0
 16 25  1  0
 16 34  1  0
 17 20  1  0
 17 26  2  0
 18 38  1  0
 19 20  2  0
 21 22  1  0
 21 27  2  0
 22 32  1  0
 24 34  1  0
 24 37  2  0
 28 29  1  0
 28 34  2  0
 30 38  1  0
 31 33  1  0
 33 39  1  0
 36 39  1  0
M  END
>  <ID>  (1) 
conformer_0

$$$$
