
     RDKit          3D

 27 28  0  0  0  0  0  0  0  0999 V2000
   45.9361   36.1069   82.9213 C   0  0  0  0  0  0  0  0  0  0  0  0
   45.1289   38.3135   82.7170 C   0  0  0  0  0  0  0  0  0  0  0  0
   44.9535   38.0983   81.3651 C   0  0  0  0  0  0  0  0  0  0  0  0
   43.7566   35.5736   86.6629 C   0  0  0  0  0  0  0  0  0  0  0  0
   39.7997   37.2017   84.5175 C   0  0  0  0  0  0  0  0  0  0  0  0
   45.3794   36.8368   79.3793 N   0  0  0  0  0  0  0  0  0  0  0  0
   42.1754   36.7944   85.0089 C   0  0  0  0  0  0  0  0  0  0  0  0
   45.2717   37.0355   75.1453 O   0  0  0  0  0  0  0  0  0  0  0  0
   45.6706   35.7158   77.1622 C   0  0  0  0  0  0  0  0  0  0  0  0
   45.3091   36.9790   76.4323 C   0  0  0  0  0  0  0  0  0  0  0  0
   41.0084   36.2370   84.1586 C   0  0  0  0  0  0  0  0  0  0  0  0
   45.0438   38.0262   77.1557 O   0  0  0  0  0  0  0  0  0  0  0  0
   45.4606   36.9356   80.7636 C   0  0  0  0  0  0  0  0  0  0  0  0
   47.1798   35.6236   78.9977 O   0  0  0  0  0  0  0  0  0  0  0  0
   40.3974   38.6374   84.4784 C   0  0  0  0  0  0  0  0  0  0  0  0
   45.8937   35.9247   81.5582 C   0  0  0  0  0  0  0  0  0  0  0  0
   42.2676   35.7478   86.2329 C   0  0  0  0  0  0  0  0  0  0  0  0
   39.2041   39.4674   85.0612 C   0  0  0  0  0  0  0  0  0  0  0  0
   46.1907   34.9990   83.6060 O   0  0  0  0  0  0  0  0  0  0  0  0
   44.2670   38.9779   80.5954 O   0  0  0  0  0  0  0  0  0  0  0  0
   46.0523   35.9921   78.6248 C   0  0  0  0  0  0  0  0  0  0  0  0
   45.9682   36.4338   85.7834 C   0  0  0  0  0  0  0  0  0  0  0  0
   46.2848   37.5872   84.9130 C   0  0  0  0  0  0  0  0  0  0  0  0
   41.9363   38.3556   84.7369 C   0  0  0  0  0  0  0  0  0  0  0  0
   44.6082   36.1129   85.6716 O   0  0  0  0  0  0  0  0  0  0  0  0
   46.5828   35.9201   86.7711 O   0  0  0  0  0  0  0  0  0  0  0  0
   45.7473   37.3474   83.5002 C   0  0  0  0  0  0  0  0  0  0  0  0
  1 16  2  0
  1 19  1  0
  1 27  1  0
  2  3  2  0
  2 27  1  0
  3 13  1  0
  3 20  1  0
  4 17  1  0
  4 25  1  0
  5 11  1  0
  5 15  1  0
  6 13  1  0
  6 21  1  0
  7 11  1  0
  7 17  1  0
  7 24  1  0
  8 10  2  0
  9 10  1  0
  9 21  1  0
 10 12  1  0
 13 16  1  0
 14 21  2  0
 15 18  1  0
 15 24  1  0
 22 23  1  0
 22 25  1  0
 22 26  2  0
 23 27  1  0
M  END
>  <ID>  (1) 
conformer_0

$$$$
