
     RDKit          3D

 31 34  0  0  0  0  0  0  0  0999 V2000
   46.8541   36.0492   80.7318 O   0  0  0  0  0  0  0  0  0  0  0  0
   45.5386   36.1425   77.3191 C   0  0  0  0  0  0  0  0  0  0  0  0
   41.6144   38.2318   84.7414 C   0  0  0  0  0  0  0  0  0  0  0  0
   42.3846   35.5644   87.6394 O   0  0  0  0  0  0  0  0  0  0  0  0
   45.0341   35.0908   77.0309 O   0  0  0  0  0  0  0  0  0  0  0  0
   43.8012   40.6955   84.4552 O   0  0  0  0  0  0  0  0  0  0  0  0
   45.1567   37.4470   80.2494 C   0  0  0  0  0  0  0  0  0  0  0  0
   46.8915   35.6033   85.9407 O   0  0  0  0  0  0  0  0  0  0  0  0
   44.7334   36.1876   85.6229 C   0  0  0  0  0  0  0  0  0  0  0  0
   44.2413   38.5116   80.7033 C   0  0  0  0  0  0  0  0  0  0  0  0
   45.4664   40.0946   85.7938 O   0  0  0  0  0  0  0  0  0  0  0  0
   44.5807   39.7977   84.9318 C   0  0  0  0  0  0  0  0  0  0  0  0
   46.2598   36.8391   76.5935 O   0  0  0  0  0  0  0  0  0  0  0  0
   43.9217   37.3668   85.3204 C   0  0  0  0  0  0  0  0  0  0  0  0
   40.3602   38.1324   84.1435 C   0  0  0  0  0  0  0  0  0  0  0  0
   46.7718   36.0614   79.3502 C   0  0  0  0  0  0  0  0  0  0  0  0
   46.1531   35.9511   83.5865 C   0  0  0  0  0  0  0  0  0  0  0  0
   45.5800   36.9347   82.6330 C   0  0  0  0  0  0  0  0  0  0  0  0
   44.6418   38.4130   84.4866 N   0  0  0  0  0  0  0  0  0  0  0  0
   46.0670   36.1102   85.0382 C   0  0  0  0  0  0  0  0  0  0  0  0
   42.4930   37.1401   84.7976 C   0  0  0  0  0  0  0  0  0  0  0  0
   43.4798   34.9009   87.3169 C   0  0  0  0  0  0  0  0  0  0  0  0
   44.7877   38.0318   83.0720 C   0  0  0  0  0  0  0  0  0  0  0  0
   44.1296   38.7943   82.0821 C   0  0  0  0  0  0  0  0  0  0  0  0
   45.8202   36.8242   81.2613 C   0  0  0  0  0  0  0  0  0  0  0  0
   46.0419   34.6637   83.1634 O   0  0  0  0  0  0  0  0  0  0  0  0
   45.4576   36.7966   78.8947 C   0  0  0  0  0  0  0  0  0  0  0  0
   42.0358   35.9202   84.3281 C   0  0  0  0  0  0  0  0  0  0  0  0
   39.9417   36.9198   83.6306 C   0  0  0  0  0  0  0  0  0  0  0  0
   44.2924   35.0972   86.2633 N   0  0  0  0  0  0  0  0  0  0  0  0
   40.7695   35.8075   83.7498 C   0  0  0  0  0  0  0  0  0  0  0  0
  1 16  1  0
  1 25  1  0
  2  5  2  0
  2 13  1  0
  2 27  1  0
  3 15  1  0
  3 21  1  0
  4 22  1  0
  6 12  2  0
  7 10  2  0
  7 25  1  0
  7 27  1  0
  8 20  1  0
  9 14  1  0
  9 20  1  0
  9 30  1  0
 10 24  1  0
 11 12  1  0
 12 19  1  0
 14 19  1  0
 14 21  1  0
 15 29  2  0
 16 27  1  0
 17 18  1  0
 17 20  1  0
 17 26  1  0
 18 23  2  0
 18 25  1  0
 19 23  1  0
 21 28  2  0
 22 30  1  0
 23 24  1  0
 28 31  1  0
 29 31  1  0
M  END
>  <ID>  (1) 
conformer_0

$$$$
