
     RDKit          3D

 30 32  0  0  0  0  0  0  0  0999 V2000
   45.5307   35.7976   82.0745 C   0  0  0  0  0  0  0  0  0  0  0  0
   46.0187   34.7764   82.7963 O   0  0  0  0  0  0  0  0  0  0  0  0
   45.5398   36.2915   76.2109 C   0  0  0  0  0  0  0  0  0  0  0  0
   45.9452   35.8429   80.7872 C   0  0  0  0  0  0  0  0  0  0  0  0
   44.5827   36.7250   82.6373 C   0  0  0  0  0  0  0  0  0  0  0  0
   45.7058   36.4244   78.4598 C   0  0  0  0  0  0  0  0  0  0  0  0
   43.8266   40.3471   81.9761 C   0  0  0  0  0  0  0  0  0  0  0  0
   46.5449   36.9795   85.0377 C   0  0  0  0  0  0  0  0  0  0  0  0
   45.7584   35.2117   86.6280 O   0  0  0  0  0  0  0  0  0  0  0  0
   44.1504   36.1132   85.1068 C   0  0  0  0  0  0  0  0  0  0  0  0
   45.9963   35.1698   78.0405 N   0  0  0  0  0  0  0  0  0  0  0  0
   42.6512   34.8753   88.2578 C   0  0  0  0  0  0  0  0  0  0  0  0
   42.9130   35.4123   87.1374 O   0  0  0  0  0  0  0  0  0  0  0  0
   45.0319   35.5718   73.9034 C   0  0  0  0  0  0  0  0  0  0  0  0
   46.5137   38.2958   85.1412 O   0  0  0  0  0  0  0  0  0  0  0  0
   45.4783   36.1491   85.6677 C   0  0  0  0  0  0  0  0  0  0  0  0
   44.4277   37.9125   81.8340 C   0  0  0  0  0  0  0  0  0  0  0  0
   44.8074   37.9259   80.4693 C   0  0  0  0  0  0  0  0  0  0  0  0
   47.5577   36.4147   84.5748 O   0  0  0  0  0  0  0  0  0  0  0  0
   45.1690   37.8739   74.5048 O   0  0  0  0  0  0  0  0  0  0  0  0
   42.9843   35.7588   85.9029 C   0  0  0  0  0  0  0  0  0  0  0  0
   43.8779   39.0566   82.5157 O   0  0  0  0  0  0  0  0  0  0  0  0
   43.7796   36.3953   83.7695 C   0  0  0  0  0  0  0  0  0  0  0  0
   45.4911   36.7854   79.8634 C   0  0  0  0  0  0  0  0  0  0  0  0
   45.5063   37.1801   77.3164 O   0  0  0  0  0  0  0  0  0  0  0  0
   45.8389   35.1208   76.6980 N   0  0  0  0  0  0  0  0  0  0  0  0
   41.8748   35.8526   84.9845 C   0  0  0  0  0  0  0  0  0  0  0  0
   45.1844   36.6539   74.8159 C   0  0  0  0  0  0  0  0  0  0  0  0
   42.3878   36.1534   83.7411 C   0  0  0  0  0  0  0  0  0  0  0  0
   41.5539   36.0276   82.4974 Cl  0  0  0  0  0  0  0  0  0  0  0  0
  1  2  1  0
  1  4  2  0
  1  5  1  0
  3 25  1  0
  3 26  1  0
  3 28  1  0
  4 24  1  0
  5 17  1  0
  5 23  1  0
  6 11  1  0
  6 24  1  0
  6 25  1  0
  7 22  1  0
  8 15  2  0
  8 16  1  0
  8 19  1  0
  9 16  1  0
 10 16  1  0
 10 21  2  0
 10 23  1  0
 11 26  1  0
 12 13  1  0
 13 21  1  0
 14 28  1  0
 17 18  1  0
 17 22  1  0
 18 24  2  0
 20 28  2  0
 21 27  1  0
 23 29  2  0
 27 29  1  0
 29 30  1  0
M  END
>  <ID>  (1) 
conformer_0

$$$$
