
     RDKit          3D

 24 25  0  0  0  0  0  0  0  0999 V2000
   46.7115   36.2799   85.2489 O   0  0  0  0  0  0  0  0  0  0  0  0
   45.0313   36.3263   83.3568 C   0  0  0  0  0  0  0  0  0  0  0  0
   45.7953   36.2382   77.5702 S   0  0  0  0  0  4  0  0  0  0  0  0
   44.8612   35.2727   86.0631 O   0  0  0  0  0  0  0  0  0  0  0  0
   44.9786   37.7992   81.1136 C   0  0  0  0  0  0  0  0  0  0  0  0
   41.3869   36.1594   83.1042 C   0  0  0  0  0  0  0  0  0  0  0  0
   44.0911   39.4163   82.7162 C   0  0  0  0  0  0  0  0  0  0  0  0
   45.3268   36.6639   81.9452 C   0  0  0  0  0  0  0  0  0  0  0  0
   45.6825   36.5924   79.2273 C   0  0  0  0  0  0  0  0  0  0  0  0
   42.8438   36.9897   85.1731 C   0  0  0  0  0  0  0  0  0  0  0  0
   45.1652   37.7041   79.7569 C   0  0  0  0  0  0  0  0  0  0  0  0
   43.9238   37.1013   83.9873 C   0  0  0  0  0  0  0  0  0  0  0  0
   44.3054   40.1141   80.3659 C   0  0  0  0  0  0  0  0  0  0  0  0
   41.5265   36.3969   84.6301 C   0  0  0  0  0  0  0  0  0  0  0  0
   46.4446   37.3316   76.9207 O   0  0  0  0  0  0  0  0  0  0  0  0
   44.5280   35.9472   77.0920 O   0  0  0  0  0  0  0  0  0  0  0  0
   46.6493   35.0227   77.5666 O   0  0  0  0  0  0  0  0  0  0  0  0
   46.0334   35.6441   81.3314 C   0  0  0  0  0  0  0  0  0  0  0  0
   46.1766   35.5771   80.0145 C   0  0  0  0  0  0  0  0  0  0  0  0
   45.6607   35.6239   85.0876 C   0  0  0  0  0  0  0  0  0  0  0  0
   43.6822   41.3569   80.6680 C   0  0  0  0  0  0  0  0  0  0  0  0
   43.9814   38.5217   83.6650 C   0  0  0  0  0  0  0  0  0  0  0  0
   44.4706   39.0849   81.4543 N   0  0  0  0  0  0  0  0  0  0  0  0
   45.4653   34.8884   83.7571 C   0  0  0  0  0  0  0  0  0  0  0  0
  1 20  2  0
  2  8  1  0
  2 12  1  0
  2 24  1  0
  3  9  1  0
  3 15  1  0
  3 16  1  0
  3 17  1  0
  4 20  1  0
  5  8  2  0
  5 11  1  0
  5 23  1  0
  6 14  1  0
  7 22  2  0
  7 23  1  0
  8 18  1  0
  9 11  2  0
  9 19  1  0
 10 12  1  0
 10 14  1  0
 12 22  1  0
 13 21  1  0
 13 23  1  0
 18 19  2  0
 20 24  1  0
M  END
>  <ID>  (1) 
conformer_0

$$$$
