
     RDKit          3D

 29 31  0  0  0  0  0  0  0  0999 V2000
   45.2413   36.3494   80.3108 C   0  0  0  0  0  0  0  0  0  0  0  0
   45.1400   36.7714   78.0051 C   0  0  0  0  0  0  0  0  0  0  0  0
   41.6350   36.2292   86.0207 C   0  0  0  0  0  0  0  0  0  0  0  0
   45.8231   38.3332   74.8590 C   0  0  0  0  0  0  0  0  0  0  0  0
   43.8709   35.8087   86.8387 C   0  0  0  0  0  0  0  0  0  0  0  0
   44.9095   36.0349   84.2812 C   0  0  0  0  0  0  0  0  0  0  0  0
   43.4855   36.0969   84.4630 C   0  0  0  0  0  0  0  0  0  0  0  0
   42.5553   36.1441   83.4246 C   0  0  0  0  0  0  0  0  0  0  0  0
   47.0479   36.1402   85.1403 O   0  0  0  0  0  0  0  0  0  0  0  0
   42.9945   36.0257   85.7937 C   0  0  0  0  0  0  0  0  0  0  0  0
   46.0078   36.4049   79.1221 C   0  0  0  0  0  0  0  0  0  0  0  0
   46.1858   35.2575   82.4835 O   0  0  0  0  0  0  0  0  0  0  0  0
   45.6791   36.8970   74.9987 C   0  0  0  0  0  0  0  0  0  0  0  0
   45.7672   35.9722   85.3709 C   0  0  0  0  0  0  0  0  0  0  0  0
   47.1767   36.0520   79.0474 O   0  0  0  0  0  0  0  0  0  0  0  0
   44.9706   37.4980   82.4151 C   0  0  0  0  0  0  0  0  0  0  0  0
   44.9321   37.5996   80.9901 C   0  0  0  0  0  0  0  0  0  0  0  0
   44.1429   39.9433   81.2589 C   0  0  0  0  0  0  0  0  0  0  0  0
   44.6765   38.6229   83.1720 C   0  0  0  0  0  0  0  0  0  0  0  0
   45.2420   35.8009   86.6343 O   0  0  0  0  0  0  0  0  0  0  0  0
   44.2333   39.8194   82.6517 C   0  0  0  0  0  0  0  0  0  0  0  0
   45.3743   35.6517   76.9604 C   0  0  0  0  0  0  0  0  0  0  0  0
   43.7381   41.2574   80.6246 C   0  0  0  0  0  0  0  0  0  0  0  0
   45.4284   36.1688   82.9521 C   0  0  0  0  0  0  0  0  0  0  0  0
   44.4825   38.8467   80.4425 C   0  0  0  0  0  0  0  0  0  0  0  0
   46.3776   36.3185   76.0949 O   0  0  0  0  0  0  0  0  0  0  0  0
   41.2347   36.3990   83.6496 C   0  0  0  0  0  0  0  0  0  0  0  0
   40.7644   36.4611   84.9685 C   0  0  0  0  0  0  0  0  0  0  0  0
   44.8299   36.1926   74.3858 O   0  0  0  0  0  0  0  0  0  0  0  0
  1 11  1  0
  1 17  1  0
  2 11  1  0
  2 22  1  0
  3 10  1  0
  3 28  2  0
  4 13  1  0
  5 10  2  0
  5 20  1  0
  6  7  2  0
  6 14  1  0
  6 24  1  0
  7  8  1  0
  7 10  1  0
  8 27  2  0
  9 14  2  0
 11 15  2  0
 12 24  2  0
 13 26  1  0
 13 29  2  0
 14 20  1  0
 16 17  2  0
 16 19  1  0
 16 24  1  0
 17 25  1  0
 18 21  1  0
 18 23  1  0
 18 25  2  0
 19 21  2  0
 22 26  1  0
 27 28  1  0
M  END
>  <ID>  (1) 
conformer_0

$$$$
