
     RDKit          3D

 19 20  0  0  0  0  0  0  0  0999 V2000
   45.9332   34.6159   77.2936 O   0  0  0  0  0  0  0  0  0  0  0  0
   43.8809   35.1314   86.7152 O   0  0  0  0  0  0  0  0  0  0  0  0
   46.4316   35.0756   82.0849 O   0  0  0  0  0  0  0  0  0  0  0  0
   46.0407   35.9801   79.3266 O   0  0  0  0  0  0  0  0  0  0  0  0
   45.2608   36.2931   75.9673 O   0  0  0  0  0  0  0  0  0  0  0  0
   44.9855   35.5998   86.2044 C   0  0  0  0  0  0  0  0  0  0  0  0
   44.8703   36.1744   84.8665 C   0  0  0  0  0  0  0  0  0  0  0  0
   45.9849   36.8078   84.1486 C   0  0  0  0  0  0  0  0  0  0  0  0
   46.1126   36.2205   81.7740 C   0  0  0  0  0  0  0  0  0  0  0  0
   46.0469   35.7083   86.8352 O   0  0  0  0  0  0  0  0  0  0  0  0
   45.4483   36.6168   78.2176 O   0  0  0  0  0  0  0  0  0  0  0  0
   45.6525   37.1713   82.7609 C   0  0  0  0  0  0  0  0  0  0  0  0
   44.4137   37.8375   82.2379 C   0  0  0  0  0  0  0  0  0  0  0  0
   44.5242   37.5927   80.5977 C   0  0  0  0  0  0  0  0  0  0  0  0
   42.3455   38.3069   83.2181 O   0  0  0  0  0  0  0  0  0  0  0  0
   45.7078   36.6547   80.4654 C   0  0  0  0  0  0  0  0  0  0  0  0
   43.5671   37.9016   83.5245 C   0  0  0  0  0  0  0  0  0  0  0  0
   43.6823   36.9083   84.5192 O   0  0  0  0  0  0  0  0  0  0  0  0
   45.5698   35.7496   77.0352 C   0  0  0  0  0  0  0  0  0  0  0  0
  1 19  2  0
  2  6  2  0
  3  9  2  0
  4 11  1  0
  4 16  1  0
  5 19  1  0
  6  7  1  0
  6 10  1  0
  7  8  1  0
  7 18  1  0
  8 12  1  0
  9 12  1  0
  9 16  1  0
 11 19  1  0
 12 13  1  0
 13 14  1  0
 13 17  1  0
 14 16  1  0
 15 17  2  0
 17 18  1  0
M  END
>  <ID>  (1) 
conformer_0

$$$$
