
     RDKit          3D

 21 22  0  0  0  0  0  0  0  0999 V2000
   46.0498   35.6348   78.4648 C   0  0  0  0  0  0  0  0  0  0  0  0
   46.4780   36.9042   85.4206 S   0  0  0  0  0  4  0  0  0  0  0  0
   47.7249   36.5072   84.7649 O   0  0  0  0  0  0  0  0  0  0  0  0
   44.8628   35.0260   76.5325 O   0  0  0  0  0  0  0  0  0  0  0  0
   44.9758   36.9850   82.8733 C   0  0  0  0  0  0  0  0  0  0  0  0
   45.6528   35.8208   76.9663 C   0  0  0  0  0  0  0  0  0  0  0  0
   45.9462   35.5184   86.0798 O   0  0  0  0  0  0  0  0  0  0  0  0
   43.6386   36.7407   83.6874 C   0  0  0  0  0  0  0  0  0  0  0  0
   46.2516   36.7479   76.4017 O   0  0  0  0  0  0  0  0  0  0  0  0
   41.2204   36.4615   83.8258 C   0  0  0  0  0  0  0  0  0  0  0  0
   42.3452   36.8413   83.1191 C   0  0  0  0  0  0  0  0  0  0  0  0
   44.8922   37.5999   81.4814 C   0  0  0  0  0  0  0  0  0  0  0  0
   45.3694   36.7134   79.1495 O   0  0  0  0  0  0  0  0  0  0  0  0
   43.6389   36.3342   85.0017 C   0  0  0  0  0  0  0  0  0  0  0  0
   45.7281   37.9295   83.9297 C   0  0  0  0  0  0  0  0  0  0  0  0
   46.3946   37.9670   86.5174 O   0  0  0  0  0  0  0  0  0  0  0  0
   46.1328   35.6772   81.1678 C   0  0  0  0  0  0  0  0  0  0  0  0
   42.5532   35.9199   85.7354 C   0  0  0  0  0  0  0  0  0  0  0  0
   41.3027   35.9879   85.1587 C   0  0  0  0  0  0  0  0  0  0  0  0
   45.4746   36.7354   80.4849 C   0  0  0  0  0  0  0  0  0  0  0  0
   45.7979   35.7634   82.5651 O   0  0  0  0  0  0  0  0  0  0  0  0
  1  6  1  0
  1 13  1  0
  2  3  1  0
  2  7  1  0
  2 15  1  0
  2 16  1  0
  4  6  2  0
  5  8  1  0
  5 12  1  0
  5 15  1  0
  5 21  1  0
  6  9  1  0
  8 11  1  0
  8 14  2  0
 10 11  2  0
 10 19  1  0
 12 20  1  0
 13 20  1  0
 14 18  1  0
 17 20  1  0
 17 21  1  0
 18 19  2  0
M  END
>  <ID>  (1) 
conformer_0

$$$$
