
     RDKit          3D

 32 34  0  0  0  0  0  0  0  0999 V2000
   47.2421   35.9878   79.9854 O   0  0  0  0  0  0  0  0  0  0  0  0
   44.4736   37.9286   83.8163 C   0  0  0  0  0  0  0  0  0  0  0  0
   42.3500   39.4445   84.6122 C   0  0  0  0  0  0  0  0  0  0  0  0
   45.3429   36.0878   85.2965 C   0  0  0  0  0  0  0  0  0  0  0  0
   46.4095   37.3925   75.8545 O   0  0  0  0  0  0  0  0  0  0  0  0
   44.8016   36.7194   74.4846 O   0  0  0  0  0  0  0  0  0  0  0  0
   42.9163   38.8618   88.5975 C   0  0  0  0  0  0  0  0  0  0  0  0
   45.2340   37.0466   80.6973 C   0  0  0  0  0  0  0  0  0  0  0  0
   42.5744   35.5747   84.3134 C   0  0  0  0  0  0  0  0  0  0  0  0
   45.4719   36.6116   75.5518 C   0  0  0  0  0  0  0  0  0  0  0  0
   46.1451   36.3899   79.7173 C   0  0  0  0  0  0  0  0  0  0  0  0
   45.1395   35.4447   83.9202 C   0  0  0  0  0  0  0  0  0  0  0  0
   45.1918   35.3367   76.4018 C   0  0  0  0  0  0  0  0  0  0  0  0
   46.4188   35.9087   85.8955 O   0  0  0  0  0  0  0  0  0  0  0  0
   44.2149   38.2465   89.3133 C   0  0  0  0  0  0  0  0  0  0  0  0
   42.9251   39.6378   87.1749 C   0  0  0  0  0  0  0  0  0  0  0  0
   44.3574   37.2506   85.4873 C   0  0  0  0  0  0  0  0  0  0  0  0
   42.2118   36.9979   84.0550 C   0  0  0  0  0  0  0  0  0  0  0  0
   42.5465   40.0680   83.3773 O   0  0  0  0  0  0  0  0  0  0  0  0
   43.6927   41.3169   85.4618 O   0  0  0  0  0  0  0  0  0  0  0  0
   43.2328   38.0595   84.6826 C   0  0  0  0  0  0  0  0  0  0  0  0
   44.2274   37.3278   87.0452 C   0  0  0  0  0  0  0  0  0  0  0  0
   45.1858   37.9938   88.0239 C   0  0  0  0  0  0  0  0  0  0  0  0
   45.6501   36.4864   78.3647 C   0  0  0  0  0  0  0  0  0  0  0  0
   44.6955   36.6156   83.0258 C   0  0  0  0  0  0  0  0  0  0  0  0
   43.4929   34.9500   87.0941 C   0  0  0  0  0  0  0  0  0  0  0  0
   45.8393   36.8163   82.0524 C   0  0  0  0  0  0  0  0  0  0  0  0
   42.9897   34.9398   85.6426 C   0  0  0  0  0  0  0  0  0  0  0  0
   46.1364   35.3885   77.5882 N   0  0  0  0  0  0  0  0  0  0  0  0
   40.7904   39.1696   84.7043 C   0  0  0  0  0  0  0  0  0  0  0  0
   43.3849   36.2747   87.7724 C   0  0  0  0  0  0  0  0  0  0  0  0
   42.7381   40.3603   85.7734 C   0  0  0  0  0  0  0  0  0  0  0  0
  1 11  2  0
  2 21  1  0
  2 25  1  0
  3 19  1  0
  3 21  1  0
  3 30  1  0
  3 32  1  0
  4 12  1  0
  4 14  2  0
  4 17  1  0
  5 10  2  0
  6 10  1  0
  7 15  1  0
  7 16  2  0
  8 11  1  0
  8 27  1  0
  9 18  1  0
  9 28  1  0
 10 13  1  0
 11 24  1  0
 12 25  1  0
 13 29  1  0
 15 23  1  0
 16 32  2  0
 17 21  1  0
 17 22  1  0
 18 21  1  0
 20 32  1  0
 22 23  1  0
 22 31  1  0
 24 29  1  0
 25 27  1  0
 26 28  1  0
 26 31  1  0
M  END
>  <ID>  (1) 
conformer_0

$$$$
