
     RDKit          3D

 19 19  0  0  0  0  0  0  0  0999 V2000
   45.8063   36.4487   79.3196 C   0  0  0  0  0  0  0  0  0  0  0  0
   46.6221   35.6245   76.6502 O   0  0  0  0  0  0  0  0  0  0  0  0
   45.0246   36.3197   78.1793 N   0  0  0  0  0  0  0  0  0  0  0  0
   45.4446   35.7167   77.0454 C   0  0  0  0  0  0  0  0  0  0  0  0
   42.3065   37.5782   85.1106 C   0  0  0  0  0  0  0  0  0  0  0  0
   43.8714   38.8466   83.4020 Cl  0  0  0  0  0  0  0  0  0  0  0  0
   47.0506   35.8213   85.8453 O   0  0  0  0  0  0  0  0  0  0  0  0
   45.1927   36.9980   81.6598 C   0  0  0  0  0  0  0  0  0  0  0  0
   44.0300   35.5136   85.7991 C   0  0  0  0  0  0  0  0  0  0  0  0
   44.3482   35.3864   76.0884 C   0  0  0  0  0  0  0  0  0  0  0  0
   44.3969   36.3769   84.7913 C   0  0  0  0  0  0  0  0  0  0  0  0
   43.5352   37.4660   84.5197 C   0  0  0  0  0  0  0  0  0  0  0  0
   42.7998   35.6296   86.4274 C   0  0  0  0  0  0  0  0  0  0  0  0
   45.5333   35.8853   82.5854 C   0  0  0  0  0  0  0  0  0  0  0  0
   41.9421   36.6499   86.0812 C   0  0  0  0  0  0  0  0  0  0  0  0
   45.0807   37.0784   80.3396 N   0  0  0  0  0  0  0  0  0  0  0  0
   46.8482   36.5223   84.6608 C   0  0  0  0  0  0  0  0  0  0  0  0
   45.6300   36.1387   83.9895 C   0  0  0  0  0  0  0  0  0  0  0  0
   46.9557   36.0532   79.4140 O   0  0  0  0  0  0  0  0  0  0  0  0
  1  3  1  0
  1 16  1  0
  1 19  2  0
  2  4  2  0
  3  4  1  0
  4 10  1  0
  5 12  2  0
  5 15  1  0
  6 12  1  0
  7 17  1  0
  8 14  2  3
  8 16  1  0
  9 11  1  0
  9 13  2  0
 11 12  1  0
 11 18  1  0
 13 15  1  0
 14 18  1  0
 17 18  1  0
M  END
>  <ID>  (1) 
conformer_0

$$$$
