
     RDKit          3D

 28 29  0  0  0  0  0  0  0  0999 V2000
   44.9040   35.9127   85.1494 C   0  0  0  0  0  0  0  0  0  0  0  0
   44.5859   38.9868   82.8005 S   0  0  0  0  0  0  0  0  0  0  0  0
   45.8597   37.3959   75.3060 C   0  0  0  0  0  0  0  0  0  0  0  0
   46.2949   36.4709   76.3717 N   0  0  0  0  0  0  0  0  0  0  0  0
   41.5831   36.0319   82.5519 Cl  0  0  0  0  0  0  0  0  0  0  0  0
   47.1709   36.1779   84.8474 O   0  0  0  0  0  0  0  0  0  0  0  0
   46.0541   34.4358   82.2155 O   0  0  0  0  0  0  0  0  0  0  0  0
   40.3566   37.4610   84.4934 C   0  0  0  0  0  0  0  0  0  0  0  0
   43.6136   35.5893   84.6118 C   0  0  0  0  0  0  0  0  0  0  0  0
   41.4364   36.6708   84.1370 C   0  0  0  0  0  0  0  0  0  0  0  0
   46.8998   37.5243   74.3907 O   0  0  0  0  0  0  0  0  0  0  0  0
   45.9534   36.6512   82.8898 C   0  0  0  0  0  0  0  0  0  0  0  0
   46.0162   35.6764   81.8605 C   0  0  0  0  0  0  0  0  0  0  0  0
   41.2462   37.6681   86.7302 C   0  0  0  0  0  0  0  0  0  0  0  0
   44.6673   36.8156   74.5592 C   0  0  0  0  0  0  0  0  0  0  0  0
   40.2495   37.9670   85.7906 C   0  0  0  0  0  0  0  0  0  0  0  0
   47.5197   36.3416   80.2306 O   0  0  0  0  0  0  0  0  0  0  0  0
   45.6435   37.7623   80.7254 C   0  0  0  0  0  0  0  0  0  0  0  0
   45.6979   36.3346   78.9772 N   0  0  0  0  0  0  0  0  0  0  0  0
   45.9577   35.0968   78.2741 C   0  0  0  0  0  0  0  0  0  0  0  0
   42.3149   36.8698   86.3415 C   0  0  0  0  0  0  0  0  0  0  0  0
   45.4291   35.3560   76.7879 C   0  0  0  0  0  0  0  0  0  0  0  0
   42.4570   36.3728   85.0501 C   0  0  0  0  0  0  0  0  0  0  0  0
   45.1074   35.2946   86.4958 C   0  0  0  0  0  0  0  0  0  0  0  0
   45.7411   37.9271   82.2103 C   0  0  0  0  0  0  0  0  0  0  0  0
   45.9913   36.2893   84.2887 C   0  0  0  0  0  0  0  0  0  0  0  0
   46.1861   36.4165   80.4309 C   0  0  0  0  0  0  0  0  0  0  0  0
   45.5512   38.5597   75.9203 O   0  0  0  0  0  0  0  0  0  0  0  0
  1  9  1  0
  1 24  1  0
  1 26  2  3
  2 25  1  0
  3  4  1  0
  3 11  1  0
  3 15  1  0
  3 28  1  0
  4 22  1  0
  5 10  1  0
  6 26  1  0
  7 13  1  0
  8 10  2  0
  8 16  1  0
  9 23  1  0
 10 23  1  0
 12 13  2  0
 12 25  1  0
 12 26  1  0
 13 27  1  0
 14 16  2  0
 14 21  1  0
 17 27  1  0
 18 25  1  0
 18 27  1  0
 19 20  1  0
 19 27  1  0
 20 22  1  0
 21 23  2  0
M  END
>  <ID>  (1) 
conformer_0

$$$$
