
     RDKit          3D

 27 28  0  0  0  0  0  0  0  0999 V2000
   46.2260   35.7032   80.1299 O   0  0  0  0  0  0  0  0  0  0  0  0
   46.1621   36.1948   83.8087 C   0  0  0  0  0  0  0  0  0  0  0  0
   41.6220   38.7827   84.1691 O   0  0  0  0  0  0  0  0  0  0  0  0
   45.5751   38.4859   76.2484 O   0  0  0  0  0  0  0  0  0  0  0  0
   45.8065   37.9025   81.8924 O   0  0  0  0  0  0  0  0  0  0  0  0
   44.3404   39.8101   80.7622 C   0  0  0  0  0  0  0  0  0  0  0  0
   46.1364   35.6461   78.6477 C   0  0  0  0  0  0  0  0  0  0  0  0
   46.0518   37.1024   78.1662 C   0  0  0  0  0  0  0  0  0  0  0  0
   43.7119   38.4777   82.8520 C   0  0  0  0  0  0  0  0  0  0  0  0
   44.0432   37.0872   83.3092 C   0  0  0  0  0  0  0  0  0  0  0  0
   44.0797   34.7332   87.8487 C   0  0  0  0  0  0  0  0  0  0  0  0
   46.0705   34.4126   81.9867 O   0  0  0  0  0  0  0  0  0  0  0  0
   44.8814   39.0113   82.0525 C   0  0  0  0  0  0  0  0  0  0  0  0
   45.4843   35.3554   84.7704 C   0  0  0  0  0  0  0  0  0  0  0  0
   44.1648   35.8018   86.8152 C   0  0  0  0  0  0  0  0  0  0  0  0
   41.1712   37.2346   85.6399 O   0  0  0  0  0  0  0  0  0  0  0  0
   46.4642   36.4766   75.9195 O   0  0  0  0  0  0  0  0  0  0  0  0
   43.2539   35.9128   85.7249 O   0  0  0  0  0  0  0  0  0  0  0  0
   45.5336   35.7826   86.1770 C   0  0  0  0  0  0  0  0  0  0  0  0
   45.3918   36.6342   82.5583 C   0  0  0  0  0  0  0  0  0  0  0  0
   47.2547   36.7321   84.1254 O   0  0  0  0  0  0  0  0  0  0  0  0
   41.9989   37.7246   84.7435 C   0  0  0  0  0  0  0  0  0  0  0  0
   45.0225   37.7902   78.9290 C   0  0  0  0  0  0  0  0  0  0  0  0
   45.9861   37.3556   76.6494 C   0  0  0  0  0  0  0  0  0  0  0  0
   46.4101   36.4328   87.0017 O   0  0  0  0  0  0  0  0  0  0  0  0
   45.9307   35.5333   81.5023 C   0  0  0  0  0  0  0  0  0  0  0  0
   43.2705   36.8697   84.6695 C   0  0  0  0  0  0  0  0  0  0  0  0
  1  7  1  0
  1 26  1  0
  2 14  1  0
  2 20  1  0
  2 21  2  0
  3 22  2  0
  4 24  2  0
  5 13  1  0
  5 20  1  0
  6 13  1  0
  7  8  1  0
  8 23  1  0
  8 24  1  0
  9 10  1  0
  9 13  1  0
 10 20  1  0
 10 27  1  0
 11 15  1  0
 12 26  2  0
 14 19  1  0
 15 18  1  0
 15 19  1  0
 16 22  1  0
 17 24  1  0
 18 27  1  0
 19 25  1  0
 20 26  1  0
 22 27  1  0
M  END
>  <ID>  (1) 
conformer_0

$$$$
