
     RDKit          3D

 33 37  0  0  0  0  0  0  0  0999 V2000
   45.7712   36.5349   78.4462 C   0  0  0  0  0  0  0  0  0  0  0  0
   46.2763   36.6161   74.8738 O   0  0  0  0  0  0  0  0  0  0  0  0
   43.6439   37.4303   86.6173 C   0  0  0  0  0  0  0  0  0  0  0  0
   41.6363   38.7870   83.9572 O   0  0  0  0  0  0  0  0  0  0  0  0
   43.0235   35.1224   85.9410 C   0  0  0  0  0  0  0  0  0  0  0  0
   44.0328   38.4223   85.6305 C   0  0  0  0  0  0  0  0  0  0  0  0
   45.3843   39.0840   85.5506 C   0  0  0  0  0  0  0  0  0  0  0  0
   42.8682   37.3737   87.8249 C   0  0  0  0  0  0  0  0  0  0  0  0
   45.8033   37.1416   75.8765 C   0  0  0  0  0  0  0  0  0  0  0  0
   43.8799   35.1683   88.4617 C   0  0  0  0  0  0  0  0  0  0  0  0
   43.5842   37.7844   84.2622 C   0  0  0  0  0  0  0  0  0  0  0  0
   43.4708   40.4597   83.9784 C   0  0  0  0  0  0  0  0  0  0  0  0
   44.9876   37.9042   81.7382 C   0  0  0  0  0  0  0  0  0  0  0  0
   44.1639   39.1010   82.0959 C   0  0  0  0  0  0  0  0  0  0  0  0
   43.4056   39.0199   83.4001 C   0  0  0  0  0  0  0  0  0  0  0  0
   45.4209   37.2107   80.5654 C   0  0  0  0  0  0  0  0  0  0  0  0
   42.8041   36.1448   88.6097 C   0  0  0  0  0  0  0  0  0  0  0  0
   45.2935   34.6673   84.6040 O   0  0  0  0  0  0  0  0  0  0  0  0
   41.0851   36.5720   83.7365 C   0  0  0  0  0  0  0  0  0  0  0  0
   44.2188   36.0904   86.2653 C   0  0  0  0  0  0  0  0  0  0  0  0
   43.2671   41.3053   82.7706 C   0  0  0  0  0  0  0  0  0  0  0  0
   45.6026   36.1925   77.0583 C   0  0  0  0  0  0  0  0  0  0  0  0
   45.0928   37.4023   79.2419 C   0  0  0  0  0  0  0  0  0  0  0  0
   44.9370   35.6953   87.5610 C   0  0  0  0  0  0  0  0  0  0  0  0
   44.6102   36.8325   83.8867 C   0  0  0  0  0  0  0  0  0  0  0  0
   45.2292   36.0203   85.0805 C   0  0  0  0  0  0  0  0  0  0  0  0
   46.3236   36.1641   80.6357 C   0  0  0  0  0  0  0  0  0  0  0  0
   43.9881   40.5569   81.6663 C   0  0  0  0  0  0  0  0  0  0  0  0
   46.5719   35.7448   79.3522 O   0  0  0  0  0  0  0  0  0  0  0  0
   45.5190   38.3483   76.0028 O   0  0  0  0  0  0  0  0  0  0  0  0
   42.1070   37.4658   84.4150 C   0  0  0  0  0  0  0  0  0  0  0  0
   46.5475   36.3797   85.4140 O   0  0  0  0  0  0  0  0  0  0  0  0
   45.4865   37.2378   82.8881 O   0  0  0  0  0  0  0  0  0  0  0  0
  1 22  1  0
  1 23  1  0
  1 29  1  0
  2  9  2  0
  3  6  1  0
  3  8  2  0
  3 20  1  0
  4 31  1  0
  5 20  1  0
  6  7  1  0
  6 11  1  0
  8 17  1  0
  9 22  1  0
  9 30  1  0
 10 17  1  0
 10 24  1  0
 11 15  1  0
 11 25  1  0
 11 31  1  0
 12 15  1  0
 12 21  1  0
 13 14  1  0
 13 16  2  3
 13 33  1  0
 14 15  1  0
 14 28  1  0
 16 23  1  0
 16 27  1  0
 18 26  1  0
 19 31  1  0
 20 24  1  0
 20 26  1  0
 21 28  1  0
 25 26  1  0
 25 33  1  0
 26 32  1  0
 27 29  1  0
M  END
>  <ID>  (1) 
conformer_0

$$$$
