
     RDKit          3D

 22 23  0  0  0  0  0  0  0  0999 V2000
   44.2409   39.2092   82.6013 N   0  0  0  0  0  0  0  0  0  0  0  0
   43.6293   35.4479   86.5597 C   0  0  0  0  0  0  0  0  0  0  0  0
   43.0646   39.7653   83.1305 C   0  0  0  0  0  0  0  0  0  0  0  0
   44.8693   37.6021   79.1149 C   0  0  0  0  0  0  0  0  0  0  0  0
   44.3785   37.9156   83.0163 C   0  0  0  0  0  0  0  0  0  0  0  0
   46.4368   35.8545   80.7463 C   0  0  0  0  0  0  0  0  0  0  0  0
   47.3569   36.7530   84.3648 O   0  0  0  0  0  0  0  0  0  0  0  0
   46.1977   36.5559   83.9479 C   0  0  0  0  0  0  0  0  0  0  0  0
   45.3085   35.5764   84.6979 C   0  0  0  0  0  0  0  0  0  0  0  0
   45.7764   35.2946   76.6861 O   0  0  0  0  0  0  0  0  0  0  0  0
   45.5090   37.0399   82.7729 C   0  0  0  0  0  0  0  0  0  0  0  0
   45.6829   36.6379   78.5372 C   0  0  0  0  0  0  0  0  0  0  0  0
   46.4419   35.7838   79.3478 N   0  0  0  0  0  0  0  0  0  0  0  0
   43.2609   37.5897   83.7704 C   0  0  0  0  0  0  0  0  0  0  0  0
   45.0592   35.5197   86.1347 C   0  0  0  0  0  0  0  0  0  0  0  0
   45.5606   37.4680   76.3953 O   0  0  0  0  0  0  0  0  0  0  0  0
   44.9192   37.6266   80.4611 C   0  0  0  0  0  0  0  0  0  0  0  0
   45.6405   36.8202   81.3117 C   0  0  0  0  0  0  0  0  0  0  0  0
   42.4181   38.7917   83.8837 C   0  0  0  0  0  0  0  0  0  0  0  0
   45.9402   36.2289   86.9418 O   0  0  0  0  0  0  0  0  0  0  0  0
   45.7025   36.4681   77.0852 C   0  0  0  0  0  0  0  0  0  0  0  0
   45.0419   34.5163   83.8504 O   0  0  0  0  0  0  0  0  0  0  0  0
  1  3  1  0
  1  5  1  0
  2 15  1  0
  3 19  1  0
  4 12  1  0
  4 17  1  0
  5 11  1  0
  5 14  1  0
  6 13  2  0
  6 18  1  0
  7  8  2  0
  8  9  1  0
  8 11  1  0
  9 15  1  0
  9 22  1  0
 10 21  2  0
 11 18  1  0
 12 13  1  0
 12 21  1  0
 14 19  1  0
 15 20  1  0
 16 21  1  0
 17 18  2  0
M  END
>  <ID>  (1) 
conformer_0

$$$$
