
     RDKit          3D

 23 25  0  0  0  0  0  0  0  0999 V2000
   44.7168   37.5133   81.8858 N   0  0  0  0  0  0  0  0  0  0  0  0
   45.8359   35.9109   84.8943 C   0  0  0  0  0  0  0  0  0  0  0  0
   44.9400   37.1021   79.2999 C   0  0  0  0  0  0  0  0  0  0  0  0
   43.9114   41.0115   81.0932 C   0  0  0  0  0  0  0  0  0  0  0  0
   46.0351   35.9208   77.7979 C   0  0  0  0  0  0  0  0  0  0  0  0
   42.9057   40.4054   83.1906 C   0  0  0  0  0  0  0  0  0  0  0  0
   44.2208   38.8027   81.9958 C   0  0  0  0  0  0  0  0  0  0  0  0
   43.4494   39.1820   83.0725 C   0  0  0  0  0  0  0  0  0  0  0  0
   45.1788   35.5427   86.1909 C   0  0  0  0  0  0  0  0  0  0  0  0
   45.5037   36.5757   82.3912 C   0  0  0  0  0  0  0  0  0  0  0  0
   44.4724   39.7685   81.0015 C   0  0  0  0  0  0  0  0  0  0  0  0
   46.6075   35.6023   79.0145 O   0  0  0  0  0  0  0  0  0  0  0  0
   46.2225   36.0505   81.3256 N   0  0  0  0  0  0  0  0  0  0  0  0
   43.5591   36.3086   83.9113 C   0  0  0  0  0  0  0  0  0  0  0  0
   45.8828   36.3442   80.0031 C   0  0  0  0  0  0  0  0  0  0  0  0
   47.1057   36.1679   84.8352 O   0  0  0  0  0  0  0  0  0  0  0  0
   43.1320   34.6409   87.3545 C   0  0  0  0  0  0  0  0  0  0  0  0
   45.0047   36.8659   77.9809 N   0  0  0  0  0  0  0  0  0  0  0  0
   42.9713   35.6567   85.0655 C   0  0  0  0  0  0  0  0  0  0  0  0
   46.4878   35.3164   76.7462 O   0  0  0  0  0  0  0  0  0  0  0  0
   43.1075   41.3762   82.1895 C   0  0  0  0  0  0  0  0  0  0  0  0
   45.0143   36.1042   83.7326 C   0  0  0  0  0  0  0  0  0  0  0  0
   43.7700   35.3855   86.2281 C   0  0  0  0  0  0  0  0  0  0  0  0
  1  7  1  0
  1 10  2  3
  2  9  2  0
  2 16  1  0
  2 22  1  0
  3 15  1  0
  3 18  1  0
  4 11  2  0
  4 21  1  0
  5 12  1  0
  5 18  1  0
  5 20  2  0
  6  8  2  0
  6 21  1  0
  7  8  1  0
  7 11  1  0
  9 23  1  0
 10 13  1  0
 10 22  1  0
 12 15  1  0
 13 15  2  3
 14 19  1  0
 14 22  1  0
 17 23  1  0
 19 23  2  0
M  END
>  <ID>  (1) 
conformer_0

$$$$
