
     RDKit          3D

 28 29  0  0  0  0  0  0  0  0999 V2000
   46.3849   36.2414   80.2002 C   0  0  0  0  0  0  0  0  0  0  0  0
   41.5806   38.0789   84.2896 C   0  0  0  0  0  0  0  0  0  0  0  0
   43.9885   37.4159   85.1885 C   0  0  0  0  0  0  0  0  0  0  0  0
   44.7018   35.5826   74.9327 C   0  0  0  0  0  0  0  0  0  0  0  0
   45.5793   36.3807   83.1775 C   0  0  0  0  0  0  0  0  0  0  0  0
   42.6413   40.3902   83.5157 C   0  0  0  0  0  0  0  0  0  0  0  0
   45.3738   37.0613   80.7438 C   0  0  0  0  0  0  0  0  0  0  0  0
   46.9619   35.9386   85.6140 O   0  0  0  0  0  0  0  0  0  0  0  0
   40.8653   40.3000   85.1294 C   0  0  0  0  0  0  0  0  0  0  0  0
   45.3154   35.7088   76.1646 N   0  0  0  0  0  0  0  0  0  0  0  0
   46.1529   35.8562   78.8781 C   0  0  0  0  0  0  0  0  0  0  0  0
   46.2948   35.3538   82.9083 O   0  0  0  0  0  0  0  0  0  0  0  0
   45.0222   36.5545   84.4967 C   0  0  0  0  0  0  0  0  0  0  0  0
   44.9048   35.0387   86.4672 C   0  0  0  0  0  0  0  0  0  0  0  0
   42.3993   37.1917   85.1601 C   0  0  0  0  0  0  0  0  0  0  0  0
   45.6012   34.7024   77.0284 C   0  0  0  0  0  0  0  0  0  0  0  0
   44.2787   37.4076   86.7152 C   0  0  0  0  0  0  0  0  0  0  0  0
   41.7258   42.4164   84.3428 C   0  0  0  0  0  0  0  0  0  0  0  0
   43.9899   35.9889   87.1932 C   0  0  0  0  0  0  0  0  0  0  0  0
   42.6496   35.2886   87.4019 C   0  0  0  0  0  0  0  0  0  0  0  0
   42.6513   41.7404   83.5410 C   0  0  0  0  0  0  0  0  0  0  0  0
   45.7099   35.7104   85.4415 C   0  0  0  0  0  0  0  0  0  0  0  0
   41.7318   39.6484   84.2984 C   0  0  0  0  0  0  0  0  0  0  0  0
   45.6651   36.9372   76.4390 C   0  0  0  0  0  0  0  0  0  0  0  0
   45.1983   37.3295   82.1346 C   0  0  0  0  0  0  0  0  0  0  0  0
   40.8608   41.6825   85.1465 C   0  0  0  0  0  0  0  0  0  0  0  0
   43.9978   38.1047   82.3878 C   0  0  0  0  0  0  0  0  0  0  0  0
   46.0759   34.8481   78.1521 N   0  0  0  0  0  0  0  0  0  0  0  0
  1  7  1  0
  1 11  1  0
  2 15  1  0
  2 23  1  0
  3 13  1  0
  3 15  1  0
  3 17  1  0
  4 10  1  0
  5 12  2  0
  5 13  1  0
  5 25  1  0
  6 21  2  0
  6 23  1  0
  7 25  1  0
  8 22  2  0
  9 23  2  0
  9 26  1  0
 10 16  1  0
 10 24  1  0
 11 28  2  3
 13 22  1  0
 14 19  1  0
 14 22  1  0
 16 28  1  0
 17 19  1  0
 18 21  1  0
 18 26  2  0
 19 20  1  0
 25 27  1  0
M  END
>  <ID>  (1) 
conformer_0

$$$$
