
     RDKit          3D

 25 26  0  0  0  0  0  0  0  0999 V2000
   44.3901   36.5627   86.1721 C   0  0  0  0  0  0  0  0  0  0  0  0
   45.9630   36.1346   78.1974 C   0  0  0  0  0  0  0  0  0  0  0  0
   46.1413   36.2871   80.5033 C   0  0  0  0  0  3  0  0  0  0  0  0
   43.9044   38.9424   83.7402 C   0  0  0  0  0  0  0  0  0  0  0  0
   44.8091   37.0419   84.8106 N   0  0  0  0  0  0  0  0  0  0  0  0
   45.5047   38.5527   76.0867 O   0  0  0  0  0  1  0  0  0  0  0  0
   43.8566   39.4694   82.3922 C   0  0  0  0  0  0  0  0  0  0  0  0
   46.6225   35.6629   86.1252 O   0  0  0  0  0  0  0  0  0  0  0  0
   44.0684   37.4323   83.6199 C   0  0  0  0  0  0  0  0  0  0  0  0
   45.6924   36.0798   86.8259 C   0  0  0  0  0  0  0  0  0  0  0  0
   45.6696   37.1286   75.6651 P   0  0  0  0  0  4  0  0  0  0  0  0
   41.0168   36.9260   85.3933 C   0  0  0  0  0  0  0  0  0  0  0  0
   44.7020   37.2847   82.2961 C   0  0  0  0  0  0  0  0  0  0  0  0
   44.4857   38.5002   81.4762 C   0  0  0  0  0  0  0  0  0  0  0  0
   45.8997   36.1905   88.0919 O   0  0  0  0  0  0  0  0  0  0  0  0
   46.8297   35.2860   78.3011 O   0  0  0  0  0  0  0  0  0  0  0  0
   43.5684   37.0292   87.3002 O   0  0  0  0  0  0  0  0  0  0  0  0
   45.8672   36.4804   81.8881 S   0  0  0  0  0  3  0  0  0  0  0  0
   45.2448   36.0988   76.9519 C   0  0  0  0  0  0  0  0  0  0  0  0
   47.0536   36.8252   75.2236 O   0  0  0  0  0  0  0  0  0  0  0  0
   43.4061   35.5069   85.5541 C   0  0  0  0  0  0  0  0  0  0  0  0
   42.2521   36.2426   84.8945 C   0  0  0  0  0  0  0  0  0  0  0  0
   45.4689   36.6951   79.3633 N   0  0  0  0  0  0  0  0  0  0  0  0
   42.6923   36.8433   83.6375 C   0  0  0  0  0  0  0  0  0  0  0  0
   44.6696   36.8004   74.5531 O   0  0  0  0  0  0  0  0  0  0  0  0
  1  5  1  0
  1 10  1  0
  1 17  1  0
  1 21  1  0
  2 16  2  0
  2 19  1  0
  2 23  1  0
  3 18  2  0
  3 23  1  0
  4  7  1  0
  4  9  1  0
  5  9  1  0
  6 11  2  0
  7 14  1  0
  8 10  2  0
  9 13  1  0
  9 24  1  0
 10 15  1  0
 11 19  1  0
 11 20  1  0
 11 25  1  0
 12 22  1  0
 13 14  1  0
 13 18  1  0
 21 22  1  0
 22 24  1  0
M  END
>  <ID>  (1) 
conformer_0

$$$$
