
     RDKit          3D

 23 25  0  0  0  0  0  0  0  0999 V2000
   45.9847   35.0057   77.7674 C   0  0  0  0  0  0  0  0  0  0  0  0
   44.4213   35.5832   75.9635 C   0  0  0  0  0  0  0  0  0  0  0  0
   45.5235   36.6719   82.9049 C   0  0  0  0  0  0  0  0  0  0  0  0
   43.5000   35.9268   84.6571 C   0  0  0  0  0  0  0  0  0  0  0  0
   44.2809   37.7850   80.3090 C   0  0  0  0  0  0  0  0  0  0  0  0
   46.3191   37.0028   76.3716 O   0  0  0  0  0  0  0  0  0  0  0  0
   43.6381   39.8180   83.2314 N   0  0  0  0  0  0  0  0  0  0  0  0
   44.2336   39.1179   81.0086 C   0  0  0  0  0  0  0  0  0  0  0  0
   46.1308   36.4792   81.5472 C   0  0  0  0  0  0  0  0  0  0  0  0
   46.3123   37.2569   79.0019 C   0  0  0  0  0  0  0  0  0  0  0  0
   45.8905   36.1689   84.2302 C   0  0  0  0  0  0  0  0  0  0  0  0
   45.7527   37.3870   80.3867 C   0  0  0  0  0  0  0  0  0  0  0  0
   44.8866   35.7381   85.1659 C   0  0  0  0  0  0  0  0  0  0  0  0
   43.4008   37.1440   83.9250 O   0  0  0  0  0  0  0  0  0  0  0  0
   45.9772   36.0144   87.2955 O   0  0  0  0  0  0  0  0  0  0  0  0
   45.5867   35.9865   76.6796 C   0  0  0  0  0  0  0  0  0  0  0  0
   42.6148   35.9275   85.8685 C   0  0  0  0  0  0  0  0  0  0  0  0
   44.2369   38.8745   82.4675 C   0  0  0  0  0  0  0  0  0  0  0  0
   47.1053   36.1767   84.5576 O   0  0  0  0  0  0  0  0  0  0  0  0
   43.5029   36.0210   87.0680 C   0  0  0  0  0  0  0  0  0  0  0  0
   46.6158   35.7039   78.8945 C   0  0  0  0  0  0  0  0  0  0  0  0
   44.3117   37.4947   82.9331 C   0  0  0  0  0  0  0  0  0  0  0  0
   44.8619   35.8401   86.6233 C   0  0  0  0  0  0  0  0  0  0  0  0
  1 16  1  0
  1 21  1  0
  2 16  1  0
  3  9  1  0
  3 11  1  0
  3 22  1  0
  4 13  1  0
  4 14  1  0
  4 17  1  0
  5  8  1  0
  5 12  1  0
  6 16  1  0
  7 18  1  0
  8 18  1  0
  9 12  1  0
 10 12  1  0
 10 21  1  0
 11 13  1  0
 11 19  2  0
 13 23  1  0
 14 22  1  0
 15 23  1  0
 17 20  1  0
 18 22  1  0
 20 23  1  0
M  END
>  <ID>  (1) 
conformer_0

$$$$
