
     RDKit          3D

 33 35  0  0  0  0  0  0  0  0999 V2000
   45.1576   36.3260   74.3260 C   0  0  0  0  0  0  0  0  0  0  0  0
   45.8399   36.3837   85.9349 C   0  0  0  0  0  0  0  0  0  0  0  0
   45.7274   36.5994   83.4754 C   0  0  0  0  0  0  0  0  0  0  0  0
   46.6674   35.6477   78.9499 O   0  0  0  0  0  0  0  0  0  0  0  0
   43.9089   35.4118   87.1214 C   0  0  0  0  0  0  0  0  0  0  0  0
   43.0905   39.5911   83.5655 C   0  0  0  0  0  0  0  0  0  0  0  0
   45.9613   37.1524   87.1654 O   0  0  0  0  0  0  0  0  0  0  0  0
   45.3940   38.2966   75.7583 O   0  0  0  0  0  0  0  0  0  0  0  0
   45.6342   37.0762   82.1080 C   0  0  0  0  0  0  0  0  0  0  0  0
   45.7106   34.2561   83.1323 O   0  0  0  0  0  0  0  0  0  0  0  0
   45.1516   35.2868   83.6570 C   0  0  0  0  0  0  0  0  0  0  0  0
   46.6740   35.2444   85.9312 O   0  0  0  0  0  0  0  0  0  0  0  0
   45.4110   37.0421   75.6015 C   0  0  0  0  0  0  0  0  0  0  0  0
   42.0281   36.5316   86.6449 C   0  0  0  0  0  0  0  0  0  0  0  0
   44.5362   38.0718   80.1815 C   0  0  0  0  0  0  0  0  0  0  0  0
   44.6405   37.9391   81.5874 C   0  0  0  0  0  0  0  0  0  0  0  0
   45.7684   36.9697   77.9907 C   0  0  0  0  0  0  0  0  0  0  0  0
   44.3854   35.9089   85.8872 C   0  0  0  0  0  0  0  0  0  0  0  0
   42.8048   39.0722   84.8125 C   0  0  0  0  0  0  0  0  0  0  0  0
   42.5878   40.8406   83.2309 C   0  0  0  0  0  0  0  0  0  0  0  0
   42.0651   39.7691   85.7158 C   0  0  0  0  0  0  0  0  0  0  0  0
   45.3011   36.1461   76.8654 C   0  0  0  0  0  0  0  0  0  0  0  0
   44.8334   37.2361   73.2177 N   0  0  0  0  0  0  0  0  0  0  0  0
   41.5675   40.9843   85.3804 C   0  0  0  0  0  0  0  0  0  0  0  0
   46.0979   36.3123   79.8550 C   0  0  0  0  0  0  0  0  0  0  0  0
   41.8314   41.5234   84.1191 C   0  0  0  0  0  0  0  0  0  0  0  0
   46.3275   36.2419   81.2053 C   0  0  0  0  0  0  0  0  0  0  0  0
   43.9114   38.8669   82.5025 C   0  0  0  0  0  0  0  0  0  0  0  0
   46.1263   38.5783   84.8092 O   0  0  0  0  0  0  0  0  0  0  0  0
   43.9983   35.3621   84.5560 C   0  0  0  0  0  0  0  0  0  0  0  0
   45.2503   37.2183   79.2770 N   0  0  0  0  0  0  0  0  0  0  0  0
   43.4256   36.6464   86.4571 O   0  0  0  0  0  0  0  0  0  0  0  0
   46.0984   37.2308   84.7110 C   0  0  0  0  0  0  0  0  0  0  0  0
  1 13  1  0
  1 23  1  0
  2  7  1  0
  2 12  1  0
  2 18  1  0
  2 33  1  0
  3  9  1  0
  3 11  1  0
  3 33  1  0
  4 25  2  0
  5 18  1  0
  6 19  1  0
  6 20  1  0
  6 28  2  0
  8 13  2  0
  9 16  1  0
  9 27  2  0
 10 11  2  0
 11 30  1  0
 13 22  1  0
 14 32  1  0
 15 16  1  0
 15 31  1  0
 16 28  2  0
 17 22  1  0
 17 31  1  0
 18 30  1  0
 18 32  1  0
 19 21  1  0
 20 26  2  0
 21 24  2  0
 24 26  1  0
 25 27  1  0
 25 31  1  0
 29 33  1  0
M  END
>  <ID>  (1) 
conformer_0

$$$$
