
     RDKit          3D

 19 22  0  0  0  0  0  0  0  0999 V2000
   23.5861  -52.2264   53.0050 C   0  0  0  0  0  0  0  0  0  0  0  0
   22.5861  -51.4264   52.4050 C   0  0  0  0  0  0  0  0  0  0  0  0
   21.1861  -51.9264   52.4050 C   0  0  0  0  0  0  0  0  0  0  0  0
   20.2861  -51.1264   52.0050 C   0  0  0  0  0  0  0  0  0  0  0  0
   22.5861  -50.0264   52.4050 C   0  0  0  0  0  0  0  0  0  0  0  0
   21.5861  -49.2264   52.6050 N   0  0  0  0  0  0  0  0  0  0  0  0
   20.3861  -49.7264   52.0050 C   0  0  0  0  0  0  0  0  0  0  0  0
   23.8861  -49.5264   52.8050 C   0  0  0  0  0  0  0  0  0  0  0  0
   24.8861  -50.2264   53.6050 C   0  0  0  0  0  0  0  0  0  0  0  0
   24.7861  -51.6264   53.4050 C   0  0  0  0  0  0  0  0  0  0  0  0
   21.8861  -48.0264   53.2050 C   0  0  0  0  0  0  0  0  0  0  0  0
   19.3861  -48.8264   52.0050 O   0  0  0  0  0  0  0  0  0  0  0  0
   21.0861  -47.3264   53.9050 O   0  0  0  0  0  0  0  0  0  0  0  0
   19.4861  -47.4264   52.0050 C   0  0  0  0  0  0  0  0  0  0  0  0
   20.7861  -47.2264   52.6050 C   0  0  0  0  0  0  0  0  0  0  0  0
   21.0861  -53.3264   52.1050 N   0  0  0  0  0  0  0  0  0  0  0  0
   20.4861  -54.4264   52.7050 C   0  0  0  0  0  0  0  0  0  0  0  0
   19.5861  -55.0264   52.6050 O   0  0  0  0  0  0  0  0  0  0  0  0
   21.4861  -55.3264   53.3050 N   0  0  0  0  0  0  0  0  0  0  0  0
  2  1  1  0
  3  2  2  0
  4  3  1  0
  5  2  1  0
  6  5  1  0
  7  4  2  0
  7  6  1  0
  8  5  2  0
  9  8  1  0
 10  1  1  0
 10  9  2  0
 11  6  1  0
 12  7  1  0
 13 11  1  0
 14 12  1  0
 15 11  1  0
 15 13  1  0
 15 14  1  0
 16  3  1  0
 17 16  1  0
 18 17  2  0
 19 17  1  0
M  END
>  <ID>  (1) 
conformer_0

$$$$
