
     RDKit          3D

 24 26  0  0  0  0  0  0  0  0999 V2000
   21.3938  -52.4211   52.5440 C   0  0  0  0  0  3  0  0  0  0  0  0
   22.0938  -51.2211   52.2440 C   0  0  0  0  0  0  0  0  0  0  0  0
   21.5938  -50.0211   52.6440 C   0  0  0  0  0  0  0  0  0  0  0  0
   22.1938  -53.5211   52.5440 N   0  0  0  0  0  4  0  0  0  0  0  0
   23.3938  -53.2211   53.0440 C   0  0  0  0  0  0  0  0  0  0  0  0
   21.5938  -54.8211   52.8440 C   0  0  0  0  0  0  0  0  0  0  0  0
   22.3938  -49.1211   53.3440 N   0  0  0  0  0  0  0  0  0  0  0  0
   23.7938  -49.5211   53.0440 C   0  0  0  0  0  0  0  0  0  0  0  0
   23.1938  -53.2211   51.8440 N   0  0  0  0  0  0  0  0  0  0  0  0
   24.7938  -49.1211   53.9440 C   0  0  0  0  0  0  0  0  0  0  0  0
   25.6938  -50.2211   54.2440 C   0  0  0  0  0  0  0  0  0  0  0  0
   26.6938  -50.0211   55.1440 N   0  0  0  0  0  4  0  0  0  0  0  0
   26.1938  -49.1211   56.0440 N   0  0  0  0  0  0  0  0  0  0  0  0
   27.2938  -51.1211   55.7440 C   0  0  0  0  0  3  0  0  0  0  0  0
   20.0938  -52.6211   52.2440 O   0  0  0  0  0  0  0  0  0  0  0  0
   26.9938  -48.7211   55.2440 C   0  0  0  0  0  0  0  0  0  0  0  0
   26.7938  -52.3211   55.8440 N   0  0  0  0  0  0  0  0  0  0  0  0
   26.0938  -53.2211   56.5440 C   0  0  0  0  0  0  0  0  0  0  0  0
   27.2938  -52.1211   54.7440 N   0  0  0  0  0  0  0  0  0  0  0  0
   23.1938  -48.9211   52.2440 N   0  0  0  0  0  0  0  0  0  0  0  0
   21.6938  -50.2211   51.4440 N   0  0  0  0  0  0  0  0  0  0  0  0
   22.4938  -49.2211   51.1440 C   0  0  0  0  0  0  0  0  0  0  0  0
   19.3938  -53.5211   53.1440 C   0  0  0  0  0  0  0  0  0  0  0  0
   20.1938  -54.7211   53.2440 C   0  0  0  0  0  0  0  0  0  0  0  0
  2  1  1  0
  3  2  2  0
  4  1  1  0
  5  4  1  0
  6  4  1  0
  7  3  1  0
  8  7  1  0
  9  5  2  0
 10  8  1  0
 11 10  2  3
 12 11  1  0
 14 12  1  0
 15  1  1  0
 16 12  1  0
 16 13  2  0
 17 14  1  0
 18 17  1  0
 19 14  1  0
 20  8  1  0
 21  2  1  0
 21  3  1  0
 22 20  1  0
 22 21  1  0
 23 15  1  0
 24  6  1  0
 24 23  1  0
M  END
>  <ID>  (1) 
conformer_0

$$$$
