
     RDKit          3D

 14 15  0  0  0  0  0  0  0  0999 V2000
   23.6340  -52.5279   53.1196 C   0  0  0  0  0  0  0  0  0  0  0  0
   22.4340  -52.1279   52.5196 C   0  0  0  0  0  0  0  0  0  0  0  0
   22.3340  -50.8279   52.1196 C   0  0  0  0  0  0  0  0  0  0  0  0
   23.2340  -49.9279   52.7196 C   0  0  0  0  0  0  0  0  0  0  0  0
   21.1340  -50.3279   51.6196 C   0  0  0  0  0  0  0  0  0  0  0  0
   21.1340  -48.9279   51.4196 C   0  0  0  0  0  0  0  0  0  0  0  0
   23.4340  -48.8279   52.0196 N   0  0  0  0  0  0  0  0  0  0  0  0
   22.3340  -48.2279   51.4196 C   0  0  0  0  0  0  0  0  0  0  0  0
   24.4340  -50.4279   53.4196 C   0  0  0  0  0  0  0  0  0  0  0  0
   24.5340  -51.7279   53.7196 C   0  0  0  0  0  0  0  0  0  0  0  0
   19.8340  -50.9279   51.8196 C   0  0  0  0  0  0  0  0  0  0  0  0
   23.6340  -53.9279   53.6196 N   0  0  0  0  0  0  0  0  0  0  0  0
   23.1340  -54.9279   52.7196 C   0  0  0  0  0  0  0  0  0  0  0  0
   18.8340  -50.0279   51.3196 N   0  0  0  0  0  0  0  0  0  0  0  0
  2  1  2  0
  3  2  1  0
  4  3  2  0
  5  3  1  0
  6  5  2  0
  7  4  1  0
  8  6  1  0
  8  7  2  0
  9  4  1  0
 10  1  1  0
 10  9  2  0
 11  5  1  0
 12  1  1  0
 13 12  1  0
 14 11  1  0
M  END
>  <ID>  (1) 
conformer_0

$$$$
