
     RDKit          3D

 18 21  0  0  0  0  0  0  0  0999 V2000
   23.5861  -52.2264   53.0050 C   0  0  0  0  0  0  0  0  0  0  0  0
   22.5861  -51.4264   52.4050 C   0  0  0  0  0  0  0  0  0  0  0  0
   21.1861  -51.9264   52.4050 C   0  0  0  0  0  0  0  0  0  0  0  0
   20.2861  -51.1264   52.0050 C   0  0  0  0  0  0  0  0  0  0  0  0
   22.5861  -50.0264   52.4050 C   0  0  0  0  0  0  0  0  0  0  0  0
   21.5861  -49.2264   52.6050 N   0  0  0  0  0  0  0  0  0  0  0  0
   20.3861  -49.7264   52.0050 C   0  0  0  0  0  0  0  0  0  0  0  0
   23.8861  -49.5264   52.8050 C   0  0  0  0  0  0  0  0  0  0  0  0
   24.7861  -50.2264   53.7050 C   0  0  0  0  0  0  0  0  0  0  0  0
   24.7861  -51.5264   53.6050 C   0  0  0  0  0  0  0  0  0  0  0  0
   21.7861  -48.1264   53.3050 C   0  0  0  0  0  0  0  0  0  0  0  0
   19.4861  -48.9264   51.5050 O   0  0  0  0  0  0  0  0  0  0  0  0
   20.8861  -47.3264   53.7050 O   0  0  0  0  0  0  0  0  0  0  0  0
   23.1861  -48.3264   53.7050 N   0  0  0  0  0  0  0  0  0  0  0  0
   21.0861  -53.3264   52.5050 N   0  0  0  0  0  0  0  0  0  0  0  0
   20.5861  -54.3264   53.2050 C   0  0  0  0  0  0  0  0  0  0  0  0
   20.2861  -54.7264   54.2050 O   0  0  0  0  0  0  0  0  0  0  0  0
   21.9861  -54.1264   52.9050 C   0  0  0  0  0  0  0  0  0  0  0  0
  2  1  2  0
  3  2  1  0
  4  3  1  0
  5  2  1  0
  6  5  1  0
  7  4  1  0
  7  6  1  0
  8  5  2  0
  9  8  1  0
 10  1  1  0
 10  9  2  0
 11  6  1  0
 12  7  2  0
 13 11  2  0
 14  8  1  0
 14 11  1  0
 15  3  1  0
 16 15  1  0
 17 16  1  0
 18 15  1  0
 18 16  1  0
M  END
>  <ID>  (1) 
conformer_0

$$$$
