
     RDKit          3D

 18 20  0  0  0  0  0  0  0  0999 V2000
   23.6340  -52.5279   53.1196 C   0  0  0  0  0  0  0  0  0  0  0  0
   22.4340  -52.1279   52.5196 C   0  0  0  0  0  0  0  0  0  0  0  0
   22.3340  -50.8279   52.1196 C   0  0  0  0  0  0  0  0  0  0  0  0
   23.3340  -50.0279   52.8196 C   0  0  0  0  0  0  0  0  0  0  0  0
   20.9340  -50.3279   52.2196 C   0  0  0  0  0  0  0  0  0  0  0  0
   20.0340  -51.4279   52.3196 C   0  0  0  0  0  0  0  0  0  0  0  0
   20.8340  -48.9279   52.1196 C   0  0  0  0  0  0  0  0  0  0  0  0
   21.5340  -53.1279   52.1196 N   0  0  0  0  0  0  0  0  0  0  0  0
   20.3340  -52.5279   51.9196 N   0  0  0  0  0  0  0  0  0  0  0  0
   24.4340  -50.3279   53.5196 C   0  0  0  0  0  0  0  0  0  0  0  0
   24.7340  -51.8279   53.4196 C   0  0  0  0  0  0  0  0  0  0  0  0
   20.4340  -47.8279   52.7196 C   0  0  0  0  0  0  0  0  0  0  0  0
   19.4340  -46.9279   52.4196 C   0  0  0  0  0  0  0  0  0  0  0  0
   18.4340  -46.6279   53.3196 N   0  0  0  0  0  0  0  0  0  0  0  0
   22.0340  -54.4279   52.5196 C   0  0  0  0  0  0  0  0  0  0  0  0
   19.0340  -46.1279   54.5196 C   0  0  0  0  0  0  0  0  0  0  0  0
   20.4340  -46.2279   54.5196 C   0  0  0  0  0  0  0  0  0  0  0  0
   21.1340  -47.1279   53.8196 N   0  0  0  0  0  0  0  0  0  0  0  0
  2  1  1  0
  3  2  1  0
  4  3  1  0
  5  3  2  0
  6  5  1  0
  7  5  1  0
  8  2  1  0
  9  6  2  0
  9  8  1  0
 10  4  2  0
 11  1  2  0
 11 10  1  0
 12  7  1  0
 13 12  2  0
 14 13  1  0
 15  8  1  0
 16 14  2  0
 17 16  1  0
 18 12  1  0
 18 17  2  0
M  END
>  <ID>  (1) 
conformer_0

$$$$
