
     RDKit          3D

 12 13  0  0  0  0  0  0  0  0999 V2000
   21.1784  -49.6855   52.5303 C   0  0  0  0  0  0  0  0  0  0  0  0
   21.0784  -50.9855   52.3303 C   0  0  0  0  0  0  0  0  0  0  0  0
   22.1784  -51.7855   52.4303 C   0  0  0  0  0  0  0  0  0  0  0  0
   22.2784  -53.0855   52.7303 N   0  0  0  0  0  0  0  0  0  0  0  0
   22.8784  -54.1855   52.4303 C   0  0  0  0  0  0  0  0  0  0  0  0
   22.4784  -55.4855   52.8303 C   0  0  0  0  0  0  0  0  0  0  0  0
   23.2784  -50.9855   52.6303 C   0  0  0  0  0  0  0  0  0  0  0  0
   22.2784  -48.9855   52.0303 C   0  0  0  0  0  0  0  0  0  0  0  0
   23.4784  -49.5855   52.5303 C   0  0  0  0  0  0  0  0  0  0  0  0
   23.7784  -53.2855   53.1303 C   0  0  0  0  0  0  0  0  0  0  0  0
   21.0784  -55.7855   53.0303 O   0  0  0  0  0  0  0  0  0  0  0  0
   23.4784  -56.5855   52.6303 C   0  0  0  0  0  0  0  0  0  0  0  0
  2  1  2  0
  3  2  1  0
  4  3  1  0
  5  4  1  0
  6  5  1  0
  7  3  2  0
  8  1  1  0
  9  7  1  0
  9  8  2  0
 10  4  1  0
 10  5  1  0
 11  6  1  0
 12  6  1  0
M  END
>  <ID>  (1) 
conformer_0

$$$$
