
     RDKit          3D

 11 13  0  0  0  0  0  0  0  0999 V2000
   23.1696  -52.6195   52.6911 C   0  0  0  0  0  0  0  0  0  0  0  0
   22.4696  -51.6195   52.1911 C   0  0  0  0  0  0  0  0  0  0  0  0
   21.1696  -51.1195   52.2911 C   0  0  0  0  0  0  0  0  0  0  0  0
   20.7696  -49.8195   52.1911 C   0  0  0  0  0  0  0  0  0  0  0  0
   23.1696  -50.3195   52.1911 C   0  0  0  0  0  0  0  0  0  0  0  0
   23.0696  -49.2195   51.2911 C   0  0  0  0  0  0  0  0  0  0  0  0
   24.1696  -50.4195   53.2911 C   0  0  0  0  0  0  0  0  0  0  0  0
   24.8696  -51.4195   53.7911 C   0  0  0  0  0  0  0  0  0  0  0  0
   24.3696  -52.7195   53.4911 C   0  0  0  0  0  0  0  0  0  0  0  0
   21.4696  -49.0195   51.2911 C   0  0  0  0  0  0  0  0  0  0  0  0
   21.1696  -48.7195   52.6911 N   0  0  0  0  0  0  0  0  0  0  0  0
  2  1  2  0
  3  2  1  0
  4  3  2  0
  5  2  1  0
  6  5  1  0
  7  5  2  0
  8  7  1  0
  9  1  1  0
  9  8  2  0
 10  4  1  0
 10  6  2  0
 11  4  1  0
 11 10  1  0
M  END
>  <ID>  (1) 
conformer_0

$$$$
