
     RDKit          3D

 15 16  0  0  0  0  0  0  0  0999 V2000
   21.2707  -52.4696   52.3400 C   0  0  0  0  0  0  0  0  0  0  0  0
   20.6707  -51.2696   52.2400 C   0  0  0  0  0  0  0  0  0  0  0  0
   21.2707  -50.0696   52.2400 C   0  0  0  0  0  0  0  0  0  0  0  0
   22.6707  -49.9696   51.7400 C   0  0  0  0  0  0  0  0  0  0  0  0
   20.5707  -48.8696   52.2400 C   0  0  0  0  0  0  0  0  0  0  0  0
   23.2707  -48.8696   52.0400 N   0  0  0  0  0  0  0  0  0  0  0  0
   21.2707  -47.5696   52.2400 C   0  0  0  0  0  0  0  0  0  0  0  0
   22.6707  -47.6696   52.4400 C   0  0  0  0  0  0  0  0  0  0  0  0
   22.6707  -52.4696   52.1400 C   0  0  0  0  0  0  0  0  0  0  0  0
   23.5707  -53.4696   52.4400 N   0  0  0  0  0  0  0  0  0  0  0  0
   23.2707  -51.2696   51.5400 C   0  0  0  0  0  0  0  0  0  0  0  0
   19.1707  -48.8696   51.8400 C   0  0  0  0  0  0  0  0  0  0  0  0
   23.2707  -54.7696   52.7400 C   0  0  0  0  0  0  0  0  0  0  0  0
   22.0707  -55.2696   52.5400 O   0  0  0  0  0  0  0  0  0  0  0  0
   24.3707  -55.7696   52.7400 C   0  0  0  0  0  0  0  0  0  0  0  0
  2  1  2  0
  3  2  1  0
  4  3  2  0
  5  3  1  0
  6  4  1  0
  7  5  2  0
  8  6  2  0
  8  7  1  0
  9  1  1  0
 10  9  1  0
 11  4  1  0
 11  9  2  0
 12  5  1  0
 13 10  1  0
 14 13  2  0
 15 13  1  0
M  END
>  <ID>  (1) 
conformer_0

$$$$
