
     RDKit          3D

 10 10  0  0  0  0  0  0  0  0999 V2000
   21.7431  -50.3625   52.7052 C   0  0  0  0  0  0  0  0  0  0  0  0
   20.6431  -50.2625   51.9052 C   0  0  0  0  0  0  0  0  0  0  0  0
   20.2431  -48.9625   51.5052 C   0  0  0  0  0  0  0  0  0  0  0  0
   19.6431  -51.3625   51.8052 C   0  0  0  0  0  0  0  0  0  0  0  0
   20.9431  -47.9625   52.3052 C   0  0  0  0  0  0  0  0  0  0  0  0
   22.8431  -49.4625   52.4052 C   0  0  0  0  0  0  0  0  0  0  0  0
   22.3431  -48.1625   52.4052 C   0  0  0  0  0  0  0  0  0  0  0  0
   19.5431  -52.2625   52.8052 N   0  0  0  0  0  0  0  0  0  0  0  0
   18.5431  -51.0625   51.1052 O   0  0  0  0  0  0  0  0  0  0  0  0
   23.1431  -47.1625   53.1052 N   0  0  0  0  0  0  0  0  0  0  0  0
  2  1  2  0
  3  2  1  0
  4  2  1  0
  5  3  2  0
  6  1  1  0
  7  5  1  0
  7  6  2  0
  8  4  1  0
  9  4  2  0
 10  7  1  0
M  END
>  <ID>  (1) 
conformer_0

$$$$
