
     RDKit          3D

  9  9  0  0  0  0  0  0  0  0999 V2000
   21.6828  -51.0719   52.1687 C   0  0  0  0  0  0  0  0  0  0  0  0
   22.8828  -50.4719   52.4687 C   0  0  0  0  0  0  0  0  0  0  0  0
   20.4828  -50.3719   52.0687 C   0  0  0  0  0  0  0  0  0  0  0  0
   20.5828  -49.0719   51.4687 C   0  0  0  0  0  0  0  0  0  0  0  0
   19.3828  -51.1719   51.7687 C   0  0  0  0  0  0  0  0  0  0  0  0
   22.9828  -49.1719   52.0687 C   0  0  0  0  0  0  0  0  0  0  0  0
   21.7828  -48.3719   51.4687 C   0  0  0  0  0  0  0  0  0  0  0  0
   24.0828  -48.4719   52.5687 O   0  0  0  0  0  0  0  0  0  0  0  0
   18.3828  -50.8719   50.9687 O   0  0  0  0  0  0  0  0  0  0  0  0
  2  1  2  0
  3  1  1  0
  4  3  2  0
  5  3  1  0
  6  2  1  0
  7  4  1  0
  7  6  2  0
  8  6  1  0
  9  5  1  0
M  END
>  <ID>  (1) 
conformer_0

$$$$
