
     RDKit          3D

 24 28  0  0  0  0  0  0  0  0999 V2000
   21.3938  -52.4211   52.5440 C   0  0  0  0  0  0  0  0  0  0  0  0
   22.0938  -51.2211   52.2440 C   0  0  0  0  0  0  0  0  0  0  0  0
   21.5938  -50.0211   52.6440 C   0  0  0  0  0  0  0  0  0  0  0  0
   22.1938  -53.5211   52.5440 N   0  0  0  0  0  0  0  0  0  0  0  0
   23.3938  -53.2211   53.0440 C   0  0  0  0  0  0  0  0  0  0  0  0
   23.1938  -53.2211   51.9440 N   0  0  0  0  0  0  0  0  0  0  0  0
   22.4938  -49.1211   53.1440 C   0  0  0  0  0  0  0  0  0  0  0  0
   23.7938  -49.6211   53.0440 C   0  0  0  0  0  0  0  0  0  0  0  0
   24.8938  -48.9211   53.4440 N   0  0  0  0  0  0  0  0  0  0  0  0
   23.3938  -48.9211   52.0440 N   0  0  0  0  0  0  0  0  0  0  0  0
   25.8938  -49.3211   54.2440 N   0  0  0  0  0  0  0  0  0  0  0  0
   25.7938  -50.7211   54.2440 C   0  0  0  0  0  0  0  0  0  0  0  0
   26.1938  -48.7211   55.4440 C   0  0  0  0  0  0  0  0  0  0  0  0
   26.4938  -51.7211   53.7440 O   0  0  0  0  0  0  0  0  0  0  0  0
   27.1938  -49.4211   56.0440 C   0  0  0  0  0  0  0  0  0  0  0  0
   27.8938  -50.3211   55.1440 C   0  0  0  0  0  0  0  0  0  0  0  0
   19.9938  -52.4211   52.8440 N   0  0  0  0  0  0  0  0  0  0  0  0
   19.6938  -53.8211   52.4440 C   0  0  0  0  0  0  0  0  0  0  0  0
   26.7938  -51.2211   54.9440 C   0  0  0  0  0  0  0  0  0  0  0  0
   24.2938  -47.6211   53.7440 N   0  0  0  0  0  0  0  0  0  0  0  0
   21.4938  -51.9211   51.2440 N   0  0  0  0  0  0  0  0  0  0  0  0
   24.8938  -46.9211   54.6440 C   0  0  0  0  0  0  0  0  0  0  0  0
   26.0938  -47.2211   55.3440 C   0  0  0  0  0  0  0  0  0  0  0  0
   20.2938  -55.0211   53.0440 C   0  0  0  0  0  0  0  0  0  0  0  0
  2  1  1  0
  3  2  1  0
  4  1  1  0
  5  4  1  0
  6  5  2  0
  7  3  1  0
  8  7  1  0
  9  8  1  0
 10  7  1  0
 10  8  1  0
 11  9  1  0
 12 11  1  0
 13 11  1  0
 14 12  1  0
 15 13  1  0
 16 15  2  0
 17  1  1  0
 18 17  1  0
 19 12  2  0
 19 14  1  0
 19 16  1  0
 20  9  1  0
 21  1  1  0
 21  2  1  0
 22 20  2  0
 23 13  2  0
 23 22  1  0
 24 18  1  0
M  END
>  <ID>  (1) 
conformer_0

$$$$
