
     RDKit          3D

 21 23  0  0  0  0  0  0  0  0999 V2000
   21.3938  -52.4211   52.5440 C   0  0  0  0  0  0  0  0  0  0  0  0
   22.0938  -51.2211   52.2440 C   0  0  0  0  0  0  0  0  0  0  0  0
   21.5938  -50.0211   52.6440 C   0  0  0  0  0  0  0  0  0  0  0  0
   22.1938  -53.5211   52.5440 N   0  0  0  0  0  4  0  0  0  0  0  0
   23.3938  -53.2211   53.0440 C   0  0  0  0  0  0  0  0  0  0  0  0
   21.5938  -54.8211   52.8440 C   0  0  0  0  0  0  0  0  0  0  0  0
   22.3938  -49.1211   53.3440 N   0  0  0  0  0  0  0  0  0  0  0  0
   23.6938  -49.5211   53.1440 C   0  0  0  0  0  0  0  0  0  0  0  0
   23.1938  -53.3211   51.7440 N   0  0  0  0  0  0  0  0  0  0  0  0
   24.7938  -48.9211   53.4440 N   0  0  0  0  0  0  0  0  0  0  0  0
   25.7938  -49.6211   54.0440 N   0  0  0  0  0  0  0  0  0  0  0  0
   26.8938  -49.0211   54.5440 C   0  0  0  0  0  0  0  0  0  0  0  0
   26.4938  -47.6211   54.4440 C   0  0  0  0  0  0  0  0  0  0  0  0
   24.9938  -47.7211   54.1440 C   0  0  0  0  0  0  0  0  0  0  0  0
   21.4938  -51.9211   51.4440 N   0  0  0  0  0  0  0  0  0  0  0  0
   20.3938  -49.6211   52.1440 N   0  0  0  0  0  0  0  0  0  0  0  0
   20.4938  -48.2211   51.9440 C   0  0  0  0  0  0  0  0  0  0  0  0
   19.2938  -47.6211   51.9440 C   0  0  0  0  0  0  0  0  0  0  0  0
   18.3938  -48.6211   51.5440 C   0  0  0  0  0  0  0  0  0  0  0  0
   19.0938  -49.9211   51.7440 C   0  0  0  0  0  0  0  0  0  0  0  0
   23.0938  -48.6211   52.3440 N   0  0  0  0  0  0  0  0  0  0  0  0
  2  1  1  0
  3  2  1  0
  4  1  1  0
  5  4  1  0
  6  4  1  0
  7  3  1  0
  8  7  1  0
  9  5  2  0
 10  8  1  0
 11 10  1  0
 12 11  2  0
 13 12  1  0
 14 10  1  0
 14 13  2  0
 15  1  1  0
 15  2  1  0
 16  3  1  0
 17 16  1  0
 18 17  2  0
 19 18  1  0
 20 16  1  0
 20 19  2  0
 21  8  1  0
M  END
>  <ID>  (1) 
conformer_0

$$$$
