
     RDKit          3D

 18 20  0  0  0  0  0  0  0  0999 V2000
   23.6340  -52.5279   53.1196 C   0  0  0  0  0  0  0  0  0  0  0  0
   22.4340  -52.1279   52.5196 C   0  0  0  0  0  0  0  0  0  0  0  0
   22.3340  -50.8279   52.1196 C   0  0  0  0  0  0  0  0  0  0  0  0
   23.2340  -49.9279   52.7196 C   0  0  0  0  0  0  0  0  0  0  0  0
   21.1340  -50.3279   51.6196 C   0  0  0  0  0  0  0  0  0  0  0  0
   21.1340  -48.9279   51.4196 C   0  0  0  0  0  0  0  0  0  0  0  0
   23.4340  -48.8279   52.0196 N   0  0  0  0  0  0  0  0  0  0  0  0
   22.3340  -48.2279   51.4196 C   0  0  0  0  0  0  0  0  0  0  0  0
   24.3340  -50.4279   53.5196 C   0  0  0  0  0  0  0  0  0  0  0  0
   24.5340  -51.8279   53.8196 C   0  0  0  0  0  0  0  0  0  0  0  0
   19.9340  -51.1279   51.4196 C   0  0  0  0  0  0  0  0  0  0  0  0
   25.3340  -49.5279   53.8196 O   0  0  0  0  0  0  0  0  0  0  0  0
   24.0340  -53.9279   52.9196 O   0  0  0  0  0  0  0  0  0  0  0  0
   25.9340  -52.2279   53.8196 O   0  0  0  0  0  0  0  0  0  0  0  0
   26.0340  -53.6279   54.2196 C   0  0  0  0  0  0  0  0  0  0  0  0
   25.0340  -54.5279   53.8196 C   0  0  0  0  0  0  0  0  0  0  0  0
   18.9340  -51.7279   52.1196 N   0  0  0  0  0  0  0  0  0  0  0  0
   20.1340  -52.2279   51.5196 O   0  0  0  0  0  0  0  0  0  0  0  0
  2  1  2  0
  3  2  1  0
  4  3  2  0
  5  3  1  0
  6  5  2  0
  7  4  1  0
  8  6  1  0
  8  7  2  0
  9  4  1  0
 10  1  1  0
 10  9  2  0
 11  5  1  0
 12  9  1  0
 13  1  1  0
 14 10  1  0
 15 14  1  0
 16 13  1  0
 16 15  1  0
 17 11  1  0
 18 11  1  0
M  END
>  <ID>  (1) 
conformer_0

$$$$
