
     RDKit          3D

 12 13  0  0  0  0  0  0  0  0999 V2000
   22.3172  -50.3146   52.3793 C   0  0  0  0  0  0  0  0  0  0  0  0
   22.5172  -51.6146   52.0793 C   0  0  0  0  0  0  0  0  0  0  0  0
   21.0172  -49.8146   52.2793 C   0  0  0  0  0  0  0  0  0  0  0  0
   20.0172  -50.6146   51.6793 C   0  0  0  0  0  0  0  0  0  0  0  0
   20.1172  -52.0146   51.8793 C   0  0  0  0  0  0  0  0  0  0  0  0
   21.4172  -52.5146   52.1793 C   0  0  0  0  0  0  0  0  0  0  0  0
   20.9172  -48.4146   52.6793 C   0  0  0  0  0  0  0  0  0  0  0  0
   22.0172  -48.2146   53.4793 C   0  0  0  0  0  0  0  0  0  0  0  0
   23.0172  -49.3146   53.1793 N   0  0  0  0  0  0  0  0  0  0  0  0
   18.8172  -50.0146   51.3793 C   0  0  0  0  0  0  0  0  0  0  0  0
   22.3172  -47.4146   54.4793 N   0  0  0  0  0  0  0  0  0  0  0  0
   17.6172  -49.6146   51.4793 O   0  0  0  0  0  0  0  0  0  0  0  0
  2  1  1  0
  3  1  2  0
  4  3  1  0
  5  4  1  0
  6  2  1  0
  6  5  2  0
  7  3  1  0
  8  7  2  0
  9  1  1  0
  9  8  1  0
 10  4  2  0
 11  8  1  0
 12 10  2  0
M  END
>  <ID>  (1) 
conformer_0

$$$$
