
     RDKit          3D

 15 17  0  0  0  0  0  0  0  0999 V2000
   22.3842  -52.1473   52.6746 C   0  0  0  0  0  0  0  0  0  0  0  0
   22.3842  -50.9473   52.0746 C   0  0  0  0  0  0  0  0  0  0  0  0
   21.0842  -50.2473   52.2746 C   0  0  0  0  0  0  0  0  0  0  0  0
   20.0842  -51.3473   52.2746 C   0  0  0  0  0  0  0  0  0  0  0  0
   20.6842  -49.1473   51.6746 C   0  0  0  0  0  0  0  0  0  0  0  0
   23.1842  -53.1473   52.5746 N   0  0  0  0  0  0  0  0  0  0  0  0
   22.7842  -54.5473   52.6746 C   0  0  0  0  0  0  0  0  0  0  0  0
   23.3842  -49.9473   52.4746 C   0  0  0  0  0  0  0  0  0  0  0  0
   22.9842  -48.6473   52.2746 C   0  0  0  0  0  0  0  0  0  0  0  0
   20.8842  -52.5473   52.4746 C   0  0  0  0  0  0  0  0  0  0  0  0
   21.9842  -48.3473   51.3746 C   0  0  0  0  0  0  0  0  0  0  0  0
   24.4842  -53.1473   53.2746 C   0  0  0  0  0  0  0  0  0  0  0  0
   23.8842  -55.4473   52.4746 C   0  0  0  0  0  0  0  0  0  0  0  0
   24.9842  -54.6473   53.0746 C   0  0  0  0  0  0  0  0  0  0  0  0
   25.3842  -53.7473   52.7746 O   0  0  0  0  0  0  0  0  0  0  0  0
  2  1  2  0
  3  2  1  0
  4  3  2  0
  5  3  1  0
  6  1  1  0
  7  6  1  0
  8  2  1  0
  9  8  2  0
 10  1  1  0
 10  4  1  0
 11  5  2  0
 11  9  1  0
 12  6  1  0
 13  7  1  0
 14 13  1  0
 15 12  1  0
 15 14  1  0
M  END
>  <ID>  (1) 
conformer_0

$$$$
