
     RDKit          3D

 17 19  0  0  0  0  0  0  0  0999 V2000
   23.4081  -52.5325   53.1207 C   0  0  0  0  0  0  0  0  0  0  0  0
   22.3081  -52.9325   52.4207 C   0  0  0  0  0  0  0  0  0  0  0  0
   21.8081  -54.2325   52.4207 C   0  0  0  0  0  0  0  0  0  0  0  0
   22.6081  -55.2325   53.0207 C   0  0  0  0  0  0  0  0  0  0  0  0
   24.0081  -54.8325   53.2207 C   0  0  0  0  0  0  0  0  0  0  0  0
   24.4081  -53.5325   53.3207 C   0  0  0  0  0  0  0  0  0  0  0  0
   21.4081  -51.8325   52.2207 N   0  0  0  0  0  0  0  0  0  0  0  0
   22.0081  -50.6325   52.5207 C   0  0  0  0  0  0  0  0  0  0  0  0
   21.2081  -49.5325   52.6207 C   0  0  0  0  0  0  0  0  0  0  0  0
   20.9081  -48.3325   51.9207 C   0  0  0  0  0  0  0  0  0  0  0  0
   20.0081  -47.4325   52.5207 C   0  0  0  0  0  0  0  0  0  0  0  0
   20.6081  -46.9325   53.6207 N   0  0  0  0  0  0  0  0  0  0  0  0
   21.8081  -47.4325   54.0207 C   0  0  0  0  0  0  0  0  0  0  0  0
   22.6081  -47.1325   55.0207 N   0  0  0  0  0  0  0  0  0  0  0  0
   23.2081  -50.2325   52.2207 O   0  0  0  0  0  0  0  0  0  0  0  0
   22.8081  -48.0325   53.7207 C   0  0  0  0  0  0  0  0  0  0  0  0
   20.2081  -49.7325   51.5207 C   0  0  0  0  0  0  0  0  0  0  0  0
  2  1  2  0
  3  2  1  0
  4  3  2  0
  5  4  1  0
  6  1  1  0
  6  5  2  0
  7  2  1  0
  8  7  1  0
  9  8  1  0
 10  9  1  0
 11 10  1  0
 12 11  2  3
 13 12  1  0
 14 13  2  0
 15  8  2  0
 16 13  1  0
 16 14  1  0
 17  9  1  0
 17 10  1  0
M  END
>  <ID>  (1) 
conformer_0

$$$$
