
     RDKit          3D

 19 22  0  0  0  0  0  0  0  0999 V2000
   21.8056  -51.1538   52.0611 C   0  0  0  0  0  0  0  0  0  0  0  0
   20.8056  -50.2538   52.0611 C   0  0  0  0  0  0  0  0  0  0  0  0
   21.0056  -48.9538   51.4611 C   0  0  0  0  0  0  0  0  0  0  0  0
   19.5056  -50.8538   51.8611 C   0  0  0  0  0  0  0  0  0  0  0  0
   21.8056  -52.4538   52.1611 N   0  0  0  0  0  0  0  0  0  0  0  0
   22.7056  -53.2538   52.6611 C   0  0  0  0  0  0  0  0  0  0  0  0
   20.4056  -52.9538   52.0611 C   0  0  0  0  0  0  0  0  0  0  0  0
   19.6056  -52.1538   51.4611 N   0  0  0  0  0  0  0  0  0  0  0  0
   23.6056  -54.2538   52.4611 C   0  0  0  0  0  0  0  0  0  0  0  0
   18.6056  -50.0538   51.1611 N   0  0  0  0  0  0  0  0  0  0  0  0
   23.1056  -50.5538   52.1611 C   0  0  0  0  0  0  0  0  0  0  0  0
   23.4056  -49.1538   52.1611 C   0  0  0  0  0  0  0  0  0  0  0  0
   22.3056  -48.4538   51.6611 C   0  0  0  0  0  0  0  0  0  0  0  0
   23.9056  -52.9538   52.4611 O   0  0  0  0  0  0  0  0  0  0  0  0
   23.8056  -55.2538   53.4611 C   0  0  0  0  0  0  0  0  0  0  0  0
   24.1056  -56.5538   52.8611 O   0  0  0  0  0  0  0  0  0  0  0  0
   24.2056  -55.0538   54.7611 C   0  0  0  0  0  0  0  0  0  0  0  0
   24.5056  -57.3538   53.9611 C   0  0  0  0  0  0  0  0  0  0  0  0
   24.9056  -56.5538   55.1611 C   0  0  0  0  0  0  0  0  0  0  0  0
  2  1  1  0
  3  2  1  0
  4  2  2  0
  5  1  1  0
  6  5  1  0
  7  5  1  0
  8  4  1  0
  8  7  2  0
  9  6  1  0
 10  4  1  0
 11  1  1  0
 12 11  2  0
 13  3  2  0
 13 12  1  0
 14  6  1  0
 14  9  1  0
 15  9  1  0
 16 15  1  0
 17 15  1  0
 18 16  1  0
 19 17  1  0
 19 18  1  0
M  END
>  <ID>  (1) 
conformer_0

$$$$
