
     RDKit          3D

  9  9  0  0  0  0  0  0  0  0999 V2000
   21.7431  -50.3625   52.7052 C   0  0  0  0  0  0  0  0  0  0  0  0
   20.6431  -50.2625   51.9052 C   0  0  0  0  0  0  0  0  0  0  0  0
   20.3431  -49.0625   51.3052 C   0  0  0  0  0  0  0  0  0  0  0  0
   19.6431  -51.3625   51.8052 C   0  0  0  0  0  0  0  0  0  0  0  0
   22.9431  -49.6625   52.2052 C   0  0  0  0  0  0  0  0  0  0  0  0
   22.6431  -48.3625   51.8052 C   0  0  0  0  0  0  0  0  0  0  0  0
   21.3431  -47.9625   51.4052 C   0  0  0  0  0  0  0  0  0  0  0  0
   19.3431  -52.2625   52.8052 N   0  0  0  0  0  0  0  0  0  0  0  0
   18.5431  -50.9625   51.1052 O   0  0  0  0  0  0  0  0  0  0  0  0
  2  1  2  0
  3  2  1  0
  4  2  1  0
  5  1  1  0
  6  5  2  0
  7  3  2  0
  7  6  1  0
  8  4  1  0
  9  4  2  0
M  END
>  <ID>  (1) 
conformer_0

$$$$
