
     RDKit          3D

 15 16  0  0  0  0  0  0  0  0999 V2000
   22.5094  -50.8259   52.2120 C   0  0  0  0  0  0  0  0  0  0  0  0
   21.2094  -50.2259   52.0120 C   0  0  0  0  0  0  0  0  0  0  0  0
   20.2094  -51.1259   51.6120 C   0  0  0  0  0  0  0  0  0  0  0  0
   20.6094  -52.5259   51.8120 C   0  0  0  0  0  0  0  0  0  0  0  0
   21.1094  -48.8259   52.1120 C   0  0  0  0  0  0  0  0  0  0  0  0
   23.4094  -50.2259   52.9120 N   0  0  0  0  0  0  0  0  0  0  0  0
   23.4094  -48.8259   52.9120 C   0  0  0  0  0  0  0  0  0  0  0  0
   22.2094  -48.2259   52.9120 C   0  0  0  0  0  0  0  0  0  0  0  0
   21.5094  -53.0259   52.6120 C   0  0  0  0  0  0  0  0  0  0  0  0
   21.5094  -54.3259   53.0120 N   0  0  0  0  0  0  0  0  0  0  0  0
   18.9094  -50.7259   51.3120 C   0  0  0  0  0  0  0  0  0  0  0  0
   22.7094  -52.3259   52.5120 C   0  0  0  0  0  0  0  0  0  0  0  0
   22.5094  -55.3259   52.8120 C   0  0  0  0  0  0  0  0  0  0  0  0
   23.6094  -55.0259   52.3120 O   0  0  0  0  0  0  0  0  0  0  0  0
   22.3094  -56.6259   53.5120 C   0  0  0  0  0  0  0  0  0  0  0  0
  2  1  1  0
  3  2  2  0
  4  3  1  0
  5  2  1  0
  6  1  1  0
  7  6  2  0
  8  5  2  0
  8  7  1  0
  9  4  2  0
 10  9  1  0
 11  3  1  0
 12  1  2  0
 12  9  1  0
 13 10  1  0
 14 13  2  0
 15 13  1  0
M  END
>  <ID>  (1) 
conformer_0

$$$$
