
     RDKit          3D

  9 10  0  0  0  0  0  0  0  0999 V2000
   21.1784  -49.6855   52.5303 C   0  0  0  0  0  0  0  0  0  0  0  0
   21.0784  -50.9855   52.3303 C   0  0  0  0  0  0  0  0  0  0  0  0
   22.1784  -51.7855   52.4303 C   0  0  0  0  0  0  0  0  0  0  0  0
   22.2784  -53.0855   52.7303 N   0  0  0  0  0  0  0  0  0  0  0  0
   23.0784  -54.0855   52.1303 C   0  0  0  0  0  0  0  0  0  0  0  0
   23.3784  -50.9855   52.7303 C   0  0  0  0  0  0  0  0  0  0  0  0
   22.1784  -48.9855   53.1303 C   0  0  0  0  0  0  0  0  0  0  0  0
   23.4784  -49.5855   52.8303 C   0  0  0  0  0  0  0  0  0  0  0  0
   23.5784  -53.3855   53.3303 C   0  0  0  0  0  0  0  0  0  0  0  0
  2  1  2  0
  3  2  1  0
  4  3  1  0
  5  4  1  0
  6  3  2  0
  7  1  1  0
  8  6  1  0
  8  7  2  0
  9  4  1  0
  9  5  1  0
M  END
>  <ID>  (1) 
conformer_0

$$$$
