
     RDKit          3D

 10 10  0  0  0  0  0  0  0  0999 V2000
   21.6828  -51.0719   52.1687 C   0  0  0  0  0  0  0  0  0  0  0  0
   20.4828  -50.4719   52.1687 C   0  0  0  0  0  0  0  0  0  0  0  0
   20.2828  -49.2719   51.3687 C   0  0  0  0  0  0  0  0  0  0  0  0
   19.3828  -51.4719   51.9687 C   0  0  0  0  0  0  0  0  0  0  0  0
   22.7828  -50.1719   52.1687 C   0  0  0  0  0  0  0  0  0  0  0  0
   22.7828  -49.0719   51.3687 C   0  0  0  0  0  0  0  0  0  0  0  0
   21.4828  -48.3719   51.5687 C   0  0  0  0  0  0  0  0  0  0  0  0
   19.0828  -49.0719   50.8687 O   0  0  0  0  0  0  0  0  0  0  0  0
   21.2828  -47.0719   51.2687 O   0  0  0  0  0  0  0  0  0  0  0  0
   19.4828  -52.6719   51.5687 O   0  0  0  0  0  0  0  0  0  0  0  0
  2  1  2  0
  3  2  1  0
  4  2  1  0
  5  1  1  0
  6  5  2  0
  7  3  2  0
  7  6  1  0
  8  3  1  0
  9  7  1  0
 10  4  2  0
M  END
>  <ID>  (1) 
conformer_0

$$$$
