
     RDKit          3D

 17 19  0  0  0  0  0  0  0  0999 V2000
   22.3391  -51.1962   52.5326 C   0  0  0  0  0  0  0  0  0  0  0  0
   21.0391  -50.6962   52.4326 C   0  0  0  0  0  0  0  0  0  0  0  0
   20.7391  -49.3962   52.2326 C   0  0  0  0  0  0  0  0  0  0  0  0
   22.6391  -52.5962   52.4326 N   0  0  0  0  0  0  0  0  0  0  0  0
   23.6391  -52.9962   53.3326 C   0  0  0  0  0  0  0  0  0  0  0  0
   21.3391  -53.1962   52.5326 C   0  0  0  0  0  0  0  0  0  0  0  0
   23.3391  -50.1962   52.6326 C   0  0  0  0  0  0  0  0  0  0  0  0
   23.0391  -48.8962   52.2326 C   0  0  0  0  0  0  0  0  0  0  0  0
   21.7391  -48.4962   51.9326 C   0  0  0  0  0  0  0  0  0  0  0  0
   20.4391  -53.1962   51.6326 O   0  0  0  0  0  0  0  0  0  0  0  0
   24.8391  -53.2962   53.0326 O   0  0  0  0  0  0  0  0  0  0  0  0
   21.6391  -54.4962   53.0326 C   0  0  0  0  0  0  0  0  0  0  0  0
   22.7391  -55.2962   52.8326 C   0  0  0  0  0  0  0  0  0  0  0  0
   22.8391  -56.5962   53.1326 N   0  0  0  0  0  0  0  0  0  0  0  0
   24.5391  -51.9962   53.6326 C   0  0  0  0  0  0  0  0  0  0  0  0
   23.9391  -55.5962   53.3326 C   0  0  0  0  0  0  0  0  0  0  0  0
   21.7391  -47.3962   51.2326 F   0  0  0  0  0  0  0  0  0  0  0  0
  2  1  2  0
  3  2  1  0
  4  1  1  0
  5  4  1  0
  6  4  1  0
  7  1  1  0
  8  7  2  0
  9  3  2  0
  9  8  1  0
 10  6  2  0
 11  5  1  0
 12  6  1  0
 13 12  1  0
 14 13  1  0
 15  5  1  0
 15 11  1  0
 16 13  1  0
 16 14  1  0
 17  9  1  0
M  END
>  <ID>  (1) 
conformer_0

$$$$
