
     RDKit          3D

 15 18  0  0  0  0  0  0  0  0999 V2000
   23.6340  -52.5279   53.1196 C   0  0  0  0  0  0  0  0  0  0  0  0
   22.4340  -52.1279   52.5196 C   0  0  0  0  0  0  0  0  0  0  0  0
   22.3340  -50.8279   52.1196 C   0  0  0  0  0  0  0  0  0  0  0  0
   23.2340  -49.9279   52.7196 C   0  0  0  0  0  0  0  0  0  0  0  0
   21.0340  -50.2279   51.8196 C   0  0  0  0  0  0  0  0  0  0  0  0
   21.0340  -48.8279   52.3196 C   0  0  0  0  0  0  0  0  0  0  0  0
   23.4340  -48.7279   52.1196 N   0  0  0  0  0  0  0  0  0  0  0  0
   22.1340  -48.0279   51.9196 C   0  0  0  0  0  0  0  0  0  0  0  0
   24.3340  -50.4279   53.4196 C   0  0  0  0  0  0  0  0  0  0  0  0
   24.6340  -51.7279   53.4196 C   0  0  0  0  0  0  0  0  0  0  0  0
   19.8340  -51.0279   52.0196 C   0  0  0  0  0  0  0  0  0  0  0  0
   21.5340  -48.1279   53.2196 N   0  0  0  0  0  0  0  0  0  0  0  0
   19.9340  -52.2279   52.8196 N   0  0  0  0  0  0  0  0  0  0  0  0
   21.2340  -52.8279   52.5196 N   0  0  0  0  0  0  0  0  0  0  0  0
   19.0340  -51.3279   51.1196 O   0  0  0  0  0  0  0  0  0  0  0  0
  2  1  2  0
  3  2  1  0
  4  3  2  0
  5  3  1  0
  6  5  1  0
  7  4  1  0
  8  6  1  0
  8  7  2  0
  9  4  1  0
 10  1  1  0
 10  9  2  0
 11  5  1  0
 12  6  1  0
 12  8  1  0
 13 11  1  0
 14  2  1  0
 14 13  1  0
 15 11  2  0
M  END
>  <ID>  (1) 
conformer_0

$$$$
