
     RDKit          3D

 13 14  0  0  0  0  0  0  0  0999 V2000
   21.6066  -52.9371   52.1668 C   0  0  0  0  0  0  0  0  0  0  0  0
   22.8066  -52.9371   51.3668 C   0  0  0  0  0  0  0  0  0  0  0  0
   21.2066  -54.1371   52.6668 C   0  0  0  0  0  0  0  0  0  0  0  0
   22.2066  -55.1371   52.9668 C   0  0  0  0  0  0  0  0  0  0  0  0
   23.5066  -54.9371   52.6668 C   0  0  0  0  0  0  0  0  0  0  0  0
   23.8066  -53.9371   51.7668 C   0  0  0  0  0  0  0  0  0  0  0  0
   24.3066  -56.1371   52.4668 C   0  0  0  0  0  0  0  0  0  0  0  0
   20.6066  -52.2371   51.4668 O   0  0  0  0  0  0  0  0  0  0  0  0
   24.0066  -57.1371   53.3668 O   0  0  0  0  0  0  0  0  0  0  0  0
   25.7066  -55.8371   52.2668 N   0  0  0  0  0  0  0  0  0  0  0  0
   26.0066  -54.5371   52.6668 C   0  0  0  0  0  0  0  0  0  0  0  0
   27.0066  -53.9371   53.0668 O   0  0  0  0  0  0  0  0  0  0  0  0
   25.5066  -53.8371   53.5668 C   0  0  0  0  0  0  0  0  0  0  0  0
  2  1  2  0
  3  1  1  0
  4  3  2  0
  5  4  1  0
  6  2  1  0
  6  5  2  0
  7  5  1  0
  8  1  1  0
  9  7  1  0
 10  7  1  0
 11 10  1  0
 12 11  1  0
 13 11  1  0
 13 12  1  0
M  END
>  <ID>  (1) 
conformer_0

$$$$
