
     RDKit          3D

 22 24  0  0  0  0  0  0  0  0999 V2000
   22.3391  -51.1962   52.5326 C   0  0  0  0  0  0  0  0  0  0  0  0
   21.0391  -50.6962   52.4326 C   0  0  0  0  0  0  0  0  0  0  0  0
   20.7391  -49.3962   52.2326 C   0  0  0  0  0  0  0  0  0  0  0  0
   22.6391  -52.5962   52.4326 N   0  0  0  0  0  0  0  0  0  0  0  0
   23.6391  -52.9962   53.3326 C   0  0  0  0  0  0  0  0  0  0  0  0
   21.3391  -53.1962   52.5326 C   0  0  0  0  0  0  0  0  0  0  0  0
   23.3391  -50.1962   52.7326 C   0  0  0  0  0  0  0  0  0  0  0  0
   24.8391  -53.3962   53.1326 O   0  0  0  0  0  0  0  0  0  0  0  0
   23.3391  -48.8962   52.3326 C   0  0  0  0  0  0  0  0  0  0  0  0
   20.5391  -53.2962   51.6326 O   0  0  0  0  0  0  0  0  0  0  0  0
   21.9391  -48.4962   52.1326 C   0  0  0  0  0  0  0  0  0  0  0  0
   24.5391  -51.9962   53.7326 C   0  0  0  0  0  0  0  0  0  0  0  0
   21.7391  -54.3962   53.1326 N   0  0  0  0  0  0  0  0  0  0  0  0
   22.8391  -54.9962   52.5326 C   0  0  0  0  0  0  0  0  0  0  0  0
   23.8391  -55.7962   52.6326 C   0  0  0  0  0  0  0  0  0  0  0  0
   24.0391  -57.1962   52.4326 C   0  0  0  0  0  0  0  0  0  0  0  0
   25.2391  -57.6962   52.2326 C   0  0  0  0  0  0  0  0  0  0  0  0
   25.6391  -58.9962   51.9326 C   0  0  0  0  0  0  0  0  0  0  0  0
   20.6391  -55.0962   53.6326 C   0  0  0  0  0  0  0  0  0  0  0  0
   26.0391  -59.7962   51.0326 C   0  0  0  0  0  0  0  0  0  0  0  0
   21.7391  -47.5962   51.1326 F   0  0  0  0  0  0  0  0  0  0  0  0
   24.5391  -59.5962   51.6326 O   0  0  0  0  0  0  0  0  0  0  0  0
  2  1  2  0
  3  2  1  0
  4  1  1  0
  5  4  1  0
  6  4  1  0
  7  1  1  0
  8  5  1  0
  9  7  2  0
 10  6  2  0
 11  3  2  0
 11  9  1  0
 12  5  1  0
 12  8  1  0
 13  6  1  0
 14 13  1  0
 15 14  1  0
 16 15  1  0
 17 16  2  3
 18 17  1  0
 19 13  1  0
 20 18  1  0
 21 11  1  0
 22 18  1  0
 22 20  1  0
M  END
>  <ID>  (1) 
conformer_0

$$$$
