
     RDKit          3D

 21 25  0  0  0  0  0  0  0  0999 V2000
   21.3938  -52.4211   52.5440 C   0  0  0  0  0  0  0  0  0  0  0  0
   22.0938  -51.2211   52.2440 C   0  0  0  0  0  0  0  0  0  0  0  0
   21.5938  -50.0211   52.6440 C   0  0  0  0  0  0  0  0  0  0  0  0
   22.1938  -53.5211   52.5440 N   0  0  0  0  0  0  0  0  0  0  0  0
   23.3938  -53.2211   53.0440 C   0  0  0  0  0  0  0  0  0  0  0  0
   23.1938  -53.2211   51.9440 N   0  0  0  0  0  0  0  0  0  0  0  0
   22.4938  -49.1211   53.1440 C   0  0  0  0  0  0  0  0  0  0  0  0
   23.7938  -49.6211   53.0440 C   0  0  0  0  0  0  0  0  0  0  0  0
   24.8938  -48.9211   53.4440 N   0  0  0  0  0  4  0  0  0  0  0  0
   23.3938  -48.8211   52.0440 N   0  0  0  0  0  0  0  0  0  0  0  0
   24.3938  -47.6211   53.7440 N   0  0  0  0  0  0  0  0  0  0  0  0
   25.6938  -49.5211   54.3440 C   0  0  0  0  0  0  0  0  0  0  0  0
   25.6938  -50.8211   54.2440 N   0  0  0  0  0  0  0  0  0  0  0  0
   25.9938  -51.7211   55.2440 C   0  0  0  0  0  0  0  0  0  0  0  0
   20.0938  -52.5211   52.3440 O   0  0  0  0  0  0  0  0  0  0  0  0
   26.9938  -48.8211   54.4440 C   0  0  0  0  0  0  0  0  0  0  0  0
   19.7938  -53.9211   52.6440 C   0  0  0  0  0  0  0  0  0  0  0  0
   26.9938  -51.2211   54.1440 C   0  0  0  0  0  0  0  0  0  0  0  0
   27.7938  -50.0211   54.8440 C   0  0  0  0  0  0  0  0  0  0  0  0
   24.4938  -48.6211   54.6440 C   0  0  0  0  0  0  0  0  0  0  0  0
   21.7938  -51.9211   51.1440 N   0  0  0  0  0  0  0  0  0  0  0  0
  2  1  1  0
  3  2  1  0
  4  1  1  0
  5  4  1  0
  6  5  2  0
  7  3  1  0
  8  7  1  0
  9  8  1  0
 10  7  1  0
 10  8  1  0
 12  9  1  0
 13 12  1  0
 14 13  1  0
 15  1  1  0
 16 12  1  0
 17 15  1  0
 18 13  1  0
 18 14  1  0
 19 16  1  0
 19 18  1  0
 20  9  1  0
 20 11  1  0
 20 12  1  0
 21  1  1  0
 21  2  1  0
M  END
>  <ID>  (1) 
conformer_0

$$$$
