
     RDKit          3D

 13 14  0  0  0  0  0  0  0  0999 V2000
   23.6340  -52.5279   53.1196 C   0  0  0  0  0  0  0  0  0  0  0  0
   22.4340  -52.1279   52.5196 C   0  0  0  0  0  0  0  0  0  0  0  0
   22.3340  -50.8279   52.1196 C   0  0  0  0  0  0  0  0  0  0  0  0
   23.2340  -49.9279   52.7196 C   0  0  0  0  0  0  0  0  0  0  0  0
   21.1340  -50.3279   51.6196 C   0  0  0  0  0  0  0  0  0  0  0  0
   21.1340  -48.9279   51.4196 C   0  0  0  0  0  0  0  0  0  0  0  0
   23.4340  -48.7279   52.1196 N   0  0  0  0  0  0  0  0  0  0  0  0
   22.2340  -48.1279   51.6196 C   0  0  0  0  0  0  0  0  0  0  0  0
   24.4340  -50.3279   53.4196 C   0  0  0  0  0  0  0  0  0  0  0  0
   24.6340  -51.7279   53.6196 C   0  0  0  0  0  0  0  0  0  0  0  0
   19.8340  -51.0279   51.7196 C   0  0  0  0  0  0  0  0  0  0  0  0
   18.8340  -50.0279   51.3196 N   0  0  0  0  0  0  0  0  0  0  0  0
   17.6340  -49.8279   51.7196 O   0  0  0  0  0  0  0  0  0  0  0  0
  2  1  2  0
  3  2  1  0
  4  3  2  0
  5  3  1  0
  6  5  2  0
  7  4  1  0
  8  6  1  0
  8  7  2  0
  9  4  1  0
 10  1  1  0
 10  9  2  0
 11  5  1  0
 12 11  1  0
 13 12  1  0
M  END
>  <ID>  (1) 
conformer_0

$$$$
