
     RDKit          3D

 17 19  0  0  0  0  0  0  0  0999 V2000
   21.5300  -50.9240   52.5661 C   0  0  0  0  0  0  0  0  0  0  0  0
   20.3300  -50.5240   52.1661 C   0  0  0  0  0  0  0  0  0  0  0  0
   20.0300  -49.3240   51.4661 C   0  0  0  0  0  0  0  0  0  0  0  0
   21.9300  -52.2240   52.2661 N   0  0  0  0  0  0  0  0  0  0  0  0
   23.1300  -52.7240   52.8661 C   0  0  0  0  0  0  0  0  0  0  0  0
   19.5300  -51.7240   51.7661 C   0  0  0  0  0  0  0  0  0  0  0  0
   19.8300  -52.9240   51.5661 O   0  0  0  0  0  0  0  0  0  0  0  0
   22.6300  -50.0240   52.3661 C   0  0  0  0  0  0  0  0  0  0  0  0
   21.0300  -48.3240   51.6661 C   0  0  0  0  0  0  0  0  0  0  0  0
   22.4300  -48.7240   51.7661 C   0  0  0  0  0  0  0  0  0  0  0  0
   21.0300  -53.3240   52.0661 C   0  0  0  0  0  0  0  0  0  0  0  0
   21.2300  -54.5240   52.8661 C   0  0  0  0  0  0  0  0  0  0  0  0
   23.6300  -53.9240   52.1661 C   0  0  0  0  0  0  0  0  0  0  0  0
   22.6300  -54.9240   52.6661 N   0  0  0  0  0  0  0  0  0  0  0  0
   22.9300  -56.3240   52.9661 C   0  0  0  0  0  0  0  0  0  0  0  0
   18.3300  -51.3240   51.1661 O   0  0  0  0  0  0  0  0  0  0  0  0
   24.1300  -56.8240   52.2661 C   0  0  0  0  0  0  0  0  0  0  0  0
  2  1  1  0
  3  2  2  0
  4  1  1  0
  5  4  1  0
  6  2  1  0
  7  6  1  0
  8  1  2  0
  9  3  1  0
 10  8  1  0
 10  9  2  0
 11  4  1  0
 11  7  1  0
 12 11  1  0
 13  5  1  0
 14 12  1  0
 14 13  1  0
 15 14  1  0
 16  6  2  0
 17 15  1  0
M  END
>  <ID>  (1) 
conformer_0

$$$$
