
     RDKit          3D

  8  8  0  0  0  0  0  0  0  0999 V2000
   23.6340  -52.5279   53.1196 C   0  0  0  0  0  0  0  0  0  0  0  0
   22.7340  -51.8279   52.3196 C   0  0  0  0  0  0  0  0  0  0  0  0
   21.4340  -52.2279   52.3196 C   0  0  0  0  0  0  0  0  0  0  0  0
   21.0340  -53.5279   52.7196 C   0  0  0  0  0  0  0  0  0  0  0  0
   22.1340  -54.5279   52.7196 C   0  0  0  0  0  0  0  0  0  0  0  0
   23.3340  -53.9279   53.1196 C   0  0  0  0  0  0  0  0  0  0  0  0
   19.8340  -54.0279   52.1196 O   0  0  0  0  0  0  0  0  0  0  0  0
   20.3340  -51.4279   52.0196 O   0  0  0  0  0  0  0  0  0  0  0  0
  2  1  2  0
  3  2  1  0
  4  3  2  0
  5  4  1  0
  6  1  1  0
  6  5  2  0
  7  4  1  0
  8  3  1  0
M  END
>  <ID>  (1) 
conformer_0

$$$$
