
     RDKit          3D

 23 26  0  0  0  0  0  0  0  0999 V2000
   21.3938  -52.4211   52.5440 C   0  0  0  0  0  3  0  0  0  0  0  0
   22.0938  -51.2211   52.2440 C   0  0  0  0  0  0  0  0  0  0  0  0
   21.5938  -50.0211   52.6440 C   0  0  0  0  0  0  0  0  0  0  0  0
   22.1938  -53.5211   52.5440 N   0  0  0  0  0  4  0  0  0  0  0  0
   23.3938  -53.2211   53.0440 C   0  0  0  0  0  0  0  0  0  0  0  0
   23.1938  -53.2211   51.9440 N   0  0  0  0  0  0  0  0  0  0  0  0
   22.4938  -49.1211   53.1440 C   0  0  0  0  0  0  0  0  0  0  0  0
   23.7938  -49.6211   53.0440 C   0  0  0  0  0  0  0  0  0  0  0  0
   24.8938  -48.9211   53.4440 N   0  0  0  0  0  4  0  0  0  0  0  0
   23.3938  -48.8211   52.0440 N   0  0  0  0  0  0  0  0  0  0  0  0
   24.3938  -47.6211   53.7440 N   0  0  0  0  0  0  0  0  0  0  0  0
   25.9938  -49.4211   54.1440 C   0  0  0  0  0  0  0  0  0  0  0  0
   25.6938  -50.7211   54.3440 N   0  0  0  0  0  0  0  0  0  0  0  0
   27.2938  -49.3211   53.9440 C   0  0  0  0  0  0  0  0  0  0  0  0
   26.6938  -51.5211   53.9440 N   0  0  0  0  0  0  0  0  0  0  0  0
   26.5938  -51.2211   55.0440 C   0  0  0  0  0  0  0  0  0  0  0  0
   26.5938  -48.7211   54.9440 C   0  0  0  0  0  0  0  0  0  0  0  0
   20.0938  -52.5211   52.5440 N   0  0  0  0  0  0  0  0  0  0  0  0
   19.8938  -53.8211   52.7440 N   0  0  0  0  0  0  0  0  0  0  0  0
   21.1938  -54.4211   53.1440 C   0  0  0  0  0  0  0  0  0  0  0  0
   24.4938  -47.2211   55.0440 C   0  0  0  0  0  0  0  0  0  0  0  0
   23.8938  -46.1211   55.7440 C   0  0  0  0  0  0  0  0  0  0  0  0
   24.1938  -48.3211   54.6440 C   0  0  0  0  0  0  0  0  0  0  0  0
  2  1  1  0
  3  2  1  0
  4  1  1  0
  5  4  1  0
  6  5  2  0
  7  3  1  0
  8  7  1  0
  9  8  1  0
 10  7  1  0
 10  8  1  0
 12  9  1  0
 13 12  1  0
 14 12  1  0
 16 13  1  0
 16 15  2  0
 17 12  1  0
 17 14  2  0
 18  1  1  0
 19 18  1  0
 20  4  1  0
 20 19  2  0
 21 11  1  0
 22 21  1  0
 23  9  1  0
 23 11  1  0
 23 21  1  0
M  END
>  <ID>  (1) 
conformer_0

$$$$
