
     RDKit          3D

 19 21  0  0  0  0  0  0  0  0999 V2000
   23.5861  -52.2264   53.0050 C   0  0  0  0  0  0  0  0  0  0  0  0
   22.5861  -51.4264   52.4050 C   0  0  0  0  0  0  0  0  0  0  0  0
   21.1861  -51.9264   52.4050 C   0  0  0  0  0  0  0  0  0  0  0  0
   20.2861  -51.1264   52.0050 C   0  0  0  0  0  0  0  0  0  0  0  0
   22.5861  -50.0264   52.4050 C   0  0  0  0  0  0  0  0  0  0  0  0
   21.5861  -49.2264   52.6050 N   0  0  0  0  0  0  0  0  0  0  0  0
   20.3861  -49.7264   52.0050 C   0  0  0  0  0  0  0  0  0  0  0  0
   23.8861  -49.5264   52.8050 C   0  0  0  0  0  0  0  0  0  0  0  0
   24.7861  -50.2264   53.7050 C   0  0  0  0  0  0  0  0  0  0  0  0
   24.7861  -51.5264   53.6050 C   0  0  0  0  0  0  0  0  0  0  0  0
   21.7861  -48.1264   53.3050 C   0  0  0  0  0  0  0  0  0  0  0  0
   19.4861  -48.9264   51.5050 O   0  0  0  0  0  0  0  0  0  0  0  0
   20.8861  -47.3264   53.7050 O   0  0  0  0  0  0  0  0  0  0  0  0
   22.9861  -47.3264   53.1050 N   0  0  0  0  0  0  0  0  0  0  0  0
   24.0861  -48.1264   52.8050 O   0  0  0  0  0  0  0  0  0  0  0  0
   20.9861  -53.3264   52.8050 N   0  0  0  0  0  0  0  0  0  0  0  0
   19.6861  -53.9264   53.1050 C   0  0  0  0  0  0  0  0  0  0  0  0
   18.8861  -53.2264   53.7050 O   0  0  0  0  0  0  0  0  0  0  0  0
   19.5861  -55.3264   52.8050 C   0  0  0  0  0  0  0  0  0  0  0  0
  2  1  2  0
  3  2  1  0
  4  3  1  0
  5  2  1  0
  6  5  1  0
  7  4  1  0
  7  6  1  0
  8  5  2  0
  9  8  1  0
 10  1  1  0
 10  9  2  0
 11  6  1  0
 12  7  2  0
 13 11  2  0
 14 11  1  0
 15  8  1  0
 15 14  1  0
 16  3  1  0
 17 16  1  0
 18 17  2  0
 19 17  1  0
M  END
>  <ID>  (1) 
conformer_0

$$$$
