
     RDKit          3D

 16 19  0  0  0  0  0  0  0  0999 V2000
   21.5300  -50.9240   52.5661 C   0  0  0  0  0  0  0  0  0  0  0  0
   20.3300  -50.5240   52.1661 C   0  0  0  0  0  0  0  0  0  0  0  0
   20.0300  -49.3240   51.4661 C   0  0  0  0  0  0  0  0  0  0  0  0
   21.9300  -52.2240   52.2661 N   0  0  0  0  0  0  0  0  0  0  0  0
   23.1300  -52.7240   52.8661 C   0  0  0  0  0  0  0  0  0  0  0  0
   19.5300  -51.7240   51.7661 C   0  0  0  0  0  0  0  0  0  0  0  0
   19.8300  -52.9240   51.5661 O   0  0  0  0  0  0  0  0  0  0  0  0
   22.6300  -49.9240   52.6661 C   0  0  0  0  0  0  0  0  0  0  0  0
   20.9300  -48.2240   51.8661 C   0  0  0  0  0  0  0  0  0  0  0  0
   21.9300  -48.6240   52.8661 C   0  0  0  0  0  0  0  0  0  0  0  0
   21.0300  -53.2240   52.1661 C   0  0  0  0  0  0  0  0  0  0  0  0
   20.8300  -53.9240   53.3661 O   0  0  0  0  0  0  0  0  0  0  0  0
   21.5300  -54.6240   52.5662 C   0  0  0  0  0  0  0  0  0  0  0  0
   23.9300  -53.9240   52.5661 C   0  0  0  0  0  0  0  0  0  0  0  0
   22.9300  -55.1240   52.4662 C   0  0  0  0  0  0  0  0  0  0  0  0
   18.5300  -51.2240   50.9661 O   0  0  0  0  0  0  0  0  0  0  0  0
  2  1  1  0
  3  2  2  0
  4  1  1  0
  5  4  1  0
  6  2  1  0
  7  6  1  0
  8  1  2  0
  9  3  1  0
 10  8  1  0
 10  9  2  0
 11  4  1  0
 11  7  1  0
 12 11  1  0
 13 11  1  0
 13 12  1  0
 14  5  1  0
 15 13  1  0
 15 14  1  0
 16  6  2  0
M  END
>  <ID>  (1) 
conformer_0

$$$$
