
     RDKit          3D

 15 15  0  0  0  0  0  0  0  0999 V2000
   21.3938  -52.4211   52.5440 C   0  0  0  0  0  0  0  0  0  0  0  0
   22.0938  -51.2211   52.2440 C   0  0  0  0  0  0  0  0  0  0  0  0
   21.5938  -50.0211   52.6440 C   0  0  0  0  0  0  0  0  0  0  0  0
   22.1938  -53.5211   52.5440 N   0  0  0  0  0  4  0  0  0  0  0  0
   23.3938  -53.2211   53.0440 C   0  0  0  0  0  0  0  0  0  0  0  0
   21.5938  -54.8211   52.8440 C   0  0  0  0  0  0  0  0  0  0  0  0
   22.3938  -49.1211   53.3440 N   0  0  0  0  0  0  0  0  0  0  0  0
   23.1938  -53.3211   51.8440 N   0  0  0  0  0  0  0  0  0  0  0  0
   21.8938  -47.9211   53.7440 C   0  0  0  0  0  0  0  0  0  0  0  0
   22.3938  -47.4211   54.9440 C   0  0  0  0  0  0  0  0  0  0  0  0
   20.6938  -47.4211   53.1440 C   0  0  0  0  0  0  0  0  0  0  0  0
   20.2938  -48.0211   51.9440 C   0  0  0  0  0  0  0  0  0  0  0  0
   20.4938  -49.4211   51.8440 C   0  0  0  0  0  0  0  0  0  0  0  0
   23.2938  -48.0211   55.6440 O   0  0  0  0  0  0  0  0  0  0  0  0
   19.6938  -50.2211   51.1440 O   0  0  0  0  0  0  0  0  0  0  0  0
  2  1  1  0
  3  2  1  0
  4  1  1  0
  5  4  1  0
  6  4  1  0
  7  3  2  0
  8  5  2  0
  9  7  1  0
 10  9  1  0
 11  9  2  0
 12 11  1  0
 13  3  1  0
 13 12  2  0
 14 10  1  0
 15 13  1  0
M  END
>  <ID>  (1) 
conformer_0

$$$$
