
     RDKit          3D

 19 23  0  0  0  0  0  0  0  0999 V2000
   23.4081  -52.5325   53.1207 C   0  0  0  0  0  0  0  0  0  0  0  0
   22.3081  -52.9325   52.4207 C   0  0  0  0  0  0  0  0  0  0  0  0
   21.8081  -54.2325   52.4207 C   0  0  0  0  0  0  0  0  0  0  0  0
   22.6081  -55.2325   53.0207 C   0  0  0  0  0  0  0  0  0  0  0  0
   24.0081  -54.8325   53.2207 C   0  0  0  0  0  0  0  0  0  0  0  0
   24.4081  -53.5325   53.3207 C   0  0  0  0  0  0  0  0  0  0  0  0
   21.4081  -51.8325   52.4207 N   0  0  0  0  0  0  0  0  0  0  0  0
   22.0081  -50.6325   52.7207 C   0  0  0  0  0  0  0  0  0  0  0  0
   21.5081  -49.4325   52.6207 C   0  0  0  0  0  0  0  0  0  0  0  0
   20.6081  -48.4325   52.4207 C   0  0  0  0  0  3  0  0  0  0  0  0
   20.5081  -47.3325   53.2207 N   0  0  0  0  0  0  0  0  0  0  0  0
   21.7081  -47.2325   53.9207 C   0  0  0  0  0  0  0  0  0  0  0  0
   22.8081  -47.3325   53.0207 N   0  0  0  0  0  0  0  0  0  0  0  0
   19.4081  -46.5325   53.6207 C   0  0  0  0  0  0  0  0  0  0  0  0
   21.7081  -48.5325   51.5207 C   0  0  0  0  0  0  0  0  0  0  0  0
   22.4081  -48.4325   53.6207 C   0  0  0  0  0  0  0  0  0  0  0  0
   23.4081  -51.1325   53.1207 N   0  0  0  0  0  0  0  0  0  0  0  0
   19.8081  -46.0325   54.9207 C   0  0  0  0  0  0  0  0  0  0  0  0
   18.3081  -47.0325   53.2207 O   0  0  0  0  0  0  0  0  0  0  0  0
  2  1  1  0
  3  2  2  0
  4  3  1  0
  5  4  2  0
  6  1  2  0
  6  5  1  0
  7  2  1  0
  8  7  2  0
  9  8  1  0
 10  9  1  0
 11 10  1  0
 12 11  1  0
 13 12  1  0
 14 11  1  0
 15  9  1  0
 15 10  1  0
 16  9  1  0
 16 12  2  0
 16 13  1  0
 17  1  1  0
 17  8  1  0
 18 14  1  0
 19 14  2  0
M  END
>  <ID>  (1) 
conformer_0

$$$$
