
     RDKit          3D

 17 18  0  0  0  0  0  0  0  0999 V2000
   22.3391  -51.1962   52.5326 C   0  0  0  0  0  0  0  0  0  0  0  0
   21.0391  -50.6962   52.4326 C   0  0  0  0  0  0  0  0  0  0  0  0
   20.7391  -49.3962   52.2326 C   0  0  0  0  0  0  0  0  0  0  0  0
   22.6391  -52.5962   52.4326 N   0  0  0  0  0  0  0  0  0  0  0  0
   23.6391  -52.9962   53.3326 C   0  0  0  0  0  0  0  0  0  0  0  0
   21.2391  -53.0962   52.5326 C   0  0  0  0  0  0  0  0  0  0  0  0
   23.4391  -50.2962   52.7326 C   0  0  0  0  0  0  0  0  0  0  0  0
   23.1391  -48.8962   52.5326 C   0  0  0  0  0  0  0  0  0  0  0  0
   21.8391  -48.4962   52.6326 C   0  0  0  0  0  0  0  0  0  0  0  0
   20.5391  -53.2962   51.5326 O   0  0  0  0  0  0  0  0  0  0  0  0
   24.6391  -53.4962   52.6326 O   0  0  0  0  0  0  0  0  0  0  0  0
   21.2391  -54.2962   53.2326 N   0  0  0  0  0  0  0  0  0  0  0  0
   22.3391  -55.1962   52.9326 C   0  0  0  0  0  0  0  0  0  0  0  0
   19.9391  -54.9962   53.3326 C   0  0  0  0  0  0  0  0  0  0  0  0
   22.0391  -56.5962   53.3326 C   0  0  0  0  0  0  0  0  0  0  0  0
   23.1391  -54.9962   52.0326 O   0  0  0  0  0  0  0  0  0  0  0  0
   24.3391  -53.8962   53.8326 C   0  0  0  0  0  0  0  0  0  0  0  0
  2  1  2  0
  3  2  1  0
  4  1  1  0
  5  4  1  0
  6  4  1  0
  7  1  1  0
  8  7  2  0
  9  3  2  0
  9  8  1  0
 10  6  2  0
 11  5  1  0
 12  6  1  0
 13 12  1  0
 14 12  1  0
 15 13  1  0
 16 13  2  0
 17  5  1  0
 17 11  1  0
M  END
>  <ID>  (1) 
conformer_0

$$$$
