
     RDKit          3D

 17 20  0  0  0  0  0  0  0  0999 V2000
   22.3172  -50.3146   52.3793 C   0  0  0  0  0  0  0  0  0  0  0  0
   22.5172  -51.6146   52.0793 C   0  0  0  0  0  0  0  0  0  0  0  0
   21.0172  -49.8146   52.2793 C   0  0  0  0  0  0  0  0  0  0  0  0
   20.0172  -50.8146   51.8793 C   0  0  0  0  0  0  0  0  0  0  0  0
   20.6172  -48.5146   52.0793 C   0  0  0  0  0  0  0  0  0  0  0  0
   19.3172  -48.5146   51.3793 C   0  0  0  0  0  0  0  0  0  0  0  0
   20.1172  -52.1146   52.4793 C   0  0  0  0  0  0  0  0  0  0  0  0
   21.5172  -52.5146   52.3793 C   0  0  0  0  0  0  0  0  0  0  0  0
   20.4172  -47.4146   52.9793 C   0  0  0  0  0  0  0  0  0  0  0  0
   20.8172  -46.8146   54.0793 N   0  0  0  0  0  0  0  0  0  0  0  0
   18.5172  -47.5146   51.6793 N   0  0  0  0  0  0  0  0  0  0  0  0
   19.2172  -46.7146   52.5793 N   0  0  0  0  0  0  0  0  0  0  0  0
   18.7172  -45.7146   53.4793 C   0  0  0  0  0  0  0  0  0  0  0  0
   21.8172  -53.9146   52.2793 O   0  0  0  0  0  0  0  0  0  0  0  0
   18.9172  -50.0146   51.2793 O   0  0  0  0  0  0  0  0  0  0  0  0
   20.1172  -45.6146   54.2793 C   0  0  0  0  0  0  0  0  0  0  0  0
   20.2172  -44.9146   55.1793 O   0  0  0  0  0  0  0  0  0  0  0  0
  2  1  2  0
  3  1  1  0
  4  3  2  0
  5  3  1  0
  6  5  1  0
  7  4  1  0
  8  2  1  0
  8  7  2  0
  9  5  1  0
 10  9  1  0
 11  6  2  0
 12  9  1  0
 12 11  1  0
 13 12  1  0
 14  8  1  0
 15  4  1  0
 15  6  1  0
 16 10  1  0
 16 13  1  0
 17 16  2  0
M  END
>  <ID>  (1) 
conformer_0

$$$$
