
     RDKit          3D

 19 22  0  0  0  0  0  0  0  0999 V2000
   22.3391  -51.1962   52.5326 C   0  0  0  0  0  0  0  0  0  0  0  0
   21.0391  -50.6962   52.4326 C   0  0  0  0  0  0  0  0  0  0  0  0
   20.7391  -49.3962   52.2326 C   0  0  0  0  0  0  0  0  0  0  0  0
   22.6391  -52.5962   52.4326 N   0  0  0  0  0  0  0  0  0  0  0  0
   23.6391  -52.9962   53.3326 C   0  0  0  0  0  0  0  0  0  0  0  0
   21.3391  -53.0962   52.6326 C   0  0  0  0  0  0  0  0  0  0  0  0
   24.8391  -52.9962   53.1326 O   0  0  0  0  0  0  0  0  0  0  0  0
   23.3391  -50.1962   52.7326 C   0  0  0  0  0  0  0  0  0  0  0  0
   20.4391  -53.2962   51.8326 O   0  0  0  0  0  0  0  0  0  0  0  0
   23.2391  -48.9962   52.1326 C   0  0  0  0  0  0  0  0  0  0  0  0
   21.8391  -48.4962   51.8326 C   0  0  0  0  0  0  0  0  0  0  0  0
   24.5391  -51.9962   53.8326 C   0  0  0  0  0  0  0  0  0  0  0  0
   24.3391  -50.5962   53.5326 O   0  0  0  0  0  0  0  0  0  0  0  0
   21.5391  -54.2962   53.3326 N   0  0  0  0  0  0  0  0  0  0  0  0
   22.6391  -54.9962   53.1326 C   0  0  0  0  0  0  0  0  0  0  0  0
   24.0391  -55.4962   53.0326 C   0  0  0  0  0  0  0  0  0  0  0  0
   23.4391  -54.8962   51.9326 C   0  0  0  0  0  0  0  0  0  0  0  0
   21.6391  -47.2962   51.4326 F   0  0  0  0  0  0  0  0  0  0  0  0
   19.5391  -48.8962   51.9326 O   0  0  0  0  0  0  0  0  0  0  0  0
  2  1  2  0
  3  2  1  0
  4  1  1  0
  5  4  1  0
  6  4  1  0
  7  5  1  0
  8  1  1  0
  9  6  2  0
 10  8  2  0
 11  3  2  0
 11 10  1  0
 12  5  1  0
 12  7  1  0
 13  8  1  0
 13 12  1  0
 14  6  1  0
 15 14  1  0
 16 15  1  0
 17 15  1  0
 17 16  1  0
 18 11  1  0
 19  3  1  0
M  END
>  <ID>  (1) 
conformer_0

$$$$
