
     RDKit          3D

 22 23  0  0  0  0  0  0  0  0999 V2000
   21.3938  -52.4211   52.5440 C   0  0  0  0  0  0  0  0  0  0  0  0
   22.0938  -51.2211   52.2440 C   0  0  0  0  0  0  0  0  0  0  0  0
   21.5938  -50.0211   52.6440 C   0  0  0  0  0  0  0  0  0  0  0  0
   22.1938  -53.5211   52.5440 N   0  0  0  0  0  4  0  0  0  0  0  0
   23.3938  -53.2211   53.0440 C   0  0  0  0  0  0  0  0  0  0  0  0
   21.5938  -54.8211   52.8440 C   0  0  0  0  0  0  0  0  0  0  0  0
   22.3938  -49.1211   53.3440 N   0  0  0  0  0  0  0  0  0  0  0  0
   23.7938  -49.5211   53.0440 C   0  0  0  0  0  0  0  0  0  0  0  0
   23.1938  -53.2211   51.8440 N   0  0  0  0  0  0  0  0  0  0  0  0
   24.7938  -49.1211   53.9440 C   0  0  0  0  0  0  0  0  0  0  0  0
   25.6938  -50.2211   54.2440 C   0  0  0  0  0  3  0  0  0  0  0  0
   26.6938  -50.0211   55.1440 N   0  0  0  0  0  4  0  0  0  0  0  0
   26.1938  -49.1211   56.0440 N   0  0  0  0  0  0  0  0  0  0  0  0
   27.0938  -51.2211   55.8440 C   0  0  0  0  0  0  0  0  0  0  0  0
   25.1938  -51.5211   54.2440 N   0  0  0  0  0  0  0  0  0  0  0  0
   26.9938  -48.7211   55.1440 C   0  0  0  0  0  0  0  0  0  0  0  0
   27.1938  -52.4211   55.3440 C   0  0  0  0  0  0  0  0  0  0  0  0
   19.9938  -52.6211   52.4440 O   0  0  0  0  0  0  0  0  0  0  0  0
   27.5938  -53.5211   56.1440 C   0  0  0  0  0  0  0  0  0  0  0  0
   26.3938  -52.3211   54.2440 N   0  0  0  0  0  0  0  0  0  0  0  0
   19.2938  -51.4211   51.9440 C   0  0  0  0  0  0  0  0  0  0  0  0
   21.5938  -51.8211   51.1440 N   0  0  0  0  0  0  0  0  0  0  0  0
  2  1  1  0
  3  2  1  0
  4  1  1  0
  5  4  1  0
  6  4  1  0
  7  3  1  0
  8  7  1  0
  9  5  2  0
 10  8  1  0
 11 10  1  0
 12 11  1  0
 14 12  1  0
 15 11  1  0
 16 12  1  0
 16 13  2  0
 17 14  2  0
 18  1  1  0
 19 17  1  0
 20 15  2  0
 20 17  1  0
 21 18  1  0
 22  1  1  0
 22  2  1  0
M  END
>  <ID>  (1) 
conformer_0

$$$$
