
     RDKit          3D

 18 21  0  0  0  0  0  0  0  0999 V2000
   22.3391  -51.1962   52.5326 C   0  0  0  0  0  0  0  0  0  0  0  0
   21.0391  -50.6962   52.4326 C   0  0  0  0  0  0  0  0  0  0  0  0
   20.7391  -49.3962   52.2326 C   0  0  0  0  0  0  0  0  0  0  0  0
   22.6391  -52.5962   52.4326 N   0  0  0  0  0  0  0  0  0  0  0  0
   23.6391  -52.9962   53.3326 C   0  0  0  0  0  0  0  0  0  0  0  0
   21.2391  -53.0962   52.6326 C   0  0  0  0  0  0  0  0  0  0  0  0
   23.4391  -50.2962   52.7326 C   0  0  0  0  0  0  0  0  0  0  0  0
   23.0391  -48.8962   52.7326 C   0  0  0  0  0  0  0  0  0  0  0  0
   21.8391  -48.4962   52.0326 C   0  0  0  0  0  0  0  0  0  0  0  0
   20.5391  -53.1962   51.5326 O   0  0  0  0  0  0  0  0  0  0  0  0
   24.8391  -53.1962   52.8326 O   0  0  0  0  0  0  0  0  0  0  0  0
   24.5391  -52.0962   53.6326 C   0  0  0  0  0  0  0  0  0  0  0  0
   21.4391  -54.4962   53.0326 C   0  0  0  0  0  0  0  0  0  0  0  0
   22.7391  -55.1962   53.0326 C   0  0  0  0  0  0  0  0  0  0  0  0
   22.7391  -56.4962   52.8326 N   0  0  0  0  0  0  0  0  0  0  0  0
   22.2391  -54.5962   53.9326 N   0  0  0  0  0  0  0  0  0  0  0  0
   24.3391  -50.6962   53.7326 O   0  0  0  0  0  0  0  0  0  0  0  0
   21.8391  -47.4962   51.1326 F   0  0  0  0  0  0  0  0  0  0  0  0
  2  1  2  0
  3  2  1  0
  4  1  1  0
  5  4  1  0
  6  4  1  0
  7  1  1  0
  8  7  2  0
  9  3  2  0
  9  8  1  0
 10  6  2  0
 11  5  1  0
 12  5  1  0
 12 11  1  0
 13  6  1  0
 14 13  1  0
 15 14  2  0
 16 13  1  0
 16 14  1  0
 17  7  1  0
 17 12  1  0
 18  9  1  0
M  END
>  <ID>  (1) 
conformer_0

$$$$
