
     RDKit          3D

  9  9  0  0  0  0  0  0  0  0999 V2000
   21.5300  -50.9240   52.5661 C   0  0  0  0  0  0  0  0  0  0  0  0
   20.3300  -50.5240   52.1661 C   0  0  0  0  0  0  0  0  0  0  0  0
   20.1300  -49.4240   51.2661 C   0  0  0  0  0  0  0  0  0  0  0  0
   19.3300  -51.6240   51.9661 C   0  0  0  0  0  0  0  0  0  0  0  0
   22.7300  -50.2240   52.0661 C   0  0  0  0  0  0  0  0  0  0  0  0
   22.7300  -49.2240   51.3661 C   0  0  0  0  0  0  0  0  0  0  0  0
   21.3300  -48.6240   51.1661 C   0  0  0  0  0  0  0  0  0  0  0  0
   19.8300  -52.8240   51.5661 O   0  0  0  0  0  0  0  0  0  0  0  0
   19.6300  -52.6240   52.9661 N   0  0  0  0  0  0  0  0  0  0  0  0
  2  1  2  0
  3  2  1  0
  4  2  1  0
  5  1  1  0
  6  5  2  0
  7  3  2  0
  7  6  1  0
  8  4  1  0
  9  4  1  0
M  END
>  <ID>  (1) 
conformer_0

$$$$
