
     RDKit          3D

 13 14  0  0  0  0  0  0  0  0999 V2000
   21.6453  -52.2245   52.5002 C   0  0  0  0  0  0  0  0  0  0  0  0
   21.7453  -50.8245   52.4002 C   0  0  0  0  0  0  0  0  0  0  0  0
   22.8453  -52.9245   52.5002 N   0  0  0  0  0  0  0  0  0  0  0  0
   22.6453  -54.2245   53.1002 C   0  0  0  0  0  0  0  0  0  0  0  0
   23.0453  -50.6245   52.7002 C   0  0  0  0  0  0  0  0  0  0  0  0
   21.2453  -54.4245   53.4002 N   0  0  0  0  0  0  0  0  0  0  0  0
   23.7453  -51.9245   53.0002 N   0  0  0  0  0  0  0  0  0  0  0  0
   20.6453  -53.2245   52.7002 N   0  0  0  0  0  0  0  0  0  0  0  0
   23.4453  -55.3245   52.5002 C   0  0  0  0  0  0  0  0  0  0  0  0
   23.8453  -49.4245   52.9002 C   0  0  0  0  0  0  0  0  0  0  0  0
   23.7453  -48.7245   51.8002 F   0  0  0  0  0  0  0  0  0  0  0  0
   23.6453  -48.7245   53.8002 F   0  0  0  0  0  0  0  0  0  0  0  0
   25.2453  -49.6245   53.1002 F   0  0  0  0  0  0  0  0  0  0  0  0
  2  1  2  0
  3  1  1  0
  4  3  1  0
  5  2  1  0
  6  4  1  0
  7  3  1  0
  7  5  2  0
  8  1  1  0
  8  6  2  0
  9  4  1  0
 10  5  1  0
 11 10  1  0
 12 10  1  0
 13 10  1  0
M  END
>  <ID>  (1) 
conformer_0

$$$$
