
     RDKit          3D

  9  9  0  0  0  0  0  0  0  0999 V2000
   23.1512  -52.7000   52.9409 C   0  0  0  0  0  0  0  0  0  0  0  0
   21.8512  -52.9000   52.5409 C   0  0  0  0  0  0  0  0  0  0  0  0
   21.1512  -51.7000   52.3409 C   0  0  0  0  0  0  0  0  0  0  0  0
   21.9512  -50.6000   52.3409 C   0  0  0  0  0  0  0  0  0  0  0  0
   23.2512  -50.4000   52.5409 C   0  0  0  0  0  0  0  0  0  0  0  0
   23.8512  -51.6000   53.2409 C   0  0  0  0  0  0  0  0  0  0  0  0
   19.7512  -51.6000   52.2409 N   0  0  0  0  0  0  0  0  0  0  0  0
   19.0512  -50.5000   51.6409 C   0  0  0  0  0  0  0  0  0  0  0  0
   18.9512  -49.5000   50.9409 O   0  0  0  0  0  0  0  0  0  0  0  0
  2  1  2  0
  3  2  1  0
  4  3  2  0
  5  4  1  0
  6  1  1  0
  6  5  2  0
  7  3  1  0
  8  7  1  0
  9  8  2  0
M  END
>  <ID>  (1) 
conformer_0

$$$$
