
     RDKit          3D

 20 23  0  0  0  0  0  0  0  0999 V2000
   21.3938  -52.4211   52.5440 C   0  0  0  0  0  0  0  0  0  0  0  0
   22.0938  -51.2211   52.2440 C   0  0  0  0  0  0  0  0  0  0  0  0
   21.5938  -50.0211   52.6440 C   0  0  0  0  0  0  0  0  0  0  0  0
   22.1938  -53.5211   52.5440 N   0  0  0  0  0  0  0  0  0  0  0  0
   23.3938  -53.2211   53.0440 C   0  0  0  0  0  0  0  0  0  0  0  0
   23.1938  -53.2211   51.9440 N   0  0  0  0  0  0  0  0  0  0  0  0
   22.4938  -49.1211   53.1440 C   0  0  0  0  0  0  0  0  0  0  0  0
   23.7938  -49.6211   53.0440 C   0  0  0  0  0  0  0  0  0  0  0  0
   24.8938  -48.9211   53.4440 N   0  0  0  0  0  0  0  0  0  0  0  0
   23.3938  -48.9211   52.0440 N   0  0  0  0  0  0  0  0  0  0  0  0
   25.8938  -49.3211   54.2440 N   0  0  0  0  0  4  0  0  0  0  0  0
   25.7938  -50.7211   54.2440 C   0  0  0  0  0  0  0  0  0  0  0  0
   27.1938  -48.6211   54.1440 C   0  0  0  0  0  3  0  0  0  0  0  0
   26.6938  -47.4211   54.0440 C   0  0  0  0  0  0  0  0  0  0  0  0
   25.5938  -47.0211   54.8440 C   0  0  0  0  0  0  0  0  0  0  0  0
   26.5938  -51.6211   53.8440 O   0  0  0  0  0  0  0  0  0  0  0  0
   24.8938  -48.5211   54.8440 C   0  0  0  0  0  0  0  0  0  0  0  0
   20.1938  -52.5211   52.1440 O   0  0  0  0  0  0  0  0  0  0  0  0
   21.7938  -50.4211   51.3440 N   0  0  0  0  0  0  0  0  0  0  0  0
   27.0938  -51.1211   54.8440 C   0  0  0  0  0  0  0  0  0  0  0  0
  2  1  1  0
  3  2  1  0
  4  1  1  0
  5  4  1  0
  6  5  2  0
  7  3  1  0
  8  7  1  0
  9  8  1  0
 10  7  1  0
 10  8  1  0
 12 11  1  0
 13 11  1  0
 14 13  1  0
 15 14  2  0
 16 12  1  0
 17  9  1  0
 17 11  1  0
 17 15  1  0
 18  1  2  0
 19  2  1  0
 19  3  1  0
 20 12  1  0
 20 16  1  0
M  END
>  <ID>  (1) 
conformer_0

$$$$
