
     RDKit          3D

 12 12  0  0  0  0  0  0  0  0999 V2000
   23.9688    9.9112   30.0498 C   0  0  0  0  0  0  0  0  0  0  0  0
   23.6688   10.7112   31.1498 C   0  0  0  0  0  0  0  0  0  0  0  0
   24.3688   10.5112   32.2498 C   0  0  0  0  0  0  0  0  0  0  0  0
   24.6688    9.1112   32.4498 C   0  0  0  0  0  0  0  0  0  0  0  0
   24.3688    8.0112   31.5498 C   0  0  0  0  0  0  0  0  0  0  0  0
   23.9688    8.5112   30.3498 C   0  0  0  0  0  0  0  0  0  0  0  0
   23.3688   10.4112   28.8498 N   0  0  0  0  0  0  0  0  0  0  0  0
   22.8688    9.6112   27.7498 C   0  0  0  0  0  0  0  0  0  0  0  0
   22.7688    9.6112   26.3498 C   0  0  0  0  0  0  0  0  0  0  0  0
   22.2688    8.5112   25.5498 C   0  0  0  0  0  0  0  0  0  0  0  0
   21.9688    7.4112   26.2498 O   0  0  0  0  0  0  0  0  0  0  0  0
   21.5688    8.9112   24.6498 O   0  0  0  0  0  0  0  0  0  0  0  0
  2  1  2  0
  3  2  1  0
  4  3  2  0
  5  4  1  0
  6  1  1  0
  6  5  2  0
  7  1  1  0
  8  7  1  0
  9  8  2  3
 10  9  1  0
 11 10  2  0
 12 10  1  0
M  END
>  <ID>  (1) 
conformer_0

$$$$
