
     RDKit          3D

 10  9  0  0  0  0  0  0  0  0999 V2000
   22.9033    8.6796   27.1043 C   0  0  0  0  0  0  0  0  0  0  0  0
   22.4033    9.4796   26.0043 C   0  0  0  0  0  0  0  0  0  0  0  0
   22.9033    9.3796   28.4043 C   0  0  0  0  0  0  0  0  0  0  0  0
   23.1033   10.6796   25.7043 O   0  0  0  0  0  0  0  0  0  0  0  0
   21.2033    9.6796   26.0043 O   0  0  0  0  0  0  0  0  0  0  0  0
   22.6033    8.5796   29.6043 C   0  0  0  0  0  0  0  0  0  0  0  0
   24.1033    7.9796   26.7043 N   0  0  0  0  0  0  0  0  0  0  0  0
   24.2033    6.5796   26.7043 C   0  0  0  0  0  0  0  0  0  0  0  0
   23.6033    5.9796   27.7043 O   0  0  0  0  0  0  0  0  0  0  0  0
   25.5033    6.0796   26.5043 C   0  0  0  0  0  0  0  0  0  0  0  0
  2  1  1  0
  3  1  1  0
  4  2  1  0
  5  2  1  0
  6  3  1  0
  7  1  1  0
  8  7  1  0
  9  8  1  0
 10  8  1  0
M  END
>  <ID>  (1) 
conformer_0

$$$$
