
     RDKit          3D

 11 10  0  0  0  0  0  0  0  0999 V2000
   23.1511   11.1228   25.5252 O   0  0  0  0  0  0  0  0  0  0  0  0
   22.8511   10.1228   24.9252 C   0  0  0  0  0  0  0  0  0  0  0  0
   22.0511   10.0228   23.9252 O   0  0  0  0  0  0  0  0  0  0  0  0
   22.9511    8.9228   25.6252 C   0  0  0  0  0  0  0  0  0  0  0  0
   22.6511    9.1228   27.0252 C   0  0  0  0  0  0  0  0  0  0  0  0
   22.8511    8.7228   28.3252 C   0  0  0  0  0  0  0  0  0  0  0  0
   23.3511    9.3228   29.5252 C   0  0  0  0  0  0  0  0  0  0  0  0
   23.6511   10.5228   30.0252 C   0  0  0  0  0  0  0  0  0  0  0  0
   23.8511   10.9228   31.4252 C   0  0  0  0  0  0  0  0  0  0  0  0
   24.3511   10.2228   32.6252 C   0  0  0  0  0  0  0  0  0  0  0  0
   23.2511    7.5228   25.3252 C   0  0  0  0  0  0  0  0  0  0  0  0
  2  1  2  0
  3  2  1  0
  4  2  1  0
  5  4  1  0
  6  5  1  0
  7  6  1  0
  8  7  2  3
  9  8  1  0
 10  9  1  0
 11  4  1  0
M  END
>  <ID>  (1) 
conformer_0

$$$$
