
     RDKit          3D

 12 12  0  0  0  0  0  0  0  0999 V2000
   23.6335   10.9092   30.8884 C   0  0  0  0  0  0  0  0  0  0  0  0
   23.5335   10.2092   29.5884 C   0  0  0  0  0  0  0  0  0  0  0  0
   24.1335   10.1092   31.8884 C   0  0  0  0  0  0  0  0  0  0  0  0
   24.2335    8.8092   31.5884 C   0  0  0  0  0  0  0  0  0  0  0  0
   23.0335    8.9092   29.4884 C   0  0  0  0  0  0  0  0  0  0  0  0
   23.6335    8.1092   30.4884 C   0  0  0  0  0  0  0  0  0  0  0  0
   23.2335    8.4092   28.0884 C   0  0  0  0  0  0  0  0  0  0  0  0
   22.6335    9.2092   26.9884 C   0  0  0  0  0  0  0  0  0  0  0  0
   22.2335    8.5092   25.7884 C   0  0  0  0  0  0  0  0  0  0  0  0
   22.2335    7.1092   25.7884 O   0  0  0  0  0  0  0  0  0  0  0  0
   22.1335    9.1092   24.7884 O   0  0  0  0  0  0  0  0  0  0  0  0
   24.7335    7.9092   32.5884 O   0  0  0  0  0  0  0  0  0  0  0  0
  2  1  2  0
  3  1  1  0
  4  3  2  0
  5  2  1  0
  6  4  1  0
  6  5  2  0
  7  5  1  0
  8  7  1  0
  9  8  1  0
 10  9  2  0
 11  9  1  0
 12  4  1  0
M  END
>  <ID>  (1) 
conformer_0

$$$$
