
     RDKit          3D

 14 14  0  0  0  0  0  0  0  0999 V2000
   23.1511   11.1228   25.5252 O   0  0  0  0  0  0  0  0  0  0  0  0
   22.9511    9.8228   25.3252 C   0  0  0  0  0  0  0  0  0  0  0  0
   22.9511    9.0228   26.5252 C   0  0  0  0  0  0  0  0  0  0  0  0
   22.0511    9.5228   24.5252 O   0  0  0  0  0  0  0  0  0  0  0  0
   23.3511    7.8228   26.6252 C   0  0  0  0  0  0  0  0  0  0  0  0
   22.9511    9.7228   27.8252 C   0  0  0  0  0  0  0  0  0  0  0  0
   22.9511    9.0228   28.9252 C   0  0  0  0  0  0  0  0  0  0  0  0
   23.4511    9.4228   30.1252 C   0  0  0  0  0  0  0  0  0  0  0  0
   23.3511   10.8228   30.5252 C   0  0  0  0  0  0  0  0  0  0  0  0
   24.0511    8.6228   31.1252 C   0  0  0  0  0  0  0  0  0  0  0  0
   23.9511   11.0228   31.8252 C   0  0  0  0  0  0  0  0  0  0  0  0
   25.2511   10.5228   31.9252 N   0  0  0  0  0  0  0  0  0  0  0  0
   25.1511    9.1228   32.0252 C   0  0  0  0  0  0  0  0  0  0  0  0
   22.6511    6.8228   25.9252 N   0  0  0  0  0  0  0  0  0  0  0  0
  2  1  1  0
  3  2  1  0
  4  2  1  0
  5  3  1  0
  6  3  1  0
  7  6  1  0
  8  7  1  0
  9  8  2  0
 10  8  1  0
 11  9  1  0
 12 11  2  0
 13 10  2  0
 13 12  1  0
 14  5  1  0
M  END
>  <ID>  (1) 
conformer_0

$$$$
