
     RDKit          3D

 15 15  0  0  0  0  0  0  0  0999 V2000
   23.8168   10.3537   29.9840 C   0  0  0  0  0  0  0  0  0  0  0  0
   23.8168   10.5537   31.2840 C   0  0  0  0  0  0  0  0  0  0  0  0
   24.3168    9.7537   32.2840 C   0  0  0  0  0  0  0  0  0  0  0  0
   24.3168    8.3537   31.8840 C   0  0  0  0  0  0  0  0  0  0  0  0
   24.2168    9.0537   29.5840 C   0  0  0  0  0  0  0  0  0  0  0  0
   24.0168    8.0537   30.5840 C   0  0  0  0  0  0  0  0  0  0  0  0
   23.9168    8.6537   28.2840 N   0  0  0  0  0  0  0  0  0  0  0  0
   22.8168    9.1537   27.4840 C   0  0  0  0  0  0  0  0  0  0  0  0
   22.8168    8.3537   26.2840 C   0  0  0  0  0  0  0  0  0  0  0  0
   22.1168    9.0537   25.1840 C   0  0  0  0  0  0  0  0  0  0  0  0
   22.8168   10.0537   24.7840 O   0  0  0  0  0  0  0  0  0  0  0  0
   21.0168    9.4537   25.7840 O   0  0  0  0  0  0  0  0  0  0  0  0
   23.4168    7.0537   26.2840 C   0  0  0  0  0  0  0  0  0  0  0  0
   24.4168    6.7537   26.9840 O   0  0  0  0  0  0  0  0  0  0  0  0
   22.4168    5.9537   26.2840 C   0  0  0  0  0  0  0  0  0  0  0  0
  2  1  2  0
  3  2  1  0
  4  3  2  0
  5  1  1  0
  6  4  1  0
  6  5  2  0
  7  5  1  0
  8  7  1  0
  9  8  1  0
 10  9  1  0
 11 10  1  0
 12 10  1  0
 13  9  1  0
 14 13  2  0
 15 13  1  0
M  END
>  <ID>  (1) 
conformer_0

$$$$
