
     RDKit          3D

 13 13  0  0  0  0  0  0  0  0999 V2000
   23.6335   10.9092   30.8884 C   0  0  0  0  0  0  0  0  0  0  0  0
   23.5335   10.2092   29.5884 C   0  0  0  0  0  0  0  0  0  0  0  0
   24.1335   10.1092   31.8884 C   0  0  0  0  0  0  0  0  0  0  0  0
   24.2335    8.8092   31.5884 C   0  0  0  0  0  0  0  0  0  0  0  0
   23.0335    9.0092   29.4884 C   0  0  0  0  0  0  0  0  0  0  0  0
   23.8335    8.1092   30.3884 C   0  0  0  0  0  0  0  0  0  0  0  0
   22.9335    8.6092   28.0884 C   0  0  0  0  0  0  0  0  0  0  0  0
   22.7335    9.8092   27.2884 C   0  0  0  0  0  0  0  0  0  0  0  0
   22.1335    9.4092   25.9884 C   0  0  0  0  0  0  0  0  0  0  0  0
   23.1335    9.2092   25.0884 O   0  0  0  0  0  0  0  0  0  0  0  0
   21.3335    8.4092   26.2884 O   0  0  0  0  0  0  0  0  0  0  0  0
   24.7335    7.9092   32.5884 O   0  0  0  0  0  0  0  0  0  0  0  0
   24.5335    7.0092   29.9884 O   0  0  0  0  0  0  0  0  0  0  0  0
  2  1  2  0
  3  1  1  0
  4  3  2  0
  5  2  1  0
  6  4  1  0
  6  5  2  0
  7  5  1  0
  8  7  1  0
  9  8  1  0
 10  9  1  0
 11  9  1  0
 12  4  1  0
 13  6  1  0
M  END
>  <ID>  (1) 
conformer_0

$$$$
