
     RDKit          3D

 11 11  0  0  0  0  0  0  0  0999 V2000
   22.8051   10.0955   25.1836 C   0  0  0  0  0  0  0  0  0  0  0  0
   23.5051   11.0955   25.4836 O   0  0  0  0  0  0  0  0  0  0  0  0
   22.5051    8.8955   25.9836 C   0  0  0  0  0  0  0  0  0  0  0  0
   22.1051   10.1955   23.9836 N   0  0  0  0  0  0  0  0  0  0  0  0
   22.9051    9.0955   27.3836 C   0  0  0  0  0  0  0  0  0  0  0  0
   22.6051   10.2955   28.1836 C   0  0  0  0  0  0  0  0  0  0  0  0
   23.8051    8.0955   27.9836 C   0  0  0  0  0  0  0  0  0  0  0  0
   24.4051    7.1955   26.9836 C   0  0  0  0  0  0  0  0  0  0  0  0
   24.2051    8.5955   29.2836 C   0  0  0  0  0  0  0  0  0  0  0  0
   23.4051    9.1955   30.1836 C   0  0  0  0  0  0  0  0  0  0  0  0
   24.3051    9.9955   29.4836 N   0  0  0  0  0  0  0  0  0  0  0  0
  2  1  2  0
  3  1  1  0
  4  1  1  0
  5  3  1  0
  6  5  1  0
  7  5  2  3
  8  7  1  0
  9  7  1  0
 10  9  1  0
 11  9  1  0
 11 10  1  0
M  END
>  <ID>  (1) 
conformer_0

$$$$
