
     RDKit          3D

 12 12  0  0  0  0  0  0  0  0999 V2000
   23.6335   10.9092   30.8884 C   0  0  0  0  0  0  0  0  0  0  0  0
   23.5335   10.2092   29.5884 C   0  0  0  0  0  0  0  0  0  0  0  0
   24.1335   10.1092   31.8884 C   0  0  0  0  0  0  0  0  0  0  0  0
   24.2335    8.8092   31.5884 C   0  0  0  0  0  0  0  0  0  0  0  0
   23.2335    8.9092   29.4884 C   0  0  0  0  0  0  0  0  0  0  0  0
   23.7335    8.1092   30.4884 C   0  0  0  0  0  0  0  0  0  0  0  0
   22.8335    8.4092   28.1884 C   0  0  0  0  0  0  0  0  0  0  0  0
   22.8335    9.4092   27.0884 C   0  0  0  0  0  0  0  0  0  0  0  0
   22.2335    9.1092   25.8884 C   0  0  0  0  0  0  0  0  0  0  0  0
   22.1335    7.7092   25.5884 O   0  0  0  0  0  0  0  0  0  0  0  0
   21.8335    9.7092   24.7884 O   0  0  0  0  0  0  0  0  0  0  0  0
   24.6335    7.9092   32.6884 O   0  0  0  0  0  0  0  0  0  0  0  0
  2  1  2  0
  3  1  1  0
  4  3  2  0
  5  2  1  0
  6  4  1  0
  6  5  2  0
  7  5  1  0
  8  7  2  3
  9  8  1  0
 10  9  2  0
 11  9  1  0
 12  4  1  0
M  END
>  <ID>  (1) 
conformer_0

$$$$
