
     RDKit          3D

  9  8  0  0  0  0  0  0  0  0999 V2000
   22.7421    9.8379   25.5526 C   0  0  0  0  0  0  0  0  0  0  0  0
   23.4421   10.9379   25.4526 O   0  0  0  0  0  0  0  0  0  0  0  0
   22.5421    9.2379   26.8526 C   0  0  0  0  0  0  0  0  0  0  0  0
   23.7421    8.9379   27.4526 O   0  0  0  0  0  0  0  0  0  0  0  0
   23.6421    8.5379   28.8526 C   0  0  0  0  0  0  0  0  0  0  0  0
   23.0421    9.4379   29.7526 C   0  0  0  0  0  0  0  0  0  0  0  0
   23.6421   10.5379   30.2526 C   0  0  0  0  0  0  0  0  0  0  0  0
   23.9421   10.9379   31.5526 C   0  0  0  0  0  0  0  0  0  0  0  0
   21.7421    9.4379   24.5526 C   0  0  0  0  0  0  0  0  0  0  0  0
  2  1  1  0
  3  1  1  0
  4  3  1  0
  5  4  1  0
  6  5  1  0
  7  6  1  0
  8  7  1  0
  9  1  1  0
M  END
>  <ID>  (1) 
conformer_0

$$$$
