
     RDKit          3D

 11 10  0  0  0  0  0  0  0  0999 V2000
   21.9734    8.0600   25.9526 C   0  0  0  0  0  0  0  0  0  0  0  0
   21.2734    7.7600   26.9526 O   0  0  0  0  0  0  0  0  0  0  0  0
   22.2734    9.3600   25.4526 C   0  0  0  0  0  0  0  0  0  0  0  0
   22.4734    7.0600   25.3526 O   0  0  0  0  0  0  0  0  0  0  0  0
   22.3734   10.4600   26.3526 C   0  0  0  0  0  0  0  0  0  0  0  0
   22.7734   10.3600   27.7526 C   0  0  0  0  0  0  0  0  0  0  0  0
   23.0734    9.9600   29.0526 C   0  0  0  0  0  0  0  0  0  0  0  0
   23.5734   10.6600   30.1526 C   0  0  0  0  0  0  0  0  0  0  0  0
   23.8734   10.3600   31.4526 C   0  0  0  0  0  0  0  0  0  0  0  0
   24.0734   11.4600   32.3526 C   0  0  0  0  0  0  0  0  0  0  0  0
   24.3734   11.5600   33.6526 C   0  0  0  0  0  0  0  0  0  0  0  0
  2  1  2  0
  3  1  1  0
  4  1  1  0
  5  3  1  0
  6  5  2  0
  7  6  2  0
  8  7  1  0
  9  8  2  3
 10  9  1  0
 11 10  2  0
M  END
>  <ID>  (1) 
conformer_0

$$$$
