
     RDKit          3D

 10  9  0  0  0  0  0  0  0  0999 V2000
   21.9734    8.0600   25.9526 C   0  0  0  0  0  0  0  0  0  0  0  0
   21.2734    7.7600   26.9526 O   0  0  0  0  0  0  0  0  0  0  0  0
   22.2734    9.3600   25.4526 C   0  0  0  0  0  0  0  0  0  0  0  0
   22.4734    7.0600   25.3526 O   0  0  0  0  0  0  0  0  0  0  0  0
   22.3734   10.4600   26.3526 C   0  0  0  0  0  0  0  0  0  0  0  0
   22.7734   10.3600   27.7526 C   0  0  0  0  0  0  0  0  0  0  0  0
   22.8734   10.0600   29.0526 C   0  0  0  0  0  0  0  0  0  0  0  0
   23.5734   10.4600   30.2526 C   0  0  0  0  0  0  0  0  0  0  0  0
   23.8734    9.3600   31.1526 C   0  0  0  0  0  0  0  0  0  0  0  0
   24.2734    9.6600   32.5526 C   0  0  0  0  0  0  0  0  0  0  0  0
  2  1  2  0
  3  1  1  0
  4  1  1  0
  5  3  1  0
  6  5  2  0
  7  6  2  0
  8  7  1  0
  9  8  1  0
 10  9  1  0
M  END
>  <ID>  (1) 
conformer_0

$$$$
