
     RDKit          3D

  8  7  0  0  0  0  0  0  0  0999 V2000
   23.4699   11.2267   25.5274 O   0  0  0  0  0  0  0  0  0  0  0  0
   22.8699   10.0267   25.5274 C   0  0  0  0  0  0  0  0  0  0  0  0
   22.8699    9.2267   26.7274 C   0  0  0  0  0  0  0  0  0  0  0  0
   22.5699   10.1267   27.8274 C   0  0  0  0  0  0  0  0  0  0  0  0
   22.4699    9.8267   29.2274 C   0  0  0  0  0  0  0  0  0  0  0  0
   23.3699   10.2267   30.3274 C   0  0  0  0  0  0  0  0  0  0  0  0
   22.0699    9.8267   24.4274 N   0  0  0  0  0  0  0  0  0  0  0  0
   23.5699   11.1267   31.2274 C   0  0  0  0  0  0  0  0  0  0  0  0
  2  1  2  0
  3  2  1  0
  4  3  1  0
  5  4  1  0
  6  5  1  0
  7  2  1  0
  8  6  2  0
M  END
>  <ID>  (1) 
conformer_0

$$$$
