
     RDKit          3D

 10  9  0  0  0  0  0  0  0  0999 V2000
   22.7421    9.8379   25.5526 C   0  0  0  0  0  0  0  0  0  0  0  0
   23.4421   10.9379   25.4526 O   0  0  0  0  0  0  0  0  0  0  0  0
   22.8421    8.7379   26.5526 C   0  0  0  0  0  0  0  0  0  0  0  0
   23.6421    9.1379   27.6526 O   0  0  0  0  0  0  0  0  0  0  0  0
   21.9421    9.6379   24.3526 C   0  0  0  0  0  0  0  0  0  0  0  0
   22.2421    7.5379   25.9526 C   0  0  0  0  0  0  0  0  0  0  0  0
   22.9421    6.2379   25.9526 C   0  0  0  0  0  0  0  0  0  0  0  0
   22.0421    5.2379   26.0526 O   0  0  0  0  0  0  0  0  0  0  0  0
   24.2421    6.2379   26.4526 O   0  0  0  0  0  0  0  0  0  0  0  0
   21.1421    7.4379   26.9526 O   0  0  0  0  0  0  0  0  0  0  0  0
  2  1  1  0
  3  1  1  0
  4  3  1  0
  5  1  1  0
  6  3  1  0
  7  6  1  0
  8  7  2  0
  9  7  1  0
 10  6  1  0
M  END
>  <ID>  (1) 
conformer_0

$$$$
