
     RDKit          3D

 10  9  0  0  0  0  0  0  0  0999 V2000
   23.5579   11.0084   25.2793 O   0  0  0  0  0  0  0  0  0  0  0  0
   22.8579    9.8084   25.4793 C   0  0  0  0  0  0  0  0  0  0  0  0
   22.7579    9.3084   26.8793 C   0  0  0  0  0  0  0  0  0  0  0  0
   22.6579   10.3084   27.9793 C   0  0  0  0  0  0  0  0  0  0  0  0
   22.8579    9.8084   29.2793 C   0  0  0  0  0  0  0  0  0  0  0  0
   23.5579   10.5084   30.3793 C   0  0  0  0  0  0  0  0  0  0  0  0
   21.9579    9.5084   24.6793 N   0  0  0  0  0  0  0  0  0  0  0  0
   24.1579    9.7084   31.4793 C   0  0  0  0  0  0  0  0  0  0  0  0
   24.4579   10.5084   32.6793 C   0  0  0  0  0  0  0  0  0  0  0  0
   24.0579   11.9084   32.6793 C   0  0  0  0  0  0  0  0  0  0  0  0
  2  1  2  0
  3  2  1  0
  4  3  2  3
  5  4  1  0
  6  5  1  0
  7  2  1  0
  8  6  1  0
  9  8  1  0
 10  9  1  0
M  END
>  <ID>  (1) 
conformer_0

$$$$
