
     RDKit          3D

 14 13  0  0  0  0  0  0  0  0999 V2000
   23.4699   11.2267   25.5274 O   0  0  0  0  0  0  0  0  0  0  0  0
   22.8699   10.0267   25.6274 C   0  0  0  0  0  0  0  0  0  0  0  0
   22.7699    9.1267   26.6274 C   0  0  0  0  0  0  0  0  0  0  0  0
   22.0699    9.8267   24.4274 N   0  0  0  0  0  0  0  0  0  0  0  0
   22.1699    7.9267   26.0274 C   0  0  0  0  0  0  0  0  0  0  0  0
   22.8699    9.2267   28.0274 C   0  0  0  0  0  0  0  0  0  0  0  0
   22.8699    9.8267   29.2274 C   0  0  0  0  0  0  0  0  0  0  0  0
   23.6699   10.4267   30.1274 C   0  0  0  0  0  0  0  0  0  0  0  0
   23.8699   10.7267   31.5274 C   0  0  0  0  0  0  0  0  0  0  0  0
   24.4699    9.6267   32.3274 C   0  0  0  0  0  0  0  0  0  0  0  0
   21.1699    7.4267   26.9274 O   0  0  0  0  0  0  0  0  0  0  0  0
   22.2699   10.6267   23.3274 C   0  0  0  0  0  0  0  0  0  0  0  0
   21.1699   10.2267   22.4274 C   0  0  0  0  0  0  0  0  0  0  0  0
   22.6699   12.0267   23.2274 C   0  0  0  0  0  0  0  0  0  0  0  0
  2  1  2  0
  3  2  1  0
  4  2  1  0
  5  3  1  0
  6  3  2  0
  7  6  2  0
  8  7  1  0
  9  8  1  0
 10  9  1  0
 11  5  1  0
 12  4  1  0
 13 12  1  0
 14 12  1  0
M  END
>  <ID>  (1) 
conformer_0

$$$$
