
     RDKit          3D

 10  9  0  0  0  0  0  0  0  0999 V2000
   23.4699   11.2267   25.5274 O   0  0  0  0  0  0  0  0  0  0  0  0
   22.8699   10.0267   25.6274 C   0  0  0  0  0  0  0  0  0  0  0  0
   22.8699    9.1267   26.8274 C   0  0  0  0  0  0  0  0  0  0  0  0
   22.6699    9.9267   28.0274 C   0  0  0  0  0  0  0  0  0  0  0  0
   22.8699    9.6267   29.4274 C   0  0  0  0  0  0  0  0  0  0  0  0
   23.6699   10.4267   30.3274 C   0  0  0  0  0  0  0  0  0  0  0  0
   21.9699    9.8267   24.7274 N   0  0  0  0  0  0  0  0  0  0  0  0
   23.9699   10.0267   31.6274 C   0  0  0  0  0  0  0  0  0  0  0  0
   24.3699   10.8267   32.7274 C   0  0  0  0  0  0  0  0  0  0  0  0
   24.2699   12.1267   33.0274 C   0  0  0  0  0  0  0  0  0  0  0  0
  2  1  2  0
  3  2  1  0
  4  3  1  0
  5  4  1  0
  6  5  2  3
  7  2  1  0
  8  6  1  0
  9  8  1  0
 10  9  2  0
M  END
>  <ID>  (1) 
conformer_0

$$$$
