
     RDKit          3D

 10  9  0  0  0  0  0  0  0  0999 V2000
   23.4699   11.2267   25.5274 O   0  0  0  0  0  0  0  0  0  0  0  0
   22.8699   10.0267   25.5274 C   0  0  0  0  0  0  0  0  0  0  0  0
   22.4699    9.4267   26.8274 C   0  0  0  0  0  0  0  0  0  0  0  0
   22.7699   10.3267   27.9274 C   0  0  0  0  0  0  0  0  0  0  0  0
   22.7699    9.8267   29.3274 C   0  0  0  0  0  0  0  0  0  0  0  0
   23.6699   10.5267   30.2274 C   0  0  0  0  0  0  0  0  0  0  0  0
   22.0699    9.9267   24.4274 N   0  0  0  0  0  0  0  0  0  0  0  0
   23.9699   10.3267   31.6274 C   0  0  0  0  0  0  0  0  0  0  0  0
   24.1699   11.5267   32.4274 C   0  0  0  0  0  0  0  0  0  0  0  0
   24.4699   11.3267   33.8274 C   0  0  0  0  0  0  0  0  0  0  0  0
  2  1  2  0
  3  2  1  0
  4  3  1  0
  5  4  1  0
  6  5  1  0
  7  2  1  0
  8  6  1  0
  9  8  2  3
 10  9  1  0
M  END
>  <ID>  (1) 
conformer_0

$$$$
