
     RDKit          3D

 10  9  0  0  0  0  0  0  0  0999 V2000
   23.4699   11.2267   25.5274 O   0  0  0  0  0  0  0  0  0  0  0  0
   22.8699   10.0267   25.6274 C   0  0  0  0  0  0  0  0  0  0  0  0
   22.7699    9.1267   26.6274 C   0  0  0  0  0  0  0  0  0  0  0  0
   22.0699    9.8267   24.4274 N   0  0  0  0  0  0  0  0  0  0  0  0
   22.1699    7.9267   26.0274 C   0  0  0  0  0  0  0  0  0  0  0  0
   22.8699    9.2267   28.0274 C   0  0  0  0  0  0  0  0  0  0  0  0
   22.9699    9.9267   29.1274 C   0  0  0  0  0  0  0  0  0  0  0  0
   23.7699   10.0267   30.3274 C   0  0  0  0  0  0  0  0  0  0  0  0
   23.5699   11.0267   31.3274 C   0  0  0  0  0  0  0  0  0  0  0  0
   22.2699   10.7267   23.3274 C   0  0  0  0  0  0  0  0  0  0  0  0
  2  1  2  0
  3  2  1  0
  4  2  1  0
  5  3  1  0
  6  3  1  0
  7  6  1  0
  8  7  2  3
  9  8  1  0
 10  4  1  0
M  END
>  <ID>  (1) 
conformer_0

$$$$
