
     RDKit          3D

  7  8  0  0  0  0  0  0  0  0999 V2000
   23.9688    9.9112   30.0498 C   0  0  0  0  0  0  0  0  0  0  0  0
   23.6688   10.7112   31.1498 C   0  0  0  0  0  0  0  0  0  0  0  0
   24.3688   10.5112   32.2498 C   0  0  0  0  0  0  0  0  0  0  0  0
   24.6688    9.1112   32.4498 C   0  0  0  0  0  0  0  0  0  0  0  0
   24.3688    8.0112   31.5498 C   0  0  0  0  0  0  0  0  0  0  0  0
   24.1688    8.5112   30.1498 C   0  0  0  0  0  0  0  0  0  0  0  0
   25.2688    9.5112   30.1498 O   0  0  0  0  0  0  0  0  0  0  0  0
  2  1  2  0
  3  2  1  0
  4  3  2  0
  5  4  1  0
  6  1  1  0
  6  5  2  0
  7  1  1  0
  7  6  1  0
M  END
>  <ID>  (1) 
conformer_0

$$$$
