
     RDKit          3D

  4  3  0  0  0  0  0  0  0  0999 V2000
   23.3110   10.8324   25.3195 O   0  0  0  0  0  0  0  0  0  0  0  0
   22.8110    9.8324   25.5195 C   0  0  0  0  0  0  0  0  0  0  0  0
   21.5110    9.4324   25.7195 O   0  0  0  0  0  0  0  0  0  0  0  0
   23.3110    8.7324   25.2195 O   0  0  0  0  0  0  0  0  0  0  0  0
  2  1  1  0
  3  2  2  0
  4  2  1  0
M  END
>  <ID>  (1) 
conformer_0

$$$$
