
     RDKit          3D

  9  9  0  0  0  0  0  0  0  0999 V2000
   22.7421    9.8379   25.5526 C   0  0  0  0  0  0  0  0  0  0  0  0
   23.4421   10.9379   25.4526 O   0  0  0  0  0  0  0  0  0  0  0  0
   22.5421    9.2379   26.8526 C   0  0  0  0  0  0  0  0  0  0  0  0
   23.7421    8.7379   27.4526 O   0  0  0  0  0  0  0  0  0  0  0  0
   23.9421    8.4379   28.8526 C   0  0  0  0  0  0  0  0  0  0  0  0
   23.3421    9.2379   29.9526 C   0  0  0  0  0  0  0  0  0  0  0  0
   25.3421    8.0379   29.1526 C   0  0  0  0  0  0  0  0  0  0  0  0
   21.8421    9.4379   24.4526 C   0  0  0  0  0  0  0  0  0  0  0  0
   22.6421    8.1379   29.2526 C   0  0  0  0  0  0  0  0  0  0  0  0
  2  1  1  0
  3  1  1  0
  4  3  1  0
  5  4  1  0
  6  5  1  0
  7  5  1  0
  8  1  1  0
  9  5  1  0
  9  6  1  0
M  END
>  <ID>  (1) 
conformer_0

$$$$
