
     RDKit          3D

 14 15  0  0  0  0  0  0  0  0999 V2000
   23.1511   11.1228   25.5252 O   0  0  0  0  0  0  0  0  0  0  0  0
   22.9511    9.8228   25.3252 C   0  0  0  0  0  0  0  0  0  0  0  0
   22.9511    9.0228   26.5252 C   0  0  0  0  0  0  0  0  0  0  0  0
   22.0511    9.5228   24.5252 O   0  0  0  0  0  0  0  0  0  0  0  0
   23.3511    7.8228   26.6252 C   0  0  0  0  0  0  0  0  0  0  0  0
   22.9511    9.7228   27.8252 C   0  0  0  0  0  0  0  0  0  0  0  0
   22.9511    9.0228   28.9252 C   0  0  0  0  0  0  0  0  0  0  0  0
   23.2511    9.2228   30.2252 C   0  0  0  0  0  0  0  0  0  0  0  0
   23.3511   10.6228   30.4252 C   0  0  0  0  0  0  0  0  0  0  0  0
   23.9511    8.4228   31.1252 C   0  0  0  0  0  0  0  0  0  0  0  0
   24.3511    9.2228   32.3252 C   0  0  0  0  0  0  0  0  0  0  0  0
   23.6511   11.4228   31.6252 C   0  0  0  0  0  0  0  0  0  0  0  0
   24.2511   10.4228   32.5252 N   0  0  0  0  0  0  0  0  0  0  0  0
   22.0511    7.9228   26.7252 C   0  0  0  0  0  0  0  0  0  0  0  0
  2  1  1  0
  3  2  1  0
  4  2  1  0
  5  3  1  0
  6  3  1  0
  7  6  2  3
  8  7  1  0
  9  8  2  0
 10  8  1  0
 11 10  2  0
 12  9  1  0
 13 11  1  0
 13 12  2  0
 14  3  1  0
 14  5  2  0
M  END
>  <ID>  (1) 
conformer_0

$$$$
