
     RDKit          3D

 12 12  0  0  0  0  0  0  0  0999 V2000
   23.9688    9.9112   30.0498 C   0  0  0  0  0  0  0  0  0  0  0  0
   23.6688   10.7112   31.1498 C   0  0  0  0  0  0  0  0  0  0  0  0
   24.3688   10.5112   32.2498 C   0  0  0  0  0  0  0  0  0  0  0  0
   24.6688    9.1112   32.4498 C   0  0  0  0  0  0  0  0  0  0  0  0
   24.3688    8.0112   31.5498 C   0  0  0  0  0  0  0  0  0  0  0  0
   23.9688    8.5112   30.3498 C   0  0  0  0  0  0  0  0  0  0  0  0
   23.4688   10.3112   28.7498 N   0  0  0  0  0  0  0  0  0  0  0  0
   22.9688    9.3112   27.8498 C   0  0  0  0  0  0  0  0  0  0  0  0
   22.6688    9.6112   26.4498 C   0  0  0  0  0  0  0  0  0  0  0  0
   21.9688    8.6112   28.4498 O   0  0  0  0  0  0  0  0  0  0  0  0
   21.8688    8.6112   25.7498 C   0  0  0  0  0  0  0  0  0  0  0  0
   22.3688    7.3112   25.9498 C   0  0  0  0  0  0  0  0  0  0  0  0
  2  1  2  0
  3  2  1  0
  4  3  2  0
  5  4  1  0
  6  1  1  0
  6  5  2  0
  7  1  1  0
  8  7  1  0
  9  8  1  0
 10  8  1  0
 11  9  1  0
 12 11  1  0
M  END
>  <ID>  (1) 
conformer_0

$$$$
