
     RDKit          3D

  6  5  0  0  0  0  0  0  0  0999 V2000
   22.7421    9.8379   25.5526 C   0  0  0  0  0  0  0  0  0  0  0  0
   23.3421   11.0379   25.4526 O   0  0  0  0  0  0  0  0  0  0  0  0
   22.8421    9.1379   26.8526 C   0  0  0  0  0  0  0  0  0  0  0  0
   21.6421    8.4379   26.8526 O   0  0  0  0  0  0  0  0  0  0  0  0
   21.8421    9.3379   24.5526 C   0  0  0  0  0  0  0  0  0  0  0  0
   21.9421    7.2379   26.1526 C   0  0  0  0  0  0  0  0  0  0  0  0
  2  1  1  0
  3  1  1  0
  4  3  1  0
  5  1  1  0
  6  4  1  0
M  END
>  <ID>  (1) 
conformer_0

$$$$
