
     RDKit          3D

 10  9  0  0  0  0  0  0  0  0999 V2000
   23.1511   11.1228   25.5252 O   0  0  0  0  0  0  0  0  0  0  0  0
   22.8511   10.1228   24.9252 C   0  0  0  0  0  0  0  0  0  0  0  0
   22.0511   10.0228   23.9252 O   0  0  0  0  0  0  0  0  0  0  0  0
   22.9511    8.9228   25.6252 C   0  0  0  0  0  0  0  0  0  0  0  0
   23.1511    8.5228   26.9252 C   0  0  0  0  0  0  0  0  0  0  0  0
   22.6511    7.2228   27.3252 C   0  0  0  0  0  0  0  0  0  0  0  0
   22.6511    6.2228   26.3252 C   0  0  0  0  0  0  0  0  0  0  0  0
   22.3511    5.3228   25.7252 O   0  0  0  0  0  0  0  0  0  0  0  0
   23.9511    6.6228   25.7252 O   0  0  0  0  0  0  0  0  0  0  0  0
   21.2511    7.4228   27.8252 O   0  0  0  0  0  0  0  0  0  0  0  0
  2  1  2  0
  3  2  1  0
  4  2  1  0
  5  4  1  0
  6  5  1  0
  7  6  1  0
  8  7  2  0
  9  7  1  0
 10  6  1  0
M  END
>  <ID>  (1) 
conformer_0

$$$$
