
     RDKit          3D

 15 15  0  0  0  0  0  0  0  0999 V2000
   23.8168   10.3537   29.9840 C   0  0  0  0  0  0  0  0  0  0  0  0
   23.8168   10.5537   31.2840 C   0  0  0  0  0  0  0  0  0  0  0  0
   24.3168    9.7537   32.2840 C   0  0  0  0  0  0  0  0  0  0  0  0
   24.5168    8.4537   31.9840 C   0  0  0  0  0  0  0  0  0  0  0  0
   24.0168    8.9537   29.5840 C   0  0  0  0  0  0  0  0  0  0  0  0
   24.0168    8.0537   30.6840 C   0  0  0  0  0  0  0  0  0  0  0  0
   23.9168    8.5537   28.2840 N   0  0  0  0  0  0  0  0  0  0  0  0
   23.4168    8.1537   27.0840 C   0  0  0  0  0  0  0  0  0  0  0  0
   22.4168    8.6537   26.0840 C   0  0  0  0  0  0  0  0  0  0  0  0
   22.8168    9.7537   25.1840 C   0  0  0  0  0  0  0  0  0  0  0  0
   23.4168   10.7537   25.6840 O   0  0  0  0  0  0  0  0  0  0  0  0
   22.2168   10.0537   24.0840 O   0  0  0  0  0  0  0  0  0  0  0  0
   24.2168    7.0537   26.4840 C   0  0  0  0  0  0  0  0  0  0  0  0
   21.2168    8.3537   26.1840 O   0  0  0  0  0  0  0  0  0  0  0  0
   24.8168    6.8537   30.2840 O   0  0  0  0  0  0  0  0  0  0  0  0
  2  1  2  0
  3  2  1  0
  4  3  2  0
  5  1  1  0
  6  4  1  0
  6  5  2  0
  7  5  1  0
  8  7  1  0
  9  8  1  0
 10  9  1  0
 11 10  2  0
 12 10  1  0
 13  8  1  0
 14  9  2  0
 15  6  1  0
M  END
>  <ID>  (1) 
conformer_0

$$$$
