
     RDKit          3D

 11 10  0  0  0  0  0  0  0  0999 V2000
   23.4699   11.2267   25.5274 O   0  0  0  0  0  0  0  0  0  0  0  0
   22.9699   10.0267   25.1274 C   0  0  0  0  0  0  0  0  0  0  0  0
   22.3699    9.3267   26.2274 C   0  0  0  0  0  0  0  0  0  0  0  0
   22.0699    7.9267   25.9274 C   0  0  0  0  0  0  0  0  0  0  0  0
   22.0699   10.1267   24.0274 N   0  0  0  0  0  0  0  0  0  0  0  0
   22.6699    9.7267   27.6274 C   0  0  0  0  0  0  0  0  0  0  0  0
   22.9699    8.9267   28.8274 C   0  0  0  0  0  0  0  0  0  0  0  0
   23.1699    9.7267   30.0274 C   0  0  0  0  0  0  0  0  0  0  0  0
   23.8699    9.0267   31.1274 C   0  0  0  0  0  0  0  0  0  0  0  0
   24.2699    9.8267   32.3274 C   0  0  0  0  0  0  0  0  0  0  0  0
   23.9699   11.2267   31.9274 C   0  0  0  0  0  0  0  0  0  0  0  0
  2  1  1  0
  3  2  1  0
  4  3  1  0
  5  2  1  0
  6  3  1  0
  7  6  1  0
  8  7  1  0
  9  8  1  0
 10  9  1  0
 11 10  1  0
M  END
>  <ID>  (1) 
conformer_0

$$$$
