
     RDKit          3D

 11 10  0  0  0  0  0  0  0  0999 V2000
   23.4699   11.2267   25.5274 O   0  0  0  0  0  0  0  0  0  0  0  0
   22.9699   10.0267   25.1274 C   0  0  0  0  0  0  0  0  0  0  0  0
   22.3699    9.3267   26.2274 C   0  0  0  0  0  0  0  0  0  0  0  0
   22.0699    7.9267   25.9274 C   0  0  0  0  0  0  0  0  0  0  0  0
   22.4699    9.9267   27.5274 C   0  0  0  0  0  0  0  0  0  0  0  0
   22.7699    9.3267   28.8274 C   0  0  0  0  0  0  0  0  0  0  0  0
   23.0699   10.0267   30.0274 C   0  0  0  0  0  0  0  0  0  0  0  0
   22.0699   10.2267   24.0274 N   0  0  0  0  0  0  0  0  0  0  0  0
   24.0699    9.4267   30.9274 C   0  0  0  0  0  0  0  0  0  0  0  0
   24.3699   10.1267   32.1274 C   0  0  0  0  0  0  0  0  0  0  0  0
   24.0699   11.5267   32.1274 C   0  0  0  0  0  0  0  0  0  0  0  0
  2  1  1  0
  3  2  1  0
  4  3  1  0
  5  3  1  0
  6  5  2  3
  7  6  1  0
  8  2  1  0
  9  7  2  3
 10  9  1  0
 11 10  1  0
M  END
>  <ID>  (1) 
conformer_0

$$$$
