
     RDKit          3D

 12 11  0  0  0  0  0  0  0  0999 V2000
   23.1511   11.1228   25.5252 O   0  0  0  0  0  0  0  0  0  0  0  0
   22.7511   10.0228   25.2252 C   0  0  0  0  0  0  0  0  0  0  0  0
   22.5511    8.9228   26.2252 C   0  0  0  0  0  0  0  0  0  0  0  0
   21.9511   10.0228   24.1252 O   0  0  0  0  0  0  0  0  0  0  0  0
   23.1511    7.6228   26.3252 C   0  0  0  0  0  0  0  0  0  0  0  0
   24.0511    7.3228   27.4252 C   0  0  0  0  0  0  0  0  0  0  0  0
   25.2511    6.5228   27.3252 C   0  0  0  0  0  0  0  0  0  0  0  0
   23.7511    8.2228   28.5252 C   0  0  0  0  0  0  0  0  0  0  0  0
   22.7511    9.2228   28.7253 C   0  0  0  0  0  0  0  0  0  0  0  0
   22.9511   10.1228   29.8253 C   0  0  0  0  0  0  0  0  0  0  0  0
   24.0511   10.0228   30.8253 C   0  0  0  0  0  0  0  0  0  0  0  0
   24.0511   11.0228   31.9253 C   0  0  0  0  0  0  0  0  0  0  0  0
  2  1  2  0
  3  2  1  0
  4  2  1  0
  5  3  1  0
  6  5  1  0
  7  6  1  0
  8  6  1  0
  9  8  2  3
 10  9  1  0
 11 10  2  3
 12 11  1  0
M  END
>  <ID>  (1) 
conformer_0

$$$$
