
     RDKit          3D

 11 11  0  0  0  0  0  0  0  0999 V2000
   22.6946    9.4285   26.4613 C   0  0  0  0  0  0  0  0  0  0  0  0
   22.8946   10.0285   25.1614 C   0  0  0  0  0  0  0  0  0  0  0  0
   23.4946   11.2285   25.4613 O   0  0  0  0  0  0  0  0  0  0  0  0
   21.9946   10.0285   24.1614 O   0  0  0  0  0  0  0  0  0  0  0  0
   22.8946    8.0285   26.7613 C   0  0  0  0  0  0  0  0  0  0  0  0
   21.8946    7.0285   27.1613 C   0  0  0  0  0  0  0  0  0  0  0  0
   20.7946    7.1285   27.6613 O   0  0  0  0  0  0  0  0  0  0  0  0
   22.5946    5.8285   27.1613 N   0  0  0  0  0  0  0  0  0  0  0  0
   24.1946    7.6285   26.8613 C   0  0  0  0  0  0  0  0  0  0  0  0
   24.8946    6.4285   26.6613 C   0  0  0  0  0  0  0  0  0  0  0  0
   23.6946    5.4285   26.2613 C   0  0  0  0  0  0  0  0  0  0  0  0
  2  1  1  0
  3  2  2  0
  4  2  1  0
  5  1  1  0
  6  5  1  0
  7  6  2  0
  8  6  1  0
  9  5  1  0
 10  9  1  0
 11  8  1  0
 11 10  1  0
M  END
>  <ID>  (1) 
conformer_0

$$$$
