
     RDKit          3D

  7  7  0  0  0  0  0  0  0  0999 V2000
   23.6335   10.9092   30.8884 C   0  0  0  0  0  0  0  0  0  0  0  0
   23.5335   10.2092   29.5884 C   0  0  0  0  0  0  0  0  0  0  0  0
   24.2335   10.1092   31.8884 C   0  0  0  0  0  0  0  0  0  0  0  0
   24.3335    8.8092   31.4884 C   0  0  0  0  0  0  0  0  0  0  0  0
   24.0335    9.0092   29.2884 C   0  0  0  0  0  0  0  0  0  0  0  0
   23.9335    8.2092   30.3884 C   0  0  0  0  0  0  0  0  0  0  0  0
   23.2335   11.1092   28.5884 O   0  0  0  0  0  0  0  0  0  0  0  0
  2  1  2  0
  3  1  1  0
  4  3  2  0
  5  2  1  0
  6  4  1  0
  6  5  2  0
  7  2  1  0
M  END
>  <ID>  (1) 
conformer_0

$$$$
