
     RDKit          3D

  8  9  0  0  0  0  0  0  0  0999 V2000
   23.4718   11.0777   30.9821 C   0  0  0  0  0  0  0  0  0  0  0  0
   23.7718   10.2777   29.8821 C   0  0  0  0  0  0  0  0  0  0  0  0
   24.2718   10.8777   32.0821 C   0  0  0  0  0  0  0  0  0  0  0  0
   24.5718    9.5777   32.3821 C   0  0  0  0  0  0  0  0  0  0  0  0
   24.3718    8.4777   31.4821 C   0  0  0  0  0  0  0  0  0  0  0  0
   24.2718    8.9777   30.0821 C   0  0  0  0  0  0  0  0  0  0  0  0
   25.1718    9.9777   29.9821 O   0  0  0  0  0  0  0  0  0  0  0  0
   25.4718    7.5777   31.6821 O   0  0  0  0  0  0  0  0  0  0  0  0
  2  1  2  0
  3  1  1  0
  4  3  2  0
  5  4  1  0
  6  2  1  0
  6  5  2  0
  7  2  1  0
  7  6  1  0
  8  5  1  0
M  END
>  <ID>  (1) 
conformer_0

$$$$
