
     RDKit          3D

  8  7  0  0  0  0  0  0  0  0999 V2000
   23.4699   11.2267   25.5274 O   0  0  0  0  0  0  0  0  0  0  0  0
   22.8699   10.0267   25.6274 C   0  0  0  0  0  0  0  0  0  0  0  0
   22.8699    9.1267   26.8274 C   0  0  0  0  0  0  0  0  0  0  0  0
   22.6699    9.9267   28.0274 C   0  0  0  0  0  0  0  0  0  0  0  0
   22.8699    9.6267   29.4274 C   0  0  0  0  0  0  0  0  0  0  0  0
   23.8699   10.2267   30.1274 C   0  0  0  0  0  0  0  0  0  0  0  0
   23.7699   10.7267   31.5274 C   0  0  0  0  0  0  0  0  0  0  0  0
   21.9699    9.7267   24.6274 N   0  0  0  0  0  0  0  0  0  0  0  0
  2  1  2  0
  3  2  1  0
  4  3  1  0
  5  4  1  0
  6  5  1  0
  7  6  1  0
  8  2  1  0
M  END
>  <ID>  (1) 
conformer_0

$$$$
