
     RDKit          3D

  6  7  0  0  0  0  0  0  0  0999 V2000
   24.3775    9.8715   32.0701 C   0  0  0  0  0  0  0  0  0  0  0  0
   23.7775   10.7715   31.0701 C   0  0  0  0  0  0  0  0  0  0  0  0
   24.3775    8.4715   31.8701 C   0  0  0  0  0  0  0  0  0  0  0  0
   23.7775    9.8715   29.8701 C   0  0  0  0  0  0  0  0  0  0  0  0
   23.7775    8.4715   30.3701 C   0  0  0  0  0  0  0  0  0  0  0  0
   25.0775    9.1715   29.8701 O   0  0  0  0  0  0  0  0  0  0  0  0
  2  1  1  0
  3  1  1  0
  4  2  1  0
  5  3  1  0
  5  4  1  0
  6  4  1  0
  6  5  1  0
M  END
>  <ID>  (1) 
conformer_0

$$$$
