
     RDKit          3D

 11 11  0  0  0  0  0  0  0  0999 V2000
   23.6335   10.9092   30.8884 C   0  0  0  0  0  0  0  0  0  0  0  0
   23.5335   10.2092   29.5884 C   0  0  0  0  0  0  0  0  0  0  0  0
   24.2335   10.1092   31.8884 C   0  0  0  0  0  0  0  0  0  0  0  0
   24.3335    8.8092   31.4884 C   0  0  0  0  0  0  0  0  0  0  0  0
   23.1335    9.0092   29.3884 C   0  0  0  0  0  0  0  0  0  0  0  0
   23.7335    8.2092   30.4884 C   0  0  0  0  0  0  0  0  0  0  0  0
   23.3335    8.4092   28.0884 C   0  0  0  0  0  0  0  0  0  0  0  0
   22.7335    9.2092   26.9884 C   0  0  0  0  0  0  0  0  0  0  0  0
   22.1335    8.6092   25.8884 C   0  0  0  0  0  0  0  0  0  0  0  0
   21.9335    7.2092   25.9884 O   0  0  0  0  0  0  0  0  0  0  0  0
   22.2335    9.1092   24.7884 O   0  0  0  0  0  0  0  0  0  0  0  0
  2  1  2  0
  3  1  1  0
  4  3  2  0
  5  2  1  0
  6  4  1  0
  6  5  2  0
  7  5  1  0
  8  7  1  0
  9  8  1  0
 10  9  2  0
 11  9  1  0
M  END
>  <ID>  (1) 
conformer_0

$$$$
