
     RDKit          3D

 14 15  0  0  0  0  0  0  0  0999 V2000
   23.6335   10.9092   30.8884 C   0  0  0  0  0  0  0  0  0  0  0  0
   23.5335   10.2092   29.5884 C   0  0  0  0  0  0  0  0  0  0  0  0
   24.2335   10.1092   31.8884 C   0  0  0  0  0  0  0  0  0  0  0  0
   24.3335    8.8092   31.4884 C   0  0  0  0  0  0  0  0  0  0  0  0
   24.0335    9.0092   29.2884 C   0  0  0  0  0  0  0  0  0  0  0  0
   23.8335    8.1092   30.3884 C   0  0  0  0  0  0  0  0  0  0  0  0
   23.8335    8.4092   27.9884 N   0  0  0  0  0  0  0  0  0  0  0  0
   22.7335    9.0092   27.1884 C   0  0  0  0  0  0  0  0  0  0  0  0
   22.8335    9.7092   25.8884 C   0  0  0  0  0  0  0  0  0  0  0  0
   23.1335   10.8092   25.5884 O   0  0  0  0  0  0  0  0  0  0  0  0
   22.1335    8.9092   24.8884 O   0  0  0  0  0  0  0  0  0  0  0  0
   24.2335    7.1092   27.6884 C   0  0  0  0  0  0  0  0  0  0  0  0
   24.4335    6.5092   26.4884 C   0  0  0  0  0  0  0  0  0  0  0  0
   23.0335    6.4092   26.8884 C   0  0  0  0  0  0  0  0  0  0  0  0
  2  1  2  0
  3  1  1  0
  4  3  2  0
  5  2  1  0
  6  4  1  0
  6  5  2  0
  7  5  1  0
  8  7  1  0
  9  8  1  0
 10  9  2  0
 11  9  1  0
 12  7  1  0
 13 12  1  0
 14 12  1  0
 14 13  1  0
M  END
>  <ID>  (1) 
conformer_0

$$$$
