
     RDKit          3D

  8  8  0  0  0  0  0  0  0  0999 V2000
   23.6335   10.9092   30.8884 C   0  0  0  0  0  0  0  0  0  0  0  0
   24.3335    9.8092   30.7884 C   0  0  0  0  0  0  0  0  0  0  0  0
   24.4335    9.1092   31.9884 C   0  0  0  0  0  0  0  0  0  0  0  0
   24.6335    9.8092   33.0884 C   0  0  0  0  0  0  0  0  0  0  0  0
   24.5335   11.2092   33.2884 C   0  0  0  0  0  0  0  0  0  0  0  0
   23.8335   11.7092   32.0884 C   0  0  0  0  0  0  0  0  0  0  0  0
   24.7335    9.3092   29.5884 O   0  0  0  0  0  0  0  0  0  0  0  0
   23.6335   11.6092   29.5884 O   0  0  0  0  0  0  0  0  0  0  0  0
  2  1  2  0
  3  2  1  0
  4  3  2  0
  5  4  1  0
  6  1  1  0
  6  5  2  0
  7  2  1  0
  8  1  1  0
M  END
>  <ID>  (1) 
conformer_0

$$$$
