
     RDKit          3D

 13 13  0  0  0  0  0  0  0  0999 V2000
   22.9033    8.6796   27.1043 C   0  0  0  0  0  0  0  0  0  0  0  0
   22.4033    9.4796   26.0043 C   0  0  0  0  0  0  0  0  0  0  0  0
   22.9033    9.3796   28.4043 C   0  0  0  0  0  0  0  0  0  0  0  0
   23.1033   10.6796   25.7043 O   0  0  0  0  0  0  0  0  0  0  0  0
   21.2033    9.6796   26.0043 O   0  0  0  0  0  0  0  0  0  0  0  0
   23.3033    8.4796   29.5043 C   0  0  0  0  0  0  0  0  0  0  0  0
   23.9033    7.5796   27.1043 N   0  0  0  0  0  0  0  0  0  0  0  0
   23.9033    8.9796   30.7043 C   0  0  0  0  0  0  0  0  0  0  0  0
   23.7033   10.3796   31.1043 C   0  0  0  0  0  0  0  0  0  0  0  0
   24.4033    6.5796   26.5043 C   0  0  0  0  0  0  0  0  0  0  0  0
   24.1033    5.6796   25.9043 O   0  0  0  0  0  0  0  0  0  0  0  0
   24.7033    6.9796   27.9043 C   0  0  0  0  0  0  0  0  0  0  0  0
   26.1033    6.8796   28.2043 C   0  0  0  0  0  0  0  0  0  0  0  0
  2  1  1  0
  3  1  1  0
  4  2  1  0
  5  2  1  0
  6  3  1  0
  7  1  1  0
  8  6  1  0
  9  8  1  0
 10  7  1  0
 11 10  1  0
 12  7  1  0
 12 10  1  0
 13 12  1  0
M  END
>  <ID>  (1) 
conformer_0

$$$$
