
     RDKit          3D

  8  7  0  0  0  0  0  0  0  0999 V2000
   23.1511   11.1228   25.5252 O   0  0  0  0  0  0  0  0  0  0  0  0
   22.7511   10.0228   25.2252 C   0  0  0  0  0  0  0  0  0  0  0  0
   21.8511    9.8228   24.2252 O   0  0  0  0  0  0  0  0  0  0  0  0
   23.0511    8.8228   26.0252 C   0  0  0  0  0  0  0  0  0  0  0  0
   22.0511    7.7228   26.1252 C   0  0  0  0  0  0  0  0  0  0  0  0
   21.2511    7.6228   27.0252 O   0  0  0  0  0  0  0  0  0  0  0  0
   22.5511    6.5228   25.7252 N   0  0  0  0  0  0  0  0  0  0  0  0
   21.7511    5.3228   25.9252 O   0  0  0  0  0  0  0  0  0  0  0  0
  2  1  2  0
  3  2  1  0
  4  2  1  0
  5  4  1  0
  6  5  2  0
  7  5  1  0
  8  7  1  0
M  END
>  <ID>  (1) 
conformer_0

$$$$
