
     RDKit          3D

 11 10  0  0  0  0  0  0  0  0999 V2000
   23.4699   11.2267   25.5274 O   0  0  0  0  0  0  0  0  0  0  0  0
   22.8699   10.0267   25.5274 C   0  0  0  0  0  0  0  0  0  0  0  0
   22.4699    9.4267   26.8274 C   0  0  0  0  0  0  0  0  0  0  0  0
   22.7699   10.3267   27.9274 C   0  0  0  0  0  0  0  0  0  0  0  0
   21.9699    9.8267   24.4274 N   0  0  0  0  0  0  0  0  0  0  0  0
   22.9699    9.7267   29.2274 C   0  0  0  0  0  0  0  0  0  0  0  0
   23.7699   10.4267   30.2274 C   0  0  0  0  0  0  0  0  0  0  0  0
   24.0699    9.9267   31.5274 C   0  0  0  0  0  0  0  0  0  0  0  0
   24.2699   11.0267   32.5274 C   0  0  0  0  0  0  0  0  0  0  0  0
   24.7699   10.6267   33.8274 C   0  0  0  0  0  0  0  0  0  0  0  0
   25.1699    9.2267   34.1274 C   0  0  0  0  0  0  0  0  0  0  0  0
  2  1  2  0
  3  2  1  0
  4  3  1  0
  5  2  1  0
  6  4  1  0
  7  6  2  3
  8  7  1  0
  9  8  1  0
 10  9  2  3
 11 10  1  0
M  END
>  <ID>  (1) 
conformer_0

$$$$
