
     RDKit          3D

 10  9  0  0  0  0  0  0  0  0999 V2000
   21.9453    9.2420   25.5549 C   0  0  0  0  0  0  0  0  0  0  0  0
   22.4453    9.7420   26.8549 C   0  0  0  0  0  0  0  0  0  0  0  0
   22.5453   10.0420   24.5549 C   0  0  0  0  0  0  0  0  0  0  0  0
   23.3453   11.0420   25.2549 O   0  0  0  0  0  0  0  0  0  0  0  0
   23.6453    9.1420   27.1549 O   0  0  0  0  0  0  0  0  0  0  0  0
   21.9453   10.2420   27.9549 O   0  0  0  0  0  0  0  0  0  0  0  0
   21.7453    7.8420   25.6549 O   0  0  0  0  0  0  0  0  0  0  0  0
   22.3453    6.8420   26.3549 C   0  0  0  0  0  0  0  0  0  0  0  0
   23.0453    5.7420   25.7549 C   0  0  0  0  0  0  0  0  0  0  0  0
   22.2453    4.6420   25.2549 O   0  0  0  0  0  0  0  0  0  0  0  0
  2  1  1  0
  3  1  1  0
  4  3  1  0
  5  2  2  0
  6  2  1  0
  7  1  1  0
  8  7  1  0
  9  8  1  0
 10  9  1  0
M  END
>  <ID>  (1) 
conformer_0

$$$$
