
     RDKit          3D

 15 16  0  0  0  0  0  0  0  0999 V2000
   23.1511   11.1228   25.5252 O   0  0  0  0  0  0  0  0  0  0  0  0
   22.9511    9.8228   25.3252 C   0  0  0  0  0  0  0  0  0  0  0  0
   22.9511    9.0228   26.5252 C   0  0  0  0  0  0  0  0  0  0  0  0
   22.0511    9.5228   24.5252 O   0  0  0  0  0  0  0  0  0  0  0  0
   23.3511    7.8228   26.6252 C   0  0  0  0  0  0  0  0  0  0  0  0
   22.9511    9.7228   27.8252 C   0  0  0  0  0  0  0  0  0  0  0  0
   22.9511    9.0228   28.9252 C   0  0  0  0  0  0  0  0  0  0  0  0
   23.4511    9.4228   30.1252 C   0  0  0  0  0  0  0  0  0  0  0  0
   23.3511   10.8228   30.5252 C   0  0  0  0  0  0  0  0  0  0  0  0
   24.1511    8.6228   31.1252 C   0  0  0  0  0  0  0  0  0  0  0  0
   24.0511   11.0228   31.8252 C   0  0  0  0  0  0  0  0  0  0  0  0
   24.2511    9.6228   32.3252 C   0  0  0  0  0  0  0  0  0  0  0  0
   22.0511    7.8228   26.6252 C   0  0  0  0  0  0  0  0  0  0  0  0
   21.1511    7.4228   27.2252 O   0  0  0  0  0  0  0  0  0  0  0  0
   24.3511    7.4228   31.2252 O   0  0  0  0  0  0  0  0  0  0  0  0
  2  1  1  0
  3  2  1  0
  4  2  1  0
  5  3  1  0
  6  3  1  0
  7  6  1  0
  8  7  1  0
  9  8  2  0
 10  8  1  0
 11  9  1  0
 12 10  1  0
 12 11  1  0
 13  3  1  0
 13  5  1  0
 14 13  2  0
 15 10  2  0
M  END
>  <ID>  (1) 
conformer_0

$$$$
