
     RDKit          3D

 13 14  0  0  0  0  0  0  0  0999 V2000
   23.4718   11.0777   30.9821 C   0  0  0  0  0  0  0  0  0  0  0  0
   23.7718   10.2777   29.8821 C   0  0  0  0  0  0  0  0  0  0  0  0
   24.2718   10.8777   32.0821 C   0  0  0  0  0  0  0  0  0  0  0  0
   24.5718    9.5777   32.3821 C   0  0  0  0  0  0  0  0  0  0  0  0
   24.3718    8.4777   31.4821 C   0  0  0  0  0  0  0  0  0  0  0  0
   23.7718    8.8777   30.2821 C   0  0  0  0  0  0  0  0  0  0  0  0
   23.0718    7.9777   29.3821 C   0  0  0  0  0  0  0  0  0  0  0  0
   21.7718    8.2777   29.0821 O   0  0  0  0  0  0  0  0  0  0  0  0
   23.6718    6.8777   29.0821 N   0  0  0  0  0  0  0  0  0  0  0  0
   23.7718    6.3777   27.6821 C   0  0  0  0  0  0  0  0  0  0  0  0
   23.3718    7.4777   26.7821 C   0  0  0  0  0  0  0  0  0  0  0  0
   23.2718    8.7777   26.6821 N   0  0  0  0  0  0  0  0  0  0  0  0
   22.2718    6.6777   27.1821 C   0  0  0  0  0  0  0  0  0  0  0  0
  2  1  2  0
  3  1  1  0
  4  3  2  0
  5  4  1  0
  6  2  1  0
  6  5  2  0
  7  6  1  0
  8  7  2  0
  9  7  1  0
 10  9  1  0
 11 10  1  0
 12 11  1  0
 13 10  1  0
 13 11  1  0
M  END
>  <ID>  (1) 
conformer_0

$$$$
