
     RDKit          3D

  5  4  0  0  0  0  0  0  0  0999 V2000
   22.6081   10.0126   25.5115 C   0  0  0  0  0  0  0  0  0  0  0  0
   23.4081   11.1126   25.5115 O   0  0  0  0  0  0  0  0  0  0  0  0
   22.5081    9.3126   26.8115 C   0  0  0  0  0  0  0  0  0  0  0  0
   23.6081    8.9126   27.3115 O   0  0  0  0  0  0  0  0  0  0  0  0
   21.9081    9.7126   24.3115 C   0  0  0  0  0  0  0  0  0  0  0  0
  2  1  1  0
  3  1  1  0
  4  3  2  0
  5  1  1  0
M  END
>  <ID>  (1) 
conformer_0

$$$$
