
     RDKit          3D

 10  9  0  0  0  0  0  0  0  0999 V2000
   23.4699   11.2267   25.5274 O   0  0  0  0  0  0  0  0  0  0  0  0
   22.9699   10.0267   25.1274 C   0  0  0  0  0  0  0  0  0  0  0  0
   22.3699    9.3267   26.2274 C   0  0  0  0  0  0  0  0  0  0  0  0
   22.0699    7.9267   25.9274 C   0  0  0  0  0  0  0  0  0  0  0  0
   22.0699   10.1267   24.0274 N   0  0  0  0  0  0  0  0  0  0  0  0
   22.6699    9.6267   27.6274 C   0  0  0  0  0  0  0  0  0  0  0  0
   23.0699    9.2267   28.8274 C   0  0  0  0  0  0  0  0  0  0  0  0
   23.1699    9.6267   30.1274 C   0  0  0  0  0  0  0  0  0  0  0  0
   23.6699   10.8267   30.8274 C   0  0  0  0  0  0  0  0  0  0  0  0
   22.1699   11.0267   22.9274 C   0  0  0  0  0  0  0  0  0  0  0  0
  2  1  1  0
  3  2  1  0
  4  3  1  0
  5  2  1  0
  6  3  1  0
  7  6  2  3
  8  7  1  0
  9  8  1  0
 10  5  1  0
M  END
>  <ID>  (1) 
conformer_0

$$$$
