
     RDKit          3D

 12 12  0  0  0  0  0  0  0  0999 V2000
   23.6335   10.9092   30.8884 C   0  0  0  0  0  0  0  0  0  0  0  0
   23.5335   10.2092   29.5884 C   0  0  0  0  0  0  0  0  0  0  0  0
   24.1335   10.1092   31.8884 C   0  0  0  0  0  0  0  0  0  0  0  0
   24.2335    8.8092   31.5884 C   0  0  0  0  0  0  0  0  0  0  0  0
   23.0335    8.9092   29.4884 C   0  0  0  0  0  0  0  0  0  0  0  0
   23.8335    8.2092   30.3884 C   0  0  0  0  0  0  0  0  0  0  0  0
   22.8335    8.5092   28.0884 C   0  0  0  0  0  0  0  0  0  0  0  0
   22.7335    9.7092   27.2884 C   0  0  0  0  0  0  0  0  0  0  0  0
   22.5335    9.7092   25.8884 C   0  0  0  0  0  0  0  0  0  0  0  0
   23.4335   10.4092   25.0884 O   0  0  0  0  0  0  0  0  0  0  0  0
   21.3335    9.5092   25.6884 O   0  0  0  0  0  0  0  0  0  0  0  0
   23.5335   11.4092   28.6884 O   0  0  0  0  0  0  0  0  0  0  0  0
  2  1  2  0
  3  1  1  0
  4  3  2  0
  5  2  1  0
  6  4  1  0
  6  5  2  0
  7  5  1  0
  8  7  1  0
  9  8  1  0
 10  9  2  0
 11  9  1  0
 12  2  1  0
M  END
>  <ID>  (1) 
conformer_0

$$$$
