
     RDKit          3D

 15 17  0  0  0  0  0  0  0  0999 V2000
   23.9417   10.4789   30.3083 C   0  0  0  0  0  0  0  0  0  0  0  0
   24.0417   10.2789   31.6083 C   0  0  0  0  0  0  0  0  0  0  0  0
   23.2417    9.7789   29.4083 C   0  0  0  0  0  0  0  0  0  0  0  0
   22.9417    9.7789   28.1083 C   0  0  0  0  0  0  0  0  0  0  0  0
   23.0417    8.6789   27.1083 C   0  0  0  0  0  0  0  0  0  0  0  0
   22.9417    9.3789   25.8083 C   0  0  0  0  0  0  0  0  0  0  0  0
   23.3417   10.6789   25.8083 O   0  0  0  0  0  0  0  0  0  0  0  0
   22.0417    9.1789   24.9083 O   0  0  0  0  0  0  0  0  0  0  0  0
   23.1417    8.3789   29.9083 C   0  0  0  0  0  0  0  0  0  0  0  0
   21.9417    8.6789   27.9083 O   0  0  0  0  0  0  0  0  0  0  0  0
   24.2417    8.8789   32.0083 C   0  0  0  0  0  0  0  0  0  0  0  0
   23.9417    7.9789   31.0083 C   0  0  0  0  0  0  0  0  0  0  0  0
   24.1417    7.7789   27.3083 C   0  0  0  0  0  0  0  0  0  0  0  0
   24.6417    6.9789   26.6083 O   0  0  0  0  0  0  0  0  0  0  0  0
   23.7417    7.5789   28.7083 N   0  0  0  0  0  0  0  0  0  0  0  0
  2  1  2  0
  3  1  1  0
  4  3  1  0
  5  4  1  0
  6  5  1  0
  7  6  2  0
  8  6  1  0
  9  3  2  0
 10  4  1  0
 10  5  1  0
 11  2  1  0
 12  9  1  0
 12 11  2  0
 13  5  1  0
 14 13  2  0
 15  9  1  0
 15 13  1  0
M  END
>  <ID>  (1) 
conformer_0

$$$$
