
     RDKit          3D

  8  8  0  0  0  0  0  0  0  0999 V2000
   23.1511   11.1228   25.5252 O   0  0  0  0  0  0  0  0  0  0  0  0
   22.9511    9.8228   25.3252 C   0  0  0  0  0  0  0  0  0  0  0  0
   22.9511    9.0228   26.5252 C   0  0  0  0  0  0  0  0  0  0  0  0
   21.9511    9.7228   24.4252 O   0  0  0  0  0  0  0  0  0  0  0  0
   22.2511    7.8228   26.3252 C   0  0  0  0  0  0  0  0  0  0  0  0
   22.9511    9.5228   27.8252 C   0  0  0  0  0  0  0  0  0  0  0  0
   21.5511    7.6228   27.4252 N   0  0  0  0  0  0  0  0  0  0  0  0
   21.8511    8.6228   28.3252 O   0  0  0  0  0  0  0  0  0  0  0  0
  2  1  1  0
  3  2  1  0
  4  2  1  0
  5  3  1  0
  6  3  2  0
  7  5  2  0
  8  6  1  0
  8  7  1  0
M  END
>  <ID>  (1) 
conformer_0

$$$$
