
     RDKit          3D

 20 21  0  0  0  0  0  0  0  0999 V2000
   22.7189   23.5889   16.8798 C   0  0  0  0  0  0  0  0  0  0  0  0
   23.3869   22.1316   18.6173 C   0  0  0  0  0  0  0  0  0  0  0  0
   22.8699   20.8457   20.5813 C   0  0  0  0  0  0  0  0  0  0  0  0
   20.9986   17.8214   21.3730 O   0  0  0  0  0  0  0  0  0  0  0  0
   18.9316   23.9388   21.0418 O   0  0  0  0  0  0  0  0  0  0  0  0
   21.1548   22.4862   20.2576 C   0  0  0  0  0  0  0  0  0  0  0  0
   23.6508   18.6183   20.5428 O   0  0  0  0  0  0  0  0  0  0  0  0
   19.7781   23.6868   21.9048 C   0  0  0  0  0  0  0  0  0  0  0  0
   21.1636   23.2193   21.5391 C   0  0  0  0  0  0  0  0  0  0  0  0
   24.2532   23.4773   16.9597 C   0  0  0  0  0  0  0  0  0  0  0  0
   23.5088   21.7766   21.4998 C   0  0  0  0  0  0  0  0  0  0  0  0
   24.4799   22.1270   17.6586 C   0  0  0  0  0  0  0  0  0  0  0  0
   22.1817   22.5795   17.9131 C   0  0  0  0  0  0  0  0  0  0  0  0
   21.5382   21.1523   20.0974 O   0  0  0  0  0  0  0  0  0  0  0  0
   19.5183   23.5886   23.1322 O   0  0  0  0  0  0  0  0  0  0  0  0
   22.7268   19.4184   21.2169 C   0  0  0  0  0  0  0  0  0  0  0  0
   21.2964   18.9611   20.6967 C   0  0  0  0  0  0  0  0  0  0  0  0
   23.6175   22.2658   20.0920 C   0  0  0  0  0  0  0  0  0  0  0  0
   24.8008   21.2414   21.8937 O   0  0  0  0  0  0  0  0  0  0  0  0
   21.1342   23.2645   18.8921 S   0  0  0  0  0  0  0  0  0  0  0  0
  1 10  1  0
  1 13  1  0
  2 12  1  0
  2 13  1  0
  2 18  1  0
  3 11  1  0
  3 14  1  0
  3 16  1  0
  4 17  1  0
  5  8  2  0
  6  9  1  0
  6 14  1  0
  6 20  1  0
  7 16  1  0
  8  9  1  0
  8 15  1  0
 10 12  1  0
 11 18  1  0
 11 19  1  0
 13 20  1  0
 16 17  1  0
M  END
>  <ID>  (1) 
conformer_0

$$$$
