
     RDKit          3D

 21 22  0  0  0  0  0  0  0  0999 V2000
   24.3273   20.8485   18.6607 O   0  0  0  0  0  0  0  0  0  0  0  0
   23.9548   25.8720   17.8489 C   0  0  0  0  0  0  0  0  0  0  0  0
   24.9030   21.7743   21.3107 C   0  0  0  0  0  0  0  0  0  0  0  0
   22.7442   20.9328   20.5531 C   0  0  0  0  0  0  0  0  0  0  0  0
   22.9755   22.7181   18.6113 C   0  0  0  0  0  0  0  0  0  0  0  0
   22.8761   22.7979   22.1154 C   0  0  0  0  0  0  0  0  0  0  0  0
   23.4496   24.6687   17.0695 C   0  0  0  0  0  0  0  0  0  0  0  0
   20.9373   22.7965   20.6700 C   0  0  0  0  0  0  0  0  0  0  0  0
   22.4408   23.2818   20.8588 C   0  0  0  0  0  0  0  0  0  0  0  0
   21.6626   22.8130   17.9045 C   0  0  0  0  0  0  0  0  0  0  0  0
   19.0745   23.8780   21.7010 O   0  0  0  0  0  0  0  0  0  0  0  0
   23.0436   18.5965   20.1580 C   0  0  0  0  0  0  0  0  0  0  0  0
   21.3063   21.1666   20.7754 C   0  0  0  0  0  0  0  0  0  0  0  0
   24.9191   20.2393   21.2891 C   0  0  0  0  0  0  0  0  0  0  0  0
   23.5064   19.7166   21.0478 C   0  0  0  0  0  0  0  0  0  0  0  0
   23.3980   21.5429   19.4595 C   0  0  0  0  0  0  0  0  0  0  0  0
   20.2027   24.0229   21.3893 C   0  0  0  0  0  0  0  0  0  0  0  0
   23.4505   22.1469   20.9323 C   0  0  0  0  0  0  0  0  0  0  0  0
   19.6377   22.3812   19.6942 C   0  0  0  0  0  0  0  0  0  0  0  0
   20.7855   25.1309   21.5723 O   0  0  0  0  0  0  0  0  0  0  0  0
   24.0305   23.3961   17.7521 C   0  0  0  0  0  0  0  0  0  0  0  0
  1 16  1  0
  2  7  1  0
  3 14  1  0
  3 18  1  0
  4 13  1  0
  4 15  1  0
  4 16  1  0
  4 18  1  0
  5 10  1  0
  5 16  1  0
  5 21  1  0
  6  9  1  0
  6 18  1  0
  7 21  1  0
  8  9  1  0
  8 13  1  0
  8 17  1  0
  8 19  1  0
 11 17  2  0
 12 15  1  0
 14 15  1  0
 17 20  1  0
M  END
>  <ID>  (1) 
conformer_0

$$$$
