
     RDKit          3D

 22 23  0  0  0  0  0  0  0  0999 V2000
   24.0240   18.9372   21.1968 C   0  0  0  0  0  0  0  0  0  0  0  0
   21.8774   21.9735   18.1087 C   0  0  0  0  0  0  0  0  0  0  0  0
   24.4462   22.4746   19.2867 C   0  0  0  0  0  0  0  0  0  0  0  0
   21.7076   18.8011   19.9361 O   0  0  0  0  0  0  0  0  0  0  0  0
   23.5283   25.9057   17.8992 C   0  0  0  0  0  0  0  0  0  0  0  0
   23.9465   23.4312   17.2126 F   0  0  0  0  0  0  0  0  0  0  0  0
   22.4879   24.3055   21.6059 C   0  0  0  0  0  0  0  0  0  0  0  0
   23.2299   24.8509   18.9114 C   0  0  0  0  0  0  0  0  0  0  0  0
   23.1564   22.3486   20.1822 C   0  0  0  0  0  0  0  0  0  0  0  0
   25.4482   24.3715   18.6555 F   0  0  0  0  0  0  0  0  0  0  0  0
   24.1643   20.2906   20.7242 C   0  0  0  0  0  0  0  0  0  0  0  0
   24.2174   23.6952   18.5952 C   0  0  0  0  0  0  0  0  0  0  0  0
   22.8897   20.9594   20.3672 C   0  0  0  0  0  0  0  0  0  0  0  0
   21.9588   22.5130   19.5029 C   0  0  0  0  0  0  0  0  0  0  0  0
   24.3527   22.9670   22.1224 O   0  0  0  0  0  0  0  0  0  0  0  0
   20.4582   20.7469   20.1179 C   0  0  0  0  0  0  0  0  0  0  0  0
   19.1994   23.5854   21.3370 O   0  0  0  0  0  0  0  0  0  0  0  0
   20.3199   23.1252   21.2789 C   0  0  0  0  0  0  0  0  0  0  0  0
   23.4872   23.3090   21.2235 C   0  0  0  0  0  0  0  0  0  0  0  0
   21.3375   23.6132   22.2137 C   0  0  0  0  0  0  0  0  0  0  0  0
   21.8038   20.0595   20.0224 C   0  0  0  0  0  0  0  0  0  0  0  0
   20.7229   22.1962   20.2938 C   0  0  0  0  0  0  0  0  0  0  0  0
  1 11  1  0
  2 14  1  0
  3  9  1  0
  3 12  1  0
  4 21  2  0
  5  8  1  0
  6 12  1  0
  7 19  1  0
  7 20  1  0
  8 12  1  0
  9 13  1  0
  9 14  1  0
  9 19  1  0
 10 12  1  0
 11 13  1  0
 13 21  1  0
 14 22  1  0
 15 19  1  0
 16 21  1  0
 16 22  1  0
 17 18  2  0
 18 20  1  0
 18 22  1  0
M  END
>  <ID>  (1) 
conformer_0

$$$$
