
     RDKit          3D

 34 37  0  0  0  0  0  0  0  0999 V2000
   22.5251   18.5021   20.8712 O   0  0  0  0  0  0  0  0  0  0  0  0
   21.3293   18.9277   20.4975 C   0  0  0  0  0  0  0  0  0  0  0  0
   18.6781   23.9771   21.8839 O   0  0  0  0  0  0  0  0  0  0  0  0
   20.0389   22.3192   20.3628 C   0  0  0  0  0  0  0  0  0  0  0  0
   22.8351   22.6511   17.5563 C   0  0  0  0  0  0  0  0  0  0  0  0
   22.6304   23.5889   23.3569 C   0  0  0  0  0  0  0  0  0  0  0  0
   21.9276   21.7660   18.0983 C   0  0  0  0  0  0  0  0  0  0  0  0
   24.7680   25.5240   20.9017 C   0  0  0  0  0  0  0  0  0  0  0  0
   23.8329   26.5505   21.4657 C   0  0  0  0  0  0  0  0  0  0  0  0
   25.3025   27.1850   19.0214 C   0  0  0  0  0  0  0  0  0  0  0  0
   24.7212   24.8482   18.4085 C   0  0  0  0  0  0  0  0  0  0  0  0
   25.2717   22.7349   17.2016 C   0  0  0  0  0  0  0  0  0  0  0  0
   24.6397   24.3875   21.9883 C   0  0  0  0  0  0  0  0  0  0  0  0
   21.7962   28.3295   23.3102 S   0  0  0  0  0  0  0  0  0  0  0  0
   23.4025   24.9945   17.9372 C   0  0  0  0  0  0  0  0  0  0  0  0
   21.5832   25.4464   21.1995 C   0  0  0  0  0  0  0  0  0  0  0  0
   25.6023   23.8889   17.8731 C   0  0  0  0  0  0  0  0  0  0  0  0
   23.3576   24.6170   22.6171 N   0  0  0  0  0  0  0  0  0  0  0  0
   25.2994   22.1217   21.6303 C   0  0  0  0  0  0  0  0  0  0  0  0
   20.2787   18.1931   20.6253 O   0  0  0  0  0  0  0  0  0  0  0  0
   22.7386   25.8382   22.1985 C   0  0  0  0  0  0  0  0  0  0  0  0
   24.0650   22.2079   17.0827 C   0  0  0  0  0  0  0  0  0  0  0  0
   25.0920   23.1944   22.6008 O   0  0  0  0  0  0  0  0  0  0  0  0
   20.3405   21.1575   20.7191 C   0  0  0  0  0  0  0  0  0  0  0  0
   22.5221   24.0417   17.5635 C   0  0  0  0  0  0  0  0  0  0  0  0
   18.7217   24.0698   19.6589 O   0  0  0  0  0  0  0  0  0  0  0  0
   19.5185   23.6857   20.8607 C   0  0  0  0  0  0  0  0  0  0  0  0
   25.2035   25.7200   19.4609 C   0  0  0  0  0  0  0  0  0  0  0  0
   21.1502   20.2659   19.9802 C   0  0  0  0  0  0  0  0  0  0  0  0
   20.9429   24.1819   21.6467 C   0  0  0  0  0  0  0  0  0  0  0  0
   24.0257   27.7536   21.5041 O   0  0  0  0  0  0  0  0  0  0  0  0
   22.1038   26.6270   23.3306 C   0  0  0  0  0  0  0  0  0  0  0  0
   21.6758   20.7328   18.8242 C   0  0  0  0  0  0  0  0  0  0  0  0
   21.1442   23.7728   23.0682 C   0  0  0  0  0  0  0  0  0  0  0  0
  1  2  2  0
  2 20  1  0
  2 29  1  0
  3 27  1  0
  4 24  2  0
  4 27  1  0
  5  7  1  0
  5 22  1  0
  5 25  1  0
  6 18  1  0
  6 34  1  0
  7 33  1  0
  8  9  1  0
  8 13  1  0
  8 28  1  0
  9 21  1  0
  9 31  2  0
 10 28  1  0
 11 15  1  0
 11 17  1  0
 11 28  1  0
 12 17  1  0
 12 22  2  0
 13 18  1  0
 13 23  1  0
 14 32  1  0
 15 25  2  0
 16 21  1  0
 16 30  1  0
 18 21  1  0
 19 23  1  0
 21 32  1  0
 24 29  1  0
 26 27  1  0
 27 30  1  0
 29 33  2  0
 30 34  1  0
M  END
>  <ID>  (1) 
conformer_0

$$$$
