
     RDKit          3D

 13 12  0  0  0  0  0  0  0  0999 V2000
   20.6278   23.4962   21.6931 O   0  0  0  0  0  0  0  0  0  0  0  0
   23.5061   20.9950   22.0626 C   0  0  0  0  0  0  0  0  0  0  0  0
   23.2591   19.8531   19.8429 O   0  0  0  0  0  0  0  0  0  0  0  0
   22.8006   20.9937   20.5070 S   0  0  0  0  0  4  0  0  0  0  0  0
   20.3615   21.8028   20.0117 C   0  0  0  0  0  0  0  0  0  0  0  0
   21.2390   20.9447   20.8256 N   0  0  0  0  0  0  0  0  0  0  0  0
   23.0722   22.3442   19.6142 C   0  0  0  0  0  0  0  0  0  0  0  0
   19.9110   23.0399   20.7436 C   0  0  0  0  0  0  0  0  0  0  0  0
   24.9582   23.1503   17.0386 C   0  0  0  0  0  0  0  0  0  0  0  0
   18.8055   23.5302   20.4234 O   0  0  0  0  0  0  0  0  0  0  0  0
   22.8175   22.3537   18.1247 C   0  0  0  0  0  0  0  0  0  0  0  0
   23.4321   23.4158   17.3190 C   0  0  0  0  0  0  0  0  0  0  0  0
   23.1902   24.8572   17.7845 C   0  0  0  0  0  0  0  0  0  0  0  0
  1  8  2  0
  2  4  1  0
  3  4  1  0
  4  6  1  0
  4  7  1  0
  5  6  1  0
  5  8  1  0
  7 11  2  3
  8 10  1  0
  9 12  1  0
 11 12  1  0
 12 13  1  0
M  END
>  <ID>  (1) 
conformer_0

$$$$
