
     RDKit          3D

 11 11  0  0  0  0  0  0  0  0999 V2000
   19.3577   23.9534   21.5047 O   0  0  0  0  0  0  0  0  0  0  0  0
   20.9857   25.4628   21.6400 O   0  0  0  0  0  0  0  0  0  0  0  0
   23.5750   19.6411   22.1303 N   0  0  0  0  0  0  0  0  0  0  0  0
   21.0293   22.5628   19.2285 C   0  0  0  0  0  0  0  0  0  0  0  0
   23.0779   21.0360   21.9915 C   0  0  0  0  0  0  0  0  0  0  0  0
   21.7848   21.5599   18.3207 C   0  0  0  0  0  0  0  0  0  0  0  0
   22.4473   21.1980   20.6287 C   0  0  0  0  0  0  0  0  0  0  0  0
   20.5538   24.2952   21.5399 C   0  0  0  0  0  0  0  0  0  0  0  0
   21.3769   22.1749   20.6377 C   0  0  0  0  0  0  0  0  0  0  0  0
   22.3408   20.5290   19.2814 C   0  0  0  0  0  0  0  0  0  0  0  0
   21.5325   23.2418   21.5613 O   0  0  0  0  0  0  0  0  0  0  0  0
  1  8  2  0
  2  8  1  0
  3  5  1  0
  4  6  1  0
  4  9  1  0
  5  7  1  0
  6 10  1  0
  7  9  1  0
  7 10  1  0
  8 11  1  0
  9 11  1  0
M  END
>  <ID>  (1) 
conformer_0

$$$$
