
     RDKit          3D

 29 30  0  0  0  0  0  0  0  0999 V2000
   22.8634   22.7307   17.5897 C   0  0  0  0  0  0  0  0  0  0  0  0
   24.9725   24.9592   17.6112 C   0  0  0  0  0  0  0  0  0  0  0  0
   21.7058   24.4028   21.0140 C   0  0  0  0  0  0  0  0  0  0  0  0
   24.2669   22.6472   18.1463 C   0  0  0  0  0  0  0  0  0  0  0  0
   19.9959   23.0419   22.5594 O   0  0  0  0  0  1  0  0  0  0  0  0
   23.4320   21.1819   19.9487 N   0  0  0  0  0  0  0  0  0  0  0  0
   25.9012   21.2028   19.5000 C   0  0  0  0  0  0  0  0  0  0  0  0
   24.0882   25.7357   20.4002 C   0  0  0  0  0  0  0  0  0  0  0  0
   24.4641   21.3318   18.9097 C   0  0  0  0  0  0  0  0  0  0  0  0
   26.2217   19.6978   19.6799 C   0  0  0  0  0  0  0  0  0  0  0  0
   26.0116   21.9309   20.8187 C   0  0  0  0  0  0  0  0  0  0  0  0
   21.7430   21.7207   17.7346 C   0  0  0  0  0  0  0  0  0  0  0  0
   23.1997   26.2515   21.3233 C   0  0  0  0  0  0  0  0  0  0  0  0
   20.0762   23.7092   21.1771 P   0  0  0  0  0  4  0  0  0  0  0  0
   22.5827   23.7670   16.5596 C   0  0  0  0  0  0  0  0  0  0  0  0
   24.6424   24.0141   18.7114 C   0  0  0  0  0  0  0  0  0  0  0  0
   26.2874   24.6915   17.2219 O   0  0  0  0  0  0  0  0  0  0  0  0
   22.0035   25.5886   21.6039 C   0  0  0  0  0  0  0  0  0  0  0  0
   23.8018   24.5092   19.8089 C   0  0  0  0  0  0  0  0  0  0  0  0
   21.4663   18.8941   21.6019 O   0  0  0  0  0  0  0  0  0  0  0  0
   23.3604   20.2801   21.0951 C   0  0  0  0  0  0  0  0  0  0  0  0
   19.0300   24.7194   21.1020 O   0  0  0  0  0  0  0  0  0  0  0  0
   22.8219   20.9768   22.3107 N   0  0  0  0  0  0  0  0  0  0  0  0
   26.9217   21.6769   18.4129 C   0  0  0  0  0  0  0  0  0  0  0  0
   22.6084   22.2891   20.1035 C   0  0  0  0  0  0  0  0  0  0  0  0
   22.7534   18.4823   19.8061 O   0  0  0  0  0  0  0  0  0  0  0  0
   22.7159   23.7687   20.2749 C   0  0  0  0  0  0  0  0  0  0  0  0
   19.7714   22.6400   20.0628 O   0  0  0  0  0  0  0  0  0  0  0  0
   22.4307   19.1184   20.8065 C   0  0  0  0  0  0  0  0  0  0  0  0
  1  4  1  0
  1 12  1  0
  1 15  1  0
  2 16  1  0
  2 17  1  0
  3 14  1  0
  3 18  2  0
  3 27  1  0
  4  9  1  0
  4 16  1  0
  5 14  2  0
  6  9  1  0
  6 21  1  0
  6 25  1  0
  7  9  1  0
  7 10  1  0
  7 11  1  0
  7 24  1  0
  8 13  2  0
  8 19  1  0
 13 18  1  0
 14 22  1  0
 14 28  1  0
 16 19  1  0
 19 27  1  0
 20 29  2  0
 21 23  1  0
 21 29  1  0
 25 27  1  0
 26 29  1  0
M  END
>  <ID>  (1) 
conformer_0

$$$$
