
     RDKit          3D

 33 35  0  0  0  0  0  0  0  0999 V2000
   19.8927   23.8488   21.1807 C   0  0  0  0  0  0  0  0  0  0  0  0
   18.7616   24.4319   21.2590 O   0  0  0  0  0  0  0  0  0  0  0  0
   21.0570   20.2576   20.8845 C   0  0  0  0  0  0  0  0  0  0  0  0
   23.6380   22.0791   23.6313 O   0  0  0  0  0  0  0  0  0  0  0  0
   24.0605   18.6571   19.8104 C   0  0  0  0  0  0  0  0  0  0  0  0
   25.2410   25.3970   21.7340 N   0  0  0  0  0  0  0  0  0  0  0  0
   22.7965   18.5401   20.5112 C   0  0  0  0  0  0  0  0  0  0  0  0
   23.8520   22.8266   17.0064 C   0  0  0  0  0  0  0  0  0  0  0  0
   25.2037   26.9386   18.5544 C   0  0  0  0  0  0  0  0  0  0  0  0
   25.4114   26.7905   19.8743 C   0  0  0  0  0  0  0  0  0  0  0  0
   24.3669   26.4001   17.6884 C   0  0  0  0  0  0  0  0  0  0  0  0
   23.6254   26.9897   21.2308 O   0  0  0  0  0  0  0  0  0  0  0  0
   24.6400   26.3621   20.9808 C   0  0  0  0  0  0  0  0  0  0  0  0
   22.3901   19.6595   21.3336 C   0  0  0  0  0  0  0  0  0  0  0  0
   23.4812   24.0323   22.3812 C   0  0  0  0  0  0  0  0  0  0  0  0
   24.4132   19.9892   19.2839 C   0  0  0  0  0  0  0  0  0  0  0  0
   23.2045   22.6491   22.6669 C   0  0  0  0  0  0  0  0  0  0  0  0
   23.3545   20.7669   21.4034 C   0  0  0  0  0  0  0  0  0  0  0  0
   24.8837   21.4597   16.8210 Cl  0  0  0  0  0  0  0  0  0  0  0  0
   24.7352   24.4254   22.3903 N   0  0  0  0  0  0  0  0  0  0  0  0
   22.4834   21.9642   21.7253 N   0  0  0  0  0  0  0  0  0  0  0  0
   21.0723   24.3234   21.7756 C   0  0  0  0  0  0  0  0  0  0  0  0
   23.7828   25.1753   17.3597 C   0  0  0  0  0  0  0  0  0  0  0  0
   24.2816   21.1028   20.2828 C   0  0  0  0  0  0  0  0  0  0  0  0
   22.4066   25.2106   17.0169 C   0  0  0  0  0  0  0  0  0  0  0  0
   21.0909   21.7336   21.3577 C   0  0  0  0  0  0  0  0  0  0  0  0
   21.3216   25.5511   21.9564 O   0  0  0  0  0  0  0  0  0  0  0  0
   22.2960   24.7160   22.0025 C   0  0  0  0  0  0  0  0  0  0  0  0
   22.4977   22.7501   16.7912 C   0  0  0  0  0  0  0  0  0  0  0  0
   21.7638   23.9719   16.8224 C   0  0  0  0  0  0  0  0  0  0  0  0
   21.6937   17.8249   20.2046 O   0  0  0  0  0  0  0  0  0  0  0  0
   19.8500   22.4249   20.8147 C   0  0  0  0  0  0  0  0  0  0  0  0
   24.4853   23.9947   17.3427 C   0  0  0  0  0  0  0  0  0  0  0  0
  1  2  2  0
  1 22  1  0
  1 32  1  0
  3 14  1  0
  3 26  1  0
  4 17  2  0
  5  7  1  0
  5 16  1  0
  6 13  1  0
  6 20  2  3
  7 14  1  0
  7 31  1  0
  8 19  1  0
  8 29  2  0
  8 33  1  0
  9 10  1  0
  9 11  1  0
 10 13  1  0
 11 23  1  0
 12 13  2  0
 14 18  1  0
 15 17  1  0
 15 20  1  0
 15 28  1  0
 16 24  1  0
 17 21  1  0
 18 21  1  0
 18 24  1  0
 21 26  1  0
 22 27  2  0
 23 25  1  0
 23 33  2  0
 25 30  2  0
 26 32  1  0
 29 30  1  0
M  END
>  <ID>  (1) 
conformer_0

$$$$
