
     RDKit          3D

 19 19  0  0  0  0  0  0  0  0999 V2000
   24.3759   22.5588   21.3501 C   0  0  0  0  0  0  0  0  0  0  0  0
   19.3531   23.7362   22.1410 O   0  0  0  0  0  0  0  0  0  0  0  0
   22.6220   20.7932   21.1992 C   0  0  0  0  0  0  0  0  0  0  0  0
   22.9078   20.4651   22.5517 O   0  0  0  0  0  0  0  0  0  0  0  0
   25.6976   22.1970   21.9770 C   0  0  0  0  0  0  0  0  0  0  0  0
   18.7939   23.3529   20.0406 O   0  0  0  0  0  0  0  0  0  0  0  0
   24.4287   22.5956   18.2647 C   0  0  0  0  0  0  0  0  0  0  0  0
   21.3421   18.6733   21.3946 C   0  0  0  0  0  0  0  0  0  0  0  0
   23.4480   23.1157   22.4409 C   0  0  0  0  0  0  0  0  0  0  0  0
   23.7576   21.4500   19.0386 C   0  0  0  0  0  0  0  0  0  0  0  0
   21.4371   22.4009   19.3882 C   0  0  0  0  0  0  0  0  0  0  0  0
   21.9739   23.2555   21.9281 C   0  0  0  0  0  0  0  0  0  0  0  0
   22.3135   21.4096   18.4846 C   0  0  0  0  0  0  0  0  0  0  0  0
   21.0587   23.0487   20.7444 C   0  0  0  0  0  0  0  0  0  0  0  0
   23.7016   21.5609   20.5237 C   0  0  0  0  0  0  0  0  0  0  0  0
   19.6682   23.5293   20.9457 C   0  0  0  0  0  0  0  0  0  0  0  0
   23.8131   22.7019   16.9411 O   0  0  0  0  0  0  0  0  0  0  0  0
   21.9788   19.6588   20.4401 C   0  0  0  0  0  0  0  0  0  0  0  0
   22.7734   19.0194   19.5136 O   0  0  0  0  0  0  0  0  0  0  0  0
  1  5  1  0
  1  9  1  0
  1 15  1  0
  2 16  2  0
  3  4  1  0
  3 15  1  0
  3 18  1  0
  6 16  1  0
  7 10  1  0
  7 17  1  0
  8 18  1  0
  9 12  1  0
 10 13  1  0
 10 15  1  0
 11 13  1  0
 11 14  1  0
 12 14  2  0
 14 16  1  0
 18 19  1  0
M  END
>  <ID>  (1) 
conformer_0

$$$$
