
     RDKit          3D

 15 14  0  0  0  0  0  0  0  0999 V2000
   22.2902   20.0548   20.0377 C   0  0  0  0  0  0  0  0  0  0  0  0
   23.3124   19.2330   19.6514 O   0  0  0  0  0  0  0  0  0  0  0  0
   20.1714   23.6937   21.6913 C   0  0  0  0  0  0  0  0  0  0  0  0
   21.5107   23.1849   21.9635 C   0  0  0  0  0  0  0  0  0  0  0  0
   22.2253   22.8141   17.4206 C   0  0  0  0  0  0  0  0  0  0  0  0
   22.1232   22.4434   20.9125 N   0  0  0  0  0  0  0  0  0  0  0  0
   21.2951   19.3312   20.7141 O   0  0  0  0  0  0  0  0  0  0  0  0
   22.7972   21.1549   21.0402 C   0  0  0  0  0  0  0  0  0  0  0  0
   24.6266   22.4967   21.9916 O   0  0  0  0  0  0  0  0  0  0  0  0
   22.6494   21.9977   18.5326 O   0  0  0  0  0  0  0  0  0  0  0  0
   23.6207   21.4608   22.3693 C   0  0  0  0  0  0  0  0  0  0  0  0
   19.6492   22.8337   19.5181 O   0  0  0  0  0  0  0  0  0  0  0  0
   21.7819   20.8493   18.8177 C   0  0  0  0  0  0  0  0  0  0  0  0
   19.3269   23.6478   22.6665 O   0  0  0  0  0  0  0  0  0  0  0  0
   19.7020   23.8384   20.3715 C   0  0  0  0  0  0  0  0  0  0  0  0
  1  2  1  0
  1  7  1  0
  1  8  1  0
  1 13  1  0
  3  4  1  0
  3 14  1  0
  3 15  1  0
  4  6  1  0
  5 10  1  0
  6  8  1  0
  8 11  1  0
  9 11  1  0
 10 13  1  0
 12 15  1  0
M  END
>  <ID>  (1) 
conformer_0

$$$$
