
     RDKit          3D

 16 16  0  0  0  0  0  0  0  0999 V2000
   22.2754   20.1629   20.7993 C   0  0  0  0  0  0  0  0  0  0  0  0
   22.7495   23.3442   20.5488 C   0  0  0  0  0  0  0  0  0  0  0  0
   19.6748   23.5893   22.1870 N   0  0  0  0  0  0  0  0  0  0  0  0
   22.9136   22.8450   19.2902 C   0  0  0  0  0  0  0  0  0  0  0  0
   23.1875   21.5888   18.9084 C   0  0  0  0  0  0  0  0  0  0  0  0
   23.0504   23.7793   18.0920 S   0  0  0  0  0  0  0  0  0  0  0  0
   18.7769   24.1194   21.2247 O   0  0  0  0  0  0  0  0  0  0  0  0
   22.1693   17.6659   21.0394 O   0  0  0  0  0  0  0  0  0  0  0  0
   23.1758   20.1679   22.0161 C   0  0  0  0  0  0  0  0  0  0  0  0
   21.3190   25.0292   22.1012 O   0  0  0  0  0  0  0  0  0  0  0  0
   21.4319   18.8784   20.7025 C   0  0  0  0  0  0  0  0  0  0  0  0
   20.9432   23.9205   21.9721 C   0  0  0  0  0  0  0  0  0  0  0  0
   22.8292   20.4941   19.5647 O   0  0  0  0  0  0  0  0  0  0  0  0
   23.7325   22.8496   17.0990 C   0  0  0  0  0  0  0  0  0  0  0  0
   21.6879   22.8306   21.4574 N   0  0  0  0  0  0  0  0  0  0  0  0
   23.8447   21.5562   17.6781 O   0  0  0  0  0  0  0  0  0  0  0  0
  1  9  1  0
  1 11  1  0
  1 13  1  0
  2  4  1  0
  2 15  1  0
  3  7  1  0
  3 12  1  0
  4  5  1  0
  4  6  1  0
  5 13  1  0
  5 16  1  0
  6 14  1  0
  8 11  1  0
 10 12  2  0
 12 15  1  0
 14 16  1  0
M  END
>  <ID>  (1) 
conformer_0

$$$$
