
     RDKit          3D

 17 17  0  0  0  0  0  0  0  0999 V2000
   21.9504   20.3656   19.8922 C   0  0  0  0  0  0  0  0  0  0  0  0
   24.9644   22.5461   19.6853 O   0  0  0  0  0  0  0  0  0  0  0  0
   20.5011   22.7005   19.2898 C   0  0  0  0  0  0  0  0  0  0  0  0
   21.4730   22.7923   18.0730 C   0  0  0  0  0  0  0  0  0  0  0  0
   22.4889   21.7363   20.2682 C   0  0  0  0  0  0  0  0  0  0  0  0
   22.9479   19.3165   20.3367 C   0  0  0  0  0  0  0  0  0  0  0  0
   20.6301   20.1212   20.3593 O   0  0  0  0  0  0  0  0  0  0  0  0
   24.6429   23.9604   17.3335 C   0  0  0  0  0  0  0  0  0  0  0  0
   23.9709   21.7919   20.2459 C   0  0  0  0  0  0  0  0  0  0  0  0
   21.3272   22.8019   20.6232 C   0  0  0  0  0  0  0  0  0  0  0  0
   22.5370   18.0504   20.3439 O   0  0  0  0  0  0  0  0  0  0  0  0
   19.1635   24.1353   21.2416 O   0  0  0  0  0  0  0  0  0  0  0  0
   24.6871   20.8035   21.1235 C   0  0  0  0  0  0  0  0  0  0  0  0
   22.3831   23.7392   21.0499 O   0  0  0  0  0  0  0  0  0  0  0  0
   20.1967   23.4189   21.5764 C   0  0  0  0  0  0  0  0  0  0  0  0
   23.7357   19.7202   21.5191 C   0  0  0  0  0  0  0  0  0  0  0  0
   23.0628   23.1468   17.6210 S   0  0  0  0  0  0  0  0  0  0  0  0
  1  5  1  0
  1  6  1  0
  1  7  1  0
  2  9  1  0
  3  4  1  0
  3 10  1  0
  4 17  1  0
  5  9  1  0
  5 10  1  0
  6 11  1  0
  6 16  1  0
  8 17  1  0
  9 13  1  0
 10 14  1  0
 10 15  1  0
 12 15  1  0
 13 16  1  0
M  END
>  <ID>  (1) 
conformer_0

$$$$
