
     RDKit          3D

 10 10  0  0  0  0  0  0  0  0999 V2000
   20.6727   21.5634   20.1620 C   0  0  0  0  0  0  0  0  0  0  0  0
   19.9578   23.5829   22.2181 O   0  0  0  0  0  0  0  0  0  0  0  0
   22.5007   21.9495   18.7908 C   0  0  0  0  0  0  0  0  0  0  0  0
   21.9739   23.0602   23.0002 O   0  0  0  0  0  0  0  0  0  0  0  0
   24.2070   22.7839   17.1126 C   0  0  0  0  0  0  0  0  0  0  0  0
   22.5451   22.7192   19.9730 C   0  0  0  0  0  0  0  0  0  0  0  0
   21.4592   22.5112   20.7882 C   0  0  0  0  0  0  0  0  0  0  0  0
   23.3357   21.8024   17.6920 C   0  0  0  0  0  0  0  0  0  0  0  0
   21.3164   21.2070   18.9393 C   0  0  0  0  0  0  0  0  0  0  0  0
   21.1259   23.1489   22.0696 C   0  0  0  0  0  0  0  0  0  0  0  0
  1  7  1  0
  1  9  1  0
  2 10  2  0
  3  6  1  0
  3  8  1  0
  3  9  1  0
  4 10  1  0
  5  8  1  0
  6  7  1  0
  7 10  1  0
M  END
>  <ID>  (1) 
conformer_0

$$$$
