
     RDKit          3D

 23 26  0  0  0  0  0  0  0  0999 V2000
   24.6990   21.3392   21.4260 C   0  0  0  0  0  0  0  0  0  0  0  0
   20.8128   23.9190   22.2811 C   0  0  0  0  0  0  0  0  0  0  0  0
   25.0589   24.5271   17.6555 C   0  0  0  0  0  0  0  0  0  0  0  0
   25.4121   24.2773   19.2421 C   0  0  0  0  0  0  0  0  0  0  0  0
   23.3604   21.5425   19.2213 C   0  0  0  0  0  0  0  0  0  0  0  0
   22.0116   21.2779   21.2613 C   0  0  0  0  0  0  0  0  0  0  0  0
   25.6935   22.6648   19.0401 C   0  0  0  0  0  0  0  0  0  0  0  0
   23.4142   21.9952   20.7421 C   0  0  0  0  0  0  0  0  0  0  0  0
   22.2248   23.5664   22.6213 C   0  0  0  0  0  0  0  0  0  0  0  0
   26.3397   23.8968   16.9721 C   0  0  0  0  0  0  0  0  0  0  0  0
   22.3307   23.0919   17.2191 C   0  0  0  0  0  0  0  0  0  0  0  0
   21.4053   18.7688   20.9845 C   0  0  0  0  0  0  0  0  0  0  0  0
   20.8931   22.1362   20.5467 C   0  0  0  0  0  0  0  0  0  0  0  0
   18.9817   23.5095   20.7724 F   0  0  0  0  0  0  0  0  0  0  0  0
   20.1967   23.2927   21.1214 C   0  0  0  0  0  0  0  0  0  0  0  0
   22.1901   17.5870   21.1390 O   0  0  0  0  0  0  0  0  0  0  0  0
   23.9294   23.3786   17.3531 C   0  0  0  0  0  0  0  0  0  0  0  0
   22.1640   19.9266   20.6029 C   0  0  0  0  0  0  0  0  0  0  0  0
   26.6289   22.5595   17.7210 C   0  0  0  0  0  0  0  0  0  0  0  0
   23.2017   23.4599   21.4258 C   0  0  0  0  0  0  0  0  0  0  0  0
   22.6693   20.1716   19.2021 C   0  0  0  0  0  0  0  0  0  0  0  0
   24.3741   22.2254   18.3436 C   0  0  0  0  0  0  0  0  0  0  0  0
   22.7470   24.3941   16.8367 C   0  0  0  0  0  0  0  0  0  0  0  0
  1  8  1  0
  2  9  1  0
  2 15  2  0
  3  4  1  0
  3 10  1  0
  3 17  1  0
  4  7  1  0
  5  8  1  0
  5 21  1  0
  5 22  1  0
  6  8  1  0
  6 13  1  0
  6 18  1  0
  7 19  1  0
  7 22  1  0
  8 20  1  0
  9 20  1  0
 10 19  1  0
 11 17  1  0
 11 23  1  0
 12 16  1  0
 12 18  1  0
 13 15  1  0
 14 15  1  0
 17 22  1  0
 18 21  1  0
M  END
>  <ID>  (1) 
conformer_0

$$$$
