
     RDKit          3D

 17 19  0  0  0  0  0  0  0  0999 V2000
   19.6632   22.7356   20.6823 F   0  0  0  0  0  0  0  0  0  0  0  0
   22.9450   23.6873   16.9993 C   0  0  0  0  0  0  0  0  0  0  0  0
   20.5312   24.6019   21.3864 F   0  0  0  0  0  0  0  0  0  0  0  0
   23.2910   21.4431   18.1133 C   0  0  0  0  0  0  0  0  0  0  0  0
   22.2985   21.4647   20.7149 C   0  0  0  0  0  0  0  0  0  0  0  0
   24.8235   20.7578   19.8490 C   0  0  0  0  0  0  0  0  0  0  0  0
   24.4368   22.0189   20.3009 C   0  0  0  0  0  0  0  0  0  0  0  0
   22.4017   22.7732   18.1214 C   0  0  0  0  0  0  0  0  0  0  0  0
   23.7938   19.8123   21.7999 C   0  0  0  0  0  0  0  0  0  0  0  0
   21.9930   22.9054   20.6334 C   0  0  0  0  0  0  0  0  0  0  0  0
   23.3098   21.0757   19.6603 C   0  0  0  0  0  0  0  0  0  0  0  0
   24.0607   19.6312   20.3114 C   0  0  0  0  0  0  0  0  0  0  0  0
   22.8055   20.9092   22.0445 C   0  0  0  0  0  0  0  0  0  0  0  0
   21.8455   20.5305   19.7652 C   0  0  0  0  0  0  0  0  0  0  0  0
   24.1636   23.4002   19.7474 C   0  0  0  0  0  0  0  0  0  0  0  0
   22.6250   23.5329   19.4640 C   0  0  0  0  0  0  0  0  0  0  0  0
   20.6649   23.4317   20.9703 C   0  0  0  0  0  0  0  0  0  0  0  0
  1 17  1  0
  2  8  1  0
  3 17  1  0
  4  8  1  0
  4 11  1  0
  5 10  1  0
  5 11  1  0
  5 13  1  0
  5 14  1  0
  6  7  1  0
  6 11  1  0
  6 12  1  0
  7 15  1  0
  8 16  1  0
  9 12  1  0
  9 13  1  0
 10 16  1  0
 10 17  1  0
 15 16  1  0
M  END
>  <ID>  (1) 
conformer_0

$$$$
