
     RDKit          3D

 21 23  0  0  0  0  0  0  0  0999 V2000
   21.7009   17.8015   21.1899 O   0  0  0  0  0  0  0  0  0  0  0  0
   21.6276   19.8412   19.9894 C   0  0  0  0  0  0  0  0  0  0  0  0
   24.9914   24.3040   17.1777 C   0  0  0  0  0  0  0  0  0  0  0  0
   19.7922   23.3821   23.0035 O   0  0  0  0  0  1  0  0  0  0  0  0
   20.9365   22.3552   20.8970 C   0  0  0  0  0  0  0  0  0  0  0  0
   22.8763   20.5681   19.5332 C   0  0  0  0  0  0  0  0  0  0  0  0
   20.6349   25.1061   21.4055 O   0  0  0  0  0  0  0  0  0  0  0  0
   18.7128   23.6442   20.7888 O   0  0  0  0  0  0  0  0  0  0  0  0
   26.1875   22.5160   18.3883 C   0  0  0  0  0  0  0  0  0  0  0  0
   24.9667   21.6406   18.5213 C   0  0  0  0  0  0  0  0  0  0  0  0
   26.0017   23.1626   16.9858 C   0  0  0  0  0  0  0  0  0  0  0  0
   22.0549   22.8886   19.9512 C   0  0  0  0  0  0  0  0  0  0  0  0
   23.0376   23.5240   20.6608 O   0  0  0  0  0  0  0  0  0  0  0  0
   21.9396   19.1347   21.3008 C   0  0  0  0  0  0  0  0  0  0  0  0
   23.6430   20.7047   20.7649 O   0  0  0  0  0  0  0  0  0  0  0  0
   22.4886   21.9223   18.8917 C   0  0  0  0  0  0  0  0  0  0  0  0
   20.0136   23.6926   21.5201 P   0  0  0  0  0  4  0  0  0  0  0  0
   20.6390   20.9560   20.3994 C   0  0  0  0  0  0  0  0  0  0  0  0
   23.6322   23.8117   17.6449 C   0  0  0  0  0  0  0  0  0  0  0  0
   23.7279   22.4288   18.2050 C   0  0  0  0  0  0  0  0  0  0  0  0
   23.3289   19.5418   21.6323 C   0  0  0  0  0  0  0  0  0  0  0  0
  1 14  1  0
  2  6  1  0
  2 14  1  0
  2 18  1  0
  3 11  1  0
  3 19  1  0
  4 17  2  0
  5 12  1  0
  5 17  1  0
  5 18  1  0
  6 15  1  0
  6 16  1  0
  7 17  1  0
  8 17  1  0
  9 10  1  0
  9 11  1  0
 10 20  1  0
 12 13  1  0
 12 16  1  0
 14 21  1  0
 15 21  1  0
 16 20  1  0
 19 20  1  0
M  END
>  <ID>  (1) 
conformer_0

$$$$
