
     RDKit          3D

 11 10  0  0  0  0  0  0  0  0999 V2000
   21.5123   21.7046   18.2988 C   0  0  0  0  0  0  0  0  0  0  0  0
   20.4382   23.3099   20.7181 C   0  0  0  0  0  0  0  0  0  0  0  0
   23.2903   23.2383   18.4907 C   0  0  0  0  0  0  0  0  0  0  0  0
   22.6671   22.4999   21.6301 C   0  0  0  0  0  0  0  0  0  0  0  0
   21.9072   23.0770   20.4820 C   0  0  0  0  0  0  0  0  0  0  0  0
   23.1913   21.2509   22.3024 C   0  0  0  0  0  0  0  0  0  0  0  0
   22.2436   22.6246   19.1801 N   0  0  0  0  0  0  0  0  0  0  0  0
   23.5294   22.9146   17.0362 C   0  0  0  0  0  0  0  0  0  0  0  0
   23.9611   24.1550   19.0609 O   0  0  0  0  0  0  0  0  0  0  0  0
   20.1139   23.8699   21.7960 O   0  0  0  0  0  0  0  0  0  0  0  0
   19.5961   22.9858   19.8681 O   0  0  0  0  0  0  0  0  0  0  0  0
  1  7  1  0
  2  5  1  0
  2 10  2  0
  2 11  1  0
  3  7  1  0
  3  8  1  0
  3  9  2  0
  4  5  1  0
  4  6  1  0
  5  7  1  0
M  END
>  <ID>  (1) 
conformer_0

$$$$
