
     RDKit          3D

 17 17  0  0  0  0  0  0  0  0999 V2000
   22.8987   21.3311   21.5544 C   0  0  0  0  0  0  0  0  0  0  0  0
   21.7715   18.3868   20.7904 C   0  0  0  0  0  0  0  0  0  0  0  0
   20.5316   23.8682   21.1042 C   0  0  0  0  0  0  0  0  0  0  0  0
   20.8461   22.8036   20.0729 C   0  0  0  0  0  0  0  0  0  0  0  0
   22.8959   20.6147   20.1843 C   0  0  0  0  0  0  0  0  0  0  0  0
   21.4808   24.6326   21.4352 O   0  0  0  0  0  0  0  0  0  0  0  0
   22.7397   23.2765   16.9147 C   0  0  0  0  0  0  0  0  0  0  0  0
   20.4718   18.1928   21.3412 O   0  0  0  0  0  0  0  0  0  0  0  0
   24.5265   22.2218   19.1330 C   0  0  0  0  0  0  0  0  0  0  0  0
   23.0236   21.6887   19.0247 C   0  0  0  0  0  0  0  0  0  0  0  0
   22.2033   23.9567   18.2401 C   0  0  0  0  0  0  0  0  0  0  0  0
   19.3941   23.8883   21.6062 O   0  0  0  0  0  0  0  0  0  0  0  0
   24.3089   23.2982   16.9966 C   0  0  0  0  0  0  0  0  0  0  0  0
   21.6679   19.7010   19.9817 C   0  0  0  0  0  0  0  0  0  0  0  0
   22.1251   22.8871   19.3169 C   0  0  0  0  0  0  0  0  0  0  0  0
   24.0540   19.8181   20.1482 O   0  0  0  0  0  0  0  0  0  0  0  0
   24.7384   23.6392   18.5047 C   0  0  0  0  0  0  0  0  0  0  0  0
  1  5  1  0
  2  8  1  0
  2 14  1  0
  3  4  1  0
  3  6  2  0
  3 12  1  0
  4 15  1  0
  5 10  1  0
  5 14  1  0
  5 16  1  0
  7 11  1  0
  7 13  1  0
  9 10  1  0
  9 17  1  0
 10 15  1  0
 11 15  1  0
 13 17  1  0
M  END
>  <ID>  (1) 
conformer_0

$$$$
