
     RDKit          3D

 16 17  0  0  0  0  0  0  0  0999 V2000
   22.6194   21.3601   19.5201 C   0  0  0  0  0  0  0  0  0  0  0  0
   25.0940   21.2431   21.1977 C   0  0  0  0  0  0  0  0  0  0  0  0
   22.9130   22.1014   20.7960 C   0  0  0  0  0  0  0  0  0  0  0  0
   23.9615   20.8852   18.9475 C   0  0  0  0  0  0  0  0  0  0  0  0
   20.7589   22.8822   19.1753 C   0  0  0  0  0  0  0  0  0  0  0  0
   19.4182   23.7202   22.4599 O   0  0  0  0  0  0  0  0  0  0  0  0
   23.6324   21.0047   21.6349 C   0  0  0  0  0  0  0  0  0  0  0  0
   19.4783   23.8312   21.0747 C   0  0  0  0  0  0  0  0  0  0  0  0
   22.5018   23.1694   16.4349 O   0  0  0  0  0  0  0  0  0  0  0  0
   23.2537   23.3590   20.9153 O   0  0  0  0  0  0  0  0  0  0  0  0
   20.4168   22.7541   20.6551 C   0  0  0  0  0  0  0  0  0  0  0  0
   21.9205   22.2137   18.5274 C   0  0  0  0  0  0  0  0  0  0  0  0
   22.9188   23.0947   17.7614 C   0  0  0  0  0  0  0  0  0  0  0  0
   25.1297   21.5692   19.6782 C   0  0  0  0  0  0  0  0  0  0  0  0
   22.6875   19.7956   21.3685 C   0  0  0  0  0  0  0  0  0  0  0  0
   21.8572   20.1659   20.0299 C   0  0  0  0  0  0  0  0  0  0  0  0
  1  3  1  0
  1  4  1  0
  1 12  1  0
  1 16  1  0
  2  7  1  0
  2 14  1  0
  3  7  1  0
  3 10  1  0
  4 14  1  0
  5 11  1  0
  5 12  1  0
  6  8  1  0
  7 15  1  0
  8 11  1  0
  9 13  1  0
 12 13  1  0
 15 16  1  0
M  END
>  <ID>  (1) 
conformer_0

$$$$
