
     RDKit          3D

 31 34  0  0  0  0  0  0  0  0999 V2000
   22.8465   19.2536   20.6284 C   0  0  0  0  0  0  0  0  0  0  0  0
   20.1146   23.3257   22.3588 O   0  0  0  0  0  0  0  0  0  0  0  0
   22.0063   18.4960   20.0372 O   0  0  0  0  0  0  0  0  0  0  0  0
   20.6812   24.0392   21.3898 C   0  0  0  0  0  0  0  0  0  0  0  0
   25.0037   22.3967   22.0049 C   0  0  0  0  0  0  0  0  0  0  0  0
   24.4469   25.3570   19.3882 C   0  0  0  0  0  0  0  0  0  0  0  0
   23.1645   21.7646   20.0102 C   0  0  0  0  0  0  0  0  0  0  0  0
   22.1283   21.1493   19.2408 C   0  0  0  0  0  0  0  0  0  0  0  0
   24.3137   26.9377   17.6965 O   0  0  0  0  0  0  0  0  0  0  0  0
   23.3371   20.4480   19.8705 C   0  0  0  0  0  0  0  0  0  0  0  0
   24.8492   20.1403   19.6083 C   0  0  0  0  0  0  0  0  0  0  0  0
   24.0777   23.6422   21.5651 C   0  0  0  0  0  0  0  0  0  0  0  0
   23.2144   24.9104   17.2250 C   0  0  0  0  0  0  0  0  0  0  0  0
   25.6121   23.6953   23.7914 C   0  0  0  0  0  0  0  0  0  0  0  0
   20.8498   21.9797   19.8365 C   0  0  0  0  0  0  0  0  0  0  0  0
   22.9828   25.5103   19.8694 C   0  0  0  0  0  0  0  0  0  0  0  0
   22.4894   23.9129   18.0418 C   0  0  0  0  0  0  0  0  0  0  0  0
   18.6423   23.6901   20.0725 C   0  0  0  0  0  0  0  0  0  0  0  0
   22.2750   24.1584   19.5155 C   0  0  0  0  0  0  0  0  0  0  0  0
   23.4974   18.9660   21.7356 O   0  0  0  0  0  0  0  0  0  0  0  0
   26.1761   23.4310   22.3615 C   0  0  0  0  0  0  0  0  0  0  0  0
   20.9441   23.5274   19.9792 C   0  0  0  0  0  0  0  0  0  0  0  0
   20.6999   25.4303   21.5828 C   0  0  0  0  0  0  0  0  0  0  0  0
   25.6364   25.0762   20.2042 C   0  0  0  0  0  0  0  0  0  0  0  0
   19.7713   24.1169   19.1260 C   0  0  0  0  0  0  0  0  0  0  0  0
   21.7788   22.8499   17.2291 C   0  0  0  0  0  0  0  0  0  0  0  0
   25.3224   24.6111   21.5979 C   0  0  0  0  0  0  0  0  0  0  0  0
   24.4649   25.5034   17.8743 C   0  0  0  0  0  0  0  0  0  0  0  0
   18.1091   24.5773   20.9777 O   0  0  0  0  0  0  0  0  0  0  0  0
   20.6581   21.0915   21.1301 C   0  0  0  0  0  0  0  0  0  0  0  0
   23.3541   23.1679   20.3219 C   0  0  0  0  0  0  0  0  0  0  0  0
  1  3  2  0
  1 10  1  0
  1 20  1  0
  2  4  1  0
  4 22  1  0
  4 23  1  0
  5 12  1  0
  5 21  1  0
  6 16  1  0
  6 24  1  0
  6 28  1  0
  7  8  1  0
  7 10  1  0
  7 31  1  0
  8 15  1  0
  9 28  1  0
 10 11  1  0
 12 27  1  0
 12 31  1  0
 13 17  1  0
 13 28  1  0
 14 21  1  0
 15 22  1  0
 15 30  1  0
 16 19  1  0
 17 19  1  0
 17 26  1  0
 18 25  1  0
 18 29  1  0
 19 22  1  0
 19 31  1  0
 21 27  1  0
 22 25  1  0
 24 27  1  0
M  END
>  <ID>  (1) 
conformer_0

$$$$
