
     RDKit          3D

 23 22  0  0  0  0  0  0  0  0999 V2000
   19.0440   24.4231   21.4066 O   0  0  0  0  0  0  0  0  0  0  0  0
   23.3983   24.9758   17.4336 C   0  0  0  0  0  0  0  0  0  0  0  0
   21.5381   22.5228   19.0142 O   0  0  0  0  0  0  0  0  0  0  0  0
   22.9562   18.4189   20.4030 C   0  0  0  0  0  0  0  0  0  0  0  0
   23.1256   25.9166   19.6956 C   0  0  0  0  0  0  0  0  0  0  0  0
   22.6528   23.7946   16.8859 C   0  0  0  0  0  0  0  0  0  0  0  0
   23.0769   21.8567   22.4866 C   0  0  0  0  0  0  0  0  0  0  0  0
   22.3540   23.1210   20.0831 C   0  0  0  0  0  0  0  0  0  0  0  0
   22.4958   21.9448   21.0733 C   0  0  0  0  0  0  0  0  0  0  0  0
   19.9766   22.3824   20.9662 C   0  0  0  0  0  0  0  0  0  0  0  0
   23.7804   18.0034   19.5513 O   0  0  0  0  0  0  0  0  0  0  0  0
   25.2012   25.2205   18.9031 O   0  0  0  0  0  0  0  0  0  0  0  0
   24.4912   21.5652   22.6832 F   0  0  0  0  0  0  0  0  0  0  0  0
   20.1529   23.8211   21.4512 C   0  0  0  0  0  0  0  0  0  0  0  0
   21.7250   18.1793   20.5312 O   0  0  0  0  0  0  0  0  0  0  0  0
   20.3660   21.8646   19.5676 C   0  0  0  0  0  0  0  0  0  0  0  0
   23.4498   19.6231   21.2118 C   0  0  0  0  0  0  0  0  0  0  0  0
   22.0470   22.6288   17.6636 C   0  0  0  0  0  0  0  0  0  0  0  0
   21.1217   24.3451   22.1327 O   0  0  0  0  0  0  0  0  0  0  0  0
   24.7321   23.3077   20.5295 O   0  0  0  0  0  0  0  0  0  0  0  0
   23.8419   24.8533   18.8970 C   0  0  0  0  0  0  0  0  0  0  0  0
   23.0937   20.8260   20.2859 C   0  0  0  0  0  0  0  0  0  0  0  0
   23.7239   23.4858   19.5457 C   0  0  0  0  0  0  0  0  0  0  0  0
  1 14  2  0
  2  6  2  3
  2 21  1  0
  3 16  1  0
  3 18  1  0
  4 11  2  0
  4 15  1  0
  4 17  1  0
  5 21  1  0
  6 18  1  0
  7  9  1  0
  7 13  1  0
  8  9  1  0
  8 23  1  0
  9 22  1  0
 10 14  1  0
 10 16  1  0
 12 21  1  0
 14 19  1  0
 17 22  1  0
 20 23  1  0
 21 23  1  0
M  END
>  <ID>  (1) 
conformer_0

$$$$
