
     RDKit          3D

 19 19  0  0  0  0  0  0  0  0999 V2000
   21.7584   23.3228   17.1624 O   0  0  0  0  0  0  0  0  0  0  0  0
   23.0562   22.7558   19.2357 C   0  0  0  0  0  0  0  0  0  0  0  0
   21.4214   19.1097   20.5789 C   0  0  0  0  0  0  0  0  0  0  0  0
   20.7358   20.4004   20.6203 C   0  0  0  0  0  0  0  0  0  0  0  0
   21.7120   23.1223   18.5636 C   0  0  0  0  0  0  0  0  0  0  0  0
   24.3278   23.1577   17.0440 C   0  0  0  0  0  0  0  0  0  0  0  0
   22.8979   21.5839   20.2743 C   0  0  0  0  0  0  0  0  0  0  0  0
   22.7899   23.3893   21.7468 O   0  0  0  0  0  0  0  0  0  0  0  0
   19.4785   23.7549   22.5970 O   0  0  0  0  0  0  0  0  0  0  0  0
   22.5561   18.9045   20.1371 O   0  0  0  0  0  0  0  0  0  0  0  0
   23.4533   22.0170   21.6678 C   0  0  0  0  0  0  0  0  0  0  0  0
   19.0103   23.3503   20.5256 O   0  0  0  0  0  0  0  0  0  0  0  0
   19.8311   23.5978   21.4362 C   0  0  0  0  0  0  0  0  0  0  0  0
   24.9231   21.9475   21.8695 C   0  0  0  0  0  0  0  0  0  0  0  0
   20.6510   18.1803   21.0924 O   0  0  0  0  0  0  0  0  0  0  0  0
   21.3554   23.2625   21.2395 C   0  0  0  0  0  0  0  0  0  0  0  0
   21.3784   21.7852   20.6960 C   0  0  0  0  0  0  0  0  0  0  0  0
   23.8756   22.1232   18.0536 C   0  0  0  0  0  0  0  0  0  0  0  0
   22.9160   21.2028   22.8629 C   0  0  0  0  0  0  0  0  0  0  0  0
  1  5  1  0
  2  5  1  0
  2  7  1  0
  2 18  1  0
  3  4  1  0
  3 10  2  0
  3 15  1  0
  4 17  1  0
  6 18  1  0
  7 11  1  0
  7 17  1  0
  8 11  1  0
  8 16  1  0
  9 13  2  0
 11 14  1  0
 11 19  1  0
 12 13  1  0
 13 16  1  0
 16 17  1  0
M  END
>  <ID>  (1) 
conformer_0

$$$$
