
     RDKit          3D

 29 31  0  0  0  0  0  0  0  0999 V2000
   24.0626   25.0916   21.9648 C   0  0  0  0  0  0  0  0  0  0  0  0
   22.5234   22.6523   18.6250 C   0  0  0  0  0  0  0  0  0  0  0  0
   21.7196   22.9115   16.3979 C   0  0  0  0  0  0  0  0  0  0  0  0
   23.9185   25.8887   17.2616 C   0  0  0  0  0  0  0  0  0  0  0  0
   22.5241   21.9726   19.8462 O   0  0  0  0  0  0  0  0  0  0  0  0
   24.5482   21.9636   21.3753 C   0  0  0  0  0  0  0  0  0  0  0  0
   18.7060   24.4549   21.2519 O   0  0  0  0  0  0  0  0  0  0  0  0
   23.6047   22.7637   22.3283 C   0  0  0  0  0  0  0  0  0  0  0  0
   23.4221   26.3465   21.3443 C   0  0  0  0  0  0  0  0  0  0  0  0
   25.4903   19.0915   19.9542 C   0  0  0  0  0  0  0  0  0  0  0  0
   21.7434   22.1776   17.5765 C   0  0  0  0  0  0  0  0  0  0  0  0
   23.2718   23.7810   18.4545 C   0  0  0  0  0  0  0  0  0  0  0  0
   19.7306   23.5152   21.2613 C   0  0  0  0  0  0  0  0  0  0  0  0
   21.7559   24.7011   22.1005 C   0  0  0  0  0  0  0  0  0  0  0  0
   24.6582   19.1719   21.2525 C   0  0  0  0  0  0  0  0  0  0  0  0
   22.5657   20.1063   22.2970 O   0  0  0  0  0  0  0  0  0  0  0  0
   23.2701   19.8408   21.0618 C   0  0  0  0  0  0  0  0  0  0  0  0
   24.6631   24.9463   23.1460 O   0  0  0  0  0  0  0  0  0  0  0  0
   23.4871   27.9171   18.4118 O   0  0  0  0  0  0  0  0  0  0  0  0
   20.6480   23.7124   22.4496 C   0  0  0  0  0  0  0  0  0  0  0  0
   23.9380   26.7169   18.4529 C   0  0  0  0  0  0  0  0  0  0  0  0
   23.0206   24.0188   21.6790 C   0  0  0  0  0  0  0  0  0  0  0  0
   24.0809   26.2923   19.8825 C   0  0  0  0  0  0  0  0  0  0  0  0
   23.2157   24.5786   17.3573 C   0  0  0  0  0  0  0  0  0  0  0  0
   21.9360   26.0474   21.4985 O   0  0  0  0  0  0  0  0  0  0  0  0
   23.6638   21.1844   20.3304 C   0  0  0  0  0  0  0  0  0  0  0  0
   22.3298   18.9760   20.1771 C   0  0  0  0  0  0  0  0  0  0  0  0
   22.4563   24.0791   16.2594 C   0  0  0  0  0  0  0  0  0  0  0  0
   22.4839   17.5978   20.7186 O   0  0  0  0  0  0  0  0  0  0  0  0
  1  9  1  0
  1 18  1  0
  1 22  1  0
  2  5  1  0
  2 11  2  0
  2 12  1  0
  3 11  1  0
  3 28  2  0
  4 21  1  0
  4 24  1  0
  5 26  1  0
  6  8  1  0
  6 26  1  0
  7 13  1  0
  8 22  1  0
  9 23  1  0
  9 25  1  0
 10 15  1  0
 12 24  2  0
 13 20  1  0
 14 20  1  0
 14 22  1  0
 14 25  1  0
 15 17  1  0
 16 17  1  0
 17 26  1  0
 17 27  1  0
 19 21  2  0
 21 23  1  0
 24 28  1  0
 27 29  1  0
M  END
>  <ID>  (1) 
conformer_0

$$$$
