
     RDKit          3D

 11 10  0  0  0  0  0  0  0  0999 V2000
   20.3207   22.8522   20.4158 O   0  0  0  0  0  0  0  0  0  0  0  0
   23.0668   24.4247   19.1722 C   0  0  0  0  0  0  0  0  0  0  0  0
   21.0918   19.8845   20.0970 O   0  0  0  0  0  0  0  0  0  0  0  0
   22.2559   20.1237   20.6801 C   0  0  0  0  0  0  0  0  0  0  0  0
   22.9961   19.4759   21.4623 O   0  0  0  0  0  0  0  0  0  0  0  0
   22.5502   21.6377   20.6075 C   0  0  0  0  0  0  0  0  0  0  0  0
   22.7920   21.8818   19.0837 C   0  0  0  0  0  0  0  0  0  0  0  0
   21.4984   23.0263   22.2680 O   0  0  0  0  0  0  0  0  0  0  0  0
   21.3936   22.5557   21.0582 C   0  0  0  0  0  0  0  0  0  0  0  0
   22.3718   23.2341   16.9386 C   0  0  0  0  0  0  0  0  0  0  0  0
   22.2394   23.2201   18.5350 C   0  0  0  0  0  0  0  0  0  0  0  0
  1  9  2  0
  2 11  1  0
  3  4  2  0
  4  5  1  0
  4  6  1  0
  6  7  1  0
  6  9  1  0
  7 11  1  0
  8  9  1  0
 10 11  1  0
M  END
>  <ID>  (1) 
conformer_0

$$$$
