
     RDKit          3D

 20 22  0  0  0  0  0  0  0  0999 V2000
   22.5665   22.7521   19.7246 C   0  0  0  0  0  0  0  0  0  0  0  0
   23.1326   20.6616   20.6952 C   0  0  0  0  0  0  0  0  0  0  0  0
   24.7261   22.8829   22.7453 C   0  0  0  0  0  0  0  0  0  0  0  0
   22.9967   23.8167   17.5517 C   0  0  0  0  0  0  0  0  0  0  0  0
   23.6289   19.9120   21.6884 O   0  0  0  0  0  0  0  0  0  0  0  0
   22.6764   22.4254   18.2142 S   0  0  0  0  0  0  0  0  0  0  0  0
   18.8722   24.1482   21.0411 O   0  0  0  0  0  0  0  0  0  0  0  0
   25.7619   22.7601   19.5894 C   0  0  0  0  0  0  0  0  0  0  0  0
   23.6178   22.0817   20.6560 C   0  0  0  0  0  0  0  0  0  0  0  0
   23.2089   24.1305   19.8721 C   0  0  0  0  0  0  0  0  0  0  0  0
   22.2718   23.6120   22.1880 C   0  0  0  0  0  0  0  0  0  0  0  0
   21.6264   20.6519   20.4687 C   0  0  0  0  0  0  0  0  0  0  0  0
   19.5800   23.5290   22.9958 O   0  0  0  0  0  0  0  0  0  0  0  0
   19.7670   23.7579   21.7775 C   0  0  0  0  0  0  0  0  0  0  0  0
   21.1896   19.1700   20.7719 C   0  0  0  0  0  0  0  0  0  0  0  0
   23.3968   22.6417   22.0567 C   0  0  0  0  0  0  0  0  0  0  0  0
   21.2595   22.2331   20.3175 C   0  0  0  0  0  0  0  0  0  0  0  0
   24.4570   23.3357   20.0450 C   0  0  0  0  0  0  0  0  0  0  0  0
   22.0770   18.1643   20.3944 O   0  0  0  0  0  0  0  0  0  0  0  0
   21.0808   23.4445   21.2635 C   0  0  0  0  0  0  0  0  0  0  0  0
  1  6  1  0
  1  9  1  0
  1 10  1  0
  1 17  1  0
  2  5  1  0
  2  9  1  0
  2 12  1  0
  3 16  1  0
  4  6  1  0
  7 14  2  0
  8 18  1  0
  9 16  1  0
  9 18  1  0
 10 18  1  0
 11 16  1  0
 11 20  1  0
 12 15  1  0
 12 17  1  0
 13 14  1  0
 14 20  1  0
 15 19  1  0
 17 20  1  0
M  END
>  <ID>  (1) 
conformer_0

$$$$
