
     RDKit          3D

 27 28  0  0  0  0  0  0  0  0999 V2000
   20.4403   23.8220   24.0602 O   0  0  0  0  0  0  0  0  0  0  0  0
   23.3569   21.3401   18.9630 O   0  0  0  0  0  0  0  0  0  0  0  0
   22.5267   19.0374   19.7257 C   0  0  0  0  0  0  0  0  0  0  0  0
   23.9546   19.2517   19.8406 O   0  0  0  0  0  0  0  0  0  0  0  0
   23.7736   25.4030   18.0880 C   0  0  0  0  0  0  0  0  0  0  0  0
   20.7160   23.3118   21.5768 C   0  0  0  0  0  0  0  0  0  0  0  0
   23.7667   23.1072   21.1322 C   0  0  0  0  0  0  0  0  0  0  0  0
   19.2999   23.6861   21.6689 O   0  0  0  0  0  0  0  0  0  0  0  0
   22.9537   24.5706   17.2885 C   0  0  0  0  0  0  0  0  0  0  0  0
   22.4771   25.0550   16.1643 O   0  0  0  0  0  0  0  0  0  0  0  0
   24.5597   23.8618   22.1471 C   0  0  0  0  0  0  0  0  0  0  0  0
   24.2098   24.8727   19.2981 C   0  0  0  0  0  0  0  0  0  0  0  0
   24.3918   20.5682   19.5404 C   0  0  0  0  0  0  0  0  0  0  0  0
   22.3534   23.0109   21.6734 O   0  0  0  0  0  0  0  0  0  0  0  0
   20.5087   22.7355   20.0927 C   0  0  0  0  0  0  0  0  0  0  0  0
   19.6565   21.5935   20.1191 O   0  0  0  0  0  0  0  0  0  0  0  0
   23.2955   22.7421   18.7787 C   0  0  0  0  0  0  0  0  0  0  0  0
   21.6945   22.4831   17.0564 Cl  0  0  0  0  0  0  0  0  0  0  0  0
   22.0329   19.2153   21.1196 C   0  0  0  0  0  0  0  0  0  0  0  0
   23.7988   23.5749   19.7186 C   0  0  0  0  0  0  0  0  0  0  0  0
   25.5069   20.9134   19.8984 O   0  0  0  0  0  0  0  0  0  0  0  0
   23.4897   24.7723   22.6901 O   0  0  0  0  0  0  0  0  0  0  0  0
   25.0013   25.6677   20.0107 O   0  0  0  0  0  0  0  0  0  0  0  0
   22.6882   23.2809   17.6921 C   0  0  0  0  0  0  0  0  0  0  0  0
   22.3522   17.9349   20.8785 O   0  0  0  0  0  0  0  0  0  0  0  0
   22.5039   23.7614   23.0111 C   0  0  0  0  0  0  0  0  0  0  0  0
   21.0900   24.3893   22.9214 C   0  0  0  0  0  0  0  0  0  0  0  0
  1 27  1  0
  2 13  1  0
  2 17  1  0
  3  4  1  0
  3 19  1  0
  4 13  1  0
  5  9  1  0
  5 12  2  0
  6  8  1  0
  6 15  1  0
  6 27  1  0
  7 11  1  0
  7 14  1  0
  7 20  1  0
  9 10  1  0
  9 24  2  0
 11 22  1  0
 12 20  1  0
 12 23  1  0
 13 21  2  0
 14 26  1  0
 15 16  1  0
 17 20  1  0
 17 24  1  0
 18 24  1  0
 19 25  1  0
 22 26  1  0
 26 27  1  0
M  END
>  <ID>  (1) 
conformer_0

$$$$
