
     RDKit          3D

 16 16  0  0  0  0  0  0  0  0999 V2000
   20.9613   22.5120   18.9994 C   0  0  0  0  0  0  0  0  0  0  0  0
   20.2930   23.6779   22.2515 O   0  0  0  0  0  0  0  0  0  0  0  0
   20.0713   23.2543   21.0834 C   0  0  0  0  0  0  0  0  0  0  0  0
   21.1574   22.5999   20.3593 C   0  0  0  0  0  0  0  0  0  0  0  0
   19.0025   23.4016   20.5579 O   0  0  0  0  0  0  0  0  0  0  0  0
   23.6921   21.9859   20.1616 C   0  0  0  0  0  0  0  0  0  0  0  0
   23.1162   20.8075   21.0250 C   0  0  0  0  0  0  0  0  0  0  0  0
   22.0742   20.2263   20.0294 C   0  0  0  0  0  0  0  0  0  0  0  0
   24.7743   22.8661   17.8062 S   0  0  0  0  0  0  0  0  0  0  0  0
   21.0381   21.3020   19.8266 C   0  0  0  0  0  0  0  0  0  0  0  0
   23.4170   21.9991   18.6112 C   0  0  0  0  0  0  0  0  0  0  0  0
   22.1885   23.7312   17.3469 O   0  0  0  0  0  0  0  0  0  0  0  0
   21.9682   18.9177   20.0144 O   0  0  0  0  0  0  0  0  0  0  0  0
   23.8719   19.7316   21.7370 C   0  0  0  0  0  0  0  0  0  0  0  0
   22.4534   21.3543   22.1757 O   0  0  0  0  0  0  0  0  0  0  0  0
   22.1026   22.5610   18.0777 C   0  0  0  0  0  0  0  0  0  0  0  0
  1  4  1  0
  1 16  1  0
  2  3  2  0
  3  4  1  0
  3  5  1  0
  4 10  1  0
  6  7  1  0
  6 11  1  0
  7  8  1  0
  7 14  1  0
  7 15  1  0
  8 10  1  0
  8 13  1  0
  9 11  1  0
 11 16  1  0
 12 16  1  0
M  END
>  <ID>  (1) 
conformer_0

$$$$
