
     RDKit          3D

 30 32  0  0  0  0  0  0  0  0999 V2000
   24.6370   23.0241   23.0448 C   0  0  0  0  0  0  0  0  0  0  0  0
   21.5719   22.7662   17.9786 C   0  0  0  0  0  0  0  0  0  0  0  0
   21.3587   18.6019   22.0241 Cl  0  0  0  0  0  0  0  0  0  0  0  0
   19.7758   23.4772   21.9604 O   0  0  0  0  0  0  0  0  0  0  0  0
   23.9568   27.8147   19.6609 C   0  0  0  0  0  0  0  0  0  0  0  0
   24.5220   24.2732   22.4397 C   0  0  0  0  0  0  0  0  0  0  0  0
   24.0511   26.4118   19.6402 C   0  0  0  0  0  0  0  0  0  0  0  0
   21.6125   20.3573   18.7430 C   0  0  0  0  0  0  0  0  0  0  0  0
   20.6657   24.4198   21.8246 C   0  0  0  0  0  0  0  0  0  0  0  0
   24.0482   23.5988   17.3909 N   0  0  0  0  0  0  0  0  0  0  0  0
   24.6966   25.8318   18.4725 C   0  0  0  0  0  0  0  0  0  0  0  0
   22.2840   20.9547   21.3514 C   0  0  0  0  0  0  0  0  0  0  0  0
   22.9997   21.1107   22.6140 C   0  0  0  0  0  0  0  0  0  0  0  0
   25.2310   26.7106   17.5288 C   0  0  0  0  0  0  0  0  0  0  0  0
   24.8507   24.3737   18.2507 C   0  0  0  0  0  0  0  0  0  0  0  0
   23.9403   21.9229   23.0741 C   0  0  0  0  0  0  0  0  0  0  0  0
   25.0925   28.0879   17.6217 C   0  0  0  0  0  0  0  0  0  0  0  0
   25.7107   23.7213   19.0003 O   0  0  0  0  0  0  0  0  0  0  0  0
   20.3137   25.5593   21.5638 O   0  0  0  0  0  0  0  0  0  0  0  0
   23.4829   25.8773   20.8505 N   0  0  0  0  0  0  0  0  0  0  0  0
   22.7928   26.9772   21.7130 C   0  0  0  0  0  0  0  0  0  0  0  0
   22.0828   24.0962   21.9432 C   0  0  0  0  0  0  0  0  0  0  0  0
   24.8454   22.4092   16.8265 C   0  0  0  0  0  0  0  0  0  0  0  0
   24.4216   28.6682   18.7261 C   0  0  0  0  0  0  0  0  0  0  0  0
   22.5526   23.6874   17.3363 C   0  0  0  0  0  0  0  0  0  0  0  0
   23.3759   24.7182   21.6903 C   0  0  0  0  0  0  0  0  0  0  0  0
   21.7876   19.6738   20.9891 C   0  0  0  0  0  0  0  0  0  0  0  0
   21.7760   21.6880   19.0896 C   0  0  0  0  0  0  0  0  0  0  0  0
   22.0901   21.9155   20.3863 C   0  0  0  0  0  0  0  0  0  0  0  0
   21.5989   19.3803   19.6641 N   0  0  0  0  0  0  0  0  0  0  0  0
  1  6  2  0
  1 16  1  0
  2 25  2  0
  2 28  1  0
  3 27  1  0
  4  9  2  0
  5  7  2  0
  5 24  1  0
  6 26  1  0
  7 11  1  0
  7 20  1  0
  8 28  1  0
  8 30  2  0
  9 19  1  0
  9 22  1  0
 10 15  1  0
 10 23  1  0
 10 25  1  0
 11 14  2  0
 11 15  1  0
 12 13  1  0
 12 27  1  0
 12 29  1  0
 13 16  1  0
 14 17  1  0
 15 18  2  0
 17 24  2  0
 20 21  1  0
 20 26  1  0
 22 26  1  0
 27 30  1  0
 28 29  2  0
M  END
>  <ID>  (1) 
conformer_0

$$$$
