
     RDKit          3D

 21 23  0  0  0  0  0  0  0  0999 V2000
   22.1875   19.7721   19.7780 C   0  0  0  0  0  0  0  0  0  0  0  0
   20.6327   22.0202   19.7439 C   0  0  0  0  0  0  0  0  0  0  0  0
   21.6258   22.3634   17.4908 C   0  0  0  0  0  0  0  0  0  0  0  0
   22.2235   23.2023   21.4349 C   0  0  0  0  0  0  0  0  0  0  0  0
   19.7984   24.5237   21.6765 C   0  0  0  0  0  0  0  0  0  0  0  0
   24.4642   22.2486   18.4170 C   0  0  0  0  0  0  0  0  0  0  0  0
   22.1046   20.3595   21.1322 C   0  0  0  0  0  0  0  0  0  0  0  0
   23.2785   22.5147   19.2546 C   0  0  0  0  0  0  0  0  0  0  0  0
   20.8880   22.5944   21.1028 C   0  0  0  0  0  0  0  0  0  0  0  0
   23.3795   23.3411   20.5227 C   0  0  0  0  0  0  0  0  0  0  0  0
   21.9632   21.9789   18.9675 C   0  0  0  0  0  0  0  0  0  0  0  0
   23.4942   25.8327   18.4861 C   0  0  0  0  0  0  0  0  0  0  0  0
   23.4533   19.9200   21.8030 C   0  0  0  0  0  0  0  0  0  0  0  0
   22.7021   23.2940   16.9907 C   0  0  0  0  0  0  0  0  0  0  0  0
   24.4048   24.7471   18.1143 C   0  0  0  0  0  0  0  0  0  0  0  0
   24.1834   20.7871   20.7035 C   0  0  0  0  0  0  0  0  0  0  0  0
   25.4640   21.1664   21.2298 C   0  0  0  0  0  0  0  0  0  0  0  0
   24.4466   24.0088   20.8279 O   0  0  0  0  0  0  0  0  0  0  0  0
   23.7376   23.3822   18.1038 C   0  0  0  0  0  0  0  0  0  0  0  0
   22.8440   21.1331   19.9476 C   0  0  0  0  0  0  0  0  0  0  0  0
   19.7234   23.1478   21.7099 C   0  0  0  0  0  0  0  0  0  0  0  0
  1  7  1  0
  1 20  1  0
  2  9  1  0
  2 11  1  0
  3 11  1  0
  3 14  1  0
  4  9  1  0
  4 10  2  0
  5 21  1  0
  6  8  1  0
  6 19  1  0
  7 13  1  0
  8 10  1  0
  8 11  1  0
  9 21  1  0
 10 18  1  0
 11 20  1  0
 12 15  1  0
 13 16  1  0
 14 19  1  0
 15 19  1  0
 16 17  1  0
 16 20  1  0
M  END
>  <ID>  (1) 
conformer_0

$$$$
