
     RDKit          3D

 25 28  0  0  0  0  0  0  0  0999 V2000
   23.1208   23.5809   19.2427 C   0  0  0  0  0  0  0  0  0  0  0  0
   22.0178   22.4406   18.7410 C   0  0  0  0  0  0  0  0  0  0  0  0
   24.2597   23.3472   18.0725 C   0  0  0  0  0  0  0  0  0  0  0  0
   20.0800   23.7016   21.1032 C   0  0  0  0  0  0  0  0  0  0  0  0
   22.1167   17.8576   21.0477 O   0  0  0  0  0  0  0  0  0  0  0  0
   21.5535   21.9455   20.0910 C   0  0  0  0  0  0  0  0  0  0  0  0
   22.6974   23.9255   23.5483 C   0  0  0  0  0  0  0  0  0  0  0  0
   25.4746   23.3159   20.8463 C   0  0  0  0  0  0  0  0  0  0  0  0
   23.4471   23.0601   16.7874 C   0  0  0  0  0  0  0  0  0  0  0  0
   21.9152   19.6292   19.5534 C   0  0  0  0  0  0  0  0  0  0  0  0
   22.2888   23.4039   22.1861 C   0  0  0  0  0  0  0  0  0  0  0  0
   21.4668   24.3754   21.2646 C   0  0  0  0  0  0  0  0  0  0  0  0
   25.6448   22.6469   22.1951 C   0  0  0  0  0  0  0  0  0  0  0  0
   22.6602   18.9125   20.5424 C   0  0  0  0  0  0  0  0  0  0  0  0
   22.6942   25.2744   17.0871 C   0  0  0  0  0  0  0  0  0  0  0  0
   19.0060   24.1944   21.2748 O   0  0  0  0  0  0  0  0  0  0  0  0
   21.2591   25.7087   22.0487 C   0  0  0  0  0  0  0  0  0  0  0  0
   23.2140   19.9521   21.4869 C   0  0  0  0  0  0  0  0  0  0  0  0
   24.0399   23.3130   20.5047 C   0  0  0  0  0  0  0  0  0  0  0  0
   22.7156   21.2709   20.8250 C   0  0  0  0  0  0  0  0  0  0  0  0
   22.1043   23.8495   16.8656 C   0  0  0  0  0  0  0  0  0  0  0  0
   20.2159   22.2671   20.6440 C   0  0  0  0  0  0  0  0  0  0  0  0
   24.3594   22.0158   22.6440 C   0  0  0  0  0  0  0  0  0  0  0  0
   22.0307   24.6816   19.8198 C   0  0  0  0  0  0  0  0  0  0  0  0
   23.3305   22.4784   21.5643 C   0  0  0  0  0  0  0  0  0  0  0  0
  1  2  1  0
  1  3  1  0
  1 19  1  0
  1 24  1  0
  2  6  1  0
  3  9  1  0
  4 12  1  0
  4 16  2  0
  4 22  1  0
  5 14  1  0
  6 20  1  0
  6 22  1  0
  7 11  1  0
  8 13  1  0
  8 19  1  0
  9 21  1  0
 10 14  1  0
 11 12  1  0
 11 25  1  0
 12 17  1  0
 12 24  1  0
 13 23  1  0
 14 18  1  0
 15 21  1  0
 18 20  1  0
 19 25  1  0
 20 25  1  0
 23 25  1  0
M  END
>  <ID>  (1) 
conformer_0

$$$$
