
     RDKit          3D

 28 32  0  0  0  0  0  0  0  0999 V2000
   23.2334   23.1221   17.6209 C   0  0  0  0  0  0  0  0  0  0  0  0
   19.8013   24.3432   21.2459 C   0  0  0  0  0  0  0  0  0  0  0  0
   26.6932   22.2319   21.0729 C   0  0  0  0  0  0  0  0  0  0  0  0
   22.8712   24.4266   16.8493 C   0  0  0  0  0  0  0  0  0  0  0  0
   20.6694   22.1290   19.9475 C   0  0  0  0  0  0  0  0  0  0  0  0
   23.8372   23.6429   18.9794 C   0  0  0  0  0  0  0  0  0  0  0  0
   24.3100   21.4231   20.0843 C   0  0  0  0  0  0  0  0  0  0  0  0
   24.4571   24.9630   18.5759 C   0  0  0  0  0  0  0  0  0  0  0  0
   25.2863   25.6129   19.5942 C   0  0  0  0  0  0  0  0  0  0  0  0
   24.9723   22.6075   19.2880 C   0  0  0  0  0  0  0  0  0  0  0  0
   23.8790   25.4759   17.3466 C   0  0  0  0  0  0  0  0  0  0  0  0
   23.3405   19.2953   20.8078 C   0  0  0  0  0  0  0  0  0  0  0  0
   22.4259   18.2900   21.1157 C   0  0  0  0  0  0  0  0  0  0  0  0
   22.9693   20.5217   20.3589 C   0  0  0  0  0  0  0  0  0  0  0  0
   22.8682   23.6098   20.1102 O   0  0  0  0  0  0  0  0  0  0  0  0
   20.6208   25.1824   21.7739 O   0  0  0  0  0  0  0  0  0  0  0  0
   26.1193   23.2755   20.1028 C   0  0  0  0  0  0  0  0  0  0  0  0
   25.6252   22.2822   22.2046 C   0  0  0  0  0  0  0  0  0  0  0  0
   18.5718   24.3806   21.4273 O   0  0  0  0  0  0  0  0  0  0  0  0
   25.6820   24.6336   20.7636 C   0  0  0  0  0  0  0  0  0  0  0  0
   20.6156   19.7438   20.4878 C   0  0  0  0  0  0  0  0  0  0  0  0
   23.3163   26.7058   17.5155 O   0  0  0  0  0  0  0  0  0  0  0  0
   23.2169   23.0740   21.4560 C   0  0  0  0  0  0  0  0  0  0  0  0
   21.0619   18.4928   20.9258 C   0  0  0  0  0  0  0  0  0  0  0  0
   24.3558   22.0602   21.5166 C   0  0  0  0  0  0  0  0  0  0  0  0
   21.4866   20.7585   20.2663 C   0  0  0  0  0  0  0  0  0  0  0  0
   20.2173   23.5737   20.0750 C   0  0  0  0  0  0  0  0  0  0  0  0
   22.7050   23.1315   22.7425 O   0  0  0  0  0  0  0  0  0  0  0  0
  1  4  1  0
  1  6  1  0
  2 16  2  0
  2 19  1  0
  2 27  1  0
  3 17  1  0
  3 18  1  0
  4 11  1  0
  5 26  2  0
  5 27  2  0
  6  8  1  0
  6 10  1  0
  6 15  1  0
  7 10  1  0
  7 14  1  0
  7 25  1  0
  8  9  1  0
  8 11  1  0
  9 20  1  0
 10 17  1  0
 11 22  1  0
 12 13  1  0
 12 14  2  0
 13 24  1  0
 14 26  1  0
 15 23  1  0
 17 20  1  0
 18 25  1  0
 21 24  2  0
 21 26  1  0
 23 25  1  0
 23 28  2  0
M  END
>  <ID>  (1) 
conformer_0

$$$$
