
     RDKit          3D

 21 22  0  0  0  0  0  0  0  0999 V2000
   23.0072   24.3079   17.0560 S   0  0  0  0  0  0  0  0  0  0  0  0
   21.7807   24.6198   21.7525 O   0  0  0  0  0  0  0  0  0  0  0  0
   21.7334   22.1591   19.0457 C   0  0  0  0  0  0  0  0  0  0  0  0
   19.3961   22.5507   19.9556 O   0  0  0  0  0  0  0  0  0  0  0  0
   24.1702   22.3321   18.9436 C   0  0  0  0  0  0  0  0  0  0  0  0
   23.7100   23.2321   18.1541 C   0  0  0  0  0  0  0  0  0  0  0  0
   25.6612   24.0365   19.5238 O   0  0  0  0  0  0  0  0  0  0  0  0
   23.0879   20.4899   19.9931 C   0  0  0  0  0  0  0  0  0  0  0  0
   22.9179   22.9824   19.3938 C   0  0  0  0  0  0  0  0  0  0  0  0
   21.7085   20.8886   19.7289 O   0  0  0  0  0  0  0  0  0  0  0  0
   25.2885   22.7404   19.7983 C   0  0  0  0  0  0  0  0  0  0  0  0
   23.3121   19.0013   20.2418 C   0  0  0  0  0  0  0  0  0  0  0  0
   21.4575   23.2394   21.3854 C   0  0  0  0  0  0  0  0  0  0  0  0
   21.1979   22.1900   17.6745 C   0  0  0  0  0  0  0  0  0  0  0  0
   22.9827   20.6435   22.3767 O   0  0  0  0  0  0  0  0  0  0  0  0
   22.9159   22.7512   20.9771 C   0  0  0  0  0  0  0  0  0  0  0  0
   23.4457   21.3434   21.2249 C   0  0  0  0  0  0  0  0  0  0  0  0
   23.9905   20.8727   18.8227 C   0  0  0  0  0  0  0  0  0  0  0  0
   22.1992   18.3614   20.7052 O   0  0  0  0  0  0  0  0  0  0  0  0
   19.2481   24.0519   21.4550 O   0  0  0  0  0  0  0  0  0  0  0  0
   20.0308   23.2740   20.8457 C   0  0  0  0  0  0  0  0  0  0  0  0
  1  6  1  0
  2 13  1  0
  3  9  1  0
  3 10  1  0
  3 14  1  0
  4 21  2  0
  5  6  1  0
  5  9  1  0
  5 11  1  0
  5 18  1  0
  7 11  1  0
  8 10  1  0
  8 12  1  0
  8 17  1  0
  8 18  1  0
  9 16  1  0
 12 19  1  0
 13 16  1  0
 13 21  1  0
 15 17  1  0
 16 17  1  0
 20 21  1  0
M  END
>  <ID>  (1) 
conformer_0

$$$$
