
     RDKit          3D

 30 32  0  0  0  0  0  0  0  0999 V2000
   23.2908   25.5466   17.5276 C   0  0  0  0  0  0  0  0  0  0  0  0
   24.1219   25.9071   20.2193 C   0  0  0  0  0  0  0  0  0  0  0  0
   24.0899   24.5557   18.1192 C   0  0  0  0  0  0  0  0  0  0  0  0
   24.5805   23.5831   21.6845 C   0  0  0  0  0  0  0  0  0  0  0  0
   24.8570   23.6313   20.3232 C   0  0  0  0  0  0  0  0  0  0  0  0
   24.0299   20.1382   21.9817 C   0  0  0  0  0  0  0  0  0  0  0  0
   25.8307   22.6002   17.5209 C   0  0  0  0  0  0  0  0  0  0  0  0
   24.2666   24.7636   22.3060 C   0  0  0  0  0  0  0  0  0  0  0  0
   22.1525   23.1513   16.2638 C   0  0  0  0  0  0  0  0  0  0  0  0
   24.3632   23.2933   17.4464 C   0  0  0  0  0  0  0  0  0  0  0  0
   19.9063   23.0182   20.6922 C   0  0  0  0  0  0  0  0  0  0  0  0
   25.0464   20.2902   20.8259 C   0  0  0  0  0  0  0  0  0  0  0  0
   22.2397   25.5467   16.7042 C   0  0  0  0  0  0  0  0  0  0  0  0
   24.4453   24.6962   19.5277 C   0  0  0  0  0  0  0  0  0  0  0  0
   21.9273   19.2977   20.7365 C   0  0  0  0  0  0  0  0  0  0  0  0
   19.1719   21.7967   20.7009 C   0  0  0  0  0  0  0  0  0  0  0  0
   24.5271   22.6462   23.8375 O   0  0  0  0  0  0  0  0  0  0  0  0
   21.6029   24.4087   16.1802 C   0  0  0  0  0  0  0  0  0  0  0  0
   23.0087   19.2028   21.6140 N   0  0  0  0  0  0  0  0  0  0  0  0
   21.2574   23.0242   20.3862 C   0  0  0  0  0  0  0  0  0  0  0  0
   19.8180   20.6196   20.5217 C   0  0  0  0  0  0  0  0  0  0  0  0
   23.3479   22.7014   16.6896 C   0  0  0  0  0  0  0  0  0  0  0  0
   23.3472   21.4404   22.4095 C   0  0  0  0  0  0  0  0  0  0  0  0
   24.4848   20.0237   19.4289 C   0  0  0  0  0  0  0  0  0  0  0  0
   21.2220   20.5510   20.4368 C   0  0  0  0  0  0  0  0  0  0  0  0
   24.3847   22.4234   22.5650 C   0  0  0  0  0  0  0  0  0  0  0  0
   21.4545   18.2211   20.2924 O   0  0  0  0  0  0  0  0  0  0  0  0
   23.9680   25.9420   21.6063 C   0  0  0  0  0  0  0  0  0  0  0  0
   19.3511   24.1569   21.0487 O   0  0  0  0  0  0  0  0  0  0  0  0
   21.8714   21.7576   20.2069 C   0  0  0  0  0  0  0  0  0  0  0  0
  1  3  1  0
  1 13  2  0
  2 14  1  0
  2 28  1  0
  3 10  1  0
  3 14  1  0
  4  5  1  0
  4  8  1  0
  4 26  1  0
  5 14  1  0
  6 12  1  0
  6 19  1  0
  6 23  1  0
  7 10  1  0
  8 28  2  0
  9 18  2  0
  9 22  1  0
 10 22  2  0
 11 16  1  0
 11 20  2  0
 11 29  1  0
 12 24  1  0
 13 18  1  0
 15 19  1  0
 15 25  1  0
 15 27  2  0
 16 21  2  0
 17 26  1  0
 20 30  1  0
 21 25  1  0
 23 26  1  0
 25 30  1  0
M  END
>  <ID>  (1) 
conformer_0

$$$$
