
     RDKit          3D

 42 47  0  0  0  0  0  0  0  0999 V2000
   19.6131   22.5131   19.9999 C   0  0  0  0  0  0  0  0  0  0  0  0
   23.2765   25.0912   22.1976 C   0  0  0  0  0  0  0  0  0  0  0  0
   22.5459   22.1861   19.6475 N   0  0  0  0  0  0  0  0  0  0  0  0
   27.2604   22.4707   19.4015 C   0  0  0  0  0  0  0  0  0  0  0  0
   26.1857   25.7211   17.6517 N   0  0  0  0  0  0  0  0  0  0  0  0
   23.3666   20.0525   20.2268 C   0  0  0  0  0  0  0  0  0  0  0  0
   25.6959   25.0564   21.6836 C   0  0  0  0  0  0  0  0  0  0  0  0
   24.7380   20.6110   19.9818 C   0  0  0  0  0  0  0  0  0  0  0  0
   26.9126   21.5088   20.2469 N   0  0  0  0  0  0  0  0  0  0  0  0
   20.9187   24.6857   21.4226 C   0  0  0  0  0  0  0  0  0  0  0  0
   25.8564   23.7167   21.5582 C   0  0  0  0  0  0  0  0  0  0  0  0
   27.0454   19.7947   18.6506 C   0  0  0  0  0  0  0  0  0  0  0  0
   27.1801   23.9076   19.2046 C   0  0  0  0  0  0  0  0  0  0  0  0
   29.0610   23.2284   17.4587 O   0  0  0  0  0  0  0  0  0  0  0  0
   20.6776   19.0893   20.4457 C   0  0  0  0  0  0  0  0  0  0  0  0
   20.8940   20.4015   20.0608 C   0  0  0  0  0  0  0  0  0  0  0  0
   22.7308   22.2565   17.2762 C   0  0  0  0  0  0  0  0  0  0  0  0
   23.5858   24.8823   17.4680 C   0  0  0  0  0  0  0  0  0  0  0  0
   23.5527   24.0757   18.6109 C   0  0  0  0  0  0  0  0  0  0  0  0
   22.2269   20.8848   19.9939 C   0  0  0  0  0  0  0  0  0  0  0  0
   25.5522   19.8340   18.9914 C   0  0  0  0  0  0  0  0  0  0  0  0
   22.0788   26.5907   20.8408 F   0  0  0  0  0  0  0  0  0  0  0  0
   28.2091   24.2944   17.0461 C   0  0  0  0  0  0  0  0  0  0  0  0
   21.9230   25.7264   21.8659 C   0  0  0  0  0  0  0  0  0  0  0  0
   23.0100   22.8169   18.5072 C   0  0  0  0  0  0  0  0  0  0  0  0
   25.6715   21.3324   20.8851 C   0  0  0  0  0  0  0  0  0  0  0  0
   20.6002   23.4076   20.6045 O   0  0  0  0  0  0  0  0  0  0  0  0
   22.3915   23.0858   16.2566 C   0  0  0  0  0  0  0  0  0  0  0  0
   21.5662   26.3797   22.9838 F   0  0  0  0  0  0  0  0  0  0  0  0
   23.3280   23.8413   22.6892 C   0  0  0  0  0  0  0  0  0  0  0  0
   27.5673   21.1893   18.8517 C   0  0  0  0  0  0  0  0  0  0  0  0
   24.6777   25.9882   17.4479 C   0  0  0  0  0  0  0  0  0  0  0  0
   26.8093   20.5755   21.1849 C   0  0  0  0  0  0  0  0  0  0  0  0
   24.4973   25.7820   21.8988 C   0  0  0  0  0  0  0  0  0  0  0  0
   27.1686   24.6970   17.9991 C   0  0  0  0  0  0  0  0  0  0  0  0
   23.5433   21.6159   23.3889 C   0  0  0  0  0  0  0  0  0  0  0  0
   25.1786   22.5587   21.6330 C   0  0  0  0  0  0  0  0  0  0  0  0
   23.1114   18.7591   20.6639 C   0  0  0  0  0  0  0  0  0  0  0  0
   22.7195   24.4670   16.3759 C   0  0  0  0  0  0  0  0  0  0  0  0
   24.0170   22.7034   22.5043 C   0  0  0  0  0  0  0  0  0  0  0  0
   19.8101   21.2010   19.6516 N   0  0  0  0  0  0  0  0  0  0  0  0
   21.7866   18.2878   20.7893 C   0  0  0  0  0  0  0  0  0  0  0  0
  1 27  1  0
  1 41  2  0
  2 24  1  0
  2 30  1  0
  2 34  1  0
  3 20  1  0
  3 25  1  0
  4  9  1  0
  4 13  1  0
  4 31  1  0
  5 32  2  0
  5 35  1  0
  6  8  1  0
  6 20  2  0
  6 38  1  0
  7 11  2  0
  7 34  1  0
  8 21  2  0
  8 26  1  0
  9 33  1  0
 10 24  1  0
 10 27  1  0
 11 37  1  0
 12 21  1  0
 12 31  1  0
 13 35  1  0
 14 23  1  0
 15 16  2  0
 15 42  1  0
 16 20  1  0
 16 41  1  0
 17 25  1  0
 17 28  1  0
 18 19  1  0
 18 32  1  0
 18 39  1  0
 19 25  1  0
 22 24  1  0
 23 35  2  3
 24 29  1  0
 26 33  1  0
 26 37  1  0
 28 39  2  0
 30 40  2  0
 36 40  1  0
 37 40  1  0
 38 42  2  0
M  END
>  <ID>  (1) 
conformer_0

$$$$
