
     RDKit          3D

 36 40  0  0  0  0  0  0  0  0999 V2000
   24.5176   23.0184   22.5137 C   0  0  0  0  0  0  0  0  0  0  0  0
   23.3213   29.8619   20.2336 O   0  0  0  0  0  0  0  0  0  0  0  0
   20.3975   23.4182   22.3302 O   0  0  0  0  0  1  0  0  0  0  0  0
   23.8942   23.4780   18.3514 C   0  0  0  0  0  0  0  0  0  0  0  0
   23.4897   21.0996   20.5530 C   0  0  0  0  0  0  0  0  0  0  0  0
   22.0301   19.0991   20.2518 C   0  0  0  0  0  0  0  0  0  0  0  0
   23.6068   26.2859   21.2897 C   0  0  0  0  0  0  0  0  0  0  0  0
   20.9610   23.4291   24.4491 O   0  0  0  0  0  1  0  0  0  0  0  0
   21.2868   23.8029   23.2632 N   0  0  0  0  0  0  0  0  0  0  0  0
   23.6756   23.6510   23.4301 N   0  0  0  0  0  0  0  0  0  0  0  0
   23.0201   22.6589   18.6049 C   0  0  0  0  0  0  0  0  0  0  0  0
   22.6442   25.6408   22.2083 C   0  0  0  0  0  0  0  0  0  0  0  0
   24.3444   19.5600   20.9660 C   0  0  0  0  0  0  0  0  0  0  0  0
   26.8019   23.6792   23.3360 C   0  0  0  0  0  0  0  0  0  0  0  0
   21.3243   22.7265   17.0117 C   0  0  0  0  0  0  0  0  0  0  0  0
   24.6607   26.1507   19.2548 C   0  0  0  0  0  0  0  0  0  0  0  0
   23.4247   18.5146   20.4304 C   0  0  0  0  0  0  0  0  0  0  0  0
   21.3408   21.0967   18.9693 O   0  0  0  0  0  0  0  0  0  0  0  0
   21.8009   23.8057   16.2988 C   0  0  0  0  0  0  0  0  0  0  0  0
   22.0271   28.9874   21.7756 O   0  0  0  0  0  0  0  0  0  0  0  0
   25.7497   23.8006   22.2679 C   0  0  0  0  0  0  0  0  0  0  0  0
   23.9939   21.9044   21.7185 O   0  0  0  0  0  0  0  0  0  0  0  0
   24.7383   20.5419   19.9389 C   0  0  0  0  0  0  0  0  0  0  0  0
   22.5665   24.3940   22.9875 C   0  0  0  0  0  0  0  0  0  0  0  0
   24.7668   25.6023   17.9224 N   0  0  0  0  0  0  0  0  0  0  0  0
   24.1525   27.4302   19.3363 C   0  0  0  0  0  0  0  0  0  0  0  0
   21.8565   22.2100   18.1874 C   0  0  0  0  0  0  0  0  0  0  0  0
   22.8244   24.7035   16.5396 C   0  0  0  0  0  0  0  0  0  0  0  0
   22.8894   28.8512   20.8947 C   0  0  0  0  0  0  0  0  0  0  0  0
   25.8154   24.9776   21.3544 C   0  0  0  0  0  0  0  0  0  0  0  0
   24.6507   25.6369   20.6191 C   0  0  0  0  0  0  0  0  0  0  0  0
   21.3412   26.1657   22.0827 O   0  0  0  0  0  0  0  0  0  0  0  0
   25.9488   21.0728   20.0050 O   0  0  0  0  0  0  0  0  0  0  0  0
   22.3007   20.5096   19.8445 C   0  0  0  0  0  0  0  0  0  0  0  0
   23.4759   27.5393   20.5845 C   0  0  0  0  0  0  0  0  0  0  0  0
   23.8290   24.5918   17.5247 C   0  0  0  0  0  0  0  0  0  0  0  0
  1 10  1  0
  1 21  1  0
  1 22  1  0
  2 29  2  0
  3  9  1  0
  4 11  1  0
  4 36  1  0
  5 22  1  0
  5 23  1  0
  5 34  1  0
  6 17  1  0
  6 34  1  0
  7 12  1  0
  7 31  1  0
  7 35  1  0
  8  9  1  0
  9 24  1  0
 10 24  2  0
 11 27  2  0
 12 24  1  0
 12 32  1  0
 13 17  1  0
 13 23  1  0
 14 21  1  0
 15 19  1  0
 15 27  1  0
 16 25  1  0
 16 26  1  0
 16 31  1  0
 18 27  1  0
 18 34  1  0
 19 28  2  0
 20 29  1  0
 21 30  1  0
 23 33  1  0
 25 36  1  0
 26 35  1  0
 28 36  1  0
 29 35  1  0
 30 31  1  0
M  END
>  <ID>  (1) 
conformer_0

$$$$
