
     RDKit          3D

 20 20  0  0  0  0  0  0  0  0999 V2000
   20.7305   19.0027   20.9379 O   0  0  0  0  0  1  0  0  0  0  0  0
   23.9353   21.3681   22.2214 C   0  0  0  0  0  0  0  0  0  0  0  0
   23.2158   18.8001   20.7683 O   0  0  0  0  0  0  0  0  0  0  0  0
   18.7086   24.4343   21.0896 O   0  0  0  0  0  1  0  0  0  0  0  0
   20.8559   22.9892   20.8443 C   0  0  0  0  0  0  0  0  0  0  0  0
   22.2283   22.5570   20.8769 O   0  0  0  0  0  0  0  0  0  0  0  0
   23.9877   23.1831   18.9809 C   0  0  0  0  0  0  0  0  0  0  0  0
   20.1037   24.2071   21.6677 P   0  0  0  0  0  4  0  0  0  0  0  0
   26.5915   23.7527   17.5428 C   0  0  0  0  0  0  0  0  0  0  0  0
   25.3966   23.4752   16.8652 O   0  0  0  0  0  0  0  0  0  0  0  0
   22.3677   21.1706   21.5983 C   0  0  0  0  0  0  0  0  0  0  0  0
   24.2383   23.1614   17.5357 C   0  0  0  0  0  0  0  0  0  0  0  0
   21.4304   20.6724   19.1867 O   0  0  0  0  0  0  0  0  0  0  0  0
   22.8109   22.5425   19.4927 C   0  0  0  0  0  0  0  0  0  0  0  0
   20.8604   25.4910   21.5718 O   0  0  0  0  0  0  0  0  0  0  0  0
   19.9272   23.7114   23.1083 O   0  0  0  0  0  0  0  0  0  0  0  0
   21.9465   19.8726   20.5937 P   0  0  0  0  0  4  0  0  0  0  0  0
   23.1341   22.7433   16.7484 C   0  0  0  0  0  0  0  0  0  0  0  0
   22.0653   21.8117   18.6780 C   0  0  0  0  0  0  0  0  0  0  0  0
   22.0282   22.0914   17.3214 C   0  0  0  0  0  0  0  0  0  0  0  0
  1 17  2  0
  2 11  1  0
  3 17  1  0
  4  8  2  0
  5  6  1  0
  5  8  1  0
  6 14  1  0
  7 12  1  0
  7 14  2  0
  8 15  1  0
  8 16  1  0
  9 10  1  0
 10 12  1  0
 11 17  1  0
 12 18  1  0
 13 17  1  0
 13 19  1  0
 14 19  1  0
 18 20  2  0
 19 20  1  0
M  END
>  <ID>  (1) 
conformer_0

$$$$
