
     RDKit          3D

 22 24  0  0  0  0  0  0  0  0999 V2000
   22.8887   20.9777   21.0404 C   0  0  0  0  0  0  0  0  0  0  0  0
   24.5817   24.6343   19.5312 O   0  0  0  0  0  0  0  0  0  0  0  0
   22.7294   22.3629   19.1078 O   0  0  0  0  0  0  0  0  0  0  0  0
   21.3683   19.3805   20.2338 O   0  0  0  0  0  0  0  0  0  0  0  0
   22.7125   19.7162   20.3045 O   0  0  0  0  0  0  0  0  0  0  0  0
   21.9884   22.0799   20.3480 C   0  0  0  0  0  0  0  0  0  0  0  0
   24.4489   22.8653   21.2198 C   0  0  0  0  0  0  0  0  0  0  0  0
   21.3781   24.6257   21.1693 O   0  0  0  0  0  0  0  0  0  0  0  0
   24.3453   21.3439   20.8910 C   0  0  0  0  0  0  0  0  0  0  0  0
   19.5088   23.0404   20.5009 O   0  0  0  0  0  0  0  0  0  0  0  0
   21.9910   23.3722   21.1431 C   0  0  0  0  0  0  0  0  0  0  0  0
   24.1616   22.3280   18.8511 C   0  0  0  0  0  0  0  0  0  0  0  0
   25.3819   20.7185   21.6654 O   0  0  0  0  0  0  0  0  0  0  0  0
   22.1003   23.0156   17.9777 C   0  0  0  0  0  0  0  0  0  0  0  0
   23.1653   24.2238   23.0713 O   0  0  0  0  0  0  0  0  0  0  0  0
   24.4209   22.6791   17.4263 C   0  0  0  0  0  0  0  0  0  0  0  0
   20.5722   22.4784   19.9099 C   0  0  0  0  0  0  0  0  0  0  0  0
   24.6543   23.3916   19.7993 C   0  0  0  0  0  0  0  0  0  0  0  0
   22.6347   20.8531   22.4103 O   0  0  0  0  0  0  0  0  0  0  0  0
   23.3041   23.5136   21.9017 C   0  0  0  0  0  0  0  0  0  0  0  0
   23.2026   23.5324   17.0896 C   0  0  0  0  0  0  0  0  0  0  0  0
   24.7263   21.0581   19.3778 C   0  0  0  0  0  0  0  0  0  0  0  0
  1  5  1  0
  1  6  1  0
  1  9  1  0
  1 19  1  0
  2 18  2  0
  3 12  1  0
  3 14  1  0
  4  5  1  0
  6 11  1  0
  6 17  1  0
  7  9  1  0
  7 18  1  0
  7 20  1  0
  8 11  1  0
  9 13  1  0
  9 22  1  0
 10 17  1  0
 11 20  1  0
 12 16  1  0
 12 18  1  0
 12 22  1  0
 14 21  1  0
 15 20  1  0
 16 21  1  0
M  END
>  <ID>  (1) 
conformer_0

$$$$
