
     RDKit          3D

 15 16  0  0  0  0  0  0  0  0999 V2000
   23.5339   19.9908   22.4086 C   0  0  0  0  0  0  0  0  0  0  0  0
   19.2533   23.5280   20.8205 O   0  0  0  0  0  0  0  0  0  0  0  0
   20.4430   23.6692   22.6417 O   0  0  0  0  0  0  0  0  0  0  0  0
   20.3551   23.4248   21.3667 C   0  0  0  0  0  0  0  0  0  0  0  0
   24.1438   22.2738   22.5211 O   0  0  0  0  0  0  0  0  0  0  0  0
   21.9508   23.0511   19.3049 C   0  0  0  0  0  0  0  0  0  0  0  0
   22.6574   21.8931   18.9233 C   0  0  0  0  0  0  0  0  0  0  0  0
   22.3338   21.7053   21.1232 C   0  0  0  0  0  0  0  0  0  0  0  0
   21.5298   22.8656   20.6355 C   0  0  0  0  0  0  0  0  0  0  0  0
   23.2601   22.7500   16.7893 C   0  0  0  0  0  0  0  0  0  0  0  0
   23.2570   21.7126   17.6874 C   0  0  0  0  0  0  0  0  0  0  0  0
   23.2372   21.4112   22.2651 C   0  0  0  0  0  0  0  0  0  0  0  0
   22.7270   20.9858   19.9380 C   0  0  0  0  0  0  0  0  0  0  0  0
   22.6291   23.9380   17.1319 C   0  0  0  0  0  0  0  0  0  0  0  0
   21.9704   24.0895   18.3592 C   0  0  0  0  0  0  0  0  0  0  0  0
  1 12  1  0
  2  4  2  0
  3  4  1  0
  4  9  1  0
  5 12  2  0
  6  7  2  0
  6  9  1  0
  6 15  1  0
  7 11  1  0
  7 13  1  0
  8  9  1  0
  8 12  1  0
  8 13  1  0
 10 11  2  0
 10 14  1  0
 14 15  2  0
M  END
>  <ID>  (1) 
conformer_0

$$$$
