
     RDKit          3D

 23 23  0  0  0  0  0  0  0  0999 V2000
   25.0134   22.5285   17.4133 C   0  0  0  0  0  0  0  0  0  0  0  0
   21.1571   18.4349   21.3051 C   0  0  0  0  0  0  0  0  0  0  0  0
   25.0493   22.1800   21.0709 C   0  0  0  0  0  0  0  0  0  0  0  0
   19.1576   23.6846   21.3668 O   0  0  0  0  0  0  0  0  0  0  0  0
   22.9514   23.6969   16.8090 C   0  0  0  0  0  0  0  0  0  0  0  0
   21.8529   25.6737   21.4161 C   0  0  0  0  0  0  0  0  0  0  0  0
   22.0938   21.1151   19.3626 C   0  0  0  0  0  0  0  0  0  0  0  0
   23.5532   19.1653   22.3491 O   0  0  0  0  0  1  0  0  0  0  0  0
   23.1132   23.5599   21.7362 C   0  0  0  0  0  0  0  0  0  0  0  0
   23.5156   22.3259   21.0527 N   0  0  0  0  0  0  0  0  0  0  0  0
   24.3520   23.5524   16.7158 C   0  0  0  0  0  0  0  0  0  0  0  0
   20.9346   24.9542   22.1516 N   0  0  0  0  0  0  0  0  0  0  0  0
   23.9794   25.6781   20.1904 N   0  0  0  0  0  0  0  0  0  0  0  0
   23.1421   24.9718   21.2299 C   0  0  0  0  0  0  0  0  0  0  0  0
   22.7686   21.0135   20.7654 C   0  0  0  0  0  0  0  0  0  0  0  0
   23.2127   23.3273   23.3165 C   0  0  0  0  0  0  0  0  0  0  0  0
   20.3926   21.1715   19.5625 C   0  0  0  0  0  0  0  0  0  0  0  0
   23.4136   18.5663   19.8908 O   0  0  0  0  0  1  0  0  0  0  0  0
   22.1887   22.8668   17.6203 C   0  0  0  0  0  0  0  0  0  0  0  0
   24.2563   21.7142   18.2434 C   0  0  0  0  0  0  0  0  0  0  0  0
   22.8638   21.9009   18.4241 C   0  0  0  0  0  0  0  0  0  0  0  0
   22.7582   19.2036   21.0635 S   0  0  0  0  0  4  0  0  0  0  0  0
   20.2616   23.8836   21.8603 C   0  0  0  0  0  0  0  0  0  0  0  0
  1 11  1  0
  1 20  2  0
  2 22  1  0
  3 10  1  0
  4 23  2  0
  5 11  1  0
  5 19  2  0
  6 12  1  0
  6 14  1  0
  7 15  1  0
  7 17  1  0
  7 21  1  0
  8 22  1  0
  9 10  1  0
  9 14  1  0
  9 16  1  0
 10 15  1  0
 12 23  1  0
 13 14  1  0
 15 22  1  0
 18 22  1  0
 19 21  1  0
 20 21  1  0
M  END
>  <ID>  (1) 
conformer_0

$$$$
