
     RDKit          3D

 20 21  0  0  0  0  0  0  0  0999 V2000
   24.7855   20.2899   20.6301 C   0  0  0  0  0  0  0  0  0  0  0  0
   22.0292   18.4407   20.4354 O   0  0  0  0  0  0  0  0  0  0  0  0
   24.6543   24.4687   17.2193 C   0  0  0  0  0  0  0  0  0  0  0  0
   22.4509   19.4967   20.9542 C   0  0  0  0  0  0  0  0  0  0  0  0
   25.7956   22.1075   16.9588 C   0  0  0  0  0  0  0  0  0  0  0  0
   22.9205   21.5403   19.5364 C   0  0  0  0  0  0  0  0  0  0  0  0
   21.8115   22.3356   20.0506 C   0  0  0  0  0  0  0  0  0  0  0  0
   21.9211   23.3583   21.0220 C   0  0  0  0  0  0  0  0  0  0  0  0
   20.8068   24.0281   21.4989 C   0  0  0  0  0  0  0  0  0  0  0  0
   22.3183   19.8521   22.1594 O   0  0  0  0  0  0  0  0  0  0  0  0
   19.5358   23.6941   21.0207 C   0  0  0  0  0  0  0  0  0  0  0  0
   23.3706   20.3061   20.1396 C   0  0  0  0  0  0  0  0  0  0  0  0
   24.0065   24.8302   18.6019 C   0  0  0  0  0  0  0  0  0  0  0  0
   24.0365   22.3111   18.9100 C   0  0  0  0  0  0  0  0  0  0  0  0
   20.5342   22.0420   19.5691 C   0  0  0  0  0  0  0  0  0  0  0  0
   26.1062   23.6662   17.3789 S   0  0  0  0  0  0  0  0  0  0  0  0
   19.4129   22.6965   20.0587 C   0  0  0  0  0  0  0  0  0  0  0  0
   18.4765   24.3368   21.4243 O   0  0  0  0  0  0  0  0  0  0  0  0
   24.4517   21.6204   17.5655 C   0  0  0  0  0  0  0  0  0  0  0  0
   24.2802   23.6760   19.5949 C   0  0  0  0  0  0  0  0  0  0  0  0
  1 12  1  0
  2  4  2  0
  3 13  1  0
  3 16  1  0
  4 10  1  0
  4 12  1  0
  5 16  1  0
  5 19  1  0
  6  7  1  0
  6 12  1  0
  6 14  1  0
  7  8  2  0
  7 15  1  0
  8  9  1  0
  9 11  2  0
 11 17  1  0
 11 18  1  0
 13 20  1  0
 14 19  1  0
 14 20  1  0
 15 17  2  0
M  END
>  <ID>  (1) 
conformer_0

$$$$
