
     RDKit          3D

 27 31  0  0  0  0  0  0  0  0999 V2000
   22.5777   18.5960   20.4170 C   0  0  0  0  0  0  0  0  0  0  0  0
   20.2997   21.0169   20.1961 C   0  0  0  0  0  0  0  0  0  0  0  0
   22.1121   23.8760   23.7752 C   0  0  0  0  0  0  0  0  0  0  0  0
   23.6180   17.9402   20.1753 O   0  0  0  0  0  0  0  0  0  0  0  0
   22.3344   22.2639   20.2380 C   0  0  0  0  0  0  0  0  0  0  0  0
   19.5870   22.1804   20.5806 C   0  0  0  0  0  0  0  0  0  0  0  0
   21.7059   21.0409   20.1184 C   0  0  0  0  0  0  0  0  0  0  0  0
   23.3625   26.5014   20.1664 C   0  0  0  0  0  0  0  0  0  0  0  0
   22.2157   25.6640   21.9899 C   0  0  0  0  0  0  0  0  0  0  0  0
   20.9946   26.2351   21.7863 O   0  0  0  0  0  0  0  0  0  0  0  0
   22.6878   19.9661   19.8787 C   0  0  0  0  0  0  0  0  0  0  0  0
   26.1914   25.1294   17.5556 C   0  0  0  0  0  0  0  0  0  0  0  0
   22.3119   25.2631   23.3624 O   0  0  0  0  0  0  0  0  0  0  0  0
   24.4754   22.4103   18.4788 C   0  0  0  0  0  0  0  0  0  0  0  0
   24.0635   20.6421   19.9858 C   0  0  0  0  0  0  0  0  0  0  0  0
   24.8798   27.0793   18.2440 C   0  0  0  0  0  0  0  0  0  0  0  0
   22.5914   24.4774   21.1405 C   0  0  0  0  0  0  0  0  0  0  0  0
   23.3325   26.6067   21.5617 O   0  0  0  0  0  0  0  0  0  0  0  0
   21.5304   18.1279   20.9675 O   0  0  0  0  0  0  0  0  0  0  0  0
   24.0360   24.7792   18.6551 C   0  0  0  0  0  0  0  0  0  0  0  0
   23.2490   25.0586   19.8975 C   0  0  0  0  0  0  0  0  0  0  0  0
   20.3034   23.3491   20.8065 C   0  0  0  0  0  0  0  0  0  0  0  0
   21.6950   23.3751   20.7471 C   0  0  0  0  0  0  0  0  0  0  0  0
   23.7808   22.1851   19.8372 C   0  0  0  0  0  0  0  0  0  0  0  0
   23.9175   23.6116   17.7089 C   0  0  0  0  0  0  0  0  0  0  0  0
   23.9338   27.4770   19.3006 C   0  0  0  0  0  0  0  0  0  0  0  0
   25.0509   25.6653   18.3266 N   0  0  0  0  0  0  0  0  0  0  0  0
  1  4  2  0
  1 11  1  0
  1 19  1  0
  2  6  1  0
  2  7  2  0
  3 13  1  0
  5  7  1  0
  5 23  1  0
  5 24  1  0
  6 22  1  0
  7 11  1  0
  8 18  1  0
  8 21  1  0
  8 26  1  0
  9 10  1  0
  9 13  1  0
  9 17  1  0
  9 18  1  0
 11 15  1  0
 12 27  1  0
 14 24  1  0
 14 25  1  0
 15 24  1  0
 16 26  1  0
 16 27  1  0
 17 21  1  0
 17 23  1  0
 20 21  1  0
 20 25  1  0
 20 27  1  0
 22 23  2  0
M  END
>  <ID>  (1) 
conformer_0

$$$$
