
     RDKit          3D

 25 27  0  0  0  0  0  0  0  0999 V2000
   25.3937   20.8514   20.4975 C   0  0  0  0  0  0  0  0  0  0  0  0
   19.3088   23.6556   21.9570 O   0  0  0  0  0  0  0  0  0  0  0  0
   18.4188   23.2562   20.0255 O   0  0  0  0  0  0  0  0  0  0  0  0
   21.4731   23.1454   19.6991 O   0  0  0  0  0  0  0  0  0  0  0  0
   23.5500   25.3140   18.6143 C   0  0  0  0  0  0  0  0  0  0  0  0
   26.5134   20.8536   19.6140 C   0  0  0  0  0  0  0  0  0  0  0  0
   20.5790   22.2920   20.4787 C   0  0  0  0  0  0  0  0  0  0  0  0
   21.5986   20.1948   21.6226 C   0  0  0  0  0  0  0  0  0  0  0  0
   21.0689   18.6011   19.9368 O   0  0  0  0  0  0  0  0  0  0  0  0
   24.4457   19.7842   20.6357 C   0  0  0  0  0  0  0  0  0  0  0  0
   20.6950   19.7964   20.4401 C   0  0  0  0  0  0  0  0  0  0  0  0
   24.7589   25.9633   18.0648 C   0  0  0  0  0  0  0  0  0  0  0  0
   22.7286   25.8376   19.3968 O   0  0  0  0  0  0  0  0  0  0  0  0
   23.1961   20.3754   21.2787 C   0  0  0  0  0  0  0  0  0  0  0  0
   19.3934   23.1731   20.7917 C   0  0  0  0  0  0  0  0  0  0  0  0
   22.5330   23.6903   22.1652 O   0  0  0  0  0  0  0  0  0  0  0  0
   23.5483   21.6264   21.5862 C   0  0  0  0  0  0  0  0  0  0  0  0
   24.4107   23.0895   17.9448 C   0  0  0  0  0  0  0  0  0  0  0  0
   24.8750   21.8919   21.2422 C   0  0  0  0  0  0  0  0  0  0  0  0
   22.4337   22.4053   22.0315 C   0  0  0  0  0  0  0  0  0  0  0  0
   23.1402   24.0381   17.8779 C   0  0  0  0  0  0  0  0  0  0  0  0
   22.5832   24.6013   16.4875 C   0  0  0  0  0  0  0  0  0  0  0  0
   21.9333   23.0923   18.3172 C   0  0  0  0  0  0  0  0  0  0  0  0
   21.0620   21.7143   21.8932 C   0  0  0  0  0  0  0  0  0  0  0  0
   20.4205   21.0426   19.5361 C   0  0  0  0  0  0  0  0  0  0  0  0
  1  6  1  0
  1 10  1  0
  1 19  1  0
  2 15  2  0
  3 15  1  0
  4  7  1  0
  4 23  1  0
  5 12  1  0
  5 13  2  0
  5 21  1  0
  7 15  1  0
  7 24  1  0
  7 25  1  0
  8 11  1  0
  8 14  1  0
  8 24  1  0
  9 11  1  0
 10 14  1  0
 11 25  1  0
 14 17  1  0
 16 20  1  0
 17 19  1  0
 17 20  2  0
 18 21  1  0
 20 24  1  0
 21 22  1  0
 21 23  1  0
M  END
>  <ID>  (1) 
conformer_0

$$$$
