
     RDKit          3D

 22 23  0  0  0  0  0  0  0  0999 V2000
   22.9178   22.3808   21.0707 N   0  0  0  0  0  0  0  0  0  0  0  0
   22.7839   25.4266   17.3210 C   0  0  0  0  0  0  0  0  0  0  0  0
   21.9639   19.9242   20.5774 C   0  0  0  0  0  0  0  0  0  0  0  0
   21.0106   17.9392   21.5465 O   0  0  0  0  0  0  0  0  0  0  0  0
   23.3855   24.0018   19.1897 C   0  0  0  0  0  0  0  0  0  0  0  0
   23.6851   22.9636   18.2907 C   0  0  0  0  0  0  0  0  0  0  0  0
   20.4534   22.1631   20.9544 C   0  0  0  0  0  0  0  0  0  0  0  0
   22.8986   24.3445   16.4586 C   0  0  0  0  0  0  0  0  0  0  0  0
   24.2568   21.8102   18.7286 O   0  0  0  0  0  0  0  0  0  0  0  0
   19.4790   23.3048   20.9645 C   0  0  0  0  0  0  0  0  0  0  0  0
   20.9214   20.9602   20.0338 C   0  0  0  0  0  0  0  0  0  0  0  0
   23.0477   25.2550   18.6872 C   0  0  0  0  0  0  0  0  0  0  0  0
   21.6616   22.3689   21.9086 C   0  0  0  0  0  0  0  0  0  0  0  0
   18.7257   23.4221   19.9713 O   0  0  0  0  0  0  0  0  0  0  0  0
   23.7942   21.2934   21.6945 C   0  0  0  0  0  0  0  0  0  0  0  0
   19.2905   23.7994   22.1074 O   0  0  0  0  0  0  0  0  0  0  0  0
   25.0386   20.9468   18.0675 C   0  0  0  0  0  0  0  0  0  0  0  0
   21.5469   18.5340   20.3157 C   0  0  0  0  0  0  0  0  0  0  0  0
   23.3434   23.1105   16.9298 C   0  0  0  0  0  0  0  0  0  0  0  0
   23.3274   23.6774   20.6230 C   0  0  0  0  0  0  0  0  0  0  0  0
   23.5361   24.5833   21.5198 O   0  0  0  0  0  0  0  0  0  0  0  0
   23.0087   19.9585   21.6605 C   0  0  0  0  0  0  0  0  0  0  0  0
  1 13  1  0
  1 15  1  0
  1 20  1  0
  2  8  2  0
  2 12  1  0
  3 11  1  0
  3 18  1  0
  3 22  1  0
  4 18  1  0
  5  6  1  0
  5 12  2  0
  5 20  1  0
  6  9  1  0
  6 19  2  0
  7 10  1  0
  7 11  1  0
  7 13  1  0
  8 19  1  0
  9 17  1  0
 10 14  2  0
 10 16  1  0
 15 22  1  0
 20 21  2  0
M  END
>  <ID>  (1) 
conformer_0

$$$$
