
     RDKit          3D

 23 23  0  0  0  0  0  0  0  0999 V2000
   20.4205   21.5819   19.9544 C   0  0  0  0  0  0  0  0  0  0  0  0
   23.8542   23.7279   21.7229 C   0  0  0  0  0  0  0  0  0  0  0  0
   25.4937   21.8334   21.6358 C   0  0  0  0  0  0  0  0  0  0  0  0
   19.4914   23.4967   22.7650 O   0  0  0  0  0  0  0  0  0  0  0  0
   22.1254   18.1773   20.8602 C   0  0  0  0  0  0  0  0  0  0  0  0
   22.4946   24.0331   22.0977 C   0  0  0  0  0  0  0  0  0  0  0  0
   21.1537   19.3253   20.6566 C   0  0  0  0  0  0  0  0  0  0  0  0
   23.0473   24.5386   16.7541 C   0  0  0  0  0  0  0  0  0  0  0  0
   18.7279   24.0182   20.7708 O   0  0  0  0  0  0  0  0  0  0  0  0
   23.5709   25.1995   17.8669 C   0  0  0  0  0  0  0  0  0  0  0  0
   23.3698   24.7096   19.1481 C   0  0  0  0  0  0  0  0  0  0  0  0
   22.1472   22.9003   18.2384 C   0  0  0  0  0  0  0  0  0  0  0  0
   22.3230   23.3705   16.9414 C   0  0  0  0  0  0  0  0  0  0  0  0
   21.6296   20.5999   19.9784 C   0  0  0  0  0  0  0  0  0  0  0  0
   21.5393   17.1536   21.4974 O   0  0  0  0  0  0  0  0  0  0  0  0
   22.6835   20.2262   18.9320 C   0  0  0  0  0  0  0  0  0  0  0  0
   23.3250   18.1064   20.4270 O   0  0  0  0  0  0  0  0  0  0  0  0
   24.6342   22.7168   22.6238 C   0  0  0  0  0  0  0  0  0  0  0  0
   20.7195   22.7288   20.9283 C   0  0  0  0  0  0  0  0  0  0  0  0
   19.6649   23.5816   21.5089 C   0  0  0  0  0  0  0  0  0  0  0  0
   22.6093   23.5495   19.3910 C   0  0  0  0  0  0  0  0  0  0  0  0
   24.6829   24.8229   21.4893 O   0  0  0  0  0  0  0  0  0  0  0  0
   22.2446   23.1236   20.8538 C   0  0  0  0  0  0  0  0  0  0  0  0
  1 14  1  0
  1 19  1  0
  2  6  1  0
  2 18  1  0
  2 22  1  0
  3 18  1  0
  4 20  2  0
  5  7  1  0
  5 15  2  0
  5 17  1  0
  6 23  1  0
  7 14  1  0
  8 10  1  0
  8 13  1  0
  9 20  1  0
 10 11  2  0
 11 21  1  0
 12 13  2  0
 12 21  1  0
 14 16  1  0
 19 20  1  0
 19 23  1  0
 21 23  1  0
M  END
>  <ID>  (1) 
conformer_0

$$$$
