
     RDKit          3D

 28 29  0  0  0  0  0  0  0  0999 V2000
   25.3742   25.8418   19.8285 C   0  0  0  0  0  0  0  0  0  0  0  0
   22.6175   25.5035   21.3231 C   0  0  0  0  0  0  0  0  0  0  0  0
   24.1921   29.2685   17.8787 F   0  0  0  0  0  0  0  0  0  0  0  0
   19.0307   23.8610   20.9305 O   0  0  0  0  0  0  0  0  0  0  0  0
   25.9259   26.1294   18.5897 C   0  0  0  0  0  0  0  0  0  0  0  0
   25.4958   27.2641   17.8966 C   0  0  0  0  0  0  0  0  0  0  0  0
   20.6783   21.5881   18.7555 C   0  0  0  0  0  0  0  0  0  0  0  0
   22.0891   24.6953   22.3344 C   0  0  0  0  0  0  0  0  0  0  0  0
   23.6923   26.3910   21.6246 C   0  0  0  0  0  0  0  0  0  0  0  0
   22.5900   17.8173   21.0321 O   0  0  0  0  0  0  0  0  0  0  0  0
   21.6923   23.2506   20.4898 C   0  0  0  0  0  0  0  0  0  0  0  0
   23.9401   27.7932   19.6435 C   0  0  0  0  0  0  0  0  0  0  0  0
   22.3371   23.5833   19.0943 C   0  0  0  0  0  0  0  0  0  0  0  0
   19.6606   22.2000   19.6734 C   0  0  0  0  0  0  0  0  0  0  0  0
   21.7944   20.9882   19.4773 O   0  0  0  0  0  0  0  0  0  0  0  0
   23.2521   20.2938   21.4562 O   0  0  0  0  0  0  0  0  0  0  0  0
   23.1896   22.4952   18.3023 C   0  0  0  0  0  0  0  0  0  0  0  0
   23.9572   21.3283   20.5676 C   0  0  0  0  0  0  0  0  0  0  0  0
   20.1684   23.2984   20.6520 C   0  0  0  0  0  0  0  0  0  0  0  0
   20.4388   23.5298   23.0492 C   0  0  0  0  0  0  0  0  0  0  0  0
   24.3917   26.6936   20.3474 C   0  0  0  0  0  0  0  0  0  0  0  0
   23.2182   21.2594   19.2077 C   0  0  0  0  0  0  0  0  0  0  0  0
   21.5517   19.6167   19.9521 C   0  0  0  0  0  0  0  0  0  0  0  0
   21.4780   24.4262   23.7392 C   0  0  0  0  0  0  0  0  0  0  0  0
   22.9046   19.0940   20.5524 C   0  0  0  0  0  0  0  0  0  0  0  0
   24.1159   18.7798   19.6537 C   0  0  0  0  0  0  0  0  0  0  0  0
   24.5249   28.0837   18.4575 C   0  0  0  0  0  0  0  0  0  0  0  0
   21.0708   23.6588   21.6800 N   0  0  0  0  0  0  0  0  0  0  0  0
  1  5  2  0
  1 21  1  0
  2  8  1  0
  2  9  1  0
  3 27  1  0
  4 19  2  0
  5  6  1  0
  6 27  2  0
  7 14  1  0
  7 15  1  0
  8 24  1  0
  9 21  1  0
 10 25  1  0
 11 13  2  0
 11 28  1  0
 12 21  2  0
 12 27  1  0
 13 17  1  0
 14 19  1  0
 15 23  1  0
 16 18  1  0
 16 25  1  0
 17 22  1  0
 18 22  1  0
 19 28  1  0
 20 24  1  0
 20 28  1  0
 23 25  1  0
 25 26  1  0
M  END
>  <ID>  (1) 
conformer_0

$$$$
