
     RDKit          3D

 14 13  0  0  0  0  0  0  0  0999 V2000
   23.2545   21.7507   19.8347 C   0  0  0  0  0  0  0  0  0  0  0  0
   19.9146   23.2333   20.2714 C   0  0  0  0  0  0  0  0  0  0  0  0
   22.6028   21.8404   21.1872 C   0  0  0  0  0  0  0  0  0  0  0  0
   19.9264   23.9564   21.3333 O   0  0  0  0  0  0  0  0  0  0  0  0
   24.6862   22.2950   19.6382 C   0  0  0  0  0  0  0  0  0  0  0  0
   21.0081   23.2881   19.4199 C   0  0  0  0  0  0  0  0  0  0  0  0
   18.8974   22.6053   19.9952 O   0  0  0  0  0  0  0  0  0  0  0  0
   25.4774   21.3695   18.5576 C   0  0  0  0  0  0  0  0  0  0  0  0
   22.8477   20.6868   23.2997 O   0  0  0  0  0  0  0  0  0  0  0  0
   22.5649   21.6099   18.4571 C   0  0  0  0  0  0  0  0  0  0  0  0
   23.0541   20.6476   22.0305 C   0  0  0  0  0  0  0  0  0  0  0  0
   23.4616   19.6641   21.3536 O   0  0  0  0  0  0  0  0  0  0  0  0
   21.7510   22.9439   18.2337 C   0  0  0  0  0  0  0  0  0  0  0  0
   22.5896   23.8307   17.2568 C   0  0  0  0  0  0  0  0  0  0  0  0
  1  3  1  0
  1  5  1  0
  1 10  1  0
  2  4  2  0
  2  6  1  0
  2  7  1  0
  3 11  1  0
  5  8  1  0
  6 13  1  0
  9 11  2  0
 10 13  1  0
 11 12  1  0
 13 14  1  0
M  END
>  <ID>  (1) 
conformer_0

$$$$
