
     RDKit          3D

 23 24  0  0  0  0  0  0  0  0999 V2000
   20.1880   21.4623   19.7213 C   0  0  0  0  0  0  0  0  0  0  0  0
   23.0789   21.8912   21.0014 O   0  0  0  0  0  0  0  0  0  0  0  0
   24.7152   23.0699   16.9612 C   0  0  0  0  0  0  0  0  0  0  0  0
   21.1480   23.9763   20.8540 C   0  0  0  0  0  0  0  0  0  0  0  0
   22.4551   24.4202   20.5996 O   0  0  0  0  0  0  0  0  0  0  0  0
   22.5620   20.8407   20.1188 C   0  0  0  0  0  0  0  0  0  0  0  0
   20.4765   24.2486   22.1265 C   0  0  0  0  0  0  0  0  0  0  0  0
   22.7585   18.3339   20.2680 O   0  0  0  0  0  0  0  0  0  0  0  0
   23.9896   19.7543   21.7461 C   0  0  0  0  0  0  0  0  0  0  0  0
   22.8635   24.3485   19.2146 C   0  0  0  0  0  0  0  0  0  0  0  0
   18.4427   24.0200   20.8561 O   0  0  0  0  0  0  0  0  0  0  0  0
   21.1836   23.9967   23.1922 O   0  0  0  0  0  0  0  0  0  0  0  0
   21.0601   20.3337   20.3150 C   0  0  0  0  0  0  0  0  0  0  0  0
   23.3153   25.3952   18.7099 O   0  0  0  0  0  0  0  0  0  0  0  0
   22.5358   21.5047   18.6912 C   0  0  0  0  0  0  0  0  0  0  0  0
   19.1364   23.8405   22.0760 O   0  0  0  0  0  0  0  0  0  0  0  0
   22.6696   23.0678   18.4238 C   0  0  0  0  0  0  0  0  0  0  0  0
   20.6807   22.8222   20.1727 O   0  0  0  0  0  0  0  0  0  0  0  0
   23.3860   19.5803   20.3571 C   0  0  0  0  0  0  0  0  0  0  0  0
   23.9316   21.3774   22.0013 C   0  0  0  0  0  0  0  0  0  0  0  0
   21.8593   23.6411   16.0890 C   0  0  0  0  0  0  0  0  0  0  0  0
   25.1029   20.7408   21.4818 C   0  0  0  0  0  0  0  0  0  0  0  0
   23.1439   23.2346   16.9136 C   0  0  0  0  0  0  0  0  0  0  0  0
  1 13  1  0
  1 18  1  0
  2  6  1  0
  2 20  1  0
  3 23  1  0
  4  5  1  0
  4  7  1  0
  4 18  1  0
  5 10  1  0
  6 13  1  0
  6 15  1  0
  6 19  1  0
  7 12  2  0
  7 16  1  0
  8 19  1  0
  9 19  1  0
  9 22  1  0
 10 14  2  0
 10 17  1  0
 11 16  1  0
 15 17  1  0
 17 23  1  0
 20 22  1  0
 21 23  1  0
M  END
>  <ID>  (1) 
conformer_0

$$$$
