
     RDKit          3D

 22 25  0  0  0  0  0  0  0  0999 V2000
   22.5738   18.3600   20.4408 O   0  0  0  0  0  0  0  0  0  0  0  0
   20.3492   21.3288   19.8063 C   0  0  0  0  0  0  0  0  0  0  0  0
   24.0380   24.1079   19.8208 C   0  0  0  0  0  0  0  0  0  0  0  0
   24.3709   25.5548   19.6868 C   0  0  0  0  0  0  0  0  0  0  0  0
   24.0986   23.6618   18.3461 C   0  0  0  0  0  0  0  0  0  0  0  0
   26.2583   23.6480   17.1986 C   0  0  0  0  0  0  0  0  0  0  0  0
   25.3838   25.6475   18.5511 C   0  0  0  0  0  0  0  0  0  0  0  0
   23.8762   22.0435   22.3495 C   0  0  0  0  0  0  0  0  0  0  0  0
   22.7440   23.5746   20.4237 C   0  0  0  0  0  0  0  0  0  0  0  0
   21.4051   19.0397   20.1693 C   0  0  0  0  0  0  0  0  0  0  0  0
   21.5910   20.4574   19.7775 C   0  0  0  0  0  0  0  0  0  0  0  0
   22.7634   22.3538   21.2297 C   0  0  0  0  0  0  0  0  0  0  0  0
   22.1617   23.4046   16.6494 C   0  0  0  0  0  0  0  0  0  0  0  0
   20.5560   22.8504   19.6908 C   0  0  0  0  0  0  0  0  0  0  0  0
   22.1733   24.2325   22.8378 C   0  0  0  0  0  0  0  0  0  0  0  0
   22.7952   21.0940   20.3047 C   0  0  0  0  0  0  0  0  0  0  0  0
   22.7031   23.4756   17.9752 C   0  0  0  0  0  0  0  0  0  0  0  0
   21.8858   23.2688   19.1662 C   0  0  0  0  0  0  0  0  0  0  0  0
   20.4904   23.4065   21.0991 C   0  0  0  0  0  0  0  0  0  0  0  0
   25.0314   24.5347   17.5453 C   0  0  0  0  0  0  0  0  0  0  0  0
   21.8631   23.3924   21.6356 C   0  0  0  0  0  0  0  0  0  0  0  0
   19.4503   23.4598   21.7595 O   0  0  0  0  0  0  0  0  0  0  0  0
  1 10  1  0
  2 11  1  0
  2 14  1  0
  3  4  1  0
  3  5  1  0
  3  9  1  0
  4  7  1  0
  5 17  1  0
  5 20  1  0
  6 20  1  0
  7 20  1  0
  8 12  1  0
  9 12  1  0
  9 18  1  0
 10 11  1  0
 11 16  1  0
 12 16  1  0
 12 21  1  0
 13 17  1  0
 14 18  1  0
 14 19  1  0
 15 21  1  0
 17 18  2  0
 19 21  1  0
 19 22  2  0
M  END
>  <ID>  (1) 
conformer_0

$$$$
