
     RDKit          3D

 23 24  0  0  0  0  0  0  0  0999 V2000
   23.8310   21.8952   21.3538 C   0  0  0  0  0  0  0  0  0  0  0  0
   23.7083   20.5170   21.9303 C   0  0  0  0  0  0  0  0  0  0  0  0
   19.7733   22.8091   20.0659 C   0  0  0  0  0  0  0  0  0  0  0  0
   22.2748   23.4809   22.9243 O   0  0  0  0  0  0  0  0  0  0  0  0
   23.6231   22.9694   17.5242 C   0  0  0  0  0  0  0  0  0  0  0  0
   22.5011   22.4012   20.7636 C   0  0  0  0  0  0  0  0  0  0  0  0
   24.5049   19.6285   21.4636 O   0  0  0  0  0  0  0  0  0  0  0  0
   20.4938   21.5140   19.5308 C   0  0  0  0  0  0  0  0  0  0  0  0
   25.7486   24.6823   17.1924 C   0  0  0  0  0  0  0  0  0  0  0  0
   19.3939   23.8992   22.0722 O   0  0  0  0  0  0  0  0  0  0  0  0
   25.9372   23.2724   17.1929 C   0  0  0  0  0  0  0  0  0  0  0  0
   24.4650   25.2119   17.2421 C   0  0  0  0  0  0  0  0  0  0  0  0
   24.2389   26.6385   17.4936 C   0  0  0  0  0  0  0  0  0  0  0  0
   21.6677   23.2389   21.7773 C   0  0  0  0  0  0  0  0  0  0  0  0
   22.2636   23.1449   19.4782 C   0  0  0  0  0  0  0  0  0  0  0  0
   22.0991   24.7682   16.9612 F   0  0  0  0  0  0  0  0  0  0  0  0
   20.3193   23.4885   21.2752 C   0  0  0  0  0  0  0  0  0  0  0  0
   24.8617   22.7466   21.4841 O   0  0  0  0  0  0  0  0  0  0  0  0
   22.5679   22.3357   18.2307 N   0  0  0  0  0  0  0  0  0  0  0  0
   24.8595   22.4200   17.3471 C   0  0  0  0  0  0  0  0  0  0  0  0
   21.7583   21.0922   20.3940 C   0  0  0  0  0  0  0  0  0  0  0  0
   23.3943   24.3169   17.2255 C   0  0  0  0  0  0  0  0  0  0  0  0
   22.7407   20.2840   22.7514 O   0  0  0  0  0  0  0  0  0  0  0  0
  1  2  1  0
  1  6  1  0
  1 18  1  0
  2  7  2  0
  2 23  1  0
  3  8  1  0
  3 17  1  0
  4 14  1  0
  5 19  1  0
  5 20  1  0
  5 22  1  0
  6 14  1  0
  6 15  1  0
  6 21  1  0
  8 21  1  0
  9 11  1  0
  9 12  2  0
 10 17  1  0
 11 20  2  0
 12 13  1  0
 12 22  1  0
 14 17  2  0
 15 19  1  0
 16 22  1  0
M  END
>  <ID>  (1) 
conformer_0

$$$$
