
     RDKit          3D

 19 20  0  0  0  0  0  0  0  0999 V2000
   19.9024   23.3156   21.9808 O   0  0  0  0  0  0  0  0  0  0  0  0
   23.6094   23.6989   16.5630 C   0  0  0  0  0  0  0  0  0  0  0  0
   24.2028   21.3747   19.7247 O   0  0  0  0  0  0  0  0  0  0  0  0
   24.0360   22.5899   19.0147 C   0  0  0  0  0  0  0  0  0  0  0  0
   25.2296   23.5870   18.8689 C   0  0  0  0  0  0  0  0  0  0  0  0
   23.0070   20.4988   19.7575 C   0  0  0  0  0  0  0  0  0  0  0  0
   22.6267   18.3262   20.5250 O   0  0  0  0  0  0  0  0  0  0  0  0
   20.6395   21.9332   20.0798 C   0  0  0  0  0  0  0  0  0  0  0  0
   22.7416   23.3220   18.8326 C   0  0  0  0  0  0  0  0  0  0  0  0
   23.3179   19.5040   20.9875 C   0  0  0  0  0  0  0  0  0  0  0  0
   23.1249   25.7717   17.9983 C   0  0  0  0  0  0  0  0  0  0  0  0
   19.8268   23.0102   20.7759 C   0  0  0  0  0  0  0  0  0  0  0  0
   25.3844   25.1913   18.8496 C   0  0  0  0  0  0  0  0  0  0  0  0
   22.9127   24.3115   17.7422 C   0  0  0  0  0  0  0  0  0  0  0  0
   23.4296   20.5619   22.0829 C   0  0  0  0  0  0  0  0  0  0  0  0
   21.9635   21.3556   20.4313 C   0  0  0  0  0  0  0  0  0  0  0  0
   22.4149   21.5900   21.7560 O   0  0  0  0  0  0  0  0  0  0  0  0
   24.6364   26.1696   17.8691 C   0  0  0  0  0  0  0  0  0  0  0  0
   18.7672   23.3452   20.1226 O   0  0  0  0  0  0  0  0  0  0  0  0
  1 12  2  0
  2 14  1  0
  3  4  1  0
  3  6  1  0
  4  5  1  0
  4  9  1  0
  5 13  1  0
  6 10  1  0
  6 16  1  0
  7 10  1  0
  8 12  1  0
  8 16  1  0
  9 14  1  0
 10 15  1  0
 11 14  1  0
 11 18  1  0
 12 19  1  0
 13 18  1  0
 15 17  1  0
 16 17  1  0
M  END
>  <ID>  (1) 
conformer_0

$$$$
