
     RDKit          3D

 27 31  0  0  0  0  0  0  0  0999 V2000
   21.3870   22.3635   17.5255 C   0  0  0  0  0  0  0  0  0  0  0  0
   23.5175   22.9113   16.5467 C   0  0  0  0  0  0  0  0  0  0  0  0
   19.5774   23.4332   22.9087 O   0  0  0  0  0  0  0  0  0  0  0  0
   23.3620   27.0870   21.1717 C   0  0  0  0  0  0  0  0  0  0  0  0
   21.8652   22.7587   18.7959 C   0  0  0  0  0  0  0  0  0  0  0  0
   21.5393   18.9504   19.9093 O   0  0  0  0  0  0  0  0  0  0  0  0
   23.9756   23.3510   17.7941 C   0  0  0  0  0  0  0  0  0  0  0  0
   23.9177   28.3631   19.1726 O   0  0  0  0  0  0  0  0  0  0  0  0
   23.5113   19.2657   21.2160 C   0  0  0  0  0  0  0  0  0  0  0  0
   19.6786   23.6314   21.6667 C   0  0  0  0  0  0  0  0  0  0  0  0
   25.2777   23.4314   18.0790 O   0  0  0  0  0  0  0  0  0  0  0  0
   18.8181   24.1851   21.0332 O   0  0  0  0  0  0  0  0  0  0  0  0
   22.5223   23.3940   21.4867 C   0  0  0  0  0  0  0  0  0  0  0  0
   22.2403   19.7133   20.5607 C   0  0  0  0  0  0  0  0  0  0  0  0
   21.0646   22.1146   19.9782 C   0  0  0  0  0  0  0  0  0  0  0  0
   23.0871   25.8600   21.7258 C   0  0  0  0  0  0  0  0  0  0  0  0
   22.2203   22.4745   16.4317 C   0  0  0  0  0  0  0  0  0  0  0  0
   22.9873   23.6173   18.8146 C   0  0  0  0  0  0  0  0  0  0  0  0
   21.9889   21.0613   20.7343 N   0  0  0  0  0  0  0  0  0  0  0  0
   23.1524   21.9900   21.1698 C   0  0  0  0  0  0  0  0  0  0  0  0
   23.5421   21.3606   22.5131 C   0  0  0  0  0  0  0  0  0  0  0  0
   22.9719   24.7186   20.9564 C   0  0  0  0  0  0  0  0  0  0  0  0
   23.6102   27.1751   19.7862 C   0  0  0  0  0  0  0  0  0  0  0  0
   23.2120   24.8058   19.5676 C   0  0  0  0  0  0  0  0  0  0  0  0
   23.6015   19.9552   22.4772 O   0  0  0  0  0  0  0  0  0  0  0  0
   23.5657   26.0539   19.0193 C   0  0  0  0  0  0  0  0  0  0  0  0
   20.9980   23.2102   21.1234 C   0  0  0  0  0  0  0  0  0  0  0  0
  1  5  1  0
  1 17  2  0
  2  7  2  0
  2 17  1  0
  3 10  2  0
  4 16  2  0
  4 23  1  0
  5 15  1  0
  5 18  1  0
  6 14  2  0
  7 11  1  0
  7 18  1  0
  8 23  1  0
  9 14  1  0
  9 25  1  0
 10 12  1  0
 10 27  1  0
 13 20  1  0
 13 22  1  0
 13 27  1  0
 14 19  1  0
 15 19  1  0
 15 27  1  0
 16 22  1  0
 18 24  1  0
 19 20  1  0
 20 21  1  0
 21 25  1  0
 22 24  2  0
 23 26  2  0
 24 26  1  0
M  END
>  <ID>  (1) 
conformer_0

$$$$
