
     RDKit          3D

 27 30  0  0  0  0  0  0  0  0999 V2000
   20.7789   22.8109   21.0484 C   0  0  0  0  0  0  0  0  0  0  0  0
   23.2009   22.5518   21.1528 C   0  0  0  0  0  0  0  0  0  0  0  0
   18.6340   23.1218   20.0999 O   0  0  0  0  0  0  0  0  0  0  0  0
   22.5830   21.1677   20.9458 C   0  0  0  0  0  0  0  0  0  0  0  0
   22.4505   22.9915   17.6105 C   0  0  0  0  0  0  0  0  0  0  0  0
   22.2541   25.0269   16.3499 C   0  0  0  0  0  0  0  0  0  0  0  0
   25.1170   21.1986   21.5593 C   0  0  0  0  0  0  0  0  0  0  0  0
   24.9124   20.9139   20.0816 C   0  0  0  0  0  0  0  0  0  0  0  0
   24.9619   22.2626   19.4858 C   0  0  0  0  0  0  0  0  0  0  0  0
   23.5811   19.0056   20.4901 C   0  0  0  0  0  0  0  0  0  0  0  0
   24.3573   25.5094   19.2834 O   0  0  0  0  0  0  0  0  0  0  0  0
   24.3535   22.4065   21.9954 N   0  0  0  0  0  0  0  0  0  0  0  0
   23.0469   25.6790   17.3008 C   0  0  0  0  0  0  0  0  0  0  0  0
   26.1109   22.9260   19.6105 O   0  0  0  0  0  0  0  0  0  0  0  0
   24.6036   17.5886   19.0022 O   0  0  0  0  0  0  0  0  0  0  0  0
   24.8713   18.3882   20.0774 C   0  0  0  0  0  0  0  0  0  0  0  0
   22.6251   18.2601   20.8094 O   0  0  0  0  0  0  0  0  0  0  0  0
   23.5437   24.9126   18.3955 C   0  0  0  0  0  0  0  0  0  0  0  0
   22.0155   23.5019   23.0002 O   0  0  0  0  0  0  0  0  0  0  0  0
   21.9291   23.6847   16.5251 C   0  0  0  0  0  0  0  0  0  0  0  0
   21.2139   21.5561   20.4617 O   0  0  0  0  0  0  0  0  0  0  0  0
   23.6532   22.9518   19.7957 C   0  0  0  0  0  0  0  0  0  0  0  0
   23.4821   20.3760   19.9743 C   0  0  0  0  0  0  0  0  0  0  0  0
   22.0164   23.4377   21.6085 C   0  0  0  0  0  0  0  0  0  0  0  0
   19.4916   23.4729   20.9480 C   0  0  0  0  0  0  0  0  0  0  0  0
   19.1106   24.2001   21.8397 O   0  0  0  0  0  0  0  0  0  0  0  0
   23.1798   23.6009   18.5753 C   0  0  0  0  0  0  0  0  0  0  0  0
  1 21  1  0
  1 24  1  0
  1 25  1  0
  2  4  1  0
  2 12  1  0
  2 22  1  0
  2 24  1  0
  3 25  2  0
  4 21  1  0
  4 23  1  0
  5 20  2  0
  5 27  1  0
  6 13  2  0
  6 20  1  0
  7  8  1  0
  7 12  1  0
  8  9  1  0
  8 23  1  0
  9 14  1  0
  9 22  1  0
 10 16  1  0
 10 17  2  0
 10 23  1  0
 11 18  1  0
 13 18  1  0
 15 16  1  0
 18 27  2  0
 19 24  1  0
 22 27  1  0
 25 26  1  0
M  END
>  <ID>  (1) 
conformer_0

$$$$
