
     RDKit          3D

 27 30  0  0  0  0  0  0  0  0999 V2000
   21.0835   23.1776   20.4577 C   0  0  0  0  0  0  0  0  0  0  0  0
   24.9101   27.0918   20.0062 C   0  0  0  0  0  0  0  0  0  0  0  0
   21.6196   20.7925   20.4220 C   0  0  0  0  0  0  0  0  0  0  0  0
   23.1489   25.8986   21.1966 C   0  0  0  0  0  0  0  0  0  0  0  0
   20.1973   24.0873   21.1363 C   0  0  0  0  0  0  0  0  0  0  0  0
   23.7571   24.0939   18.0879 C   0  0  0  0  0  0  0  0  0  0  0  0
   20.7762   21.8626   20.1375 C   0  0  0  0  0  0  0  0  0  0  0  0
   19.6478   21.5817   19.5162 O   0  0  0  0  0  0  0  0  0  0  0  0
   23.3006   20.3908   22.0977 O   0  0  0  0  0  0  0  0  0  0  0  0
   18.9739   23.7716   21.1818 O   0  0  0  0  0  0  0  0  0  0  0  0
   21.9234   18.3899   20.8196 C   0  0  0  0  0  0  0  0  0  0  0  0
   24.7757   23.2419   17.7160 O   0  0  0  0  0  0  0  0  0  0  0  0
   21.0516   17.8239   21.6298 O   0  0  0  0  0  0  0  0  0  0  0  0
   22.6990   23.1491   18.7251 C   0  0  0  0  0  0  0  0  0  0  0  0
   22.4723   23.4070   16.3106 C   0  0  0  0  0  0  0  0  0  0  0  0
   23.1834   24.8238   20.2996 C   0  0  0  0  0  0  0  0  0  0  0  0
   22.7602   21.1559   21.1561 C   0  0  0  0  0  0  0  0  0  0  0  0
   20.5440   25.0439   21.8410 O   0  0  0  0  0  0  0  0  0  0  0  0
   21.9328   22.7026   17.5552 C   0  0  0  0  0  0  0  0  0  0  0  0
   23.0304   24.6978   16.9059 C   0  0  0  0  0  0  0  0  0  0  0  0
   22.5350   23.3943   20.1747 C   0  0  0  0  0  0  0  0  0  0  0  0
   23.9547   27.0237   21.0516 C   0  0  0  0  0  0  0  0  0  0  0  0
   23.0922   18.0689   20.5409 O   0  0  0  0  0  0  0  0  0  0  0  0
   23.3045   22.4090   21.0142 O   0  0  0  0  0  0  0  0  0  0  0  0
   24.9090   26.0381   19.1051 C   0  0  0  0  0  0  0  0  0  0  0  0
   24.0189   25.0201   19.2023 C   0  0  0  0  0  0  0  0  0  0  0  0
   21.3314   19.4131   20.0153 C   0  0  0  0  0  0  0  0  0  0  0  0
  1  5  1  0
  1  7  1  0
  1 21  1  0
  2 22  2  0
  2 25  1  0
  3  7  2  0
  3 17  1  0
  3 27  1  0
  4 16  2  0
  4 22  1  0
  5 10  2  0
  5 18  1  0
  6 12  1  0
  6 14  1  0
  6 20  1  0
  6 26  1  0
  7  8  1  0
  9 17  2  0
 11 13  2  0
 11 23  1  0
 11 27  1  0
 14 19  1  0
 14 21  1  0
 15 19  1  0
 15 20  1  0
 16 21  1  0
 16 26  1  0
 17 24  1  0
 21 24  1  0
 25 26  2  0
M  END
>  <ID>  (1) 
conformer_0

$$$$
