
     RDKit          3D

 13 13  0  0  0  0  0  0  0  0999 V2000
   24.1130   22.9170   16.9316 O   0  0  0  0  0  0  0  0  0  0  0  0
   20.7283   21.5458   19.8923 C   0  0  0  0  0  0  0  0  0  0  0  0
   21.9389   20.6061   19.8811 C   0  0  0  0  0  0  0  0  0  0  0  0
   23.2117   21.4238   19.7969 C   0  0  0  0  0  0  0  0  0  0  0  0
   18.9484   24.2502   21.1912 O   0  0  0  0  0  0  0  0  0  0  0  0
   22.9048   24.6890   17.6396 O   0  0  0  0  0  0  0  0  0  0  0  0
   23.0446   22.7954   19.0614 C   0  0  0  0  0  0  0  0  0  0  0  0
   22.0133   23.6343   19.8718 C   0  0  0  0  0  0  0  0  0  0  0  0
   21.6231   19.2459   20.3868 C   0  0  0  0  0  0  0  0  0  0  0  0
   23.4382   23.5543   17.8153 C   0  0  0  0  0  0  0  0  0  0  0  0
   20.0142   23.5784   21.4049 C   0  0  0  0  0  0  0  0  0  0  0  0
   20.8264   22.9504   20.4248 C   0  0  0  0  0  0  0  0  0  0  0  0
   22.2462   18.9903   21.6995 O   0  0  0  0  0  0  0  0  0  0  0  0
  1 10  2  0
  2  3  1  0
  2 12  1  0
  3  4  1  0
  3  9  1  0
  4  7  1  0
  5 11  2  0
  6 10  1  0
  7  8  1  0
  7 10  1  0
  8 12  2  0
  9 13  1  0
 11 12  1  0
M  END
>  <ID>  (1) 
conformer_0

$$$$
