
     RDKit          3D

 23 26  0  0  0  0  0  0  0  0999 V2000
   18.8353   24.2816   21.0585 O   0  0  0  0  0  0  0  0  0  0  0  0
   23.6891   25.0309   17.3569 O   0  0  0  0  0  0  0  0  0  0  0  0
   22.5902   22.1764   20.2480 C   0  0  0  0  0  0  0  0  0  0  0  0
   19.3618   23.5514   23.0607 O   0  0  0  0  0  0  0  0  0  0  0  0
   23.3898   20.7911   22.3430 C   0  0  0  0  0  0  0  0  0  0  0  0
   24.7065   20.9144   19.6381 C   0  0  0  0  0  0  0  0  0  0  0  0
   24.4029   18.5221   19.4980 O   0  0  0  0  0  0  0  0  0  0  0  0
   20.3872   21.4661   19.2732 C   0  0  0  0  0  0  0  0  0  0  0  0
   21.1131   23.6595   21.5307 C   0  0  0  0  0  0  0  0  0  0  0  0
   21.8105   23.4851   20.2445 C   0  0  0  0  0  0  0  0  0  0  0  0
   23.8030   19.5474   21.5624 C   0  0  0  0  0  0  0  0  0  0  0  0
   19.6891   23.8543   21.8941 C   0  0  0  0  0  0  0  0  0  0  0  0
   21.7755   22.7007   22.4544 O   0  0  0  0  0  0  0  0  0  0  0  0
   23.4070   24.2185   18.4540 C   0  0  0  0  0  0  0  0  0  0  0  0
   22.4042   24.5692   19.4490 C   0  0  0  0  0  0  0  0  0  0  0  0
   23.9920   22.2450   19.7383 C   0  0  0  0  0  0  0  0  0  0  0  0
   21.8782   21.1760   19.4056 C   0  0  0  0  0  0  0  0  0  0  0  0
   22.4828   21.7252   21.6837 C   0  0  0  0  0  0  0  0  0  0  0  0
   24.1458   22.9791   18.4626 C   0  0  0  0  0  0  0  0  0  0  0  0
   23.6587   26.4208   17.7816 C   0  0  0  0  0  0  0  0  0  0  0  0
   22.4312   19.8159   19.4791 C   0  0  0  0  0  0  0  0  0  0  0  0
   23.8447   19.7466   20.0419 C   0  0  0  0  0  0  0  0  0  0  0  0
   25.4812   20.7697   18.4698 O   0  0  0  0  0  0  0  0  0  0  0  0
  1 12  2  0
  2 14  1  0
  2 20  1  0
  3 10  1  0
  3 16  1  0
  3 17  1  0
  3 18  1  0
  4 12  1  0
  5 11  1  0
  5 18  1  0
  6 16  1  0
  6 22  1  0
  6 23  1  0
  7 22  1  0
  8 17  1  0
  9 10  1  0
  9 12  1  0
  9 13  1  0
 10 15  1  0
 11 22  1  0
 13 18  1  0
 14 15  1  0
 14 19  1  0
 16 19  1  0
 17 21  1  0
 21 22  1  0
M  END
>  <ID>  (1) 
conformer_0

$$$$
