
     RDKit          3D

 31 32  0  0  0  0  0  0  0  0999 V2000
   22.7180   19.0841   19.7693 C   0  0  0  0  0  0  0  0  0  0  0  0
   20.9885   23.5736   23.0342 C   0  0  0  0  0  0  0  0  0  0  0  0
   23.9588   24.7759   17.2283 C   0  0  0  0  0  0  0  0  0  0  0  0
   25.1820   25.7436   19.1783 C   0  0  0  0  0  0  0  0  0  0  0  0
   23.3525   20.0925   22.6256 O   0  0  0  0  0  0  0  0  0  0  0  0
   23.5646   27.6253   20.2456 C   0  0  0  0  0  0  0  0  0  0  0  0
   24.0708   23.3972   17.2235 C   0  0  0  0  0  0  0  0  0  0  0  0
   25.0019   25.5970   17.7809 C   0  0  0  0  0  0  0  0  0  0  0  0
   19.2006   24.0297   21.5980 O   0  0  0  0  0  0  0  0  0  0  0  0
   22.4820   22.0483   21.6023 C   0  0  0  0  0  0  0  0  0  0  0  0
   22.2034   22.6533   22.9948 C   0  0  0  0  0  0  0  0  0  0  0  0
   21.9362   23.2820   16.2051 C   0  0  0  0  0  0  0  0  0  0  0  0
   21.1342   24.6248   20.8433 O   0  0  0  0  0  0  0  0  0  0  0  0
   24.5919   28.0544   19.1070 C   0  0  0  0  0  0  0  0  0  0  0  0
   23.5072   20.2375   20.1842 C   0  0  0  0  0  0  0  0  0  0  0  0
   21.7875   24.6636   16.2330 C   0  0  0  0  0  0  0  0  0  0  0  0
   27.6837   23.6806   17.1528 C   0  0  0  0  0  0  0  0  0  0  0  0
   24.4336   25.3054   20.3231 C   0  0  0  0  0  0  0  0  0  0  0  0
   20.4495   24.0644   21.7377 C   0  0  0  0  0  0  0  0  0  0  0  0
   22.8379   17.9917   20.7393 O   0  0  0  0  0  0  0  0  0  0  0  0
   25.3714   22.7673   17.8211 C   0  0  0  0  0  0  0  0  0  0  0  0
   26.5543   23.7371   18.2547 C   0  0  0  0  0  0  0  0  0  0  0  0
   25.7644   27.0904   19.2307 C   0  0  0  0  0  0  0  0  0  0  0  0
   24.7532   20.4437   19.4093 C   0  0  0  0  0  0  0  0  0  0  0  0
   23.0708   22.6650   16.6945 C   0  0  0  0  0  0  0  0  0  0  0  0
   23.7981   26.3976   21.1516 C   0  0  0  0  0  0  0  0  0  0  0  0
   25.0552   21.9207   19.0986 C   0  0  0  0  0  0  0  0  0  0  0  0
   25.8969   21.8783   16.8101 O   0  0  0  0  0  0  0  0  0  0  0  0
   24.3787   24.1034   20.7664 O   0  0  0  0  0  0  0  0  0  0  0  0
   22.8038   25.4366   16.7430 C   0  0  0  0  0  0  0  0  0  0  0  0
   23.4303   20.8763   21.5293 C   0  0  0  0  0  0  0  0  0  0  0  0
  1 15  1  0
  1 20  1  0
  2 11  1  0
  2 19  1  0
  3  7  1  0
  3  8  1  0
  3 30  1  0
  4  8  1  0
  4 18  1  0
  4 23  1  0
  5 31  1  0
  6 14  1  0
  6 26  1  0
  7 21  1  0
  7 25  2  0
  9 19  2  0
 10 11  1  0
 10 31  1  0
 12 16  1  0
 12 25  1  0
 13 19  1  0
 14 23  1  0
 15 24  1  0
 15 31  1  0
 16 30  2  0
 17 22  1  0
 18 26  1  0
 18 29  2  0
 21 22  1  0
 21 27  1  0
 21 28  1  0
 24 27  1  0
M  END
>  <ID>  (1) 
conformer_0

$$$$
