
     RDKit          3D

 21 21  0  0  0  0  0  0  0  0999 V2000
   23.5370   24.1329   17.9967 C   0  0  0  0  0  0  0  0  0  0  0  0
   22.5328   17.5550   21.0519 O   0  0  0  0  0  0  0  0  0  0  0  0
   20.0127   23.4285   22.8166 O   0  0  0  0  0  1  0  0  0  0  0  0
   22.9509   22.4154   21.8934 C   0  0  0  0  0  0  0  0  0  0  0  0
   25.6354   21.1498   20.9696 O   0  0  0  0  0  0  0  0  0  0  0  0
   18.7393   24.5563   21.0786 O   0  0  0  0  0  0  0  0  0  0  0  0
   22.7545   24.9000   16.9937 C   0  0  0  0  0  0  0  0  0  0  0  0
   21.9951   22.3462   18.2263 C   0  0  0  0  0  0  0  0  0  0  0  0
   20.8132   23.0134   20.2982 C   0  0  0  0  0  0  0  0  0  0  0  0
   22.3351   23.4609   17.2297 C   0  0  0  0  0  0  0  0  0  0  0  0
   22.9261   24.2244   19.3069 O   0  0  0  0  0  0  0  0  0  0  0  0
   21.4396   19.3159   20.2369 O   0  0  0  0  0  0  0  0  0  0  0  0
   20.1880   24.1141   21.4081 P   0  0  0  0  0  4  0  0  0  0  0  0
   22.9948   20.9727   21.5380 C   0  0  0  0  0  0  0  0  0  0  0  0
   25.0070   19.9458   20.4662 C   0  0  0  0  0  0  0  0  0  0  0  0
   23.6593   19.6428   21.0990 C   0  0  0  0  0  0  0  0  0  0  0  0
   22.2183   23.0005   19.6140 C   0  0  0  0  0  0  0  0  0  0  0  0
   22.8796   26.2866   17.2636 O   0  0  0  0  0  0  0  0  0  0  0  0
   22.5330   18.7184   20.6809 C   0  0  0  0  0  0  0  0  0  0  0  0
   23.1123   22.0411   20.4937 C   0  0  0  0  0  0  0  0  0  0  0  0
   21.0919   25.3552   21.4858 O   0  0  0  0  0  0  0  0  0  0  0  0
  1  7  1  0
  1 11  1  0
  2 19  2  0
  3 13  2  0
  4 14  1  0
  4 20  1  0
  5 15  1  0
  6 13  1  0
  7 10  1  0
  7 18  1  0
  8 10  1  0
  8 17  1  0
  9 13  1  0
  9 17  1  0
 11 17  1  0
 12 19  1  0
 13 21  1  0
 14 16  1  0
 15 16  1  0
 16 19  1  0
 17 20  1  0
M  END
>  <ID>  (1) 
conformer_0

$$$$
