
     RDKit          3D

 18 20  0  0  0  0  0  0  0  0999 V2000
   21.3990   23.9804   22.0611 C   0  0  0  0  0  0  0  0  0  0  0  0
   22.5017   22.1329   18.2003 C   0  0  0  0  0  0  0  0  0  0  0  0
   22.2547   22.1860   20.7346 C   0  0  0  0  0  0  0  0  0  0  0  0
   19.1237   23.9158   21.2591 O   0  0  0  0  0  0  0  0  0  0  0  0
   23.4236   26.1581   17.3385 O   0  0  0  0  0  0  0  0  0  0  0  0
   22.4689   22.9544   21.9563 O   0  0  0  0  0  0  0  0  0  0  0  0
   20.8259   22.4203   20.2085 C   0  0  0  0  0  0  0  0  0  0  0  0
   22.7068   24.1030   19.1775 C   0  0  0  0  0  0  0  0  0  0  0  0
   21.3306   21.2388   18.7482 C   0  0  0  0  0  0  0  0  0  0  0  0
   20.2670   23.4716   21.1817 C   0  0  0  0  0  0  0  0  0  0  0  0
   23.1096   22.6786   19.5792 C   0  0  0  0  0  0  0  0  0  0  0  0
   24.1432   23.7935   17.2656 C   0  0  0  0  0  0  0  0  0  0  0  0
   22.0211   20.1362   19.5415 C   0  0  0  0  0  0  0  0  0  0  0  0
   23.1471   20.3619   22.2034 C   0  0  0  0  0  0  0  0  0  0  0  0
   22.6032   23.6612   17.6236 C   0  0  0  0  0  0  0  0  0  0  0  0
   22.4842   20.6719   20.8782 C   0  0  0  0  0  0  0  0  0  0  0  0
   22.0534   18.9032   19.3581 O   0  0  0  0  0  0  0  0  0  0  0  0
   24.5115   25.2535   17.6264 C   0  0  0  0  0  0  0  0  0  0  0  0
  1  6  1  0
  1 10  1  0
  2  9  1  0
  2 11  1  0
  2 15  1  0
  3  6  1  0
  3  7  1  0
  3 11  1  0
  3 16  1  0
  4 10  2  0
  5 18  1  0
  7 10  1  0
  8 11  1  0
  8 15  1  0
  9 13  1  0
 12 15  1  0
 12 18  1  0
 13 16  1  0
 13 17  2  0
 14 16  1  0
M  END
>  <ID>  (1) 
conformer_0

$$$$
