
     RDKit          3D

 26 27  0  0  0  0  0  0  0  0999 V2000
   20.2797   22.6933   20.4577 C   0  0  0  0  0  0  0  0  0  0  0  0
   21.3668   22.4918   19.4621 C   0  0  0  0  0  0  0  0  0  0  0  0
   21.6217   20.9823   19.0814 C   0  0  0  0  0  0  0  0  0  0  0  0
   24.8787   25.6376   18.8744 C   0  0  0  0  0  0  0  0  0  0  0  0
   22.1550   18.5956   19.8766 O   0  0  0  0  0  0  0  0  0  0  0  0
   23.1317   20.7229   19.2920 C   0  0  0  0  0  0  0  0  0  0  0  0
   24.0529   25.5744   20.2326 C   0  0  0  0  0  0  0  0  0  0  0  0
   23.4147   25.0922   21.5407 C   0  0  0  0  0  0  0  0  0  0  0  0
   21.8061   23.1436   17.0600 C   0  0  0  0  0  0  0  0  0  0  0  0
   23.8851   20.8457   17.9377 C   0  0  0  0  0  0  0  0  0  0  0  0
   19.3402   21.7003   20.1495 O   0  0  0  0  0  0  0  0  0  0  0  0
   24.1122   24.7943   17.8203 C   0  0  0  0  0  0  0  0  0  0  0  0
   23.1248   20.0512   22.4253 O   0  0  0  0  0  0  0  0  0  0  0  0
   24.7963   21.8690   22.7360 C   0  0  0  0  0  0  0  0  0  0  0  0
   18.4921   24.1648   20.6319 O   0  0  0  0  0  0  0  0  0  0  0  0
   25.2403   21.7824   20.1205 C   0  0  0  0  0  0  0  0  0  0  0  0
   23.6704   21.4809   20.5217 C   0  0  0  0  0  0  0  0  0  0  0  0
   20.4118   24.9119   21.4085 O   0  0  0  0  0  0  0  0  0  0  0  0
   23.8441   21.0175   21.9607 C   0  0  0  0  0  0  0  0  0  0  0  0
   19.7190   23.9699   20.8639 C   0  0  0  0  0  0  0  0  0  0  0  0
   23.6210   27.0519   20.0359 C   0  0  0  0  0  0  0  0  0  0  0  0
   23.3688   19.2612   19.6919 C   0  0  0  0  0  0  0  0  0  0  0  0
   25.0912   23.1450   19.4196 C   0  0  0  0  0  0  0  0  0  0  0  0
   23.7687   23.4795   18.6508 C   0  0  0  0  0  0  0  0  0  0  0  0
   22.2595   23.2816   18.5762 C   0  0  0  0  0  0  0  0  0  0  0  0
   24.4076   27.0976   18.6878 C   0  0  0  0  0  0  0  0  0  0  0  0
  1  2  1  0
  1 11  1  0
  1 20  1  0
  2  3  1  0
  2 25  1  0
  3  6  1  0
  4  7  1  0
  4 12  1  0
  4 26  1  0
  5 22  1  0
  6 10  1  0
  6 17  1  0
  6 22  1  0
  7  8  1  0
  7 21  1  0
  9 25  1  0
 12 24  1  0
 13 19  1  0
 14 19  1  0
 15 20  2  0
 16 17  1  0
 16 23  1  0
 17 19  1  0
 18 20  1  0
 21 26  1  0
 23 24  1  0
 24 25  1  0
M  END
>  <ID>  (1) 
conformer_0

$$$$
