
     RDKit          3D

 19 20  0  0  0  0  0  0  0  0999 V2000
   23.6762   19.2791   20.3652 C   0  0  0  0  0  0  0  0  0  0  0  0
   22.7467   22.7373   18.8107 C   0  0  0  0  0  0  0  0  0  0  0  0
   22.7902   22.6995   17.2810 C   0  0  0  0  0  0  0  0  0  0  0  0
   19.9054   24.6300   21.9809 O   0  0  0  0  0  0  0  0  0  0  0  0
   24.4525   24.3777   18.0586 O   0  0  0  0  0  0  0  0  0  0  0  0
   22.8620   18.1444   20.2084 O   0  0  0  0  0  0  0  0  0  0  0  0
   21.2514   22.7361   19.1676 C   0  0  0  0  0  0  0  0  0  0  0  0
   24.0598   19.5152   21.8580 C   0  0  0  0  0  0  0  0  0  0  0  0
   23.9375   23.6241   19.1661 C   0  0  0  0  0  0  0  0  0  0  0  0
   18.4629   23.5779   20.4772 O   0  0  0  0  0  0  0  0  0  0  0  0
   23.0231   20.5490   22.4184 C   0  0  0  0  0  0  0  0  0  0  0  0
   23.4030   25.0635   17.2400 C   0  0  0  0  0  0  0  0  0  0  0  0
   22.5212   21.3313   21.1749 C   0  0  0  0  0  0  0  0  0  0  0  0
   19.5921   23.8216   21.0327 C   0  0  0  0  0  0  0  0  0  0  0  0
   21.5397   22.4126   21.6194 C   0  0  0  0  0  0  0  0  0  0  0  0
   22.7961   20.4476   19.9716 C   0  0  0  0  0  0  0  0  0  0  0  0
   20.7319   23.0717   20.5193 C   0  0  0  0  0  0  0  0  0  0  0  0
   22.1940   24.1507   17.0154 C   0  0  0  0  0  0  0  0  0  0  0  0
   24.9019   19.1807   19.4469 C   0  0  0  0  0  0  0  0  0  0  0  0
  1  6  1  0
  1  8  1  0
  1 16  1  0
  1 19  1  0
  2  3  1  0
  2  7  1  0
  2  9  1  0
  3 18  1  0
  4 14  2  0
  5  9  1  0
  5 12  1  0
  7 17  1  0
  8 11  1  0
 10 14  1  0
 11 13  1  0
 12 18  1  0
 13 15  1  0
 13 16  1  0
 14 17  1  0
 15 17  2  3
M  END
>  <ID>  (1) 
conformer_0

$$$$
