
     RDKit          3D

 15 15  0  0  0  0  0  0  0  0999 V2000
   23.5124   24.4236   17.9385 C   0  0  0  0  0  0  0  0  0  0  0  0
   22.3037   23.9199   22.5370 O   0  0  0  0  0  0  0  0  0  0  0  0
   23.0230   22.4120   18.9012 C   0  0  0  0  0  0  0  0  0  0  0  0
   23.8454   22.1880   17.8115 C   0  0  0  0  0  0  0  0  0  0  0  0
   21.9644   21.4265   20.9626 C   0  0  0  0  0  0  0  0  0  0  0  0
   24.1751   23.4209   17.1909 C   0  0  0  0  0  0  0  0  0  0  0  0
   19.8647   23.4545   22.8753 O   0  0  0  0  0  0  0  0  0  0  0  0
   20.9718   22.5647   20.8855 N   0  0  0  0  0  0  0  0  0  0  0  0
   24.3936   19.7386   20.2243 C   0  0  0  0  0  0  0  0  0  0  0  0
   23.1812   20.0602   19.4643 O   0  0  0  0  0  0  0  0  0  0  0  0
   22.8240   23.7937   18.9264 C   0  0  0  0  0  0  0  0  0  0  0  0
   22.6570   21.2951   19.6829 C   0  0  0  0  0  0  0  0  0  0  0  0
   20.0012   22.3374   19.7014 C   0  0  0  0  0  0  0  0  0  0  0  0
   20.8979   23.8345   21.9255 S   0  0  0  0  0  4  0  0  0  0  0  0
   20.5503   25.0582   21.2200 O   0  0  0  0  0  0  0  0  0  0  0  0
  1  6  1  0
  1 11  1  0
  2 14  1  0
  3  4  1  0
  3 11  1  0
  3 12  2  3
  4  6  1  0
  5  8  1  0
  5 12  1  0
  7 14  1  0
  8 13  1  0
  8 14  1  0
  9 10  1  0
 10 12  1  0
 14 15  1  0
M  END
>  <ID>  (1) 
conformer_0

$$$$
