
     RDKit          3D

 25 26  0  0  0  0  0  0  0  0999 V2000
   21.2227   22.5542   21.1341 C   0  0  0  0  0  0  0  0  0  0  0  0
   25.9683   23.8229   17.4291 C   0  0  0  0  0  0  0  0  0  0  0  0
   24.9339   22.7897   19.7920 C   0  0  0  0  0  0  0  0  0  0  0  0
   18.5385   24.4117   21.1235 O   0  0  0  0  0  0  0  0  0  0  0  0
   23.9320   22.8701   18.6704 C   0  0  0  0  0  0  0  0  0  0  0  0
   20.8681   23.8575   21.8801 C   0  0  0  0  0  0  0  0  0  0  0  0
   22.7872   20.7204   19.7658 C   0  0  0  0  0  0  0  0  0  0  0  0
   21.4202   22.3525   18.6247 C   0  0  0  0  0  0  0  0  0  0  0  0
   24.7288   22.4591   22.2657 O   0  0  0  0  0  0  0  0  0  0  0  0
   21.3213   18.9541   20.6828 C   0  0  0  0  0  0  0  0  0  0  0  0
   22.1327   21.3614   21.0305 C   0  0  0  0  0  0  0  0  0  0  0  0
   21.1335   23.5856   24.2812 C   0  0  0  0  0  0  0  0  0  0  0  0
   22.4920   18.2052   20.7169 O   0  0  0  0  0  0  0  0  0  0  0  0
   22.4402   20.7433   22.2665 O   0  0  0  0  0  0  0  0  0  0  0  0
   20.4693   22.6707   19.7847 C   0  0  0  0  0  0  0  0  0  0  0  0
   22.8123   21.8440   18.6980 C   0  0  0  0  0  0  0  0  0  0  0  0
   24.1664   22.7996   21.1226 C   0  0  0  0  0  0  0  0  0  0  0  0
   19.5412   24.2872   21.7836 C   0  0  0  0  0  0  0  0  0  0  0  0
   21.4270   20.3363   20.1509 C   0  0  0  0  0  0  0  0  0  0  0  0
   22.1442   21.8453   17.4152 C   0  0  0  0  0  0  0  0  0  0  0  0
   22.6902   22.7805   20.9841 C   0  0  0  0  0  0  0  0  0  0  0  0
   21.8200   24.0758   23.0116 C   0  0  0  0  0  0  0  0  0  0  0  0
   24.5699   23.1523   17.3577 C   0  0  0  0  0  0  0  0  0  0  0  0
   24.8246   21.8119   16.6070 C   0  0  0  0  0  0  0  0  0  0  0  0
   23.5515   24.0183   17.8229 C   0  0  0  0  0  0  0  0  0  0  0  0
  1  6  1  0
  1 11  1  0
  1 15  1  0
  1 21  1  0
  2 23  1  0
  3  5  1  0
  3 17  1  0
  4 18  2  0
  5 16  1  0
  5 25  1  0
  6 18  1  0
  6 22  1  0
  7 16  1  0
  7 19  1  0
  8 15  1  0
  8 16  1  0
  9 17  1  0
 10 13  1  0
 10 19  1  0
 11 14  1  0
 11 19  1  0
 12 22  1  0
 16 20  1  0
 17 21  1  0
 23 24  1  0
 23 25  1  0
M  END
>  <ID>  (1) 
conformer_0

$$$$
