
     RDKit          3D

 17 18  0  0  0  0  0  0  0  0999 V2000
   23.1974   24.8979   19.4535 O   0  0  0  0  0  0  0  0  0  0  0  0
   22.6178   22.5729   19.0904 C   0  0  0  0  0  0  0  0  0  0  0  0
   21.3291   20.6010   19.4457 C   0  0  0  0  0  0  0  0  0  0  0  0
   23.3895   19.2032   22.3344 C   0  0  0  0  0  0  0  0  0  0  0  0
   23.6690   23.8663   17.3297 C   0  0  0  0  0  0  0  0  0  0  0  0
   18.6244   23.2795   20.2366 O   0  0  0  0  0  0  0  0  0  0  0  0
   19.4249   23.6239   22.2266 O   0  0  0  0  0  0  0  0  0  0  0  0
   22.6888   23.9244   18.5175 C   0  0  0  0  0  0  0  0  0  0  0  0
   21.8805   19.4900   20.3523 C   0  0  0  0  0  0  0  0  0  0  0  0
   24.4693   25.4451   18.9965 C   0  0  0  0  0  0  0  0  0  0  0  0
   23.9982   20.8128   20.4071 C   0  0  0  0  0  0  0  0  0  0  0  0
   20.9078   23.5385   20.4406 C   0  0  0  0  0  0  0  0  0  0  0  0
   23.1712   19.7889   21.0196 C   0  0  0  0  0  0  0  0  0  0  0  0
   21.3371   22.1973   19.7281 C   0  0  0  0  0  0  0  0  0  0  0  0
   24.9488   24.5128   17.9018 C   0  0  0  0  0  0  0  0  0  0  0  0
   23.7698   21.6814   19.2097 C   0  0  0  0  0  0  0  0  0  0  0  0
   19.5705   23.4763   21.0137 C   0  0  0  0  0  0  0  0  0  0  0  0
  1  8  1  0
  1 10  1  0
  2  8  1  0
  2 14  1  0
  2 16  1  0
  3  9  1  0
  3 14  1  0
  4 13  1  0
  5  8  1  0
  5 15  1  0
  6 17  2  0
  7 17  1  0
  9 13  1  0
 10 15  1  0
 11 13  2  0
 11 16  1  0
 12 14  1  0
 12 17  1  0
M  END
>  <ID>  (1) 
conformer_0

$$$$
