
     RDKit          3D

 30 33  0  0  0  0  0  0  0  0999 V2000
   22.3506   22.1834   21.2473 C   0  0  0  0  0  0  0  0  0  0  0  0
   22.4177   24.1066   17.1520 C   0  0  0  0  0  0  0  0  0  0  0  0
   23.0169   21.9343   22.4130 O   0  0  0  0  0  0  0  0  0  0  0  0
   22.7080   25.4339   16.8752 C   0  0  0  0  0  0  0  0  0  0  0  0
   19.1587   23.6300   22.7953 O   0  0  0  0  0  0  0  0  0  0  0  0
   24.2649   21.8343   21.8816 C   0  0  0  0  0  0  0  0  0  0  0  0
   23.4931   26.1786   17.7812 C   0  0  0  0  0  0  0  0  0  0  0  0
   19.1026   23.7004   21.5072 C   0  0  0  0  0  0  0  0  0  0  0  0
   21.1589   19.1420   20.8411 O   0  0  0  0  0  0  0  0  0  0  0  0
   25.2917   22.7192   22.3024 C   0  0  0  0  0  0  0  0  0  0  0  0
   21.9760   21.4660   19.9870 C   0  0  0  0  0  0  0  0  0  0  0  0
   22.8966   23.4758   18.3517 C   0  0  0  0  0  0  0  0  0  0  0  0
   26.8267   21.5872   20.7986 C   0  0  0  0  0  0  0  0  0  0  0  0
   20.3807   21.7706   19.9488 C   0  0  0  0  0  0  0  0  0  0  0  0
   25.8307   20.6357   20.5049 C   0  0  0  0  0  0  0  0  0  0  0  0
   21.4469   23.3072   21.3510 C   0  0  0  0  0  0  0  0  0  0  0  0
   23.7238   24.2184   19.1607 C   0  0  0  0  0  0  0  0  0  0  0  0
   21.4406   23.2308   16.0004 Cl  0  0  0  0  0  0  0  0  0  0  0  0
   24.0017   25.5383   18.9441 C   0  0  0  0  0  0  0  0  0  0  0  0
   22.1911   19.7347   20.1317 C   0  0  0  0  0  0  0  0  0  0  0  0
   26.5648   22.6034   21.7420 C   0  0  0  0  0  0  0  0  0  0  0  0
   23.7094   21.0755   17.5270 Cl  0  0  0  0  0  0  0  0  0  0  0  0
   22.5984   22.0443   18.7123 C   0  0  0  0  0  0  0  0  0  0  0  0
   21.8429   24.6532   21.7164 C   0  0  0  0  0  0  0  0  0  0  0  0
   22.3643   19.0383   19.0161 O   0  0  0  0  0  0  0  0  0  0  0  0
   24.5434   20.7413   21.0920 C   0  0  0  0  0  0  0  0  0  0  0  0
   20.1500   22.9264   20.8749 C   0  0  0  0  0  0  0  0  0  0  0  0
   18.3102   24.3698   20.8422 O   0  0  0  0  0  0  0  0  0  0  0  0
   23.5562   19.7103   20.9864 N   0  0  0  0  0  0  0  0  0  0  0  0
   24.7695   26.1986   19.9001 O   0  0  0  0  0  0  0  0  0  0  0  0
  1  3  1  0
  1 11  1  0
  1 16  1  0
  2  4  2  0
  2 12  1  0
  2 18  1  0
  3  6  1  0
  4  7  1  0
  5  8  2  0
  6 10  1  0
  6 26  2  0
  7 19  2  0
  8 27  1  0
  8 28  1  0
  9 20  1  0
 10 21  2  0
 11 14  1  0
 11 20  1  0
 11 23  1  0
 12 17  2  0
 12 23  1  0
 13 15  2  0
 13 21  1  0
 14 27  1  0
 15 26  1  0
 16 24  1  0
 16 27  1  0
 17 19  1  0
 19 30  1  0
 20 25  1  0
 20 29  1  0
 22 23  1  0
 26 29  1  0
M  END
>  <ID>  (1) 
conformer_0

$$$$
