
     RDKit          3D

 16 16  0  0  0  0  0  0  0  0999 V2000
   22.2511   22.5803   17.1229 F   0  0  0  0  0  0  0  0  0  0  0  0
   22.9149   22.5411   18.4465 C   0  0  0  0  0  0  0  0  0  0  0  0
   24.6136   21.1482   19.6609 C   0  0  0  0  0  0  0  0  0  0  0  0
   23.3029   23.7907   18.8503 O   0  0  0  0  0  0  0  0  0  0  0  0
   23.7327   21.4986   20.9386 C   0  0  0  0  0  0  0  0  0  0  0  0
   19.4408   22.6371   20.5420 N   0  0  0  0  0  0  0  0  0  0  0  0
   20.9976   24.2566   21.5552 C   0  0  0  0  0  0  0  0  0  0  0  0
   23.3897   20.1036   21.5766 C   0  0  0  0  0  0  0  0  0  0  0  0
   24.8569   22.0703   16.9273 C   0  0  0  0  0  0  0  0  0  0  0  0
   24.1701   21.6242   18.2868 C   0  0  0  0  0  0  0  0  0  0  0  0
   22.3275   22.2182   20.8489 C   0  0  0  0  0  0  0  0  0  0  0  0
   21.8427   22.0275   19.4320 C   0  0  0  0  0  0  0  0  0  0  0  0
   21.9652   23.1596   21.9676 C   0  0  0  0  0  0  0  0  0  0  0  0
   24.5577   22.3720   21.7856 O   0  0  0  0  0  0  0  0  0  0  0  0
   18.6647   24.5224   21.2428 O   0  0  0  0  0  0  0  0  0  0  0  0
   19.6613   23.7738   21.1322 C   0  0  0  0  0  0  0  0  0  0  0  0
  1  2  1  0
  2  4  1  0
  2 10  1  0
  2 12  1  0
  3  5  1  0
  3 10  1  0
  5  8  1  0
  5 11  1  0
  5 14  1  0
  6 16  1  0
  7 13  1  0
  7 16  1  0
  9 10  1  0
 11 12  1  0
 11 13  1  0
 15 16  2  0
M  END
>  <ID>  (1) 
conformer_0

$$$$
