
     RDKit          3D

 10  9  0  0  0  0  0  0  0  0999 V2000
   21.5677   22.4147   19.0608 C   0  0  0  0  0  0  0  0  0  0  0  0
   19.4541   23.3786   20.8793 O   0  0  0  0  0  0  0  0  0  0  0  0
   22.1754   21.0381   19.2839 C   0  0  0  0  0  0  0  0  0  0  0  0
   23.7133   23.9086   18.0714 S   0  0  0  0  0  0  0  0  0  0  0  0
   22.2604   22.9978   17.7459 C   0  0  0  0  0  0  0  0  0  0  0  0
   21.6819   23.3774   20.1982 C   0  0  0  0  0  0  0  0  0  0  0  0
   21.4886   20.2067   20.2960 C   0  0  0  0  0  0  0  0  0  0  0  0
   20.5701   23.8895   20.9944 C   0  0  0  0  0  0  0  0  0  0  0  0
   22.3396   19.7527   21.5040 N   0  0  0  0  0  0  0  0  0  0  0  0
   20.7680   24.9059   21.7223 O   0  0  0  0  0  0  0  0  0  0  0  0
  1  3  1  0
  1  5  1  0
  1  6  1  0
  2  8  2  0
  3  7  1  0
  4  5  1  0
  6  8  1  0
  7  9  1  0
  8 10  1  0
M  END
>  <ID>  (1) 
conformer_0

$$$$
