
     RDKit          3D

 16 16  0  0  0  0  0  0  0  0999 V2000
   22.2324   21.9120   21.6339 C   0  0  0  0  0  0  0  0  0  0  0  0
   21.5659   21.8619   19.1937 C   0  0  0  0  0  0  0  0  0  0  0  0
   23.2183   22.1259   17.4010 C   0  0  0  0  0  0  0  0  0  0  0  0
   19.7121   22.9945   20.2125 C   0  0  0  0  0  0  0  0  0  0  0  0
   24.4092   22.9473   17.1111 C   0  0  0  0  0  0  0  0  0  0  0  0
   22.6565   24.6493   16.7866 C   0  0  0  0  0  0  0  0  0  0  0  0
   19.0492   23.7040   20.9749 O   0  0  0  0  0  0  0  0  0  0  0  0
   22.3988   22.7968   18.4901 O   0  0  0  0  0  0  0  0  0  0  0  0
   22.1353   19.4919   20.2605 C   0  0  0  0  0  0  0  0  0  0  0  0
   24.0469   24.3888   17.2972 C   0  0  0  0  0  0  0  0  0  0  0  0
   22.1509   20.4616   19.1224 C   0  0  0  0  0  0  0  0  0  0  0  0
   21.1218   22.3916   20.5778 C   0  0  0  0  0  0  0  0  0  0  0  0
   23.1965   20.7513   22.1513 C   0  0  0  0  0  0  0  0  0  0  0  0
   22.5551   23.1243   22.5605 C   0  0  0  0  0  0  0  0  0  0  0  0
   21.3159   23.6359   23.3136 C   0  0  0  0  0  0  0  0  0  0  0  0
   23.3387   19.5735   21.1895 C   0  0  0  0  0  0  0  0  0  0  0  0
  1 12  1  0
  1 13  1  0
  1 14  1  0
  2  8  1  0
  2 11  1  0
  2 12  1  0
  3  5  1  0
  3  8  1  0
  4  7  2  0
  4 12  1  0
  5 10  1  0
  6 10  1  0
  9 11  1  0
  9 16  1  0
 13 16  1  0
 14 15  1  0
M  END
>  <ID>  (1) 
conformer_0

$$$$
