
     RDKit          3D

 23 25  0  0  0  0  0  0  0  0999 V2000
   20.3389   23.8687   21.2948 C   0  0  0  0  0  0  0  0  0  0  0  0
   23.1592   21.2370   21.7782 O   0  0  0  0  0  0  0  0  0  0  0  0
   23.3236   19.7910   21.6177 C   0  0  0  0  0  0  0  0  0  0  0  0
   25.3609   23.8237   18.1968 C   0  0  0  0  0  0  0  0  0  0  0  0
   21.9113   21.8429   21.3940 C   0  0  0  0  0  0  0  0  0  0  0  0
   22.1994   23.6542   19.7139 C   0  0  0  0  0  0  0  0  0  0  0  0
   23.5290   23.3726   16.5137 C   0  0  0  0  0  0  0  0  0  0  0  0
   23.9975   23.1756   17.9646 C   0  0  0  0  0  0  0  0  0  0  0  0
   19.8138   21.7376   20.0375 C   0  0  0  0  0  0  0  0  0  0  0  0
   24.4547   22.8210   20.2423 O   0  0  0  0  0  0  0  0  0  0  0  0
   22.5477   17.9553   20.4336 O   0  0  0  0  0  0  0  0  0  0  0  0
   20.9963   20.8977   20.6817 C   0  0  0  0  0  0  0  0  0  0  0  0
   21.7652   23.3743   21.2153 C   0  0  0  0  0  0  0  0  0  0  0  0
   19.3818   23.1669   20.4083 C   0  0  0  0  0  0  0  0  0  0  0  0
   25.2990   25.1781   17.8605 O   0  0  0  0  0  0  0  0  0  0  0  0
   25.6463   23.5320   19.6700 C   0  0  0  0  0  0  0  0  0  0  0  0
   22.8602   19.3010   20.2428 C   0  0  0  0  0  0  0  0  0  0  0  0
   19.9152   24.2712   22.4687 O   0  0  0  0  0  0  0  0  0  0  0  0
   22.0585   23.8237   16.4593 C   0  0  0  0  0  0  0  0  0  0  0  0
   18.1408   23.5944   20.4145 O   0  0  0  0  0  0  0  0  0  0  0  0
   26.4188   23.0966   17.2973 C   0  0  0  0  0  0  0  0  0  0  0  0
   23.3938   22.8202   19.2957 C   0  0  0  0  0  0  0  0  0  0  0  0
   21.6467   19.9552   19.6308 C   0  0  0  0  0  0  0  0  0  0  0  0
  1 13  1  0
  1 14  1  0
  1 18  1  0
  2  3  1  0
  2  5  1  0
  3 17  1  0
  4  8  1  0
  4 15  1  0
  4 16  1  0
  4 21  1  0
  5 12  1  0
  5 13  1  0
  6 13  1  0
  6 22  1  0
  7  8  1  0
  7 19  1  0
  8 22  1  0
  9 12  1  0
  9 14  1  0
 10 16  1  0
 10 22  1  0
 11 17  1  0
 12 23  1  0
 14 20  1  0
 17 23  1  0
M  END
>  <ID>  (1) 
conformer_0

$$$$
