
     RDKit          3D

 16 17  0  0  0  0  0  0  0  0999 V2000
   23.7624   23.5543   17.5984 C   0  0  0  0  0  0  0  0  0  0  0  0
   22.6745   23.2555   20.1736 C   0  0  0  0  0  0  0  0  0  0  0  0
   25.1383   24.2899   17.6786 C   0  0  0  0  0  0  0  0  0  0  0  0
   20.8543   21.9038   19.4735 C   0  0  0  0  0  0  0  0  0  0  0  0
   22.2896   21.7136   22.1372 C   0  0  0  0  0  0  0  0  0  0  0  0
   22.8643   20.6459   20.0049 C   0  0  0  0  0  0  0  0  0  0  0  0
   22.0276   21.8605   20.5861 C   0  0  0  0  0  0  0  0  0  0  0  0
   22.8095   19.6201   21.0452 C   0  0  0  0  0  0  0  0  0  0  0  0
   19.5805   23.7016   21.7859 O   0  0  0  0  0  0  0  0  0  0  0  0
   21.9487   24.2623   21.0615 C   0  0  0  0  0  0  0  0  0  0  0  0
   22.8656   24.6118   16.8199 C   0  0  0  0  0  0  0  0  0  0  0  0
   22.8484   23.1212   18.7002 N   0  0  0  0  0  0  0  0  0  0  0  0
   23.1091   20.4616   22.3322 C   0  0  0  0  0  0  0  0  0  0  0  0
   20.8536   23.9538   22.0182 C   0  0  0  0  0  0  0  0  0  0  0  0
   24.2075   22.1562   16.8939 C   0  0  0  0  0  0  0  0  0  0  0  0
   21.6848   22.2718   18.1680 C   0  0  0  0  0  0  0  0  0  0  0  0
  1  3  1  0
  1 11  1  0
  1 12  1  0
  1 15  1  0
  2  7  1  0
  2 10  1  0
  2 12  1  0
  4  7  1  0
  4 16  1  0
  5  7  1  0
  5 13  1  0
  6  7  1  0
  6  8  1  0
  8 13  1  0
  9 14  1  0
 10 14  1  0
 12 16  1  0
M  END
>  <ID>  (1) 
conformer_0

$$$$
