
     RDKit          3D

 31 38  0  0  0  0  0  0  0  0999 V2000
   24.7069   23.8616   20.0878 C   0  0  0  0  0  0  0  0  0  0  0  0
   20.0932   20.8905   19.0740 O   0  0  0  0  0  0  0  0  0  0  0  0
   24.0276   25.1562   20.2179 C   0  0  0  0  0  0  0  0  0  0  0  0
   24.6696   21.6734   19.2037 C   0  0  0  0  0  0  0  0  0  0  0  0
   24.7426   24.1472   17.7407 C   0  0  0  0  0  0  0  0  0  0  0  0
   26.1616   25.9242   19.0698 C   0  0  0  0  0  0  0  0  0  0  0  0
   21.5016   19.5642   20.9867 C   0  0  0  0  0  0  0  0  0  0  0  0
   23.8079   18.3515   20.4548 O   0  0  0  0  0  0  0  0  0  0  0  0
   23.1524   25.0310   21.4202 C   0  0  0  0  0  0  0  0  0  0  0  0
   25.8742   24.4440   18.7628 C   0  0  0  0  0  0  0  0  0  0  0  0
   24.5973   22.5284   17.9237 C   0  0  0  0  0  0  0  0  0  0  0  0
   21.2049   18.2906   21.0022 O   0  0  0  0  0  0  0  0  0  0  0  0
   24.6466   21.9186   21.9125 C   0  0  0  0  0  0  0  0  0  0  0  0
   23.7372   26.0352   19.1565 C   0  0  0  0  0  0  0  0  0  0  0  0
   24.9227   26.2570   19.9800 C   0  0  0  0  0  0  0  0  0  0  0  0
   22.3934   22.0607   20.7788 C   0  0  0  0  0  0  0  0  0  0  0  0
   21.0327   24.1239   20.7720 O   0  0  0  0  0  0  0  0  0  0  0  0
   23.8666   19.6555   20.4144 C   0  0  0  0  0  0  0  0  0  0  0  0
   26.9948   22.8539   20.1719 O   0  0  0  0  0  0  0  0  0  0  0  0
   22.3543   23.6769   21.4070 C   0  0  0  0  0  0  0  0  0  0  0  0
   20.0937   23.0756   20.7961 C   0  0  0  0  0  0  0  0  0  0  0  0
   20.4074   20.5037   20.4059 C   0  0  0  0  0  0  0  0  0  0  0  0
   24.7961   20.2085   19.4106 C   0  0  0  0  0  0  0  0  0  0  0  0
   22.7872   20.4230   21.1537 C   0  0  0  0  0  0  0  0  0  0  0  0
   22.4988   26.1535   21.7251 O   0  0  0  0  0  0  0  0  0  0  0  0
   18.9168   23.3057   20.7278 O   0  0  0  0  0  0  0  0  0  0  0  0
   24.1428   22.3945   20.4678 C   0  0  0  0  0  0  0  0  0  0  0  0
   23.5714   20.8458   22.4929 C   0  0  0  0  0  0  0  0  0  0  0  0
   20.7297   21.8119   21.1583 C   0  0  0  0  0  0  0  0  0  0  0  0
   26.1100   23.7262   19.9189 C   0  0  0  0  0  0  0  0  0  0  0  0
   23.9195   25.4865   17.7138 C   0  0  0  0  0  0  0  0  0  0  0  0
  1  3  1  0
  1 27  1  0
  1 30  1  0
  2 22  1  0
  3  9  1  0
  3 14  1  0
  3 15  1  0
  4 11  1  0
  4 23  1  0
  4 27  1  0
  5 10  1  0
  5 11  1  0
  5 31  1  0
  6 10  1  0
  6 15  1  0
  7 12  1  0
  7 22  1  0
  7 24  1  0
  8 18  1  0
  9 20  1  0
  9 25  1  0
 10 30  1  0
 13 27  1  0
 13 28  1  0
 14 31  1  0
 16 20  1  0
 16 24  1  0
 16 27  1  0
 16 29  1  0
 17 20  1  0
 17 21  1  0
 18 23  1  0
 18 24  1  0
 19 30  2  0
 21 26  2  0
 21 29  1  0
 22 29  1  0
 24 28  1  0
M  END
>  <ID>  (1) 
conformer_0

$$$$
