
     RDKit          3D

 16 15  0  0  0  0  0  0  0  0999 V2000
   22.2299   24.1267   20.3805 C   0  0  0  0  0  0  0  0  0  0  0  0
   20.1515   22.6016   20.1715 C   0  0  0  0  0  0  0  0  0  0  0  0
   21.9537   21.2491   20.9279 O   0  0  0  0  0  0  0  0  0  0  0  0
   19.0933   23.2675   20.4601 O   0  0  0  0  0  0  0  0  0  0  0  0
   21.2968   24.4310   22.5543 O   0  0  0  0  0  0  0  0  0  0  0  0
   23.2989   24.8385   18.0480 C   0  0  0  0  0  0  0  0  0  0  0  0
   24.0668   20.8605   20.1261 O   0  0  0  0  0  0  0  0  0  0  0  0
   22.5931   20.6527   22.1357 C   0  0  0  0  0  0  0  0  0  0  0  0
   22.5725   23.0653   19.4156 C   0  0  0  0  0  0  0  0  0  0  0  0
   20.2011   21.8735   19.0887 O   0  0  0  0  0  0  0  0  0  0  0  0
   22.8149   21.6312   19.8254 C   0  0  0  0  0  0  0  0  0  0  0  0
   23.4882   23.5056   18.4306 O   0  0  0  0  0  0  0  0  0  0  0  0
   22.7187   21.0556   18.4342 C   0  0  0  0  0  0  0  0  0  0  0  0
   21.0083   22.2829   21.3627 C   0  0  0  0  0  0  0  0  0  0  0  0
   21.8410   23.5142   21.6908 C   0  0  0  0  0  0  0  0  0  0  0  0
   23.3771   24.9799   20.6721 O   0  0  0  0  0  0  0  0  0  0  0  0
  1  9  1  0
  1 15  1  0
  1 16  1  0
  2  4  2  0
  2 10  1  0
  2 14  1  0
  3  8  1  0
  3 11  1  0
  5 15  1  0
  6 12  1  0
  7 11  1  0
  9 11  1  0
  9 12  1  0
 11 13  1  0
 14 15  1  0
M  END
>  <ID>  (1) 
conformer_0

$$$$
