
     RDKit          3D

 11 10  0  0  0  0  0  0  0  0999 V2000
   21.4655   22.5133   20.3542 C   0  0  0  0  0  0  0  0  0  0  0  0
   21.2087   21.5538   19.1433 C   0  0  0  0  0  0  0  0  0  0  0  0
   21.6418   22.3274   17.7649 C   0  0  0  0  0  0  0  0  0  0  0  0
   24.5261   21.2578   19.0986 C   0  0  0  0  0  0  0  0  0  0  0  0
   23.7335   20.7656   21.4510 C   0  0  0  0  0  0  0  0  0  0  0  0
   22.1885   20.3474   19.3182 C   0  0  0  0  0  0  0  0  0  0  0  0
   20.2350   23.2632   20.7563 C   0  0  0  0  0  0  0  0  0  0  0  0
   25.1504   21.0825   21.6599 O   0  0  0  0  0  0  0  0  0  0  0  0
   19.1878   23.0033   20.1501 O   0  0  0  0  0  0  0  0  0  0  0  0
   20.3283   24.0935   21.6892 O   0  0  0  0  0  0  0  0  0  0  0  0
   23.4869   20.6418   20.0102 C   0  0  0  0  0  0  0  0  0  0  0  0
  1  2  1  0
  1  7  1  0
  2  3  1  0
  2  6  1  0
  4 11  1  0
  5  8  1  0
  5 11  1  0
  6 11  1  0
  7  9  2  0
  7 10  1  0
M  END
>  <ID>  (1) 
conformer_0

$$$$
