
     RDKit          3D

 15 14  0  0  0  0  0  0  0  0999 V2000
   24.7262   22.1146   22.2014 C   0  0  0  0  0  0  0  0  0  0  0  0
   22.9230   22.5967   18.0814 C   0  0  0  0  0  0  0  0  0  0  0  0
   19.8702   23.0808   20.3156 C   0  0  0  0  0  0  0  0  0  0  0  0
   22.5744   23.9063   17.3729 C   0  0  0  0  0  0  0  0  0  0  0  0
   21.7289   19.8244   20.3516 C   0  0  0  0  0  0  0  0  0  0  0  0
   22.4843   23.2280   20.9942 O   0  0  0  0  0  0  0  0  0  0  0  0
   21.7235   19.5585   21.6435 N   0  0  0  0  0  0  0  0  0  0  0  0
   19.2665   23.5650   21.2760 O   0  0  0  0  0  0  0  0  0  0  0  0
   21.7902   18.8626   19.5613 O   0  0  0  0  0  0  0  0  0  0  0  0
   23.8654   21.2490   21.1633 C   0  0  0  0  0  0  0  0  0  0  0  0
   20.2416   21.7383   20.0022 C   0  0  0  0  0  0  0  0  0  0  0  0
   22.6073   21.9564   20.6827 C   0  0  0  0  0  0  0  0  0  0  0  0
   24.2856   22.0904   17.4238 C   0  0  0  0  0  0  0  0  0  0  0  0
   21.6702   21.2076   19.8599 C   0  0  0  0  0  0  0  0  0  0  0  0
   22.0377   21.4035   18.3883 C   0  0  0  0  0  0  0  0  0  0  0  0
  1 10  1  0
  2  4  1  0
  2 13  1  0
  2 15  1  0
  3  8  2  0
  3 11  1  0
  5  7  1  0
  5  9  2  0
  5 14  1  0
  6 12  1  0
 10 12  1  0
 11 14  1  0
 12 14  1  0
 14 15  1  0
M  END
>  <ID>  (1) 
conformer_0

$$$$
