
     RDKit          3D

 17 17  0  0  0  0  0  0  0  0999 V2000
   19.0105   23.5501   20.7173 O   0  0  0  0  0  0  0  0  0  0  0  0
   24.0253   20.2727   20.2535 C   0  0  0  0  0  0  0  0  0  0  0  0
   21.2194   22.6131   18.8291 C   0  0  0  0  0  0  0  0  0  0  0  0
   25.2800   23.3910   17.1024 C   0  0  0  0  0  0  0  0  0  0  0  0
   22.6239   24.5457   18.7992 O   0  0  0  0  0  0  0  0  0  0  0  0
   20.1733   23.4168   21.0724 C   0  0  0  0  0  0  0  0  0  0  0  0
   23.1387   19.2708   20.9427 C   0  0  0  0  0  0  0  0  0  0  0  0
   22.6027   18.3695   19.9767 O   0  0  0  0  0  0  0  0  0  0  0  0
   22.4191   20.4613   22.9490 O   0  0  0  0  0  0  0  0  0  0  0  0
   21.1469   22.5548   20.3609 C   0  0  0  0  0  0  0  0  0  0  0  0
   21.2039   21.1125   20.9477 C   0  0  0  0  0  0  0  0  0  0  0  0
   22.5541   23.2086   18.2958 C   0  0  0  0  0  0  0  0  0  0  0  0
   20.6474   24.0274   22.1067 O   0  0  0  0  0  0  0  0  0  0  0  0
   23.7077   22.3573   18.7969 C   0  0  0  0  0  0  0  0  0  0  0  0
   23.6781   21.6979   20.1082 C   0  0  0  0  0  0  0  0  0  0  0  0
   21.9500   19.9102   21.6671 C   0  0  0  0  0  0  0  0  0  0  0  0
   24.7953   22.0412   17.8042 C   0  0  0  0  0  0  0  0  0  0  0  0
  1  6  2  0
  2  7  1  0
  2 15  1  0
  3 10  1  0
  3 12  1  0
  4 17  1  0
  5 12  1  0
  6 10  1  0
  6 13  1  0
  7  8  1  0
  7 16  1  0
  9 16  1  0
 10 11  1  0
 11 16  1  0
 12 14  1  0
 14 15  1  0
 14 17  1  0
M  END
>  <ID>  (1) 
conformer_0

$$$$
