
     RDKit          3D

 18 19  0  0  0  0  0  0  0  0999 V2000
   23.3346   21.6875   19.0571 C   0  0  0  0  0  0  0  0  0  0  0  0
   21.8380   21.9206   21.1429 C   0  0  0  0  0  0  0  0  0  0  0  0
   24.2247   22.8584   16.9950 C   0  0  0  0  0  0  0  0  0  0  0  0
   22.2705   19.7112   20.0880 C   0  0  0  0  0  0  0  0  0  0  0  0
   22.9099   22.2143   17.6003 C   0  0  0  0  0  0  0  0  0  0  0  0
   19.4927   22.7803   19.9320 O   0  0  0  0  0  0  0  0  0  0  0  0
   22.7728   24.1368   19.2996 C   0  0  0  0  0  0  0  0  0  0  0  0
   24.6330   24.2177   17.6564 C   0  0  0  0  0  0  0  0  0  0  0  0
   23.6926   22.9943   19.8459 C   0  0  0  0  0  0  0  0  0  0  0  0
   19.7106   23.3274   21.0757 C   0  0  0  0  0  0  0  0  0  0  0  0
   22.9821   19.0316   19.3740 O   0  0  0  0  0  0  0  0  0  0  0  0
   20.7213   22.6699   21.9256 C   0  0  0  0  0  0  0  0  0  0  0  0
   19.0187   24.2491   21.4652 O   0  0  0  0  0  0  0  0  0  0  0  0
   21.8826   19.3616   21.2631 O   0  0  0  0  0  0  0  0  0  0  0  0
   23.2778   24.8556   18.1100 C   0  0  0  0  0  0  0  0  0  0  0  0
   22.0277   21.1602   19.7580 C   0  0  0  0  0  0  0  0  0  0  0  0
   23.1149   22.6983   21.2413 C   0  0  0  0  0  0  0  0  0  0  0  0
   23.9069   22.8764   22.2237 O   0  0  0  0  0  0  0  0  0  0  0  0
  1  5  1  0
  1  9  1  0
  1 16  1  0
  2 12  1  0
  2 16  1  0
  2 17  1  0
  3  5  1  0
  3  8  1  0
  4 11  2  0
  4 14  1  0
  4 16  1  0
  6 10  2  0
  7  9  1  0
  7 15  1  0
  8 15  1  0
  9 17  1  0
 10 12  1  0
 10 13  1  0
 17 18  2  0
M  END
>  <ID>  (1) 
conformer_0

$$$$
