
     RDKit          3D

 21 22  0  0  0  0  0  0  0  0999 V2000
   22.8174   19.3534   22.5650 C   0  0  0  0  0  0  0  0  0  0  0  0
   22.4549   23.5055   19.4851 C   0  0  0  0  0  0  0  0  0  0  0  0
   24.3095   19.2096   19.2547 C   0  0  0  0  0  0  0  0  0  0  0  0
   22.6237   23.8542   17.0796 C   0  0  0  0  0  0  0  0  0  0  0  0
   18.6481   24.5210   21.3701 O   0  0  0  0  0  0  0  0  0  0  0  0
   20.2837   23.0887   20.7098 C   0  0  0  0  0  0  0  0  0  0  0  0
   23.2679   19.4926   21.2137 C   0  0  0  0  0  0  0  0  0  0  0  0
   19.9828   23.7053   22.9718 O   0  0  0  0  0  0  0  0  0  0  0  0
   19.6597   23.8477   21.7456 C   0  0  0  0  0  0  0  0  0  0  0  0
   21.5290   21.9147   17.8274 F   0  0  0  0  0  0  0  0  0  0  0  0
   23.3789   24.9901   17.2831 C   0  0  0  0  0  0  0  0  0  0  0  0
   22.5366   23.3247   21.9494 O   0  0  0  0  0  0  0  0  0  0  0  0
   24.1216   18.7150   20.5132 N   0  0  0  0  0  0  0  0  0  0  0  0
   23.5518   20.2797   19.1890 C   0  0  0  0  0  0  0  0  0  0  0  0
   21.7951   22.8565   20.7404 C   0  0  0  0  0  0  0  0  0  0  0  0
   22.8838   20.4788   20.3646 C   0  0  0  0  0  0  0  0  0  0  0  0
   22.2108   23.0945   18.1722 C   0  0  0  0  0  0  0  0  0  0  0  0
   21.8470   21.3289   20.8415 C   0  0  0  0  0  0  0  0  0  0  0  0
   23.2995   24.5956   19.6691 C   0  0  0  0  0  0  0  0  0  0  0  0
   19.5003   22.0968   19.8720 C   0  0  0  0  0  0  0  0  0  0  0  0
   23.7425   25.3444   18.5852 C   0  0  0  0  0  0  0  0  0  0  0  0
  1  7  1  0
  2 15  1  0
  2 17  2  0
  2 19  1  0
  3 13  1  0
  3 14  1  0
  4 11  2  0
  4 17  1  0
  5  9  2  0
  6  9  1  0
  6 15  1  0
  6 20  1  0
  7 13  1  0
  7 16  2  0
  8  9  1  0
 10 17  1  0
 11 21  1  0
 12 15  1  0
 14 16  1  0
 15 18  1  0
 16 18  1  0
 19 21  2  0
M  END
>  <ID>  (1) 
conformer_0

$$$$
