
     RDKit          3D

 14 13  0  0  0  0  0  0  0  0999 V2000
   18.7360   24.2927   21.0454 O   0  0  0  0  0  0  0  0  0  0  0  0
   24.2728   22.9279   18.0169 C   0  0  0  0  0  0  0  0  0  0  0  0
   24.1719   21.9426   20.7812 O   0  0  0  0  0  0  0  0  0  0  0  0
   22.8952   22.3594   18.6809 C   0  0  0  0  0  0  0  0  0  0  0  0
   21.8652   22.3900   21.0325 C   0  0  0  0  0  0  0  0  0  0  0  0
   23.0943   22.6602   20.1981 C   0  0  0  0  0  0  0  0  0  0  0  0
   24.0973   24.4296   17.3698 C   0  0  0  0  0  0  0  0  0  0  0  0
   20.1210   23.6588   22.6468 O   0  0  0  0  0  0  0  0  0  0  0  0
   20.6116   23.0330   20.4091 C   0  0  0  0  0  0  0  0  0  0  0  0
   21.8339   23.0867   17.9558 O   0  0  0  0  0  0  0  0  0  0  0  0
   22.3775   20.8738   18.5851 C   0  0  0  0  0  0  0  0  0  0  0  0
   24.0762   19.5985   21.4747 C   0  0  0  0  0  0  0  0  0  0  0  0
   23.8137   21.0481   21.9416 C   0  0  0  0  0  0  0  0  0  0  0  0
   19.7916   23.7410   21.4457 C   0  0  0  0  0  0  0  0  0  0  0  0
  1 14  2  0
  2  4  1  0
  2  7  1  0
  3  6  1  0
  3 13  1  0
  4  6  1  0
  4 10  1  0
  4 11  1  0
  5  6  1  0
  5  9  1  0
  8 14  1  0
  9 14  1  0
 12 13  1  0
M  END
>  <ID>  (1) 
conformer_0

$$$$
