
     RDKit          3D

 23 26  0  0  0  0  0  0  0  0999 V2000
   25.3580   22.9273   20.3635 O   0  0  0  0  0  0  0  0  0  0  0  0
   23.0258   18.4431   20.8235 O   0  0  0  0  0  0  0  0  0  0  0  0
   23.3303   21.9989   21.2899 C   0  0  0  0  0  0  0  0  0  0  0  0
   24.7076   25.8422   19.4317 C   0  0  0  0  0  0  0  0  0  0  0  0
   20.0905   23.6228   21.7903 C   0  0  0  0  0  0  0  0  0  0  0  0
   21.4026   22.3588   19.5533 C   0  0  0  0  0  0  0  0  0  0  0  0
   21.5993   20.3630   21.2236 C   0  0  0  0  0  0  0  0  0  0  0  0
   19.7416   23.2278   22.8845 O   0  0  0  0  0  0  0  0  0  0  0  0
   21.9539   23.3566   17.3913 C   0  0  0  0  0  0  0  0  0  0  0  0
   23.4943   25.2276   17.3304 C   0  0  0  0  0  0  0  0  0  0  0  0
   22.5426   24.4171   16.6443 C   0  0  0  0  0  0  0  0  0  0  0  0
   23.9492   23.0766   20.4432 C   0  0  0  0  0  0  0  0  0  0  0  0
   21.0098   22.5685   16.9325 O   0  0  0  0  0  0  0  0  0  0  0  0
   19.6853   24.6554   21.2562 O   0  0  0  0  0  0  0  0  0  0  0  0
   23.9934   20.6469   21.2073 C   0  0  0  0  0  0  0  0  0  0  0  0
   23.8975   24.8869   18.6440 C   0  0  0  0  0  0  0  0  0  0  0  0
   24.9813   20.2425   20.3270 O   0  0  0  0  0  0  0  0  0  0  0  0
   21.6970   20.8131   19.7368 C   0  0  0  0  0  0  0  0  0  0  0  0
   22.9323   19.6221   21.5547 C   0  0  0  0  0  0  0  0  0  0  0  0
   22.2909   23.1437   18.6796 N   0  0  0  0  0  0  0  0  0  0  0  0
   23.3927   23.7175   19.2084 C   0  0  0  0  0  0  0  0  0  0  0  0
   21.8377   21.7972   21.9244 C   0  0  0  0  0  0  0  0  0  0  0  0
   21.0708   22.8160   20.9918 C   0  0  0  0  0  0  0  0  0  0  0  0
  1 12  1  0
  2 19  1  0
  3 12  1  0
  3 15  1  0
  3 22  1  0
  4 16  1  0
  5  8  2  0
  5 14  1  0
  5 23  1  0
  6 18  1  0
  6 20  1  0
  6 23  1  0
  7 18  1  0
  7 19  1  0
  7 22  1  0
  9 11  1  0
  9 13  2  0
  9 20  1  0
 10 11  1  0
 10 16  2  0
 12 21  1  0
 15 17  1  0
 15 19  1  0
 16 21  1  0
 20 21  1  0
 22 23  1  0
M  END
>  <ID>  (1) 
conformer_0

$$$$
