
     RDKit          3D

 29 31  0  0  0  0  0  0  0  0999 V2000
   17.6576   24.0400   20.3935 O   0  0  0  0  0  0  0  0  0  0  0  0
   24.6720   26.3299   20.2323 O   0  0  0  0  0  0  0  0  0  0  0  0
   22.1421   24.5493   21.2521 C   0  0  0  0  0  0  0  0  0  0  0  0
   22.8722   20.1258   22.4485 C   0  0  0  0  0  0  0  0  0  0  0  0
   23.1204   25.5901   21.8360 C   0  0  0  0  0  0  0  0  0  0  0  0
   21.4711   19.1527   20.1065 C   0  0  0  0  0  0  0  0  0  0  0  0
   20.8247   24.6744   21.6382 C   0  0  0  0  0  0  0  0  0  0  0  0
   22.9969   19.0517   20.1867 C   0  0  0  0  0  0  0  0  0  0  0  0
   21.6184   22.7975   17.9250 C   0  0  0  0  0  0  0  0  0  0  0  0
   23.1860   18.8406   21.7151 C   0  0  0  0  0  0  0  0  0  0  0  0
   24.1228   20.0318   19.8169 C   0  0  0  0  0  0  0  0  0  0  0  0
   22.9586   27.6005   20.5943 O   0  0  0  0  0  0  0  0  0  0  0  0
   23.7730   22.7044   20.2111 N   0  0  0  0  0  0  0  0  0  0  0  0
   24.0072   21.3120   20.6509 C   0  0  0  0  0  0  0  0  0  0  0  0
   19.8065   24.0111   20.9621 C   0  0  0  0  0  0  0  0  0  0  0  0
   25.4087   24.5193   19.0544 C   0  0  0  0  0  0  0  0  0  0  0  0
   25.0729   23.1692   19.6065 C   0  0  0  0  0  0  0  0  0  0  0  0
   24.3184   22.2886   22.9912 C   0  0  0  0  0  0  0  0  0  0  0  0
   24.0336   21.0591   22.1152 C   0  0  0  0  0  0  0  0  0  0  0  0
   21.3891   23.1399   19.4089 C   0  0  0  0  0  0  0  0  0  0  0  0
   22.4608   23.4974   20.2915 C   0  0  0  0  0  0  0  0  0  0  0  0
   24.1266   23.4464   17.0898 C   0  0  0  0  0  0  0  0  0  0  0  0
   24.4998   24.8147   17.7838 C   0  0  0  0  0  0  0  0  0  0  0  0
   22.5714   23.3879   16.9148 C   0  0  0  0  0  0  0  0  0  0  0  0
   26.0747   22.3325   19.5061 O   0  0  0  0  0  0  0  0  0  0  0  0
   23.6037   26.6111   20.8819 C   0  0  0  0  0  0  0  0  0  0  0  0
   20.0700   23.2328   19.8305 C   0  0  0  0  0  0  0  0  0  0  0  0
   20.8917   18.1292   20.9818 O   0  0  0  0  0  0  0  0  0  0  0  0
   18.5594   24.2378   21.3915 O   0  0  0  0  0  0  0  0  0  0  0  0
  1 29  1  0
  2 26  2  0
  3  5  1  0
  3  7  2  0
  3 21  1  0
  4 10  1  0
  4 19  1  0
  5 26  1  0
  6  8  1  0
  6 28  1  0
  7 15  1  0
  8 10  1  0
  8 11  1  0
  9 20  1  0
  9 24  1  0
 11 14  1  0
 12 26  1  0
 13 14  1  0
 13 17  1  0
 13 21  1  0
 14 19  1  0
 15 27  2  0
 15 29  1  0
 16 17  1  0
 16 23  1  0
 17 25  2  0
 18 19  1  0
 20 21  1  0
 20 27  1  0
 22 23  1  0
 22 24  1  0
M  END
>  <ID>  (1) 
conformer_0

$$$$
