
     RDKit          3D

 28 31  0  0  0  0  0  0  0  0999 V2000
   18.4877   24.1139   20.4564 C   0  0  0  0  0  0  0  0  0  0  0  0
   21.5882   20.9735   20.0674 C   0  0  0  0  0  0  0  0  0  0  0  0
   24.1805   24.8858   21.2906 O   0  0  0  0  0  0  0  0  0  0  0  0
   23.8365   26.6090   19.9477 O   0  0  0  0  0  0  0  0  0  0  0  0
   22.5116   17.7189   20.9837 O   0  0  0  0  0  0  0  0  0  0  0  0
   20.3069   23.1527   21.8089 C   0  0  0  0  0  0  0  0  0  0  0  0
   19.8639   23.6310   20.5114 C   0  0  0  0  0  0  0  0  0  0  0  0
   21.7604   23.1470   19.2028 C   0  0  0  0  0  0  0  0  0  0  0  0
   21.5041   19.8293   20.9067 O   0  0  0  0  0  0  0  0  0  0  0  0
   23.8592   19.6135   20.5084 C   0  0  0  0  0  0  0  0  0  0  0  0
   23.7935   22.1110   20.5702 C   0  0  0  0  0  0  0  0  0  0  0  0
   23.0835   20.5234   22.7362 C   0  0  0  0  0  0  0  0  0  0  0  0
   23.7540   24.4823   18.9661 C   0  0  0  0  0  0  0  0  0  0  0  0
   20.2715   22.9524   19.2308 C   0  0  0  0  0  0  0  0  0  0  0  0
   23.9271   20.8271   21.4659 C   0  0  0  0  0  0  0  0  0  0  0  0
   17.9258   24.4557   21.5160 O   0  0  0  0  0  0  0  0  0  0  0  0
   24.8597   22.3088   19.4315 C   0  0  0  0  0  0  0  0  0  0  0  0
   20.2303   21.3727   19.4961 C   0  0  0  0  0  0  0  0  0  0  0  0
   25.1279   23.8522   17.3388 C   0  0  0  0  0  0  0  0  0  0  0  0
   22.5793   18.8843   20.7009 C   0  0  0  0  0  0  0  0  0  0  0  0
   24.0531   25.3764   20.1628 C   0  0  0  0  0  0  0  0  0  0  0  0
   22.2713   24.4320   18.9131 O   0  0  0  0  0  0  0  0  0  0  0  0
   18.0027   24.2409   19.3328 O   0  0  0  0  0  0  0  0  0  0  0  0
   22.4535   22.1284   19.9741 C   0  0  0  0  0  0  0  0  0  0  0  0
   23.3521   25.4400   16.8146 O   0  0  0  0  0  0  0  0  0  0  0  0
   24.2287   23.1762   18.3692 C   0  0  0  0  0  0  0  0  0  0  0  0
   24.4407   25.2340   17.7564 C   0  0  0  0  0  0  0  0  0  0  0  0
   25.2150   20.9767   22.0461 O   0  0  0  0  0  0  0  0  0  0  0  0
  1  7  1  0
  1 16  2  0
  1 23  1  0
  2  9  1  0
  2 18  1  0
  2 24  1  0
  3 21  2  0
  4 21  1  0
  5 20  2  0
  6  7  1  0
  7 14  1  0
  8 14  1  0
  8 22  1  0
  8 24  1  0
  9 20  1  0
 10 15  1  0
 10 20  1  0
 11 15  1  0
 11 17  1  0
 11 24  1  0
 12 15  1  0
 13 21  1  0
 13 22  1  0
 13 26  1  0
 13 27  1  0
 14 18  1  0
 15 28  1  0
 17 26  1  0
 19 26  1  0
 19 27  1  0
 25 27  1  0
M  END
>  <ID>  (1) 
conformer_0

$$$$
