
     RDKit          3D

 19 20  0  0  0  0  0  0  0  0999 V2000
   22.9110   17.7651   20.8770 O   0  0  0  0  0  0  0  0  0  0  0  0
   24.2639   22.2040   18.8657 C   0  0  0  0  0  0  0  0  0  0  0  0
   22.4860   18.8006   20.4720 C   0  0  0  0  0  0  0  0  0  0  0  0
   21.8428   22.9472   22.3604 C   0  0  0  0  0  0  0  0  0  0  0  0
   19.3090   23.8649   22.2003 O   0  0  0  0  0  0  0  0  0  0  0  0
   24.5333   23.7644   17.0878 C   0  0  0  0  0  0  0  0  0  0  0  0
   21.2095   19.0713   20.3979 O   0  0  0  0  0  0  0  0  0  0  0  0
   22.9942   22.0102   22.2506 C   0  0  0  0  0  0  0  0  0  0  0  0
   21.9856   21.9342   20.0763 C   0  0  0  0  0  0  0  0  0  0  0  0
   22.9181   22.5813   19.0465 C   0  0  0  0  0  0  0  0  0  0  0  0
   19.7010   23.4586   21.1042 C   0  0  0  0  0  0  0  0  0  0  0  0
   18.8705   23.3050   20.1480 O   0  0  0  0  0  0  0  0  0  0  0  0
   23.2128   24.1695   17.2469 C   0  0  0  0  0  0  0  0  0  0  0  0
   24.0842   22.0042   22.9330 O   0  0  0  0  0  0  0  0  0  0  0  0
   22.9020   21.1736   21.0737 N   0  0  0  0  0  0  0  0  0  0  0  0
   21.0278   22.7297   20.9910 C   0  0  0  0  0  0  0  0  0  0  0  0
   25.0601   22.7727   17.9077 C   0  0  0  0  0  0  0  0  0  0  0  0
   22.4079   23.5850   18.2253 C   0  0  0  0  0  0  0  0  0  0  0  0
   23.4336   19.9672   20.2748 C   0  0  0  0  0  0  0  0  0  0  0  0
  1  3  2  0
  2 10  2  0
  2 17  1  0
  3  7  1  0
  3 19  1  0
  4  8  1  0
  4 16  1  0
  5 11  2  0
  6 13  1  0
  6 17  2  0
  8 14  2  0
  8 15  1  0
  9 10  1  0
  9 15  1  0
  9 16  1  0
 10 18  1  0
 11 12  1  0
 11 16  1  0
 13 18  2  0
 15 19  1  0
M  END
>  <ID>  (1) 
conformer_0

$$$$
