
     RDKit          3D

 23 25  0  0  0  0  0  0  0  0999 V2000
   24.8380   21.7285   21.7875 O   0  0  0  0  0  0  0  0  0  0  0  0
   25.6640   24.0830   19.7030 O   0  0  0  0  0  0  0  0  0  0  0  0
   22.5264   21.3585   18.9805 C   0  0  0  0  0  0  0  0  0  0  0  0
   23.2172   23.1654   20.8821 C   0  0  0  0  0  0  0  0  0  0  0  0
   19.9442   22.9251   22.4119 O   0  0  0  0  0  0  0  0  0  0  0  0
   25.2869   22.7488   19.4055 C   0  0  0  0  0  0  0  0  0  0  0  0
   21.8558   22.9716   20.9519 C   0  0  0  0  0  0  0  0  0  0  0  0
   26.5320   21.9890   19.6148 O   0  0  0  0  0  0  0  0  0  0  0  0
   22.7571   22.7694   18.4209 C   0  0  0  0  0  0  0  0  0  0  0  0
   24.3048   22.9494   18.1498 C   0  0  0  0  0  0  0  0  0  0  0  0
   23.4127   20.0280   21.0120 C   0  0  0  0  0  0  0  0  0  0  0  0
   24.3346   22.1715   20.4993 C   0  0  0  0  0  0  0  0  0  0  0  0
   23.4730   20.9324   22.2546 C   0  0  0  0  0  0  0  0  0  0  0  0
   19.8241   24.7078   21.0934 O   0  0  0  0  0  0  0  0  0  0  0  0
   24.2426   24.2380   17.2404 C   0  0  0  0  0  0  0  0  0  0  0  0
   23.3560   18.7218   20.3065 C   0  0  0  0  0  0  0  0  0  0  0  0
   21.9232   22.9455   17.0842 C   0  0  0  0  0  0  0  0  0  0  0  0
   21.8884   18.4471   20.2313 C   0  0  0  0  0  0  0  0  0  0  0  0
   20.3513   23.3940   21.1639 C   0  0  0  0  0  0  0  0  0  0  0  0
   22.3946   22.0993   21.9990 C   0  0  0  0  0  0  0  0  0  0  0  0
   19.5311   22.6790   19.9939 C   0  0  0  0  0  0  0  0  0  0  0  0
   23.6712   20.9770   19.8780 C   0  0  0  0  0  0  0  0  0  0  0  0
   22.5511   22.8656   23.2701 O   0  0  0  0  0  0  0  0  0  0  0  0
  1 12  1  0
  1 13  1  0
  2  6  1  0
  3  9  1  0
  3 22  1  0
  4  7  1  0
  4 12  1  0
  5 19  1  0
  6  8  1  0
  6 10  1  0
  6 12  1  0
  7 19  1  0
  7 20  1  0
  9 10  1  0
  9 17  1  0
 10 15  1  0
 11 13  1  0
 11 16  1  0
 11 22  1  0
 12 22  1  0
 13 20  1  0
 14 19  1  0
 16 18  1  0
 19 21  1  0
 20 23  1  0
M  END
>  <ID>  (1) 
conformer_0

$$$$
