
     RDKit          3D

 26 29  0  0  0  0  0  0  0  0999 V2000
   22.8383   25.8210   21.3114 C   0  0  0  0  0  0  0  0  0  0  0  0
   24.5955   25.0972   17.8386 C   0  0  0  0  0  0  0  0  0  0  0  0
   19.4500   23.9001   21.2763 C   0  0  0  0  0  0  0  0  0  0  0  0
   19.2987   22.8157   20.4044 C   0  0  0  0  0  0  0  0  0  0  0  0
   22.6169   18.8187   20.7966 O   0  0  0  0  0  0  0  0  0  0  0  0
   24.5904   24.0991   20.3111 C   0  0  0  0  0  0  0  0  0  0  0  0
   23.9439   22.7872   20.5039 N   0  0  0  0  0  0  0  0  0  0  0  0
   20.3415   22.3060   19.5896 C   0  0  0  0  0  0  0  0  0  0  0  0
   25.3504   24.0999   18.8938 C   0  0  0  0  0  0  0  0  0  0  0  0
   24.8415   26.5191   20.0682 C   0  0  0  0  0  0  0  0  0  0  0  0
   24.0746   20.6785   21.5198 N   0  0  0  0  0  0  0  0  0  0  0  0
   21.3815   25.3735   21.5871 O   0  0  0  0  0  0  0  0  0  0  0  0
   20.9657   21.1033   19.9509 C   0  0  0  0  0  0  0  0  0  0  0  0
   18.5203   24.6825   21.2060 O   0  0  0  0  0  0  0  0  0  0  0  0
   22.9889   22.3324   19.6453 C   0  0  0  0  0  0  0  0  0  0  0  0
   24.0633   27.3701   19.0292 C   0  0  0  0  0  0  0  0  0  0  0  0
   22.3874   23.0534   18.5803 C   0  0  0  0  0  0  0  0  0  0  0  0
   23.8911   25.3669   20.4359 N   0  0  0  0  0  0  0  0  0  0  0  0
   24.1956   22.0322   21.6275 C   0  0  0  0  0  0  0  0  0  0  0  0
   24.2180   19.5690   19.3701 O   0  0  0  0  0  0  0  0  0  0  0  0
   20.5662   24.0966   22.0630 N   0  0  0  0  0  0  0  0  0  0  0  0
   24.3517   22.5288   22.6987 O   0  0  0  0  0  0  0  0  0  0  0  0
   22.3594   21.1157   19.9399 C   0  0  0  0  0  0  0  0  0  0  0  0
   24.1713   26.5776   17.6793 C   0  0  0  0  0  0  0  0  0  0  0  0
   23.3184   20.0113   20.4133 C   0  0  0  0  0  0  0  0  0  0  0  0
   20.9637   23.0573   18.5638 C   0  0  0  0  0  0  0  0  0  0  0  0
  1 12  1  0
  1 18  1  0
  2  9  1  0
  2 24  1  0
  3  4  1  0
  3 14  2  0
  3 21  1  0
  4  8  1  0
  5 25  1  0
  6  7  1  0
  6  9  1  0
  6 18  1  0
  7 15  1  0
  7 19  1  0
  8 13  1  0
  8 26  1  0
 10 16  1  0
 10 18  1  0
 11 19  1  0
 11 25  1  0
 12 21  1  0
 13 23  2  0
 15 17  1  0
 15 23  1  0
 16 24  1  0
 17 26  2  0
 19 22  2  0
 20 25  1  0
 23 25  1  0
M  END
>  <ID>  (1) 
conformer_0

$$$$
