
     RDKit          3D

 16 16  0  0  0  0  0  0  0  0999 V2000
   23.1816   22.1746   20.5209 C   0  0  0  0  0  0  0  0  0  0  0  0
   23.4489   23.0176   18.0422 C   0  0  0  0  0  0  0  0  0  0  0  0
   20.4664   25.3002   21.6671 O   0  0  0  0  0  0  0  0  0  0  0  0
   23.1530   22.0678   19.0677 C   0  0  0  0  0  0  0  0  0  0  0  0
   22.4091   23.3239   21.0099 C   0  0  0  0  0  0  0  0  0  0  0  0
   23.0066   24.4523   17.8976 C   0  0  0  0  0  0  0  0  0  0  0  0
   18.8763   23.8220   21.1442 O   0  0  0  0  0  0  0  0  0  0  0  0
   24.3369   22.5866   16.8762 C   0  0  0  0  0  0  0  0  0  0  0  0
   22.2253   19.8794   19.4625 C   0  0  0  0  0  0  0  0  0  0  0  0
   23.3549   20.6068   18.6970 C   0  0  0  0  0  0  0  0  0  0  0  0
   22.4578   19.8554   20.9738 C   0  0  0  0  0  0  0  0  0  0  0  0
   23.0226   18.4869   21.2619 C   0  0  0  0  0  0  0  0  0  0  0  0
   23.2640   21.0181   21.4347 C   0  0  0  0  0  0  0  0  0  0  0  0
   20.0680   24.1803   21.2068 C   0  0  0  0  0  0  0  0  0  0  0  0
   23.2970   24.2898   21.5480 N   0  0  0  0  0  0  0  0  0  0  0  0
   21.0471   23.3858   20.5089 C   0  0  0  0  0  0  0  0  0  0  0  0
  1  4  1  0
  1  5  1  0
  1 13  1  0
  2  4  1  0
  2  6  1  0
  2  8  1  0
  3 14  2  0
  4 10  1  0
  5 15  1  0
  5 16  1  0
  7 14  1  0
  9 10  1  0
  9 11  1  0
 11 12  1  0
 11 13  1  0
 14 16  1  0
M  END
>  <ID>  (1) 
conformer_0

$$$$
