
     RDKit          3D

 18 17  0  0  0  0  0  0  0  0999 V2000
   22.0841   22.3169   17.4435 C   0  0  0  0  0  0  0  0  0  0  0  0
   23.8021   24.3954   18.0083 C   0  0  0  0  0  0  0  0  0  0  0  0
   22.6594   20.5200   19.4694 C   0  0  0  0  0  0  0  0  0  0  0  0
   22.7783   21.8445   18.7747 C   0  0  0  0  0  0  0  0  0  0  0  0
   20.7887   22.6555   21.0408 C   0  0  0  0  0  0  0  0  0  0  0  0
   22.2994   22.6643   21.0486 C   0  0  0  0  0  0  0  0  0  0  0  0
   22.6227   20.0119   20.9261 C   0  0  0  0  0  0  0  0  0  0  0  0
   22.8891   22.8711   19.8437 C   0  0  0  0  0  0  0  0  0  0  0  0
   23.2094   25.4853   17.2009 C   0  0  0  0  0  0  0  0  0  0  0  0
   20.7741   24.2260   22.7269 O   0  0  0  0  0  0  0  0  0  0  0  0
   23.5300   22.5053   20.9888 O   0  0  0  0  0  0  0  0  0  0  0  0
   20.1369   22.0106   19.8057 C   0  0  0  0  0  0  0  0  0  0  0  0
   23.3365   24.1847   19.3683 C   0  0  0  0  0  0  0  0  0  0  0  0
   22.3181   18.6479   20.8609 O   0  0  0  0  0  0  0  0  0  0  0  0
   23.1291   20.3081   22.3376 C   0  0  0  0  0  0  0  0  0  0  0  0
   19.0285   24.1637   21.3334 O   0  0  0  0  0  0  0  0  0  0  0  0
   24.9607   23.6107   17.5057 C   0  0  0  0  0  0  0  0  0  0  0  0
   20.1453   23.7524   21.7377 C   0  0  0  0  0  0  0  0  0  0  0  0
  1  4  1  0
  2  9  1  0
  2 13  1  0
  2 17  1  0
  3  4  1  0
  3  7  1  0
  4  8  1  0
  5  6  1  0
  5 12  1  0
  5 18  1  0
  6  8  1  0
  6 11  2  0
  7 14  1  0
  7 15  1  0
  8 13  2  3
 10 18  2  0
 16 18  1  0
M  END
>  <ID>  (1) 
conformer_0

$$$$
