
     RDKit          3D

 21 22  0  0  0  0  0  0  0  0999 V2000
   22.3546   18.3300   21.1096 C   0  0  0  0  0  0  0  0  0  0  0  0
   24.7599   21.3635   19.1387 C   0  0  0  0  0  0  0  0  0  0  0  0
   23.2704   23.6562   17.0447 C   0  0  0  0  0  0  0  0  0  0  0  0
   18.4326   24.6510   21.1832 O   0  0  0  0  0  0  0  0  0  0  0  0
   19.5520   22.7413   20.5169 C   0  0  0  0  0  0  0  0  0  0  0  0
   25.0676   24.1594   18.7781 C   0  0  0  0  0  0  0  0  0  0  0  0
   24.4616   19.2782   20.3429 C   0  0  0  0  0  0  0  0  0  0  0  0
   19.5671   24.0611   21.2264 C   0  0  0  0  0  0  0  0  0  0  0  0
   21.7171   19.4642   20.6515 C   0  0  0  0  0  0  0  0  0  0  0  0
   21.4710   21.9101   18.1370 C   0  0  0  0  0  0  0  0  0  0  0  0
   21.5589   21.6079   19.5073 C   0  0  0  0  0  0  0  0  0  0  0  0
   20.6395   24.5356   21.6975 O   0  0  0  0  0  0  0  0  0  0  0  0
   22.5119   22.5249   17.3967 O   0  0  0  0  0  0  0  0  0  0  0  0
   22.6579   25.0488   16.7654 C   0  0  0  0  0  0  0  0  0  0  0  0
   24.7623   23.7088   17.2486 C   0  0  0  0  0  0  0  0  0  0  0  0
   20.8382   22.2093   20.4984 N   0  0  0  0  0  0  0  0  0  0  0  0
   23.8152   20.3865   19.8685 C   0  0  0  0  0  0  0  0  0  0  0  0
   22.4134   20.4820   20.0178 C   0  0  0  0  0  0  0  0  0  0  0  0
   25.7082   22.5501   16.7456 C   0  0  0  0  0  0  0  0  0  0  0  0
   23.7371   18.2592   20.9467 C   0  0  0  0  0  0  0  0  0  0  0  0
   25.4584   22.6675   19.5279 C   0  0  0  0  0  0  0  0  0  0  0  0
  1  9  2  0
  1 20  1  0
  2 17  1  0
  2 21  1  0
  3 13  1  0
  3 14  1  0
  3 15  1  0
  4  8  2  0
  5  8  1  0
  5 16  1  0
  6 15  1  0
  6 21  1  0
  7 17  2  0
  7 20  1  0
  8 12  1  0
  9 18  1  0
 10 11  1  0
 10 13  1  0
 11 16  1  0
 11 18  1  0
 15 19  1  0
 17 18  1  0
M  END
>  <ID>  (1) 
conformer_0

$$$$
