
     RDKit          3D

 18 19  0  0  0  0  0  0  0  0999 V2000
   24.2002   18.9664   21.3790 C   0  0  0  0  0  0  0  0  0  0  0  0
   22.2155   22.7961   19.6965 N   0  0  0  0  0  0  0  0  0  0  0  0
   22.6743   23.0003   16.5090 C   0  0  0  0  0  0  0  0  0  0  0  0
   21.1839   23.5549   20.1421 C   0  0  0  0  0  0  0  0  0  0  0  0
   20.2685   22.7386   20.7142 C   0  0  0  0  0  0  0  0  0  0  0  0
   23.7726   22.8065   17.5630 C   0  0  0  0  0  0  0  0  0  0  0  0
   23.6080   24.5614   19.0649 O   0  0  0  0  0  0  0  0  0  0  0  0
   22.1572   18.3935   20.2649 O   0  0  0  0  0  0  0  0  0  0  0  0
   25.1098   22.0735   17.4625 C   0  0  0  0  0  0  0  0  0  0  0  0
   23.1999   19.2035   20.3579 C   0  0  0  0  0  0  0  0  0  0  0  0
   23.2970   23.4199   18.9072 C   0  0  0  0  0  0  0  0  0  0  0  0
   18.4874   24.1687   20.6796 C   0  0  0  0  0  0  0  0  0  0  0  0
   22.0338   21.5301   20.0393 C   0  0  0  0  0  0  0  0  0  0  0  0
   20.7911   21.4437   20.5649 C   0  0  0  0  0  0  0  0  0  0  0  0
   24.4112   20.3106   21.9560 C   0  0  0  0  0  0  0  0  0  0  0  0
   19.1953   23.0778   21.2646 O   0  0  0  0  0  0  0  0  0  0  0  0
   24.2882   21.1980   20.8109 C   0  0  0  0  0  0  0  0  0  0  0  0
   23.1755   20.5660   20.0991 C   0  0  0  0  0  0  0  0  0  0  0  0
  1 10  1  0
  1 15  1  0
  2  4  1  0
  2 11  1  0
  2 13  1  0
  3  6  1  0
  4  5  1  0
  5 14  1  0
  5 16  1  0
  6  9  1  0
  6 11  1  0
  7 11  2  0
  8 10  1  0
 10 18  1  0
 12 16  1  0
 13 14  1  0
 13 18  1  0
 15 17  1  0
 17 18  1  0
M  END
>  <ID>  (1) 
conformer_0

$$$$
