
     RDKit          3D

 23 25  0  0  0  0  0  0  0  0999 V2000
   22.6516   23.8696   20.8025 C   0  0  0  0  0  0  0  0  0  0  0  0
   24.3494   20.6420   20.8920 O   0  0  0  0  0  0  0  0  0  0  0  0
   23.3037   23.4965   19.5163 C   0  0  0  0  0  0  0  0  0  0  0  0
   24.6771   24.5290   17.6332 C   0  0  0  0  0  0  0  0  0  0  0  0
   23.0110   18.3358   20.0790 O   0  0  0  0  0  0  0  0  0  0  0  0
   23.2709   22.2377   18.7487 C   0  0  0  0  0  0  0  0  0  0  0  0
   21.1208   21.1731   19.3481 C   0  0  0  0  0  0  0  0  0  0  0  0
   21.0462   22.2857   20.3809 O   0  0  0  0  0  0  0  0  0  0  0  0
   21.2876   18.1859   21.5397 O   0  0  0  0  0  0  0  0  0  0  0  0
   22.6649   20.9544   19.1994 C   0  0  0  0  0  0  0  0  0  0  0  0
   22.0364   19.2016   20.7265 C   0  0  0  0  0  0  0  0  0  0  0  0
   20.2179   24.3794   21.5608 C   0  0  0  0  0  0  0  0  0  0  0  0
   23.4210   24.0848   21.7767 O   0  0  0  0  0  0  0  0  0  0  0  0
   23.0016   20.5243   20.6826 C   0  0  0  0  0  0  0  0  0  0  0  0
   20.6862   19.9122   20.2228 C   0  0  0  0  0  0  0  0  0  0  0  0
   21.1842   23.6365   20.8359 C   0  0  0  0  0  0  0  0  0  0  0  0
   23.8031   24.6470   18.7512 C   0  0  0  0  0  0  0  0  0  0  0  0
   22.4621   23.7333   16.8412 C   0  0  0  0  0  0  0  0  0  0  0  0
   23.3142   22.4273   17.2289 C   0  0  0  0  0  0  0  0  0  0  0  0
   20.5987   25.5485   22.0020 O   0  0  0  0  0  0  0  0  0  0  0  0
   19.0212   23.9718   21.5794 O   0  0  0  0  0  0  0  0  0  0  0  0
   23.2936   24.9154   17.3705 C   0  0  0  0  0  0  0  0  0  0  0  0
   23.8757   25.9621   19.5417 C   0  0  0  0  0  0  0  0  0  0  0  0
  1  3  1  0
  1 13  2  0
  1 16  1  0
  2 14  1  0
  3  6  1  0
  3 17  1  0
  4 17  1  0
  4 22  1  0
  5 11  1  0
  6 10  1  0
  6 19  1  0
  7  8  1  0
  7 10  1  0
  7 15  1  0
  8 16  1  0
  9 11  1  0
 10 14  1  0
 11 14  1  0
 11 15  1  0
 12 16  1  0
 12 20  2  0
 12 21  1  0
 17 23  1  0
 18 19  1  0
 18 22  1  0
M  END
>  <ID>  (1) 
conformer_0

$$$$
