
     RDKit          3D

 21 21  0  0  0  0  0  0  0  0999 V2000
   22.0790   19.3091   20.9233 C   0  0  0  0  0  0  0  0  0  0  0  0
   21.2032   22.9931   21.5863 C   0  0  0  0  0  3  0  0  0  0  0  0
   23.8986   23.9743   19.2219 C   0  0  0  0  0  0  0  0  0  0  0  0
   23.9675   26.5295   19.3187 C   0  0  0  0  0  0  0  0  0  0  0  0
   25.5049   23.2952   17.2569 C   0  0  0  0  0  0  0  0  0  0  0  0
   23.6738   24.8867   17.0229 O   0  0  0  0  0  0  0  0  0  0  0  0
   22.2807   20.2005   22.0420 O   0  0  0  0  0  0  0  0  0  0  0  0
   23.2196   25.2642   19.6756 C   0  0  0  0  0  0  0  0  0  0  0  0
   24.4442   24.1269   17.8459 C   0  0  0  0  0  0  0  0  0  0  0  0
   18.9817   23.3893   20.8108 O   0  0  0  0  0  0  0  0  0  0  0  0
   22.2024   18.0261   20.9780 O   0  0  0  0  0  0  0  0  0  0  0  0
   22.1437   21.7036   21.6367 C   0  0  0  0  0  0  0  0  0  0  0  0
   23.8072   21.5447   19.1097 C   0  0  0  0  0  0  0  0  0  0  0  0
   20.0671   25.0720   21.5782 O   0  0  0  0  0  0  0  0  0  0  0  0
   21.7434   19.8913   19.5700 C   0  0  0  0  0  0  0  0  0  0  0  0
   20.0020   23.8385   21.3459 C   0  0  0  0  0  0  0  0  0  0  0  0
   21.5637   22.6399   18.9905 C   0  0  0  0  0  0  0  0  0  0  0  0
   23.0683   25.2291   21.2135 C   0  0  0  0  0  0  0  0  0  0  0  0
   23.0284   22.7539   19.4248 C   0  0  0  0  0  0  0  0  0  0  0  0
   20.9634   21.2276   19.4083 C   0  0  0  0  0  0  0  0  0  0  0  0
   23.2881   21.7699   20.5135 C   0  0  0  0  0  0  0  0  0  0  0  0
  1  7  1  0
  1 11  2  0
  1 15  1  0
  2 12  2  0
  2 16  1  0
  3  8  1  0
  3  9  1  0
  3 19  1  0
  4  8  1  0
  5  9  1  0
  6  9  1  0
  7 12  1  0
  8 18  1  0
 10 16  2  0
 12 21  1  0
 13 19  1  0
 14 16  1  0
 15 20  1  0
 17 19  1  0
 17 20  1  0
 19 21  1  0
M  END
>  <ID>  (1) 
conformer_0

$$$$
