
     RDKit          3D

 17 17  0  0  0  0  0  0  0  0999 V2000
   22.2947   21.8725   20.3361 C   0  0  0  0  0  0  0  0  0  0  0  0
   19.5679   22.8375   19.8341 O   0  0  0  0  0  0  0  0  0  0  0  0
   24.5899   23.4634   17.8759 C   0  0  0  0  0  0  0  0  0  0  0  0
   22.7937   24.2415   19.8211 C   0  0  0  0  0  0  0  0  0  0  0  0
   19.5188   23.5971   21.9243 O   0  0  0  0  0  0  0  0  0  0  0  0
   23.5447   25.2002   19.1495 C   0  0  0  0  0  0  0  0  0  0  0  0
   23.8231   22.5374   18.5459 C   0  0  0  0  0  0  0  0  0  0  0  0
   22.6905   20.4932   19.9773 C   0  0  0  0  0  0  0  0  0  0  0  0
   20.0850   22.9889   20.9917 C   0  0  0  0  0  0  0  0  0  0  0  0
   21.2273   22.0348   21.3529 C   0  0  0  0  0  0  0  0  0  0  0  0
   22.6325   19.6444   21.2693 C   0  0  0  0  0  0  0  0  0  0  0  0
   21.8405   20.0363   18.9429 O   0  0  0  0  0  0  0  0  0  0  0  0
   25.5806   23.0274   16.9293 C   0  0  0  0  0  0  0  0  0  0  0  0
   24.4355   24.8016   18.1868 C   0  0  0  0  0  0  0  0  0  0  0  0
   22.1908   18.2673   20.9305 C   0  0  0  0  0  0  0  0  0  0  0  0
   22.9434   22.8881   19.5535 C   0  0  0  0  0  0  0  0  0  0  0  0
   23.1816   20.4124   22.3627 O   0  0  0  0  0  0  0  0  0  0  0  0
  1  8  1  0
  1 10  1  0
  1 16  1  0
  2  9  2  0
  3  7  2  0
  3 13  1  0
  3 14  1  0
  4  6  1  0
  4 16  2  0
  5  9  1  0
  6 14  2  0
  7 16  1  0
  8 11  1  0
  8 12  1  0
  9 10  1  0
 11 15  1  0
 11 17  1  0
M  END
>  <ID>  (1) 
conformer_0

$$$$
