
     RDKit          3D

 18 17  0  0  0  0  0  0  0  0999 V2000
   20.1168   24.1030   21.6343 O   0  0  0  0  0  0  0  0  0  0  0  0
   20.1511   21.1132   20.7816 O   0  0  0  0  0  0  0  0  0  0  0  0
   23.1018   25.5995   19.1280 O   0  0  0  0  0  0  0  0  0  0  0  0
   21.4228   19.2066   20.0933 C   0  0  0  0  0  0  0  0  0  0  0  0
   21.5223   24.4230   21.8834 C   0  0  0  0  0  0  0  0  0  0  0  0
   20.8421   21.0906   18.5671 O   0  0  0  0  0  0  0  0  0  0  0  0
   22.3484   21.8847   20.3390 C   0  0  0  0  0  0  0  0  0  0  0  0
   21.9573   23.6712   23.1091 O   0  0  0  0  0  0  0  0  0  0  0  0
   22.8832   24.3451   19.5069 C   0  0  0  0  0  0  0  0  0  0  0  0
   23.3056   21.9158   19.0299 C   0  0  0  0  0  0  0  0  0  0  0  0
   22.7602   18.7279   19.7384 C   0  0  0  0  0  0  0  0  0  0  0  0
   24.9633   22.3854   16.8498 C   0  0  0  0  0  0  0  0  0  0  0  0
   21.2024   20.7302   19.9438 C   0  0  0  0  0  0  0  0  0  0  0  0
   21.5948   25.8221   22.0980 O   0  0  0  0  0  0  0  0  0  0  0  0
   20.9138   18.7195   21.3108 O   0  0  0  0  0  0  0  0  0  0  0  0
   22.4727   23.7535   20.7873 C   0  0  0  0  0  0  0  0  0  0  0  0
   23.2505   23.3585   18.4409 C   0  0  0  0  0  0  0  0  0  0  0  0
   24.5172   23.6857   17.6464 C   0  0  0  0  0  0  0  0  0  0  0  0
  1  5  1  0
  2 13  1  0
  3  9  1  0
  4 11  1  0
  4 13  1  0
  4 15  1  0
  5  8  1  0
  5 14  1  0
  5 16  1  0
  6 13  1  0
  7 10  1  0
  7 13  1  0
  9 16  1  0
  9 17  1  0
 10 17  1  0
 12 18  1  0
 17 18  1  0
M  END
>  <ID>  (1) 
conformer_0

$$$$
