
     RDKit          3D

 17 19  0  0  0  0  0  0  0  0999 V2000
   23.3154   21.2286   20.7533 C   0  0  0  0  0  0  0  0  0  0  0  0
   21.6724   23.2329   20.9485 C   0  0  0  0  0  0  0  0  0  0  0  0
   25.8170   22.4991   16.8964 C   0  0  0  0  0  0  0  0  0  0  0  0
   23.8698   22.0650   18.4278 C   0  0  0  0  0  0  0  0  0  0  0  0
   23.1448   23.3178   18.8159 C   0  0  0  0  0  0  0  0  0  0  0  0
   22.4602   22.1145   21.4219 C   0  0  0  0  0  0  0  0  0  0  0  0
   23.4310   24.3524   18.3538 O   0  0  0  0  0  0  0  0  0  0  0  0
   20.1981   23.2532   20.9435 C   0  0  0  0  0  0  0  0  0  0  0  0
   23.7766   20.2678   21.6627 C   0  0  0  0  0  0  0  0  0  0  0  0
   19.7746   22.2880   19.8707 C   0  0  0  0  0  0  0  0  0  0  0  0
   23.2352   20.6241   22.9048 C   0  0  0  0  0  0  0  0  0  0  0  0
   24.3305   22.0048   16.9630 C   0  0  0  0  0  0  0  0  0  0  0  0
   19.2767   23.8827   21.4599 O   0  0  0  0  0  0  0  0  0  0  0  0
   20.8991   22.2405   18.8990 C   0  0  0  0  0  0  0  0  0  0  0  0
   21.9718   23.0925   19.4887 N   0  0  0  0  0  0  0  0  0  0  0  0
   22.4547   21.7632   22.7579 C   0  0  0  0  0  0  0  0  0  0  0  0
   23.8028   21.0294   19.4132 C   0  0  0  0  0  0  0  0  0  0  0  0
  1  6  2  0
  1  9  1  0
  1 17  1  0
  2  6  1  0
  2  8  1  0
  2 15  1  0
  3 12  1  0
  4  5  1  0
  4 12  1  0
  4 17  2  0
  5  7  2  0
  5 15  1  0
  6 16  1  0
  8 10  1  0
  8 13  2  0
  9 11  1  0
 10 14  1  0
 11 16  1  0
 14 15  1  0
M  END
>  <ID>  (1) 
conformer_0

$$$$
