
     RDKit          3D

 19 20  0  0  0  0  0  0  0  0999 V2000
   29.3807   36.7564  103.4349 O   0  0  0  0  0  0  0  0  0  0  0  0
   29.7729   35.4904  103.5529 C   0  0  0  0  0  0  0  0  0  0  0  0
   29.0263   34.5787  103.7306 N   0  0  0  0  0  0  0  0  0  0  0  0
   31.2107   35.1762  103.6458 N   0  0  0  0  0  0  0  0  0  0  0  0
   31.6078   33.9457  104.0612 C   0  0  0  0  0  0  0  0  0  0  0  0
   29.2882   33.2340  104.0826 C   0  0  0  0  0  0  0  0  0  0  0  0
   27.4897   34.8416  103.5194 C   0  0  0  0  0  0  0  0  0  0  0  0
   26.9508   35.4082  102.6162 C   0  0  0  0  0  0  0  0  0  0  0  0
   26.7713   34.2050  104.6542 N   0  0  0  0  0  0  0  0  0  0  0  0
   25.5438   35.5565  102.5764 C   0  0  0  0  0  0  0  0  0  0  0  0
   25.4129   34.4221  104.6446 C   0  0  0  0  0  0  0  0  0  0  0  0
   30.7069   32.9226  103.4499 C   0  0  0  0  0  0  0  0  0  0  0  0
   24.8028   35.0746  103.6613 N   0  0  0  0  0  0  0  0  0  0  0  0
   32.9740   33.7271  103.6127 O   0  0  0  0  0  0  0  0  0  0  0  0
   24.7578   34.0797  105.9228 C   0  0  0  0  0  0  0  0  0  0  0  0
   25.4009   34.3070  107.0687 C   0  0  0  0  0  0  0  0  0  0  0  0
   24.9657   36.1434  101.3980 C   0  0  0  0  0  0  0  0  0  0  0  0
   24.9781   34.6674  108.0153 O   0  0  0  0  0  0  0  0  0  0  0  0
   26.6368   33.7442  107.1032 O   0  0  0  0  0  0  0  0  0  0  0  0
  1  2  2  0
  2  3  1  0
  2  4  1  0
  4  5  1  0
  3  6  1  0
  3  7  1  0
  7  8  2  0
  7  9  1  0
  8 10  1  0
  9 11  2  0
  5 12  1  0
  6 12  1  0
 10 13  2  0
 11 13  1  0
  5 14  1  0
 11 15  1  0
 15 16  1  0
 10 17  1  0
 16 18  1  0
 16 19  2  0
M  END
>  <ID>  (1) 
conformer_0

$$$$
