
     RDKit          3D

 13 13  0  0  0  0  0  0  0  0999 V2000
   29.5953   36.3975  103.5472 N   0  0  0  0  0  0  0  0  0  0  0  0
   30.3462   35.3832  103.7704 C   0  0  0  0  0  0  0  0  0  0  0  0
   29.6092   34.3211  104.2105 C   0  0  0  0  0  0  0  0  0  0  0  0
   28.2128   34.6495  103.9925 C   0  0  0  0  0  0  0  0  0  0  0  0
   28.2744   36.0307  103.6174 C   0  0  0  0  0  0  0  0  0  0  0  0
   31.8015   35.2668  103.7988 N   0  0  0  0  0  0  0  0  0  0  0  0
   32.3657   34.0312  103.8447 C   0  0  0  0  0  0  0  0  0  0  0  0
   26.9712   33.9720  104.2811 C   0  0  0  0  0  0  0  0  0  0  0  0
   26.0297   33.9116  103.2103 C   0  0  0  0  0  0  0  0  0  0  0  0
   32.1546   33.1775  102.8056 O   0  0  0  0  0  0  0  0  0  0  0  0
   25.5249   35.1496  102.7820 C   0  0  0  0  0  0  0  0  0  0  0  0
   25.6203   35.4632  101.3192 C   0  0  0  0  0  0  0  0  0  0  0  0
   24.6252   36.3416  100.9013 C   0  0  0  0  0  0  0  0  0  0  0  0
  1  2  1  0
  2  3  2  0
  3  4  1  0
  1  5  2  0
  4  5  2  0
  2  6  1  0
  6  7  1  0
  4  8  1  0
  8  9  1  0
  7 10  2  0
  9 11  1  0
 11 12  1  0
 12 13  1  0
M  END
>  <ID>  (1) 
conformer_0

$$$$
