
     RDKit          3D

 18 20  0  0  0  0  0  0  0  0999 V2000
   29.1098   36.3151  103.7535 N   0  0  0  0  0  0  0  0  0  0  0  0
   27.9221   35.9950  103.5589 C   0  0  0  0  0  0  0  0  0  0  0  0
   30.2234   35.5658  103.8896 C   0  0  0  0  0  0  0  0  0  0  0  0
   31.3925   35.7689  103.7844 N   0  0  0  0  0  0  0  0  0  0  0  0
   27.5647   34.5903  103.7362 N   0  0  0  0  0  0  0  0  0  0  0  0
   28.5920   33.6824  103.9445 C   0  0  0  0  0  0  0  0  0  0  0  0
   26.1587   34.1884  103.4976 C   0  0  0  0  0  0  0  0  0  0  0  0
   25.6371   33.5536  104.6819 N   0  0  0  0  0  0  0  0  0  0  0  0
   32.0484   34.5173  103.8749 C   0  0  0  0  0  0  0  0  0  0  0  0
   24.5844   32.6145  104.4210 C   0  0  0  0  0  0  0  0  0  0  0  0
   23.5176   32.6763  105.1704 C   0  0  0  0  0  0  0  0  0  0  0  0
   25.2819   34.7513  105.5663 C   0  0  0  0  0  0  0  0  0  0  0  0
   29.8457   34.1431  103.9529 C   0  0  0  0  0  0  0  0  0  0  0  0
   31.1040   33.5088  103.9106 N   0  0  0  0  0  0  0  0  0  0  0  0
   26.2003   34.9741  106.4886 O   0  0  0  0  0  0  0  0  0  0  0  0
   26.9543   36.7062  103.2723 O   0  0  0  0  0  0  0  0  0  0  0  0
   24.0432   34.4443  106.4598 C   0  0  0  0  0  0  0  0  0  0  0  0
   23.0599   33.7411  105.7301 O   0  0  0  0  0  0  0  0  0  0  0  0
  1  2  1  0
  1  3  1  0
  3  4  2  0
  2  5  1  0
  5  6  1  0
  5  7  1  0
  7  8  1  0
  4  9  1  0
  8 10  1  0
 10 11  1  0
  8 12  1  0
  3 13  1  0
  6 13  1  0
  9 14  2  0
 13 14  1  0
 12 15  1  0
  2 16  2  0
 12 17  1  0
 11 18  1  0
 17 18  1  0
M  END
>  <ID>  (1) 
conformer_0

$$$$
