
     RDKit          3D

 10 11  0  0  0  0  0  0  0  0999 V2000
   29.5953   36.3975  103.5472 N   0  0  0  0  0  0  0  0  0  0  0  0
   30.3462   35.3832  103.7704 C   0  0  0  0  0  0  0  0  0  0  0  0
   28.2158   36.1117  103.4048 C   0  0  0  0  0  0  0  0  0  0  0  0
   29.8988   34.2791  103.8423 C   0  0  0  0  0  0  0  0  0  0  0  0
   30.9434   33.1014  104.0684 C   0  0  0  0  0  0  0  0  0  0  0  0
   28.4454   34.0283  103.6699 C   0  0  0  0  0  0  0  0  0  0  0  0
   31.7896   35.3494  103.9032 N   0  0  0  0  0  0  0  0  0  0  0  0
   32.2382   34.0767  104.2016 C   0  0  0  0  0  0  0  0  0  0  0  0
   27.6360   35.0020  103.5042 N   0  0  0  0  0  0  0  0  0  0  0  0
   31.1230   32.4390  102.8094 O   0  0  0  0  0  0  0  0  0  0  0  0
  1  2  1  0
  1  3  2  0
  2  4  2  0
  4  5  1  0
  4  6  1  0
  2  7  1  0
  5  8  1  0
  7  8  1  0
  3  9  1  0
  6  9  2  0
  5 10  1  0
M  END
>  <ID>  (1) 
conformer_0

$$$$
