
     RDKit          3D

 14 15  0  0  0  0  0  0  0  0999 V2000
   29.1098   36.3151  103.7535 N   0  0  0  0  0  0  0  0  0  0  0  0
   27.9221   35.9950  103.5589 C   0  0  0  0  0  0  0  0  0  0  0  0
   30.0580   35.3056  103.9269 C   0  0  0  0  0  0  0  0  0  0  0  0
   27.4300   34.7220  103.7465 C   0  0  0  0  0  0  0  0  0  0  0  0
   25.9411   34.4318  103.6801 C   0  0  0  0  0  0  0  0  0  0  0  0
   25.2381   35.2608  102.9423 O   0  0  0  0  0  0  0  0  0  0  0  0
   25.5694   33.2475  103.9360 N   0  0  0  0  0  0  0  0  0  0  0  0
   28.4560   33.7979  103.9756 C   0  0  0  0  0  0  0  0  0  0  0  0
   29.7541   34.0316  103.9002 C   0  0  0  0  0  0  0  0  0  0  0  0
   24.1983   32.8237  103.7881 C   0  0  0  0  0  0  0  0  0  0  0  0
   24.1151   31.3626  104.1695 C   0  0  0  0  0  0  0  0  0  0  0  0
   30.7250   33.0838  103.9219 O   0  0  0  0  0  0  0  0  0  0  0  0
   31.4162   35.4430  103.9304 O   0  0  0  0  0  0  0  0  0  0  0  0
   31.9383   34.0593  103.9318 C   0  0  0  0  0  0  0  0  0  0  0  0
  1  2  1  0
  1  3  2  0
  2  4  2  0
  4  5  1  0
  5  6  2  0
  5  7  1  0
  4  8  1  0
  3  9  1  0
  8  9  2  0
  7 10  1  0
 10 11  1  0
  9 12  1  0
  3 13  1  0
 12 14  1  0
 13 14  1  0
M  END
>  <ID>  (1) 
conformer_0

$$$$
