
     RDKit          3D

 17 18  0  0  0  0  0  0  0  0999 V2000
   32.3531   34.0049  104.8246 C   0  0  0  0  0  0  0  0  0  0  0  0
   31.3405   34.1357  103.7830 C   0  0  0  0  0  0  0  0  0  0  0  0
   30.1637   34.8206  104.0664 N   0  0  0  0  0  0  0  0  0  0  0  0
   29.0077   34.0168  104.2805 C   0  0  0  0  0  0  0  0  0  0  0  0
   29.8852   36.0804  103.4876 C   0  0  0  0  0  0  0  0  0  0  0  0
   27.7730   34.5870  104.3745 C   0  0  0  0  0  0  0  0  0  0  0  0
   27.7602   36.0674  103.9067 C   0  0  0  0  0  0  0  0  0  0  0  0
   26.4480   34.0714  104.6684 C   0  0  0  0  0  0  0  0  0  0  0  0
   25.9337   33.1753  103.8825 O   0  0  0  0  0  0  0  0  0  0  0  0
   25.9439   34.2298  105.8655 N   0  0  0  0  0  0  0  0  0  0  0  0
   31.9727   34.5451  102.5636 O   0  0  0  0  0  0  0  0  0  0  0  0
   26.5385   36.6397  103.8641 O   0  0  0  0  0  0  0  0  0  0  0  0
   26.5094   34.9004  106.9587 C   0  0  0  0  0  0  0  0  0  0  0  0
   24.5447   33.7618  106.0777 C   0  0  0  0  0  0  0  0  0  0  0  0
   25.8300   34.4457  108.2349 O   0  0  0  0  0  0  0  0  0  0  0  0
   28.7820   36.6740  103.5071 N   0  0  0  0  0  0  0  0  0  0  0  0
   24.5991   33.8764  107.8952 C   0  0  0  0  0  0  0  0  0  0  0  0
  1  2  1  0
  2  3  1  0
  3  4  1  0
  3  5  1  0
  4  6  2  0
  6  7  1  0
  6  8  1  0
  8  9  2  0
  8 10  1  0
  2 11  1  0
  7 12  2  0
 10 13  1  0
 10 14  1  0
 13 15  1  0
  5 16  2  0
  7 16  1  0
 14 17  1  0
 15 17  1  0
M  END
>  <ID>  (1) 
conformer_0

$$$$
