
     RDKit          3D

 18 20  0  0  0  0  0  0  0  0999 V2000
   29.5953   36.3975  103.5472 N   0  0  0  0  0  0  0  0  0  0  0  0
   29.4903   35.1363  103.8119 C   0  0  0  0  0  0  0  0  0  0  0  0
   28.3768   36.9254  103.3493 N   0  0  0  0  0  0  0  0  0  0  0  0
   28.2849   34.6017  103.6809 C   0  0  0  0  0  0  0  0  0  0  0  0
   27.7383   33.3094  103.7649 C   0  0  0  0  0  0  0  0  0  0  0  0
   27.5236   35.8193  103.4616 C   0  0  0  0  0  0  0  0  0  0  0  0
   26.3141   33.2645  103.5250 C   0  0  0  0  0  0  0  0  0  0  0  0
   26.1186   35.6552  103.3482 N   0  0  0  0  0  0  0  0  0  0  0  0
   25.5298   32.0868  103.6867 C   0  0  0  0  0  0  0  0  0  0  0  0
   24.1253   32.3416  103.9240 C   0  0  0  0  0  0  0  0  0  0  0  0
   25.5467   34.5135  103.3412 C   0  0  0  0  0  0  0  0  0  0  0  0
   30.8227   34.3006  103.9191 C   0  0  0  0  0  0  0  0  0  0  0  0
   31.4802   34.4069  105.1401 C   0  0  0  0  0  0  0  0  0  0  0  0
   23.3717   31.0498  104.1875 C   0  0  0  0  0  0  0  0  0  0  0  0
   23.5530   30.4065  105.0279 O   0  0  0  0  0  0  0  0  0  0  0  0
   31.8610   34.6494  102.8346 O   0  0  0  0  0  0  0  0  0  0  0  0
   23.8210   33.7349  103.6464 S   0  0  0  0  0  0  0  0  0  0  0  0
   22.2931   30.9638  103.3460 O   0  0  0  0  0  0  0  0  0  0  0  0
  1  2  1  0
  1  3  2  0
  2  4  2  0
  4  5  1  0
  3  6  1  0
  4  6  1  0
  5  7  2  0
  6  8  1  0
  7  9  1  0
  9 10  2  0
  7 11  1  0
  8 11  1  0
  2 12  1  0
 12 13  1  0
 10 14  1  0
 14 15  2  0
 12 16  1  0
 10 17  1  0
 11 17  1  0
 14 18  1  0
M  END
>  <ID>  (1) 
conformer_0

$$$$
