
     RDKit          3D

 14 15  0  0  0  0  0  0  0  0999 V2000
   29.1098   36.3151  103.7535 N   0  0  0  0  0  0  0  0  0  0  0  0
   27.9221   35.9950  103.5589 C   0  0  0  0  0  0  0  0  0  0  0  0
   30.2234   35.5658  103.8896 C   0  0  0  0  0  0  0  0  0  0  0  0
   31.3925   35.7689  103.7844 N   0  0  0  0  0  0  0  0  0  0  0  0
   27.5647   34.5903  103.7362 N   0  0  0  0  0  0  0  0  0  0  0  0
   28.5920   33.6824  103.9445 C   0  0  0  0  0  0  0  0  0  0  0  0
   29.7650   34.1369  104.1666 C   0  0  0  0  0  0  0  0  0  0  0  0
   30.9402   33.3784  104.4797 C   0  0  0  0  0  0  0  0  0  0  0  0
   32.0432   34.4944  104.1052 C   0  0  0  0  0  0  0  0  0  0  0  0
   26.1786   34.1172  103.6468 C   0  0  0  0  0  0  0  0  0  0  0  0
   25.2839   34.9974  103.0382 C   0  0  0  0  0  0  0  0  0  0  0  0
   26.9403   36.7102  103.2801 O   0  0  0  0  0  0  0  0  0  0  0  0
   26.2541   32.7423  103.1570 O   0  0  0  0  0  0  0  0  0  0  0  0
   24.2498   35.1667  103.7810 O   0  0  0  0  0  0  0  0  0  0  0  0
  1  2  1  0
  1  3  1  0
  3  4  2  0
  2  5  1  0
  5  6  1  0
  3  7  1  0
  6  7  2  0
  7  8  1  0
  4  9  1  0
  8  9  2  0
  5 10  1  0
 10 11  1  0
  2 12  2  0
 10 13  1  0
 11 14  1  0
M  END
>  <ID>  (1) 
conformer_0

$$$$
