
     RDKit          3D

 11 10  0  0  0  0  0  0  0  0999 V2000
   30.7516   35.3962  103.9125 C   0  0  0  0  0  0  0  0  0  0  0  0
   31.5277   34.4538  104.0643 N   0  0  0  0  0  0  0  0  0  0  0  0
   31.8982   33.5120  103.1091 C   0  0  0  0  0  0  0  0  0  0  0  0
   29.3043   35.0895  104.0367 C   0  0  0  0  0  0  0  0  0  0  0  0
   28.3298   35.9710  103.4859 C   0  0  0  0  0  0  0  0  0  0  0  0
   26.9871   35.6276  103.4090 N   0  0  0  0  0  0  0  0  0  0  0  0
   26.2717   35.9797  102.2020 C   0  0  0  0  0  0  0  0  0  0  0  0
   31.3889   33.8863  105.4165 C   0  0  0  0  0  0  0  0  0  0  0  0
   26.7169   36.7330  101.2999 O   0  0  0  0  0  0  0  0  0  0  0  0
   24.9332   35.4477  102.0225 C   0  0  0  0  0  0  0  0  0  0  0  0
   28.6009   37.0816  103.1403 O   0  0  0  0  0  0  0  0  0  0  0  0
  1  2  1  0
  2  3  1  0
  1  4  1  0
  4  5  1  0
  5  6  1  0
  6  7  1  0
  2  8  1  0
  7  9  2  0
  7 10  1  0
  5 11  2  0
M  END
>  <ID>  (1) 
conformer_0

$$$$
