
     RDKit          3D

 18 19  0  0  0  0  0  0  0  0999 V2000
   26.2031   33.6973  107.7886 O   0  0  0  0  0  0  0  0  0  0  0  0
   25.5710   34.2215  106.8437 C   0  0  0  0  0  0  0  0  0  0  0  0
   26.3294   34.4664  105.6298 C   0  0  0  0  0  0  0  0  0  0  0  0
   27.5525   34.7853  105.5615 N   0  0  0  0  0  0  0  0  0  0  0  0
   28.1938   35.0881  104.3291 C   0  0  0  0  0  0  0  0  0  0  0  0
   25.5083   34.4446  104.4223 C   0  0  0  0  0  0  0  0  0  0  0  0
   24.0991   34.0817  104.4414 C   0  0  0  0  0  0  0  0  0  0  0  0
   24.2103   33.7705  106.8017 C   0  0  0  0  0  0  0  0  0  0  0  0
   26.0247   34.9674  103.2408 C   0  0  0  0  0  0  0  0  0  0  0  0
   29.6018   35.2372  104.2760 N   0  0  0  0  0  0  0  0  0  0  0  0
   30.3780   34.2418  104.7127 C   0  0  0  0  0  0  0  0  0  0  0  0
   25.3844   35.0608  102.0597 O   0  0  0  0  0  0  0  0  0  0  0  0
   27.3117   35.3142  103.1149 N   0  0  0  0  0  0  0  0  0  0  0  0
   30.0434   36.3962  103.7193 C   0  0  0  0  0  0  0  0  0  0  0  0
   31.4558   34.7306  105.3094 O   0  0  0  0  0  0  0  0  0  0  0  0
   23.4753   33.8382  105.7061 C   0  0  0  0  0  0  0  0  0  0  0  0
   30.7636   33.4587  103.4538 C   0  0  0  0  0  0  0  0  0  0  0  0
   31.9805   32.7924  103.5246 O   0  0  0  0  0  0  0  0  0  0  0  0
  1  2  1  0
  2  3  1  0
  3  4  1  0
  4  5  2  0
  3  6  2  0
  6  7  1  0
  2  8  2  0
  6  9  1  0
  5 10  1  0
 10 11  1  0
  9 12  2  0
  5 13  1  0
  9 13  1  0
 10 14  1  0
 11 15  1  0
  7 16  2  0
  8 16  1  0
 11 17  1  0
 17 18  1  0
M  END
>  <ID>  (1) 
conformer_0

$$$$
