
     RDKit          3D

 15 16  0  0  0  0  0  0  0  0999 V2000
   29.5953   36.3975  103.5472 N   0  0  0  0  0  0  0  0  0  0  0  0
   28.3439   36.2399  103.3592 C   0  0  0  0  0  0  0  0  0  0  0  0
   27.7886   35.0776  103.8321 C   0  0  0  0  0  0  0  0  0  0  0  0
   30.0815   35.1694  103.9788 C   0  0  0  0  0  0  0  0  0  0  0  0
   26.4610   34.6195  103.7869 C   0  0  0  0  0  0  0  0  0  0  0  0
   25.6667   34.8857  102.9490 N   0  0  0  0  0  0  0  0  0  0  0  0
   26.0436   33.6474  104.7791 N   0  0  0  0  0  0  0  0  0  0  0  0
   24.3579   34.4558  103.1024 C   0  0  0  0  0  0  0  0  0  0  0  0
   29.0159   34.3751  104.1794 C   0  0  0  0  0  0  0  0  0  0  0  0
   31.4521   34.8040  104.1721 C   0  0  0  0  0  0  0  0  0  0  0  0
   24.6087   33.5183  104.3719 C   0  0  0  0  0  0  0  0  0  0  0  0
   23.7876   33.9354  105.5929 C   0  0  0  0  0  0  0  0  0  0  0  0
   24.3955   33.6647  106.7683 C   0  0  0  0  0  0  0  0  0  0  0  0
   32.0532   34.0744  103.0207 O   0  0  0  0  0  0  0  0  0  0  0  0
   25.2847   34.7833  107.2253 O   0  0  0  0  0  0  0  0  0  0  0  0
  1  2  1  0
  2  3  1  0
  1  4  2  0
  3  5  1  0
  5  6  2  0
  5  7  1  0
  6  8  1  0
  3  9  2  0
  4  9  1  0
  4 10  1  0
  7 11  1  0
  8 11  1  0
 11 12  1  0
 12 13  1  0
 10 14  1  0
 13 15  1  0
M  END
>  <ID>  (1) 
conformer_0

$$$$
