
     RDKit          3D

 19 22  0  0  0  0  0  0  0  0999 V2000
   29.5953   36.3975  103.5472 N   0  0  0  0  0  0  0  0  0  0  0  0
   30.3462   35.3832  103.7704 C   0  0  0  0  0  0  0  0  0  0  0  0
   28.2158   36.1117  103.4048 C   0  0  0  0  0  0  0  0  0  0  0  0
   29.8988   34.2791  103.8423 C   0  0  0  0  0  0  0  0  0  0  0  0
   27.2677   37.0175  103.1306 O   0  0  0  0  0  0  0  0  0  0  0  0
   31.7760   35.5270  103.8506 N   0  0  0  0  0  0  0  0  0  0  0  0
   26.1790   36.4625  102.5814 C   0  0  0  0  0  0  0  0  0  0  0  0
   27.8296   34.7224  103.6685 C   0  0  0  0  0  0  0  0  0  0  0  0
   26.3001   34.6021  103.5272 C   0  0  0  0  0  0  0  0  0  0  0  0
   25.5992   35.3231  102.8138 N   0  0  0  0  0  0  0  0  0  0  0  0
   24.5752   34.8570  101.9948 N   0  0  0  0  0  0  0  0  0  0  0  0
   28.6438   33.7921  103.8484 C   0  0  0  0  0  0  0  0  0  0  0  0
   24.0067   35.8269  101.3648 C   0  0  0  0  0  0  0  0  0  0  0  0
   32.3686   34.2955  103.5604 C   0  0  0  0  0  0  0  0  0  0  0  0
   31.1827   33.1542  103.9268 C   0  0  0  0  0  0  0  0  0  0  0  0
   33.3494   34.0566  104.2767 O   0  0  0  0  0  0  0  0  0  0  0  0
   25.7752   33.6093  104.1893 O   0  0  0  0  0  0  0  0  0  0  0  0
   25.3925   37.1418  101.2705 C   0  0  0  0  0  0  0  0  0  0  0  0
   32.5687   34.1404  102.2269 O   0  0  0  0  0  0  0  0  0  0  0  0
  1  2  1  0
  1  3  2  0
  2  4  2  0
  3  5  1  0
  2  6  1  0
  5  7  1  0
  3  8  1  0
  8  9  1  0
  7 10  1  0
  9 10  1  0
 10 11  1  0
  4 12  1  0
  8 12  2  0
 11 13  2  0
  6 14  1  0
  4 15  1  0
 14 15  1  0
 14 16  1  0
  9 17  2  0
  7 18  1  0
 13 18  1  0
 14 19  1  0
M  END
>  <ID>  (1) 
conformer_0

$$$$
