
     RDKit          3D

 16 17  0  0  0  0  0  0  0  0999 V2000
   29.5154   36.3867  103.5097 N   0  0  0  0  0  0  0  0  0  0  0  0
   28.2729   36.2065  103.3419 C   0  0  0  0  0  0  0  0  0  0  0  0
   27.6994   35.0175  103.7962 C   0  0  0  0  0  0  0  0  0  0  0  0
   28.5100   34.0252  104.3456 C   0  0  0  0  0  0  0  0  0  0  0  0
   26.1652   34.7123  103.8190 C   0  0  0  0  0  0  0  0  0  0  0  0
   25.6126   34.3142  104.6727 N   0  0  0  0  0  0  0  0  0  0  0  0
   29.8866   34.2633  104.4272 N   0  0  0  0  0  0  0  0  0  0  0  0
   30.3910   35.4137  103.9033 C   0  0  0  0  0  0  0  0  0  0  0  0
   31.6496   35.5272  103.9467 O   0  0  0  0  0  0  0  0  0  0  0  0
   25.1217   33.1564  104.8164 N   0  0  0  0  0  0  0  0  0  0  0  0
   25.8025   34.9388  106.0491 C   0  0  0  0  0  0  0  0  0  0  0  0
   24.6463   32.8897  106.0257 N   0  0  0  0  0  0  0  0  0  0  0  0
   25.2057   34.0182  106.8717 C   0  0  0  0  0  0  0  0  0  0  0  0
   30.7325   33.2840  105.0275 C   0  0  0  0  0  0  0  0  0  0  0  0
   25.5031   35.5754  102.8772 O   0  0  0  0  0  0  0  0  0  0  0  0
   25.1759   33.9370  108.3149 N   0  0  0  0  0  0  0  0  0  0  0  0
  1  2  2  0
  2  3  1  0
  3  4  2  0
  3  5  1  0
  5  6  1  0
  4  7  1  0
  1  8  1  0
  7  8  1  0
  8  9  2  0
  6 10  1  0
  6 11  1  0
 10 12  2  0
 11 13  2  0
 12 13  1  0
  7 14  1  0
  5 15  2  0
 13 16  1  0
M  END
>  <ID>  (1) 
conformer_0

$$$$
