
     RDKit          3D

 17 16  0  0  0  0  0  0  0  0999 V2000
   30.7516   35.3962  103.9125 N   0  0  0  0  0  0  0  0  0  0  0  0
   29.4748   35.6827  103.6414 C   0  0  0  0  0  0  0  0  0  0  0  0
   28.5271   34.6926  103.9780 N   0  0  0  0  0  0  0  0  0  0  0  0
   27.1862   34.9133  103.7271 C   0  0  0  0  0  0  0  0  0  0  0  0
   31.2079   34.2411  104.4008 C   0  0  0  0  0  0  0  0  0  0  0  0
   26.2234   34.1176  104.4722 N   0  0  0  0  0  0  0  0  0  0  0  0
   26.0140   34.4654  105.8168 C   0  0  0  0  0  0  0  0  0  0  0  0
   25.4436   33.2762  103.6727 C   0  0  0  0  0  0  0  0  0  0  0  0
   27.1650   35.7455  102.7772 N   0  0  0  0  0  0  0  0  0  0  0  0
   25.9030   35.9152  102.0832 C   0  0  0  0  0  0  0  0  0  0  0  0
   24.7745   35.0381  106.0747 C   0  0  0  0  0  0  0  0  0  0  0  0
   25.9602   36.5936  100.9340 C   0  0  0  0  0  0  0  0  0  0  0  0
   32.1484   34.3332  105.3154 O   0  0  0  0  0  0  0  0  0  0  0  0
   26.6735   33.8413  106.7431 O   0  0  0  0  0  0  0  0  0  0  0  0
   31.7714   33.5085  103.1115 C   0  0  0  0  0  0  0  0  0  0  0  0
   28.9698   36.6874  103.0110 O   0  0  0  0  0  0  0  0  0  0  0  0
   24.7563   35.3851  102.3800 O   0  0  0  0  0  0  0  0  0  0  0  0
  1  2  1  0
  2  3  1  0
  3  4  1  0
  1  5  1  0
  4  6  1  0
  6  7  1  0
  6  8  1  0
  4  9  2  3
  9 10  1  0
  7 11  1  0
 10 12  1  0
  5 13  1  0
  7 14  2  0
  5 15  1  0
  2 16  2  0
 10 17  2  0
M  END
>  <ID>  (1) 
conformer_0

$$$$
