
     RDKit          3D

 18 18  0  0  0  0  0  0  0  0999 V2000
   29.5154   36.3867  103.5097 N   0  0  0  0  0  0  0  0  0  0  0  0
   28.2729   36.2065  103.3419 C   0  0  0  0  0  0  0  0  0  0  0  0
   27.6994   35.0175  103.7962 N   0  0  0  0  0  0  0  0  0  0  0  0
   26.3567   34.6594  103.6865 C   0  0  0  0  0  0  0  0  0  0  0  0
   25.5211   35.3757  102.8394 O   0  0  0  0  0  0  0  0  0  0  0  0
   28.5289   34.0876  104.3554 C   0  0  0  0  0  0  0  0  0  0  0  0
   25.5980   33.9395  104.6850 C   0  0  0  0  0  0  0  0  0  0  0  0
   29.9056   34.2680  104.4015 C   0  0  0  0  0  0  0  0  0  0  0  0
   30.8805   33.2256  104.8593 C   0  0  0  0  0  0  0  0  0  0  0  0
   31.7922   33.1080  103.8254 C   0  0  0  0  0  0  0  0  0  0  0  0
   31.4925   33.4035  102.5388 C   0  0  0  0  0  0  0  0  0  0  0  0
   24.2808   33.3981  104.2912 C   0  0  0  0  0  0  0  0  0  0  0  0
   25.3539   34.7904  105.9469 N   0  0  0  0  0  0  0  0  0  0  0  0
   25.4698   34.1722  107.1606 C   0  0  0  0  0  0  0  0  0  0  0  0
   25.7483   33.0217  107.4123 O   0  0  0  0  0  0  0  0  0  0  0  0
   25.1793   35.0893  108.1969 O   0  0  0  0  0  0  0  0  0  0  0  0
   32.6600   34.1388  102.0297 O   0  0  0  0  0  0  0  0  0  0  0  0
   30.3353   35.5410  103.9251 C   0  0  0  0  0  0  0  0  0  0  0  0
  1  2  2  0
  2  3  1  0
  3  4  1  0
  4  5  2  0
  3  6  1  0
  4  7  1  0
  6  8  2  0
  8  9  1  0
  9 10  1  0
 10 11  1  0
  7 12  1  0
  7 13  1  0
 13 14  1  0
 14 15  2  0
 14 16  1  0
 11 17  1  0
  1 18  1  0
  8 18  1  0
M  END
>  <ID>  (1) 
conformer_0

$$$$
