
     RDKit          3D

 13 14  0  0  0  0  0  0  0  0999 V2000
   29.1098   36.3151  103.7535 C   0  0  0  0  0  0  0  0  0  0  0  0
   30.2635   35.7938  103.7935 N   0  0  0  0  0  0  0  0  0  0  0  0
   30.5107   34.5080  104.2054 C   0  0  0  0  0  0  0  0  0  0  0  0
   28.0838   35.4584  103.7473 C   0  0  0  0  0  0  0  0  0  0  0  0
   26.6402   35.8207  103.5999 N   0  0  0  0  0  0  0  0  0  0  0  0
   28.7927   37.4945  103.4345 O   0  0  0  0  0  0  0  0  0  0  0  0
   29.5193   33.5449  104.1707 N   0  0  0  0  0  0  0  0  0  0  0  0
   28.2194   34.0606  103.9945 C   0  0  0  0  0  0  0  0  0  0  0  0
   26.9733   33.4478  104.0035 N   0  0  0  0  0  0  0  0  0  0  0  0
   25.9776   34.3285  103.8306 C   0  0  0  0  0  0  0  0  0  0  0  0
   31.8681   33.9637  104.2646 C   0  0  0  0  0  0  0  0  0  0  0  0
   24.7145   34.1315  103.8593 O   0  0  0  0  0  0  0  0  0  0  0  0
   32.5261   33.7237  102.9994 O   0  0  0  0  0  0  0  0  0  0  0  0
  1  2  1  0
  2  3  2  0
  1  4  1  0
  4  5  1  0
  1  6  2  0
  3  7  1  0
  4  8  2  0
  7  8  1  0
  8  9  1  0
  5 10  1  0
  9 10  1  0
  3 11  1  0
 10 12  2  0
 11 13  1  0
M  END
>  <ID>  (1) 
conformer_0

$$$$
