
     RDKit          3D

 18 19  0  0  0  0  0  0  0  0999 V2000
   29.3807   36.7564  103.4349 O   0  0  0  0  0  0  0  0  0  0  0  0
   29.7729   35.4904  103.5529 C   0  0  0  0  0  0  0  0  0  0  0  0
   29.0263   34.5787  103.7306 N   0  0  0  0  0  0  0  0  0  0  0  0
   31.2107   35.1762  103.6458 N   0  0  0  0  0  0  0  0  0  0  0  0
   31.6078   33.9457  104.0612 C   0  0  0  0  0  0  0  0  0  0  0  0
   29.2882   33.2340  104.0826 C   0  0  0  0  0  0  0  0  0  0  0  0
   27.4897   34.8416  103.5194 C   0  0  0  0  0  0  0  0  0  0  0  0
   26.9508   35.4082  102.6162 C   0  0  0  0  0  0  0  0  0  0  0  0
   25.5276   35.5279  102.5247 C   0  0  0  0  0  0  0  0  0  0  0  0
   24.9497   34.8240  103.3877 C   0  0  0  0  0  0  0  0  0  0  0  0
   24.8178   36.2671  101.3358 C   0  0  0  0  0  0  0  0  0  0  0  0
   25.3723   37.2072  100.9353 O   0  0  0  0  0  0  0  0  0  0  0  0
   30.6643   32.9173  103.6994 C   0  0  0  0  0  0  0  0  0  0  0  0
   24.2265   35.4553  100.4777 O   0  0  0  0  0  0  0  0  0  0  0  0
   26.8510   34.1123  104.6086 N   0  0  0  0  0  0  0  0  0  0  0  0
   25.4748   34.2735  104.5167 C   0  0  0  0  0  0  0  0  0  0  0  0
   30.6697   33.0222  102.1245 C   0  0  0  0  0  0  0  0  0  0  0  0
   32.9528   33.7496  103.5845 O   0  0  0  0  0  0  0  0  0  0  0  0
  1  2  2  0
  2  3  1  0
  2  4  1  0
  4  5  1  0
  3  6  1  0
  3  7  1  0
  7  8  2  0
  8  9  1  0
  9 10  2  0
  9 11  1  0
 11 12  1  0
  5 13  1  0
  6 13  1  0
 11 14  2  0
  7 15  1  0
 10 16  1  0
 15 16  2  0
 13 17  1  0
  5 18  1  0
M  END
>  <ID>  (1) 
conformer_0

$$$$
