
     RDKit          3D

 18 20  0  0  0  0  0  0  0  0999 V2000
   29.5953   36.3975  103.5472 N   0  0  0  0  0  0  0  0  0  0  0  0
   28.3439   36.2399  103.3592 C   0  0  0  0  0  0  0  0  0  0  0  0
   27.4713   37.1136  102.8004 O   0  0  0  0  0  0  0  0  0  0  0  0
   27.8406   34.8630  103.5276 C   0  0  0  0  0  0  0  0  0  0  0  0
   28.7593   33.8513  103.9534 C   0  0  0  0  0  0  0  0  0  0  0  0
   30.1449   34.3135  104.0799 N   0  0  0  0  0  0  0  0  0  0  0  0
   30.5515   35.5302  103.8490 C   0  0  0  0  0  0  0  0  0  0  0  0
   31.1066   33.3456  104.4526 C   0  0  0  0  0  0  0  0  0  0  0  0
   31.6665   35.6202  103.9236 O   0  0  0  0  0  0  0  0  0  0  0  0
   26.4513   36.4846  101.8923 C   0  0  0  0  0  0  0  0  0  0  0  0
   25.6119   37.2963  101.3096 C   0  0  0  0  0  0  0  0  0  0  0  0
   26.3280   34.7694  103.4264 C   0  0  0  0  0  0  0  0  0  0  0  0
   24.5823   36.4066  100.7007 C   0  0  0  0  0  0  0  0  0  0  0  0
   25.9438   35.3745  102.5594 C   0  0  0  0  0  0  0  0  0  0  0  0
   32.1084   33.8160  105.0938 C   0  0  0  0  0  0  0  0  0  0  0  0
   31.4144   33.0215  103.0834 C   0  0  0  0  0  0  0  0  0  0  0  0
   26.1152   33.2667  103.4975 O   0  0  0  0  0  0  0  0  0  0  0  0
   24.6969   35.0661  101.7105 C   0  0  0  0  0  0  0  0  0  0  0  0
  1  2  2  0
  2  3  1  0
  2  4  1  0
  4  5  2  0
  5  6  1  0
  1  7  1  0
  6  7  1  0
  6  8  1  0
  7  9  2  0
  3 10  1  0
 10 11  1  0
  4 12  1  0
 11 13  2  0
 10 14  2  0
 12 14  1  0
  8 15  1  0
  8 16  1  0
 12 17  1  0
 13 18  1  0
 14 18  1  0
M  END
>  <ID>  (1) 
conformer_0

$$$$
