
     RDKit          3D

 11 12  0  0  0  0  0  0  0  0999 V2000
   29.5953   36.3975  103.5472 N   0  0  0  0  0  0  0  0  0  0  0  0
   30.3462   35.3832  103.7704 C   0  0  0  0  0  0  0  0  0  0  0  0
   28.2158   36.1117  103.4048 C   0  0  0  0  0  0  0  0  0  0  0  0
   29.8988   34.2791  103.8423 C   0  0  0  0  0  0  0  0  0  0  0  0
   30.9434   33.1014  104.0684 C   0  0  0  0  0  0  0  0  0  0  0  0
   28.4454   34.0283  103.6699 C   0  0  0  0  0  0  0  0  0  0  0  0
   31.4707   32.6592  102.9246 O   0  0  0  0  0  0  0  0  0  0  0  0
   27.6487   34.9532  103.5720 N   0  0  0  0  0  0  0  0  0  0  0  0
   31.9434   33.6123  104.9908 C   0  0  0  0  0  0  0  0  0  0  0  0
   32.2589   34.9191  104.7932 C   0  0  0  0  0  0  0  0  0  0  0  0
   31.6922   35.6825  103.9189 N   0  0  0  0  0  0  0  0  0  0  0  0
  1  2  1  0
  1  3  2  0
  2  4  2  0
  4  5  1  0
  4  6  1  0
  5  7  2  0
  3  8  1  0
  6  8  2  0
  5  9  1  0
  9 10  1  0
  2 11  1  0
 10 11  1  0
M  END
>  <ID>  (1) 
conformer_0

$$$$
