
     RDKit          3D

 19 21  0  0  0  0  0  0  0  0999 V2000
   29.1098   36.3151  103.7535 N   0  0  0  0  0  0  0  0  0  0  0  0
   30.1237   35.5355  103.7812 C   0  0  0  0  0  0  0  0  0  0  0  0
   27.8481   35.9168  103.7420 C   0  0  0  0  0  0  0  0  0  0  0  0
   27.9017   34.5944  104.0506 N   0  0  0  0  0  0  0  0  0  0  0  0
   26.7506   33.7004  104.1761 C   0  0  0  0  0  0  0  0  0  0  0  0
   29.2879   34.1954  104.0663 C   0  0  0  0  0  0  0  0  0  0  0  0
   26.7749   36.4472  103.7791 O   0  0  0  0  0  0  0  0  0  0  0  0
   26.0061   33.4956  103.0305 C   0  0  0  0  0  0  0  0  0  0  0  0
   24.5797   33.5843  103.3330 C   0  0  0  0  0  0  0  0  0  0  0  0
   31.4085   35.5270  103.7002 N   0  0  0  0  0  0  0  0  0  0  0  0
   32.0400   34.4477  103.4832 C   0  0  0  0  0  0  0  0  0  0  0  0
   24.4200   33.1004  104.7352 C   0  0  0  0  0  0  0  0  0  0  0  0
   33.2277   34.3966  103.4902 O   0  0  0  0  0  0  0  0  0  0  0  0
   23.5189   33.8849  105.5748 N   0  0  0  0  0  0  0  0  0  0  0  0
   22.9078   33.2292  106.4984 C   0  0  0  0  0  0  0  0  0  0  0  0
   23.4549   35.2909  105.4286 C   0  0  0  0  0  0  0  0  0  0  0  0
   25.8698   34.0261  105.3073 C   0  0  0  0  0  0  0  0  0  0  0  0
   31.4716   33.0903  103.7043 C   0  0  0  0  0  0  0  0  0  0  0  0
   29.9781   32.9549  103.8347 C   0  0  0  0  0  0  0  0  0  0  0  0
  1  2  1  0
  1  3  1  0
  3  4  1  0
  4  5  1  0
  2  6  2  0
  4  6  1  0
  3  7  2  0
  5  8  1  0
  8  9  1  0
  2 10  1  0
 10 11  1  0
  9 12  1  0
 11 13  1  0
 12 14  1  0
 14 15  1  0
 14 16  1  0
  5 17  1  0
 12 17  1  0
 11 18  2  0
  6 19  1  0
 18 19  1  0
M  END
>  <ID>  (1) 
conformer_0

$$$$
