
     RDKit          3D

 16 18  0  0  0  0  0  0  0  0999 V2000
   29.5154   36.3867  103.5097 N   0  0  0  0  0  0  0  0  0  0  0  0
   29.4346   35.1449  103.8033 C   0  0  0  0  0  0  0  0  0  0  0  0
   30.4251   34.3302  104.1092 N   0  0  0  0  0  0  0  0  0  0  0  0
   28.1260   34.6772  103.9194 C   0  0  0  0  0  0  0  0  0  0  0  0
   31.2683   34.3168  104.9453 C   0  0  0  0  0  0  0  0  0  0  0  0
   27.6007   33.4858  104.3213 N   0  0  0  0  0  0  0  0  0  0  0  0
   26.4651   33.2484  103.7889 C   0  0  0  0  0  0  0  0  0  0  0  0
   30.7054   33.4493  102.8905 C   0  0  0  0  0  0  0  0  0  0  0  0
   25.8084   31.9827  104.0763 C   0  0  0  0  0  0  0  0  0  0  0  0
   24.2438   32.0706  104.1526 C   0  0  0  0  0  0  0  0  0  0  0  0
   27.3651   35.8220  103.4450 C   0  0  0  0  0  0  0  0  0  0  0  0
   28.2851   36.7929  103.2489 N   0  0  0  0  0  0  0  0  0  0  0  0
   25.6152   34.4659  103.3665 N   0  0  0  0  0  0  0  0  0  0  0  0
   32.5599   33.7531  104.5834 N   0  0  0  0  0  0  0  0  0  0  0  0
   32.2276   33.1549  103.1647 C   0  0  0  0  0  0  0  0  0  0  0  0
   26.0503   35.6262  103.1548 N   0  0  0  0  0  0  0  0  0  0  0  0
  1  2  1  0
  2  3  1  0
  2  4  2  0
  3  5  1  0
  4  6  1  0
  6  7  2  0
  3  8  1  0
  7  9  1  0
  9 10  1  0
  4 11  1  0
  1 12  1  0
 11 12  1  0
  7 13  1  0
  5 14  1  0
  8 15  1  0
 14 15  1  0
 11 16  2  0
 13 16  1  0
M  END
>  <ID>  (1) 
conformer_0

$$$$
