
     RDKit          3D

 12 13  0  0  0  0  0  0  0  0999 V2000
   29.5154   36.3867  103.5097 N   0  0  0  0  0  0  0  0  0  0  0  0
   29.4346   35.1449  103.8033 C   0  0  0  0  0  0  0  0  0  0  0  0
   30.4251   34.3302  104.1092 N   0  0  0  0  0  0  0  0  0  0  0  0
   28.1260   34.6772  103.9194 C   0  0  0  0  0  0  0  0  0  0  0  0
   31.2683   34.3168  104.9453 C   0  0  0  0  0  0  0  0  0  0  0  0
   27.6007   33.4858  104.3213 N   0  0  0  0  0  0  0  0  0  0  0  0
   26.4651   33.2484  103.7889 C   0  0  0  0  0  0  0  0  0  0  0  0
   25.5998   34.1403  103.1851 N   0  0  0  0  0  0  0  0  0  0  0  0
   27.4182   35.9405  103.4748 C   0  0  0  0  0  0  0  0  0  0  0  0
   32.4736   34.0530  104.7217 O   0  0  0  0  0  0  0  0  0  0  0  0
   28.2711   36.8671  103.2536 N   0  0  0  0  0  0  0  0  0  0  0  0
   26.0823   35.4945  103.0318 C   0  0  0  0  0  0  0  0  0  0  0  0
  1  2  1  0
  2  3  1  0
  2  4  2  0
  3  5  1  0
  4  6  1  0
  6  7  2  0
  7  8  1  0
  4  9  1  0
  5 10  2  0
  1 11  1  0
  9 11  1  0
  8 12  2  0
  9 12  2  0
M  END
>  <ID>  (1) 
conformer_0

$$$$
