
     RDKit          3D

 15 15  0  0  0  0  0  0  0  0999 V2000
   29.5154   36.3867  103.5097 N   0  0  0  0  0  0  0  0  0  0  0  0
   28.2729   36.2065  103.3419 C   0  0  0  0  0  0  0  0  0  0  0  0
   27.6994   35.0175  103.7962 C   0  0  0  0  0  0  0  0  0  0  0  0
   28.5100   34.0252  104.3456 C   0  0  0  0  0  0  0  0  0  0  0  0
   26.1652   34.7123  103.8190 C   0  0  0  0  0  0  0  0  0  0  0  0
   25.6126   34.3142  104.6727 N   0  0  0  0  0  0  0  0  0  0  0  0
   29.8866   34.2633  104.4272 N   0  0  0  0  0  0  0  0  0  0  0  0
   30.3910   35.4137  103.9033 C   0  0  0  0  0  0  0  0  0  0  0  0
   31.7221   35.3988  103.9158 O   0  0  0  0  0  0  0  0  0  0  0  0
   24.3772   33.7998  104.5923 C   0  0  0  0  0  0  0  0  0  0  0  0
   25.6117   34.5964  102.6140 O   0  0  0  0  0  0  0  0  0  0  0  0
   23.4601   34.0953  105.7826 C   0  0  0  0  0  0  0  0  0  0  0  0
   24.2439   32.1800  104.7164 C   0  0  0  0  0  0  0  0  0  0  0  0
   23.7801   31.7016  103.5350 O   0  0  0  0  0  0  0  0  0  0  0  0
   24.0974   34.4378  106.9546 O   0  0  0  0  0  0  0  0  0  0  0  0
  1  2  2  0
  2  3  1  0
  3  4  2  0
  3  5  1  0
  5  6  1  0
  4  7  1  0
  1  8  1  0
  7  8  1  0
  8  9  2  0
  6 10  1  0
  5 11  2  0
 10 12  1  0
 10 13  1  0
 13 14  1  0
 12 15  1  0
M  END
>  <ID>  (1) 
conformer_0

$$$$
