
     RDKit          3D

 19 21  0  0  0  0  0  0  0  0999 V2000
   29.5953   36.3975  103.5472 N   0  0  0  0  0  0  0  0  0  0  0  0
   30.3462   35.3832  103.7704 C   0  0  0  0  0  0  0  0  0  0  0  0
   28.2158   36.1117  103.4048 C   0  0  0  0  0  0  0  0  0  0  0  0
   29.8988   34.2791  103.8423 C   0  0  0  0  0  0  0  0  0  0  0  0
   27.2677   37.0175  103.1306 O   0  0  0  0  0  0  0  0  0  0  0  0
   31.7760   35.5270  103.8506 N   0  0  0  0  0  0  0  0  0  0  0  0
   26.1790   36.4625  102.5814 C   0  0  0  0  0  0  0  0  0  0  0  0
   27.8296   34.7224  103.6685 C   0  0  0  0  0  0  0  0  0  0  0  0
   32.4145   34.3291  103.9716 C   0  0  0  0  0  0  0  0  0  0  0  0
   28.5969   33.8143  103.8128 C   0  0  0  0  0  0  0  0  0  0  0  0
   30.7986   32.9867  104.0660 C   0  0  0  0  0  0  0  0  0  0  0  0
   26.2762   34.8381  103.6845 C   0  0  0  0  0  0  0  0  0  0  0  0
   25.8535   34.9563  105.0220 C   0  0  0  0  0  0  0  0  0  0  0  0
   24.5718   35.3049  105.1120 O   0  0  0  0  0  0  0  0  0  0  0  0
   33.8963   34.6619  104.0288 N   0  0  0  0  0  0  0  0  0  0  0  0
   25.6050   33.7366  103.0161 C   0  0  0  0  0  0  0  0  0  0  0  0
   26.3757   34.3464  105.9497 O   0  0  0  0  0  0  0  0  0  0  0  0
   25.7456   34.2817  107.3089 C   0  0  0  0  0  0  0  0  0  0  0  0
   32.0616   33.1987  104.1129 C   0  0  0  0  0  0  0  0  0  0  0  0
  1  2  1  0
  1  3  2  0
  2  4  2  0
  3  5  1  0
  2  6  1  0
  5  7  1  0
  3  8  1  0
  6  9  2  0
  4 10  1  0
  8 10  2  0
  4 11  1  0
  7 12  1  0
  8 12  1  0
 12 13  1  0
 13 14  2  0
  9 15  1  0
 12 16  1  0
 13 17  1  0
 17 18  1  0
  9 19  1  0
 11 19  2  0
M  END
>  <ID>  (1) 
conformer_0

$$$$
