
     RDKit          3D

 17 19  0  0  0  0  0  0  0  0999 V2000
   29.5154   36.3867  103.5097 N   0  0  0  0  0  0  0  0  0  0  0  0
   29.4346   35.1449  103.8033 C   0  0  0  0  0  0  0  0  0  0  0  0
   30.4251   34.3302  104.1092 N   0  0  0  0  0  0  0  0  0  0  0  0
   28.1260   34.6772  103.9194 C   0  0  0  0  0  0  0  0  0  0  0  0
   31.2683   34.3168  104.9453 C   0  0  0  0  0  0  0  0  0  0  0  0
   27.6007   33.4858  104.3213 N   0  0  0  0  0  0  0  0  0  0  0  0
   26.4651   33.2484  103.7889 C   0  0  0  0  0  0  0  0  0  0  0  0
   25.7604   32.0035  104.1211 C   0  0  0  0  0  0  0  0  0  0  0  0
   31.1718   34.5676  106.0675 O   0  0  0  0  0  0  0  0  0  0  0  0
   24.4779   32.3319  104.8501 C   0  0  0  0  0  0  0  0  0  0  0  0
   27.4194   35.8270  103.4511 C   0  0  0  0  0  0  0  0  0  0  0  0
   25.5770   34.3360  103.3154 C   0  0  0  0  0  0  0  0  0  0  0  0
   24.1471   34.1250  103.1921 C   0  0  0  0  0  0  0  0  0  0  0  0
   28.3324   36.8845  103.2436 N   0  0  0  0  0  0  0  0  0  0  0  0
   32.6388   33.7775  104.4939 N   0  0  0  0  0  0  0  0  0  0  0  0
   23.5451   33.1010  103.9266 C   0  0  0  0  0  0  0  0  0  0  0  0
   26.0995   35.7249  103.0894 N   0  0  0  0  0  0  0  0  0  0  0  0
  1  2  1  0
  2  3  1  0
  2  4  2  0
  3  5  1  0
  4  6  1  0
  6  7  2  0
  7  8  1  0
  5  9  2  0
  8 10  1  0
  4 11  1  0
  7 12  1  0
 12 13  2  0
  1 14  2  0
 11 14  1  0
  5 15  1  0
 10 16  1  0
 13 16  1  0
 11 17  2  0
 12 17  1  0
M  END
>  <ID>  (1) 
conformer_0

$$$$
