
     RDKit          3D

 18 19  0  0  0  0  0  0  0  0999 V2000
   29.3807   36.7564  103.4349 O   0  0  0  0  0  0  0  0  0  0  0  0
   29.7729   35.4904  103.5529 C   0  0  0  0  0  0  0  0  0  0  0  0
   29.0263   34.5787  103.7306 N   0  0  0  0  0  0  0  0  0  0  0  0
   31.2107   35.1762  103.6458 N   0  0  0  0  0  0  0  0  0  0  0  0
   31.6078   33.9457  104.0612 C   0  0  0  0  0  0  0  0  0  0  0  0
   29.2882   33.2340  104.0826 C   0  0  0  0  0  0  0  0  0  0  0  0
   27.4897   34.8416  103.5194 C   0  0  0  0  0  0  0  0  0  0  0  0
   26.9508   35.4082  102.6162 C   0  0  0  0  0  0  0  0  0  0  0  0
   25.5276   35.5279  102.5247 C   0  0  0  0  0  0  0  0  0  0  0  0
   24.7670   34.8148  103.3887 C   0  0  0  0  0  0  0  0  0  0  0  0
   26.6681   33.9578  104.5483 C   0  0  0  0  0  0  0  0  0  0  0  0
   24.8217   36.4221  101.3228 C   0  0  0  0  0  0  0  0  0  0  0  0
   25.5366   37.2066  100.9261 O   0  0  0  0  0  0  0  0  0  0  0  0
   24.0376   35.7014  100.5690 N   0  0  0  0  0  0  0  0  0  0  0  0
   30.6807   32.9030  103.6347 C   0  0  0  0  0  0  0  0  0  0  0  0
   30.6436   33.0591  102.0475 C   0  0  0  0  0  0  0  0  0  0  0  0
   25.3139   34.1211  104.4229 C   0  0  0  0  0  0  0  0  0  0  0  0
   32.9667   33.7196  103.6286 O   0  0  0  0  0  0  0  0  0  0  0  0
  1  2  2  0
  2  3  1  0
  2  4  1  0
  4  5  1  0
  3  6  1  0
  3  7  1  0
  7  8  2  0
  8  9  1  0
  9 10  2  0
  7 11  1  0
  9 12  1  0
 12 13  2  0
 12 14  1  0
  5 15  1  0
  6 15  1  0
 15 16  1  0
 10 17  1  0
 11 17  2  0
  5 18  1  0
M  END
>  <ID>  (1) 
conformer_0

$$$$
