
     RDKit          3D

 10 10  0  0  0  0  0  0  0  0999 V2000
   32.5612   33.5586  103.3104 O   0  0  0  0  0  0  0  0  0  0  0  0
   31.7277   34.0157  104.2249 C   0  0  0  0  0  0  0  0  0  0  0  0
   30.4035   34.4352  103.7913 C   0  0  0  0  0  0  0  0  0  0  0  0
   29.2238   33.5058  103.9182 C   0  0  0  0  0  0  0  0  0  0  0  0
   29.9619   35.8138  103.9708 C   0  0  0  0  0  0  0  0  0  0  0  0
   28.0794   34.0579  103.2793 C   0  0  0  0  0  0  0  0  0  0  0  0
   27.7057   35.3184  103.5046 C   0  0  0  0  0  0  0  0  0  0  0  0
   32.1304   34.3466  105.3581 O   0  0  0  0  0  0  0  0  0  0  0  0
   28.7515   36.1518  103.7822 N   0  0  0  0  0  0  0  0  0  0  0  0
   26.4861   35.7772  103.3878 O   0  0  0  0  0  0  0  0  0  0  0  0
  1  2  2  0
  2  3  1  0
  3  4  1  0
  3  5  1  0
  4  6  1  0
  6  7  1  0
  2  8  1  0
  5  9  1  0
  7  9  1  0
  7 10  2  0
M  END
>  <ID>  (1) 
conformer_0

$$$$
