
     RDKit          3D

 18 19  0  0  0  0  0  0  0  0999 V2000
   25.3643   34.7905  107.8608 O   0  0  0  0  0  0  0  0  0  0  0  0
   24.7321   34.2990  106.9897 C   0  0  0  0  0  0  0  0  0  0  0  0
   25.0441   34.6299  105.7435 C   0  0  0  0  0  0  0  0  0  0  0  0
   26.3345   34.9067  105.4587 N   0  0  0  0  0  0  0  0  0  0  0  0
   26.8989   35.1372  104.1644 C   0  0  0  0  0  0  0  0  0  0  0  0
   24.5065   33.6808  104.7220 O   0  0  0  0  0  0  0  0  0  0  0  0
   28.3374   35.2927  104.1365 C   0  0  0  0  0  0  0  0  0  0  0  0
   25.2177   33.2878  103.7920 C   0  0  0  0  0  0  0  0  0  0  0  0
   29.2885   34.6064  104.4264 N   0  0  0  0  0  0  0  0  0  0  0  0
   28.7085   36.4200  103.3206 N   0  0  0  0  0  0  0  0  0  0  0  0
   26.1192   34.3847  103.1777 C   0  0  0  0  0  0  0  0  0  0  0  0
   29.8805   36.7146  103.1617 N   0  0  0  0  0  0  0  0  0  0  0  0
   30.8730   35.9759  103.5664 C   0  0  0  0  0  0  0  0  0  0  0  0
   25.1600   35.2667  102.4710 O   0  0  0  0  0  0  0  0  0  0  0  0
   30.5617   34.8139  104.2444 C   0  0  0  0  0  0  0  0  0  0  0  0
   31.5448   33.8559  104.5238 C   0  0  0  0  0  0  0  0  0  0  0  0
   32.5196   34.2652  105.2984 F   0  0  0  0  0  0  0  0  0  0  0  0
   32.1141   33.3782  103.2768 F   0  0  0  0  0  0  0  0  0  0  0  0
  1  2  1  0
  2  3  1  0
  3  4  1  0
  4  5  1  0
  3  6  1  0
  5  7  1  0
  6  8  1  0
  7  9  1  0
  7 10  2  0
  5 11  1  0
  8 11  1  0
 10 12  1  0
 12 13  2  0
 11 14  1  0
  9 15  2  0
 13 15  1  0
 15 16  1  0
 16 17  1  0
 16 18  1  0
M  END
>  <ID>  (1) 
conformer_0

$$$$
