
     RDKit          3D

 18 18  0  0  0  0  0  0  0  0999 V2000
   30.7516   35.3962  103.9125 N   0  0  0  0  0  0  0  0  0  0  0  0
   29.4748   35.6827  103.6414 C   0  0  0  0  0  0  0  0  0  0  0  0
   28.5271   34.6926  103.9780 N   0  0  0  0  0  0  0  0  0  0  0  0
   27.1862   34.9133  103.7271 C   0  0  0  0  0  0  0  0  0  0  0  0
   31.2079   34.2411  104.4008 C   0  0  0  0  0  0  0  0  0  0  0  0
   26.2234   34.1176  104.4722 N   0  0  0  0  0  0  0  0  0  0  0  0
   26.0140   34.4654  105.8168 C   0  0  0  0  0  0  0  0  0  0  0  0
   25.4436   33.2762  103.6727 C   0  0  0  0  0  0  0  0  0  0  0  0
   27.1650   35.7455  102.7772 N   0  0  0  0  0  0  0  0  0  0  0  0
   25.9030   35.9152  102.0832 C   0  0  0  0  0  0  0  0  0  0  0  0
   24.7745   35.0381  106.0747 C   0  0  0  0  0  0  0  0  0  0  0  0
   32.2640   33.7007  103.5627 C   0  0  0  0  0  0  0  0  0  0  0  0
   31.9753   33.4003  102.2656 O   0  0  0  0  0  0  0  0  0  0  0  0
   23.9651   33.6969  103.8560 C   0  0  0  0  0  0  0  0  0  0  0  0
   28.8769   36.5926  102.9911 O   0  0  0  0  0  0  0  0  0  0  0  0
   24.3723   34.8949  107.3596 O   0  0  0  0  0  0  0  0  0  0  0  0
   23.5800   34.0171  105.3644 C   0  0  0  0  0  0  0  0  0  0  0  0
   26.0231   36.5423  100.8903 C   0  0  0  0  0  0  0  0  0  0  0  0
  1  2  1  0
  2  3  1  0
  3  4  1  0
  1  5  1  0
  4  6  1  0
  6  7  1  0
  6  8  1  0
  4  9  2  3
  9 10  1  0
  7 11  1  0
  5 12  1  0
 12 13  1  0
  8 14  1  0
  2 15  2  0
 11 16  1  0
 11 17  1  0
 14 17  1  0
 10 18  1  0
M  END
>  <ID>  (1) 
conformer_0

$$$$
