
     RDKit          3D

 17 17  0  0  0  0  0  0  0  0999 V2000
   30.4421   33.0256  102.8589 C   0  0  0  0  0  0  0  0  0  0  0  0
   31.6663   33.4154  102.9964 C   0  0  0  0  0  0  0  0  0  0  0  0
   32.0079   34.1266  104.2203 C   0  0  0  0  0  0  0  0  0  0  0  0
   29.6422   34.2120  103.4548 N   0  0  0  0  0  0  0  0  0  0  0  0
   28.2420   34.3197  103.5213 C   0  0  0  0  0  0  0  0  0  0  0  0
   30.6689   34.8577  104.3410 C   0  0  0  0  0  0  0  0  0  0  0  0
   27.8351   35.6029  103.1211 C   0  0  0  0  0  0  0  0  0  0  0  0
   26.4188   35.6783  102.8614 N   0  0  0  0  0  0  0  0  0  0  0  0
   25.9038   36.3212  101.7745 N   0  0  0  0  0  0  0  0  0  0  0  0
   25.4571   35.1177  103.6627 C   0  0  0  0  0  0  0  0  0  0  0  0
   32.2577   34.1574  102.0503 O   0  0  0  0  0  0  0  0  0  0  0  0
   26.4606   36.9727  100.8539 O   0  0  0  0  0  0  0  0  0  0  0  0
   25.7164   34.6294  104.9800 C   0  0  0  0  0  0  0  0  0  0  0  0
   24.5859   35.8816  101.6063 O   0  0  0  0  0  0  0  0  0  0  0  0
   24.6526   34.4645  105.9701 C   0  0  0  0  0  0  0  0  0  0  0  0
   23.4888   34.6917  105.5488 O   0  0  0  0  0  0  0  0  0  0  0  0
   25.0029   34.4236  107.2612 O   0  0  0  0  0  0  0  0  0  0  0  0
  1  2  1  0
  2  3  1  0
  1  4  1  0
  4  5  1  0
  3  6  1  0
  4  6  1  0
  5  7  1  0
  7  8  1  0
  8  9  1  0
  8 10  1  0
  2 11  1  0
  9 12  1  0
 10 13  1  0
  9 14  2  0
 13 15  1  0
 15 16  2  0
 15 17  1  0
M  CHG  2   9   1  12  -1
M  END
>  <ID>  (1) 
conformer_0

$$$$
