
     RDKit          3D

 18 18  0  0  0  0  0  0  0  0999 V2000
   29.1098   36.3151  103.7535 C   0  0  0  0  0  0  0  0  0  0  0  0
   28.6303   35.1197  103.9474 N   0  0  0  0  0  0  0  0  0  0  0  0
   28.2848   37.2327  103.4919 O   0  0  0  0  0  0  0  0  0  0  0  0
   30.5099   36.2954  103.9211 N   0  0  0  0  0  0  0  0  0  0  0  0
   31.2863   35.2204  104.1087 C   0  0  0  0  0  0  0  0  0  0  0  0
   30.6464   33.9899  104.3006 N   0  0  0  0  0  0  0  0  0  0  0  0
   27.0738   34.8549  103.8696 C   0  0  0  0  0  0  0  0  0  0  0  0
   32.4450   35.1485  103.9192 O   0  0  0  0  0  0  0  0  0  0  0  0
   26.6046   34.2120  105.0079 N   0  0  0  0  0  0  0  0  0  0  0  0
   26.1629   34.8523  106.0645 C   0  0  0  0  0  0  0  0  0  0  0  0
   26.5934   34.4134  102.6871 C   0  0  0  0  0  0  0  0  0  0  0  0
   25.0859   34.7679  102.6655 C   0  0  0  0  0  0  0  0  0  0  0  0
   31.4331   32.7119  104.5689 C   0  0  0  0  0  0  0  0  0  0  0  0
   24.7506   35.8622  101.6828 C   0  0  0  0  0  0  0  0  0  0  0  0
   25.6804   36.5935  101.2131 O   0  0  0  0  0  0  0  0  0  0  0  0
   26.0083   33.9503  107.2675 C   0  0  0  0  0  0  0  0  0  0  0  0
   29.4505   33.9150  104.2828 C   0  0  0  0  0  0  0  0  0  0  0  0
   25.1926   35.6683  105.7887 O   0  0  0  0  0  0  0  0  0  0  0  0
  1  2  1  0
  1  3  2  0
  1  4  1  0
  4  5  1  0
  5  6  1  0
  2  7  1  0
  5  8  2  0
  7  9  1  0
  9 10  1  0
  7 11  1  0
 11 12  1  0
  6 13  1  0
 12 14  1  0
 14 15  1  0
 10 16  1  0
  2 17  1  0
  6 17  1  0
 10 18  2  0
M  END
>  <ID>  (1) 
conformer_0

$$$$
