
     RDKit          3D

 16 16  0  0  0  0  0  0  0  0999 V2000
   30.7516   35.3962  103.9125 C   0  0  0  0  0  0  0  0  0  0  0  0
   31.5277   34.4538  104.0643 N   0  0  0  0  0  0  0  0  0  0  0  0
   31.8982   33.5120  103.1091 C   0  0  0  0  0  0  0  0  0  0  0  0
   29.3043   35.0895  104.0367 C   0  0  0  0  0  0  0  0  0  0  0  0
   28.3298   35.9710  103.4859 C   0  0  0  0  0  0  0  0  0  0  0  0
   26.9871   35.6276  103.4090 N   0  0  0  0  0  0  0  0  0  0  0  0
   26.2717   35.9797  102.2020 N   0  0  0  0  0  0  0  0  0  0  0  0
   32.1353   34.1925  105.3951 C   0  0  0  0  0  0  0  0  0  0  0  0
   26.1403   35.1345  104.3668 C   0  0  0  0  0  0  0  0  0  0  0  0
   24.8941   34.8310  104.1723 N   0  0  0  0  0  0  0  0  0  0  0  0
   28.6024   37.1746  103.3238 O   0  0  0  0  0  0  0  0  0  0  0  0
   24.2663   35.1204  103.0361 C   0  0  0  0  0  0  0  0  0  0  0  0
   27.0358   36.5043  101.1436 O   0  0  0  0  0  0  0  0  0  0  0  0
   26.6818   34.7212  105.5349 O   0  0  0  0  0  0  0  0  0  0  0  0
   25.0706   35.6671  101.9998 C   0  0  0  0  0  0  0  0  0  0  0  0
   24.6482   35.9404  100.5837 C   0  0  0  0  0  0  0  0  0  0  0  0
  1  2  1  0
  2  3  1  0
  1  4  1  0
  4  5  1  0
  5  6  1  0
  6  7  1  0
  2  8  1  0
  6  9  1  0
  9 10  1  0
  5 11  2  0
 10 12  2  0
  7 13  1  0
  9 14  2  0
  7 15  1  0
 12 15  1  0
 15 16  1  0
M  END
>  <ID>  (1) 
conformer_0

$$$$
