
     RDKit          3D

 17 18  0  0  0  0  0  0  0  0999 V2000
   25.3643   34.7905  107.8608 O   0  0  0  0  0  0  0  0  0  0  0  0
   24.7321   34.2990  106.9897 C   0  0  0  0  0  0  0  0  0  0  0  0
   25.0441   34.6299  105.7435 C   0  0  0  0  0  0  0  0  0  0  0  0
   26.3345   34.9067  105.4587 N   0  0  0  0  0  0  0  0  0  0  0  0
   26.8989   35.1372  104.1644 C   0  0  0  0  0  0  0  0  0  0  0  0
   24.5065   33.6808  104.7220 O   0  0  0  0  0  0  0  0  0  0  0  0
   28.3374   35.2927  104.1365 C   0  0  0  0  0  0  0  0  0  0  0  0
   29.2889   34.4353  104.3905 C   0  0  0  0  0  0  0  0  0  0  0  0
   30.6159   34.6444  104.1819 C   0  0  0  0  0  0  0  0  0  0  0  0
   24.7028   33.8356  103.4317 C   0  0  0  0  0  0  0  0  0  0  0  0
   26.2045   34.5746  103.0525 C   0  0  0  0  0  0  0  0  0  0  0  0
   28.7543   36.6246  103.7485 C   0  0  0  0  0  0  0  0  0  0  0  0
   31.6731   33.5700  104.4202 C   0  0  0  0  0  0  0  0  0  0  0  0
   32.0984   33.1870  103.1225 O   0  0  0  0  0  0  0  0  0  0  0  0
   27.8969   37.5170  103.3734 O   0  0  0  0  0  0  0  0  0  0  0  0
   30.9076   35.7319  103.6160 C   0  0  0  0  0  0  0  0  0  0  0  0
   30.1444   36.8324  103.3267 N   0  0  0  0  0  0  0  0  0  0  0  0
  1  2  1  0
  2  3  1  0
  3  4  1  0
  4  5  1  0
  3  6  1  0
  5  7  1  0
  7  8  2  0
  8  9  1  0
  6 10  1  0
  5 11  1  0
 10 11  1  0
  7 12  1  0
  9 13  1  0
 13 14  2  0
 12 15  1  0
  9 16  2  0
 12 17  2  0
 16 17  1  0
M  END
>  <ID>  (1) 
conformer_0

$$$$
