
     RDKit          3D

  7  7  0  0  0  0  0  0  0  0999 V2000
   30.3892   36.0543  103.3511 N   0  0  0  0  0  0  0  0  0  0  0  0
   30.8790   34.8243  103.6527 C   0  0  0  0  0  0  0  0  0  0  0  0
   32.1758   34.4558  103.3423 N   0  0  0  0  0  0  0  0  0  0  0  0
   28.9653   35.9985  103.6754 C   0  0  0  0  0  0  0  0  0  0  0  0
   28.2427   35.0647  104.1824 N   0  0  0  0  0  0  0  0  0  0  0  0
   30.1087   33.7031  103.9752 C   0  0  0  0  0  0  0  0  0  0  0  0
   28.7964   33.9738  104.1708 C   0  0  0  0  0  0  0  0  0  0  0  0
  1  2  1  0
  2  3  1  0
  1  4  2  0
  4  5  1  0
  2  6  2  0
  5  7  2  0
  6  7  1  0
M  END
>  <ID>  (1) 
conformer_0

$$$$
