
     RDKit          3D

 18 19  0  0  0  0  0  0  0  0999 V2000
   29.5154   36.3867  103.5097 N   0  0  0  0  0  0  0  0  0  0  0  0
   28.2729   36.2065  103.3419 C   0  0  0  0  0  0  0  0  0  0  0  0
   27.6994   35.0175  103.7962 C   0  0  0  0  0  0  0  0  0  0  0  0
   28.5100   34.0252  104.3456 C   0  0  0  0  0  0  0  0  0  0  0  0
   26.1652   34.7123  103.8190 C   0  0  0  0  0  0  0  0  0  0  0  0
   25.6126   34.3142  104.6727 N   0  0  0  0  0  0  0  0  0  0  0  0
   29.8866   34.2633  104.4272 N   0  0  0  0  0  0  0  0  0  0  0  0
   30.3910   35.4137  103.9033 C   0  0  0  0  0  0  0  0  0  0  0  0
   25.0982   33.1814  104.8286 N   0  0  0  0  0  0  0  0  0  0  0  0
   31.5413   35.3106  103.8615 O   0  0  0  0  0  0  0  0  0  0  0  0
   24.6134   32.7136  103.8857 C   0  0  0  0  0  0  0  0  0  0  0  0
   23.6064   31.6384  103.8537 C   0  0  0  0  0  0  0  0  0  0  0  0
   25.0738   33.3591  102.5826 C   0  0  0  0  0  0  0  0  0  0  0  0
   26.0579   34.2367  102.4931 N   0  0  0  0  0  0  0  0  0  0  0  0
   26.0061   35.0578  106.1097 C   0  0  0  0  0  0  0  0  0  0  0  0
   25.7199   35.5373  101.5984 C   0  0  0  0  0  0  0  0  0  0  0  0
   24.4956   35.9101  101.4047 C   0  0  0  0  0  0  0  0  0  0  0  0
   25.8178   34.0926  107.2602 C   0  0  0  0  0  0  0  0  0  0  0  0
  1  2  2  0
  2  3  1  0
  3  4  2  0
  3  5  1  0
  5  6  1  0
  4  7  1  0
  1  8  1  0
  7  8  1  0
  6  9  1  0
  8 10  2  0
  9 11  2  0
 11 12  1  0
 11 13  1  0
  5 14  1  0
 13 14  1  0
  6 15  1  0
 14 16  1  0
 16 17  1  0
 15 18  1  0
M  END
>  <ID>  (1) 
conformer_0

$$$$
