
     RDKit          3D

 13 14  0  0  0  0  0  0  0  0999 V2000
   24.9770   36.7043  100.9234 C   0  0  0  0  0  0  0  0  0  0  0  0
   25.7573   35.8542  101.7281 C   0  0  0  0  0  0  0  0  0  0  0  0
   27.1042   35.9402  101.6834 C   0  0  0  0  0  0  0  0  0  0  0  0
   27.6013   35.9481  102.9857 N   0  0  0  0  0  0  0  0  0  0  0  0
   28.8978   35.9290  103.3740 C   0  0  0  0  0  0  0  0  0  0  0  0
   26.7396   35.1348  103.9400 C   0  0  0  0  0  0  0  0  0  0  0  0
   25.4073   35.3405  103.2050 N   0  0  0  0  0  0  0  0  0  0  0  0
   24.1570   34.9544  103.7311 C   0  0  0  0  0  0  0  0  0  0  0  0
   29.4854   36.9799  103.0458 O   0  0  0  0  0  0  0  0  0  0  0  0
   26.9276   34.7491  105.0195 C   0  0  0  0  0  0  0  0  0  0  0  0
   28.2293   34.6818  105.5013 C   0  0  0  0  0  0  0  0  0  0  0  0
   24.9577   36.1340   99.6529 O   0  0  0  0  0  0  0  0  0  0  0  0
   29.2112   35.3748  104.7117 N   0  0  0  0  0  0  0  0  0  0  0  0
  1  2  1  0
  2  3  1  0
  3  4  1  0
  4  5  1  0
  4  6  1  0
  2  7  1  0
  6  7  1  0
  7  8  1  0
  5  9  2  0
  6 10  2  0
 10 11  1  0
  1 12  1  0
  5 13  1  0
 11 13  2  0
M  END
>  <ID>  (1) 
conformer_0

$$$$
