
     RDKit          3D

 18 18  0  0  0  0  0  0  0  0999 V2000
   30.7516   35.3962  103.9125 N   0  0  0  0  0  0  0  0  0  0  0  0
   29.4748   35.6827  103.6414 C   0  0  0  0  0  0  0  0  0  0  0  0
   28.5271   34.6926  103.9780 N   0  0  0  0  0  0  0  0  0  0  0  0
   27.1862   34.9133  103.7271 C   0  0  0  0  0  0  0  0  0  0  0  0
   31.3368   34.3726  104.0553 C   0  0  0  0  0  0  0  0  0  0  0  0
   26.7731   35.6954  102.7896 N   0  0  0  0  0  0  0  0  0  0  0  0
   26.3005   34.2177  104.6855 N   0  0  0  0  0  0  0  0  0  0  0  0
   28.9873   36.6834  102.8898 O   0  0  0  0  0  0  0  0  0  0  0  0
   25.1457   34.3172  104.4612 C   0  0  0  0  0  0  0  0  0  0  0  0
   31.7598   33.5982  102.9213 C   0  0  0  0  0  0  0  0  0  0  0  0
   24.5878   34.8765  103.4566 C   0  0  0  0  0  0  0  0  0  0  0  0
   24.1908   33.5319  105.5675 C   0  0  0  0  0  0  0  0  0  0  0  0
   25.3501   35.5915  102.5857 C   0  0  0  0  0  0  0  0  0  0  0  0
   24.4063   34.0849  106.9406 C   0  0  0  0  0  0  0  0  0  0  0  0
   23.6547   34.5627  107.6209 O   0  0  0  0  0  0  0  0  0  0  0  0
   31.8744   33.9049  105.2459 O   0  0  0  0  0  0  0  0  0  0  0  0
   25.7402   33.9961  107.3537 O   0  0  0  0  0  0  0  0  0  0  0  0
   24.9561   36.3624  101.4111 O   0  0  0  0  0  0  0  0  0  0  0  0
  1  2  1  0
  2  3  1  0
  3  4  1  0
  1  5  1  0
  4  6  2  0
  4  7  1  0
  2  8  2  0
  7  9  1  0
  5 10  1  0
  9 11  2  0
  9 12  1  0
  6 13  1  0
 11 13  1  0
 12 14  1  0
 14 15  2  0
  5 16  2  0
 14 17  1  0
 13 18  2  0
M  END
>  <ID>  (1) 
conformer_0

$$$$
