
     RDKit          3D

 16 17  0  0  0  0  0  0  0  0999 V2000
   29.5154   36.3867  103.5097 N   0  0  0  0  0  0  0  0  0  0  0  0
   28.2729   36.2065  103.3419 C   0  0  0  0  0  0  0  0  0  0  0  0
   27.3793   37.0244  102.7596 O   0  0  0  0  0  0  0  0  0  0  0  0
   27.7264   34.8660  103.7450 C   0  0  0  0  0  0  0  0  0  0  0  0
   26.3747   36.4248  101.9074 N   0  0  0  0  0  0  0  0  0  0  0  0
   26.4178   34.6271  103.3652 C   0  0  0  0  0  0  0  0  0  0  0  0
   25.7302   35.3670  102.4515 C   0  0  0  0  0  0  0  0  0  0  0  0
   28.7926   34.2030  104.3128 C   0  0  0  0  0  0  0  0  0  0  0  0
   25.5841   33.6064  104.0699 C   0  0  0  0  0  0  0  0  0  0  0  0
   30.0479   35.1306  104.0990 C   0  0  0  0  0  0  0  0  0  0  0  0
   31.3362   34.8520  104.4824 C   0  0  0  0  0  0  0  0  0  0  0  0
   31.6797   34.7687  105.6259 O   0  0  0  0  0  0  0  0  0  0  0  0
   31.9360   33.9746  103.4815 O   0  0  0  0  0  0  0  0  0  0  0  0
   25.9163   33.0980  105.2713 O   0  0  0  0  0  0  0  0  0  0  0  0
   24.5170   33.0678  103.5963 O   0  0  0  0  0  0  0  0  0  0  0  0
   25.5743   37.4192  101.2067 O   0  0  0  0  0  0  0  0  0  0  0  0
  1  2  2  0
  2  3  1  0
  2  4  1  0
  3  5  1  0
  4  6  1  0
  5  7  1  0
  6  7  2  0
  4  8  2  0
  6  9  1  0
  1 10  1  0
  8 10  1  0
 10 11  1  0
 11 12  2  0
 11 13  1  0
  9 14  1  0
  9 15  2  0
  5 16  1  0
M  END
>  <ID>  (1) 
conformer_0

$$$$
