
     RDKit          3D

 18 20  0  0  0  0  0  0  0  0999 V2000
   29.1098   36.3151  103.7535 N   0  0  0  0  0  0  0  0  0  0  0  0
   30.1237   35.5355  103.7812 C   0  0  0  0  0  0  0  0  0  0  0  0
   27.8481   35.9168  103.7420 C   0  0  0  0  0  0  0  0  0  0  0  0
   27.9017   34.5944  104.0506 N   0  0  0  0  0  0  0  0  0  0  0  0
   26.7506   33.7004  104.1761 C   0  0  0  0  0  0  0  0  0  0  0  0
   29.2879   34.1954  104.0663 C   0  0  0  0  0  0  0  0  0  0  0  0
   26.7749   36.4472  103.7791 O   0  0  0  0  0  0  0  0  0  0  0  0
   26.0061   33.4956  103.0305 C   0  0  0  0  0  0  0  0  0  0  0  0
   24.5797   33.5843  103.3330 C   0  0  0  0  0  0  0  0  0  0  0  0
   31.4085   35.5270  103.7002 N   0  0  0  0  0  0  0  0  0  0  0  0
   32.0400   34.4477  103.4832 C   0  0  0  0  0  0  0  0  0  0  0  0
   24.4200   33.1004  104.7352 C   0  0  0  0  0  0  0  0  0  0  0  0
   31.4413   33.1772  103.8490 N   0  0  0  0  0  0  0  0  0  0  0  0
   33.2178   34.3215  103.1011 O   0  0  0  0  0  0  0  0  0  0  0  0
   25.7690   34.1455  105.2655 C   0  0  0  0  0  0  0  0  0  0  0  0
   26.0181   33.8151  106.6736 N   0  0  0  0  0  0  0  0  0  0  0  0
   25.4489   34.6337  107.5720 O   0  0  0  0  0  0  0  0  0  0  0  0
   30.2073   33.0013  104.1421 C   0  0  0  0  0  0  0  0  0  0  0  0
  1  2  1  0
  1  3  1  0
  3  4  1  0
  4  5  1  0
  2  6  2  0
  4  6  1  0
  3  7  2  0
  5  8  1  0
  8  9  1  0
  2 10  1  0
 10 11  1  0
  9 12  1  0
 11 13  1  0
 11 14  2  0
  5 15  1  0
 12 15  1  0
 15 16  1  0
 16 17  1  0
  6 18  1  0
 13 18  2  0
M  END
>  <ID>  (1) 
conformer_0

$$$$
