
     RDKit          3D

 19 20  0  0  0  0  0  0  0  0999 V2000
   24.7632   34.8563  108.4781 O   0  0  0  0  0  0  0  0  0  0  0  0
   25.3266   34.0371  107.5176 C   0  0  0  0  0  0  0  0  0  0  0  0
   25.7108   34.4892  106.3328 C   0  0  0  0  0  0  0  0  0  0  0  0
   26.9001   34.3210  105.7929 N   0  0  0  0  0  0  0  0  0  0  0  0
   24.8577   34.8863  105.1530 C   0  0  0  0  0  0  0  0  0  0  0  0
   26.9593   34.7906  104.5148 C   0  0  0  0  0  0  0  0  0  0  0  0
   25.6915   35.1538  104.1365 N   0  0  0  0  0  0  0  0  0  0  0  0
   28.1558   34.8363  103.7549 C   0  0  0  0  0  0  0  0  0  0  0  0
   23.5879   35.0451  105.1874 O   0  0  0  0  0  0  0  0  0  0  0  0
   28.8946   33.8644  103.4410 C   0  0  0  0  0  0  0  0  0  0  0  0
   30.2480   33.9889  103.5806 N   0  0  0  0  0  0  0  0  0  0  0  0
   25.8280   32.9849  108.0506 O   0  0  0  0  0  0  0  0  0  0  0  0
   31.2680   33.1212  103.8341 C   0  0  0  0  0  0  0  0  0  0  0  0
   31.7052   32.4844  102.8690 O   0  0  0  0  0  0  0  0  0  0  0  0
   28.5086   36.2384  103.4090 C   0  0  0  0  0  0  0  0  0  0  0  0
   31.9164   33.4995  105.0943 C   0  0  0  0  0  0  0  0  0  0  0  0
   25.2619   35.6842  102.8372 C   0  0  0  0  0  0  0  0  0  0  0  0
   29.7838   36.2987  103.3230 N   0  0  0  0  0  0  0  0  0  0  0  0
   30.7015   35.4054  103.3288 C   0  0  0  0  0  0  0  0  0  0  0  0
  1  2  2  0
  2  3  1  0
  3  4  2  0
  3  5  1  0
  4  6  1  0
  5  7  1  0
  6  7  1  0
  6  8  2  3
  5  9  2  0
  8 10  1  0
 10 11  1  0
  2 12  1  0
 11 13  1  0
 13 14  2  0
  8 15  1  0
 13 16  1  0
  7 17  1  0
 15 18  1  0
 11 19  1  0
 18 19  2  0
M  END
>  <ID>  (1) 
conformer_0

$$$$
