
     RDKit          3D

 16 17  0  0  0  0  0  0  0  0999 V2000
   29.1098   36.3151  103.7535 N   0  0  0  0  0  0  0  0  0  0  0  0
   27.9221   35.9950  103.5589 C   0  0  0  0  0  0  0  0  0  0  0  0
   30.0580   35.3056  103.9269 C   0  0  0  0  0  0  0  0  0  0  0  0
   31.4273   35.4439  103.9645 N   0  0  0  0  0  0  0  0  0  0  0  0
   26.9633   36.8906  103.3157 O   0  0  0  0  0  0  0  0  0  0  0  0
   29.7173   33.9420  103.8470 C   0  0  0  0  0  0  0  0  0  0  0  0
   32.1144   34.4325  104.6151 C   0  0  0  0  0  0  0  0  0  0  0  0
   27.2674   34.5798  103.5676 C   0  0  0  0  0  0  0  0  0  0  0  0
   25.8905   34.2740  103.4176 C   0  0  0  0  0  0  0  0  0  0  0  0
   31.7281   33.1573  103.8042 C   0  0  0  0  0  0  0  0  0  0  0  0
   25.3646   33.2719  104.0450 N   0  0  0  0  0  0  0  0  0  0  0  0
   24.9241   35.2791  103.4766 O   0  0  0  0  0  0  0  0  0  0  0  0
   28.1995   33.6263  103.6128 C   0  0  0  0  0  0  0  0  0  0  0  0
   30.4474   32.8326  103.7649 C   0  0  0  0  0  0  0  0  0  0  0  0
   24.2228   32.7149  103.8547 C   0  0  0  0  0  0  0  0  0  0  0  0
   24.1517   31.2710  103.9880 C   0  0  0  0  0  0  0  0  0  0  0  0
  1  2  1  0
  1  3  2  0
  3  4  1  0
  2  5  2  0
  3  6  1  0
  4  7  1  0
  2  8  1  0
  8  9  1  0
  7 10  1  0
  9 11  1  0
  9 12  1  0
  6 13  2  0
  8 13  2  0
  6 14  1  0
 10 14  1  0
 11 15  1  0
 15 16  1  0
M  END
>  <ID>  (1) 
conformer_0

$$$$
