
     RDKit          3D

 15 15  0  0  0  0  0  0  0  0999 V2000
   32.3531   34.0049  104.8246 C   0  0  0  0  0  0  0  0  0  0  0  0
   31.3405   34.1357  103.7830 C   0  0  0  0  0  0  0  0  0  0  0  0
   30.1637   34.8206  104.0664 N   0  0  0  0  0  0  0  0  0  0  0  0
   29.0077   34.0168  104.2805 C   0  0  0  0  0  0  0  0  0  0  0  0
   29.8852   36.0804  103.4876 C   0  0  0  0  0  0  0  0  0  0  0  0
   27.7730   34.5870  104.3745 C   0  0  0  0  0  0  0  0  0  0  0  0
   27.7602   36.0674  103.9067 C   0  0  0  0  0  0  0  0  0  0  0  0
   26.4480   34.0714  104.6684 C   0  0  0  0  0  0  0  0  0  0  0  0
   31.6956   33.7141  102.5911 C   0  0  0  0  0  0  0  0  0  0  0  0
   25.8073   34.5794  105.7547 C   0  0  0  0  0  0  0  0  0  0  0  0
   26.1493   34.3107  106.9053 O   0  0  0  0  0  0  0  0  0  0  0  0
   25.5009   33.7453  103.6026 C   0  0  0  0  0  0  0  0  0  0  0  0
   24.4277   34.6040  105.5304 O   0  0  0  0  0  0  0  0  0  0  0  0
   28.9398   36.6416  103.5586 N   0  0  0  0  0  0  0  0  0  0  0  0
   24.3406   33.2211  103.6439 O   0  0  0  0  0  0  0  0  0  0  0  0
  1  2  1  0
  2  3  1  0
  3  4  1  0
  3  5  1  0
  4  6  2  0
  6  7  1  0
  6  8  1  0
  2  9  2  0
  8 10  1  0
 10 11  1  0
  8 12  1  0
 10 13  2  0
  5 14  2  0
  7 14  1  0
 12 15  1  0
M  END
>  <ID>  (1) 
conformer_0

$$$$
