
     RDKit          3D

 17 17  0  0  0  0  0  0  0  0999 V2000
   32.3531   34.0049  104.8246 C   0  0  0  0  0  0  0  0  0  0  0  0
   31.3405   34.1357  103.7830 C   0  0  0  0  0  0  0  0  0  0  0  0
   30.1637   34.8206  104.0664 N   0  0  0  0  0  0  0  0  0  0  0  0
   29.0077   34.0168  104.2805 C   0  0  0  0  0  0  0  0  0  0  0  0
   29.8852   36.0804  103.4876 C   0  0  0  0  0  0  0  0  0  0  0  0
   27.7730   34.5870  104.3745 C   0  0  0  0  0  0  0  0  0  0  0  0
   27.7602   36.0674  103.9067 C   0  0  0  0  0  0  0  0  0  0  0  0
   26.4480   34.0714  104.6684 C   0  0  0  0  0  0  0  0  0  0  0  0
   31.6956   33.7141  102.5911 C   0  0  0  0  0  0  0  0  0  0  0  0
   25.8073   34.5794  105.7547 C   0  0  0  0  0  0  0  0  0  0  0  0
   25.4475   33.9069  103.4892 C   0  0  0  0  0  0  0  0  0  0  0  0
   28.7748   36.7145  103.5531 N   0  0  0  0  0  0  0  0  0  0  0  0
   24.6955   35.1737  105.4055 O   0  0  0  0  0  0  0  0  0  0  0  0
   25.5656   34.6980  102.5623 O   0  0  0  0  0  0  0  0  0  0  0  0
   24.9068   32.7345  103.2628 N   0  0  0  0  0  0  0  0  0  0  0  0
   30.8275   36.8875  103.2360 O   0  0  0  0  0  0  0  0  0  0  0  0
   26.0822   34.2997  106.9886 O   0  0  0  0  0  0  0  0  0  0  0  0
  1  2  1  0
  2  3  1  0
  3  4  1  0
  3  5  1  0
  4  6  2  0
  6  7  1  0
  6  8  1  0
  2  9  2  0
  8 10  1  0
  8 11  1  0
  5 12  1  0
  7 12  1  0
 10 13  2  0
 11 14  2  0
 11 15  1  0
  5 16  2  0
 10 17  1  0
M  END
>  <ID>  (1) 
conformer_0

$$$$
