
     RDKit          3D

 13 13  0  0  0  0  0  0  0  0999 V2000
   28.4343   36.6807  102.9796 O   0  0  0  0  0  0  0  0  0  0  0  0
   29.2069   35.7599  103.5511 C   0  0  0  0  0  0  0  0  0  0  0  0
   30.5459   35.7990  103.5034 N   0  0  0  0  0  0  0  0  0  0  0  0
   28.5351   34.6398  104.1797 C   0  0  0  0  0  0  0  0  0  0  0  0
   31.3194   34.7923  104.0417 C   0  0  0  0  0  0  0  0  0  0  0  0
   26.9815   34.5481  104.2519 C   0  0  0  0  0  0  0  0  0  0  0  0
   26.3491   34.1381  103.1411 C   0  0  0  0  0  0  0  0  0  0  0  0
   26.2368   35.1787  105.1721 C   0  0  0  0  0  0  0  0  0  0  0  0
   25.0346   33.9712  103.0426 C   0  0  0  0  0  0  0  0  0  0  0  0
   24.8694   35.0235  105.2075 C   0  0  0  0  0  0  0  0  0  0  0  0
   31.6129   34.6159  105.2519 O   0  0  0  0  0  0  0  0  0  0  0  0
   32.0675   34.1200  103.0074 O   0  0  0  0  0  0  0  0  0  0  0  0
   24.2274   34.4388  104.1485 C   0  0  0  0  0  0  0  0  0  0  0  0
  1  2  2  0
  2  3  1  0
  2  4  1  0
  3  5  1  0
  4  6  1  0
  6  7  2  0
  6  8  1  0
  7  9  1  0
  8 10  2  0
  5 11  2  0
  5 12  1  0
  9 13  2  0
 10 13  1  0
M  END
>  <ID>  (1) 
conformer_0

$$$$
