
     RDKit          3D

 18 19  0  0  0  0  0  0  0  0999 V2000
   29.3156   36.5825  103.5551 N   0  0  0  0  0  0  0  0  0  0  0  0
   28.1309   36.2166  103.4038 C   0  0  0  0  0  0  0  0  0  0  0  0
   27.6237   34.9683  103.7918 C   0  0  0  0  0  0  0  0  0  0  0  0
   28.5511   34.0018  104.2010 C   0  0  0  0  0  0  0  0  0  0  0  0
   30.1595   35.3612  103.9525 C   0  0  0  0  0  0  0  0  0  0  0  0
   26.1567   34.6744  103.6892 C   0  0  0  0  0  0  0  0  0  0  0  0
   29.8099   34.2604  104.2133 C   0  0  0  0  0  0  0  0  0  0  0  0
   31.4747   35.5962  103.9001 O   0  0  0  0  0  0  0  0  0  0  0  0
   30.8751   33.1264  104.2772 C   0  0  0  0  0  0  0  0  0  0  0  0
   25.5717   35.0485  102.7304 O   0  0  0  0  0  0  0  0  0  0  0  0
   31.6376   33.0028  103.0631 O   0  0  0  0  0  0  0  0  0  0  0  0
   32.0010   34.0357  102.4453 C   0  0  0  0  0  0  0  0  0  0  0  0
   25.5101   34.3422  104.8074 N   0  0  0  0  0  0  0  0  0  0  0  0
   26.1548   34.0264  106.0751 C   0  0  0  0  0  0  0  0  0  0  0  0
   25.3738   33.8199  107.1135 C   0  0  0  0  0  0  0  0  0  0  0  0
   24.0972   34.5897  104.9353 C   0  0  0  0  0  0  0  0  0  0  0  0
   24.0239   34.2375  107.1145 N   0  0  0  0  0  0  0  0  0  0  0  0
   23.4872   33.7041  105.8944 C   0  0  0  0  0  0  0  0  0  0  0  0
  1  2  2  0
  2  3  1  0
  3  4  2  0
  1  5  1  0
  3  6  1  0
  4  7  1  0
  5  7  1  0
  5  8  2  0
  7  9  1  0
  6 10  2  0
  9 11  1  0
 11 12  1  0
  6 13  1  0
 13 14  1  0
 14 15  1  0
 13 16  1  0
 15 17  1  0
 16 18  1  0
 17 18  1  0
M  END
>  <ID>  (1) 
conformer_0

$$$$
