
     RDKit          3D

 16 16  0  0  0  0  0  0  0  0999 V2000
   29.5154   36.3867  103.5097 N   0  0  0  0  0  0  0  0  0  0  0  0
   28.2729   36.2065  103.3419 C   0  0  0  0  0  0  0  0  0  0  0  0
   27.6994   35.0175  103.7962 C   0  0  0  0  0  0  0  0  0  0  0  0
   28.5100   34.0252  104.3456 C   0  0  0  0  0  0  0  0  0  0  0  0
   26.1652   34.7123  103.8190 C   0  0  0  0  0  0  0  0  0  0  0  0
   25.6126   34.3142  104.6727 N   0  0  0  0  0  0  0  0  0  0  0  0
   29.8866   34.2633  104.4272 N   0  0  0  0  0  0  0  0  0  0  0  0
   30.3910   35.4137  103.9033 C   0  0  0  0  0  0  0  0  0  0  0  0
   31.7077   35.2713  103.8901 N   0  0  0  0  0  0  0  0  0  0  0  0
   25.6597   34.6498  102.5394 O   0  0  0  0  0  0  0  0  0  0  0  0
   24.1448   34.0443  104.7458 C   0  0  0  0  0  0  0  0  0  0  0  0
   23.4804   34.6629  105.9152 C   0  0  0  0  0  0  0  0  0  0  0  0
   23.9285   32.6412  104.5242 C   0  0  0  0  0  0  0  0  0  0  0  0
   22.3352   35.1406  105.7756 O   0  0  0  0  0  0  0  0  0  0  0  0
   32.4161   34.4129  102.9646 C   0  0  0  0  0  0  0  0  0  0  0  0
   23.9812   34.5984  107.0886 N   0  0  0  0  0  0  0  0  0  0  0  0
  1  2  2  0
  2  3  1  0
  3  4  2  0
  3  5  1  0
  5  6  1  0
  4  7  1  0
  1  8  1  0
  7  8  2  0
  8  9  1  0
  5 10  2  0
  6 11  1  0
 11 12  1  0
 11 13  1  0
 12 14  2  0
  9 15  1  0
 12 16  1  0
M  END
>  <ID>  (1) 
conformer_0

$$$$
