
     RDKit          3D

 19 21  0  0  0  0  0  0  0  0999 V2000
   29.3807   36.7564  103.4349 O   0  0  0  0  0  0  0  0  0  0  0  0
   29.1990   35.4802  103.5830 C   0  0  0  0  0  0  0  0  0  0  0  0
   30.1986   34.5065  103.8398 N   0  0  0  0  0  0  0  0  0  0  0  0
   31.0154   34.1695  102.8839 C   0  0  0  0  0  0  0  0  0  0  0  0
   32.2739   33.6272  103.4048 C   0  0  0  0  0  0  0  0  0  0  0  0
   27.8104   35.1629  103.9576 C   0  0  0  0  0  0  0  0  0  0  0  0
   30.8224   34.4801  105.0995 C   0  0  0  0  0  0  0  0  0  0  0  0
   30.4237   33.1621  102.0225 O   0  0  0  0  0  0  0  0  0  0  0  0
   27.3767   34.3417  104.9149 C   0  0  0  0  0  0  0  0  0  0  0  0
   26.8765   35.5838  103.0085 C   0  0  0  0  0  0  0  0  0  0  0  0
   32.1988   34.0321  104.8239 C   0  0  0  0  0  0  0  0  0  0  0  0
   25.9801   34.2636  104.9676 C   0  0  0  0  0  0  0  0  0  0  0  0
   27.1530   36.3208  101.7191 O   0  0  0  0  0  0  0  0  0  0  0  0
   25.5867   33.4343  106.2653 O   0  0  0  0  0  0  0  0  0  0  0  0
   25.4687   35.2210  103.0565 C   0  0  0  0  0  0  0  0  0  0  0  0
   25.0800   34.5644  104.1195 C   0  0  0  0  0  0  0  0  0  0  0  0
   25.9241   34.0792  107.4238 C   0  0  0  0  0  0  0  0  0  0  0  0
   24.6129   35.8414  101.8829 C   0  0  0  0  0  0  0  0  0  0  0  0
   25.5941   36.4660  101.0149 C   0  0  0  0  0  0  0  0  0  0  0  0
  1  2  2  0
  2  3  1  0
  3  4  1  0
  4  5  1  0
  2  6  1  0
  3  7  1  0
  4  8  1  0
  6  9  1  0
  6 10  2  0
  5 11  1  0
  7 11  1  0
  9 12  2  0
 10 13  1  0
 12 14  1  0
 10 15  1  0
 12 16  1  0
 15 16  2  0
 14 17  1  0
 15 18  1  0
 13 19  1  0
 18 19  1  0
M  END
>  <ID>  (1) 
conformer_0

$$$$
