
     RDKit          3D

 18 19  0  0  0  0  0  0  0  0999 V2000
   30.7516   35.3962  103.9125 C   0  0  0  0  0  0  0  0  0  0  0  0
   31.5277   34.4538  104.0643 N   0  0  0  0  0  0  0  0  0  0  0  0
   31.8982   33.5120  103.1091 C   0  0  0  0  0  0  0  0  0  0  0  0
   29.3043   35.0895  104.0367 C   0  0  0  0  0  0  0  0  0  0  0  0
   28.3298   35.9710  103.4859 C   0  0  0  0  0  0  0  0  0  0  0  0
   26.9871   35.6276  103.4090 N   0  0  0  0  0  0  0  0  0  0  0  0
   26.2717   35.9797  102.2020 C   0  0  0  0  0  0  0  0  0  0  0  0
   32.1600   34.1800  105.3852 C   0  0  0  0  0  0  0  0  0  0  0  0
   26.3398   34.7600  104.3396 C   0  0  0  0  0  0  0  0  0  0  0  0
   25.1234   34.3993  104.1708 C   0  0  0  0  0  0  0  0  0  0  0  0
   28.6956   36.9626  102.8313 O   0  0  0  0  0  0  0  0  0  0  0  0
   27.0521   34.4039  105.5517 C   0  0  0  0  0  0  0  0  0  0  0  0
   26.3757   34.1918  106.6863 C   0  0  0  0  0  0  0  0  0  0  0  0
   24.2967   34.5705  102.8868 C   0  0  0  0  0  0  0  0  0  0  0  0
   24.3771   34.0209  105.4095 C   0  0  0  0  0  0  0  0  0  0  0  0
   26.9697   33.8983  107.8244 O   0  0  0  0  0  0  0  0  0  0  0  0
   24.9944   33.8179  106.5448 C   0  0  0  0  0  0  0  0  0  0  0  0
   24.8948   35.9347  102.2150 C   0  0  0  0  0  0  0  0  0  0  0  0
  1  2  1  0
  2  3  1  0
  1  4  1  0
  4  5  1  0
  5  6  1  0
  6  7  1  0
  2  8  1  0
  6  9  1  0
  9 10  2  0
  5 11  2  0
  9 12  1  0
 12 13  2  0
 10 14  1  0
 10 15  1  0
 13 16  1  0
 13 17  1  0
 15 17  2  0
  7 18  1  0
 14 18  1  0
M  END
>  <ID>  (1) 
conformer_0

$$$$
