
     RDKit          3D

 18 19  0  0  0  0  0  0  0  0999 V2000
   24.7632   34.8563  108.4781 O   0  0  0  0  0  0  0  0  0  0  0  0
   25.3266   34.0371  107.5176 C   0  0  0  0  0  0  0  0  0  0  0  0
   25.7108   34.4892  106.3328 C   0  0  0  0  0  0  0  0  0  0  0  0
   26.9001   34.3210  105.7929 N   0  0  0  0  0  0  0  0  0  0  0  0
   24.8577   34.8863  105.1530 C   0  0  0  0  0  0  0  0  0  0  0  0
   26.9593   34.7906  104.5148 C   0  0  0  0  0  0  0  0  0  0  0  0
   25.6915   35.1538  104.1365 N   0  0  0  0  0  0  0  0  0  0  0  0
   28.1558   34.8363  103.7549 C   0  0  0  0  0  0  0  0  0  0  0  0
   23.5879   35.0451  105.1874 O   0  0  0  0  0  0  0  0  0  0  0  0
   28.8946   33.8644  103.4410 C   0  0  0  0  0  0  0  0  0  0  0  0
   25.2375   35.6926  102.8438 C   0  0  0  0  0  0  0  0  0  0  0  0
   28.4620   36.1855  103.2317 C   0  0  0  0  0  0  0  0  0  0  0  0
   29.7597   36.4224  102.8210 N   0  0  0  0  0  0  0  0  0  0  0  0
   27.6274   37.0941  103.1201 O   0  0  0  0  0  0  0  0  0  0  0  0
   30.7243   35.3559  103.0428 C   0  0  0  0  0  0  0  0  0  0  0  0
   30.2679   34.0466  103.1698 N   0  0  0  0  0  0  0  0  0  0  0  0
   25.4566   32.8440  107.9020 O   0  0  0  0  0  0  0  0  0  0  0  0
   31.9666   35.5024  102.7082 N   0  0  0  0  0  0  0  0  0  0  0  0
  1  2  2  0
  2  3  1  0
  3  4  2  0
  3  5  1  0
  4  6  1  0
  5  7  1  0
  6  7  1  0
  6  8  2  3
  5  9  2  0
  8 10  1  0
  7 11  1  0
  8 12  1  0
 12 13  1  0
 12 14  2  0
 13 15  2  0
 10 16  2  0
 15 16  1  0
  2 17  1  0
 15 18  1  0
M  END
>  <ID>  (1) 
conformer_0

$$$$
