
     RDKit          3D

 17 18  0  0  0  0  0  0  0  0999 V2000
   29.5953   36.3975  103.5472 N   0  0  0  0  0  0  0  0  0  0  0  0
   30.3462   35.3832  103.7704 C   0  0  0  0  0  0  0  0  0  0  0  0
   28.2158   36.1117  103.4048 C   0  0  0  0  0  0  0  0  0  0  0  0
   29.8988   34.2791  103.8423 C   0  0  0  0  0  0  0  0  0  0  0  0
   30.9434   33.1014  104.0684 C   0  0  0  0  0  0  0  0  0  0  0  0
   27.6805   34.9037  103.5939 N   0  0  0  0  0  0  0  0  0  0  0  0
   26.2645   34.6771  103.5098 C   0  0  0  0  0  0  0  0  0  0  0  0
   31.7720   35.3830  103.7585 N   0  0  0  0  0  0  0  0  0  0  0  0
   32.0069   33.7944  104.0903 C   0  0  0  0  0  0  0  0  0  0  0  0
   25.8283   33.7468  104.3605 N   0  0  0  0  0  0  0  0  0  0  0  0
   25.3379   34.1609  105.5958 C   0  0  0  0  0  0  0  0  0  0  0  0
   28.4490   33.8646  103.8185 C   0  0  0  0  0  0  0  0  0  0  0  0
   24.2941   34.8353  105.6800 O   0  0  0  0  0  0  0  0  0  0  0  0
   26.2080   34.1249  106.7637 C   0  0  0  0  0  0  0  0  0  0  0  0
   27.0831   33.4172  106.9893 O   0  0  0  0  0  0  0  0  0  0  0  0
   25.6626   34.8131  107.8890 O   0  0  0  0  0  0  0  0  0  0  0  0
   25.5631   35.3023  102.5550 O   0  0  0  0  0  0  0  0  0  0  0  0
  1  2  1  0
  1  3  2  0
  2  4  2  0
  4  5  1  0
  3  6  1  0
  6  7  1  0
  2  8  1  0
  5  9  2  0
  8  9  1  0
  7 10  1  0
 10 11  1  0
  4 12  1  0
  6 12  1  0
 11 13  2  0
 11 14  1  0
 14 15  2  0
 14 16  1  0
  7 17  2  0
M  END
>  <ID>  (1) 
conformer_0

$$$$
