
     RDKit          3D

 19 22  0  0  0  0  0  0  0  0999 V2000
   29.5953   36.3975  103.5472 N   0  0  0  0  0  0  0  0  0  0  0  0
   30.3462   35.3832  103.7704 C   0  0  0  0  0  0  0  0  0  0  0  0
   28.2158   36.1117  103.4048 C   0  0  0  0  0  0  0  0  0  0  0  0
   29.8988   34.2791  103.8423 C   0  0  0  0  0  0  0  0  0  0  0  0
   27.2677   37.0175  103.1306 O   0  0  0  0  0  0  0  0  0  0  0  0
   31.7760   35.5270  103.8506 N   0  0  0  0  0  0  0  0  0  0  0  0
   26.1790   36.4625  102.5814 C   0  0  0  0  0  0  0  0  0  0  0  0
   27.8296   34.7224  103.6685 C   0  0  0  0  0  0  0  0  0  0  0  0
   32.4145   34.3291  103.9716 C   0  0  0  0  0  0  0  0  0  0  0  0
   28.5969   33.8143  103.8128 C   0  0  0  0  0  0  0  0  0  0  0  0
   30.7986   32.9867  104.0660 C   0  0  0  0  0  0  0  0  0  0  0  0
   26.2762   34.8381  103.6845 C   0  0  0  0  0  0  0  0  0  0  0  0
   25.8535   34.9563  105.0220 C   0  0  0  0  0  0  0  0  0  0  0  0
   31.9949   33.1888  103.9993 C   0  0  0  0  0  0  0  0  0  0  0  0
   25.4299   33.8866  103.0123 C   0  0  0  0  0  0  0  0  0  0  0  0
   25.0291   37.0429  102.9285 C   0  0  0  0  0  0  0  0  0  0  0  0
   24.6926   34.1929  105.1927 N   0  0  0  0  0  0  0  0  0  0  0  0
   24.5746   33.4501  104.0742 N   0  0  0  0  0  0  0  0  0  0  0  0
   26.2286   36.1141  101.2093 C   0  0  0  0  0  0  0  0  0  0  0  0
  1  2  1  0
  1  3  2  0
  2  4  2  0
  3  5  1  0
  2  6  1  0
  5  7  1  0
  3  8  1  0
  6  9  2  0
  4 10  1  0
  8 10  2  0
  4 11  1  0
  7 12  1  0
  8 12  1  0
 12 13  1  0
  9 14  1  0
 11 14  2  0
 12 15  1  0
  7 16  1  0
 13 17  2  0
 15 18  2  0
 17 18  1  0
  7 19  1  0
M  END
>  <ID>  (1) 
conformer_0

$$$$
