
     RDKit          3D

 10 11  0  0  0  0  0  0  0  0999 V2000
   30.3892   36.0543  103.3511 N   0  0  0  0  0  0  0  0  0  0  0  0
   30.8790   34.8243  103.6527 C   0  0  0  0  0  0  0  0  0  0  0  0
   32.1758   34.4558  103.3423 N   0  0  0  0  0  0  0  0  0  0  0  0
   30.4195   34.0087  104.6427 C   0  0  0  0  0  0  0  0  0  0  0  0
   29.0370   36.0245  103.8444 C   0  0  0  0  0  0  0  0  0  0  0  0
   31.2058   32.8559  104.9166 C   0  0  0  0  0  0  0  0  0  0  0  0
   29.0839   34.4041  105.0622 C   0  0  0  0  0  0  0  0  0  0  0  0
   28.3689   35.3620  104.6167 N   0  0  0  0  0  0  0  0  0  0  0  0
   32.8741   34.4796  102.2879 C   0  0  0  0  0  0  0  0  0  0  0  0
   32.2673   33.1348  104.1032 C   0  0  0  0  0  0  0  0  0  0  0  0
  1  2  1  0
  2  3  1  0
  2  4  2  0
  1  5  2  0
  4  6  1  0
  4  7  1  0
  5  8  1  0
  7  8  2  0
  3  9  1  0
  3 10  1  0
  6 10  2  0
M  END
>  <ID>  (1) 
conformer_0

$$$$
