
     RDKit          3D

 15 15  0  0  0  0  0  0  0  0999 V2000
   29.5154   36.3867  103.5097 N   0  0  0  0  0  0  0  0  0  0  0  0
   28.2729   36.2065  103.3419 C   0  0  0  0  0  0  0  0  0  0  0  0
   27.6994   35.0175  103.7962 C   0  0  0  0  0  0  0  0  0  0  0  0
   28.5100   34.0252  104.3456 C   0  0  0  0  0  0  0  0  0  0  0  0
   26.1652   34.7123  103.8190 C   0  0  0  0  0  0  0  0  0  0  0  0
   25.6126   34.3142  104.6727 N   0  0  0  0  0  0  0  0  0  0  0  0
   29.8866   34.2633  104.4272 N   0  0  0  0  0  0  0  0  0  0  0  0
   30.3910   35.4137  103.9033 C   0  0  0  0  0  0  0  0  0  0  0  0
   31.6496   35.5272  103.9467 O   0  0  0  0  0  0  0  0  0  0  0  0
   25.1217   33.1564  104.8164 N   0  0  0  0  0  0  0  0  0  0  0  0
   24.5167   32.7231  105.8220 O   0  0  0  0  0  0  0  0  0  0  0  0
   25.7962   34.7165  102.4180 O   0  0  0  0  0  0  0  0  0  0  0  0
   30.8867   33.1730  104.9117 C   0  0  0  0  0  0  0  0  0  0  0  0
   31.9298   33.1117  103.8845 C   0  0  0  0  0  0  0  0  0  0  0  0
   25.1690   32.2060  103.9599 O   0  0  0  0  0  0  0  0  0  0  0  0
  1  2  2  0
  2  3  1  0
  3  4  2  0
  3  5  1  0
  5  6  1  0
  4  7  1  0
  1  8  1  0
  7  8  1  0
  8  9  2  0
  6 10  1  0
 10 11  1  0
  5 12  2  0
  7 13  1  0
 13 14  1  0
 10 15  2  0
M  CHG  2  10   1  11  -1
M  END
>  <ID>  (1) 
conformer_0

$$$$
