
     RDKit          3D

 17 19  0  0  0  0  0  0  0  0999 V2000
   29.5154   36.3867  103.5097 N   0  0  0  0  0  0  0  0  0  0  0  0
   29.4346   35.1449  103.8033 C   0  0  0  0  0  0  0  0  0  0  0  0
   30.4251   34.3302  104.1092 N   0  0  0  0  0  0  0  0  0  0  0  0
   28.1260   34.6772  103.9194 C   0  0  0  0  0  0  0  0  0  0  0  0
   31.2683   34.3168  104.9453 C   0  0  0  0  0  0  0  0  0  0  0  0
   27.6007   33.4858  104.3213 N   0  0  0  0  0  0  0  0  0  0  0  0
   26.4651   33.2484  103.7889 C   0  0  0  0  0  0  0  0  0  0  0  0
   25.7604   32.0035  104.1211 C   0  0  0  0  0  0  0  0  0  0  0  0
   31.1718   34.5676  106.0675 O   0  0  0  0  0  0  0  0  0  0  0  0
   27.4015   35.8239  103.4098 N   0  0  0  0  0  0  0  0  0  0  0  0
   32.7251   33.9925  104.3693 N   0  0  0  0  0  0  0  0  0  0  0  0
   24.2365   32.0002  103.9886 C   0  0  0  0  0  0  0  0  0  0  0  0
   25.6574   34.3556  103.1666 C   0  0  0  0  0  0  0  0  0  0  0  0
   26.2377   35.6606  103.1739 N   0  0  0  0  0  0  0  0  0  0  0  0
   24.2340   34.2133  103.0163 C   0  0  0  0  0  0  0  0  0  0  0  0
   28.2782   36.7770  103.2612 N   0  0  0  0  0  0  0  0  0  0  0  0
   23.5841   33.0154  103.3454 C   0  0  0  0  0  0  0  0  0  0  0  0
  1  2  1  0
  2  3  1  0
  2  4  2  0
  3  5  1  0
  4  6  1  0
  6  7  2  0
  7  8  1  0
  5  9  2  0
  4 10  1  0
  5 11  1  0
  8 12  2  0
  7 13  1  0
 10 14  1  0
 13 14  1  0
 13 15  1  0
  1 16  2  0
 10 16  1  0
 12 17  1  0
 15 17  2  0
M  END
>  <ID>  (1) 
conformer_0

$$$$
