
     RDKit          3D

 15 16  0  0  0  0  0  0  0  0999 V2000
   29.5953   36.3975  103.5472 N   0  0  0  0  0  0  0  0  0  0  0  0
   29.4903   35.1363  103.8119 C   0  0  0  0  0  0  0  0  0  0  0  0
   28.3768   36.9254  103.3493 N   0  0  0  0  0  0  0  0  0  0  0  0
   28.2849   34.6017  103.6809 C   0  0  0  0  0  0  0  0  0  0  0  0
   27.7383   33.3094  103.7649 C   0  0  0  0  0  0  0  0  0  0  0  0
   27.5236   35.8193  103.4616 C   0  0  0  0  0  0  0  0  0  0  0  0
   26.3141   33.2645  103.5250 C   0  0  0  0  0  0  0  0  0  0  0  0
   30.8069   34.2966  103.9786 C   0  0  0  0  0  0  0  0  0  0  0  0
   25.6438   32.0202  103.6543 F   0  0  0  0  0  0  0  0  0  0  0  0
   31.4233   33.7586  102.8993 C   0  0  0  0  0  0  0  0  0  0  0  0
   31.5742   34.6173  105.0268 C   0  0  0  0  0  0  0  0  0  0  0  0
   26.1560   35.6824  103.3116 N   0  0  0  0  0  0  0  0  0  0  0  0
   25.5377   34.4720  103.3657 C   0  0  0  0  0  0  0  0  0  0  0  0
   31.4301   34.2676  101.7729 O   0  0  0  0  0  0  0  0  0  0  0  0
   32.2796   32.7402  103.0649 O   0  0  0  0  0  0  0  0  0  0  0  0
  1  2  1  0
  1  3  2  0
  2  4  2  0
  4  5  1  0
  3  6  1  0
  4  6  1  0
  5  7  2  0
  2  8  1  0
  7  9  1  0
  8 10  1  0
  8 11  1  0
  6 12  1  0
  7 13  1  0
 12 13  2  0
 10 14  2  0
 10 15  1  0
M  END
>  <ID>  (1) 
conformer_0

$$$$
