
     RDKit          3D

 19 21  0  0  0  0  0  0  0  0999 V2000
   29.5154   36.3867  103.5097 N   0  0  0  0  0  0  0  0  0  0  0  0
   28.2729   36.2065  103.3419 C   0  0  0  0  0  0  0  0  0  0  0  0
   27.6994   35.0175  103.7962 C   0  0  0  0  0  0  0  0  0  0  0  0
   28.5100   34.0252  104.3456 C   0  0  0  0  0  0  0  0  0  0  0  0
   26.1652   34.7123  103.8190 C   0  0  0  0  0  0  0  0  0  0  0  0
   25.6126   34.3142  104.6727 N   0  0  0  0  0  0  0  0  0  0  0  0
   29.8866   34.2633  104.4272 N   0  0  0  0  0  0  0  0  0  0  0  0
   30.3910   35.4137  103.9033 C   0  0  0  0  0  0  0  0  0  0  0  0
   31.7221   35.3988  103.9158 N   0  0  0  0  0  0  0  0  0  0  0  0
   25.0932   33.1702  104.8200 N   0  0  0  0  0  0  0  0  0  0  0  0
   24.6353   32.7086  103.7911 C   0  0  0  0  0  0  0  0  0  0  0  0
   25.8090   35.1544  106.0484 C   0  0  0  0  0  0  0  0  0  0  0  0
   23.7411   31.5490  103.7397 C   0  0  0  0  0  0  0  0  0  0  0  0
   30.9463   33.3998  104.7322 C   0  0  0  0  0  0  0  0  0  0  0  0
   26.0551   34.4221  107.2201 C   0  0  0  0  0  0  0  0  0  0  0  0
   25.6410   33.9545  102.6899 C   0  0  0  0  0  0  0  0  0  0  0  0
   32.0975   34.0095  104.2090 C   0  0  0  0  0  0  0  0  0  0  0  0
   25.3324   34.6440  108.2380 O   0  0  0  0  0  0  0  0  0  0  0  0
   26.7552   33.2826  107.2660 O   0  0  0  0  0  0  0  0  0  0  0  0
  1  2  2  0
  2  3  1  0
  3  4  2  0
  3  5  1  0
  5  6  1  0
  4  7  1  0
  1  8  1  0
  7  8  1  0
  8  9  2  0
  6 10  1  0
 10 11  2  0
  6 12  1  0
 11 13  1  0
  7 14  1  0
 12 15  1  0
  5 16  1  0
 11 16  1  0
  9 17  1  0
 14 17  2  0
 15 18  1  0
 15 19  2  0
M  END
>  <ID>  (1) 
conformer_0

$$$$
