
     RDKit          3D

 14 15  0  0  0  0  0  0  0  0999 V2000
   29.5154   36.3867  103.5097 N   0  0  0  0  0  0  0  0  0  0  0  0
   29.4346   35.1449  103.8033 C   0  0  0  0  0  0  0  0  0  0  0  0
   30.4251   34.3302  104.1092 N   0  0  0  0  0  0  0  0  0  0  0  0
   28.1260   34.6772  103.9194 C   0  0  0  0  0  0  0  0  0  0  0  0
   31.2683   34.3168  104.9453 C   0  0  0  0  0  0  0  0  0  0  0  0
   30.5444   33.2365  103.0216 C   0  0  0  0  0  0  0  0  0  0  0  0
   28.2738   36.8832  103.2807 N   0  0  0  0  0  0  0  0  0  0  0  0
   32.5985   34.1386  104.5787 O   0  0  0  0  0  0  0  0  0  0  0  0
   27.4020   35.8801  103.5806 C   0  0  0  0  0  0  0  0  0  0  0  0
   27.4122   33.4514  103.9923 C   0  0  0  0  0  0  0  0  0  0  0  0
   26.0597   33.4674  103.8986 C   0  0  0  0  0  0  0  0  0  0  0  0
   31.6917   33.5197  102.1167 O   0  0  0  0  0  0  0  0  0  0  0  0
   25.3640   34.6504  103.5756 C   0  0  0  0  0  0  0  0  0  0  0  0
   26.0647   35.8762  103.3357 N   0  0  0  0  0  0  0  0  0  0  0  0
  1  2  1  0
  2  3  1  0
  2  4  2  0
  3  5  1  0
  3  6  1  0
  1  7  2  0
  5  8  1  0
  4  9  1  0
  7  9  1  0
  4 10  1  0
 10 11  2  0
  6 12  1  0
 11 13  1  0
  9 14  2  0
 13 14  1  0
M  END
>  <ID>  (1) 
conformer_0

$$$$
