
     RDKit          3D

 19 21  0  0  0  0  0  0  0  0999 V2000
   29.1098   36.3151  103.7535 N   0  0  0  0  0  0  0  0  0  0  0  0
   27.9221   35.9950  103.5589 C   0  0  0  0  0  0  0  0  0  0  0  0
   30.2234   35.5658  103.8896 C   0  0  0  0  0  0  0  0  0  0  0  0
   31.3925   35.7689  103.7844 N   0  0  0  0  0  0  0  0  0  0  0  0
   27.5647   34.5903  103.7362 N   0  0  0  0  0  0  0  0  0  0  0  0
   28.5920   33.6824  103.9445 C   0  0  0  0  0  0  0  0  0  0  0  0
   26.1587   34.1884  103.4976 C   0  0  0  0  0  0  0  0  0  0  0  0
   25.6371   33.5536  104.6819 N   0  0  0  0  0  0  0  0  0  0  0  0
   32.2292   34.7095  103.9756 C   0  0  0  0  0  0  0  0  0  0  0  0
   25.2083   34.3263  105.7820 C   0  0  0  0  0  0  0  0  0  0  0  0
   24.4833   32.6787  104.1523 C   0  0  0  0  0  0  0  0  0  0  0  0
   26.2215   34.2280  106.8835 C   0  0  0  0  0  0  0  0  0  0  0  0
   23.8645   33.9465  106.2206 C   0  0  0  0  0  0  0  0  0  0  0  0
   25.4403   34.9297  102.7856 O   0  0  0  0  0  0  0  0  0  0  0  0
   31.4205   33.5824  103.9721 N   0  0  0  0  0  0  0  0  0  0  0  0
   23.5007   32.6205  105.3810 C   0  0  0  0  0  0  0  0  0  0  0  0
   30.0864   34.1448  103.8580 C   0  0  0  0  0  0  0  0  0  0  0  0
   25.7606   34.4727  108.0172 O   0  0  0  0  0  0  0  0  0  0  0  0
   27.1370   33.4525  106.6439 O   0  0  0  0  0  0  0  0  0  0  0  0
  1  2  1  0
  1  3  1  0
  3  4  2  0
  2  5  1  0
  5  6  1  0
  5  7  1  0
  7  8  1  0
  4  9  1  0
  8 10  1  0
  8 11  1  0
 10 12  1  0
 10 13  1  0
  7 14  2  0
  9 15  2  0
 11 16  1  0
 13 16  1  0
  3 17  1  0
  6 17  1  0
 15 17  1  0
 12 18  1  0
 12 19  2  0
M  END
>  <ID>  (1) 
conformer_0

$$$$
