
     RDKit          3D

 15 15  0  0  0  0  0  0  0  0999 V2000
   30.0699   36.5830  103.4430 O   0  0  0  0  0  0  0  0  0  0  0  0
   29.2358   35.7063  103.5604 C   0  0  0  0  0  0  0  0  0  0  0  0
   27.9659   35.8079  103.2800 N   0  0  0  0  0  0  0  0  0  0  0  0
   29.8668   34.3180  103.6430 C   0  0  0  0  0  0  0  0  0  0  0  0
   27.0394   34.8991  104.0205 C   0  0  0  0  0  0  0  0  0  0  0  0
   27.2382   34.3964  105.1530 O   0  0  0  0  0  0  0  0  0  0  0  0
   25.6953   34.8553  103.4953 C   0  0  0  0  0  0  0  0  0  0  0  0
   30.6681   34.0944  104.8233 C   0  0  0  0  0  0  0  0  0  0  0  0
   25.5036   35.4843  102.2876 C   0  0  0  0  0  0  0  0  0  0  0  0
   30.7524   33.9937  102.4913 C   0  0  0  0  0  0  0  0  0  0  0  0
   26.3874   35.9931  101.4403 O   0  0  0  0  0  0  0  0  0  0  0  0
   24.3536   35.2898  101.5358 O   0  0  0  0  0  0  0  0  0  0  0  0
   32.1336   33.9145  103.0042 C   0  0  0  0  0  0  0  0  0  0  0  0
   32.1008   34.0852  104.4324 C   0  0  0  0  0  0  0  0  0  0  0  0
   25.1648   33.4781  103.6604 C   0  0  0  0  0  0  0  0  0  0  0  0
  1  2  2  0
  2  3  1  0
  2  4  1  0
  3  5  1  0
  5  6  2  0
  5  7  1  0
  4  8  1  0
  7  9  1  0
  4 10  1  0
  9 11  1  0
  9 12  2  0
 10 13  1  0
  8 14  1  0
 13 14  1  0
  7 15  1  0
M  END
>  <ID>  (1) 
conformer_0

$$$$
