
     RDKit          3D

 10 11  0  0  0  0  0  0  0  0999 V2000
   29.1098   36.3151  103.7535 N   0  0  0  0  0  0  0  0  0  0  0  0
   27.9221   35.9950  103.5589 C   0  0  0  0  0  0  0  0  0  0  0  0
   30.0580   35.3056  103.9269 C   0  0  0  0  0  0  0  0  0  0  0  0
   29.2512   34.0843  103.7247 C   0  0  0  0  0  0  0  0  0  0  0  0
   29.8859   32.8243  103.8272 C   0  0  0  0  0  0  0  0  0  0  0  0
   31.3482   33.0387  103.5863 C   0  0  0  0  0  0  0  0  0  0  0  0
   26.8569   36.6072  103.4118 O   0  0  0  0  0  0  0  0  0  0  0  0
   32.0182   34.1732  103.7113 N   0  0  0  0  0  0  0  0  0  0  0  0
   31.3470   35.2894  103.7659 C   0  0  0  0  0  0  0  0  0  0  0  0
   27.9273   34.4501  103.6846 N   0  0  0  0  0  0  0  0  0  0  0  0
  1  2  1  0
  1  3  2  0
  3  4  1  0
  4  5  1  0
  5  6  2  0
  2  7  2  0
  6  8  1  0
  3  9  1  0
  8  9  2  0
  2 10  1  0
  4 10  2  0
M  END
>  <ID>  (1) 
conformer_0

$$$$
