
     RDKit          3D

  7  7  0  0  0  0  0  0  0  0999 V2000
   32.3531   34.0049  104.8246 C   0  0  0  0  0  0  0  0  0  0  0  0
   32.0513   33.7976  103.5665 N   0  0  0  0  0  0  0  0  0  0  0  0
   30.8339   34.0699  103.0606 C   0  0  0  0  0  0  0  0  0  0  0  0
   33.5050   33.6463  105.2788 N   0  0  0  0  0  0  0  0  0  0  0  0
   29.9349   34.5498  103.7626 N   0  0  0  0  0  0  0  0  0  0  0  0
   31.2665   34.3057  105.7170 N   0  0  0  0  0  0  0  0  0  0  0  0
   30.0057   34.6787  105.0703 C   0  0  0  0  0  0  0  0  0  0  0  0
  1  2  2  0
  2  3  1  0
  1  4  1  0
  3  5  2  0
  1  6  1  0
  5  7  1  0
  6  7  1  0
M  END
>  <ID>  (1) 
conformer_0

$$$$
