
     RDKit          3D

 17 17  0  0  0  0  0  0  0  0999 V2000
   30.7516   35.3962  103.9125 N   0  0  0  0  0  0  0  0  0  0  0  0
   29.4748   35.6827  103.6414 C   0  0  0  0  0  0  0  0  0  0  0  0
   28.5271   34.6926  103.9780 N   0  0  0  0  0  0  0  0  0  0  0  0
   27.1862   34.9133  103.7271 C   0  0  0  0  0  0  0  0  0  0  0  0
   31.3368   34.3726  104.0553 C   0  0  0  0  0  0  0  0  0  0  0  0
   26.7731   35.6954  102.7896 N   0  0  0  0  0  0  0  0  0  0  0  0
   26.3005   34.2177  104.6855 N   0  0  0  0  0  0  0  0  0  0  0  0
   28.9873   36.6834  102.8898 O   0  0  0  0  0  0  0  0  0  0  0  0
   25.1457   34.3172  104.4612 C   0  0  0  0  0  0  0  0  0  0  0  0
   31.7598   33.5982  102.9213 C   0  0  0  0  0  0  0  0  0  0  0  0
   24.5878   34.8765  103.4566 C   0  0  0  0  0  0  0  0  0  0  0  0
   24.2524   33.6180  105.5030 C   0  0  0  0  0  0  0  0  0  0  0  0
   25.4859   35.5521  102.5680 C   0  0  0  0  0  0  0  0  0  0  0  0
   24.9958   36.1699  101.3985 O   0  0  0  0  0  0  0  0  0  0  0  0
   24.5349   34.1010  106.8965 C   0  0  0  0  0  0  0  0  0  0  0  0
   32.6627   34.2676  104.8017 C   0  0  0  0  0  0  0  0  0  0  0  0
   25.8085   34.0225  107.4048 O   0  0  0  0  0  0  0  0  0  0  0  0
  1  2  1  0
  2  3  1  0
  3  4  1  0
  1  5  1  0
  4  6  2  0
  4  7  1  0
  2  8  2  0
  7  9  1  0
  5 10  1  0
  9 11  2  0
  9 12  1  0
  6 13  1  0
 11 13  1  0
 13 14  2  0
 12 15  1  0
  5 16  1  0
 15 17  1  0
M  END
>  <ID>  (1) 
conformer_0

$$$$
