
     RDKit          3D

 17 18  0  0  0  0  0  0  0  0999 V2000
   29.5154   36.3867  103.5097 N   0  0  0  0  0  0  0  0  0  0  0  0
   28.2729   36.2065  103.3419 C   0  0  0  0  0  0  0  0  0  0  0  0
   27.6994   35.0175  103.7962 C   0  0  0  0  0  0  0  0  0  0  0  0
   28.5100   34.0252  104.3456 C   0  0  0  0  0  0  0  0  0  0  0  0
   26.1652   34.7123  103.8190 C   0  0  0  0  0  0  0  0  0  0  0  0
   25.6126   34.3142  104.6727 N   0  0  0  0  0  0  0  0  0  0  0  0
   29.8866   34.2633  104.4272 N   0  0  0  0  0  0  0  0  0  0  0  0
   30.3910   35.4137  103.9033 C   0  0  0  0  0  0  0  0  0  0  0  0
   31.6496   35.5272  103.9467 O   0  0  0  0  0  0  0  0  0  0  0  0
   25.1217   33.1564  104.8164 N   0  0  0  0  0  0  0  0  0  0  0  0
   25.8025   34.9388  106.0491 C   0  0  0  0  0  0  0  0  0  0  0  0
   24.6463   32.8897  106.0257 N   0  0  0  0  0  0  0  0  0  0  0  0
   24.9828   33.9554  106.8444 C   0  0  0  0  0  0  0  0  0  0  0  0
   25.5272   35.6669  102.9193 O   0  0  0  0  0  0  0  0  0  0  0  0
   30.7599   33.1947  104.8860 C   0  0  0  0  0  0  0  0  0  0  0  0
   31.4681   32.7387  103.6454 C   0  0  0  0  0  0  0  0  0  0  0  0
   24.7701   34.0945  108.3359 C   0  0  0  0  0  0  0  0  0  0  0  0
  1  2  2  0
  2  3  1  0
  3  4  2  0
  3  5  1  0
  5  6  1  0
  4  7  1  0
  1  8  1  0
  7  8  1  0
  8  9  2  0
  6 10  1  0
  6 11  1  0
 10 12  2  0
 11 13  2  0
 12 13  1  0
  5 14  2  0
  7 15  1  0
 15 16  1  0
 13 17  1  0
M  END
>  <ID>  (1) 
conformer_0

$$$$
