
     RDKit          3D

 16 18  0  0  0  0  0  0  0  0999 V2000
   29.5154   36.3867  103.5097 N   0  0  0  0  0  0  0  0  0  0  0  0
   29.4346   35.1449  103.8033 C   0  0  0  0  0  0  0  0  0  0  0  0
   30.4251   34.3302  104.1092 N   0  0  0  0  0  0  0  0  0  0  0  0
   28.1260   34.6772  103.9194 C   0  0  0  0  0  0  0  0  0  0  0  0
   31.1679   33.8197  103.0349 C   0  0  0  0  0  0  0  0  0  0  0  0
   30.5714   33.7522  105.3763 C   0  0  0  0  0  0  0  0  0  0  0  0
   28.3074   36.9071  103.2459 N   0  0  0  0  0  0  0  0  0  0  0  0
   27.4711   33.4409  104.3410 C   0  0  0  0  0  0  0  0  0  0  0  0
   26.1191   33.5593  104.2405 N   0  0  0  0  0  0  0  0  0  0  0  0
   31.6155   34.6501  102.1248 O   0  0  0  0  0  0  0  0  0  0  0  0
   32.3072   33.0534  103.4982 O   0  0  0  0  0  0  0  0  0  0  0  0
   25.5264   34.7513  103.8639 C   0  0  0  0  0  0  0  0  0  0  0  0
   32.8843   33.8047  104.4840 C   0  0  0  0  0  0  0  0  0  0  0  0
   26.0648   35.8766  103.4450 N   0  0  0  0  0  0  0  0  0  0  0  0
   31.9449   33.7683  105.7214 C   0  0  0  0  0  0  0  0  0  0  0  0
   27.4373   35.8865  103.5136 C   0  0  0  0  0  0  0  0  0  0  0  0
  1  2  1  0
  2  3  1  0
  2  4  2  0
  3  5  1  0
  3  6  1  0
  1  7  1  0
  4  8  1  0
  8  9  1  0
  5 10  1  0
  5 11  1  0
  9 12  2  0
 11 13  1  0
 12 14  1  0
  6 15  1  0
 13 15  1  0
  4 16  1  0
  7 16  2  0
 14 16  1  0
M  END
>  <ID>  (1) 
conformer_0

$$$$
