
     RDKit          3D

 29 32  0  0  0  0  0  0  0  0999 V2000
  -25.2454  -32.6133   35.1870 O   0  0  0  0  0  0  0  0  0  0  0  0
  -22.5564  -33.6623   41.1361 C   0  0  0  0  0  0  0  0  0  0  0  0
  -23.8228  -33.8428   40.5974 C   0  0  0  0  0  0  0  0  0  0  0  0
  -25.4419  -37.5467   45.7908 O   0  0  0  0  0  0  0  0  0  0  0  0
  -24.5315  -33.2964   45.2481 O   0  0  0  0  0  0  0  0  0  0  0  0
  -25.1909  -37.9459   41.9778 N   0  0  0  0  0  0  0  0  0  0  0  0
  -24.8793  -33.6842   42.8857 C   0  0  0  0  0  0  0  0  0  0  0  0
  -25.3770  -36.6704   42.5409 C   0  0  0  0  0  0  0  0  0  0  0  0
  -24.1066  -33.2011   35.3502 C   0  0  0  0  0  0  0  0  0  0  0  0
  -25.3634  -36.6553   44.9176 C   0  0  0  0  0  0  0  0  0  0  0  0
  -24.6460  -36.4634   40.4464 N   0  0  0  0  0  0  0  0  0  0  0  0
  -25.1207  -31.3691   43.2462 O   0  0  0  0  0  0  0  0  0  0  0  0
  -23.6567  -33.7396   39.1040 C   0  0  0  0  0  0  0  0  0  0  0  0
  -24.7550  -37.7457   40.7059 C   0  0  0  0  0  0  0  0  0  0  0  0
  -25.7090  -32.3956   42.9408 C   0  0  0  0  0  0  0  0  0  0  0  0
  -21.9428  -33.6192   37.3855 C   0  0  0  0  0  0  0  0  0  0  0  0
  -22.2698  -33.6598   38.8102 C   0  0  0  0  0  0  0  0  0  0  0  0
  -24.8192  -34.3924   44.2185 C   0  0  0  0  0  0  0  0  0  0  0  0
  -24.3098  -35.6157   44.8777 C   0  0  0  0  0  0  0  0  0  0  0  0
  -24.9565  -35.7395   41.5740 C   0  0  0  0  0  0  0  0  0  0  0  0
  -25.5288  -33.4001   37.8009 O   0  0  0  0  0  0  0  0  0  0  0  0
  -21.9109  -33.1893   35.4510 N   0  0  0  0  0  0  0  0  0  0  0  0
  -23.2496  -33.3488   36.6480 C   0  0  0  0  0  0  0  0  0  0  0  0
  -23.0066  -33.1036   34.3443 C   0  0  0  0  0  0  0  0  0  0  0  0
  -21.6148  -33.5598   40.0497 C   0  0  0  0  0  0  0  0  0  0  0  0
  -24.8566  -34.2666   41.5276 C   0  0  0  0  0  0  0  0  0  0  0  0
  -24.3252  -33.5735   37.8352 C   0  0  0  0  0  0  0  0  0  0  0  0
  -26.0537  -36.6159   43.7400 O   0  0  0  0  0  0  0  0  0  0  0  0
  -26.8598  -32.4013   42.4861 O   0  0  0  0  0  0  0  0  0  0  0  0
  1  9  1  0
  2  3  1  0
  2 25  1  0
  3 13  1  0
  3 26  1  0
  4 10  2  0
  5 18  1  0
  6  8  1  0
  6 14  1  0
  7 15  1  0
  7 18  1  0
  7 26  1  0
  8 20  2  0
  8 28  1  0
  9 23  1  0
  9 24  1  0
 10 19  1  0
 10 28  1  0
 11 14  1  0
 11 20  1  0
 12 15  2  0
 13 17  2  0
 13 27  1  0
 15 29  1  0
 16 17  1  0
 16 23  1  0
 17 25  1  0
 18 19  1  0
 20 26  1  0
 21 27  2  0
 22 24  1  0
 23 27  1  0
M  END
>  <ID>  (1) 
conformer_0

$$$$
