
     RDKit          3D

 16 17  0  0  0  0  0  0  0  0999 V2000
  -21.8590  -33.6317   39.4972 C   0  0  0  0  0  0  0  0  0  0  0  0
  -25.1276  -34.6711   42.7943 C   0  0  0  0  0  0  0  0  0  0  0  0
  -24.5591  -34.1013   39.3768 C   0  0  0  0  0  0  0  0  0  0  0  0
  -25.4480  -36.2530   43.3072 C   0  0  0  0  0  0  0  0  0  0  0  0
  -24.5142  -33.9367   43.8621 O   0  0  0  0  0  0  0  0  0  0  0  0
  -21.9603  -33.3844   37.0695 N   0  0  0  0  0  0  0  0  0  0  0  0
  -23.8594  -34.2541   40.5521 C   0  0  0  0  0  0  0  0  0  0  0  0
  -25.0165  -36.4469   44.6374 O   0  0  0  0  0  0  0  0  0  0  0  0
  -24.2250  -33.6098   36.7869 C   0  0  0  0  0  0  0  0  0  0  0  0
  -25.3317  -33.6339   36.1814 O   0  0  0  0  0  0  0  0  0  0  0  0
  -23.9133  -33.7990   38.2153 C   0  0  0  0  0  0  0  0  0  0  0  0
  -22.5197  -33.6150   38.2768 C   0  0  0  0  0  0  0  0  0  0  0  0
  -23.0326  -33.3515   36.1623 N   0  0  0  0  0  0  0  0  0  0  0  0
  -26.3249  -34.0475   42.3067 O   0  0  0  0  0  0  0  0  0  0  0  0
  -24.2846  -34.8876   41.6823 N   0  0  0  0  0  0  0  0  0  0  0  0
  -22.5568  -33.8994   40.6059 C   0  0  0  0  0  0  0  0  0  0  0  0
  1 12  2  0
  1 16  1  0
  2  4  1  0
  2  5  1  0
  2 14  1  0
  2 15  1  0
  3  7  1  0
  3 11  2  0
  4  8  1  0
  6 12  1  0
  6 13  1  0
  7 15  1  0
  7 16  2  0
  9 10  2  0
  9 11  1  0
  9 13  1  0
 11 12  1  0
M  END
>  <ID>  (1) 
conformer_0

$$$$
