
     RDKit          3D

 23 25  0  0  0  0  0  0  0  0999 V2000
  -22.3917  -33.1874   34.8674 N   0  0  0  0  0  0  0  0  0  0  0  0
  -24.8576  -35.9349   43.1188 C   0  0  0  0  0  0  0  0  0  0  0  0
  -21.9101  -33.6204   38.4365 C   0  0  0  0  0  0  0  0  0  0  0  0
  -25.7505  -34.6364   43.3067 C   0  0  0  0  0  0  0  0  0  0  0  0
  -23.6243  -33.2130   34.3938 C   0  0  0  0  0  0  0  0  0  0  0  0
  -25.8518  -31.5837   43.8600 C   0  0  0  0  0  0  0  0  0  0  0  0
  -23.7724  -34.0753   39.8476 C   0  0  0  0  0  0  0  0  0  0  0  0
  -24.3392  -35.8280   41.6147 C   0  0  0  0  0  0  0  0  0  0  0  0
  -22.4324  -33.8346   39.6842 C   0  0  0  0  0  0  0  0  0  0  0  0
  -23.9255  -33.5656   42.2282 O   0  0  0  0  0  0  0  0  0  0  0  0
  -22.1470  -33.3760   36.0991 C   0  0  0  0  0  0  0  0  0  0  0  0
  -24.9314  -32.5403   44.1755 N   0  0  0  0  0  0  0  0  0  0  0  0
  -25.6514  -31.1783   42.5430 O   0  0  0  0  0  0  0  0  0  0  0  0
  -24.7544  -33.5510   43.2963 C   0  0  0  0  0  0  0  0  0  0  0  0
  -24.2619  -34.4337   41.1675 C   0  0  0  0  0  0  0  0  0  0  0  0
  -24.6451  -32.7800   45.5209 C   0  0  0  0  0  0  0  0  0  0  0  0
  -24.6023  -33.9408   38.7449 C   0  0  0  0  0  0  0  0  0  0  0  0
  -24.1072  -33.6806   37.4992 C   0  0  0  0  0  0  0  0  0  0  0  0
  -24.9056  -33.5329   36.3851 C   0  0  0  0  0  0  0  0  0  0  0  0
  -22.7245  -33.5783   37.3146 C   0  0  0  0  0  0  0  0  0  0  0  0
  -24.7097  -33.3734   35.1529 N   0  0  0  0  0  0  0  0  0  0  0  0
  -25.6016  -37.1831   43.2332 O   0  0  0  0  0  0  0  0  0  0  0  0
  -23.9569  -35.8690   44.1978 O   0  0  0  0  0  0  0  0  0  0  0  0
  1  5  1  0
  1 11  2  0
  2  4  1  0
  2  8  1  0
  2 22  1  0
  2 23  1  0
  3  9  1  0
  3 20  2  0
  4 14  1  0
  5 21  1  0
  6 12  1  0
  6 13  1  0
  7  9  2  0
  7 15  1  0
  7 17  1  0
  8 15  1  0
 10 14  1  0
 10 15  1  0
 11 20  1  0
 12 14  1  0
 12 16  1  0
 17 18  2  0
 18 19  1  0
 18 20  1  0
 19 21  2  0
M  END
>  <ID>  (1) 
conformer_0

$$$$
