
     RDKit          3D

 28 28  0  0  0  0  0  0  0  0999 V2000
  -28.0433  -32.2769   39.9659 C   0  0  0  0  0  0  0  0  0  0  0  0
  -24.3926  -33.5013   36.8755 N   0  0  0  0  0  0  0  0  0  0  0  0
  -24.3626  -31.9917   43.4121 O   0  0  0  0  0  0  0  0  0  0  0  0
  -25.0049  -32.7769   42.5901 C   0  0  0  0  0  0  0  0  0  0  0  0
  -25.2702  -38.4623   40.9069 C   0  0  0  0  0  0  0  0  0  0  0  0
  -24.8418  -34.7757   43.9276 O   0  0  0  0  0  0  0  0  0  0  0  0
  -26.3166  -32.5957   42.4904 O   0  0  0  0  0  0  0  0  0  0  0  0
  -25.9191  -33.3001   38.7362 N   0  0  0  0  0  0  0  0  0  0  0  0
  -25.0900  -36.1202   43.9747 C   0  0  0  0  0  0  0  0  0  0  0  0
  -24.5960  -38.4498   43.0571 O   0  0  0  0  0  0  0  0  0  0  0  0
  -23.6402  -33.7112   40.5975 C   0  0  0  0  0  0  0  0  0  0  0  0
  -25.2695  -36.7063   45.1051 O   0  0  0  0  0  0  0  0  0  0  0  0
  -23.5292  -33.7118   39.0784 C   0  0  0  0  0  0  0  0  0  0  0  0
  -27.3052  -32.8958   38.8606 C   0  0  0  0  0  0  0  0  0  0  0  0
  -24.6450  -34.2348   42.6829 C   0  0  0  0  0  0  0  0  0  0  0  0
  -28.5334  -33.1599   40.9614 O   0  0  0  0  0  0  0  0  0  0  0  0
  -24.2222  -35.9737   40.6624 O   0  0  0  0  0  0  0  0  0  0  0  0
  -25.7624  -36.5400   42.7454 C   0  0  0  0  0  0  0  0  0  0  0  0
  -22.9018  -32.9948   35.1436 N   0  0  0  0  0  0  0  0  0  0  0  0
  -25.2492  -37.8309   42.2285 C   0  0  0  0  0  0  0  0  0  0  0  0
  -22.2009  -33.6212   38.6175 C   0  0  0  0  0  0  0  0  0  0  0  0
  -24.5987  -33.5127   38.1853 C   0  0  0  0  0  0  0  0  0  0  0  0
  -27.8761  -32.8778   37.6707 O   0  0  0  0  0  0  0  0  0  0  0  0
  -24.4001  -34.8041   41.3493 C   0  0  0  0  0  0  0  0  0  0  0  0
  -23.9751  -32.6229   34.2875 O   0  0  0  0  0  0  0  0  0  0  0  0
  -23.1455  -33.4683   36.4342 C   0  0  0  0  0  0  0  0  0  0  0  0
  -22.0930  -33.6360   37.2489 N   0  0  0  0  0  0  0  0  0  0  0  0
  -22.6120  -33.3100   41.3580 O   0  0  0  0  0  0  0  0  0  0  0  0
  1 14  1  0
  1 16  1  0
  2 22  2  0
  2 26  1  0
  3  4  1  0
  4  7  1  0
  4 15  1  0
  5 20  1  0
  6  9  1  0
  6 15  1  0
  8 14  1  0
  8 22  1  0
  9 12  2  0
  9 18  1  0
 10 20  2  0
 11 13  1  0
 11 24  1  0
 11 28  1  0
 13 21  1  0
 13 22  1  0
 14 23  2  0
 15 24  1  0
 17 24  1  0
 18 20  1  0
 19 25  1  0
 19 26  2  3
 21 27  1  0
 26 27  1  0
M  END
>  <ID>  (1) 
conformer_0

$$$$
