
     RDKit          3D

 10 10  0  0  0  0  0  0  0  0999 V2000
  -24.1494  -33.7872   38.0363 C   0  0  0  0  0  0  0  0  0  0  0  0
  -25.7436  -34.2225   41.2634 O   0  0  0  0  0  0  0  0  0  0  0  0
  -22.7434  -34.3253   40.0951 C   0  0  0  0  0  0  0  0  0  0  0  0
  -21.9589  -33.5068   37.9611 N   0  0  0  0  0  0  0  0  0  0  0  0
  -22.4625  -33.2469   36.6995 N   0  0  0  0  0  0  0  0  0  0  0  0
  -22.9844  -33.7670   38.8214 C   0  0  0  0  0  0  0  0  0  0  0  0
  -24.6862  -34.6601   41.7011 C   0  0  0  0  0  0  0  0  0  0  0  0
  -23.8395  -33.4805   36.7257 C   0  0  0  0  0  0  0  0  0  0  0  0
  -24.5287  -35.5998   42.4538 O   0  0  0  0  0  0  0  0  0  0  0  0
  -23.4604  -33.8341   41.2876 C   0  0  0  0  0  0  0  0  0  0  0  0
  1  6  1  0
  1  8  1  0
  2  7  2  0
  3  6  1  0
  3 10  1  0
  4  5  1  0
  4  6  1  0
  5  8  1  0
  7  9  1  0
  7 10  1  0
M  END
>  <ID>  (1) 
conformer_0

$$$$
