
     RDKit          3D

 28 31  0  0  0  0  0  0  0  0999 V2000
  -22.6501  -33.4659   33.8567 O   0  0  0  0  0  0  0  0  0  0  0  0
  -27.1450  -32.2747   41.7342 P   0  0  0  0  0  4  0  0  0  0  0  0
  -24.0372  -33.3423   41.5189 C   0  0  0  0  0  0  0  0  0  0  0  0
  -24.5742  -32.4612   34.2523 O   0  0  0  0  0  0  0  0  0  0  0  0
  -26.1515  -38.1581   44.8628 C   0  0  0  0  0  0  0  0  0  0  0  0
  -24.0098  -33.8250   38.2993 C   0  0  0  0  0  0  0  0  0  0  0  0
  -24.6376  -34.5375   39.3988 C   0  0  0  0  0  0  0  0  0  0  0  0
  -22.6121  -33.6473   38.2614 C   0  0  0  0  0  0  0  0  0  0  0  0
  -23.4209  -33.2882   36.1481 C   0  0  0  0  0  0  0  0  0  0  0  0
  -22.0030  -33.7965   39.5637 C   0  0  0  0  0  0  0  0  0  0  0  0
  -23.5467  -33.0548   34.7150 C   0  0  0  0  0  0  0  0  0  0  0  0
  -25.5806  -37.2469   43.9031 C   0  0  0  0  0  0  0  0  0  0  0  0
  -25.5304  -38.3218   46.0770 O   0  0  0  0  0  0  0  0  0  0  0  0
  -24.8165  -37.0104   41.5474 C   0  0  0  0  0  0  0  0  0  0  0  0
  -26.3313  -33.3123   42.3919 O   0  0  0  0  0  0  0  0  0  0  0  0
  -26.6595  -30.9513   42.1770 O   0  0  0  0  0  1  0  0  0  0  0  0
  -22.2524  -33.4169   36.9297 C   0  0  0  0  0  0  0  0  0  0  0  0
  -24.9367  -33.6134   42.7411 C   0  0  0  0  0  0  0  0  0  0  0  0
  -28.5621  -32.4311   42.1290 O   0  0  0  0  0  0  0  0  0  0  0  0
  -22.9016  -33.6840   40.6874 C   0  0  0  0  0  0  0  0  0  0  0  0
  -24.9651  -35.1023   42.9088 C   0  0  0  0  0  0  0  0  0  0  0  0
  -24.4389  -33.6382   37.0251 N   0  0  0  0  0  0  0  0  0  0  0  0
  -25.3344  -35.8475   44.0141 C   0  0  0  0  0  0  0  0  0  0  0  0
  -24.5700  -35.6583   41.7143 C   0  0  0  0  0  0  0  0  0  0  0  0
  -23.9560  -34.7047   40.7142 C   0  0  0  0  0  0  0  0  0  0  0  0
  -25.3172  -37.7557   42.6316 C   0  0  0  0  0  0  0  0  0  0  0  0
  -27.0513  -32.5081   40.2094 O   0  0  0  0  0  0  0  0  0  0  0  0
  -24.4847  -32.9605   43.8825 O   0  0  0  0  0  0  0  0  0  0  0  0
  1 11  2  0
  2 15  1  0
  2 16  2  0
  2 19  1  0
  2 27  1  0
  3 18  1  0
  3 20  1  0
  4 11  1  0
  5 12  1  0
  5 13  1  0
  6  7  1  0
  6  8  1  0
  6 22  1  0
  7 25  1  0
  8 10  1  0
  8 17  1  0
  9 11  1  0
  9 17  1  0
  9 22  1  0
 10 20  1  0
 12 23  1  0
 12 26  2  0
 14 24  2  0
 14 26  1  0
 15 18  1  0
 18 21  1  0
 18 28  1  0
 20 25  1  0
 21 23  2  0
 21 24  1  0
 24 25  1  0
M  END
>  <ID>  (1) 
conformer_0

$$$$
