
     RDKit          3D

 27 28  0  0  0  0  0  0  0  0999 V2000
  -25.0909  -38.2404   44.1810 O   0  0  0  0  0  1  0  0  0  0  0  0
  -27.1680  -37.3791   45.0687 O   0  0  0  0  0  0  0  0  0  0  0  0
  -24.9642  -36.3199   45.7973 O   0  0  0  0  0  0  0  0  0  0  0  0
  -24.6907  -35.2757   40.1952 O   0  0  0  0  0  0  0  0  0  0  0  0
  -23.9565  -33.7303   38.3091 N   0  0  0  0  0  0  0  0  0  0  0  0
  -24.8903  -33.5573   37.3932 C   0  0  0  0  0  0  0  0  0  0  0  0
  -25.9129  -35.9841   43.5244 O   0  0  0  0  0  0  0  0  0  0  0  0
  -24.1521  -34.0407   39.7019 C   0  0  0  0  0  0  0  0  0  0  0  0
  -25.3040  -32.8519   45.6769 O   0  0  0  0  0  0  0  0  0  0  0  0
  -26.7519  -31.4393   43.2326 O   0  0  0  0  0  0  0  0  0  0  0  0
  -25.1126  -36.3546   42.3912 C   0  0  0  0  0  0  0  0  0  0  0  0
  -23.8006  -33.1725   35.1691 C   0  0  0  0  0  0  0  0  0  0  0  0
  -25.0045  -32.3578   44.5388 C   0  0  0  0  0  0  0  0  0  0  0  0
  -22.2483  -33.4096   36.6218 C   0  0  0  0  0  0  0  0  0  0  0  0
  -24.0487  -33.8954   42.0612 C   0  0  0  0  0  0  0  0  0  0  0  0
  -24.1207  -32.9867   33.8715 N   0  0  0  0  0  0  0  0  0  0  0  0
  -25.8912  -32.5195   43.4014 C   0  0  0  0  0  0  0  0  0  0  0  0
  -23.8971  -31.8230   44.4009 O   0  0  0  0  0  0  0  0  0  0  0  0
  -25.7927  -37.0474   44.7192 P   0  0  0  0  0  4  0  0  0  0  0  0
  -24.8353  -33.3537   36.1125 N   0  0  0  0  0  0  0  0  0  0  0  0
  -25.1905  -32.8777   42.1496 C   0  0  0  0  0  0  0  0  0  0  0  0
  -26.2520  -33.6361   42.7733 O   0  0  0  0  0  0  0  0  0  0  0  0
  -24.6221  -35.2033   41.6508 C   0  0  0  0  0  0  0  0  0  0  0  0
  -23.2871  -33.5229   40.8367 C   0  0  0  0  0  0  0  0  0  0  0  0
  -21.5446  -33.5983   38.8408 N   0  0  0  0  0  0  0  0  0  0  0  0
  -22.5785  -33.5789   37.8817 C   0  0  0  0  0  0  0  0  0  0  0  0
  -22.4926  -33.2063   35.4629 N   0  0  0  0  0  0  0  0  0  0  0  0
  1 19  2  0
  2 19  1  0
  3 19  1  0
  4  8  1  0
  4 23  1  0
  5  6  1  0
  5  8  1  0
  5 26  1  0
  6 20  2  0
  7 11  1  0
  7 19  1  0
  8 24  1  0
  9 13  2  0
 10 17  1  0
 11 23  1  0
 12 16  2  0
 12 20  1  0
 12 27  1  0
 13 17  1  0
 13 18  1  0
 14 26  1  0
 14 27  1  0
 15 21  1  0
 15 23  1  0
 15 24  1  0
 17 21  1  0
 17 22  1  0
 25 26  2  0
M  END
>  <ID>  (1) 
conformer_0

$$$$
