
     RDKit          3D

 27 30  0  0  0  0  0  0  0  0999 V2000
  -24.1690  -32.9642   34.3947 N   0  0  0  0  0  0  0  0  0  0  0  0
  -22.8397  -33.2060   34.7201 C   0  0  0  0  0  0  0  0  0  0  0  0
  -24.1530  -34.1141   41.2674 C   0  0  0  0  0  0  0  0  0  0  0  0
  -25.0149  -32.5284   45.7089 C   0  0  0  0  0  0  0  0  0  0  0  0
  -24.1122  -33.5541   37.5022 C   0  0  0  0  0  0  0  0  0  0  0  0
  -25.1219  -37.7860   41.3883 C   0  0  0  0  0  0  0  0  0  0  0  0
  -22.7520  -33.5537   37.2171 C   0  0  0  0  0  0  0  0  0  0  0  0
  -21.8814  -33.6447   38.3288 C   0  0  0  0  0  0  0  0  0  0  0  0
  -25.3848  -37.8987   42.7210 N   0  0  0  0  0  0  0  0  0  0  0  0
  -25.6178  -32.6526   42.7871 C   0  0  0  0  0  0  0  0  0  0  0  0
  -22.3395  -33.4597   35.9147 C   0  0  0  0  0  0  0  0  0  0  0  0
  -25.6131  -32.3361   44.2903 C   0  0  0  0  0  0  0  0  0  0  0  0
  -24.1720  -33.3508   42.5963 C   0  0  0  0  0  0  0  0  0  0  0  0
  -24.6873  -36.6253   40.8385 C   0  0  0  0  0  0  0  0  0  0  0  0
  -25.2441  -36.8116   43.5453 C   0  0  0  0  0  0  0  0  0  0  0  0
  -24.3408  -31.7986   44.6363 O   0  0  0  0  0  0  0  0  0  0  0  0
  -25.0953  -32.9672   35.3261 C   0  0  0  0  0  0  0  0  0  0  0  0
  -22.3114  -33.7247   39.6653 C   0  0  0  0  0  0  0  0  0  0  0  0
  -24.5192  -35.4884   41.6680 C   0  0  0  0  0  0  0  0  0  0  0  0
  -24.2254  -34.4670   43.7237 C   0  0  0  0  0  0  0  0  0  0  0  0
  -23.7874  -34.6383   44.9001 O   0  0  0  0  0  0  0  0  0  0  0  0
  -23.6262  -33.8785   39.9530 C   0  0  0  0  0  0  0  0  0  0  0  0
  -25.0319  -33.2814   36.5689 N   0  0  0  0  0  0  0  0  0  0  0  0
  -25.8087  -34.1121   39.1358 O   0  0  0  0  0  0  0  0  0  0  0  0
  -24.7081  -35.6047   43.0223 C   0  0  0  0  0  0  0  0  0  0  0  0
  -24.5287  -33.8352   38.8395 C   0  0  0  0  0  0  0  0  0  0  0  0
  -25.6372  -36.9005   44.7994 O   0  0  0  0  0  0  0  0  0  0  0  0
  1  2  2  0
  1 17  1  0
  2 11  1  0
  3 13  1  0
  3 19  1  0
  3 22  1  0
  4 12  1  0
  5  7  1  0
  5 23  1  0
  5 26  2  0
  6  9  1  0
  6 14  2  0
  7  8  1  0
  7 11  2  0
  8 18  1  0
  9 15  1  0
 10 12  1  0
 10 13  1  0
 12 16  1  0
 13 20  1  0
 14 19  1  0
 15 25  1  0
 15 27  2  0
 17 23  2  0
 18 22  2  0
 19 25  2  0
 20 21  2  0
 20 25  1  0
 22 26  1  0
 24 26  1  0
M  END
>  <ID>  (1) 
conformer_0

$$$$
