
     RDKit          3D

 31 34  0  0  0  0  0  0  0  0999 V2000
  -23.8350  -33.9383   41.1771 C   0  0  0  0  0  0  0  0  0  0  0  0
  -25.3681  -37.4381   42.1932 C   0  0  0  0  0  0  0  0  0  0  0  0
  -24.2065  -34.1537   39.7701 C   0  0  0  0  0  0  0  0  0  0  0  0
  -24.9808  -35.1712   39.4821 O   0  0  0  0  0  0  0  0  0  0  0  0
  -23.9082  -33.4807   34.6676 C   0  0  0  0  0  0  0  0  0  0  0  0
  -22.3581  -33.4543   36.5213 C   0  0  0  0  0  0  0  0  0  0  0  0
  -26.0973  -37.5962   44.7708 C   0  0  0  0  0  0  0  0  0  0  0  0
  -25.6131  -37.3416   47.1205 C   0  0  0  0  0  0  0  0  0  0  0  0
  -25.5438  -33.1853   43.3910 C   0  0  0  0  0  0  0  0  0  0  0  0
  -22.4097  -33.3923   35.0111 C   0  0  0  0  0  0  0  0  0  0  0  0
  -24.5928  -33.2768   35.8957 C   0  0  0  0  0  0  0  0  0  0  0  0
  -26.2541  -38.0557   46.0779 C   0  0  0  0  0  0  0  0  0  0  0  0
  -24.3215  -34.0833   43.4031 C   0  0  0  0  0  0  0  0  0  0  0  0
  -23.7160  -33.4984   37.1327 C   0  0  0  0  0  0  0  0  0  0  0  0
  -23.2977  -32.8191   41.6524 O   0  0  0  0  0  0  0  0  0  0  0  0
  -24.3646  -34.9816   42.2083 C   0  0  0  0  0  0  0  0  0  0  0  0
  -26.8819  -33.1636   41.3530 O   0  0  0  0  0  0  0  0  0  0  0  0
  -24.6310  -35.8583   45.4741 C   0  0  0  0  0  0  0  0  0  0  0  0
  -21.4901  -33.5848   37.6351 O   0  0  0  0  0  0  0  0  0  0  0  0
  -24.5560  -32.5422   41.3590 C   0  0  0  0  0  0  0  0  0  0  0  0
  -25.8294  -33.0030   41.9258 C   0  0  0  0  0  0  0  0  0  0  0  0
  -24.5707  -38.0979   41.3404 N   0  0  0  0  0  0  0  0  0  0  0  0
  -22.0945  -33.5648   38.8950 C   0  0  0  0  0  0  0  0  0  0  0  0
  -25.2728  -36.5112   44.4207 C   0  0  0  0  0  0  0  0  0  0  0  0
  -25.3684  -31.8288   43.7751 O   0  0  0  0  0  0  0  0  0  0  0  0
  -25.8498  -32.9151   35.9900 O   0  0  0  0  0  0  0  0  0  0  0  0
  -23.5207  -33.4731   38.6602 C   0  0  0  0  0  0  0  0  0  0  0  0
  -24.8012  -36.2426   46.7912 C   0  0  0  0  0  0  0  0  0  0  0  0
  -25.0637  -36.2318   42.9387 C   0  0  0  0  0  0  0  0  0  0  0  0
  -21.4609  -33.7261   40.0004 O   0  0  0  0  0  0  0  0  0  0  0  0
  -24.3157  -32.8110   33.5645 O   0  0  0  0  0  0  0  0  0  0  0  0
  1  3  1  0
  1 15  1  0
  1 16  1  0
  2 22  1  0
  2 29  1  0
  3  4  1  0
  3 27  1  0
  5 10  1  0
  5 11  1  0
  5 31  1  0
  6 10  1  0
  6 14  2  0
  6 19  1  0
  7 12  2  0
  7 24  1  0
  8 12  1  0
  8 28  1  0
  9 13  1  0
  9 21  1  0
  9 25  1  0
 11 14  1  0
 11 26  1  0
 13 16  1  0
 14 27  1  0
 15 20  1  0
 16 29  1  0
 17 21  2  0
 18 24  1  0
 18 28  2  0
 19 23  1  0
 20 21  1  0
 23 27  1  0
 23 30  2  0
 24 29  1  0
M  END
>  <ID>  (1) 
conformer_0

$$$$
