
     RDKit          3D

 19 18  0  0  0  0  0  0  0  0999 V2000
  -22.2586  -33.7310   38.7456 C   0  0  0  0  0  0  0  0  0  0  0  0
  -26.3160  -33.3193   41.9418 O   0  0  0  0  0  0  0  0  0  0  0  0
  -24.5954  -34.6963   41.1712 C   0  0  0  0  0  0  0  0  0  0  0  0
  -23.8797  -35.8623   44.3839 O   0  0  0  0  0  0  0  0  0  0  0  0
  -21.2774  -33.6859   39.6004 N   0  0  0  0  0  0  0  0  0  0  0  0
  -25.7458  -33.6645   39.3135 O   0  0  0  0  0  0  0  0  0  0  0  0
  -23.0655  -33.7330   36.5029 C   0  0  0  0  0  0  0  0  0  0  0  0
  -25.4504  -37.5098   43.6732 C   0  0  0  0  0  0  0  0  0  0  0  0
  -24.0869  -33.3155   43.0179 O   0  0  0  0  0  0  0  0  0  0  0  0
  -22.0609  -33.7636   37.3936 N   0  0  0  0  0  0  0  0  0  0  0  0
  -24.2556  -34.3451   36.4765 N   0  0  0  0  0  0  0  0  0  0  0  0
  -25.1530  -34.0018   42.3918 C   0  0  0  0  0  0  0  0  0  0  0  0
  -22.8275  -32.9903   35.3579 N   0  0  0  0  0  0  0  0  0  0  0  0
  -24.5878  -33.8582   39.9464 C   0  0  0  0  0  0  0  0  0  0  0  0
  -23.9823  -35.8456   41.1434 O   0  0  0  0  0  0  0  0  0  0  0  0
  -25.8188  -35.0682   43.3297 C   0  0  0  0  0  0  0  0  0  0  0  0
  -22.1285  -33.5745   34.2102 C   0  0  0  0  0  0  0  0  0  0  0  0
  -24.9562  -36.1208   43.8022 C   0  0  0  0  0  0  0  0  0  0  0  0
  -23.4680  -33.9335   39.1962 N   0  0  0  0  0  0  0  0  0  0  0  0
  1  5  2  0
  1 10  1  0
  1 19  1  0
  2 12  1  0
  3 12  1  0
  3 14  1  0
  3 15  1  0
  4 18  2  0
  6 14  2  0
  7 10  1  0
  7 11  2  0
  7 13  1  0
  8 18  1  0
  9 12  1  0
 12 16  1  0
 13 17  1  0
 14 19  1  0
 16 18  1  0
M  END
>  <ID>  (1) 
conformer_0

$$$$
