
     RDKit          3D

 23 24  0  0  0  0  0  0  0  0999 V2000
  -20.6501  -34.0810   39.1132 C   0  0  0  0  0  0  0  0  0  0  0  0
  -25.0033  -37.9912   43.7323 O   0  0  0  0  0  1  0  0  0  0  0  0
  -23.1609  -33.5586   39.3018 N   0  0  0  0  0  0  0  0  0  0  0  0
  -24.0329  -33.3400   40.4320 C   0  0  0  0  0  0  0  0  0  0  0  0
  -25.6275  -33.3326   42.2067 C   0  0  0  0  0  0  0  0  0  0  0  0
  -25.4728  -33.3698   40.6465 C   0  0  0  0  0  0  0  0  0  0  0  0
  -24.8929  -35.6430   42.3622 C   0  0  0  0  0  0  0  0  0  0  0  0
  -24.7077  -36.2206   45.4781 O   0  0  0  0  0  0  0  0  0  0  0  0
  -22.4314  -33.4509   35.8923 C   0  0  0  0  0  0  0  0  0  0  0  0
  -24.7110  -33.3710   37.4460 N   0  0  0  0  0  0  0  0  0  0  0  0
  -23.2970  -33.2604   34.8846 C   0  0  0  0  0  0  0  0  0  0  0  0
  -23.4417  -33.9296   41.5752 O   0  0  0  0  0  0  0  0  0  0  0  0
  -22.9453  -33.2847   33.5767 O   0  0  0  0  0  0  0  0  0  0  0  0
  -25.2931  -31.9739   42.6135 O   0  0  0  0  0  0  0  0  0  0  0  0
  -24.3949  -34.1911   42.5437 C   0  0  0  0  0  0  0  0  0  0  0  0
  -22.3509  -33.5952   37.0968 N   0  0  0  0  0  0  0  0  0  0  0  0
  -21.8534  -33.7844   39.6626 C   0  0  0  0  0  0  0  0  0  0  0  0
  -25.2108  -33.1420   36.2948 C   0  0  0  0  0  0  0  0  0  0  0  0
  -26.9586  -37.3327   45.0648 O   0  0  0  0  0  0  0  0  0  0  0  0
  -24.7283  -33.0851   35.1077 N   0  0  0  0  0  0  0  0  0  0  0  0
  -23.4503  -33.4962   37.8894 C   0  0  0  0  0  0  0  0  0  0  0  0
  -25.9863  -35.7735   43.3683 O   0  0  0  0  0  0  0  0  0  0  0  0
  -25.6687  -36.8951   44.4777 P   0  0  0  0  0  4  0  0  0  0  0  0
  1 17  2  0
  2 23  2  0
  3  4  1  0
  3 17  1  0
  3 21  1  0
  4  6  1  0
  4 12  1  0
  5  6  1  0
  5 14  1  0
  5 15  1  0
  7 15  1  0
  7 22  1  0
  8 23  1  0
  9 11  1  0
  9 16  2  0
 10 18  1  0
 10 21  2  0
 11 13  2  0
 11 20  1  0
 12 15  1  0
 16 21  1  0
 18 20  2  0
 19 23  1  0
 22 23  1  0
M  END
>  <ID>  (1) 
conformer_0

$$$$
