
     RDKit          3D

 21 23  0  0  0  0  0  0  0  0999 V2000
  -25.1194  -37.8982   44.0014 O   0  0  0  0  0  0  0  0  0  0  0  0
  -23.0153  -33.4259   36.6435 N   0  0  0  0  0  0  0  0  0  0  0  0
  -22.0646  -33.5818   34.4387 N   0  0  0  0  0  0  0  0  0  0  0  0
  -24.4913  -33.7878   43.9819 O   0  0  0  0  0  0  0  0  0  0  0  0
  -25.1505  -34.2104   39.8068 C   0  0  0  0  0  0  0  0  0  0  0  0
  -24.0191  -33.8206   38.8801 N   0  0  0  0  0  0  0  0  0  0  0  0
  -24.9905  -34.3524   41.4962 C   0  0  0  0  0  0  0  0  0  0  0  0
  -25.5312  -35.8351   43.1104 C   0  0  0  0  0  0  0  0  0  0  0  0
  -21.8558  -33.5306   37.2820 N   0  0  0  0  0  0  0  0  0  0  0  0
  -21.5236  -33.5819   38.5356 C   0  0  0  0  0  0  0  0  0  0  0  0
  -21.8592  -33.6940   39.8106 N   0  0  0  0  0  0  0  0  0  0  0  0
  -24.1409  -33.5553   37.5221 C   0  0  0  0  0  0  0  0  0  0  0  0
  -23.6443  -33.7768   41.3750 O   0  0  0  0  0  0  0  0  0  0  0  0
  -25.2804  -36.6937   44.2517 C   0  0  0  0  0  0  0  0  0  0  0  0
  -24.7634  -35.9105   41.7662 C   0  0  0  0  0  0  0  0  0  0  0  0
  -23.3209  -33.7810   40.0142 C   0  0  0  0  0  0  0  0  0  0  0  0
  -25.4102  -34.3307   43.1623 C   0  0  0  0  0  0  0  0  0  0  0  0
  -25.3348  -33.4383   37.1253 O   0  0  0  0  0  0  0  0  0  0  0  0
  -24.2025  -32.6746   34.5459 N   0  0  0  0  0  0  0  0  0  0  0  0
  -23.1186  -33.2292   35.2361 C   0  0  0  0  0  0  0  0  0  0  0  0
  -25.1496  -36.2481   45.3984 O   0  0  0  0  0  0  0  0  0  0  0  0
  1 14  2  0
  2  9  1  0
  2 12  1  0
  2 20  1  0
  3 20  2  0
  4 17  1  0
  5  6  1  0
  5  7  1  0
  6 12  1  0
  6 16  1  0
  7 13  1  0
  7 15  1  0
  7 17  1  0
  8 14  1  0
  8 15  1  0
  8 17  1  0
  9 10  2  0
 10 11  1  0
 11 16  2  0
 12 18  2  0
 13 16  1  0
 14 21  1  0
 19 20  1  0
M  END
>  <ID>  (1) 
conformer_0

$$$$
