
     RDKit          3D

 27 29  0  0  0  0  0  0  0  0999 V2000
  -24.6624  -32.4413   45.8155 C   0  0  0  0  0  0  0  0  0  0  0  0
  -23.7291  -33.5640   38.1152 C   0  0  0  0  0  0  0  0  0  0  0  0
  -25.2980  -37.1901   42.7128 C   0  0  0  0  0  0  0  0  0  0  0  0
  -25.2376  -37.2020   41.3078 O   0  0  0  0  0  0  0  0  0  0  0  0
  -22.0428  -33.2809   34.8433 N   0  0  0  0  0  0  0  0  0  0  0  0
  -24.8276  -34.5526   40.9493 C   0  0  0  0  0  0  0  0  0  0  0  0
  -23.6682  -33.6458   40.7837 C   0  0  0  0  0  0  0  0  0  0  0  0
  -25.1020  -34.7321   42.3738 C   0  0  0  0  0  0  0  0  0  0  0  0
  -24.9877  -33.5225   37.6697 N   0  0  0  0  0  0  0  0  0  0  0  0
  -24.3163  -33.2886   35.4750 N   0  0  0  0  0  0  0  0  0  0  0  0
  -24.3173  -33.6823   43.1712 C   0  0  0  0  0  0  0  0  0  0  0  0
  -21.7615  -33.6575   39.1218 C   0  0  0  0  0  0  0  0  0  0  0  0
  -22.7175  -33.5124   37.1387 C   0  0  0  0  0  0  0  0  0  0  0  0
  -24.2557  -34.2904   44.4344 O   0  0  0  0  0  0  0  0  0  0  0  0
  -25.8948  -34.5070   40.0816 O   0  0  0  0  0  0  0  0  0  0  0  0
  -25.7245  -36.3080   43.8731 C   0  0  0  0  0  0  0  0  0  0  0  0
  -21.5133  -33.5799   37.8176 N   0  0  0  0  0  0  0  0  0  0  0  0
  -25.2391  -33.3703   36.4130 C   0  0  0  0  0  0  0  0  0  0  0  0
  -25.6922  -36.8502   45.0591 O   0  0  0  0  0  0  0  0  0  0  0  0
  -24.5480  -35.9561   43.0399 C   0  0  0  0  0  0  0  0  0  0  0  0
  -23.0909  -33.6461   39.3806 N   0  0  0  0  0  0  0  0  0  0  0  0
  -24.0954  -31.7033   45.0054 O   0  0  0  0  0  0  0  0  0  0  0  0
  -23.3778  -33.2502   42.2067 O   0  0  0  0  0  0  0  0  0  0  0  0
  -22.9947  -33.3472   35.7923 C   0  0  0  0  0  0  0  0  0  0  0  0
  -24.8527  -38.3665   43.1383 O   0  0  0  0  0  0  0  0  0  0  0  0
  -24.8021  -33.8576   45.5861 C   0  0  0  0  0  0  0  0  0  0  0  0
  -25.1934  -31.9320   46.9431 N   0  0  0  0  0  0  0  0  0  0  0  0
  1 22  2  0
  1 26  1  0
  1 27  1  0
  2  9  1  0
  2 13  2  0
  2 21  1  0
  3  4  1  0
  3 20  1  0
  3 25  1  0
  5 24  2  0
  6  7  1  0
  6  8  1  0
  6 15  1  0
  7 21  1  0
  7 23  1  0
  8 11  1  0
  8 20  1  0
  9 18  2  0
 10 18  1  0
 10 24  1  0
 11 14  1  0
 11 23  1  0
 12 17  1  0
 12 21  1  0
 13 17  1  0
 13 24  1  0
 14 26  1  0
 16 19  1  0
 16 20  1  0
M  END
>  <ID>  (1) 
conformer_0

$$$$
