
     RDKit          3D

 16 16  0  0  0  0  0  0  0  0999 V2000
  -23.7916  -33.6445   36.8369 C   0  0  0  0  0  0  0  0  0  0  0  0
  -25.0419  -33.6026   44.0048 O   0  0  0  0  0  1  0  0  0  0  0  0
  -24.6334  -34.1656   39.8711 C   0  0  0  0  0  0  0  0  0  0  0  0
  -24.3360  -33.9046   38.0502 N   0  0  0  0  0  0  0  0  0  0  0  0
  -26.3119  -33.7657   41.4644 O   0  0  0  0  0  0  0  0  0  0  0  0
  -23.6662  -33.9506   39.1044 C   0  0  0  0  0  0  0  0  0  0  0  0
  -24.3172  -35.2474   41.9100 C   0  0  0  0  0  0  0  0  0  0  0  0
  -25.0277  -34.0262   41.2125 C   0  0  0  0  0  0  0  0  0  0  0  0
  -22.2815  -33.7490   39.1636 C   0  0  0  0  0  0  0  0  0  0  0  0
  -26.0018  -35.9574   43.7964 O   0  0  0  0  0  0  0  0  0  0  0  0
  -21.7019  -33.5310   37.9493 N   0  0  0  0  0  0  0  0  0  0  0  0
  -22.4338  -33.4212   36.8136 N   0  0  0  0  0  0  0  0  0  0  0  0
  -24.4147  -36.3795   41.1162 O   0  0  0  0  0  0  0  0  0  0  0  0
  -24.7608  -35.0981   43.6761 P   0  0  0  0  0  4  0  0  0  0  0  0
  -23.5597  -35.5705   44.4440 O   0  0  0  0  0  0  0  0  0  0  0  0
  -24.5531  -33.6145   35.8324 O   0  0  0  0  0  0  0  0  0  0  0  0
  1  4  1  0
  1 12  1  0
  1 16  2  0
  2 14  2  0
  3  6  1  0
  3  8  1  0
  4  6  2  0
  5  8  1  0
  6  9  1  0
  7  8  1  0
  7 13  1  0
  7 14  1  0
  9 11  1  0
 10 14  1  0
 11 12  2  0
 14 15  1  0
M  END
>  <ID>  (1) 
conformer_0

$$$$
