
     RDKit          3D

 25 28  0  0  0  0  0  0  0  0999 V2000
  -23.7524  -33.8179   38.1512 C   0  0  0  0  0  0  0  0  0  0  0  0
  -21.8673  -33.6730   36.7696 N   0  0  0  0  0  0  0  0  0  0  0  0
  -22.5949  -33.4688   35.6117 C   0  0  0  0  0  0  0  0  0  0  0  0
  -26.5114  -31.8559   42.5925 C   0  0  0  0  0  0  0  0  0  0  0  0
  -25.5027  -37.7549   43.3761 O   0  0  0  0  0  0  0  0  0  0  0  0
  -24.3385  -34.4558   39.1861 O   0  0  0  0  0  0  0  0  0  0  0  0
  -25.0014  -32.9023   45.0477 C   0  0  0  0  0  0  0  0  0  0  0  0
  -22.3569  -33.6747   38.0748 C   0  0  0  0  0  0  0  0  0  0  0  0
  -21.9867  -33.6795   34.0690 S   0  0  0  0  0  0  0  0  0  0  0  0
  -25.0528  -37.1681   42.3914 C   0  0  0  0  0  0  0  0  0  0  0  0
  -23.9597  -34.2269   40.5129 C   0  0  0  0  0  0  0  0  0  0  0  0
  -25.0305  -33.6065   42.8232 C   0  0  0  0  0  0  0  0  0  0  0  0
  -21.8507  -33.7209   39.4704 C   0  0  0  0  0  0  0  0  0  0  0  0
  -24.9194  -37.7361   41.2496 O   0  0  0  0  0  0  0  0  0  0  0  0
  -24.8301  -32.5780   34.7476 C   0  0  0  0  0  0  0  0  0  0  0  0
  -27.3983  -32.6638   41.8304 O   0  0  0  0  0  0  0  0  0  0  0  0
  -25.7457  -32.6416   43.7012 C   0  0  0  0  0  0  0  0  0  0  0  0
  -24.4613  -35.8910   42.5863 N   0  0  0  0  0  0  0  0  0  0  0  0
  -22.7680  -33.5474   40.4977 N   0  0  0  0  0  0  0  0  0  0  0  0
  -24.1955  -35.3068   41.3335 C   0  0  0  0  0  0  0  0  0  0  0  0
  -23.9684  -33.3013   35.7812 C   0  0  0  0  0  0  0  0  0  0  0  0
  -25.0174  -33.9050   41.4208 O   0  0  0  0  0  0  0  0  0  0  0  0
  -24.4012  -34.2835   44.9963 C   0  0  0  0  0  0  0  0  0  0  0  0
  -24.5206  -33.4231   37.0375 C   0  0  0  0  0  0  0  0  0  0  0  0
  -24.6527  -34.8144   43.5940 C   0  0  0  0  0  0  0  0  0  0  0  0
  1  6  1  0
  1  8  1  0
  1 24  1  0
  2  3  1  0
  2  8  1  0
  3  9  2  0
  3 21  1  0
  4 16  1  0
  4 17  1  0
  5 10  2  0
  6 11  1  0
  7 17  1  0
  7 23  1  0
  8 13  1  0
 10 14  1  0
 10 18  1  0
 11 19  1  0
 11 20  1  0
 11 22  1  0
 12 17  1  0
 12 22  1  0
 12 25  1  0
 13 19  1  0
 15 21  1  0
 18 20  1  0
 18 25  1  0
 21 24  2  0
 23 25  1  0
M  END
>  <ID>  (1) 
conformer_0

$$$$
