
     RDKit          3D

 14 15  0  0  0  0  0  0  0  0999 V2000
  -25.5294  -33.4028   41.2134 C   0  0  0  0  0  0  0  0  0  0  0  0
  -21.9424  -32.9941   36.0765 N   0  0  0  0  0  0  0  0  0  0  0  0
  -21.8213  -33.5680   38.4279 C   0  0  0  0  0  0  0  0  0  0  0  0
  -23.9640  -33.6674   37.2022 C   0  0  0  0  0  0  0  0  0  0  0  0
  -24.6844  -35.3937   42.0613 C   0  0  0  0  0  0  0  0  0  0  0  0
  -24.5239  -34.4326   40.9558 N   0  0  0  0  0  0  0  0  0  0  0  0
  -22.5742  -33.3571   37.2340 C   0  0  0  0  0  0  0  0  0  0  0  0
  -25.1284  -34.3729   43.2543 C   0  0  0  0  0  0  0  0  0  0  0  0
  -26.0681  -33.5936   42.5126 O   0  0  0  0  0  0  0  0  0  0  0  0
  -24.6412  -33.4869   36.1349 O   0  0  0  0  0  0  0  0  0  0  0  0
  -23.9101  -34.2227   39.5888 C   0  0  0  0  0  0  0  0  0  0  0  0
  -22.4955  -33.9941   39.6250 C   0  0  0  0  0  0  0  0  0  0  0  0
  -24.0351  -35.1387   43.2191 O   0  0  0  0  0  0  0  0  0  0  0  0
  -24.5496  -34.1123   38.3524 N   0  0  0  0  0  0  0  0  0  0  0  0
  1  6  1  0
  1  9  1  0
  2  7  1  0
  3  7  2  0
  3 12  1  0
  4  7  1  0
  4 10  2  0
  4 14  1  0
  5  6  1  0
  5 13  1  0
  6 11  1  0
  8  9  1  0
  8 13  1  0
 11 12  1  0
 11 14  2  0
M  END
>  <ID>  (1) 
conformer_0

$$$$
