
     RDKit          3D

 31 34  0  0  0  0  0  0  0  0999 V2000
  -24.9588  -38.0271   41.5527 O   0  0  0  0  0  0  0  0  0  0  0  0
  -25.3182  -34.9637   44.1441 O   0  0  0  0  0  0  0  0  0  0  0  0
  -24.0401  -33.1630   33.4047 C   0  0  0  0  0  0  0  0  0  0  0  0
  -21.7587  -33.4932   36.3947 N   0  0  0  0  0  0  0  0  0  0  0  0
  -24.7805  -36.5556   45.6798 O   0  0  0  0  0  0  0  0  0  0  0  0
  -24.5995  -32.1570   43.2697 O   0  0  0  0  0  0  0  0  0  0  0  0
  -23.9273  -33.0811   35.9248 C   0  0  0  0  0  0  0  0  0  0  0  0
  -24.7573  -33.6909   38.7285 C   0  0  0  0  0  0  0  0  0  0  0  0
  -26.7967  -32.2170   41.9795 C   0  0  0  0  0  0  0  0  0  0  0  0
  -24.9366  -34.6138   42.8860 C   0  0  0  0  0  0  0  0  0  0  0  0
  -25.2304  -36.2871   44.5014 C   0  0  0  0  0  0  0  0  0  0  0  0
  -24.2516  -33.4319   31.0561 N   0  0  0  0  0  0  0  0  0  0  0  0
  -25.5945  -32.9281   41.2127 C   0  0  0  0  0  0  0  0  0  0  0  0
  -22.9927  -33.3004   36.9644 C   0  0  0  0  0  0  0  0  0  0  0  0
  -25.2207  -37.0193   42.3780 C   0  0  0  0  0  0  0  0  0  0  0  0
  -23.4235  -33.5949   32.1276 C   0  0  0  0  0  0  0  0  0  0  0  0
  -21.2159  -33.7246   39.0629 C   0  0  0  0  0  0  0  0  0  0  0  0
  -23.4029  -33.8141   40.5787 C   0  0  0  0  0  0  0  0  0  0  0  0
  -27.0419  -32.8690   40.6119 C   0  0  0  0  0  0  0  0  0  0  0  0
  -25.5848  -37.2592   43.6572 O   0  0  0  0  0  0  0  0  0  0  0  0
  -23.2226  -33.1063   34.6315 C   0  0  0  0  0  0  0  0  0  0  0  0
  -22.5889  -33.5722   39.4271 C   0  0  0  0  0  0  0  0  0  0  0  0
  -24.7824  -33.7002   40.1751 C   0  0  0  0  0  0  0  0  0  0  0  0
  -21.8776  -33.4510   35.0186 C   0  0  0  0  0  0  0  0  0  0  0  0
  -25.2449  -33.0684   36.1093 O   0  0  0  0  0  0  0  0  0  0  0  0
  -24.6248  -33.2220   42.4509 C   0  0  0  0  0  0  0  0  0  0  0  0
  -23.4448  -33.7124   38.2576 C   0  0  0  0  0  0  0  0  0  0  0  0
  -22.1627  -34.0919   32.0872 O   0  0  0  0  0  0  0  0  0  0  0  0
  -23.1920  -33.3473   41.8230 O   0  0  0  0  0  0  0  0  0  0  0  0
  -24.9549  -32.1766   33.2680 O   0  0  0  0  0  0  0  0  0  0  0  0
  -24.7826  -35.7062   42.0029 C   0  0  0  0  0  0  0  0  0  0  0  0
  1 15  2  0
  2 10  1  0
  2 11  1  0
  3 16  1  0
  3 21  1  0
  3 30  1  0
  4 14  1  0
  4 24  1  0
  5 11  2  0
  6 26  1  0
  7 14  2  0
  7 21  1  0
  7 25  1  0
  8 23  1  0
  8 27  1  0
  9 19  1  0
 10 26  1  0
 10 31  2  0
 11 20  1  0
 12 16  1  0
 13 19  1  0
 13 23  1  0
 13 26  1  0
 14 27  1  0
 15 20  1  0
 15 31  1  0
 16 28  2  0
 17 22  1  0
 18 22  1  0
 18 23  1  0
 18 29  1  0
 21 24  1  0
 22 27  1  0
 26 29  1  0
M  END
>  <ID>  (1) 
conformer_0

$$$$
