
     RDKit          3D

 17 18  0  0  0  0  0  0  0  0999 V2000
  -23.8452  -34.9005   42.5862 O   0  0  0  0  0  0  0  0  0  0  0  0
  -23.8452  -33.7628   41.6824 C   0  0  0  0  0  0  0  0  0  0  0  0
  -22.8548  -33.5050   35.7824 C   0  0  0  0  0  0  0  0  0  0  0  0
  -24.9782  -33.5616   36.8787 N   0  0  0  0  0  0  0  0  0  0  0  0
  -22.7123  -33.5628   40.8027 C   0  0  0  0  0  0  0  0  0  0  0  0
  -25.0316  -33.7503   40.8171 C   0  0  0  0  0  0  0  0  0  0  0  0
  -24.2326  -33.4627   35.7501 N   0  0  0  0  0  0  0  0  0  0  0  0
  -23.0354  -33.6917   38.0970 C   0  0  0  0  0  0  0  0  0  0  0  0
  -24.0903  -36.0799   44.8016 O   0  0  0  0  0  1  0  0  0  0  0  0
  -24.3768  -33.6868   38.0157 C   0  0  0  0  0  0  0  0  0  0  0  0
  -24.7840  -35.1676   43.8318 P   0  0  0  0  0  4  0  0  0  0  0  0
  -22.1033  -33.5186   34.5642 C   0  0  0  0  0  0  0  0  0  0  0  0
  -26.0664  -35.8211   43.3962 O   0  0  0  0  0  0  0  0  0  0  0  0
  -24.7648  -33.8968   39.4120 C   0  0  0  0  0  0  0  0  0  0  0  0
  -22.8899  -33.8607   39.4898 N   0  0  0  0  0  0  0  0  0  0  0  0
  -25.0815  -33.8069   44.4915 O   0  0  0  0  0  0  0  0  0  0  0  0
  -22.2789  -33.5851   37.0161 N   0  0  0  0  0  0  0  0  0  0  0  0
  1  2  1  0
  1 11  1  0
  2  5  1  0
  2  6  1  0
  3  7  2  0
  3 12  1  0
  3 17  1  0
  4  7  1  0
  4 10  1  0
  5 15  1  0
  6 14  2  0
  8 10  1  0
  8 15  1  0
  8 17  2  0
  9 11  2  0
 10 14  2  0
 11 13  1  0
 11 16  1  0
M  END
>  <ID>  (1) 
conformer_0

$$$$
