
     RDKit          3D

 23 25  0  0  0  0  0  0  0  0999 V2000
  -24.2484  -35.1583   44.9637 P   0  0  0  0  0  4  0  0  0  0  0  0
  -24.7256  -34.2587   41.7185 C   0  0  0  0  0  0  0  0  0  0  0  0
  -25.4656  -33.6752   40.6011 C   0  0  0  0  0  0  0  0  0  0  0  0
  -24.6863  -33.8647   45.6383 O   0  0  0  0  0  1  0  0  0  0  0  0
  -24.1147  -33.0819   35.2698 C   0  0  0  0  0  0  0  0  0  0  0  0
  -22.5748  -33.8795   38.5425 C   0  0  0  0  0  0  0  0  0  0  0  0
  -23.4204  -34.5328   41.1156 C   0  0  0  0  0  0  0  0  0  0  0  0
  -24.7980  -33.7422   39.3306 C   0  0  0  0  0  0  0  0  0  0  0  0
  -21.9741  -33.7626   35.5503 N   0  0  0  0  0  0  0  0  0  0  0  0
  -25.3766  -34.1562   42.9746 C   0  0  0  0  0  0  0  0  0  0  0  0
  -22.1403  -33.4555   34.2493 C   0  0  0  0  0  0  0  0  0  0  0  0
  -23.1399  -33.4913   36.1469 C   0  0  0  0  0  0  0  0  0  0  0  0
  -23.3986  -33.9263   39.7659 C   0  0  0  0  0  0  0  0  0  0  0  0
  -25.2585  -36.2859   45.1374 O   0  0  0  0  0  0  0  0  0  0  0  0
  -24.8073  -33.4566   37.9021 N   0  0  0  0  0  0  0  0  0  0  0  0
  -25.3791  -32.8810   35.6792 N   0  0  0  0  0  0  0  0  0  0  0  0
  -25.9485  -32.3865   40.9532 O   0  0  0  0  0  0  0  0  0  0  0  0
  -22.9774  -33.2407   40.8351 O   0  0  0  0  0  0  0  0  0  0  0  0
  -25.6805  -33.0792   36.9801 C   0  0  0  0  0  0  0  0  0  0  0  0
  -23.5263  -33.6161   37.4815 C   0  0  0  0  0  0  0  0  0  0  0  0
  -24.2491  -34.8885   43.3405 O   0  0  0  0  0  0  0  0  0  0  0  0
  -23.4413  -32.9723   34.0481 N   0  0  0  0  0  0  0  0  0  0  0  0
  -22.8532  -35.5040   45.3145 O   0  0  0  0  0  0  0  0  0  0  0  0
  1  4  2  0
  1 14  1  0
  1 21  1  0
  1 23  1  0
  2  3  1  0
  2  7  1  0
  2 10  1  0
  3  8  1  0
  3 17  1  0
  5 12  2  0
  5 16  1  0
  5 22  1  0
  6 13  1  0
  6 20  1  0
  8 13  1  0
  8 15  1  0
  9 11  1  0
  9 12  1  0
 10 21  1  0
 11 22  1  0
 12 20  1  0
 13 18  1  0
 15 19  1  0
 15 20  1  0
 16 19  2  0
M  END
>  <ID>  (1) 
conformer_0

$$$$
