
     RDKit          3D

 22 24  0  0  0  0  0  0  0  0999 V2000
  -26.7481  -33.2701   41.2561 O   0  0  0  0  0  0  0  0  0  0  0  0
  -27.1424  -33.5254   39.0031 O   0  0  0  0  0  0  0  0  0  0  0  0
  -24.9292  -35.8460   42.4506 C   0  0  0  0  0  0  0  0  0  0  0  0
  -24.5026  -33.7666   41.5614 C   0  0  0  0  0  0  0  0  0  0  0  0
  -21.3976  -33.7738   39.2141 C   0  0  0  0  0  0  0  0  0  0  0  0
  -24.1432  -34.7918   42.5992 O   0  0  0  0  0  0  0  0  0  0  0  0
  -22.5635  -33.5613   37.1757 C   0  0  0  0  0  0  0  0  0  0  0  0
  -26.1056  -33.2413   39.9115 C   0  0  0  0  0  0  0  0  0  0  0  0
  -24.8935  -33.9664   40.1184 C   0  0  0  0  0  0  0  0  0  0  0  0
  -22.8796  -33.4189   35.7906 C   0  0  0  0  0  0  0  0  0  0  0  0
  -25.2700  -36.7534   43.6377 C   0  0  0  0  0  0  0  0  0  0  0  0
  -21.4438  -33.6085   37.8936 N   0  0  0  0  0  0  0  0  0  0  0  0
  -22.1185  -33.3060   34.7307 O   0  0  0  0  0  0  0  0  0  0  0  0
  -25.1133  -37.9675   43.4500 O   0  0  0  0  0  0  0  0  0  0  0  0
  -25.6899  -33.1732   42.1943 C   0  0  0  0  0  0  0  0  0  0  0  0
  -24.8006  -33.6408   37.1011 N   0  0  0  0  0  0  0  0  0  0  0  0
  -24.3067  -33.4619   35.8382 C   0  0  0  0  0  0  0  0  0  0  0  0
  -24.9184  -36.3947   41.2305 O   0  0  0  0  0  0  0  0  0  0  0  0
  -23.6909  -33.8260   39.2814 N   0  0  0  0  0  0  0  0  0  0  0  0
  -23.7729  -33.6903   37.9461 C   0  0  0  0  0  0  0  0  0  0  0  0
  -25.3321  -36.2534   44.7419 O   0  0  0  0  0  0  0  0  0  0  0  0
  -22.5170  -33.8532   39.9201 C   0  0  0  0  0  0  0  0  0  0  0  0
  1  8  1  0
  1 15  1  0
  2  8  1  0
  3  6  1  0
  3 11  1  0
  3 18  2  0
  4  6  1  0
  4  9  1  0
  4 15  1  0
  5 12  1  0
  5 22  2  0
  7 10  2  0
  7 12  1  0
  7 20  1  0
  8  9  1  0
  9 19  1  0
 10 13  1  0
 10 17  1  0
 11 14  2  0
 11 21  1  0
 16 17  1  0
 16 20  2  0
 19 20  1  0
 19 22  1  0
M  END
>  <ID>  (1) 
conformer_0

$$$$
