
     RDKit          3D

 25 27  0  0  0  0  0  0  0  0999 V2000
  -24.7994  -33.6476   41.4591 C   0  0  0  0  0  0  0  0  0  0  0  0
  -22.0930  -33.3989   36.0887 N   0  0  0  0  0  0  0  0  0  0  0  0
  -21.3489  -33.7465   39.1315 N   0  0  0  0  0  0  0  0  0  0  0  0
  -26.7921  -32.1834   42.0911 O   0  0  0  0  0  0  0  0  0  0  0  0
  -22.5619  -33.6415   38.5058 C   0  0  0  0  0  0  0  0  0  0  0  0
  -25.2049  -33.0498   43.7893 C   0  0  0  0  0  0  0  0  0  0  0  0
  -25.2028  -36.8408   43.4047 C   0  0  0  0  0  0  0  0  0  0  0  0
  -24.3145  -33.5319   37.0188 C   0  0  0  0  0  0  0  0  0  0  0  0
  -23.7752  -34.6705   44.8028 O   0  0  0  0  0  0  0  0  0  0  0  0
  -24.8985  -36.0099   40.7528 O   0  0  0  0  0  0  0  0  0  0  0  0
  -25.0669  -35.4680   43.0433 C   0  0  0  0  0  0  0  0  0  0  0  0
  -24.7515  -32.2500   44.8778 O   0  0  0  0  0  0  0  0  0  0  0  0
  -24.8588  -37.8255   42.7043 O   0  0  0  0  0  0  0  0  0  0  0  0
  -25.7419  -37.0725   44.5167 O   0  0  0  0  0  0  0  0  0  0  0  0
  -24.8135  -33.6260   38.3516 C   0  0  0  0  0  0  0  0  0  0  0  0
  -23.7656  -33.7491   39.2265 C   0  0  0  0  0  0  0  0  0  0  0  0
  -24.3865  -32.8651   42.5832 C   0  0  0  0  0  0  0  0  0  0  0  0
  -26.4877  -32.3007   43.4786 C   0  0  0  0  0  0  0  0  0  0  0  0
  -24.9270  -35.0570   41.6994 C   0  0  0  0  0  0  0  0  0  0  0  0
  -23.9171  -33.3108   34.6667 C   0  0  0  0  0  0  0  0  0  0  0  0
  -23.6569  -33.3635   40.6372 C   0  0  0  0  0  0  0  0  0  0  0  0
  -25.0026  -34.5101   44.0913 C   0  0  0  0  0  0  0  0  0  0  0  0
  -22.9008  -33.5099   37.1160 C   0  0  0  0  0  0  0  0  0  0  0  0
  -22.5212  -33.3652   34.8265 C   0  0  0  0  0  0  0  0  0  0  0  0
  -24.7279  -33.3407   35.7476 C   0  0  0  0  0  0  0  0  0  0  0  0
  1 17  1  0
  1 19  1  0
  1 21  1  0
  2 23  2  0
  2 24  1  0
  3  5  1  0
  4 18  1  0
  5 16  1  0
  5 23  1  0
  6 12  1  0
  6 17  1  0
  6 18  1  0
  6 22  1  0
  7 11  1  0
  7 13  2  0
  7 14  1  0
  8 15  1  0
  8 23  1  0
  8 25  2  0
  9 22  1  0
 10 19  1  0
 11 19  2  0
 11 22  1  0
 15 16  1  0
 16 21  1  0
 20 24  2  0
 20 25  1  0
M  END
>  <ID>  (1) 
conformer_0

$$$$
