
     RDKit          3D

 18 19  0  0  0  0  0  0  0  0999 V2000
  -23.0801  -34.1113   39.4676 N   0  0  0  0  0  0  0  0  0  0  0  0
  -24.8379  -35.4021   43.1878 P   0  0  0  0  0  4  0  0  0  0  0  0
  -22.4449  -33.0960   35.5614 N   0  0  0  0  0  0  0  0  0  0  0  0
  -23.8319  -33.6222   37.3066 C   0  0  0  0  0  0  0  0  0  0  0  0
  -23.7766  -33.0361   35.1017 C   0  0  0  0  0  0  0  0  0  0  0  0
  -25.1428  -34.2667   40.8144 C   0  0  0  0  0  0  0  0  0  0  0  0
  -24.5815  -33.3864   36.1664 N   0  0  0  0  0  0  0  0  0  0  0  0
  -21.5298  -33.5360   37.8331 N   0  0  0  0  0  0  0  0  0  0  0  0
  -21.8421  -33.8211   39.1157 C   0  0  0  0  0  0  0  0  0  0  0  0
  -26.2208  -33.4947   40.3862 O   0  0  0  0  0  0  0  0  0  0  0  0
  -24.1997  -34.6365   39.6901 C   0  0  0  0  0  0  0  0  0  0  0  0
  -23.7715  -35.3907   44.2369 O   0  0  0  0  0  1  0  0  0  0  0  0
  -26.1077  -34.9801   43.6237 O   0  0  0  0  0  0  0  0  0  0  0  0
  -24.8661  -36.6825   42.3975 O   0  0  0  0  0  0  0  0  0  0  0  0
  -22.5360  -33.4067   36.9026 C   0  0  0  0  0  0  0  0  0  0  0  0
  -23.9191  -34.0069   38.6411 C   0  0  0  0  0  0  0  0  0  0  0  0
  -24.3743  -34.0117   42.0619 C   0  0  0  0  0  0  0  0  0  0  0  0
  -23.3012  -33.4520   42.0427 O   0  0  0  0  0  0  0  0  0  0  0  0
  1  9  2  0
  1 16  1  0
  2 12  2  0
  2 13  1  0
  2 14  1  0
  2 17  1  0
  3  5  1  0
  3 15  1  0
  4  7  1  0
  4 15  1  0
  4 16  2  0
  5  7  1  0
  6 10  1  0
  6 11  1  0
  6 17  1  0
  8  9  1  0
  8 15  2  0
 11 16  1  0
 17 18  2  0
M  END
>  <ID>  (1) 
conformer_0

$$$$
