
     RDKit          3D

 21 22  0  0  0  0  0  0  0  0999 V2000
  -22.0580  -33.5662   34.6618 C   0  0  0  0  0  0  0  0  0  0  0  0
  -24.2235  -32.8180   34.5940 C   0  0  0  0  0  0  0  0  0  0  0  0
  -22.9334  -33.4178   41.2230 O   0  0  0  0  0  0  0  0  0  0  0  0
  -24.4592  -35.1479   41.6185 C   0  0  0  0  0  0  0  0  0  0  0  0
  -23.8767  -33.6197   37.8107 C   0  0  0  0  0  0  0  0  0  0  0  0
  -24.0942  -35.6774   44.4432 O   0  0  0  0  0  1  0  0  0  0  0  0
  -23.0355  -33.0030   33.9317 N   0  0  0  0  0  0  0  0  0  0  0  0
  -25.6084  -35.4181   42.5036 O   0  0  0  0  0  0  0  0  0  0  0  0
  -24.4080  -33.6285   41.4841 C   0  0  0  0  0  0  0  0  0  0  0  0
  -24.4978  -33.0466   35.8298 C   0  0  0  0  0  0  0  0  0  0  0  0
  -26.5156  -36.4754   44.6041 O   0  0  0  0  0  0  0  0  0  0  0  0
  -25.2589  -36.3573   43.7703 P   0  0  0  0  0  4  0  0  0  0  0  0
  -24.9383  -37.7177   43.2189 O   0  0  0  0  0  0  0  0  0  0  0  0
  -21.5041  -33.9620   39.2660 O   0  0  0  0  0  0  0  0  0  0  0  0
  -23.9328  -33.8876   39.1780 C   0  0  0  0  0  0  0  0  0  0  0  0
  -22.8526  -33.7016   36.9534 C   0  0  0  0  0  0  0  0  0  0  0  0
  -24.9140  -33.3550   40.0872 C   0  0  0  0  0  0  0  0  0  0  0  0
  -22.6962  -33.9712   39.9851 C   0  0  0  0  0  0  0  0  0  0  0  0
  -26.2087  -33.6516   39.8765 O   0  0  0  0  0  0  0  0  0  0  0  0
  -24.9628  -33.2504   37.0819 N   0  0  0  0  0  0  0  0  0  0  0  0
  -22.1042  -33.7664   35.9374 N   0  0  0  0  0  0  0  0  0  0  0  0
  1  7  1  0
  1 21  2  0
  2  7  2  0
  2 10  1  0
  3  9  1  0
  3 18  1  0
  4  8  1  0
  4  9  1  0
  5 15  1  0
  5 16  1  0
  5 20  1  0
  6 12  2  0
  8 12  1  0
  9 17  1  0
 10 20  1  0
 11 12  1  0
 12 13  1  0
 14 18  2  0
 15 17  1  0
 15 18  1  0
 16 21  1  0
 17 19  1  0
M  END
>  <ID>  (1) 
conformer_0

$$$$
