
     RDKit          3D

 20 21  0  0  0  0  0  0  0  0999 V2000
  -25.5278  -37.4472   43.2073 O   0  0  0  0  0  0  0  0  0  0  0  0
  -22.6882  -33.6931   39.7927 N   0  0  0  0  0  0  0  0  0  0  0  0
  -24.6261  -35.6613   42.0101 O   0  0  0  0  0  0  0  0  0  0  0  0
  -27.2828  -32.6428   42.1086 O   0  0  0  0  0  0  0  0  0  0  0  0
  -25.4007  -33.8141   43.1602 C   0  0  0  0  0  0  0  0  0  0  0  0
  -24.4395  -34.2971   42.1112 C   0  0  0  0  0  0  0  0  0  0  0  0
  -21.7485  -33.6706   38.9070 C   0  0  0  0  0  0  0  0  0  0  0  0
  -24.8616  -33.5206   40.9253 C   0  0  0  0  0  0  0  0  0  0  0  0
  -22.1729  -33.1303   34.6989 N   0  0  0  0  0  0  0  0  0  0  0  0
  -21.7641  -33.5703   37.5546 N   0  0  0  0  0  0  0  0  0  0  0  0
  -24.2100  -35.9638   44.2785 O   0  0  0  0  0  0  0  0  0  0  0  0
  -22.9600  -33.5480   36.9072 C   0  0  0  0  0  0  0  0  0  0  0  0
  -24.7374  -33.7820   38.5398 N   0  0  0  0  0  0  0  0  0  0  0  0
  -24.0475  -33.6713   39.6979 C   0  0  0  0  0  0  0  0  0  0  0  0
  -25.0532  -32.2407   41.4615 O   0  0  0  0  0  0  0  0  0  0  0  0
  -25.9752  -32.5405   42.6108 C   0  0  0  0  0  0  0  0  0  0  0  0
  -24.8787  -36.3236   43.2698 C   0  0  0  0  0  0  0  0  0  0  0  0
  -23.1672  -33.4716   35.4804 C   0  0  0  0  0  0  0  0  0  0  0  0
  -24.0157  -33.6934   37.6475 C   0  0  0  0  0  0  0  0  0  0  0  0
  -24.3066  -33.6520   35.0329 O   0  0  0  0  0  0  0  0  0  0  0  0
  1 17  2  0
  2  7  2  0
  2 14  1  0
  3  6  1  0
  3 17  1  0
  4 16  1  0
  5  6  1  0
  5 16  1  0
  6  8  1  0
  7 10  1  0
  8 14  1  0
  8 15  1  0
  9 18  1  0
 10 12  2  0
 11 17  1  0
 12 18  1  0
 12 19  1  0
 13 14  2  0
 13 19  1  0
 15 16  1  0
 18 20  2  0
M  END
>  <ID>  (1) 
conformer_0

$$$$
