
     RDKit          3D

 21 22  0  0  0  0  0  0  0  0999 V2000
  -26.1123  -36.4298   44.2224 O   0  0  0  0  0  1  0  0  0  0  0  0
  -21.7709  -33.6206   39.0753 C   0  0  0  0  0  0  0  0  0  0  0  0
  -23.2193  -33.0333   34.0740 C   0  0  0  0  0  0  0  0  0  0  0  0
  -26.6391  -32.2125   42.1084 O   0  0  0  0  0  0  0  0  0  0  0  0
  -26.8204  -33.7190   40.4163 O   0  0  0  0  0  0  0  0  0  0  0  0
  -22.5284  -33.6502   37.9358 C   0  0  0  0  0  0  0  0  0  0  0  0
  -23.8252  -35.4332   44.0382 O   0  0  0  0  0  0  0  0  0  0  0  0
  -24.5487  -33.6719   41.7967 C   0  0  0  0  0  0  0  0  0  0  0  0
  -25.0955  -35.8298   43.2854 P   0  0  0  0  0  4  0  0  0  0  0  0
  -24.9314  -33.3155   35.7002 N   0  0  0  0  0  0  0  0  0  0  0  0
  -24.7646  -33.7961   36.8925 C   0  0  0  0  0  0  0  0  0  0  0  0
  -26.0640  -33.3569   41.5109 C   0  0  0  0  0  0  0  0  0  0  0  0
  -23.9491  -33.7433   38.0755 C   0  0  0  0  0  0  0  0  0  0  0  0
  -24.4986  -32.3691   34.6889 C   0  0  0  0  0  0  0  0  0  0  0  0
  -22.0016  -33.5681   36.6481 N   0  0  0  0  0  0  0  0  0  0  0  0
  -25.7635  -34.4316   42.5611 C   0  0  0  0  0  0  0  0  0  0  0  0
  -23.7844  -33.7386   40.4740 C   0  0  0  0  0  0  0  0  0  0  0  0
  -24.4467  -33.7978   39.3145 C   0  0  0  0  0  0  0  0  0  0  0  0
  -22.4084  -33.5891   35.2648 C   0  0  0  0  0  0  0  0  0  0  0  0
  -24.7898  -36.8092   42.0781 O   0  0  0  0  0  0  0  0  0  0  0  0
  -22.4053  -33.7064   40.3570 C   0  0  0  0  0  0  0  0  0  0  0  0
  1  9  2  0
  2  6  2  0
  2 21  1  0
  3 14  1  0
  3 19  1  0
  4 12  1  0
  5 12  1  0
  6 13  1  0
  6 15  1  0
  7  9  1  0
  8 12  1  0
  8 17  1  0
  9 16  1  0
  9 20  1  0
 10 11  2  0
 10 14  1  0
 11 13  1  0
 12 16  1  0
 13 18  2  0
 15 19  1  0
 17 18  1  0
 17 21  2  0
M  END
>  <ID>  (1) 
conformer_0

$$$$
