
     RDKit          3D

 15 16  0  0  0  0  0  0  0  0999 V2000
  -24.6688  -34.2163   39.4791 C   0  0  0  0  0  0  0  0  0  0  0  0
  -24.1727  -33.8710   38.2811 C   0  0  0  0  0  0  0  0  0  0  0  0
  -24.7964  -35.4262   43.1723 P   0  0  0  0  0  4  0  0  0  0  0  0
  -23.6444  -35.3126   44.2197 O   0  0  0  0  0  1  0  0  0  0  0  0
  -23.1729  -33.1833   35.8449 N   0  0  0  0  0  0  0  0  0  0  0  0
  -22.0192  -33.6512   39.2538 C   0  0  0  0  0  0  0  0  0  0  0  0
  -25.2267  -36.9726   43.0588 O   0  0  0  0  0  0  0  0  0  0  0  0
  -23.8556  -34.3200   40.5577 C   0  0  0  0  0  0  0  0  0  0  0  0
  -22.8268  -33.6176   38.1091 C   0  0  0  0  0  0  0  0  0  0  0  0
  -22.3533  -33.2926   36.8682 C   0  0  0  0  0  0  0  0  0  0  0  0
  -22.5314  -33.9590   40.4346 C   0  0  0  0  0  0  0  0  0  0  0  0
  -24.4583  -33.4481   36.0244 C   0  0  0  0  0  0  0  0  0  0  0  0
  -24.9605  -33.7814   37.1748 N   0  0  0  0  0  0  0  0  0  0  0  0
  -25.9484  -34.6161   43.6879 O   0  0  0  0  0  0  0  0  0  0  0  0
  -24.3701  -34.7830   41.7676 C   0  0  0  0  0  0  0  0  0  0  0  0
  1  2  2  0
  1  8  1  0
  2  9  1  0
  2 13  1  0
  3  4  2  0
  3  7  1  0
  3 14  1  0
  3 15  1  0
  5 10  2  0
  5 12  1  0
  6  9  1  0
  6 11  2  0
  8 11  1  0
  8 15  1  0
  9 10  1  0
 12 13  2  0
M  END
>  <ID>  (1) 
conformer_0

$$$$
