
     RDKit          3D

 30 32  0  0  0  0  0  0  0  0999 V2000
  -22.3716  -33.1931   34.4947 N   0  0  0  0  0  0  0  0  0  0  0  0
  -24.9120  -33.1331   41.5931 N   0  0  0  0  0  0  0  0  0  0  0  0
  -23.4409  -33.7879   39.0617 C   0  0  0  0  0  0  0  0  0  0  0  0
  -24.2764  -31.7578   43.6540 O   0  0  0  0  0  0  0  0  0  0  0  0
  -23.5061  -33.4584   41.5310 C   0  0  0  0  0  0  0  0  0  0  0  0
  -24.2040  -35.6647   45.4104 C   0  0  0  0  0  0  0  0  0  0  0  0
  -22.8684  -33.4324   36.8040 C   0  0  0  0  0  0  0  0  0  0  0  0
  -23.0105  -34.3111   40.4505 C   0  0  0  0  0  0  0  0  0  0  0  0
  -23.6915  -33.1570   34.2424 C   0  0  0  0  0  0  0  0  0  0  0  0
  -22.0029  -33.4056   35.7328 N   0  0  0  0  0  0  0  0  0  0  0  0
  -25.3559  -34.0121   44.0188 O   0  0  0  0  0  0  0  0  0  0  0  0
  -25.8343  -37.0363   44.1565 C   0  0  0  0  0  0  0  0  0  0  0  0
  -24.2248  -33.2269   32.8358 C   0  0  0  0  0  0  0  0  0  0  0  0
  -22.4841  -33.6641   38.1231 C   0  0  0  0  0  0  0  0  0  0  0  0
  -25.3974  -38.1380   41.9819 N   0  0  0  0  0  0  0  0  0  0  0  0
  -26.2849  -33.3608   40.9151 C   0  0  0  0  0  0  0  0  0  0  0  0
  -24.3302  -33.2578   46.2021 C   0  0  0  0  0  0  0  0  0  0  0  0
  -24.5518  -33.1239   35.2593 N   0  0  0  0  0  0  0  0  0  0  0  0
  -25.3483  -37.1066   42.7855 C   0  0  0  0  0  0  0  0  0  0  0  0
  -24.7381  -33.4995   38.7281 C   0  0  0  0  0  0  0  0  0  0  0  0
  -25.0007  -37.7872   40.6598 C   0  0  0  0  0  0  0  0  0  0  0  0
  -24.2133  -33.2392   36.5156 C   0  0  0  0  0  0  0  0  0  0  0  0
  -25.3531  -36.5639   45.4766 C   0  0  0  0  0  0  0  0  0  0  0  0
  -24.6781  -36.5927   40.7183 C   0  0  0  0  0  0  0  0  0  0  0  0
  -24.9135  -36.1919   41.9869 N   0  0  0  0  0  0  0  0  0  0  0  0
  -24.5901  -34.3336   45.0893 C   0  0  0  0  0  0  0  0  0  0  0  0
  -25.6249  -37.8752   45.1287 C   0  0  0  0  0  0  0  0  0  0  0  0
  -25.3160  -32.6581   43.1826 S   0  0  0  0  0  4  0  0  0  0  0  0
  -26.6405  -31.8973   43.2436 O   0  0  0  0  0  0  0  0  0  0  0  0
  -25.2064  -33.2737   37.5041 C   0  0  0  0  0  0  0  0  0  0  0  0
  1  9  2  0
  1 10  1  0
  2  5  1  0
  2 16  1  0
  2 28  1  0
  3  8  1  0
  3 14  1  0
  3 20  2  0
  4 28  1  0
  5  8  1  0
  6 23  1  0
  6 26  1  0
  7 10  1  0
  7 14  2  0
  7 22  1  0
  9 13  1  0
  9 18  1  0
 11 26  1  0
 11 28  1  0
 12 19  1  0
 12 27  1  0
 15 19  1  0
 15 21  1  0
 17 26  1  0
 18 22  2  0
 19 25  2  0
 20 30  1  0
 21 24  1  0
 22 30  1  0
 23 27  1  0
 24 25  1  0
 28 29  1  0
M  END
>  <ID>  (1) 
conformer_0

$$$$
