
     RDKit          3D

 23 25  0  0  0  0  0  0  0  0999 V2000
  -23.7724  -33.7872   40.5822 N   0  0  0  0  0  0  0  0  0  0  0  0
  -26.5801  -33.6116   42.1362 O   0  0  0  0  0  0  0  0  0  0  0  0
  -22.6016  -33.4405   34.6418 N   0  0  0  0  0  0  0  0  0  0  0  0
  -25.3172  -33.1104   42.5967 C   0  0  0  0  0  0  0  0  0  0  0  0
  -25.0589  -33.8531   38.6854 N   0  0  0  0  0  0  0  0  0  0  0  0
  -22.5748  -33.6065   38.2103 C   0  0  0  0  0  0  0  0  0  0  0  0
  -25.1651  -31.6679   42.3848 O   0  0  0  0  0  0  0  0  0  0  0  0
  -24.5416  -33.8322   39.5549 C   0  0  0  0  0  0  0  0  0  0  0  0
  -25.3775  -37.1003   43.2456 C   0  0  0  0  0  0  0  0  0  0  0  0
  -25.2946  -33.3556   44.1323 C   0  0  0  0  0  0  0  0  0  0  0  0
  -25.2824  -35.6351   43.1928 C   0  0  0  0  0  0  0  0  0  0  0  0
  -24.9919  -37.6855   42.1463 O   0  0  0  0  0  0  0  0  0  0  0  0
  -24.2309  -33.8973   42.0339 C   0  0  0  0  0  0  0  0  0  0  0  0
  -25.4004  -34.8505   44.3813 C   0  0  0  0  0  0  0  0  0  0  0  0
  -24.0032  -33.7117   38.1301 C   0  0  0  0  0  0  0  0  0  0  0  0
  -22.8806  -33.5222   35.9870 C   0  0  0  0  0  0  0  0  0  0  0  0
  -24.0947  -35.2369   42.5011 O   0  0  0  0  0  0  0  0  0  0  0  0
  -25.7347  -32.2146   44.7904 O   0  0  0  0  0  0  0  0  0  0  0  0
  -25.3061  -37.6806   44.3253 O   0  0  0  0  0  0  0  0  0  0  0  0
  -24.0497  -33.6554   36.5515 N   0  0  0  0  0  0  0  0  0  0  0  0
  -22.4495  -33.6449   40.4560 C   0  0  0  0  0  0  0  0  0  0  0  0
  -21.8595  -33.5679   39.3106 N   0  0  0  0  0  0  0  0  0  0  0  0
  -21.9570  -33.4990   36.9334 N   0  0  0  0  0  0  0  0  0  0  0  0
  1  8  1  0
  1 13  1  0
  1 21  1  0
  2  4  1  0
  3 16  2  0
  4  7  1  0
  4 10  1  0
  4 13  1  0
  5  8  1  0
  5 15  1  0
  6 15  2  0
  6 22  1  0
  6 23  1  0
  9 11  1  0
  9 12  2  0
  9 19  1  0
 10 14  1  0
 10 18  1  0
 11 14  1  0
 11 17  1  0
 13 17  1  0
 15 20  1  0
 16 20  1  0
 16 23  1  0
 21 22  2  0
M  END
>  <ID>  (1) 
conformer_0

$$$$
