
     RDKit          3D

 27 29  0  0  0  0  0  0  0  0999 V2000
  -25.5002  -36.7544   44.5007 S   0  0  0  0  0  4  0  0  0  0  0  0
  -21.4463  -33.7829   39.5185 C   0  0  0  0  0  0  0  0  0  0  0  0
  -24.5917  -35.5209   40.6690 C   0  0  0  0  0  0  0  0  0  0  0  0
  -24.7516  -33.0785   43.2379 C   0  0  0  0  0  0  0  0  0  0  0  0
  -26.8812  -33.1187   42.0553 O   0  0  0  0  0  0  0  0  0  0  0  0
  -22.8185  -33.7730   39.7910 C   0  0  0  0  0  0  0  0  0  0  0  0
  -24.7621  -33.3600   36.7275 C   0  0  0  0  0  0  0  0  0  0  0  0
  -25.8370  -33.2045   35.9947 N   0  0  0  0  0  0  0  0  0  0  0  0
  -24.4837  -36.4833   45.5906 O   0  0  0  0  0  0  0  0  0  0  0  0
  -25.6551  -35.3462   43.7677 O   0  0  0  0  0  0  0  0  0  0  0  0
  -24.9819  -37.7584   43.4628 O   0  0  0  0  0  0  0  0  0  0  0  0
  -21.8283  -33.2775   34.6080 O   0  0  0  0  0  0  0  0  0  0  0  0
  -26.7528  -37.3605   45.1174 O   0  0  0  0  0  0  0  0  0  0  0  0
  -23.4935  -33.4605   40.9723 O   0  0  0  0  0  0  0  0  0  0  0  0
  -23.0669  -33.1077   34.9383 C   0  0  0  0  0  0  0  0  0  0  0  0
  -24.8251  -33.5656   38.0689 O   0  0  0  0  0  0  0  0  0  0  0  0
  -23.5021  -33.6678   38.5647 C   0  0  0  0  0  0  0  0  0  0  0  0
  -25.6117  -33.3617   42.0707 C   0  0  0  0  0  0  0  0  0  0  0  0
  -23.9745  -32.8995   34.0546 O   0  0  0  0  0  0  0  0  0  0  0  0
  -23.4002  -33.3094   36.2922 C   0  0  0  0  0  0  0  0  0  0  0  0
  -24.8882  -34.0612   41.0099 C   0  0  0  0  0  0  0  0  0  0  0  0
  -24.6790  -31.7971   43.6337 O   0  0  0  0  0  0  0  0  0  0  0  0
  -25.3862  -37.8257   42.1672 C   0  0  0  0  0  0  0  0  0  0  0  0
  -24.7084  -34.3061   44.0970 C   0  0  0  0  0  0  0  0  0  0  0  0
  -22.6304  -33.5546   37.4592 C   0  0  0  0  0  0  0  0  0  0  0  0
  -21.3993  -33.6509   38.0263 N   0  0  0  0  0  0  0  0  0  0  0  0
  -24.7168  -37.0289   41.0996 C   0  0  0  0  0  0  0  0  0  0  0  0
  1  9  1  0
  1 10  1  0
  1 11  1  0
  1 13  1  0
  2  6  1  0
  2 26  1  0
  3 21  1  0
  3 27  2  0
  4 18  1  0
  4 22  1  0
  4 24  1  0
  5 18  1  0
  6 14  1  0
  6 17  1  0
  7  8  2  0
  7 16  1  0
  7 20  1  0
 10 24  1  0
 11 23  1  0
 12 15  2  0
 14 21  1  0
 15 19  1  0
 15 20  1  0
 16 17  1  0
 17 25  1  0
 18 21  1  0
 20 25  2  0
 23 27  1  0
 25 26  1  0
M  END
>  <ID>  (1) 
conformer_0

$$$$
