
     RDKit          3D

 13 13  0  0  0  0  0  0  0  0999 V2000
  -23.8606  -34.3243   39.9537 C   0  0  0  0  0  0  0  0  0  0  0  0
  -23.8096  -34.6828   43.0504 O   0  0  0  0  0  0  0  0  0  0  0  0
  -22.5063  -34.1525   40.2827 C   0  0  0  0  0  0  0  0  0  0  0  0
  -21.5893  -33.7740   39.3489 C   0  0  0  0  0  0  0  0  0  0  0  0
  -24.8582  -34.7055   40.9041 C   0  0  0  0  0  0  0  0  0  0  0  0
  -25.7312  -35.6509   42.8537 O   0  0  0  0  0  0  0  0  0  0  0  0
  -23.2905  -33.7640   37.6163 C   0  0  0  0  0  0  0  0  0  0  0  0
  -24.7468  -35.0606   42.3326 C   0  0  0  0  0  0  0  0  0  0  0  0
  -21.9489  -33.5851   38.0255 C   0  0  0  0  0  0  0  0  0  0  0  0
  -24.2000  -34.0866   38.6185 C   0  0  0  0  0  0  0  0  0  0  0  0
  -24.5529  -34.2122   35.6564 O   0  0  0  0  0  0  0  0  0  0  0  0
  -22.6865  -33.0363   35.3743 O   0  0  0  0  0  0  0  0  0  0  0  0
  -23.5983  -33.6062   36.1715 C   0  0  0  0  0  0  0  0  0  0  0  0
  1  3  2  0
  1  5  1  0
  1 10  1  0
  2  8  2  0
  3  4  1  0
  4  9  2  0
  5  8  1  0
  6  8  1  0
  7  9  1  0
  7 10  2  0
  7 13  1  0
 11 13  2  0
 12 13  1  0
M  END
>  <ID>  (1) 
conformer_0

$$$$
