
     RDKit          3D

 21 22  0  0  0  0  0  0  0  0999 V2000
  -24.2606  -36.8144   41.1415 O   0  0  0  0  0  0  0  0  0  0  0  0
  -24.8376  -34.4523   40.8627 C   0  0  0  0  0  0  0  0  0  0  0  0
  -25.3448  -33.2824   36.1769 N   0  0  0  0  0  0  0  0  0  0  0  0
  -23.9058  -33.3436   42.9296 C   0  0  0  0  0  0  0  0  0  0  0  0
  -25.8395  -31.9581   42.9726 C   0  0  0  0  0  0  0  0  0  0  0  0
  -21.2382  -33.3882   37.6863 N   0  0  0  0  0  0  0  0  0  0  0  0
  -25.0226  -36.7509   43.7909 O   0  0  0  0  0  0  0  0  0  0  0  0
  -24.7187  -33.5765   37.2821 C   0  0  0  0  0  0  0  0  0  0  0  0
  -25.9345  -34.5522   43.3433 O   0  0  0  0  0  0  0  0  0  0  0  0
  -22.8136  -33.8689   39.2912 C   0  0  0  0  0  0  0  0  0  0  0  0
  -25.0935  -34.0171   38.5139 N   0  0  0  0  0  0  0  0  0  0  0  0
  -23.2598  -32.9380   35.7655 N   0  0  0  0  0  0  0  0  0  0  0  0
  -25.1631  -35.6405   43.0751 C   0  0  0  0  0  0  0  0  0  0  0  0
  -24.4843  -32.8662   35.2372 C   0  0  0  0  0  0  0  0  0  0  0  0
  -22.4810  -33.5644   37.9681 C   0  0  0  0  0  0  0  0  0  0  0  0
  -24.1589  -34.1652   39.5109 C   0  0  0  0  0  0  0  0  0  0  0  0
  -21.6990  -33.8741   40.1727 C   0  0  0  0  0  0  0  0  0  0  0  0
  -22.8599  -33.3727   42.1470 O   0  0  0  0  0  0  0  0  0  0  0  0
  -23.4065  -33.3640   36.9781 C   0  0  0  0  0  0  0  0  0  0  0  0
  -24.5199  -35.5531   41.7276 C   0  0  0  0  0  0  0  0  0  0  0  0
  -25.3823  -33.3677   42.9553 C   0  0  0  0  0  0  0  0  0  0  0  0
  1 20  1  0
  2 16  1  0
  2 20  1  0
  3  8  1  0
  3 14  1  0
  4 18  1  0
  4 21  1  0
  5 21  1  0
  6 15  2  0
  7 13  2  0
  8 11  1  0
  8 19  2  0
  9 13  1  0
  9 21  1  0
 10 15  1  0
 10 16  1  0
 10 17  1  0
 11 16  2  0
 12 14  1  0
 12 19  1  0
 13 20  1  0
 15 19  1  0
M  END
>  <ID>  (1) 
conformer_0

$$$$
