
     RDKit          3D

 18 18  0  0  0  0  0  0  0  0999 V2000
  -22.6923  -33.6249   37.0958 C   0  0  0  0  0  0  0  0  0  0  0  0
  -23.8209  -33.7234   37.9669 C   0  0  0  0  0  0  0  0  0  0  0  0
  -22.7924  -33.6172   35.6006 C   0  0  0  0  0  0  0  0  0  0  0  0
  -25.0386  -33.7162   37.4918 O   0  0  0  0  0  0  0  0  0  0  0  0
  -24.8191  -35.1146   43.2789 C   0  0  0  0  0  0  0  0  0  0  0  0
  -23.9434  -33.6743   41.7193 C   0  0  0  0  0  0  0  0  0  0  0  0
  -25.3825  -36.4901   43.2053 C   0  0  0  0  0  0  0  0  0  0  0  0
  -23.5748  -33.8585   39.3791 C   0  0  0  0  0  0  0  0  0  0  0  0
  -23.4790  -32.4716   34.9734 N   0  0  0  0  0  0  0  0  0  0  0  0
  -24.8974  -32.8707   42.4284 C   0  0  0  0  0  0  0  0  0  0  0  0
  -22.2820  -33.7979   39.8682 C   0  0  0  0  0  0  0  0  0  0  0  0
  -26.2544  -36.8035   44.0489 O   0  0  0  0  0  0  0  0  0  0  0  0
  -21.2717  -33.6656   39.0103 C   0  0  0  0  0  0  0  0  0  0  0  0
  -24.9945  -37.2512   42.2627 O   0  0  0  0  0  0  0  0  0  0  0  0
  -23.8060  -34.9062   44.1200 O   0  0  0  0  0  0  0  0  0  0  0  0
  -24.5513  -34.0013   40.3915 N   0  0  0  0  0  0  0  0  0  0  0  0
  -21.4630  -33.6065   37.7156 N   0  0  0  0  0  0  0  0  0  0  0  0
  -25.7638  -34.0040   43.0164 C   0  0  0  0  0  0  0  0  0  0  0  0
  1  2  2  0
  1  3  1  0
  1 17  1  0
  2  4  1  0
  2  8  1  0
  3  9  1  0
  5  7  1  0
  5 15  1  0
  5 18  1  0
  6 10  1  0
  6 16  1  0
  7 12  2  0
  7 14  1  0
  8 11  2  0
  8 16  1  0
 10 18  1  0
 11 13  1  0
 13 17  2  0
M  END
>  <ID>  (1) 
conformer_0

$$$$
