
     RDKit          3D

 29 33  0  0  0  0  0  0  0  0999 V2000
  -22.1185  -33.5086   40.3995 C   0  0  0  0  0  0  0  0  0  0  0  0
  -24.9691  -33.4306   35.5936 N   0  0  0  0  0  0  0  0  0  0  0  0
  -22.9244  -33.3050   34.1551 C   0  0  0  0  0  0  0  0  0  0  0  0
  -25.2099  -33.5171   36.9644 C   0  0  0  0  0  0  0  0  0  0  0  0
  -24.6482  -35.7961   42.1405 O   0  0  0  0  0  0  0  0  0  0  0  0
  -23.2957  -33.9333   41.0566 C   0  0  0  0  0  0  0  0  0  0  0  0
  -26.4355  -31.7147   43.1841 C   0  0  0  0  0  0  0  0  0  0  0  0
  -23.4183  -35.0354   44.2723 O   0  0  0  0  0  0  0  0  0  0  0  0
  -25.4077  -32.9488   42.6418 C   0  0  0  0  0  0  0  0  0  0  0  0
  -24.5065  -35.9061   40.7412 C   0  0  0  0  0  0  0  0  0  0  0  0
  -22.9810  -33.5496   36.6299 C   0  0  0  0  0  0  0  0  0  0  0  0
  -24.0452  -33.7176   37.5741 C   0  0  0  0  0  0  0  0  0  0  0  0
  -26.3699  -32.8897   41.2571 C   0  0  0  0  0  0  0  0  0  0  0  0
  -25.0940  -33.4328   44.0942 C   0  0  0  0  0  0  0  0  0  0  0  0
  -25.4099  -36.2170   44.3448 C   0  0  0  0  0  0  0  0  0  0  0  0
  -26.0990  -37.1085   45.0964 O   0  0  0  0  0  0  0  0  0  0  0  0
  -25.2254  -36.7328   42.9592 C   0  0  0  0  0  0  0  0  0  0  0  0
  -24.2407  -32.4799   44.7096 O   0  0  0  0  0  0  0  0  0  0  0  0
  -21.8629  -33.7045   37.4074 N   0  0  0  0  0  0  0  0  0  0  0  0
  -24.7946  -34.8373   44.4197 C   0  0  0  0  0  0  0  0  0  0  0  0
  -23.5224  -34.1681   38.7538 C   0  0  0  0  0  0  0  0  0  0  0  0
  -24.0928  -33.1825   41.9316 O   0  0  0  0  0  0  0  0  0  0  0  0
  -22.1803  -33.7906   38.8707 C   0  0  0  0  0  0  0  0  0  0  0  0
  -21.5139  -33.5816   34.5147 O   0  0  0  0  0  0  0  0  0  0  0  0
  -27.2988  -31.8709   41.9767 O   0  0  0  0  0  0  0  0  0  0  0  0
  -24.0143  -34.7122   40.0189 C   0  0  0  0  0  0  0  0  0  0  0  0
  -25.0252  -36.9054   40.1051 O   0  0  0  0  0  0  0  0  0  0  0  0
  -23.6753  -33.3455   35.3702 C   0  0  0  0  0  0  0  0  0  0  0  0
  -24.9866  -38.0221   42.8907 O   0  0  0  0  0  0  0  0  0  0  0  0
  1  6  1  0
  1 23  1  0
  2  4  1  0
  2 28  1  0
  3 24  1  0
  3 28  1  0
  4 12  1  0
  5 10  1  0
  5 17  1  0
  6 22  1  0
  6 26  1  0
  7  9  1  0
  7 25  1  0
  8 20  1  0
  9 13  1  0
  9 14  1  0
  9 22  1  0
 10 26  1  0
 10 27  2  0
 11 12  1  0
 11 19  1  0
 11 28  2  0
 12 21  1  0
 13 25  1  0
 14 18  1  0
 14 20  1  0
 15 16  1  0
 15 17  1  0
 15 20  1  0
 17 29  2  0
 19 23  1  0
 21 23  1  0
 21 26  1  0
M  END
>  <ID>  (1) 
conformer_0

$$$$
