
     RDKit          3D

 17 18  0  0  0  0  0  0  0  0999 V2000
  -23.4747  -34.2158   41.6971 C   0  0  0  0  0  0  0  0  0  0  0  0
  -25.0339  -37.3053   41.0650 O   0  0  0  0  0  0  0  0  0  0  0  0
  -25.6842  -34.0721   42.0353 O   0  0  0  0  0  0  0  0  0  0  0  0
  -24.9075  -33.3232   36.8108 C   0  0  0  0  0  0  0  0  0  0  0  0
  -24.8010  -34.9207   41.3937 C   0  0  0  0  0  0  0  0  0  0  0  0
  -23.1225  -33.4733   40.5816 O   0  0  0  0  0  0  0  0  0  0  0  0
  -22.8260  -33.5685   35.6849 C   0  0  0  0  0  0  0  0  0  0  0  0
  -24.9709  -36.5788   43.1139 O   0  0  0  0  0  0  0  0  0  0  0  0
  -22.2281  -33.5045   38.3552 C   0  0  0  0  0  0  0  0  0  0  0  0
  -24.4812  -34.0306   37.9209 N   0  0  0  0  0  0  0  0  0  0  0  0
  -24.2339  -33.2360   35.5553 C   0  0  0  0  0  0  0  0  0  0  0  0
  -24.8810  -34.8060   39.8631 C   0  0  0  0  0  0  0  0  0  0  0  0
  -22.1699  -33.6115   34.3299 C   0  0  0  0  0  0  0  0  0  0  0  0
  -24.9786  -36.3416   41.8820 C   0  0  0  0  0  0  0  0  0  0  0  0
  -23.6631  -33.9781   39.2613 C   0  0  0  0  0  0  0  0  0  0  0  0
  -21.0782  -33.6393   39.1378 N   0  0  0  0  0  0  0  0  0  0  0  0
  -22.2614  -33.2951   36.9241 C   0  0  0  0  0  0  0  0  0  0  0  0
  1  5  1  0
  1  6  1  0
  2 14  2  0
  3  5  1  0
  4 10  1  0
  4 11  1  0
  5 12  1  0
  5 14  1  0
  6 15  1  0
  7 11  1  0
  7 13  1  0
  7 17  1  0
  8 14  1  0
  9 15  1  0
  9 16  1  0
  9 17  1  0
 10 15  1  0
 12 15  1  0
M  END
>  <ID>  (1) 
conformer_0

$$$$
