
     RDKit          3D

 23 25  0  0  0  0  0  0  0  0999 V2000
  -23.2735  -35.3920   44.7876 O   0  0  0  0  0  0  0  0  0  0  0  0
  -21.7975  -33.4578   37.3122 N   0  0  0  0  0  0  0  0  0  0  0  0
  -24.4139  -33.7678   38.0729 C   0  0  0  0  0  0  0  0  0  0  0  0
  -23.5958  -33.9640   42.4947 C   0  0  0  0  0  0  0  0  0  0  0  0
  -25.6076  -33.6230   38.5337 O   0  0  0  0  0  0  0  0  0  0  0  0
  -23.6244  -34.7731   40.2339 C   0  0  0  0  0  0  0  0  0  0  0  0
  -23.8614  -32.8365   43.1781 O   0  0  0  0  0  0  0  0  0  0  0  0
  -21.0266  -33.6682   39.6147 C   0  0  0  0  0  0  0  0  0  0  0  0
  -24.1201  -33.4211   36.6698 C   0  0  0  0  0  0  0  0  0  0  0  0
  -22.7642  -33.3317   36.3772 C   0  0  0  0  0  0  0  0  0  0  0  0
  -24.1904  -35.2445   42.5418 C   0  0  0  0  0  0  0  0  0  0  0  0
  -22.0953  -33.6876   38.6280 C   0  0  0  0  0  0  0  0  0  0  0  0
  -23.1036  -33.7911   41.1976 C   0  0  0  0  0  0  0  0  0  0  0  0
  -26.2627  -34.4597   43.0906 O   0  0  0  0  0  0  0  0  0  0  0  0
  -22.6429  -33.0337   35.0068 C   0  0  0  0  0  0  0  0  0  0  0  0
  -24.8412  -37.1004   41.5575 O   0  0  0  0  0  0  0  0  0  0  0  0
  -23.9679  -32.8973   34.5636 N   0  0  0  0  0  0  0  0  0  0  0  0
  -24.3524  -35.7462   41.1422 C   0  0  0  0  0  0  0  0  0  0  0  0
  -25.3290  -35.3669   43.4787 C   0  0  0  0  0  0  0  0  0  0  0  0
  -24.5216  -35.0248   44.6993 C   0  0  0  0  0  0  0  0  0  0  0  0
  -24.7864  -33.2290   35.5640 N   0  0  0  0  0  0  0  0  0  0  0  0
  -23.3595  -34.1955   38.8963 C   0  0  0  0  0  0  0  0  0  0  0  0
  -24.9488  -34.0780   45.4862 O   0  0  0  0  0  0  0  0  0  0  0  0
  1 20  2  0
  2 10  1  0
  2 12  1  0
  3  5  1  0
  3  9  1  0
  3 22  1  0
  4  7  1  0
  4 11  1  0
  4 13  1  0
  6 13  1  0
  6 18  1  0
  6 22  1  0
  8 12  1  0
  9 10  2  0
  9 21  1  0
 10 15  1  0
 11 18  1  0
 11 19  1  0
 12 22  1  0
 14 19  1  0
 15 17  1  0
 16 18  1  0
 17 21  1  0
 19 20  1  0
 20 23  1  0
M  END
>  <ID>  (1) 
conformer_0

$$$$
