
     RDKit          3D

 28 30  0  0  0  0  0  0  0  0999 V2000
  -22.5369  -33.8656   40.3945 C   0  0  0  0  0  0  0  0  0  0  0  0
  -24.8396  -33.5764   43.5456 C   0  0  0  0  0  0  0  0  0  0  0  0
  -23.9259  -33.0928   35.3229 O   0  0  0  0  0  0  0  0  0  0  0  0
  -26.5690  -33.4341   41.8737 O   0  0  0  0  0  0  0  0  0  0  0  0
  -21.5519  -33.7210   39.4832 C   0  0  0  0  0  0  0  0  0  0  0  0
  -22.4655  -33.2255   35.9518 O   0  0  0  0  0  0  0  0  0  0  0  0
  -24.4328  -33.8360   38.8132 C   0  0  0  0  0  0  0  0  0  0  0  0
  -24.4795  -33.2758   46.5175 C   0  0  0  0  0  0  0  0  0  0  0  0
  -24.9621  -32.1970   44.1642 C   0  0  0  0  0  0  0  0  0  0  0  0
  -25.0526  -37.0310   46.4703 N   0  0  0  0  0  0  0  0  0  0  0  0
  -25.7952  -36.2547   42.9718 O   0  0  0  0  0  0  0  0  0  0  0  0
  -24.0445  -33.5372   37.5534 C   0  0  0  0  0  0  0  0  0  0  0  0
  -24.8136  -33.2740   36.3630 C   0  0  0  0  0  0  0  0  0  0  0  0
  -26.0776  -33.1138   36.4017 O   0  0  0  0  0  0  0  0  0  0  0  0
  -25.1666  -35.8313   40.7782 O   0  0  0  0  0  0  0  0  0  0  0  0
  -24.6927  -35.7453   46.7293 C   0  0  0  0  0  0  0  0  0  0  0  0
  -25.2217  -36.7192   41.8497 C   0  0  0  0  0  0  0  0  0  0  0  0
  -23.8684  -34.0442   40.0254 C   0  0  0  0  0  0  0  0  0  0  0  0
  -25.3076  -33.7983   42.1442 C   0  0  0  0  0  0  0  0  0  0  0  0
  -24.6998  -34.6538   45.8908 C   0  0  0  0  0  0  0  0  0  0  0  0
  -21.6655  -33.6176   38.1526 C   0  0  0  0  0  0  0  0  0  0  0  0
  -24.6425  -34.5585   41.1293 C   0  0  0  0  0  0  0  0  0  0  0  0
  -25.4066  -36.3193   44.2111 C   0  0  0  0  0  0  0  0  0  0  0  0
  -25.1016  -32.2397   45.6628 O   0  0  0  0  0  0  0  0  0  0  0  0
  -25.4097  -37.2789   45.1530 C   0  0  0  0  0  0  0  0  0  0  0  0
  -24.8147  -37.8951   41.7115 O   0  0  0  0  0  0  0  0  0  0  0  0
  -22.6680  -33.4861   37.2457 C   0  0  0  0  0  0  0  0  0  0  0  0
  -24.9038  -34.6524   44.5385 N   0  0  0  0  0  0  0  0  0  0  0  0
  1  5  2  0
  1 18  1  0
  2  9  1  0
  2 19  1  0
  2 28  1  0
  3 13  2  0
  4 19  1  0
  5 21  1  0
  6 27  1  0
  7 12  1  0
  7 18  2  0
  8 20  1  0
  8 24  1  0
  9 24  1  0
 10 16  1  0
 10 25  1  0
 11 17  1  0
 11 23  1  0
 12 13  1  0
 12 27  1  0
 13 14  1  0
 15 17  1  0
 15 22  1  0
 16 20  2  0
 17 26  2  0
 18 22  1  0
 19 22  1  0
 20 28  1  0
 21 27  2  0
 23 25  2  0
M  END
>  <ID>  (1) 
conformer_0

$$$$
