
     RDKit          3D

 33 37  0  0  0  0  0  0  0  0999 V2000
  -23.5682  -32.9266   34.4251 N   0  0  0  0  0  0  0  0  0  0  0  0
  -24.8065  -32.2152   46.7011 C   0  0  0  0  0  0  0  0  0  0  0  0
  -22.4013  -33.4678   36.4025 N   0  0  0  0  0  0  0  0  0  0  0  0
  -25.0588  -36.0578   44.7084 C   0  0  0  0  0  0  0  0  0  0  0  0
  -23.5324  -33.4191   35.6909 C   0  0  0  0  0  0  0  0  0  0  0  0
  -21.9949  -33.6174   38.8258 C   0  0  0  0  0  0  0  0  0  0  0  0
  -25.5277  -36.8829   43.6226 C   0  0  0  0  0  0  0  0  0  0  0  0
  -24.9296  -38.3303   41.4906 C   0  0  0  0  0  0  0  0  0  0  0  0
  -22.9478  -35.3368   45.4186 O   0  0  0  0  0  0  0  0  0  0  0  0
  -25.1510  -33.5025   47.5019 C   0  0  0  0  0  0  0  0  0  0  0  0
  -25.7911  -31.6659   44.3291 C   0  0  0  0  0  0  0  0  0  0  0  0
  -22.5851  -33.5704   40.1317 C   0  0  0  0  0  0  0  0  0  0  0  0
  -25.6174  -37.2902   42.3105 C   0  0  0  0  0  0  0  0  0  0  0  0
  -24.6231  -33.7483   36.5238 O   0  0  0  0  0  0  0  0  0  0  0  0
  -25.3593  -30.5943   42.1076 O   0  0  0  0  0  0  0  0  0  0  0  0
  -25.9381  -32.9293   41.6615 C   0  0  0  0  0  0  0  0  0  0  0  0
  -24.2500  -34.9028   45.4042 C   0  0  0  0  0  0  0  0  0  0  0  0
  -24.3092  -33.5913   44.6317 C   0  0  0  0  0  0  0  0  0  0  0  0
  -22.7798  -33.6603   37.6992 C   0  0  0  0  0  0  0  0  0  0  0  0
  -23.9480  -33.7322   40.2378 C   0  0  0  0  0  0  0  0  0  0  0  0
  -25.2991  -37.1197   45.6990 N   0  0  0  0  0  0  0  0  0  0  0  0
  -24.6875  -33.8815   39.1133 C   0  0  0  0  0  0  0  0  0  0  0  0
  -25.9135  -37.9680   44.6206 C   0  0  0  0  0  0  0  0  0  0  0  0
  -24.3885  -36.9277   40.5186 O   0  0  0  0  0  0  0  0  0  0  0  0
  -26.1542  -31.6425   42.6874 P   0  0  0  0  0  0  0  0  0  0  0  0
  -24.8724  -34.8205   46.8482 C   0  0  0  0  0  0  0  0  0  0  0  0
  -25.0421  -32.4722   45.2507 C   0  0  0  0  0  0  0  0  0  0  0  0
  -25.0871  -36.2440   41.4199 C   0  0  0  0  0  0  0  0  0  0  0  0
  -24.0882  -33.6021   43.1956 O   0  0  0  0  0  0  0  0  0  0  0  0
  -27.6321  -31.2777   42.6049 O   0  0  0  0  0  0  0  0  0  0  0  0
  -24.1106  -33.8037   37.8027 C   0  0  0  0  0  0  0  0  0  0  0  0
  -25.3668  -35.0239   41.7373 N   0  0  0  0  0  0  0  0  0  0  0  0
  -24.6033  -33.7466   41.6784 C   0  0  0  0  0  0  0  0  0  0  0  0
  1  5  2  0
  2 10  1  0
  2 27  1  0
  3  5  1  0
  3 19  1  0
  4  7  1  0
  4 17  1  0
  4 21  1  0
  5 14  1  0
  6 12  1  0
  6 19  2  0
  7 13  1  0
  7 23  1  0
  8 13  1  0
  9 17  1  0
 10 26  2  0
 11 27  1  0
 12 20  2  0
 13 28  1  0
 14 31  1  0
 15 25  1  0
 16 25  1  0
 16 33  1  0
 17 18  1  0
 17 26  1  0
 18 27  1  0
 18 29  1  0
 19 31  1  0
 20 22  1  0
 20 33  1  0
 21 23  1  0
 22 31  2  0
 24 28  2  0
 25 30  1  0
 28 32  1  0
 29 33  1  0
 32 33  1  0
M  END
>  <ID>  (1) 
conformer_0

$$$$
