
     RDKit          3D

 22 23  0  0  0  0  0  0  0  0999 V2000
  -24.9113  -37.9802   43.0681 O   0  0  0  0  0  1  0  0  0  0  0  0
  -26.5859  -36.5544   44.2570 O   0  0  0  0  0  0  0  0  0  0  0  0
  -23.2675  -33.4720   37.6810 C   0  0  0  0  0  0  0  0  0  0  0  0
  -23.6106  -33.6730   40.5289 C   0  0  0  0  0  0  0  0  0  0  0  0
  -22.1972  -33.5598   38.6043 C   0  0  0  0  0  0  0  0  0  0  0  0
  -21.0541  -33.8745   38.2121 O   0  0  0  0  0  0  0  0  0  0  0  0
  -22.3828  -33.4761   39.9691 N   0  0  0  0  0  0  0  0  0  0  0  0
  -24.2869  -34.4400   44.4226 C   0  0  0  0  0  0  0  0  0  0  0  0
  -23.7737  -33.5734   41.9925 C   0  0  0  0  0  0  0  0  0  0  0  0
  -25.3493  -36.5634   43.4212 P   0  0  0  0  0  4  0  0  0  0  0  0
  -24.4999  -33.6899   38.2885 C   0  0  0  0  0  0  0  0  0  0  0  0
  -25.4358  -35.8344   42.1261 O   0  0  0  0  0  0  0  0  0  0  0  0
  -23.3047  -33.2071   33.8893 C   0  0  0  0  0  0  0  0  0  0  0  0
  -25.4221  -33.6125   37.3452 N   0  0  0  0  0  0  0  0  0  0  0  0
  -24.6033  -32.1624   43.6535 O   0  0  0  0  0  0  0  0  0  0  0  0
  -24.6578  -33.8386   39.6522 C   0  0  0  0  0  0  0  0  0  0  0  0
  -24.8631  -33.3230   36.1266 C   0  0  0  0  0  0  0  0  0  0  0  0
  -23.5022  -33.1767   36.3220 C   0  0  0  0  0  0  0  0  0  0  0  0
  -24.1637  -35.8249   44.2040 O   0  0  0  0  0  0  0  0  0  0  0  0
  -22.5920  -33.0578   35.1910 C   0  0  0  0  0  0  0  0  0  0  0  0
  -24.5545  -33.5345   43.2104 C   0  0  0  0  0  0  0  0  0  0  0  0
  -25.8914  -33.9568   40.0778 O   0  0  0  0  0  0  0  0  0  0  0  0
  1 10  2  0
  2 10  1  0
  3  5  1  0
  3 11  1  0
  3 18  2  0
  4  7  2  0
  4  9  1  0
  4 16  1  0
  5  6  2  0
  5  7  1  0
  8 19  1  0
  8 21  1  0
  9 21  1  0
 10 12  1  0
 10 19  1  0
 11 14  1  0
 11 16  2  0
 13 20  1  0
 14 17  1  0
 15 21  1  0
 16 22  1  0
 17 18  1  0
 18 20  1  0
M  END
>  <ID>  (1) 
conformer_0

$$$$
