
     RDKit          3D

 21 23  0  0  0  0  0  0  0  0999 V2000
  -25.8385  -36.6679   45.4017 O   0  0  0  0  0  1  0  0  0  0  0  0
  -22.1257  -33.7543   39.6918 N   0  0  0  0  0  0  0  0  0  0  0  0
  -22.3761  -33.3266   36.0262 C   0  0  0  0  0  0  0  0  0  0  0  0
  -22.7002  -33.5389   37.3431 C   0  0  0  0  0  0  0  0  0  0  0  0
  -26.1131  -32.5245   41.5639 O   0  0  0  0  0  0  0  0  0  0  0  0
  -25.4568  -33.7881   41.2978 C   0  0  0  0  0  0  0  0  0  0  0  0
  -23.6995  -35.5030   44.7848 O   0  0  0  0  0  0  0  0  0  0  0  0
  -24.1132  -34.3783   45.7744 C   0  0  0  0  0  0  0  0  0  0  0  0
  -25.0626  -36.1759   44.2087 P   0  0  0  0  0  4  0  0  0  0  0  0
  -24.6119  -33.1868   35.5027 C   0  0  0  0  0  0  0  0  0  0  0  0
  -24.9672  -33.4276   36.7662 N   0  0  0  0  0  0  0  0  0  0  0  0
  -25.6913  -34.8664   43.5056 O   0  0  0  0  0  0  0  0  0  0  0  0
  -24.9157  -37.2182   43.1434 O   0  0  0  0  0  0  0  0  0  0  0  0
  -23.3207  -33.1199   35.1087 C   0  0  0  0  0  0  0  0  0  0  0  0
  -23.9755  -33.6520   41.4451 C   0  0  0  0  0  0  0  0  0  0  0  0
  -23.4169  -33.7606   40.0399 C   0  0  0  0  0  0  0  0  0  0  0  0
  -24.0381  -33.5960   37.7535 C   0  0  0  0  0  0  0  0  0  0  0  0
  -24.6237  -34.0796   42.7311 C   0  0  0  0  0  0  0  0  0  0  0  0
  -21.7818  -33.6605   38.3951 C   0  0  0  0  0  0  0  0  0  0  0  0
  -25.6654  -34.0752   39.7552 C   0  0  0  0  0  0  0  0  0  0  0  0
  -24.3886  -33.8176   39.0862 C   0  0  0  0  0  0  0  0  0  0  0  0
  1  9  2  0
  2 16  2  0
  2 19  1  0
  3  4  1  0
  3 14  2  0
  4 17  1  0
  4 19  2  0
  5  6  1  0
  6 15  1  0
  6 20  1  0
  7  8  1  0
  7  9  1  0
  9 12  1  0
  9 13  1  0
 10 11  2  0
 10 14  1  0
 11 17  1  0
 12 18  1  0
 15 16  1  0
 15 18  1  0
 16 21  1  0
 17 21  2  0
 20 21  1  0
M  END
>  <ID>  (1) 
conformer_0

$$$$
