
     RDKit          3D

 19 20  0  0  0  0  0  0  0  0999 V2000
  -24.7527  -33.1630   35.0362 O   0  0  0  0  0  0  0  0  0  0  0  0
  -25.2247  -33.6809   38.5066 N   0  0  0  0  0  0  0  0  0  0  0  0
  -25.2535  -36.5459   44.2230 C   0  0  0  0  0  0  0  0  0  0  0  0
  -25.2744  -34.8638   42.3585 C   0  0  0  0  0  0  0  0  0  0  0  0
  -24.9623  -33.4723   37.4047 C   0  0  0  0  0  0  0  0  0  0  0  0
  -22.0716  -33.4475   35.1195 C   0  0  0  0  0  0  0  0  0  0  0  0
  -22.1247  -33.5517   37.5650 N   0  0  0  0  0  0  0  0  0  0  0  0
  -23.9644  -34.3760   40.4204 N   0  0  0  0  0  0  0  0  0  0  0  0
  -25.9886  -33.6767   41.9506 O   0  0  0  0  0  0  0  0  0  0  0  0
  -24.6180  -35.4653   41.1271 C   0  0  0  0  0  0  0  0  0  0  0  0
  -22.0433  -33.6388   40.0034 C   0  0  0  0  0  0  0  0  0  0  0  0
  -24.1678  -33.3359   36.3482 C   0  0  0  0  0  0  0  0  0  0  0  0
  -25.4344  -35.1258   43.7446 C   0  0  0  0  0  0  0  0  0  0  0  0
  -22.7456  -34.0152   40.9736 N   0  0  0  0  0  0  0  0  0  0  0  0
  -25.2754  -37.4898   43.4030 O   0  0  0  0  0  0  0  0  0  0  0  0
  -22.7863  -33.6404   38.7500 C   0  0  0  0  0  0  0  0  0  0  0  0
  -24.0843  -33.8623   39.0800 C   0  0  0  0  0  0  0  0  0  0  0  0
  -22.7453  -33.4317   36.3879 C   0  0  0  0  0  0  0  0  0  0  0  0
  -24.8998  -36.6446   45.4279 O   0  0  0  0  0  0  0  0  0  0  0  0
  1 12  1  0
  2  5  1  0
  2 17  2  0
  3 13  1  0
  3 15  2  0
  3 19  1  0
  4  9  1  0
  4 10  1  0
  4 13  1  0
  5 12  1  0
  6 18  1  0
  7 16  2  0
  7 18  1  0
  8 10  1  0
  8 14  1  0
  8 17  1  0
 11 14  1  0
 11 16  1  0
 12 18  2  0
 16 17  1  0
M  END
>  <ID>  (1) 
conformer_0

$$$$
