
     RDKit          3D

 26 28  0  0  0  0  0  0  0  0999 V2000
  -26.1436  -33.5626   40.9845 C   0  0  0  0  0  0  0  0  0  0  0  0
  -26.6682  -33.9872   39.7896 O   0  0  0  0  0  0  0  0  0  0  0  0
  -23.4278  -32.9373   34.5932 N   0  0  0  0  0  0  0  0  0  0  0  0
  -23.7974  -32.9648   41.8939 C   0  0  0  0  0  0  0  0  0  0  0  0
  -24.7220  -33.6139   37.7427 C   0  0  0  0  0  0  0  0  0  0  0  0
  -25.7299  -35.7034   42.4776 O   0  0  0  0  0  0  0  0  0  0  0  0
  -24.7935  -33.8874   41.3476 C   0  0  0  0  0  0  0  0  0  0  0  0
  -24.2621  -32.6789   43.3154 C   0  0  0  0  0  0  0  0  0  0  0  0
  -24.4627  -33.2031   35.3978 N   0  0  0  0  0  0  0  0  0  0  0  0
  -22.2900  -33.1353   35.3513 N   0  0  0  0  0  0  0  0  0  0  0  0
  -26.7529  -37.0745   44.2971 O   0  0  0  0  0  1  0  0  0  0  0  0
  -24.0965  -33.4251   36.5812 C   0  0  0  0  0  0  0  0  0  0  0  0
  -25.4477  -36.7460   43.6626 P   0  0  0  0  0  4  0  0  0  0  0  0
  -22.6043  -33.3934   41.2468 N   0  0  0  0  0  0  0  0  0  0  0  0
  -28.1278  -32.1215   40.8756 O   0  0  0  0  0  0  0  0  0  0  0  0
  -21.6217  -33.7155   39.0404 C   0  0  0  0  0  0  0  0  0  0  0  0
  -24.4650  -35.2224   41.7878 C   0  0  0  0  0  0  0  0  0  0  0  0
  -26.7995  -31.7788   42.7917 C   0  0  0  0  0  0  0  0  0  0  0  0
  -24.4652  -36.1460   44.5937 O   0  0  0  0  0  0  0  0  0  0  0  0
  -26.9056  -32.3724   41.4772 C   0  0  0  0  0  0  0  0  0  0  0  0
  -25.5210  -31.8710   43.4975 C   0  0  0  0  0  0  0  0  0  0  0  0
  -24.8826  -37.9856   42.9736 O   0  0  0  0  0  0  0  0  0  0  0  0
  -22.8178  -33.7447   39.8957 C   0  0  0  0  0  0  0  0  0  0  0  0
  -22.6656  -33.4250   36.6179 C   0  0  0  0  0  0  0  0  0  0  0  0
  -23.9745  -33.7906   38.9896 C   0  0  0  0  0  0  0  0  0  0  0  0
  -21.8072  -33.5517   37.6946 C   0  0  0  0  0  0  0  0  0  0  0  0
  1  2  1  0
  1  7  1  0
  1 20  1  0
  3  9  1  0
  3 10  1  0
  4  7  1  0
  4  8  1  0
  4 14  1  0
  5 12  1  0
  5 25  2  0
  6 13  1  0
  6 17  1  0
  7 17  1  0
  8 21  1  0
  9 12  1  0
 10 24  1  0
 11 13  2  0
 12 24  2  0
 13 19  1  0
 13 22  1  0
 14 23  1  0
 15 20  1  0
 16 23  1  0
 16 26  2  0
 18 20  1  0
 18 21  2  0
 23 25  2  0
 24 26  1  0
M  END
>  <ID>  (1) 
conformer_0

$$$$
