
     RDKit          3D

 17 18  0  0  0  0  0  0  0  0999 V2000
  -21.9864  -33.8290   40.0029 N   0  0  0  0  0  0  0  0  0  0  0  0
  -23.9365  -34.8389   40.7052 N   0  0  0  0  0  0  0  0  0  0  0  0
  -24.5952  -33.5557   36.0460 C   0  0  0  0  0  0  0  0  0  0  0  0
  -25.2096  -37.6928   44.3522 C   0  0  0  0  0  0  0  0  0  0  0  0
  -23.3258  -33.2580   35.5052 C   0  0  0  0  0  0  0  0  0  0  0  0
  -25.8727  -34.3538   41.8639 O   0  0  0  0  0  0  0  0  0  0  0  0
  -25.4398  -35.4097   44.4205 O   0  0  0  0  0  0  0  0  0  0  0  0
  -23.7414  -33.7739   38.4517 C   0  0  0  0  0  0  0  0  0  0  0  0
  -24.8790  -36.4627   42.2982 C   0  0  0  0  0  0  0  0  0  0  0  0
  -21.4684  -33.5706   38.7765 C   0  0  0  0  0  0  0  0  0  0  0  0
  -23.2639  -34.1339   39.9229 C   0  0  0  0  0  0  0  0  0  0  0  0
  -25.0438  -33.6698   38.4083 C   0  0  0  0  0  0  0  0  0  0  0  0
  -25.2450  -36.4492   43.7521 C   0  0  0  0  0  0  0  0  0  0  0  0
  -24.7393  -33.5685   37.3484 N   0  0  0  0  0  0  0  0  0  0  0  0
  -22.2983  -33.4145   36.4551 C   0  0  0  0  0  0  0  0  0  0  0  0
  -22.5020  -33.5327   37.8107 C   0  0  0  0  0  0  0  0  0  0  0  0
  -24.8862  -35.1280   41.6358 C   0  0  0  0  0  0  0  0  0  0  0  0
  1 10  1  0
  1 11  2  0
  2 11  1  0
  2 17  1  0
  3  5  1  0
  3 14  1  0
  4 13  1  0
  5 15  1  0
  6 17  2  0
  7 13  2  0
  8 11  1  0
  8 12  1  0
  8 16  1  0
  9 13  1  0
  9 17  1  0
 10 16  1  0
 12 14  1  0
 15 16  2  0
M  END
>  <ID>  (1) 
conformer_0

$$$$
