
     RDKit          3D

 16 16  0  0  0  0  0  0  0  0999 V2000
  -25.0018  -37.4146   43.7268 O   0  0  0  0  0  1  0  0  0  0  0  0
  -25.1986  -33.5443   36.9348 O   0  0  0  0  0  0  0  0  0  0  0  0
  -22.8104  -33.5103   37.1201 N   0  0  0  0  0  0  0  0  0  0  0  0
  -24.7858  -34.2262   41.2691 C   0  0  0  0  0  0  0  0  0  0  0  0
  -21.9421  -33.5421   38.3186 N   0  0  0  0  0  0  0  0  0  0  0  0
  -23.5428  -32.7944   34.8338 N   0  0  0  0  0  0  0  0  0  0  0  0
  -24.1271  -33.6000   37.5732 C   0  0  0  0  0  0  0  0  0  0  0  0
  -22.7753  -33.6349   39.3928 C   0  0  0  0  0  0  0  0  0  0  0  0
  -24.5963  -35.7404   41.5956 C   0  0  0  0  0  0  0  0  0  0  0  0
  -22.4806  -33.4622   35.6786 C   0  0  0  0  0  0  0  0  0  0  0  0
  -25.1785  -33.9963   39.9086 C   0  0  0  0  0  0  0  0  0  0  0  0
  -24.0941  -33.7713   38.9855 C   0  0  0  0  0  0  0  0  0  0  0  0
  -23.5437  -35.3060   44.0854 O   0  0  0  0  0  0  0  0  0  0  0  0
  -24.7905  -35.8819   43.4025 P   0  0  0  0  0  4  0  0  0  0  0  0
  -26.0060  -35.1122   43.8165 O   0  0  0  0  0  0  0  0  0  0  0  0
  -22.3221  -33.5403   40.5614 O   0  0  0  0  0  0  0  0  0  0  0  0
  1 14  2  0
  2  7  2  0
  3  5  1  0
  3  7  1  0
  3 10  1  0
  4  9  1  0
  4 11  1  0
  5  8  1  0
  6 10  1  0
  7 12  1  0
  8 12  1  0
  8 16  2  0
  9 14  1  0
 11 12  2  3
 13 14  1  0
 14 15  1  0
M  END
>  <ID>  (1) 
conformer_0

$$$$
