
     RDKit          3D

 14 14  0  0  0  0  0  0  0  0999 V2000
  -22.1867  -33.7387   39.7296 C   0  0  0  0  0  0  0  0  0  0  0  0
  -24.7972  -35.7147   43.1548 C   0  0  0  0  0  0  0  0  0  0  0  0
  -23.6712  -34.1506   41.6421 N   0  0  0  0  0  0  0  0  0  0  0  0
  -24.5208  -33.9787   39.4671 C   0  0  0  0  0  0  0  0  0  0  0  0
  -23.4413  -33.9618   40.3018 C   0  0  0  0  0  0  0  0  0  0  0  0
  -24.4832  -33.8174   38.1797 N   0  0  0  0  0  0  0  0  0  0  0  0
  -24.4571  -33.6654   35.4129 N   0  0  0  0  0  0  0  0  0  0  0  0
  -22.1449  -33.5877   38.3474 N   0  0  0  0  0  0  0  0  0  0  0  0
  -25.4136  -36.8313   43.1496 O   0  0  0  0  0  0  0  0  0  0  0  0
  -23.2533  -33.4587   36.0691 C   0  0  0  0  0  0  0  0  0  0  0  0
  -23.9725  -35.4146   44.0445 O   0  0  0  0  0  0  0  0  0  0  0  0
  -24.9038  -34.8754   41.8598 C   0  0  0  0  0  0  0  0  0  0  0  0
  -23.2732  -33.6250   37.5775 C   0  0  0  0  0  0  0  0  0  0  0  0
  -22.2506  -33.1721   35.2698 O   0  0  0  0  0  0  0  0  0  0  0  0
  1  5  2  0
  1  8  1  0
  2  9  2  0
  2 11  1  0
  2 12  1  0
  3  5  1  0
  3 12  1  0
  4  5  1  0
  4  6  2  0
  6 13  1  0
  7 10  1  0
  8 13  2  0
 10 13  1  0
 10 14  2  0
M  END
>  <ID>  (1) 
conformer_0

$$$$
