
     RDKit          3D

 17 17  0  0  0  0  0  0  0  0999 V2000
  -26.2846  -32.5938   41.5285 C   0  0  0  0  0  0  0  0  0  0  0  0
  -23.6443  -35.0441   44.2384 O   0  0  0  0  0  1  0  0  0  0  0  0
  -24.4201  -35.2508   41.8709 O   0  0  0  0  0  0  0  0  0  0  0  0
  -22.8208  -33.8623   40.6859 C   0  0  0  0  0  0  0  0  0  0  0  0
  -24.3148  -33.7092   37.2217 C   0  0  0  0  0  0  0  0  0  0  0  0
  -24.7245  -35.2266   43.3885 P   0  0  0  0  0  0  0  0  0  0  0  0
  -23.4138  -33.2360   35.0431 C   0  0  0  0  0  0  0  0  0  0  0  0
  -23.2161  -33.4269   36.4744 C   0  0  0  0  0  0  0  0  0  0  0  0
  -21.8631  -33.4763   38.4114 C   0  0  0  0  0  0  0  0  0  0  0  0
  -26.0014  -35.3184   43.8037 O   0  0  0  0  0  1  0  0  0  0  0  0
  -22.0045  -33.3441   37.0708 N   0  0  0  0  0  0  0  0  0  0  0  0
  -25.2928  -34.1927   39.1437 N   0  0  0  0  0  0  0  0  0  0  0  0
  -22.9701  -33.7477   39.2449 C   0  0  0  0  0  0  0  0  0  0  0  0
  -24.1782  -33.8728   38.5729 C   0  0  0  0  0  0  0  0  0  0  0  0
  -24.9716  -32.8365   42.1156 C   0  0  0  0  0  0  0  0  0  0  0  0
  -24.0573  -33.8230   41.4280 C   0  0  0  0  0  0  0  0  0  0  0  0
  -24.6267  -32.2514   43.2350 O   0  0  0  0  0  0  0  0  0  0  0  0
  1 15  1  0
  2  6  1  0
  3  6  1  0
  3 16  1  0
  4 13  1  0
  4 16  1  0
  5  8  1  0
  5 14  1  0
  6 10  1  0
  7  8  1  0
  8 11  2  0
  9 11  1  0
  9 13  2  0
 12 14  2  0
 13 14  1  0
 15 16  1  0
 15 17  1  0
M  END
>  <ID>  (1) 
conformer_0

$$$$
