
     RDKit          3D

 21 23  0  0  0  0  0  0  0  0999 V2000
  -25.2517  -36.4522   43.4541 C   0  0  0  0  0  0  0  0  0  0  0  0
  -24.3153  -35.6681   41.3112 C   0  0  0  0  0  0  0  0  0  0  0  0
  -23.6596  -34.0539   39.0465 C   0  0  0  0  0  0  0  0  0  0  0  0
  -22.3323  -33.6895   38.6781 C   0  0  0  0  0  0  0  0  0  0  0  0
  -22.5033  -33.3177   35.1496 N   0  0  0  0  0  0  0  0  0  0  0  0
  -23.2833  -32.8169   34.1625 O   0  0  0  0  0  0  0  0  0  0  0  0
  -24.7366  -36.4595   44.7612 O   0  0  0  0  0  0  0  0  0  0  0  0
  -24.4140  -32.9745   42.1968 C   0  0  0  0  0  0  0  0  0  0  0  0
  -22.0960  -33.5769   37.3833 N   0  0  0  0  0  0  0  0  0  0  0  0
  -26.3564  -34.0597   43.0255 O   0  0  0  0  0  0  0  0  0  0  0  0
  -25.1017  -37.6453   42.5666 C   0  0  0  0  0  0  0  0  0  0  0  0
  -24.4213  -35.3887   42.7542 C   0  0  0  0  0  0  0  0  0  0  0  0
  -21.2064  -33.7743   39.5912 C   0  0  0  0  0  0  0  0  0  0  0  0
  -25.2304  -32.0015   41.7632 O   0  0  0  0  0  0  0  0  0  0  0  0
  -24.6347  -37.1080   41.2010 C   0  0  0  0  0  0  0  0  0  0  0  0
  -24.9676  -34.0275   43.1012 C   0  0  0  0  0  0  0  0  0  0  0  0
  -23.0245  -33.4536   36.4444 C   0  0  0  0  0  0  0  0  0  0  0  0
  -23.3540  -33.4763   41.3572 C   0  0  0  0  0  0  0  0  0  0  0  0
  -24.3442  -33.5641   36.8100 C   0  0  0  0  0  0  0  0  0  0  0  0
  -24.6530  -33.7890   38.1425 C   0  0  0  0  0  0  0  0  0  0  0  0
  -23.7916  -34.5917   40.4396 C   0  0  0  0  0  0  0  0  0  0  0  0
  1  7  1  0
  1 11  1  0
  1 12  1  0
  2 12  1  0
  2 15  1  0
  2 21  1  0
  3  4  1  0
  3 20  1  0
  3 21  1  0
  4  9  1  0
  4 13  1  0
  5  6  1  0
  5 17  1  0
  8 14  1  0
  8 16  1  0
  8 18  1  0
  9 17  2  0
 10 16  1  0
 11 15  1  0
 12 16  1  0
 17 19  1  0
 18 21  1  0
 19 20  2  0
M  END
>  <ID>  (1) 
conformer_0

$$$$
