
     RDKit          3D

 11 11  0  0  0  0  0  0  0  0999 V2000
  -23.6642  -34.4184   39.6558 C   0  0  0  0  0  0  0  0  0  0  0  0
  -24.5812  -35.1000   40.5330 C   0  0  0  0  0  0  0  0  0  0  0  0
  -23.9041  -33.4178   35.9818 C   0  0  0  0  0  0  0  0  0  0  0  0
  -21.9827  -33.6334   37.7438 N   0  0  0  0  0  0  0  0  0  0  0  0
  -23.9262  -34.5393   42.7221 N   0  0  0  0  0  0  0  0  0  0  0  0
  -24.1507  -34.0013   38.4681 N   0  0  0  0  0  0  0  0  0  0  0  0
  -25.1133  -36.3645   42.4052 O   0  0  0  0  0  0  0  0  0  0  0  0
  -21.5697  -33.8462   39.0201 C   0  0  0  0  0  0  0  0  0  0  0  0
  -24.5357  -35.3317   41.9086 C   0  0  0  0  0  0  0  0  0  0  0  0
  -23.3233  -33.6727   37.4760 C   0  0  0  0  0  0  0  0  0  0  0  0
  -22.3535  -34.3102   39.9710 N   0  0  0  0  0  0  0  0  0  0  0  0
  1  2  1  0
  1  6  1  0
  1 11  1  0
  2  9  1  0
  3 10  1  0
  4  8  1  0
  4 10  1  0
  5  9  1  0
  6 10  2  0
  7  9  2  0
  8 11  2  0
M  END
>  <ID>  (1) 
conformer_0

$$$$
