
     RDKit          3D

 42 50  0  0  0  0  0  0  0  0999 V2000
  -28.6635  -32.4680   40.4745 C   0  0  0  0  0  0  0  0  0  0  0  0
  -25.0726  -31.5548   45.4059 C   0  0  0  0  0  0  0  0  0  0  0  0
  -26.3652  -33.0310   41.7892 N   0  0  0  0  0  0  0  0  0  0  0  0
  -23.3606  -33.8238   41.3424 C   0  0  0  0  0  0  0  0  0  0  0  0
  -22.5740  -33.4550   35.6945 N   0  0  0  0  0  0  0  0  0  0  0  0
  -24.5030  -34.4984   41.7433 N   0  0  0  0  0  0  0  0  0  0  0  0
  -26.5063  -31.4542   43.4545 N   0  0  0  0  0  0  0  0  0  0  0  0
  -24.7639  -35.8293   41.5982 C   0  0  0  0  0  0  0  0  0  0  0  0
  -25.3926  -33.6777   42.4793 C   0  0  0  0  0  0  0  0  0  0  0  0
  -27.0382  -31.9454   42.2920 C   0  0  0  0  0  0  0  0  0  0  0  0
  -25.1816  -33.4260   43.8580 C   0  0  0  0  0  0  0  0  0  0  0  0
  -23.0219  -34.0906   39.9610 C   0  0  0  0  0  0  0  0  0  0  0  0
  -23.7907  -33.7825   37.6703 C   0  0  0  0  0  0  0  0  0  0  0  0
  -21.5118  -33.5650   38.1062 C   0  0  0  0  0  0  0  0  0  0  0  0
  -25.2447  -38.0212   41.9208 C   0  0  0  0  0  0  0  0  0  0  0  0
  -25.1200  -36.7540   42.6184 C   0  0  0  0  0  0  0  0  0  0  0  0
  -22.2205  -33.6689   34.1098 C   0  0  0  0  0  0  0  0  0  0  0  0
  -25.1586  -31.7432   33.7122 O   0  0  0  0  0  0  0  0  0  0  0  0
  -30.1005  -30.8237   39.3294 C   0  0  0  0  0  0  0  0  0  0  0  0
  -24.6868  -36.5327   40.3398 C   0  0  0  0  0  0  0  0  0  0  0  0
  -24.6321  -33.3751   36.6769 C   0  0  0  0  0  0  0  0  0  0  0  0
  -30.1176  -29.9870   40.5672 C   0  0  0  0  0  0  0  0  0  0  0  0
  -23.3005  -33.1417   33.1970 C   0  0  0  0  0  0  0  0  0  0  0  0
  -28.2245  -31.4843   41.4767 C   0  0  0  0  0  0  0  0  0  0  0  0
  -24.0553  -34.1341   39.0093 C   0  0  0  0  0  0  0  0  0  0  0  0
  -24.9193  -35.7146   44.9412 N   0  0  0  0  0  0  0  0  0  0  0  0
  -29.9484  -32.2789   39.7940 C   0  0  0  0  0  0  0  0  0  0  0  0
  -24.2542  -32.5518   34.1555 C   0  0  0  0  0  0  0  0  0  0  0  0
  -29.0656  -30.3607   41.5591 C   0  0  0  0  0  0  0  0  0  0  0  0
  -24.3689  -32.3729   46.3003 C   0  0  0  0  0  0  0  0  0  0  0  0
  -21.7195  -33.8231   39.4766 C   0  0  0  0  0  0  0  0  0  0  0  0
  -23.9464  -32.9551   35.5312 C   0  0  0  0  0  0  0  0  0  0  0  0
  -25.4762  -37.6110   46.1810 C   0  0  0  0  0  0  0  0  0  0  0  0
  -25.5651  -32.1353   44.2497 C   0  0  0  0  0  0  0  0  0  0  0  0
  -22.4897  -33.7709   37.1161 C   0  0  0  0  0  0  0  0  0  0  0  0
  -24.9463  -36.3189   46.2657 C   0  0  0  0  0  0  0  0  0  0  0  0
  -24.7417  -34.3185   44.8730 C   0  0  0  0  0  0  0  0  0  0  0  0
  -25.6962  -37.8391   44.7769 C   0  0  0  0  0  0  0  0  0  0  0  0
  -23.9223  -33.1470   31.8996 O   0  0  0  0  0  0  0  0  0  0  0  0
  -24.1685  -33.6840   46.0269 C   0  0  0  0  0  0  0  0  0  0  0  0
  -25.2741  -36.7087   44.0199 C   0  0  0  0  0  0  0  0  0  0  0  0
  -24.9577  -37.8753   40.5521 C   0  0  0  0  0  0  0  0  0  0  0  0
  1 24  1  0
  1 27  1  0
  2 30  1  0
  2 34  2  0
  3  9  2  0
  3 10  1  0
  4  6  1  0
  4 12  1  0
  5 17  1  0
  5 32  1  0
  5 35  1  0
  6  8  1  0
  6  9  1  0
  7 10  2  0
  7 34  1  0
  8 16  2  0
  8 20  1  0
  9 11  1  0
 10 24  1  0
 11 34  1  0
 11 37  1  0
 12 25  1  0
 12 31  1  0
 13 21  1  0
 13 25  1  0
 13 35  1  0
 14 31  2  0
 14 35  1  0
 15 16  1  0
 15 42  1  0
 16 41  1  0
 17 23  1  0
 18 28  1  0
 19 22  1  0
 19 27  1  0
 20 42  1  0
 21 32  1  0
 22 29  1  0
 23 28  1  0
 23 39  1  0
 24 29  2  0
 26 36  1  0
 26 37  1  0
 26 41  1  0
 28 32  1  0
 30 40  2  0
 33 36  1  0
 33 38  1  0
 37 40  1  0
 38 41  1  0
M  END
>  <ID>  (1) 
conformer_0

$$$$
