
     RDKit          3D

 16 16  0  0  0  0  0  0  0  0999 V2000
  -24.9180  -37.1555   43.5409 O   0  0  0  0  0  0  0  0  0  0  0  0
  -23.3599  -33.9490   40.4044 C   0  0  0  0  0  0  0  0  0  0  0  0
  -25.1499  -34.8239   43.2945 C   0  0  0  0  0  0  0  0  0  0  0  0
  -22.0576  -33.2877   37.0611 N   0  0  0  0  0  0  0  0  0  0  0  0
  -24.3404  -33.7419   36.8546 C   0  0  0  0  0  0  0  0  0  0  0  0
  -23.0429  -33.0903   34.9164 N   0  0  0  0  0  0  0  0  0  0  0  0
  -26.2767  -34.4304   43.0374 O   0  0  0  0  0  0  0  0  0  0  0  0
  -24.4132  -33.9573   38.1623 N   0  0  0  0  0  0  0  0  0  0  0  0
  -24.8727  -35.9654   44.2897 C   0  0  0  0  0  0  0  0  0  0  0  0
  -22.4600  -33.4335   41.0850 O   0  0  0  0  0  0  0  0  0  0  0  0
  -24.4902  -34.5414   41.0001 C   0  0  0  0  0  0  0  0  0  0  0  0
  -23.8006  -35.4958   45.2621 C   0  0  0  0  0  0  0  0  0  0  0  0
  -23.3003  -33.8009   38.9510 C   0  0  0  0  0  0  0  0  0  0  0  0
  -23.1462  -33.3755   36.2769 C   0  0  0  0  0  0  0  0  0  0  0  0
  -24.1121  -34.6833   42.4212 N   0  0  0  0  0  0  0  0  0  0  0  0
  -22.1194  -33.4629   38.3782 C   0  0  0  0  0  0  0  0  0  0  0  0
  1  9  1  0
  2 10  2  0
  2 11  1  0
  2 13  1  0
  3  7  2  0
  3  9  1  0
  3 15  1  0
  4 14  1  0
  4 16  2  0
  5  8  2  0
  5 14  1  0
  6 14  2  0
  8 13  1  0
  9 12  1  0
 11 15  1  0
 13 16  1  0
M  END
>  <ID>  (1) 
conformer_0

$$$$
