
     RDKit          3D

 21 23  0  0  0  0  0  0  0  0999 V2000
  -22.4916  -33.4099   35.5363 C   0  0  0  0  0  0  0  0  0  0  0  0
  -24.9685  -38.0207   43.4627 O   0  0  0  0  0  0  0  0  0  0  0  0
  -26.1201  -36.4258   44.2433 O   0  0  0  0  0  0  0  0  0  0  0  0
  -25.5280  -34.1948   43.2231 C   0  0  0  0  0  0  0  0  0  0  0  0
  -22.1567  -33.8420   40.0304 N   0  0  0  0  0  0  0  0  0  0  0  0
  -26.2984  -33.5167   42.1691 O   0  0  0  0  0  0  0  0  0  0  0  0
  -25.1034  -32.8222   35.0486 N   0  0  0  0  0  0  0  0  0  0  0  0
  -23.3512  -33.3976   36.5822 C   0  0  0  0  0  0  0  0  0  0  0  0
  -24.6778  -33.1120   36.2896 C   0  0  0  0  0  0  0  0  0  0  0  0
  -24.1987  -32.7778   34.0528 C   0  0  0  0  0  0  0  0  0  0  0  0
  -23.0055  -33.6549   37.9924 C   0  0  0  0  0  0  0  0  0  0  0  0
  -24.7575  -36.0975   42.1729 C   0  0  0  0  0  0  0  0  0  0  0  0
  -25.3098  -32.8053   41.4180 C   0  0  0  0  0  0  0  0  0  0  0  0
  -24.3677  -34.7045   42.4492 C   0  0  0  0  0  0  0  0  0  0  0  0
  -21.8506  -33.6671   38.6913 C   0  0  0  0  0  0  0  0  0  0  0  0
  -23.4748  -33.9058   40.1104 C   0  0  0  0  0  0  0  0  0  0  0  0
  -24.2753  -33.8556   41.2844 C   0  0  0  0  0  0  0  0  0  0  0  0
  -22.8827  -33.0476   34.2962 N   0  0  0  0  0  0  0  0  0  0  0  0
  -25.3286  -36.8459   43.4116 C   0  0  0  0  0  0  0  0  0  0  0  0
  -23.9514  -33.8211   38.8969 N   0  0  0  0  0  0  0  0  0  0  0  0
  -24.8352  -31.7564   42.1006 O   0  0  0  0  0  0  0  0  0  0  0  0
  1  8  2  0
  1 18  1  0
  2 19  2  0
  3 19  1  0
  4  6  1  0
  4 14  1  0
  5 15  1  0
  5 16  2  0
  6 13  1  0
  7  9  2  0
  7 10  1  0
  8  9  1  0
  8 11  1  0
 10 18  2  0
 11 15  1  0
 11 20  1  0
 12 14  1  0
 12 19  1  0
 13 17  1  0
 13 21  1  0
 14 17  1  0
 16 17  1  0
 16 20  1  0
M  END
>  <ID>  (1) 
conformer_0

$$$$
