
     RDKit          3D

 16 17  0  0  0  0  0  0  0  0999 V2000
  -23.9317  -34.4019   40.3404 N   0  0  0  0  0  0  0  0  0  0  0  0
  -22.3618  -33.5976   37.1272 N   0  0  0  0  0  0  0  0  0  0  0  0
  -24.6598  -34.7046   42.7010 C   0  0  0  0  0  0  0  0  0  0  0  0
  -23.0903  -33.7408   38.2420 C   0  0  0  0  0  0  0  0  0  0  0  0
  -23.8497  -33.8315   43.0215 O   0  0  0  0  0  0  0  0  0  0  0  0
  -24.3283  -33.4012   35.8784 C   0  0  0  0  0  0  0  0  0  0  0  0
  -25.5808  -35.1462   43.3997 O   0  0  0  0  0  0  0  0  0  0  0  0
  -22.1848  -33.4116   34.7518 N   0  0  0  0  0  0  0  0  0  0  0  0
  -24.4822  -33.7312   38.1422 C   0  0  0  0  0  0  0  0  0  0  0  0
  -22.9386  -33.4562   35.9248 C   0  0  0  0  0  0  0  0  0  0  0  0
  -24.4253  -35.3508   41.3229 C   0  0  0  0  0  0  0  0  0  0  0  0
  -24.7454  -36.8402   41.2665 C   0  0  0  0  0  0  0  0  0  0  0  0
  -22.7427  -33.9948   39.6291 C   0  0  0  0  0  0  0  0  0  0  0  0
  -25.0798  -33.5492   36.9484 N   0  0  0  0  0  0  0  0  0  0  0  0
  -21.6916  -33.5884   40.2194 N   0  0  0  0  0  0  0  0  0  0  0  0
  -25.1155  -34.0014   39.4084 C   0  0  0  0  0  0  0  0  0  0  0  0
  1 11  1  0
  1 13  1  0
  1 16  1  0
  2  4  2  0
  2 10  1  0
  3  5  2  0
  3  7  1  0
  3 11  1  0
  4  9  1  0
  4 13  1  0
  6 10  1  0
  6 14  2  0
  8 10  2  0
  9 14  1  0
  9 16  1  0
 11 12  1  0
 13 15  2  0
M  END
>  <ID>  (1) 
conformer_0

$$$$
