
     RDKit          3D

 19 19  0  0  0  0  0  0  0  0999 V2000
  -23.7068  -35.3889   44.6775 O   0  0  0  0  0  0  0  0  0  0  0  0
  -22.0608  -33.5294   37.7586 C   0  0  0  0  0  0  0  0  0  0  0  0
  -23.2985  -33.5500   37.1572 C   0  0  0  0  0  0  0  0  0  0  0  0
  -22.5587  -34.1333   34.8648 C   0  0  0  0  0  0  0  0  0  0  0  0
  -24.5205  -35.6640   41.9706 O   0  0  0  0  0  0  0  0  0  0  0  0
  -24.0421  -34.3093   41.7105 C   0  0  0  0  0  0  0  0  0  0  0  0
  -25.7841  -34.2045   39.5887 N   0  0  0  0  0  0  0  0  0  0  0  0
  -23.5734  -34.0699   40.3483 C   0  0  0  0  0  0  0  0  0  0  0  0
  -24.6486  -33.0453   35.1999 O   0  0  0  0  0  0  0  0  0  0  0  0
  -23.4270  -33.3246   35.6768 C   0  0  0  0  0  0  0  0  0  0  0  0
  -24.3494  -33.7817   37.9521 N   0  0  0  0  0  0  0  0  0  0  0  0
  -26.2421  -34.6364   43.0978 F   0  0  0  0  0  0  0  0  0  0  0  0
  -22.3511  -32.7671   35.0933 N   0  0  0  0  0  0  0  0  0  0  0  0
  -24.7377  -36.0402   44.3051 C   0  0  0  0  0  0  0  0  0  0  0  0
  -22.2216  -33.8742   40.1855 N   0  0  0  0  0  0  0  0  0  0  0  0
  -25.4325  -35.6319   43.0326 C   0  0  0  0  0  0  0  0  0  0  0  0
  -24.5110  -34.0047   39.2492 C   0  0  0  0  0  0  0  0  0  0  0  0
  -21.6967  -33.6657   39.0018 C   0  0  0  0  0  0  0  0  0  0  0  0
  -25.0090  -37.1976   44.6677 O   0  0  0  0  0  0  0  0  0  0  0  0
  1 14  2  0
  2  3  1  0
  2 18  2  0
  3 10  1  0
  3 11  2  0
  4 10  1  0
  5  6  1  0
  5 16  1  0
  6  8  1  0
  7 17  2  0
  8 15  2  0
  8 17  1  0
  9 10  1  0
 10 13  1  0
 11 17  1  0
 12 16  1  0
 14 16  1  0
 14 19  1  0
 15 18  1  0
M  END
>  <ID>  (1) 
conformer_0

$$$$
