
     RDKit          3D

 23 23  0  0  0  0  0  0  0  0999 V2000
  -25.8485  -33.5955   41.9951 C   0  0  0  0  0  0  0  0  0  0  0  0
  -23.0362  -33.5097   36.7165 C   0  0  0  0  0  0  0  0  0  0  0  0
  -24.3718  -33.6841   41.9066 C   0  0  0  0  0  0  0  0  0  0  0  0
  -24.8268  -36.0234   46.2047 O   0  0  0  0  0  1  0  0  0  0  0  0
  -25.4531  -36.9267   45.4080 P   0  0  0  0  0  0  0  0  0  0  0  0
  -21.5425  -33.6823   38.5224 C   0  0  0  0  0  0  0  0  0  0  0  0
  -24.3275  -36.0480   40.7991 O   0  0  0  0  0  0  0  0  0  0  0  0
  -26.0393  -36.7802   44.0930 O   0  0  0  0  0  0  0  0  0  0  0  0
  -25.2103  -34.6280   43.9418 C   0  0  0  0  0  0  0  0  0  0  0  0
  -24.3848  -33.8072   38.7977 C   0  0  0  0  0  0  0  0  0  0  0  0
  -25.4845  -35.7638   43.1653 C   0  0  0  0  0  0  0  0  0  0  0  0
  -25.9557  -33.5322   43.4747 O   0  0  0  0  0  0  0  0  0  0  0  0
  -25.6962  -38.1071   46.0477 O   0  0  0  0  0  1  0  0  0  0  0  0
  -24.5977  -33.1034   35.0043 O   0  0  0  0  0  0  0  0  0  0  0  0
  -25.6433  -33.7115   39.0842 O   0  0  0  0  0  0  0  0  0  0  0  0
  -21.7839  -33.5776   37.2673 N   0  0  0  0  0  0  0  0  0  0  0  0
  -23.9764  -34.7833   41.0327 C   0  0  0  0  0  0  0  0  0  0  0  0
  -24.2802  -35.4371   43.5143 O   0  0  0  0  0  0  0  0  0  0  0  0
  -23.5049  -34.1586   39.7891 N   0  0  0  0  0  0  0  0  0  0  0  0
  -23.3480  -33.2590   35.3291 C   0  0  0  0  0  0  0  0  0  0  0  0
  -24.1049  -33.6051   37.5206 C   0  0  0  0  0  0  0  0  0  0  0  0
  -22.1485  -33.9244   39.6736 C   0  0  0  0  0  0  0  0  0  0  0  0
  -22.4227  -33.4452   34.3973 O   0  0  0  0  0  0  0  0  0  0  0  0
  1  3  1  0
  1 12  1  0
  2 16  1  0
  2 20  1  0
  2 21  2  0
  3 17  1  0
  4  5  1  0
  5  8  1  0
  5 13  1  0
  6 16  2  0
  6 22  1  0
  7 17  2  0
  8 11  1  0
  9 12  1  0
  9 18  1  0
 10 15  2  0
 10 19  1  0
 10 21  1  0
 11 18  1  0
 14 20  2  0
 17 19  1  0
 19 22  1  0
 20 23  1  0
M  END
>  <ID>  (1) 
conformer_0

$$$$
