
     RDKit          3D

 34 35  0  0  0  0  0  0  0  0999 V2000
  -25.6316  -37.4119   43.5582 C   0  0  0  0  0  0  0  0  0  0  0  0
  -25.0349  -38.3970   44.0194 F   0  0  0  0  0  0  0  0  0  0  0  0
  -26.2442  -36.5889   44.2709 F   0  0  0  0  0  0  0  0  0  0  0  0
  -24.9367  -35.7178   42.0006 N   0  0  0  0  0  0  0  0  0  0  0  0
  -23.2188  -33.6446   31.5901 C   0  0  0  0  0  0  0  0  0  0  0  0
  -24.7173  -32.5488   46.8318 C   0  0  0  0  0  0  0  0  0  0  0  0
  -24.8655  -32.7472   34.7239 N   0  0  0  0  0  0  0  0  0  0  0  0
  -21.8011  -33.7950   39.8407 C   0  0  0  0  0  0  0  0  0  0  0  0
  -23.0026  -33.8225   40.5667 C   0  0  0  0  0  0  0  0  0  0  0  0
  -22.7592  -33.4991   35.1111 C   0  0  0  0  0  0  0  0  0  0  0  0
  -23.0655  -33.6357   37.7979 C   0  0  0  0  0  0  0  0  0  0  0  0
  -21.8683  -34.2639   32.1263 C   0  0  0  0  0  0  0  0  0  0  0  0
  -25.1672  -30.6083   48.2156 C   0  0  0  0  0  0  0  0  0  0  0  0
  -25.6575  -29.4134   48.3419 O   0  0  0  0  0  0  0  0  0  0  0  0
  -24.6804  -32.9597   36.0454 C   0  0  0  0  0  0  0  0  0  0  0  0
  -26.5222  -32.4681   42.2086 C   0  0  0  0  0  0  0  0  0  0  0  0
  -23.3796  -33.3797   36.3710 C   0  0  0  0  0  0  0  0  0  0  0  0
  -25.3534  -32.0305   44.4543 O   0  0  0  0  0  0  0  0  0  0  0  0
  -21.8491  -33.6909   38.4545 C   0  0  0  0  0  0  0  0  0  0  0  0
  -24.9572  -37.8781   41.3554 O   0  0  0  0  0  0  0  0  0  0  0  0
  -24.7140  -34.4511   42.4556 C   0  0  0  0  0  0  0  0  0  0  0  0
  -23.7341  -33.1063   34.0852 C   0  0  0  0  0  0  0  0  0  0  0  0
  -23.7861  -34.2250   43.2039 O   0  0  0  0  0  0  0  0  0  0  0  0
  -25.6352  -33.7861   40.3894 C   0  0  0  0  0  0  0  0  0  0  0  0
  -23.8211  -33.0104   32.6889 N   0  0  0  0  0  0  0  0  0  0  0  0
  -25.6040  -33.4830   41.8355 N   0  0  0  0  0  0  0  0  0  0  0  0
  -27.6760  -32.3164   41.5272 O   0  0  0  0  0  0  0  0  0  0  0  0
  -24.1584  -33.7024   38.5576 C   0  0  0  0  0  0  0  0  0  0  0  0
  -25.1664  -36.9788   42.2546 C   0  0  0  0  0  0  0  0  0  0  0  0
  -26.2621  -31.7487   43.4341 C   0  0  0  0  0  0  0  0  0  0  0  0
  -25.0676  -31.1791   46.9420 N   0  0  0  0  0  0  0  0  0  0  0  0
  -25.2007  -31.4905   49.3590 C   0  0  0  0  0  0  0  0  0  0  0  0
  -24.1929  -33.7777   39.8858 C   0  0  0  0  0  0  0  0  0  0  0  0
  -24.9042  -33.0004   45.3718 C   0  0  0  0  0  0  0  0  0  0  0  0
  1  2  1  0
  1  3  1  0
  1 29  1  0
  4 21  1  0
  4 29  1  0
  5 12  1  0
  5 25  1  0
  6 31  1  0
  6 34  1  0
  7 15  1  0
  7 22  2  0
  8  9  2  0
  8 19  1  0
  9 33  1  0
 10 17  1  0
 10 22  1  0
 11 17  1  0
 11 19  2  0
 11 28  1  0
 13 14  2  0
 13 31  1  0
 13 32  1  0
 15 17  1  0
 16 26  1  0
 16 27  2  0
 16 30  1  0
 18 30  1  0
 18 34  1  0
 20 29  2  0
 21 23  2  0
 21 26  1  0
 22 25  1  0
 24 26  1  0
 24 33  1  0
 28 33  2  0
M  END
>  <ID>  (1) 
conformer_0

$$$$
