
     RDKit          3D

 18 19  0  0  0  0  0  0  0  0999 V2000
  -23.6660  -34.2256   42.2984 O   0  0  0  0  0  0  0  0  0  0  0  0
  -24.2607  -33.7817   38.6227 N   0  0  0  0  0  0  0  0  0  0  0  0
  -24.1370  -33.9164   41.0005 C   0  0  0  0  0  0  0  0  0  0  0  0
  -25.8350  -34.6805   43.7111 O   0  0  0  0  0  1  0  0  0  0  0  0
  -22.6079  -33.5755   36.9212 N   0  0  0  0  0  0  0  0  0  0  0  0
  -24.4867  -35.2726   43.3115 P   0  0  0  0  0  4  0  0  0  0  0  0
  -24.8002  -33.5440   36.3070 C   0  0  0  0  0  0  0  0  0  0  0  0
  -22.1306  -33.6610   39.3047 C   0  0  0  0  0  0  0  0  0  0  0  0
  -25.3534  -35.6997   39.8782 O   0  0  0  0  0  0  0  0  0  0  0  0
  -25.5127  -34.5292   40.7036 C   0  0  0  0  0  0  0  0  0  0  0  0
  -23.4602  -33.7898   39.6361 C   0  0  0  0  0  0  0  0  0  0  0  0
  -21.7686  -33.4874   34.3750 C   0  0  0  0  0  0  0  0  0  0  0  0
  -24.0110  -33.4277   35.1855 N   0  0  0  0  0  0  0  0  0  0  0  0
  -23.5901  -35.4663   44.5833 O   0  0  0  0  0  0  0  0  0  0  0  0
  -22.7378  -33.4669   35.4374 C   0  0  0  0  0  0  0  0  0  0  0  0
  -24.7383  -36.6586   42.6300 O   0  0  0  0  0  0  0  0  0  0  0  0
  -23.9179  -33.6463   37.3543 C   0  0  0  0  0  0  0  0  0  0  0  0
  -21.7302  -33.5715   38.0273 C   0  0  0  0  0  0  0  0  0  0  0  0
  1  3  1  0
  1  6  1  0
  2 11  2  0
  2 17  1  0
  3 10  1  0
  3 11  1  0
  4  6  2  0
  5 15  1  0
  5 17  1  0
  5 18  1  0
  6 14  1  0
  6 16  1  0
  7 13  1  0
  7 17  1  0
  8 11  1  0
  8 18  2  0
  9 10  1  0
 12 15  1  0
 13 15  2  0
M  END
>  <ID>  (1) 
conformer_0

$$$$
