
     RDKit          3D

 11 11  0  0  0  0  0  0  0  0999 V2000
  -24.3428  -33.7852   37.8757 C   0  0  0  0  0  0  0  0  0  0  0  0
  -23.8468  -34.0717   41.5890 C   0  0  0  0  0  0  0  0  0  0  0  0
  -23.0222  -33.6197   37.4818 C   0  0  0  0  0  0  0  0  0  0  0  0
  -22.3006  -33.7742   39.7624 C   0  0  0  0  0  0  0  0  0  0  0  0
  -24.8266  -34.7799   42.3299 C   0  0  0  0  0  0  0  0  0  0  0  0
  -24.4000  -35.5576   43.2021 O   0  0  0  0  0  0  0  0  0  0  0  0
  -24.6242  -33.9693   39.2050 C   0  0  0  0  0  0  0  0  0  0  0  0
  -22.7199  -33.4538   36.0246 C   0  0  0  0  0  0  0  0  0  0  0  0
  -22.0033  -33.6067   38.4048 C   0  0  0  0  0  0  0  0  0  0  0  0
  -23.6291  -33.9710   40.1821 C   0  0  0  0  0  0  0  0  0  0  0  0
  -25.9861  -34.3634   42.1986 O   0  0  0  0  0  0  0  0  0  0  0  0
  1  3  2  0
  1  7  1  0
  2  5  1  0
  2 10  1  0
  3  8  1  0
  3  9  1  0
  4  9  2  0
  4 10  1  0
  5  6  2  0
  5 11  1  0
  7 10  2  0
M  END
>  <ID>  (1) 
conformer_0

$$$$
