
     RDKit          3D

 19 19  0  0  0  0  0  0  0  0999 V2000
  -24.2440  -34.8049   41.0726 C   0  0  0  0  0  0  0  0  0  0  0  0
  -21.5055  -33.5903   38.5346 C   0  0  0  0  0  0  0  0  0  0  0  0
  -25.1058  -35.7477   43.8274 C   0  0  0  0  0  0  0  0  0  0  0  0
  -24.5446  -35.9037   45.1874 C   0  0  0  0  0  0  0  0  0  0  0  0
  -26.1479  -33.8223   42.8178 O   0  0  0  0  0  0  0  0  0  0  0  0
  -23.2077  -33.4593   37.1864 C   0  0  0  0  0  0  0  0  0  0  0  0
  -25.8656  -36.7069   43.3908 O   0  0  0  0  0  0  0  0  0  0  0  0
  -23.8633  -34.1407   42.3216 C   0  0  0  0  0  0  0  0  0  0  0  0
  -23.6570  -33.7901   38.5103 C   0  0  0  0  0  0  0  0  0  0  0  0
  -22.5473  -33.8699   39.2574 N   0  0  0  0  0  0  0  0  0  0  0  0
  -24.9707  -34.3492   43.3592 C   0  0  0  0  0  0  0  0  0  0  0  0
  -25.2419  -33.3374   35.9794 O   0  0  0  0  0  0  0  0  0  0  0  0
  -23.4121  -32.6434   34.9404 O   0  0  0  0  0  0  0  0  0  0  0  0
  -23.1977  -35.3850   45.0443 O   0  0  0  0  0  0  0  0  0  0  0  0
  -24.9435  -33.9125   38.9044 N   0  0  0  0  0  0  0  0  0  0  0  0
  -25.2744  -34.0888   40.2556 C   0  0  0  0  0  0  0  0  0  0  0  0
  -21.8622  -33.3427   37.2507 N   0  0  0  0  0  0  0  0  0  0  0  0
  -23.9818  -33.1679   36.0160 C   0  0  0  0  0  0  0  0  0  0  0  0
  -24.1890  -36.1439   41.0609 O   0  0  0  0  0  0  0  0  0  0  0  0
  1  8  1  0
  1 16  1  0
  1 19  1  0
  2 10  1  0
  2 17  1  0
  3  4  1  0
  3  7  1  0
  3 11  1  0
  4 14  1  0
  5 11  1  0
  6  9  1  0
  6 17  1  0
  6 18  1  0
  8 11  1  0
  9 10  1  0
  9 15  2  3
 12 18  2  0
 13 18  1  0
 15 16  1  0
M  END
>  <ID>  (1) 
conformer_0

$$$$
