
     RDKit          3D

 36 40  0  0  0  0  0  0  0  0999 V2000
  -24.5412  -33.6350   46.8501 N   0  0  0  0  0  0  0  0  0  0  0  0
  -25.3347  -32.9619   36.8103 C   0  0  0  0  0  0  0  0  0  0  0  0
  -29.0901  -31.6630   42.8916 O   0  0  0  0  0  1  0  0  0  0  0  0
  -24.1410  -33.6261   38.8164 C   0  0  0  0  0  0  0  0  0  0  0  0
  -22.8171  -33.7603   39.1597 C   0  0  0  0  0  0  0  0  0  0  0  0
  -24.7786  -35.9095   43.9310 C   0  0  0  0  0  0  0  0  0  0  0  0
  -27.7083  -32.7417   41.1690 O   0  0  0  0  0  0  0  0  0  0  0  0
  -24.9447  -30.5714   48.9059 C   0  0  0  0  0  0  0  0  0  0  0  0
  -24.4518  -35.3166   45.1337 N   0  0  0  0  0  0  0  0  0  0  0  0
  -25.1918  -31.7020   48.1408 N   0  0  0  0  0  0  0  0  0  0  0  0
  -23.1422  -33.1774   34.5061 C   0  0  0  0  0  0  0  0  0  0  0  0
  -26.6209  -31.5131   43.3140 C   0  0  0  0  0  0  0  0  0  0  0  0
  -25.2402  -37.1805   44.0160 N   0  0  0  0  0  0  0  0  0  0  0  0
  -24.6672  -34.0049   45.5380 C   0  0  0  0  0  0  0  0  0  0  0  0
  -24.5255  -32.7629   34.4466 C   0  0  0  0  0  0  0  0  0  0  0  0
  -22.0042  -33.7539   38.0236 N   0  0  0  0  0  0  0  0  0  0  0  0
  -25.5308  -37.8995   42.9425 C   0  0  0  0  0  0  0  0  0  0  0  0
  -25.0069  -36.1789   41.5572 N   0  0  0  0  0  0  0  0  0  0  0  0
  -25.4220  -32.7381   35.5020 C   0  0  0  0  0  0  0  0  0  0  0  0
  -27.8442  -30.2128   41.4385 O   0  0  0  0  0  0  0  0  0  0  0  0
  -25.0822  -32.9481   42.1716 C   0  0  0  0  0  0  0  0  0  0  0  0
  -24.2314  -34.0781   42.1504 C   0  0  0  0  0  0  0  0  0  0  0  0
  -23.0814  -33.9718   41.5632 N   0  0  0  0  0  0  0  0  0  0  0  0
  -25.0785  -32.8379   44.7456 C   0  0  0  0  0  0  0  0  0  0  0  0
  -22.4773  -33.5051   35.6674 C   0  0  0  0  0  0  0  0  0  0  0  0
  -22.9308  -33.5312   36.9324 N   0  0  0  0  0  0  0  0  0  0  0  0
  -24.1666  -33.3715   37.4598 C   0  0  0  0  0  0  0  0  0  0  0  0
  -24.9682  -32.3623   33.2352 O   0  0  0  0  0  0  0  0  0  0  0  0
  -27.8481  -31.5378   42.1715 P   0  0  0  0  0  4  0  0  0  0  0  0
  -24.8945  -32.2724   46.9794 C   0  0  0  0  0  0  0  0  0  0  0  0
  -22.4466  -33.7436   40.5101 C   0  0  0  0  0  0  0  0  0  0  0  0
  -25.0595  -31.7759   45.6540 C   0  0  0  0  0  0  0  0  0  0  0  0
  -24.6510  -35.3724   42.5971 C   0  0  0  0  0  0  0  0  0  0  0  0
  -25.3972  -37.4192   41.6473 N   0  0  0  0  0  0  0  0  0  0  0  0
  -25.6171  -32.5499   43.4161 C   0  0  0  0  0  0  0  0  0  0  0  0
  -22.5156  -33.2502   33.3014 F   0  0  0  0  0  0  0  0  0  0  0  0
  1 14  1  0
  1 30  2  0
  2 19  2  0
  2 27  1  0
  3 29  2  0
  4  5  1  0
  4 27  1  0
  5 16  1  0
  5 31  1  0
  6  9  1  0
  6 13  1  0
  6 33  2  0
  7 29  1  0
  8 10  1  0
  9 14  2  0
 10 30  1  0
 11 15  1  0
 11 25  2  0
 11 36  1  0
 12 29  1  0
 12 35  1  0
 13 17  2  0
 14 24  1  0
 15 19  1  0
 15 28  1  0
 16 26  1  0
 17 34  1  0
 18 33  1  0
 18 34  2  0
 20 29  1  0
 21 22  1  0
 21 35  1  0
 22 23  1  0
 22 33  1  0
 23 31  1  0
 24 32  1  0
 24 35  1  0
 25 26  1  0
 26 27  1  0
 30 32  1  0
M  END
>  <ID>  (1) 
conformer_0

$$$$
