
     RDKit          3D

 23 25  0  0  0  0  0  0  0  0999 V2000
  -24.8780  -33.9489   39.8137 C   0  0  0  0  0  0  0  0  0  0  0  0
  -22.6655  -33.7669   39.4311 C   0  0  0  0  0  0  0  0  0  0  0  0
  -24.1898  -34.0752   41.0023 N   0  0  0  0  0  0  0  0  0  0  0  0
  -26.3098  -32.2793   43.0564 C   0  0  0  0  0  0  0  0  0  0  0  0
  -25.3213  -38.1014   43.1269 C   0  0  0  0  0  0  0  0  0  0  0  0
  -24.6386  -34.0067   43.6548 C   0  0  0  0  0  0  0  0  0  0  0  0
  -24.9654  -35.9560   42.1145 C   0  0  0  0  0  0  0  0  0  0  0  0
  -21.7545  -33.4600   37.2260 N   0  0  0  0  0  0  0  0  0  0  0  0
  -27.0447  -32.9805   41.9557 O   0  0  0  0  0  0  0  0  0  0  0  0
  -25.3104  -33.4990   36.9089 O   0  0  0  0  0  0  0  0  0  0  0  0
  -21.5798  -33.6426   38.5867 C   0  0  0  0  0  0  0  0  0  0  0  0
  -22.9790  -33.4135   36.6160 C   0  0  0  0  0  0  0  0  0  0  0  0
  -23.1770  -33.2538   35.2750 O   0  0  0  0  0  0  0  0  0  0  0  0
  -23.9347  -33.7607   38.7962 C   0  0  0  0  0  0  0  0  0  0  0  0
  -25.2021  -38.6758   41.8542 C   0  0  0  0  0  0  0  0  0  0  0  0
  -24.8334  -36.5711   40.8887 N   0  0  0  0  0  0  0  0  0  0  0  0
  -24.9414  -37.9113   40.7470 C   0  0  0  0  0  0  0  0  0  0  0  0
  -23.7085  -34.4622   44.4385 O   0  0  0  0  0  0  0  0  0  0  0  0
  -25.2161  -36.6969   43.2460 C   0  0  0  0  0  0  0  0  0  0  0  0
  -25.4472  -32.8789   44.1173 C   0  0  0  0  0  0  0  0  0  0  0  0
  -24.0881  -33.5715   37.4283 C   0  0  0  0  0  0  0  0  0  0  0  0
  -22.8646  -33.9358   40.8214 N   0  0  0  0  0  0  0  0  0  0  0  0
  -24.8158  -34.4427   42.2681 C   0  0  0  0  0  0  0  0  0  0  0  0
  1  3  1  0
  1 14  1  0
  2 11  2  0
  2 14  1  0
  2 22  1  0
  3 22  1  0
  3 23  1  0
  4  9  1  0
  4 20  1  0
  5 15  2  0
  5 19  1  0
  6 18  1  0
  6 20  1  0
  6 23  1  0
  7 16  1  0
  7 19  2  0
  7 23  1  0
  8 11  1  0
  8 12  1  0
 10 21  1  0
 12 13  2  0
 12 21  1  0
 14 21  2  0
 15 17  1  0
 16 17  2  0
M  END
>  <ID>  (1) 
conformer_0

$$$$
