
     RDKit          3D

 23 24  0  0  0  0  0  0  0  0999 V2000
  -26.1351  -33.0939   42.7817 O   0  0  0  0  0  0  0  0  0  0  0  0
  -23.5538  -33.0537   34.9860 C   0  0  0  0  0  0  0  0  0  0  0  0
  -23.8037  -33.5492   37.1509 N   0  0  0  0  0  0  0  0  0  0  0  0
  -25.1217  -37.6770   43.0839 O   0  0  0  0  0  0  0  0  0  0  0  0
  -24.0902  -33.7085   39.7182 C   0  0  0  0  0  0  0  0  0  0  0  0
  -22.2748  -32.9599   35.6968 N   0  0  0  0  0  0  0  0  0  0  0  0
  -24.2064  -34.3970   44.3402 C   0  0  0  0  0  0  0  0  0  0  0  0
  -25.0298  -33.4574   42.0782 C   0  0  0  0  0  0  0  0  0  0  0  0
  -24.0903  -34.3595   42.8459 C   0  0  0  0  0  0  0  0  0  0  0  0
  -26.0729  -34.8940   40.3452 O   0  0  0  0  0  0  0  0  0  0  0  0
  -24.9714  -37.3367   40.9047 O   0  0  0  0  0  0  0  0  0  0  0  0
  -21.7060  -33.8307   39.2418 C   0  0  0  0  0  0  0  0  0  0  0  0
  -23.6236  -35.4222   44.8480 O   0  0  0  0  0  0  0  0  0  0  0  0
  -25.1824  -33.9942   40.6893 C   0  0  0  0  0  0  0  0  0  0  0  0
  -25.5997  -33.8983   35.7846 O   0  0  0  0  0  0  0  0  0  0  0  0
  -24.3046  -33.9679   38.3751 C   0  0  0  0  0  0  0  0  0  0  0  0
  -24.9543  -36.8775   42.0733 C   0  0  0  0  0  0  0  0  0  0  0  0
  -24.4527  -33.4357   35.9555 C   0  0  0  0  0  0  0  0  0  0  0  0
  -24.5684  -33.4043   44.9844 O   0  0  0  0  0  0  0  0  0  0  0  0
  -22.7413  -33.6695   40.1561 C   0  0  0  0  0  0  0  0  0  0  0  0
  -22.4659  -33.3531   36.9547 C   0  0  0  0  0  0  0  0  0  0  0  0
  -24.3639  -35.6790   42.4342 N   0  0  0  0  0  0  0  0  0  0  0  0
  -21.5537  -33.5598   37.9412 N   0  0  0  0  0  0  0  0  0  0  0  0
  1  8  1  0
  2  6  1  0
  2 18  1  0
  3 16  1  0
  3 18  1  0
  3 21  1  0
  4 17  2  0
  5 14  1  0
  5 16  1  0
  5 20  1  0
  6 21  1  0
  7  9  1  0
  7 13  2  0
  7 19  1  0
  8  9  1  0
  8 14  1  0
  9 22  1  0
 10 14  1  0
 11 17  1  0
 12 20  1  0
 12 23  1  0
 15 18  2  0
 17 22  1  0
 21 23  2  0
M  END
>  <ID>  (1) 
conformer_0

$$$$
