
     RDKit          3D

 15 15  0  0  0  0  0  0  0  0999 V2000
  -23.8174  -35.1968   43.3769 O   0  0  0  0  0  1  0  0  0  0  0  0
  -22.0170  -33.3175   36.4449 N   0  0  0  0  0  0  0  0  0  0  0  0
  -24.3243  -33.6477   36.5802 N   0  0  0  0  0  0  0  0  0  0  0  0
  -23.3002  -33.4422   34.5691 O   0  0  0  0  0  0  0  0  0  0  0  0
  -24.7402  -37.1565   41.8466 O   0  0  0  0  0  0  0  0  0  0  0  0
  -22.9364  -33.8464   40.0353 C   0  0  0  0  0  0  0  0  0  0  0  0
  -24.9557  -35.8083   42.5969 P   0  0  0  0  0  4  0  0  0  0  0  0
  -25.3624  -33.7132   38.5450 O   0  0  0  0  0  0  0  0  0  0  0  0
  -26.1930  -35.9065   43.4491 O   0  0  0  0  0  0  0  0  0  0  0  0
  -23.9339  -34.8604   40.4198 C   0  0  0  0  0  0  0  0  0  0  0  0
  -25.1263  -34.7132   41.3214 O   0  0  0  0  0  0  0  0  0  0  0  0
  -23.0107  -33.6272   38.5532 C   0  0  0  0  0  0  0  0  0  0  0  0
  -21.9245  -33.3753   37.7606 C   0  0  0  0  0  0  0  0  0  0  0  0
  -24.2669  -33.6881   37.9168 C   0  0  0  0  0  0  0  0  0  0  0  0
  -23.2095  -33.4631   35.8142 C   0  0  0  0  0  0  0  0  0  0  0  0
  1  7  2  0
  2 13  2  0
  2 15  1  0
  3 14  1  0
  3 15  1  0
  4 15  2  0
  5  7  1  0
  6 10  1  0
  6 12  1  0
  7  9  1  0
  7 11  1  0
  8 14  2  0
 10 11  1  0
 12 13  1  0
 12 14  1  0
M  END
>  <ID>  (1) 
conformer_0

$$$$
