
     RDKit          3D

 16 17  0  0  0  0  0  0  0  0999 V2000
  -24.8455  -33.6420   36.0789 O   0  0  0  0  0  0  0  0  0  0  0  0
  -24.1114  -33.6636   37.0931 C   0  0  0  0  0  0  0  0  0  0  0  0
  -21.7671  -33.6895   39.2651 C   0  0  0  0  0  0  0  0  0  0  0  0
  -22.6837  -33.5528   36.9458 C   0  0  0  0  0  0  0  0  0  0  0  0
  -22.9260  -33.8134   40.0240 C   0  0  0  0  0  0  0  0  0  0  0  0
  -25.0829  -34.1468   40.6335 C   0  0  0  0  0  0  0  0  0  0  0  0
  -24.6937  -33.7973   38.3022 N   0  0  0  0  0  0  0  0  0  0  0  0
  -23.8464  -35.3777   43.7030 O   0  0  0  0  0  0  0  0  0  0  0  0
  -22.2937  -33.3951   35.5167 C   0  0  0  0  0  0  0  0  0  0  0  0
  -21.7522  -33.5945   37.9062 N   0  0  0  0  0  0  0  0  0  0  0  0
  -24.1689  -33.8969   39.5159 C   0  0  0  0  0  0  0  0  0  0  0  0
  -26.3791  -33.8181   40.6852 O   0  0  0  0  0  0  0  0  0  0  0  0
  -24.2830  -34.0127   41.8502 C   0  0  0  0  0  0  0  0  0  0  0  0
  -22.9521  -33.8732   41.4470 O   0  0  0  0  0  0  0  0  0  0  0  0
  -25.8807  -34.7128   43.3860 O   0  0  0  0  0  0  0  0  0  0  0  0
  -24.6669  -34.7425   43.0652 C   0  0  0  0  0  0  0  0  0  0  0  0
  1  2  2  0
  2  4  1  0
  2  7  1  0
  3  5  2  0
  3 10  1  0
  4  9  1  0
  4 10  2  0
  5 11  1  0
  5 14  1  0
  6 11  1  0
  6 12  1  0
  6 13  1  0
  7 11  2  0
  8 16  2  0
 13 14  1  0
 13 16  1  0
 15 16  1  0
M  END
>  <ID>  (1) 
conformer_0

$$$$
