
     RDKit          3D

 16 16  0  0  0  0  0  0  0  0999 V2000
  -24.4687  -33.8116   38.4924 C   0  0  0  0  0  0  0  0  0  0  0  0
  -20.8351  -33.6601   39.7013 Cl  0  0  0  0  0  0  0  0  0  0  0  0
  -24.4687  -34.4325   41.5090 C   0  0  0  0  0  0  0  0  0  0  0  0
  -22.0114  -33.5649   37.3188 N   0  0  0  0  0  0  0  0  0  0  0  0
  -25.4697  -33.2324   36.3817 O   0  0  0  0  0  0  0  0  0  0  0  0
  -23.6232  -35.2573   43.9257 O   0  0  0  0  0  1  0  0  0  0  0  0
  -23.2460  -34.1673   40.8356 C   0  0  0  0  0  0  0  0  0  0  0  0
  -26.0559  -35.0685   43.5817 O   0  0  0  0  0  0  0  0  0  0  0  0
  -23.0339  -33.2657   35.1441 O   0  0  0  0  0  0  0  0  0  0  0  0
  -23.3159  -33.9450   39.3795 C   0  0  0  0  0  0  0  0  0  0  0  0
  -25.5859  -34.5804   40.8210 O   0  0  0  0  0  0  0  0  0  0  0  0
  -24.3832  -33.5437   37.0966 C   0  0  0  0  0  0  0  0  0  0  0  0
  -23.1128  -33.4131   36.4418 C   0  0  0  0  0  0  0  0  0  0  0  0
  -22.0555  -33.6433   38.7277 C   0  0  0  0  0  0  0  0  0  0  0  0
  -24.9131  -36.9781   42.5550 O   0  0  0  0  0  0  0  0  0  0  0  0
  -24.7642  -35.5131   43.0028 P   0  0  0  0  0  4  0  0  0  0  0  0
  1 10  1  0
  1 12  2  0
  2 14  1  0
  3  7  1  0
  3 11  1  0
  3 16  1  0
  4 13  1  0
  4 14  1  0
  5 12  1  0
  6 16  2  0
  7 10  1  0
  8 16  1  0
  9 13  2  0
 10 14  2  0
 12 13  1  0
 15 16  1  0
M  END
>  <ID>  (1) 
conformer_0

$$$$
