
     RDKit          3D

 15 15  0  0  0  0  0  0  0  0999 V2000
  -22.0561  -33.5859   36.2325 O   0  0  0  0  0  0  0  0  0  0  0  0
  -23.7898  -34.3110   43.9606 O   0  0  0  0  0  1  0  0  0  0  0  0
  -24.5552  -33.8105   38.8738 C   0  0  0  0  0  0  0  0  0  0  0  0
  -22.6427  -33.6427   37.4862 C   0  0  0  0  0  0  0  0  0  0  0  0
  -24.5309  -35.4141   41.7367 O   0  0  0  0  0  0  0  0  0  0  0  0
  -22.9471  -33.3314   35.1929 C   0  0  0  0  0  0  0  0  0  0  0  0
  -24.6969  -36.6649   43.9509 O   0  0  0  0  0  0  0  0  0  0  0  0
  -24.7957  -35.2827   43.4092 P   0  0  0  0  0  4  0  0  0  0  0  0
  -21.8084  -33.6561   38.6273 C   0  0  0  0  0  0  0  0  0  0  0  0
  -22.3834  -33.7549   39.8963 C   0  0  0  0  0  0  0  0  0  0  0  0
  -23.7711  -33.8521   40.0145 C   0  0  0  0  0  0  0  0  0  0  0  0
  -23.9954  -33.7007   37.6102 C   0  0  0  0  0  0  0  0  0  0  0  0
  -25.8863  -33.8707   38.9877 O   0  0  0  0  0  0  0  0  0  0  0  0
  -26.1791  -34.7608   43.5325 O   0  0  0  0  0  0  0  0  0  0  0  0
  -24.4795  -33.9471   41.2336 C   0  0  0  0  0  0  0  0  0  0  0  0
  1  4  1  0
  1  6  1  0
  2  8  2  0
  3 11  2  0
  3 12  1  0
  3 13  1  0
  4  9  1  0
  4 12  2  0
  5  8  1  0
  5 15  1  0
  7  8  1  0
  8 14  1  0
  9 10  2  0
 10 11  1  0
 11 15  1  0
M  END
>  <ID>  (1) 
conformer_0

$$$$
