
     RDKit          3D

 30 31  0  0  0  0  0  0  0  0999 V2000
  -23.9036  -33.9413   42.3752 C   0  0  0  0  0  0  0  0  0  0  0  0
  -22.3533  -33.4904   33.4789 N   0  0  0  0  0  0  0  0  0  0  0  0
  -25.5609  -36.5987   45.1416 O   0  0  0  0  0  1  0  0  0  0  0  0
  -23.6461  -33.0826   33.2896 C   0  0  0  0  0  0  0  0  0  0  0  0
  -24.6750  -31.6494   44.0752 O   0  0  0  0  0  1  0  0  0  0  0  0
  -23.6676  -35.2791   45.4542 O   0  0  0  0  0  0  0  0  0  0  0  0
  -24.4172  -32.8822   34.3905 N   0  0  0  0  0  0  0  0  0  0  0  0
  -26.9141  -30.6999   41.9592 O   0  0  0  0  0  0  0  0  0  0  0  0
  -25.9722  -35.7489   43.0356 O   0  0  0  0  0  0  0  0  0  0  0  0
  -25.5571  -33.9341   44.5981 O   0  0  0  0  0  0  0  0  0  0  0  0
  -23.8812  -35.2593   43.1106 O   0  0  0  0  0  0  0  0  0  0  0  0
  -24.8614  -33.4823   37.9148 N   0  0  0  0  0  0  0  0  0  0  0  0
  -22.5488  -33.7739   38.3172 C   0  0  0  0  0  0  0  0  0  0  0  0
  -25.1681  -33.1985   42.1891 O   0  0  0  0  0  0  0  0  0  0  0  0
  -23.1907  -34.1183   41.1437 O   0  0  0  0  0  0  0  0  0  0  0  0
  -25.6126  -32.6490   43.6436 P   0  0  0  0  0  4  0  0  0  0  0  0
  -23.9048  -33.7424   38.8875 C   0  0  0  0  0  0  0  0  0  0  0  0
  -24.1735  -32.8720   32.0108 N   0  0  0  0  0  0  0  0  0  0  0  0
  -22.6697  -33.5753   35.7947 C   0  0  0  0  0  0  0  0  0  0  0  0
  -24.1178  -34.5134   40.1085 C   0  0  0  0  0  0  0  0  0  0  0  0
  -22.2087  -33.3261   40.6602 O   0  0  0  0  0  0  0  0  0  0  0  0
  -21.9348  -33.7373   34.6777 N   0  0  0  0  0  0  0  0  0  0  0  0
  -24.0122  -33.1876   35.5847 C   0  0  0  0  0  0  0  0  0  0  0  0
  -27.6093  -31.5569   42.5273 C   0  0  0  0  0  0  0  0  0  0  0  0
  -24.8097  -33.1693   36.7140 C   0  0  0  0  0  0  0  0  0  0  0  0
  -21.6262  -33.9248   39.4385 C   0  0  0  0  0  0  0  0  0  0  0  0
  -27.0779  -32.2192   43.6325 O   0  0  0  0  0  0  0  0  0  0  0  0
  -28.8817  -31.5892   42.3675 O   0  0  0  0  0  0  0  0  0  0  0  0
  -24.9727  -35.4411   44.3560 P   0  0  0  0  0  4  0  0  0  0  0  0
  -22.2466  -33.7458   37.0443 N   0  0  0  0  0  0  0  0  0  0  0  0
  1 11  1  0
  1 14  1  0
  1 15  1  0
  2  4  1  0
  2 22  1  0
  3 29  2  0
  4  7  1  0
  4 18  2  0
  5 16  2  0
  6 29  1  0
  7 23  1  0
  8 24  2  0
  9 29  1  0
 10 16  1  0
 10 29  1  0
 12 17  1  0
 12 25  1  0
 13 17  1  0
 13 26  1  0
 13 30  2  0
 14 16  1  0
 15 20  1  0
 16 27  1  0
 17 20  1  0
 19 22  2  0
 19 23  1  0
 19 30  1  0
 21 26  1  0
 23 25  2  0
 24 27  1  0
 24 28  1  0
M  END
>  <ID>  (1) 
conformer_0

$$$$
