
     RDKit          3D

 11 11  0  0  0  0  0  0  0  0999 V2000
  -24.1873  -34.4100   41.2793 C   0  0  0  0  0  0  0  0  0  0  0  0
  -22.9896  -33.7149   41.1290 C   0  0  0  0  0  0  0  0  0  0  0  0
  -22.5231  -33.4374   39.8874 C   0  0  0  0  0  0  0  0  0  0  0  0
  -22.5845  -33.5114   37.4521 C   0  0  0  0  0  0  0  0  0  0  0  0
  -24.0087  -35.0891   43.5165 O   0  0  0  0  0  0  0  0  0  0  0  0
  -23.3973  -33.7838   36.2434 N   0  0  0  0  0  0  0  0  0  0  0  0
  -23.1935  -33.8408   38.7742 C   0  0  0  0  0  0  0  0  0  0  0  0
  -24.7283  -34.6744   42.6372 C   0  0  0  0  0  0  0  0  0  0  0  0
  -24.8289  -34.7767   40.1496 C   0  0  0  0  0  0  0  0  0  0  0  0
  -24.3743  -34.5031   38.9154 N   0  0  0  0  0  0  0  0  0  0  0  0
  -25.8981  -34.3347   42.8106 O   0  0  0  0  0  0  0  0  0  0  0  0
  1  2  2  0
  1  8  1  0
  1  9  1  0
  2  3  1  0
  3  7  2  0
  4  6  1  0
  4  7  1  0
  5  8  2  0
  7 10  1  0
  8 11  1  0
  9 10  2  0
M  END
>  <ID>  (1) 
conformer_0

$$$$
