
     RDKit          3D

 30 33  0  0  0  0  0  0  0  0999 V2000
  -24.4422  -33.0742   46.3136 C   0  0  0  0  0  0  0  0  0  0  0  0
  -26.1439  -33.1963   37.3558 O   0  0  0  0  0  0  0  0  0  0  0  0
  -26.8665  -36.7374   44.1451 O   0  0  0  0  0  1  0  0  0  0  0  0
  -26.1146  -32.6097   41.5201 N   0  0  0  0  0  0  0  0  0  0  0  0
  -23.5915  -33.8072   40.7185 C   0  0  0  0  0  0  0  0  0  0  0  0
  -24.0718  -33.8686   42.0785 C   0  0  0  0  0  0  0  0  0  0  0  0
  -23.9955  -33.5443   38.3117 C   0  0  0  0  0  0  0  0  0  0  0  0
  -24.4057  -33.6841   39.6112 C   0  0  0  0  0  0  0  0  0  0  0  0
  -24.5243  -34.6499   44.4661 C   0  0  0  0  0  0  0  0  0  0  0  0
  -23.3652  -32.9660   33.3852 N   0  0  0  0  0  0  0  0  0  0  0  0
  -22.1301  -33.6970   36.7960 N   0  0  0  0  0  0  0  0  0  0  0  0
  -24.4126  -34.5980   45.9667 C   0  0  0  0  0  0  0  0  0  0  0  0
  -25.1145  -37.9280   45.1190 O   0  0  0  0  0  0  0  0  0  0  0  0
  -22.3266  -33.3057   34.3266 C   0  0  0  0  0  0  0  0  0  0  0  0
  -24.6260  -32.4326   33.6496 C   0  0  0  0  0  0  0  0  0  0  0  0
  -24.3632  -35.8817   43.9137 O   0  0  0  0  0  0  0  0  0  0  0  0
  -21.7598  -33.7706   39.1925 C   0  0  0  0  0  0  0  0  0  0  0  0
  -22.2360  -33.8375   40.4978 C   0  0  0  0  0  0  0  0  0  0  0  0
  -27.0334  -31.7631   42.1687 C   0  0  0  0  0  0  0  0  0  0  0  0
  -25.5408  -32.3964   43.7328 C   0  0  0  0  0  0  0  0  0  0  0  0
  -25.1663  -33.0387   42.4402 C   0  0  0  0  0  0  0  0  0  0  0  0
  -24.9245  -32.2919   45.1426 C   0  0  0  0  0  0  0  0  0  0  0  0
  -22.8973  -33.4375   35.6626 C   0  0  0  0  0  0  0  0  0  0  0  0
  -22.6080  -33.6792   38.1022 C   0  0  0  0  0  0  0  0  0  0  0  0
  -24.8537  -33.3168   37.1728 C   0  0  0  0  0  0  0  0  0  0  0  0
  -26.7022  -31.6312   43.4887 C   0  0  0  0  0  0  0  0  0  0  0  0
  -25.4678  -37.0041   43.9485 P   0  0  0  0  0  4  0  0  0  0  0  0
  -25.1667  -32.7582   34.8418 N   0  0  0  0  0  0  0  0  0  0  0  0
  -25.2596  -37.5366   42.4414 O   0  0  0  0  0  0  0  0  0  0  0  0
  -24.3013  -33.1620   35.8213 C   0  0  0  0  0  0  0  0  0  0  0  0
  1 12  1  0
  1 22  1  0
  2 25  1  0
  3 27  2  0
  4 19  1  0
  4 21  1  0
  5  6  1  0
  5  8  2  0
  5 18  1  0
  6 21  1  0
  7  8  1  0
  7 24  1  0
  7 25  2  0
  9 12  1  0
  9 16  1  0
 10 14  1  0
 10 15  1  0
 11 23  1  0
 11 24  2  0
 13 27  1  0
 14 23  1  0
 15 28  1  0
 16 27  1  0
 17 18  2  0
 17 24  1  0
 19 26  1  0
 20 21  2  0
 20 22  1  0
 20 26  1  0
 23 30  1  0
 25 30  1  0
 27 29  1  0
 28 30  2  0
M  END
>  <ID>  (1) 
conformer_0

$$$$
