
     RDKit          3D

 22 23  0  0  0  0  0  0  0  0999 V2000
  -25.3200  -36.1053   43.7440 P   0  0  0  0  0  4  0  0  0  0  0  0
  -23.6658  -33.7021   38.8549 C   0  0  0  0  0  0  0  0  0  0  0  0
  -23.6365  -33.4225   36.5599 N   0  0  0  0  0  0  0  0  0  0  0  0
  -26.5229  -36.8085   44.3640 O   0  0  0  0  0  1  0  0  0  0  0  0
  -24.9300  -36.7397   42.4285 O   0  0  0  0  0  0  0  0  0  0  0  0
  -25.7922  -34.6076   43.4435 O   0  0  0  0  0  0  0  0  0  0  0  0
  -23.5808  -33.8703   40.3203 C   0  0  0  0  0  0  0  0  0  0  0  0
  -25.4424  -31.6218   42.2597 O   0  0  0  0  0  0  0  0  0  0  0  0
  -24.7751  -33.7322   41.2185 C   0  0  0  0  0  0  0  0  0  0  0  0
  -25.9979  -33.7804   40.6280 O   0  0  0  0  0  0  0  0  0  0  0  0
  -24.6258  -32.7591   42.3626 C   0  0  0  0  0  0  0  0  0  0  0  0
  -22.3057  -33.4818   37.0292 C   0  0  0  0  0  0  0  0  0  0  0  0
  -22.2746  -33.8302   40.6793 C   0  0  0  0  0  0  0  0  0  0  0  0
  -24.7293  -32.7661   34.5607 O   0  0  0  0  0  0  0  0  0  0  0  0
  -24.3890  -32.9690   44.7601 O   0  0  0  0  0  0  0  0  0  0  0  0
  -22.4496  -33.4960   34.3422 C   0  0  0  0  0  0  0  0  0  0  0  0
  -24.4307  -33.5724   37.7312 N   0  0  0  0  0  0  0  0  0  0  0  0
  -21.4844  -33.7980   39.4412 C   0  0  0  0  0  0  0  0  0  0  0  0
  -24.1764  -35.9736   44.7363 O   0  0  0  0  0  0  0  0  0  0  0  0
  -24.9456  -33.5279   43.6559 C   0  0  0  0  0  0  0  0  0  0  0  0
  -23.7013  -33.3025   35.0804 C   0  0  0  0  0  0  0  0  0  0  0  0
  -22.3070  -33.6330   38.3712 C   0  0  0  0  0  0  0  0  0  0  0  0
  1  4  2  0
  1  5  1  0
  1  6  1  0
  1 19  1  0
  2  7  1  0
  2 17  1  0
  2 22  2  0
  3 12  1  0
  3 17  1  0
  3 21  1  0
  6 20  1  0
  7  9  1  0
  7 13  1  0
  8 11  1  0
  9 10  1  0
  9 11  1  0
 11 20  1  0
 12 22  1  0
 13 18  1  0
 14 21  2  0
 15 20  2  0
 16 21  1  0
 18 22  1  0
M  END
>  <ID>  (1) 
conformer_0

$$$$
