
     RDKit          3D

 19 20  0  0  0  0  0  0  0  0999 V2000
  -24.3885  -34.1654   40.1806 C   0  0  0  0  0  0  0  0  0  0  0  0
  -22.9425  -33.2830   33.3911 N   0  0  0  0  0  0  0  0  0  0  0  0
  -21.6903  -33.6466   38.7758 C   0  0  0  0  0  0  0  0  0  0  0  0
  -21.9352  -33.8537   40.0556 C   0  0  0  0  0  0  0  0  0  0  0  0
  -22.7088  -33.6389   37.8404 C   0  0  0  0  0  0  0  0  0  0  0  0
  -23.1170  -34.0559   40.4846 C   0  0  0  0  0  0  0  0  0  0  0  0
  -22.3530  -33.4023   36.4650 N   0  0  0  0  0  0  0  0  0  0  0  0
  -25.3535  -36.9918   43.3876 O   0  0  0  0  0  1  0  0  0  0  0  0
  -24.0849  -33.6975   37.9238 C   0  0  0  0  0  0  0  0  0  0  0  0
  -24.2157  -35.0786   42.3181 O   0  0  0  0  0  0  0  0  0  0  0  0
  -24.7294  -31.7894   34.2128 C   0  0  0  0  0  0  0  0  0  0  0  0
  -24.8927  -33.9721   38.9676 N   0  0  0  0  0  0  0  0  0  0  0  0
  -23.4948  -33.2366   35.7775 C   0  0  0  0  0  0  0  0  0  0  0  0
  -23.6518  -32.7518   34.3935 C   0  0  0  0  0  0  0  0  0  0  0  0
  -23.6178  -35.5442   44.6708 O   0  0  0  0  0  0  0  0  0  0  0  0
  -25.2384  -34.5096   41.2874 C   0  0  0  0  0  0  0  0  0  0  0  0
  -24.7940  -35.5716   43.6827 P   0  0  0  0  0  4  0  0  0  0  0  0
  -24.6332  -33.4339   36.6423 C   0  0  0  0  0  0  0  0  0  0  0  0
  -25.8380  -34.6036   44.0991 O   0  0  0  0  0  0  0  0  0  0  0  0
  1  6  1  0
  1 12  2  0
  1 16  1  0
  2 14  1  0
  3  4  1  0
  3  5  2  0
  4  6  2  0
  5  7  1  0
  5  9  1  0
  7 13  1  0
  8 17  2  0
  9 12  1  0
  9 18  1  0
 10 16  1  0
 10 17  1  0
 11 14  1  0
 13 14  1  0
 13 18  1  0
 15 17  1  0
 17 19  1  0
M  END
>  <ID>  (1) 
conformer_0

$$$$
