
     RDKit          3D

 10  9  0  0  0  0  0  0  0  0999 V2000
  -25.1096  -36.6978   42.1894 O   0  0  0  0  0  1  0  0  0  0  0  0
  -25.9793  -34.2987   42.0734 O   0  0  0  0  0  0  0  0  0  0  0  0
  -22.7031  -33.7396   35.3051 C   0  0  0  0  0  0  0  0  0  0  0  0
  -23.7657  -34.7522   43.0914 O   0  0  0  0  0  0  0  0  0  0  0  0
  -22.5522  -33.1241   36.5940 N   0  0  0  0  0  0  0  0  0  0  0  0
  -22.4703  -33.7850   38.8844 C   0  0  0  0  0  0  0  0  0  0  0  0
  -23.9986  -35.0455   40.3791 C   0  0  0  0  0  0  0  0  0  0  0  0
  -23.4185  -33.7102   37.6315 C   0  0  0  0  0  0  0  0  0  0  0  0
  -24.7094  -35.1915   42.0043 P   0  0  0  0  0  4  0  0  0  0  0  0
  -23.2377  -33.7496   40.1904 C   0  0  0  0  0  0  0  0  0  0  0  0
  1  9  2  0
  2  9  1  0
  3  5  1  0
  4  9  1  0
  5  8  1  0
  6  8  1  0
  6 10  1  0
  7  9  1  0
  7 10  1  0
M  END
>  <ID>  (1) 
conformer_0

$$$$
