
     RDKit          3D

 23 24  0  0  0  0  0  0  0  0999 V2000
  -25.1420  -33.2591   36.2556 N   0  0  0  0  0  0  0  0  0  0  0  0
  -23.8487  -34.3208   42.3392 O   0  0  0  0  0  0  0  0  0  0  0  0
  -22.0704  -33.5681   34.4148 C   0  0  0  0  0  0  0  0  0  0  0  0
  -25.7343  -33.2489   41.5148 C   0  0  0  0  0  0  0  0  0  0  0  0
  -24.0071  -33.9264   39.8390 N   0  0  0  0  0  0  0  0  0  0  0  0
  -24.2946  -33.4425   37.3350 C   0  0  0  0  0  0  0  0  0  0  0  0
  -25.2237  -33.2190   44.0339 O   0  0  0  0  0  0  0  0  0  0  0  0
  -23.0030  -33.4765   36.8245 C   0  0  0  0  0  0  0  0  0  0  0  0
  -24.3159  -36.3221   44.9878 O   0  0  0  0  0  0  0  0  0  0  0  0
  -21.8959  -33.6024   37.5397 N   0  0  0  0  0  0  0  0  0  0  0  0
  -26.0176  -33.5082   38.8661 O   0  0  0  0  0  0  0  0  0  0  0  0
  -23.7416  -34.3706   45.7047 O   0  0  0  0  0  0  0  0  0  0  0  0
  -25.7808  -35.4860   43.0006 C   0  0  0  0  0  0  0  0  0  0  0  0
  -21.8323  -33.6660   38.8415 C   0  0  0  0  0  0  0  0  0  0  0  0
  -24.7590  -33.6122   38.6834 C   0  0  0  0  0  0  0  0  0  0  0  0
  -26.9345  -33.3849   42.0775 O   0  0  0  0  0  0  0  0  0  0  0  0
  -22.6947  -33.8109   39.8573 C   0  0  0  0  0  0  0  0  0  0  0  0
  -25.1342  -36.5651   42.3140 O   0  0  0  0  0  0  0  0  0  0  0  0
  -24.6628  -34.2632   41.1249 C   0  0  0  0  0  0  0  0  0  0  0  0
  -24.7861  -34.4400   43.5391 C   0  0  0  0  0  0  0  0  0  0  0  0
  -24.3577  -33.1553   35.0960 N   0  0  0  0  0  0  0  0  0  0  0  0
  -24.1369  -35.1502   44.7493 C   0  0  0  0  0  0  0  0  0  0  0  0
  -23.0528  -33.3453   35.4244 C   0  0  0  0  0  0  0  0  0  0  0  0
  1  6  1  0
  1 21  1  0
  2 19  1  0
  2 20  1  0
  3 23  1  0
  4 16  1  0
  4 19  1  0
  5 15  1  0
  5 17  1  0
  5 19  1  0
  6  8  2  0
  6 15  1  0
  7 20  1  0
  8 10  1  0
  8 23  1  0
  9 22  2  0
 10 14  2  0
 11 15  2  0
 12 22  1  0
 13 18  1  0
 13 20  1  0
 14 17  1  0
 20 22  1  0
 21 23  1  0
M  END
>  <ID>  (1) 
conformer_0

$$$$
