
     RDKit          3D

 21 23  0  0  0  0  0  0  0  0999 V2000
  -23.0564  -33.0053   34.3664 N   0  0  0  0  0  0  0  0  0  0  0  0
  -24.7064  -34.2261   44.7388 O   0  0  0  0  0  1  0  0  0  0  0  0
  -24.6705  -33.6218   37.5679 C   0  0  0  0  0  0  0  0  0  0  0  0
  -25.6074  -33.1698   35.3997 O   0  0  0  0  0  0  0  0  0  0  0  0
  -22.2050  -33.4515   36.5082 N   0  0  0  0  0  0  0  0  0  0  0  0
  -23.2188  -33.2392   35.6930 C   0  0  0  0  0  0  0  0  0  0  0  0
  -21.2798  -33.7761   38.7293 O   0  0  0  0  0  0  0  0  0  0  0  0
  -24.8188  -35.0049   40.3059 C   0  0  0  0  0  0  0  0  0  0  0  0
  -22.3773  -33.6923   37.8158 C   0  0  0  0  0  0  0  0  0  0  0  0
  -24.3734  -35.6215   42.6718 O   0  0  0  0  0  0  0  0  0  0  0  0
  -21.5829  -33.5032   40.0423 C   0  0  0  0  0  0  0  0  0  0  0  0
  -23.7081  -34.3560   39.6358 C   0  0  0  0  0  0  0  0  0  0  0  0
  -23.7636  -33.4791   41.8326 C   0  0  0  0  0  0  0  0  0  0  0  0
  -24.5595  -33.3247   36.2110 C   0  0  0  0  0  0  0  0  0  0  0  0
  -24.5791  -36.6703   45.1034 O   0  0  0  0  0  0  0  0  0  0  0  0
  -24.8918  -34.5143   41.7438 C   0  0  0  0  0  0  0  0  0  0  0  0
  -22.8801  -33.5890   40.5684 C   0  0  0  0  0  0  0  0  0  0  0  0
  -23.6064  -33.8699   38.3258 N   0  0  0  0  0  0  0  0  0  0  0  0
  -25.0125  -35.6066   44.1451 P   0  0  0  0  0  4  0  0  0  0  0  0
  -26.1935  -33.9255   41.8009 O   0  0  0  0  0  0  0  0  0  0  0  0
  -26.4515  -35.9084   43.8905 O   0  0  0  0  0  0  0  0  0  0  0  0
  1  6  2  0
  2 19  2  0
  3 14  2  0
  3 18  1  0
  4 14  1  0
  5  6  1  0
  5  9  2  0
  6 14  1  0
  7  9  1  0
  7 11  1  0
  8 12  1  0
  8 16  1  0
  9 18  1  0
 10 16  1  0
 10 19  1  0
 11 17  1  0
 12 17  1  0
 12 18  1  0
 13 16  1  0
 13 17  1  0
 15 19  1  0
 16 20  1  0
 19 21  1  0
M  END
>  <ID>  (1) 
conformer_0

$$$$
