
     RDKit          3D

 13 13  0  0  0  0  0  0  0  0999 V2000
  -22.5759  -33.3195   36.1334 O   0  0  0  0  0  0  0  0  0  0  0  0
  -24.1812  -33.7118   37.9657 N   0  0  0  0  0  0  0  0  0  0  0  0
  -24.4540  -34.0521   39.2591 C   0  0  0  0  0  0  0  0  0  0  0  0
  -23.7251  -35.0841   41.4054 C   0  0  0  0  0  0  0  0  0  0  0  0
  -25.7714  -34.4269   42.3934 O   0  0  0  0  0  0  0  0  0  0  0  0
  -23.7770  -32.9470   35.3991 C   0  0  0  0  0  0  0  0  0  0  0  0
  -22.1314  -34.0601   39.7546 C   0  0  0  0  0  0  0  0  0  0  0  0
  -22.8771  -33.5745   37.5117 C   0  0  0  0  0  0  0  0  0  0  0  0
  -24.7017  -35.0743   42.4182 C   0  0  0  0  0  0  0  0  0  0  0  0
  -21.8575  -33.6820   38.4210 C   0  0  0  0  0  0  0  0  0  0  0  0
  -25.6907  -34.0761   39.6241 O   0  0  0  0  0  0  0  0  0  0  0  0
  -23.4414  -34.3810   40.1778 C   0  0  0  0  0  0  0  0  0  0  0  0
  -24.4341  -35.7727   43.4533 O   0  0  0  0  0  0  0  0  0  0  0  0
  1  6  1  0
  1  8  1  0
  2  3  1  0
  2  8  2  0
  3 11  2  0
  3 12  1  0
  4  9  1  0
  4 12  1  0
  5  9  2  0
  7 10  2  0
  7 12  1  0
  8 10  1  0
  9 13  1  0
M  END
>  <ID>  (1) 
conformer_0

$$$$
