
     RDKit          3D

 31 34  0  0  0  0  0  0  0  0999 V2000
  -25.4171  -38.1064   42.7943 N   0  0  0  0  0  0  0  0  0  0  0  0
  -25.4124  -37.0990   46.3201 C   0  0  0  0  0  0  0  0  0  0  0  0
  -25.1184  -37.6815   41.5647 N   0  0  0  0  0  0  0  0  0  0  0  0
  -24.7807  -36.0460   43.8030 C   0  0  0  0  0  0  0  0  0  0  0  0
  -23.1880  -34.0317   38.6342 C   0  0  0  0  0  0  0  0  0  0  0  0
  -23.6341  -33.8807   40.0261 C   0  0  0  0  0  0  0  0  0  0  0  0
  -24.2317  -34.2336   42.3043 C   0  0  0  0  0  0  0  0  0  0  0  0
  -23.4078  -33.5236   37.2548 C   0  0  0  0  0  0  0  0  0  0  0  0
  -23.7482  -32.8397   34.6809 N   0  0  0  0  0  0  0  0  0  0  0  0
  -24.5458  -35.6040   42.5305 N   0  0  0  0  0  0  0  0  0  0  0  0
  -24.6817  -36.4234   41.4732 C   0  0  0  0  0  0  0  0  0  0  0  0
  -23.6498  -33.4806   43.0620 O   0  0  0  0  0  0  0  0  0  0  0  0
  -24.8468  -32.8657   35.4848 C   0  0  0  0  0  0  0  0  0  0  0  0
  -24.7536  -35.8888   46.1889 C   0  0  0  0  0  0  0  0  0  0  0  0
  -27.2471  -32.8672   40.8671 C   0  0  0  0  0  0  0  0  0  0  0  0
  -24.5920  -33.7191   41.0132 C   0  0  0  0  0  0  0  0  0  0  0  0
  -22.3091  -33.6557   36.3969 C   0  0  0  0  0  0  0  0  0  0  0  0
  -28.5167  -32.1343   38.8426 C   0  0  0  0  0  0  0  0  0  0  0  0
  -26.5641  -33.8048   39.7510 O   0  0  0  0  0  0  0  0  0  0  0  0
  -25.2980  -37.3539   43.9304 C   0  0  0  0  0  0  0  0  0  0  0  0
  -24.4886  -35.3185   44.9341 C   0  0  0  0  0  0  0  0  0  0  0  0
  -28.5933  -32.6029   40.2191 C   0  0  0  0  0  0  0  0  0  0  0  0
  -27.2979  -32.5297   42.1833 O   0  0  0  0  0  0  0  0  0  0  0  0
  -21.7539  -33.7506   39.1093 C   0  0  0  0  0  0  0  0  0  0  0  0
  -29.1181  -30.7639   38.6194 C   0  0  0  0  0  0  0  0  0  0  0  0
  -24.6789  -33.3618   36.7435 C   0  0  0  0  0  0  0  0  0  0  0  0
  -22.2351  -33.5680   40.5526 C   0  0  0  0  0  0  0  0  0  0  0  0
  -22.5550  -33.4177   35.0456 C   0  0  0  0  0  0  0  0  0  0  0  0
  -27.8085  -32.6196   37.7374 N   0  0  0  0  0  0  0  0  0  0  0  0
  -25.7007  -37.8663   45.1746 C   0  0  0  0  0  0  0  0  0  0  0  0
  -25.8611  -33.3568   40.6732 C   0  0  0  0  0  0  0  0  0  0  0  0
  1  3  1  0
  1 20  2  0
  2 14  2  0
  2 30  1  0
  3 11  2  0
  4 10  1  0
  4 20  1  0
  4 21  2  0
  5  6  1  0
  5  8  1  0
  5 24  1  0
  6 16  1  0
  6 27  1  0
  7 10  1  0
  7 12  2  0
  7 16  1  0
  8 17  1  0
  8 26  1  0
  9 13  2  0
  9 28  1  0
 10 11  1  0
 13 26  1  0
 14 21  1  0
 15 22  1  0
 15 23  1  0
 15 31  1  0
 16 31  1  0
 17 28  2  0
 18 22  1  0
 18 25  1  0
 18 29  1  0
 19 31  2  0
 20 30  1  0
 24 27  1  0
M  END
>  <ID>  (1) 
conformer_0

$$$$
