
     RDKit          3D

 18 19  0  0  0  0  0  0  0  0999 V2000
  -25.7043  -33.2488   41.0752 O   0  0  0  0  0  0  0  0  0  0  0  0
  -24.9304  -37.4712   43.0370 O   0  0  0  0  0  0  0  0  0  0  0  0
  -23.0056  -33.5878   37.7958 C   0  0  0  0  0  0  0  0  0  0  0  0
  -24.6751  -35.2064   41.9755 C   0  0  0  0  0  0  0  0  0  0  0  0
  -24.2950  -34.6856   43.3607 C   0  0  0  0  0  0  0  0  0  0  0  0
  -25.2426  -33.7155   38.0358 N   0  0  0  0  0  0  0  0  0  0  0  0
  -24.7470  -34.1669   40.9961 C   0  0  0  0  0  0  0  0  0  0  0  0
  -23.8746  -35.4504   44.2394 O   0  0  0  0  0  0  0  0  0  0  0  0
  -21.9538  -33.5858   38.6518 N   0  0  0  0  0  0  0  0  0  0  0  0
  -22.3985  -33.7887   39.9540 C   0  0  0  0  0  0  0  0  0  0  0  0
  -24.1451  -33.7480   38.7258 C   0  0  0  0  0  0  0  0  0  0  0  0
  -22.9435  -33.4460   35.2067 C   0  0  0  0  0  0  0  0  0  0  0  0
  -24.9708  -33.5627   36.7428 C   0  0  0  0  0  0  0  0  0  0  0  0
  -24.0007  -33.4254   43.3586 O   0  0  0  0  0  0  0  0  0  0  0  0
  -24.9991  -36.6620   41.8651 C   0  0  0  0  0  0  0  0  0  0  0  0
  -23.7355  -33.9324   39.9855 N   0  0  0  0  0  0  0  0  0  0  0  0
  -23.5637  -33.4821   36.5046 C   0  0  0  0  0  0  0  0  0  0  0  0
  -21.6764  -32.8840   35.1674 N   0  0  0  0  0  0  0  0  0  0  0  0
  1  7  2  0
  2 15  1  0
  3  9  1  0
  3 11  2  0
  3 17  1  0
  4  5  1  0
  4  7  1  0
  4 15  2  3
  5  8  2  0
  5 14  1  0
  6 11  1  0
  6 13  1  0
  7 16  1  0
  9 10  1  0
 10 16  1  0
 11 16  1  0
 12 17  1  0
 12 18  1  0
 13 17  1  0
M  END
>  <ID>  (1) 
conformer_0

$$$$
