
     RDKit          3D

 16 17  0  0  0  0  0  0  0  0999 V2000
  -22.0730  -33.2888   36.5325 N   0  0  0  0  0  0  0  0  0  0  0  0
  -22.2829  -33.2973   39.0225 C   0  0  0  0  0  0  0  0  0  0  0  0
  -22.5375  -33.1933   35.1739 C   0  0  0  0  0  0  0  0  0  0  0  0
  -24.7334  -34.3154   38.8127 C   0  0  0  0  0  0  0  0  0  0  0  0
  -24.1718  -34.8544   42.4432 N   0  0  0  0  0  0  0  0  0  0  0  0
  -24.1411  -34.3483   40.1097 C   0  0  0  0  0  0  0  0  0  0  0  0
  -24.4364  -35.2530   41.1756 C   0  0  0  0  0  0  0  0  0  0  0  0
  -24.6479  -36.4890   40.9704 O   0  0  0  0  0  0  0  0  0  0  0  0
  -25.9296  -35.7592   43.6713 O   0  0  0  0  0  0  0  0  0  0  0  0
  -22.9784  -33.5283   40.2579 C   0  0  0  0  0  0  0  0  0  0  0  0
  -24.0061  -32.8359   35.2808 C   0  0  0  0  0  0  0  0  0  0  0  0
  -24.5614  -33.6597   36.3119 N   0  0  0  0  0  0  0  0  0  0  0  0
  -23.9674  -35.4590   44.8344 C   0  0  0  0  0  0  0  0  0  0  0  0
  -24.7681  -35.3969   43.6229 C   0  0  0  0  0  0  0  0  0  0  0  0
  -22.6981  -33.6504   37.7130 C   0  0  0  0  0  0  0  0  0  0  0  0
  -24.1689  -33.7788   37.6188 C   0  0  0  0  0  0  0  0  0  0  0  0
  1  3  1  0
  1 15  1  0
  2 10  1  0
  2 15  1  0
  3 11  1  0
  4  6  1  0
  4 16  1  0
  5  7  1  0
  5 14  1  0
  6  7  1  0
  6 10  1  0
  7  8  2  0
  9 14  2  0
 11 12  1  0
 12 16  1  0
 13 14  1  0
 15 16  1  0
M  END
>  <ID>  (1) 
conformer_0

$$$$
