
     RDKit          3D

 17 18  0  0  0  0  0  0  0  0999 V2000
  -24.0490  -33.9428   38.9920 N   0  0  0  0  0  0  0  0  0  0  0  0
  -26.3472  -35.2422   43.0885 O   0  0  0  0  0  1  0  0  0  0  0  0
  -24.5131  -32.7810   34.9373 C   0  0  0  0  0  0  0  0  0  0  0  0
  -24.2249  -33.7166   37.6511 C   0  0  0  0  0  0  0  0  0  0  0  0
  -24.0076  -34.9811   42.6661 O   0  0  0  0  0  0  0  0  0  0  0  0
  -22.8245  -33.9166   40.9287 C   0  0  0  0  0  0  0  0  0  0  0  0
  -22.2604  -33.8713   34.5552 C   0  0  0  0  0  0  0  0  0  0  0  0
  -21.8568  -33.5309   37.4465 N   0  0  0  0  0  0  0  0  0  0  0  0
  -24.9593  -34.3201   40.0311 C   0  0  0  0  0  0  0  0  0  0  0  0
  -24.0766  -34.3497   41.2332 C   0  0  0  0  0  0  0  0  0  0  0  0
  -24.8366  -36.7993   44.3575 O   0  0  0  0  0  0  0  0  0  0  0  0
  -25.0725  -37.1173   41.8073 O   0  0  0  0  0  0  0  0  0  0  0  0
  -23.1659  -33.1375   35.4202 C   0  0  0  0  0  0  0  0  0  0  0  0
  -23.1091  -33.4935   36.8899 C   0  0  0  0  0  0  0  0  0  0  0  0
  -25.0865  -36.0825   43.0228 P   0  0  0  0  0  4  0  0  0  0  0  0
  -21.7231  -33.5964   38.7642 C   0  0  0  0  0  0  0  0  0  0  0  0
  -22.8008  -33.7875   39.5828 C   0  0  0  0  0  0  0  0  0  0  0  0
  1  4  1  0
  1  9  1  0
  1 17  1  0
  2 15  2  0
  3 13  1  0
  4 14  2  0
  5 10  1  0
  5 15  1  0
  6 10  1  0
  6 17  1  0
  7 13  1  0
  8 14  1  0
  8 16  2  0
  9 10  1  0
 11 15  1  0
 12 15  1  0
 13 14  1  0
 16 17  1  0
M  END
>  <ID>  (1) 
conformer_0

$$$$
