
     RDKit          3D

 33 37  0  0  0  0  0  0  0  0999 V2000
  -24.9239  -33.5719   41.7828 C   0  0  0  0  0  0  0  0  0  0  0  0
  -27.7777  -31.2046   42.3523 O   0  0  0  0  0  0  0  0  0  0  0  0
  -25.6184  -36.7270   44.1404 C   0  0  0  0  0  0  0  0  0  0  0  0
  -25.9563  -38.6838   45.5068 O   0  0  0  0  0  1  0  0  0  0  0  0
  -24.9058  -38.7610   41.1751 C   0  0  0  0  0  0  0  0  0  0  0  0
  -21.8434  -33.8013   39.3750 C   0  0  0  0  0  0  0  0  0  0  0  0
  -25.1735  -38.4592   42.4822 C   0  0  0  0  0  0  0  0  0  0  0  0
  -24.1842  -33.1055   35.3628 N   0  0  0  0  0  0  0  0  0  0  0  0
  -22.7169  -33.5609   37.1275 C   0  0  0  0  0  0  0  0  0  0  0  0
  -21.5602  -33.7082   37.8974 N   0  0  0  0  0  0  0  0  0  0  0  0
  -23.7090  -33.5205   38.0312 C   0  0  0  0  0  0  0  0  0  0  0  0
  -26.6613  -31.9298   42.6209 N   0  0  0  0  0  0  0  0  0  0  0  0
  -24.1765  -33.1169   42.9038 C   0  0  0  0  0  0  0  0  0  0  0  0
  -25.2127  -37.1405   42.8442 N   0  0  0  0  0  0  0  0  0  0  0  0
  -23.3039  -33.6660   39.4623 C   0  0  0  0  0  0  0  0  0  0  0  0
  -24.7379  -36.4869   40.6398 N   0  0  0  0  0  0  0  0  0  0  0  0
  -25.0176  -36.8429   46.4701 O   0  0  0  0  0  1  0  0  0  0  0  0
  -26.1498  -35.6923   44.2410 O   0  0  0  0  0  0  0  0  0  0  0  0
  -22.0834  -33.4420   34.5554 C   0  0  0  0  0  0  0  0  0  0  0  0
  -24.6614  -32.2932   43.9291 N   0  0  0  0  0  0  0  0  0  0  0  0
  -25.3882  -37.5241   45.2700 N   0  0  0  0  0  0  0  0  0  0  0  0
  -24.2876  -34.0284   40.4769 C   0  0  0  0  0  0  0  0  0  0  0  0
  -22.9209  -33.3689   35.7499 C   0  0  0  0  0  0  0  0  0  0  0  0
  -24.8047  -34.9759   41.3899 C   0  0  0  0  0  0  0  0  0  0  0  0
  -24.3578  -32.8762   33.9591 O   0  0  0  0  0  0  0  0  0  0  0  0
  -24.9431  -36.2168   41.8481 C   0  0  0  0  0  0  0  0  0  0  0  0
  -27.0042  -33.1821   40.6297 O   0  0  0  0  0  0  0  0  0  0  0  0
  -25.9056  -31.7518   43.7959 C   0  0  0  0  0  0  0  0  0  0  0  0
  -25.0073  -33.3427   37.5552 N   0  0  0  0  0  0  0  0  0  0  0  0
  -25.2137  -33.0902   36.2755 N   0  0  0  0  0  0  0  0  0  0  0  0
  -24.6769  -37.7733   40.2056 N   0  0  0  0  0  0  0  0  0  0  0  0
  -26.2454  -32.8771   41.6390 C   0  0  0  0  0  0  0  0  0  0  0  0
  -22.9781  -33.1368   33.4130 N   0  0  0  0  0  0  0  0  0  0  0  0
  1 13  1  0
  1 24  1  0
  1 32  1  0
  2 12  1  0
  3 14  1  0
  3 18  2  0
  3 21  1  0
  4 21  1  0
  5  7  2  0
  5 31  1  0
  6 10  1  0
  6 15  1  0
  7 14  1  0
  8 23  1  0
  8 25  1  0
  8 30  1  0
  9 10  1  0
  9 11  2  0
  9 23  1  0
 11 15  1  0
 11 29  1  0
 12 28  1  0
 12 32  1  0
 13 20  1  0
 14 26  1  0
 15 22  1  0
 16 26  2  0
 16 31  1  0
 17 21  1  0
 19 23  1  0
 19 33  1  0
 20 28  2  0
 22 24  1  0
 24 26  1  0
 25 33  1  0
 27 32  2  0
 29 30  2  0
M  END
>  <ID>  (1) 
conformer_0

$$$$
