
     RDKit          3D

 23 24  0  0  0  0  0  0  0  0999 V2000
  -25.7609  -33.5424   42.0020 C   0  0  0  0  0  0  0  0  0  0  0  0
  -25.1540  -35.0457   43.7393 O   0  0  0  0  0  0  0  0  0  0  0  0
  -24.6439  -36.5582   45.5989 O   0  0  0  0  0  1  0  0  0  0  0  0
  -21.5029  -33.4618   38.2402 C   0  0  0  0  0  0  0  0  0  0  0  0
  -24.6274  -34.5043   42.5288 C   0  0  0  0  0  0  0  0  0  0  0  0
  -25.4755  -33.4453   40.5355 C   0  0  0  0  0  0  0  0  0  0  0  0
  -24.2680  -33.2006   35.6731 C   0  0  0  0  0  0  0  0  0  0  0  0
  -23.4778  -33.4760   36.8747 C   0  0  0  0  0  0  0  0  0  0  0  0
  -25.6015  -33.2919   35.7809 O   0  0  0  0  0  0  0  0  0  0  0  0
  -23.5912  -34.1072   39.1539 C   0  0  0  0  0  0  0  0  0  0  0  0
  -24.9553  -37.6066   43.3169 O   0  0  0  0  0  0  0  0  0  0  0  0
  -26.8516  -36.7170   44.5167 O   0  0  0  0  0  0  0  0  0  0  0  0
  -23.5558  -33.7786   42.2502 O   0  0  0  0  0  0  0  0  0  0  0  0
  -26.6399  -33.4446   39.6779 O   0  0  0  0  0  0  0  0  0  0  0  0
  -22.0970  -33.1656   34.5349 O   0  0  0  0  0  0  0  0  0  0  0  0
  -22.2633  -33.8864   39.3440 C   0  0  0  0  0  0  0  0  0  0  0  0
  -24.5193  -34.5750   40.1731 C   0  0  0  0  0  0  0  0  0  0  0  0
  -26.1579  -32.6893   42.9924 O   0  0  0  0  0  0  0  0  0  0  0  0
  -23.5675  -32.8807   34.4269 C   0  0  0  0  0  0  0  0  0  0  0  0
  -25.4068  -36.4993   44.2318 P   0  0  0  0  0  4  0  0  0  0  0  0
  -22.0902  -33.2902   37.0287 C   0  0  0  0  0  0  0  0  0  0  0  0
  -24.1301  -33.8767   37.9776 N   0  0  0  0  0  0  0  0  0  0  0  0
  -24.5921  -35.5006   41.3321 C   0  0  0  0  0  0  0  0  0  0  0  0
  1  5  1  0
  1  6  1  0
  1 18  1  0
  2  5  1  0
  2 20  1  0
  3 20  2  0
  4 16  1  0
  4 21  2  0
  5 13  1  0
  5 23  1  0
  6 14  1  0
  6 17  1  0
  7  8  2  3
  7  9  1  0
  7 19  1  0
  8 21  1  0
  8 22  1  0
 10 16  1  0
 10 17  1  0
 10 22  2  0
 11 20  1  0
 12 20  1  0
 15 19  1  0
 17 23  1  0
M  END
>  <ID>  (1) 
conformer_0

$$$$
