
     RDKit          3D

 27 28  0  0  0  0  0  0  0  0999 V2000
  -27.8444  -33.1760   41.8010 O   0  0  0  0  0  1  0  0  0  0  0  0
  -23.9469  -33.7598   38.5733 N   0  0  0  0  0  0  0  0  0  0  0  0
  -27.2512  -30.8227   41.8094 O   0  0  0  0  0  0  0  0  0  0  0  0
  -23.9706  -35.6042   44.2028 O   0  0  0  0  0  1  0  0  0  0  0  0
  -22.6379  -33.1432   35.3278 C   0  0  0  0  0  0  0  0  0  0  0  0
  -23.8329  -32.9951   34.6432 C   0  0  0  0  0  0  0  0  0  0  0  0
  -23.0101  -33.8250   39.4593 C   0  0  0  0  0  0  0  0  0  0  0  0
  -23.6558  -34.7395   41.0607 C   0  0  0  0  0  0  0  0  0  0  0  0
  -21.6981  -33.5910   37.5130 N   0  0  0  0  0  0  0  0  0  0  0  0
  -25.1754  -36.4038   43.7780 P   0  0  0  0  0  4  0  0  0  0  0  0
  -23.1197  -33.4291   40.8159 O   0  0  0  0  0  0  0  0  0  0  0  0
  -24.2923  -32.7892   42.2955 O   0  0  0  0  0  0  0  0  0  0  0  0
  -23.8385  -32.8480   33.2238 N   0  0  0  0  0  0  0  0  0  0  0  0
  -21.7628  -33.6665   38.8284 C   0  0  0  0  0  0  0  0  0  0  0  0
  -24.8962  -37.4608   41.4166 O   0  0  0  0  0  0  0  0  0  0  0  0
  -25.2371  -36.2795   42.0508 C   0  0  0  0  0  0  0  0  0  0  0  0
  -24.9808  -37.9166   44.0946 O   0  0  0  0  0  0  0  0  0  0  0  0
  -22.7249  -33.4165   36.6967 C   0  0  0  0  0  0  0  0  0  0  0  0
  -26.4534  -36.0147   44.2559 O   0  0  0  0  0  0  0  0  0  0  0  0
  -25.0706  -33.0884   35.3413 C   0  0  0  0  0  0  0  0  0  0  0  0
  -25.6781  -35.1052   40.0577 O   0  0  0  0  0  0  0  0  0  0  0  0
  -25.1331  -33.3371   36.6373 N   0  0  0  0  0  0  0  0  0  0  0  0
  -25.1294  -34.8080   41.3862 C   0  0  0  0  0  0  0  0  0  0  0  0
  -25.4031  -33.1897   41.4904 C   0  0  0  0  0  0  0  0  0  0  0  0
  -26.7906  -32.1945   42.2360 P   0  0  0  0  0  4  0  0  0  0  0  0
  -26.4488  -32.0298   43.7119 O   0  0  0  0  0  0  0  0  0  0  0  0
  -23.9916  -33.4917   37.3041 C   0  0  0  0  0  0  0  0  0  0  0  0
  1 25  2  0
  2  7  1  0
  2 27  2  0
  3 25  1  0
  4 10  2  0
  5  6  1  0
  5 18  2  0
  6 13  1  0
  6 20  1  0
  7 11  1  0
  7 14  1  0
  8 11  1  0
  8 23  1  0
  9 14  2  0
  9 18  1  0
 10 16  1  0
 10 17  1  0
 10 19  1  0
 12 24  1  0
 15 16  1  0
 16 23  1  0
 18 27  1  0
 20 22  2  0
 21 23  1  0
 22 27  1  0
 23 24  1  0
 24 25  1  0
 25 26  1  0
M  END
>  <ID>  (1) 
conformer_0

$$$$
