
     RDKit          3D

 26 28  0  0  0  0  0  0  0  0999 V2000
  -24.9673  -32.5929   42.0095 C   0  0  0  0  0  0  0  0  0  0  0  0
  -22.7296  -33.4168   36.0229 C   0  0  0  0  0  0  0  0  0  0  0  0
  -28.4064  -31.3157   41.8208 C   0  0  0  0  0  0  0  0  0  0  0  0
  -27.3181  -33.0095   40.7709 C   0  0  0  0  0  0  0  0  0  0  0  0
  -26.2602  -36.7307   44.4099 O   0  0  0  0  0  1  0  0  0  0  0  0
  -22.1731  -33.8109   39.8685 C   0  0  0  0  0  0  0  0  0  0  0  0
  -23.3056  -34.4642   41.9651 C   0  0  0  0  0  0  0  0  0  0  0  0
  -24.4728  -34.0773   39.9863 C   0  0  0  0  0  0  0  0  0  0  0  0
  -21.9780  -33.6004   38.5396 C   0  0  0  0  0  0  0  0  0  0  0  0
  -23.3216  -34.0853   40.5572 C   0  0  0  0  0  0  0  0  0  0  0  0
  -24.9133  -36.7973   42.3007 O   0  0  0  0  0  0  0  0  0  0  0  0
  -28.4470  -32.3571   40.7941 C   0  0  0  0  0  0  0  0  0  0  0  0
  -24.9765  -33.5152   36.5696 N   0  0  0  0  0  0  0  0  0  0  0  0
  -29.2909  -30.5108   42.1716 O   0  0  0  0  0  0  0  0  0  0  0  0
  -22.8870  -33.5667   37.4841 C   0  0  0  0  0  0  0  0  0  0  0  0
  -26.3826  -32.3687   41.8007 N   0  0  0  0  0  0  0  0  0  0  0  0
  -24.2479  -33.6324   37.7037 C   0  0  0  0  0  0  0  0  0  0  0  0
  -24.5121  -33.8297   42.5738 C   0  0  0  0  0  0  0  0  0  0  0  0
  -23.9441  -35.8167   44.5514 O   0  0  0  0  0  0  0  0  0  0  0  0
  -24.0837  -33.3631   35.6148 N   0  0  0  0  0  0  0  0  0  0  0  0
  -27.0797  -31.3855   42.4647 C   0  0  0  0  0  0  0  0  0  0  0  0
  -25.6835  -34.5562   43.1950 O   0  0  0  0  0  0  0  0  0  0  0  0
  -24.9389  -33.8590   38.8867 C   0  0  0  0  0  0  0  0  0  0  0  0
  -21.8690  -33.3368   34.7870 C   0  0  0  0  0  0  0  0  0  0  0  0
  -25.1753  -36.0581   43.6435 P   0  0  0  0  0  4  0  0  0  0  0  0
  -24.5051  -33.1907   34.3225 O   0  0  0  0  0  0  0  0  0  0  0  0
  1 16  1  0
  1 18  1  0
  2 15  1  0
  2 20  1  0
  2 24  1  0
  3 12  1  0
  3 14  2  0
  3 21  1  0
  4 12  1  0
  4 16  1  0
  5 25  2  0
  6  9  1  0
  6 10  2  0
  7 10  1  0
  7 18  1  0
  8 10  1  0
  8 23  2  0
  9 15  1  0
 11 25  1  0
 13 17  1  0
 13 20  1  0
 15 17  2  0
 16 21  1  0
 17 23  1  0
 18 22  1  0
 19 25  1  0
 20 26  1  0
 22 25  1  0
M  END
>  <ID>  (1) 
conformer_0

$$$$
