
     RDKit          3D

 20 21  0  0  0  0  0  0  0  0999 V2000
  -23.2889  -33.9518   40.7095 C   0  0  0  0  0  0  0  0  0  0  0  0
  -24.7273  -36.4972   42.1072 O   0  0  0  0  0  1  0  0  0  0  0  0
  -23.1076  -33.3366   35.0150 C   0  0  0  0  0  0  0  0  0  0  0  0
  -24.9440  -35.3652   43.1271 P   0  0  0  0  0  4  0  0  0  0  0  0
  -22.6575  -33.5639   37.3095 C   0  0  0  0  0  0  0  0  0  0  0  0
  -25.7043  -34.0004   40.9962 C   0  0  0  0  0  0  0  0  0  0  0  0
  -24.5743  -33.8334   38.7900 N   0  0  0  0  0  0  0  0  0  0  0  0
  -24.6164  -34.1858   39.9941 C   0  0  0  0  0  0  0  0  0  0  0  0
  -25.0741  -33.8983   42.3127 O   0  0  0  0  0  0  0  0  0  0  0  0
  -23.7845  -35.2235   44.0934 O   0  0  0  0  0  0  0  0  0  0  0  0
  -24.8959  -33.3556   36.5543 N   0  0  0  0  0  0  0  0  0  0  0  0
  -24.0474  -33.5685   37.5776 C   0  0  0  0  0  0  0  0  0  0  0  0
  -21.7497  -33.6571   38.4136 N   0  0  0  0  0  0  0  0  0  0  0  0
  -22.2085  -33.7645   39.7662 C   0  0  0  0  0  0  0  0  0  0  0  0
  -24.4708  -33.2452   35.3408 C   0  0  0  0  0  0  0  0  0  0  0  0
  -22.2671  -33.4822   36.0487 N   0  0  0  0  0  0  0  0  0  0  0  0
  -26.8932  -33.5704   40.3892 O   0  0  0  0  0  0  0  0  0  0  0  0
  -26.2239  -35.5609   43.8514 O   0  0  0  0  0  0  0  0  0  0  0  0
  -22.6288  -33.3596   33.7232 N   0  0  0  0  0  0  0  0  0  0  0  0
  -23.6979  -33.2977   41.9870 C   0  0  0  0  0  0  0  0  0  0  0  0
  1  8  1  0
  1 14  1  0
  1 20  1  0
  2  4  2  0
  3 15  1  0
  3 16  1  0
  3 19  2  0
  4  9  1  0
  4 10  1  0
  4 18  1  0
  5 12  1  0
  5 13  1  0
  5 16  2  0
  6  8  1  0
  6  9  1  0
  6 17  2  0
  7  8  1  0
  7 12  2  0
 11 12  1  0
 11 15  2  0
 13 14  2  0
M  END
>  <ID>  (1) 
conformer_0

$$$$
