
     RDKit          3D

 25 29  0  0  0  0  0  0  0  0999 V2000
  -22.8843  -33.2763   36.5709 C   0  0  0  0  0  0  0  0  0  0  0  0
  -24.1250  -33.3827   37.2235 C   0  0  0  0  0  0  0  0  0  0  0  0
  -25.4166  -37.7660   43.5975 N   0  0  0  0  0  0  0  0  0  0  0  0
  -25.5424  -37.9988   44.8765 N   0  0  0  0  0  0  0  0  0  0  0  0
  -25.3371  -37.0034   45.7434 C   0  0  0  0  0  0  0  0  0  0  0  0
  -25.0352  -35.8095   45.2998 N   0  0  0  0  0  0  0  0  0  0  0  0
  -24.9668  -35.4828   43.9688 C   0  0  0  0  0  0  0  0  0  0  0  0
  -25.1147  -32.8313   35.1085 C   0  0  0  0  0  0  0  0  0  0  0  0
  -25.1062  -32.1590   42.3514 C   0  0  0  0  0  0  0  0  0  0  0  0
  -21.8715  -33.5598   37.4784 N   0  0  0  0  0  0  0  0  0  0  0  0
  -25.0929  -36.5613   43.0949 C   0  0  0  0  0  0  0  0  0  0  0  0
  -25.0831  -33.0899   44.5157 C   0  0  0  0  0  0  0  0  0  0  0  0
  -24.6549  -35.5386   40.9393 C   0  0  0  0  0  0  0  0  0  0  0  0
  -21.6612  -33.6521   39.9053 C   0  0  0  0  0  0  0  0  0  0  0  0
  -22.3713  -33.6364   38.7430 C   0  0  0  0  0  0  0  0  0  0  0  0
  -24.5703  -34.1580   41.0544 C   0  0  0  0  0  0  0  0  0  0  0  0
  -24.9002  -36.4876   41.7341 C   0  0  0  0  0  0  0  0  0  0  0  0
  -25.1877  -33.2409   36.4123 N   0  0  0  0  0  0  0  0  0  0  0  0
  -22.7837  -32.8826   35.2765 N   0  0  0  0  0  0  0  0  0  0  0  0
  -24.8233  -33.5649   42.2910 C   0  0  0  0  0  0  0  0  0  0  0  0
  -23.8246  -33.6070   38.6691 C   0  0  0  0  0  0  0  0  0  0  0  0
  -24.4003  -33.5176   39.8785 N   0  0  0  0  0  0  0  0  0  0  0  0
  -25.2947  -31.8738   43.8079 C   0  0  0  0  0  0  0  0  0  0  0  0
  -23.9137  -32.6737   34.5252 C   0  0  0  0  0  0  0  0  0  0  0  0
  -24.8802  -34.1397   43.5619 C   0  0  0  0  0  0  0  0  0  0  0  0
  1  2  2  0
  1 10  1  0
  1 19  1  0
  2 18  1  0
  2 21  1  0
  3  4  1  0
  3 11  2  0
  4  5  1  0
  5  6  2  0
  6  7  1  0
  7 11  1  0
  7 25  2  0
  8 18  2  0
  8 24  1  0
  9 20  1  0
  9 23  1  0
 10 15  1  0
 11 17  1  0
 12 23  1  0
 12 25  1  0
 13 16  1  0
 13 17  2  0
 14 15  1  0
 15 21  2  0
 16 20  1  0
 16 22  1  0
 19 24  2  0
 20 25  1  0
 21 22  1  0
M  END
>  <ID>  (1) 
conformer_0

$$$$
