
     RDKit          3D

 25 28  0  0  0  0  0  0  0  0999 V2000
  -25.7266  -33.4434   39.2988 C   0  0  0  0  0  0  0  0  0  0  0  0
  -27.1037  -33.3537   39.2982 O   0  0  0  0  0  0  0  0  0  0  0  0
  -25.2486  -35.9794   42.5143 C   0  0  0  0  0  0  0  0  0  0  0  0
  -24.5947  -33.1263   35.2506 C   0  0  0  0  0  0  0  0  0  0  0  0
  -25.0725  -33.8411   40.5410 C   0  0  0  0  0  0  0  0  0  0  0  0
  -25.1905  -36.6013   45.2387 C   0  0  0  0  0  0  0  0  0  0  0  0
  -22.7976  -33.5604   41.4314 O   0  0  0  0  0  0  0  0  0  0  0  0
  -23.0489  -33.7177   39.1746 C   0  0  0  0  0  0  0  0  0  0  0  0
  -25.4878  -37.2712   42.9346 C   0  0  0  0  0  0  0  0  0  0  0  0
  -25.5026  -37.5692   44.2827 C   0  0  0  0  0  0  0  0  0  0  0  0
  -24.9670  -34.9838   43.4523 C   0  0  0  0  0  0  0  0  0  0  0  0
  -25.1529  -33.3707   37.9079 C   0  0  0  0  0  0  0  0  0  0  0  0
  -25.4183  -33.2658   36.4289 C   0  0  0  0  0  0  0  0  0  0  0  0
  -24.7479  -33.6107   43.0267 C   0  0  0  0  0  0  0  0  0  0  0  0
  -23.1303  -33.2885   35.5373 C   0  0  0  0  0  0  0  0  0  0  0  0
  -26.7884  -33.2197   36.2764 O   0  0  0  0  0  0  0  0  0  0  0  0
  -22.1478  -33.5189   34.6516 O   0  0  0  0  0  0  0  0  0  0  0  0
  -24.8951  -35.3077   44.8076 C   0  0  0  0  0  0  0  0  0  0  0  0
  -26.5986  -32.5079   41.9472 O   0  0  0  0  0  0  0  0  0  0  0  0
  -23.6002  -33.7755   40.4707 C   0  0  0  0  0  0  0  0  0  0  0  0
  -23.7403  -33.5389   37.9785 C   0  0  0  0  0  0  0  0  0  0  0  0
  -25.4769  -33.2513   41.8314 C   0  0  0  0  0  0  0  0  0  0  0  0
  -21.6917  -33.7002   38.8859 C   0  0  0  0  0  0  0  0  0  0  0  0
  -21.6195  -33.6642   37.4649 N   0  0  0  0  0  0  0  0  0  0  0  0
  -22.8341  -33.4848   36.9123 C   0  0  0  0  0  0  0  0  0  0  0  0
  1  2  1  0
  1  5  1  0
  1 12  1  0
  3  9  2  0
  3 11  1  0
  4 13  1  0
  4 15  1  0
  5 20  1  0
  5 22  1  0
  6 10  2  0
  6 18  1  0
  7 20  2  0
  8 20  1  0
  8 21  2  0
  8 23  1  0
  9 10  1  0
 11 14  1  0
 11 18  2  0
 12 13  2  0
 12 21  1  0
 13 16  1  0
 14 22  1  0
 15 17  1  0
 15 25  2  0
 19 22  1  0
 21 25  1  0
 23 24  1  0
 24 25  1  0
M  END
>  <ID>  (1) 
conformer_0

$$$$
