
     RDKit          3D

 22 23  0  0  0  0  0  0  0  0999 V2000
  -23.6584  -33.8261   38.8490 C   0  0  0  0  0  0  0  0  0  0  0  0
  -23.6032  -32.8562   34.6878 C   0  0  0  0  0  0  0  0  0  0  0  0
  -22.0259  -33.6595   40.3776 C   0  0  0  0  0  0  0  0  0  0  0  0
  -25.6202  -37.3768   44.5131 O   0  0  0  0  0  1  0  0  0  0  0  0
  -24.7391  -32.4210   34.1952 O   0  0  0  0  0  0  0  0  0  0  0  0
  -22.5874  -33.1431   33.9228 O   0  0  0  0  0  0  0  0  0  0  0  0
  -24.3813  -34.0818   42.7223 C   0  0  0  0  0  0  0  0  0  0  0  0
  -23.6018  -33.3329   36.1074 C   0  0  0  0  0  0  0  0  0  0  0  0
  -21.4454  -33.5891   39.0731 C   0  0  0  0  0  0  0  0  0  0  0  0
  -22.4351  -33.4113   36.8000 N   0  0  0  0  0  0  0  0  0  0  0  0
  -25.1459  -36.1422   43.8598 P   0  0  0  0  0  0  0  0  0  0  0  0
  -22.4662  -33.5984   38.1165 C   0  0  0  0  0  0  0  0  0  0  0  0
  -24.5420  -34.3720   41.2429 C   0  0  0  0  0  0  0  0  0  0  0  0
  -24.7828  -36.5977   42.4576 O   0  0  0  0  0  0  0  0  0  0  0  0
  -23.4890  -33.1218   43.0296 O   0  0  0  0  0  0  0  0  0  0  0  0
  -24.7273  -35.8686   41.2947 C   0  0  0  0  0  0  0  0  0  0  0  0
  -25.3845  -34.6265   43.6854 C   0  0  0  0  0  0  0  0  0  0  0  0
  -24.7335  -33.6723   36.7889 N   0  0  0  0  0  0  0  0  0  0  0  0
  -23.3972  -33.9802   40.3092 C   0  0  0  0  0  0  0  0  0  0  0  0
  -24.7525  -35.1734   44.8964 O   0  0  0  0  0  1  0  0  0  0  0  0
  -24.7528  -33.9264   38.0544 N   0  0  0  0  0  0  0  0  0  0  0  0
  -25.7262  -33.7036   40.8092 O   0  0  0  0  0  0  0  0  0  0  0  0
  1 12  2  0
  1 19  1  0
  1 21  1  0
  2  5  2  0
  2  6  1  0
  2  8  1  0
  3  9  1  0
  3 19  1  0
  4 11  1  0
  7 13  1  0
  7 15  1  0
  7 17  1  0
  8 10  2  0
  8 18  1  0
  9 12  1  0
 10 12  1  0
 11 14  1  0
 11 20  1  0
 13 16  1  0
 13 19  1  0
 13 22  1  0
 14 16  1  0
 18 21  2  0
M  END
>  <ID>  (1) 
conformer_0

$$$$
