
     RDKit          3D

 25 26  0  0  0  0  0  0  0  0999 V2000
  -22.3900  -33.7126   39.1922 C   0  0  0  0  0  0  0  0  0  0  0  0
  -24.6469  -34.4999   44.2910 C   0  0  0  0  0  0  0  0  0  0  0  0
  -25.9422  -33.1730   35.9227 O   0  0  0  0  0  0  0  0  0  0  0  0
  -25.0222  -33.6536   38.5550 C   0  0  0  0  0  0  0  0  0  0  0  0
  -22.8156  -33.5919   37.7412 C   0  0  0  0  0  0  0  0  0  0  0  0
  -20.8855  -33.6969   39.2852 C   0  0  0  0  0  0  0  0  0  0  0  0
  -24.8658  -33.6387   42.0502 C   0  0  0  0  0  0  0  0  0  0  0  0
  -25.4492  -35.9451   42.4298 C   0  0  0  0  0  0  0  0  0  0  0  0
  -25.8287  -38.4099   42.9196 O   0  0  0  0  0  1  0  0  0  0  0  0
  -24.6386  -37.1178   44.6111 O   0  0  0  0  0  0  0  0  0  0  0  0
  -24.8796  -36.5122   41.3182 O   0  0  0  0  0  0  0  0  0  0  0  0
  -22.3899  -33.4782   35.3573 C   0  0  0  0  0  0  0  0  0  0  0  0
  -24.1522  -33.5562   37.4635 N   0  0  0  0  0  0  0  0  0  0  0  0
  -25.7695  -37.1335   43.6770 P   0  0  0  0  0  4  0  0  0  0  0  0
  -26.9733  -36.8965   44.4273 O   0  0  0  0  0  0  0  0  0  0  0  0
  -24.4570  -32.4502   42.6885 O   0  0  0  0  0  0  0  0  0  0  0  0
  -24.9606  -34.7660   43.0362 C   0  0  0  0  0  0  0  0  0  0  0  0
  -21.9409  -33.5349   36.7273 N   0  0  0  0  0  0  0  0  0  0  0  0
  -22.8422  -33.6169   40.5629 N   0  0  0  0  0  0  0  0  0  0  0  0
  -23.5863  -34.8554   43.4985 O   0  0  0  0  0  0  0  0  0  0  0  0
  -23.7352  -32.9923   35.0866 C   0  0  0  0  0  0  0  0  0  0  0  0
  -24.3498  -32.6109   33.8791 O   0  0  0  0  0  0  0  0  0  0  0  0
  -24.6396  -33.1729   36.2145 C   0  0  0  0  0  0  0  0  0  0  0  0
  -24.0620  -34.1246   40.9014 C   0  0  0  0  0  0  0  0  0  0  0  0
  -24.7974  -34.4920   39.6915 C   0  0  0  0  0  0  0  0  0  0  0  0
  1  5  1  0
  1  6  1  0
  1 19  1  0
  2 17  1  0
  2 20  1  0
  3 23  2  0
  4 13  1  0
  4 25  1  0
  5 13  1  0
  5 18  2  0
  7 16  1  0
  7 17  1  0
  7 24  1  0
  8 11  1  0
  8 14  1  0
  8 17  1  0
  9 14  2  0
 10 14  1  0
 12 18  1  0
 12 21  1  0
 13 23  1  0
 14 15  1  0
 19 24  1  0
 21 22  1  0
 21 23  1  0
 24 25  1  0
M  END
>  <ID>  (1) 
conformer_0

$$$$
