
     RDKit          3D

 20 20  0  0  0  0  0  0  0  0999 V2000
  -23.4631  -33.5562   36.9270 C   0  0  0  0  0  0  0  0  0  0  0  0
  -25.1868  -37.0551   42.7879 C   0  0  0  0  0  0  0  0  0  0  0  0
  -25.0327  -33.4149   43.7478 C   0  0  0  0  0  0  0  0  0  0  0  0
  -23.4594  -32.6600   34.6714 N   0  0  0  0  0  0  0  0  0  0  0  0
  -22.0093  -33.6222   40.4639 O   0  0  0  0  0  0  0  0  0  0  0  0
  -22.7585  -33.5374   35.6138 C   0  0  0  0  0  0  0  0  0  0  0  0
  -25.2863  -33.0576   42.3566 C   0  0  0  0  0  0  0  0  0  0  0  0
  -21.3240  -33.6213   37.9220 N   0  0  0  0  0  0  0  0  0  0  0  0
  -24.3039  -33.3726   40.0530 C   0  0  0  0  0  0  0  0  0  0  0  0
  -22.6573  -33.6059   38.1396 C   0  0  0  0  0  0  0  0  0  0  0  0
  -24.2950  -33.6954   41.4749 C   0  0  0  0  0  0  0  0  0  0  0  0
  -24.9155  -35.6162   42.6585 C   0  0  0  0  0  0  0  0  0  0  0  0
  -25.3750  -32.4889   44.6328 O   0  0  0  0  0  0  0  0  0  0  0  0
  -24.7082  -34.8573   43.9554 C   0  0  0  0  0  0  0  0  0  0  0  0
  -25.6377  -37.4645   43.8838 O   0  0  0  0  0  0  0  0  0  0  0  0
  -24.0821  -35.0757   41.7023 O   0  0  0  0  0  0  0  0  0  0  0  0
  -24.7573  -33.5342   36.9597 O   0  0  0  0  0  0  0  0  0  0  0  0
  -22.9673  -33.6325   39.5752 C   0  0  0  0  0  0  0  0  0  0  0  0
  -24.9184  -37.8312   41.8265 O   0  0  0  0  0  0  0  0  0  0  0  0
  -25.9358  -31.9105   42.1045 O   0  0  0  0  0  0  0  0  0  0  0  0
  1  6  1  0
  1 10  2  3
  1 17  1  0
  2 12  1  0
  2 15  2  0
  2 19  1  0
  3  7  1  0
  3 13  1  0
  3 14  1  0
  4  6  1  0
  5 18  1  0
  7 11  1  0
  7 20  1  0
  8 10  1  0
  9 11  1  0
  9 18  1  0
 10 18  1  0
 11 16  1  0
 12 14  1  0
 12 16  1  0
M  END
>  <ID>  (1) 
conformer_0

$$$$
