
     RDKit          3D

 17 17  0  0  0  0  0  0  0  0999 V2000
  -24.1889  -35.4743   40.2445 C   0  0  0  0  0  0  0  0  0  0  0  0
  -21.5299  -33.6245   38.6641 C   0  0  0  0  0  0  0  0  0  0  0  0
  -25.1412  -33.4910   35.6450 O   0  0  0  0  0  0  0  0  0  0  0  0
  -23.9472  -33.2942   35.9772 C   0  0  0  0  0  0  0  0  0  0  0  0
  -23.4263  -33.5627   37.3122 C   0  0  0  0  0  0  0  0  0  0  0  0
  -24.8977  -36.7031   42.3197 C   0  0  0  0  0  0  0  0  0  0  0  0
  -25.0381  -36.7932   43.5657 O   0  0  0  0  0  0  0  0  0  0  0  0
  -22.0674  -33.5626   37.4013 N   0  0  0  0  0  0  0  0  0  0  0  0
  -24.2898  -35.4458   41.7294 C   0  0  0  0  0  0  0  0  0  0  0  0
  -24.1740  -33.9220   38.3644 N   0  0  0  0  0  0  0  0  0  0  0  0
  -24.9114  -37.8003   41.5967 O   0  0  0  0  0  0  0  0  0  0  0  0
  -25.8753  -33.9194   42.5651 O   0  0  0  0  0  0  0  0  0  0  0  0
  -22.2940  -33.8729   39.7759 C   0  0  0  0  0  0  0  0  0  0  0  0
  -23.7556  -33.2670   42.5479 O   0  0  0  0  0  0  0  0  0  0  0  0
  -24.6602  -34.0972   42.2651 C   0  0  0  0  0  0  0  0  0  0  0  0
  -23.6235  -34.3019   39.5498 C   0  0  0  0  0  0  0  0  0  0  0  0
  -23.0567  -32.8239   35.0680 N   0  0  0  0  0  0  0  0  0  0  0  0
  1  9  1  0
  1 16  1  0
  2  8  2  0
  2 13  1  0
  3  4  2  0
  4  5  1  0
  4 17  1  0
  5  8  1  0
  5 10  2  0
  6  7  2  0
  6  9  1  0
  6 11  1  0
  9 15  1  0
 10 16  1  0
 12 15  2  0
 13 16  1  0
 14 15  1  0
M  END
>  <ID>  (1) 
conformer_0

$$$$
