
     RDKit          3D

 19 20  0  0  0  0  0  0  0  0999 V2000
  -24.6263  -34.2364   40.1241 C   0  0  0  0  0  0  0  0  0  0  0  0
  -23.5906  -33.9113   39.1776 C   0  0  0  0  0  0  0  0  0  0  0  0
  -23.6630  -33.0763   35.5213 C   0  0  0  0  0  0  0  0  0  0  0  0
  -23.3826  -33.7113   42.1320 O   0  0  0  0  0  0  0  0  0  0  0  0
  -21.8935  -33.4229   37.1908 N   0  0  0  0  0  0  0  0  0  0  0  0
  -24.8025  -37.3050   42.5763 O   0  0  0  0  0  0  0  0  0  0  0  0
  -24.9571  -32.9812   35.2995 O   0  0  0  0  0  0  0  0  0  0  0  0
  -24.7447  -36.1403   43.1416 C   0  0  0  0  0  0  0  0  0  0  0  0
  -21.4928  -33.6185   38.4497 C   0  0  0  0  0  0  0  0  0  0  0  0
  -25.8564  -33.9045   39.4379 C   0  0  0  0  0  0  0  0  0  0  0  0
  -24.1498  -35.9054   44.2131 O   0  0  0  0  0  0  0  0  0  0  0  0
  -22.8011  -32.9643   34.5112 O   0  0  0  0  0  0  0  0  0  0  0  0
  -25.3694  -35.0346   42.3265 C   0  0  0  0  0  0  0  0  0  0  0  0
  -25.5134  -33.5649   38.0599 N   0  0  0  0  0  0  0  0  0  0  0  0
  -26.1312  -34.1729   43.1663 C   0  0  0  0  0  0  0  0  0  0  0  0
  -22.2755  -33.8929   39.4570 N   0  0  0  0  0  0  0  0  0  0  0  0
  -24.3767  -34.3091   41.5111 C   0  0  0  0  0  0  0  0  0  0  0  0
  -24.0983  -33.6050   37.9328 C   0  0  0  0  0  0  0  0  0  0  0  0
  -23.2051  -33.3698   36.8534 C   0  0  0  0  0  0  0  0  0  0  0  0
  1  2  1  0
  1 10  1  0
  1 17  1  0
  2 16  2  0
  2 18  1  0
  3  7  2  0
  3 12  1  0
  3 19  1  0
  4 17  1  0
  5  9  2  0
  5 19  1  0
  6  8  2  0
  8 11  1  0
  8 13  1  0
  9 16  1  0
 10 14  1  0
 13 15  1  0
 13 17  1  0
 14 18  1  0
 18 19  2  0
M  END
>  <ID>  (1) 
conformer_0

$$$$
