
     RDKit          3D

 11 10  0  0  0  0  0  0  0  0999 V2000
  -24.3392  -33.8012   37.3723 O   0  0  0  0  0  0  0  0  0  0  0  0
  -22.0283  -33.5062   37.7471 N   0  0  0  0  0  0  0  0  0  0  0  0
  -25.9913  -34.4504   41.7254 O   0  0  0  0  0  1  0  0  0  0  0  0
  -24.6127  -35.1372   41.8412 P   0  0  0  0  0  4  0  0  0  0  0  0
  -24.6288  -36.5693   41.1403 O   0  0  0  0  0  0  0  0  0  0  0  0
  -24.1094  -35.2727   43.2768 O   0  0  0  0  0  0  0  0  0  0  0  0
  -21.8981  -33.6885   39.1094 C   0  0  0  0  0  0  0  0  0  0  0  0
  -23.4779  -33.9113   41.0347 C   0  0  0  0  0  0  0  0  0  0  0  0
  -22.9795  -34.4601   39.7184 C   0  0  0  0  0  0  0  0  0  0  0  0
  -22.9110  -33.5546   35.4918 C   0  0  0  0  0  0  0  0  0  0  0  0
  -23.1488  -33.6310   36.9927 C   0  0  0  0  0  0  0  0  0  0  0  0
  1 11  2  0
  2  7  1  0
  2 11  1  0
  3  4  2  0
  4  5  1  0
  4  6  1  0
  4  8  1  0
  7  9  1  0
  8  9  1  0
 10 11  1  0
M  END
>  <ID>  (1) 
conformer_0

$$$$
