
     RDKit          3D

 17 17  0  0  0  0  0  0  0  0999 V2000
  -25.7945  -34.5028   42.3943 O   0  0  0  0  0  0  0  0  0  0  0  0
  -22.4127  -33.3107   34.7105 C   0  0  0  0  0  0  0  0  0  0  0  0
  -24.3993  -32.9046   41.0510 O   0  0  0  0  0  0  0  0  0  0  0  0
  -23.6386  -33.6617   35.4347 C   0  0  0  0  0  0  0  0  0  0  0  0
  -25.0696  -37.3638   42.9913 O   0  0  0  0  0  0  0  0  0  0  0  0
  -21.2975  -33.7305   39.5533 O   0  0  0  0  0  0  0  0  0  0  0  0
  -22.3215  -33.5082   38.7740 C   0  0  0  0  0  0  0  0  0  0  0  0
  -24.8731  -33.3432   34.9203 O   0  0  0  0  0  0  0  0  0  0  0  0
  -24.8107  -36.2654   43.5087 C   0  0  0  0  0  0  0  0  0  0  0  0
  -24.5714  -35.0573   42.5769 C   0  0  0  0  0  0  0  0  0  0  0  0
  -24.1349  -34.0571   40.4531 C   0  0  0  0  0  0  0  0  0  0  0  0
  -23.9667  -35.2755   41.2293 C   0  0  0  0  0  0  0  0  0  0  0  0
  -24.6826  -36.0490   44.7172 O   0  0  0  0  0  0  0  0  0  0  0  0
  -23.5763  -33.4197   36.9058 C   0  0  0  0  0  0  0  0  0  0  0  0
  -22.2606  -33.2929   37.4019 N   0  0  0  0  0  0  0  0  0  0  0  0
  -23.6399  -34.0054   39.0879 C   0  0  0  0  0  0  0  0  0  0  0  0
  -24.3546  -33.8666   37.9068 O   0  0  0  0  0  0  0  0  0  0  0  0
  1 10  1  0
  2  4  1  0
  3 11  1  0
  4  8  1  0
  4 14  1  0
  5  9  2  0
  6  7  2  0
  7 15  1  0
  7 16  1  0
  9 10  1  0
  9 13  1  0
 10 12  1  0
 11 12  1  0
 11 16  1  0
 14 15  1  0
 14 17  1  0
 16 17  1  0
M  END
>  <ID>  (1) 
conformer_0

$$$$
