
     RDKit          3D

 17 20  0  0  0  0  0  0  0  0999 V2000
   -3.8149   20.8922   23.1350 C   0  0  0  0  0  0  0  0  0  0  0  0
   -3.9149   22.1922   22.4350 C   0  0  0  0  0  0  0  0  0  0  0  0
   -3.7149   19.6922   22.3350 C   0  0  0  0  0  0  0  0  0  0  0  0
   -3.6149   20.0922   20.9350 C   0  0  0  0  0  0  0  0  0  0  0  0
   -2.9149   22.3922   21.4350 C   0  0  0  0  0  0  0  0  0  0  0  0
   -4.6149   20.7922   24.3350 C   0  0  0  0  0  0  0  0  0  0  0  0
   -3.9149   18.3922   23.0350 C   0  0  0  0  0  0  0  0  0  0  0  0
   -2.8149   21.0922   20.5350 C   0  0  0  0  0  0  0  0  0  0  0  0
   -5.0149   18.3922   24.0350 C   0  0  0  0  0  0  0  0  0  0  0  0
   -4.7149   19.4922   25.0350 C   0  0  0  0  0  0  0  0  0  0  0  0
   -5.2149   17.0922   24.6350 C   0  0  0  0  0  0  0  0  0  0  0  0
   -6.4149   16.6922   25.3350 C   0  0  0  0  0  0  0  0  0  0  0  0
   -7.6149   17.3922   25.1350 C   0  0  0  0  0  0  0  0  0  0  0  0
   -7.5149   18.4922   24.1350 C   0  0  0  0  0  0  0  0  0  0  0  0
   -8.3149   17.7922   26.3350 O   0  0  0  0  0  0  0  0  0  0  0  0
   -6.3149   18.8922   23.3350 C   0  0  0  0  0  0  0  0  0  0  0  0
   -5.0149   21.5922   22.1350 C   0  0  0  0  0  0  0  0  0  0  0  0
  2  1  1  0
  3  1  1  0
  4  3  1  0
  5  2  1  0
  6  1  1  0
  7  3  1  0
  8  4  1  0
  8  5  1  0
  9  7  1  0
 10  6  1  0
 10  9  1  0
 11  9  1  0
 12 11  1  0
 13 12  1  0
 14 13  1  0
 15 13  1  0
 16  9  1  0
 16 14  1  0
 17  1  1  0
 17  2  1  0
M  END
>  <ID>  (1) 
conformer_0

$$$$
