
     RDKit          3D

 20 24  0  0  0  0  0  0  0  0999 V2000
   -3.8022   21.2629   22.8508 C   0  0  0  0  0  0  0  0  0  0  0  0
   -3.8022   20.7629   21.4508 C   0  0  0  0  0  0  0  0  0  0  0  0
   -4.1022   19.3629   21.2508 C   0  0  0  0  0  0  0  0  0  0  0  0
   -4.5022   22.5629   22.9508 C   0  0  0  0  0  0  0  0  0  0  0  0
   -4.4022   20.1629   23.6508 C   0  0  0  0  0  0  0  0  0  0  0  0
   -3.4022   19.0629   23.5508 C   0  0  0  0  0  0  0  0  0  0  0  0
   -3.4022   18.5629   22.1508 C   0  0  0  0  0  0  0  0  0  0  0  0
   -2.6022   21.0629   22.1508 C   0  0  0  0  0  0  0  0  0  0  0  0
   -4.0022   17.9629   24.3508 N   0  0  0  0  0  0  0  0  0  0  0  0
   -4.8022   18.5629   25.4508 C   0  0  0  0  0  0  0  0  0  0  0  0
   -4.9022   20.0629   25.0508 C   0  0  0  0  0  0  0  0  0  0  0  0
   -5.4022   17.9629   24.2508 C   0  0  0  0  0  0  0  0  0  0  0  0
   -6.0022   16.8629   24.4508 N   0  0  0  0  0  0  0  0  0  0  0  0
   -7.3022   16.4629   24.5508 C   0  0  0  0  0  0  0  0  0  0  0  0
   -6.5022   16.6629   25.7508 C   0  0  0  0  0  0  0  0  0  0  0  0
   -8.1022   15.6629   24.2508 O   0  0  0  0  0  0  0  0  0  0  0  0
   -7.2022   15.9629   26.8508 C   0  0  0  0  0  0  0  0  0  0  0  0
   -8.6022   15.7629   26.7508 C   0  0  0  0  0  0  0  0  0  0  0  0
   -9.3022   16.8629   26.0508 C   0  0  0  0  0  0  0  0  0  0  0  0
  -10.3022   16.4629   25.0508 C   0  0  0  0  0  0  0  0  0  0  0  0
  2  1  1  0
  3  2  1  0
  4  1  1  0
  5  1  1  0
  6  5  1  0
  7  3  1  0
  7  6  1  0
  8  1  1  0
  8  2  1  0
  9  6  1  0
 10  9  1  0
 11  5  1  0
 11 10  1  0
 12  9  1  0
 12 10  1  0
 13 12  1  0
 14 13  1  0
 15 13  1  0
 15 14  1  0
 16 14  1  0
 17 15  1  0
 18 17  1  0
 19 18  1  0
 20 19  1  0
M  END
>  <ID>  (1) 
conformer_0

$$$$
