
     RDKit          3D

 18 21  0  0  0  0  0  0  0  0999 V2000
   -3.8149   20.8922   23.1350 C   0  0  0  0  0  0  0  0  0  0  0  0
   -3.9149   22.1922   22.4350 C   0  0  0  0  0  0  0  0  0  0  0  0
   -3.8149   19.6922   22.2350 C   0  0  0  0  0  0  0  0  0  0  0  0
   -3.7149   20.0922   20.8350 C   0  0  0  0  0  0  0  0  0  0  0  0
   -2.9149   22.2922   21.3350 C   0  0  0  0  0  0  0  0  0  0  0  0
   -4.6149   20.6922   24.3350 C   0  0  0  0  0  0  0  0  0  0  0  0
   -4.6149   18.5922   22.7350 C   0  0  0  0  0  0  0  0  0  0  0  0
   -2.8149   21.0922   20.5350 C   0  0  0  0  0  0  0  0  0  0  0  0
   -5.5149   18.4922   23.8350 C   0  0  0  0  0  0  0  0  0  0  0  0
   -5.1149   19.4922   24.8350 C   0  0  0  0  0  0  0  0  0  0  0  0
   -6.2149   17.2922   24.2350 C   0  0  0  0  0  0  0  0  0  0  0  0
   -6.7149   17.3922   25.5350 C   0  0  0  0  0  0  0  0  0  0  0  0
   -7.4149   18.6922   25.7350 C   0  0  0  0  0  0  0  0  0  0  0  0
   -7.4149   19.8922   25.1350 C   0  0  0  0  0  0  0  0  0  0  0  0
   -7.5149   16.2922   26.1350 C   0  0  0  0  0  0  0  0  0  0  0  0
   -6.3149   19.6922   25.8350 C   0  0  0  0  0  0  0  0  0  0  0  0
   -8.4149   15.8922   25.1350 O   0  0  0  0  0  0  0  0  0  0  0  0
   -5.2149   22.1922   21.8350 C   0  0  0  0  0  0  0  0  0  0  0  0
  2  1  1  0
  3  1  1  0
  4  3  1  0
  5  2  1  0
  6  1  1  0
  7  3  1  0
  8  4  1  0
  8  5  1  0
  9  7  1  0
 10  6  1  0
 10  9  1  0
 11  9  1  0
 12 11  1  0
 13 12  1  0
 14 13  1  0
 15 12  1  0
 16 10  1  0
 16 13  1  0
 16 14  1  0
 17 15  1  0
 18  2  1  0
M  END
>  <ID>  (1) 
conformer_0

$$$$
