
     RDKit          3D

 22 27  0  0  0  0  0  0  0  0999 V2000
   -3.8022   21.2629   22.8508 C   0  0  0  0  0  0  0  0  0  0  0  0
   -3.8022   20.7629   21.4508 C   0  0  0  0  0  0  0  0  0  0  0  0
   -4.1022   19.3629   21.2508 C   0  0  0  0  0  0  0  0  0  0  0  0
   -4.5022   22.5629   22.9508 C   0  0  0  0  0  0  0  0  0  0  0  0
   -4.4022   20.1629   23.6508 C   0  0  0  0  0  0  0  0  0  0  0  0
   -3.4022   19.0629   23.5508 C   0  0  0  0  0  0  0  0  0  0  0  0
   -3.4022   18.5629   22.1508 C   0  0  0  0  0  0  0  0  0  0  0  0
   -2.7022   21.0629   22.1508 C   0  0  0  0  0  0  0  0  0  0  0  0
   -3.8022   18.0629   24.3508 N   0  0  0  0  0  0  0  0  0  0  0  0
   -4.7022   18.3629   25.3508 C   0  0  0  0  0  0  0  0  0  0  0  0
   -5.6022   19.3629   25.5508 C   0  0  0  0  0  0  0  0  0  0  0  0
   -5.4022   20.4629   24.6508 C   0  0  0  0  0  0  0  0  0  0  0  0
   -7.0022   19.0629   25.9508 C   0  0  0  0  0  0  0  0  0  0  0  0
   -7.2022   17.6629   25.5508 C   0  0  0  0  0  0  0  0  0  0  0  0
   -6.3022   16.5629   25.8508 C   0  0  0  0  0  0  0  0  0  0  0  0
   -8.6022   17.1629   25.7508 C   0  0  0  0  0  0  0  0  0  0  0  0
   -8.6022   15.7629   25.8508 O   0  0  0  0  0  0  0  0  0  0  0  0
   -5.9022   15.8629   24.6508 O   0  0  0  0  0  0  0  0  0  0  0  0
   -5.0022   16.1629   25.3508 C   0  0  0  0  0  0  0  0  0  0  0  0
   -4.1022   17.2629   25.3508 C   0  0  0  0  0  0  0  0  0  0  0  0
   -9.6022   17.5629   24.7508 C   0  0  0  0  0  0  0  0  0  0  0  0
   -8.7022   16.1629   26.7508 C   0  0  0  0  0  0  0  0  0  0  0  0
  2  1  1  0
  3  2  1  0
  4  1  1  0
  5  1  1  0
  6  5  1  0
  7  3  1  0
  7  6  1  0
  8  1  1  0
  8  2  1  0
  9  6  1  0
 10  9  1  0
 11 10  1  0
 12  5  1  0
 12 11  1  0
 13 11  1  0
 14 13  1  0
 15 14  1  0
 16 14  1  0
 18 15  1  0
 19 15  1  0
 19 18  1  0
 20  9  1  0
 20 10  1  0
 20 19  1  0
 21 16  1  0
 22 16  1  0
 22 17  1  0
M  END
>  <ID>  (1) 
conformer_0

$$$$
