
     RDKit          3D

 19 22  0  0  0  0  0  0  0  0999 V2000
   -3.8149   20.8922   23.1350 C   0  0  0  0  0  0  0  0  0  0  0  0
   -3.9149   22.1922   22.4350 C   0  0  0  0  0  0  0  0  0  0  0  0
   -3.8149   19.6922   22.2350 C   0  0  0  0  0  0  0  0  0  0  0  0
   -3.7149   20.0922   20.8350 C   0  0  0  0  0  0  0  0  0  0  0  0
   -4.1149   18.3922   22.8350 C   0  0  0  0  0  0  0  0  0  0  0  0
   -2.9149   22.2922   21.3350 C   0  0  0  0  0  0  0  0  0  0  0  0
   -4.3149   20.3922   24.4350 C   0  0  0  0  0  0  0  0  0  0  0  0
   -2.9149   21.0922   20.5350 C   0  0  0  0  0  0  0  0  0  0  0  0
   -5.1149   18.1922   23.7350 C   0  0  0  0  0  0  0  0  0  0  0  0
   -5.2149   19.3922   24.6350 C   0  0  0  0  0  0  0  0  0  0  0  0
   -5.2149   16.9922   24.4350 C   0  0  0  0  0  0  0  0  0  0  0  0
   -5.7149   18.9922   25.9350 C   0  0  0  0  0  0  0  0  0  0  0  0
   -6.1149   16.5922   25.5350 C   0  0  0  0  0  0  0  0  0  0  0  0
   -6.8149   17.9922   25.8350 C   0  0  0  0  0  0  0  0  0  0  0  0
   -8.0149   17.9922   26.3350 O   0  0  0  0  0  0  0  0  0  0  0  0
   -5.2149   21.9922   21.7350 C   0  0  0  0  0  0  0  0  0  0  0  0
   -6.4149   21.8922   21.8350 O   0  0  0  0  0  0  0  0  0  0  0  0
   -5.8149   20.7922   21.4350 C   0  0  0  0  0  0  0  0  0  0  0  0
   -6.4149   20.0922   20.7350 O   0  0  0  0  0  0  0  0  0  0  0  0
  2  1  1  0
  3  1  2  0
  4  3  1  0
  5  3  1  0
  6  2  1  0
  7  1  1  0
  8  4  1  0
  8  6  1  0
  9  5  1  0
 10  7  1  0
 10  9  1  0
 11  9  1  0
 12 10  1  0
 13 11  1  0
 14 12  1  0
 14 13  1  0
 15 14  1  0
 16  2  1  0
 17 16  1  0
 18 16  1  0
 18 17  1  0
 19 18  1  0
M  END
>  <ID>  (1) 
conformer_0

$$$$
