
     RDKit          3D

 19 23  0  0  0  0  0  0  0  0999 V2000
   -3.8149   20.8922   23.1350 C   0  0  0  0  0  0  0  0  0  0  0  0
   -3.9149   22.1922   22.4350 C   0  0  0  0  0  0  0  0  0  0  0  0
   -3.8149   19.6922   22.2350 C   0  0  0  0  0  0  0  0  0  0  0  0
   -3.7149   20.0922   20.8350 C   0  0  0  0  0  0  0  0  0  0  0  0
   -4.1149   18.3922   22.8350 C   0  0  0  0  0  0  0  0  0  0  0  0
   -3.0149   22.3922   21.3350 C   0  0  0  0  0  0  0  0  0  0  0  0
   -4.8149   20.8922   24.2350 C   0  0  0  0  0  0  0  0  0  0  0  0
   -3.2149   21.2922   20.3350 C   0  0  0  0  0  0  0  0  0  0  0  0
   -4.7149   18.3922   24.1350 C   0  0  0  0  0  0  0  0  0  0  0  0
   -5.1149   19.5922   24.8350 C   0  0  0  0  0  0  0  0  0  0  0  0
   -4.8149   17.0922   24.7350 C   0  0  0  0  0  0  0  0  0  0  0  0
   -6.1149   16.8922   25.4350 C   0  0  0  0  0  0  0  0  0  0  0  0
   -7.0149   17.9922   25.1350 C   0  0  0  0  0  0  0  0  0  0  0  0
   -6.4149   19.3922   25.5350 C   0  0  0  0  0  0  0  0  0  0  0  0
   -5.2149   19.0922   26.2350 C   0  0  0  0  0  0  0  0  0  0  0  0
   -8.4149   18.0922   24.6350 C   0  0  0  0  0  0  0  0  0  0  0  0
   -7.3149   18.2922   23.7350 C   0  0  0  0  0  0  0  0  0  0  0  0
   -5.2149   22.2922   21.7350 C   0  0  0  0  0  0  0  0  0  0  0  0
   -6.2149   15.9922   26.2350 O   0  0  0  0  0  0  0  0  0  0  0  0
  2  1  1  0
  3  1  1  0
  4  3  1  0
  5  3  1  0
  6  2  1  0
  7  1  1  0
  8  4  2  0
  8  6  1  0
  9  5  2  0
 10  7  1  0
 10  9  1  0
 11  9  1  0
 12 11  1  0
 13 12  1  0
 14 10  1  0
 14 13  1  0
 15 10  1  0
 15 14  1  0
 16 13  1  0
 17 13  1  0
 17 16  1  0
 18  2  1  0
 19 12  2  0
M  END
>  <ID>  (1) 
conformer_0

$$$$
