
     RDKit          3D

 10 12  0  0  0  0  0  0  0  0999 V2000
   -3.9058   20.7778   23.0295 C   0  0  0  0  0  0  0  0  0  0  0  0
   -4.7058   21.8778   23.4295 C   0  0  0  0  0  0  0  0  0  0  0  0
   -4.0058   19.9778   21.8295 C   0  0  0  0  0  0  0  0  0  0  0  0
   -5.3058   20.0778   21.2295 C   0  0  0  0  0  0  0  0  0  0  0  0
   -6.1058   21.7778   22.9295 C   0  0  0  0  0  0  0  0  0  0  0  0
   -6.2058   20.4778   22.3295 N   0  0  0  0  0  0  0  0  0  0  0  0
   -3.5058   18.6778   22.0295 C   0  0  0  0  0  0  0  0  0  0  0  0
   -3.3058   19.9778   24.1295 C   0  0  0  0  0  0  0  0  0  0  0  0
   -3.0058   18.5778   23.4295 C   0  0  0  0  0  0  0  0  0  0  0  0
   -5.0058   22.3778   22.1295 C   0  0  0  0  0  0  0  0  0  0  0  0
  2  1  1  0
  3  1  1  0
  4  3  1  0
  5  2  1  0
  6  4  1  0
  6  5  1  0
  7  3  1  0
  8  1  1  0
  9  7  2  0
  9  8  1  0
 10  2  1  0
 10  5  1  0
M  END
>  <ID>  (1) 
conformer_0

$$$$
