
     RDKit          3D

 23 28  0  0  0  0  0  0  0  0999 V2000
   -4.1555   20.1211   23.5432 C   0  0  0  0  0  0  0  0  0  0  0  0
   -4.7555   18.8211   23.3432 C   0  0  0  0  0  0  0  0  0  0  0  0
   -4.3555   17.7211   24.2432 C   0  0  0  0  0  0  0  0  0  0  0  0
   -4.1555   20.9211   22.4432 C   0  0  0  0  0  0  0  0  0  0  0  0
   -3.7555   22.2211   22.5432 C   0  0  0  0  0  0  0  0  0  0  0  0
   -4.0555   20.1211   21.2432 C   0  0  0  0  0  0  0  0  0  0  0  0
   -5.9555   19.1211   22.5432 C   0  0  0  0  0  0  0  0  0  0  0  0
   -6.2555   20.4211   22.3432 N   0  0  0  0  0  0  0  0  0  0  0  0
   -4.7555   16.6211   24.7432 C   0  0  0  0  0  0  0  0  0  0  0  0
   -5.6555   16.2211   25.6432 C   0  0  0  0  0  0  0  0  0  0  0  0
   -6.9555   16.7211   25.8432 C   0  0  0  0  0  0  0  0  0  0  0  0
   -7.7555   16.2211   26.8432 N   0  0  0  0  0  0  0  0  0  0  0  0
   -8.9555   15.8211   26.5432 C   0  0  0  0  0  0  0  0  0  0  0  0
   -9.2555   15.9211   25.1432 C   0  0  0  0  0  0  0  0  0  0  0  0
   -9.1555   17.3211   24.8432 C   0  0  0  0  0  0  0  0  0  0  0  0
   -7.8555   17.8211   25.4432 C   0  0  0  0  0  0  0  0  0  0  0  0
   -3.9555   20.7211   24.8432 C   0  0  0  0  0  0  0  0  0  0  0  0
   -2.4555   22.7211   22.0432 C   0  0  0  0  0  0  0  0  0  0  0  0
   -5.1555   20.7211   21.4432 C   0  0  0  0  0  3  0  0  0  0  0  0
   -8.8555   18.1211   26.0432 N   0  0  0  0  0  0  0  0  0  0  0  0
   -3.6555   22.7211   21.3432 O   0  0  0  0  0  0  0  0  0  0  0  0
   -4.7555   19.9211   25.7432 N   0  0  0  0  0  0  0  0  0  0  0  0
   -4.3555   18.6211   25.4432 N   0  0  0  0  0  0  0  0  0  0  0  0
  2  1  2  0
  3  2  1  0
  4  1  1  0
  5  4  1  0
  6  4  1  0
  7  2  1  0
  8  7  2  0
  9  3  1  0
 10  9  1  0
 11 10  1  0
 12 11  2  0
 13 12  1  0
 14 13  2  0
 15 14  1  0
 16 11  1  0
 16 15  2  0
 17  1  1  0
 18  5  1  0
 19  4  1  0
 19  6  1  0
 19  8  1  0
 20 15  1  0
 20 16  1  0
 21  5  1  0
 21 18  1  0
 22 17  2  0
 23  3  2  0
 23 22  1  0
M  END
>  <ID>  (1) 
conformer_0

$$$$
