
     RDKit          3D

 17 19  0  0  0  0  0  0  0  0999 V2000
   -4.1642   21.8855   23.2044 C   0  0  0  0  0  0  0  0  0  0  0  0
   -3.6642   20.4855   23.2044 C   0  0  0  0  0  0  0  0  0  0  0  0
   -3.7642   19.7855   21.9044 C   0  0  0  0  0  0  0  0  0  0  0  0
   -3.4642   20.5855   20.7044 C   0  0  0  0  0  0  0  0  0  0  0  0
   -4.0642   19.7855   24.4044 C   0  0  0  0  0  0  0  0  0  0  0  0
   -3.7642   18.3855   22.2044 C   0  0  0  0  0  0  0  0  0  0  0  0
   -3.2642   21.9855   20.9044 C   0  0  0  0  0  0  0  0  0  0  0  0
   -4.9642   18.6855   24.3044 C   0  0  0  0  0  0  0  0  0  0  0  0
   -4.4642   17.6855   23.3044 C   0  0  0  0  0  0  0  0  0  0  0  0
   -5.2642   18.0855   25.6044 C   0  0  0  0  0  0  0  0  0  0  0  0
   -4.2642   22.4855   21.9044 C   0  0  0  0  0  0  0  0  0  0  0  0
   -6.2642   16.9855   25.5044 C   0  0  0  0  0  0  0  0  0  0  0  0
   -6.3642   16.3855   24.2044 C   0  0  0  0  0  0  0  0  0  0  0  0
   -5.1642   15.9855   24.8044 N   0  0  0  0  0  0  0  0  0  0  0  0
   -7.2642   15.5855   23.9044 O   0  0  0  0  0  0  0  0  0  0  0  0
   -6.8642   16.1855   26.6044 C   0  0  0  0  0  0  0  0  0  0  0  0
   -7.4642   15.6855   27.4044 N   0  0  0  0  0  0  0  0  0  0  0  0
  2  1  1  0
  3  2  1  0
  4  3  2  0
  5  2  1  0
  6  3  1  0
  7  4  1  0
  8  5  1  0
  9  6  1  0
  9  8  1  0
 10  8  1  0
 11  1  1  0
 11  7  1  0
 12 10  1  0
 13 12  1  0
 14 12  1  0
 14 13  1  0
 15 13  1  0
 16 12  1  0
 17 16  3  0
M  END
>  <ID>  (1) 
conformer_0

$$$$
