
     RDKit          3D

 11 12  0  0  0  0  0  0  0  0999 V2000
   -3.7091   20.8262   22.9322 C   0  0  0  0  0  0  0  0  0  0  0  0
   -3.3091   21.5262   21.7322 C   0  0  0  0  0  0  0  0  0  0  0  0
   -3.3091   19.4262   23.0322 C   0  0  0  0  0  0  0  0  0  0  0  0
   -3.1091   20.6262   20.6322 C   0  0  0  0  0  0  0  0  0  0  0  0
   -3.8091   18.7262   21.8322 C   0  0  0  0  0  0  0  0  0  0  0  0
   -4.4091   21.6262   23.9322 C   0  0  0  0  0  0  0  0  0  0  0  0
   -4.1091   19.6262   20.7322 C   0  0  0  0  0  0  0  0  0  0  0  0
   -1.9091   19.3262   22.9322 C   0  0  0  0  0  0  0  0  0  0  0  0
   -2.6091   22.8262   21.6322 C   0  0  0  0  0  0  0  0  0  0  0  0
   -5.2091   21.0262   22.8322 C   0  0  0  0  0  0  0  0  0  0  0  0
   -3.9091   18.8262   24.2322 C   0  0  0  0  0  0  0  0  0  0  0  0
  2  1  1  0
  3  1  1  0
  4  2  1  0
  5  3  1  0
  6  1  1  0
  7  4  1  0
  7  5  1  0
  8  3  1  0
  9  2  1  0
 10  1  1  0
 10  6  1  0
 11  3  1  0
M  END
>  <ID>  (1) 
conformer_0

$$$$
