
     RDKit          3D

 19 22  0  0  0  0  0  0  0  0999 V2000
   -3.8022   21.2629   22.8508 C   0  0  0  0  0  0  0  0  0  0  0  0
   -3.8022   20.7629   21.4508 C   0  0  0  0  0  0  0  0  0  0  0  0
   -4.1022   19.3629   21.2508 C   0  0  0  0  0  0  0  0  0  0  0  0
   -4.5022   22.5629   22.9508 C   0  0  0  0  0  0  0  0  0  0  0  0
   -4.4022   20.1629   23.6508 C   0  0  0  0  0  0  0  0  0  0  0  0
   -3.4022   19.0629   23.6508 C   0  0  0  0  0  0  0  0  0  0  0  0
   -3.5022   18.5629   22.2508 C   0  0  0  0  0  0  0  0  0  0  0  0
   -2.7022   20.9629   22.2508 C   0  0  0  0  0  0  0  0  0  0  0  0
   -3.9022   18.1629   24.6508 N   0  0  0  0  0  0  0  0  0  0  0  0
   -4.8022   18.7629   25.5508 C   0  0  0  0  0  0  0  0  0  0  0  0
   -5.1022   20.1629   24.9508 C   0  0  0  0  0  0  0  0  0  0  0  0
   -6.0022   18.1629   25.9508 C   0  0  0  0  0  0  0  0  0  0  0  0
   -6.0022   16.7629   26.1508 N   0  0  0  0  0  0  0  0  0  0  0  0
   -5.3022   16.1629   25.0508 C   0  0  0  0  0  0  0  0  0  0  0  0
   -7.1022   18.9629   25.9508 N   0  0  0  0  0  0  0  0  0  0  0  0
   -8.2022   18.1629   25.6508 C   0  0  0  0  0  0  0  0  0  0  0  0
   -8.1022   16.8629   25.2508 C   0  0  0  0  0  0  0  0  0  0  0  0
   -7.3022   16.3629   26.3508 C   0  0  0  0  0  0  0  0  0  0  0  0
   -8.0022   15.6629   27.3508 N   0  0  0  0  0  0  0  0  0  0  0  0
  2  1  1  0
  3  2  1  0
  4  1  1  0
  5  1  1  0
  6  5  1  0
  7  3  1  0
  7  6  1  0
  8  1  1  0
  8  2  1  0
  9  6  1  0
 10  9  1  0
 11  5  1  0
 11 10  1  0
 12 10  1  0
 13 12  1  0
 14 13  1  0
 15 12  1  0
 16 15  1  0
 17 16  1  0
 18 13  1  0
 18 17  1  0
 19 18  1  0
M  END
>  <ID>  (1) 
conformer_0

$$$$
