
     RDKit          3D

 22 26  0  0  0  0  0  0  0  0999 V2000
   -4.1555   20.1211   23.5432 C   0  0  0  0  0  0  0  0  0  0  0  0
   -4.7555   18.8211   23.3432 C   0  0  0  0  0  3  0  0  0  0  0  0
   -4.3555   17.7211   24.2432 C   0  0  0  0  0  0  0  0  0  0  0  0
   -4.1555   20.9211   22.4432 C   0  0  0  0  0  0  0  0  0  0  0  0
   -3.7555   22.2211   22.5432 C   0  0  0  0  0  0  0  0  0  0  0  0
   -4.0555   20.1211   21.2432 C   0  0  0  0  0  0  0  0  0  0  0  0
   -5.9555   19.1211   22.5432 C   0  0  0  0  0  0  0  0  0  0  0  0
   -6.2555   20.4211   22.3432 N   0  0  0  0  0  0  0  0  0  0  0  0
   -4.7555   16.6211   24.7432 C   0  0  0  0  0  0  0  0  0  0  0  0
   -5.6555   16.2211   25.6432 C   0  0  0  0  0  0  0  0  0  0  0  0
   -6.9555   16.7211   25.8432 C   0  0  0  0  0  0  0  0  0  0  0  0
   -7.7555   16.2211   26.8432 N   0  0  0  0  0  0  0  0  0  0  0  0
   -8.9555   15.8211   26.5432 C   0  0  0  0  0  0  0  0  0  0  0  0
   -9.4555   16.2211   25.2432 C   0  0  0  0  0  0  0  0  0  0  0  0
   -9.0555   17.4211   24.8432 C   0  0  0  0  0  0  0  0  0  0  0  0
   -7.7555   17.9211   25.3432 C   0  0  0  0  0  0  0  0  0  0  0  0
   -3.5555   20.2211   24.8432 C   0  0  0  0  0  0  0  0  0  0  0  0
   -7.5555   19.2211   25.9432 C   0  0  0  0  0  0  0  0  0  0  0  0
   -2.4555   22.8211   22.3432 C   0  0  0  0  0  0  0  0  0  0  0  0
   -5.1555   20.7211   21.4432 C   0  0  0  0  0  3  0  0  0  0  0  0
   -4.5555   21.1211   24.7432 C   0  0  0  0  0  0  0  0  0  0  0  0
   -3.2555   22.7211   21.3432 O   0  0  0  0  0  0  0  0  0  0  0  0
  2  1  1  0
  3  2  1  0
  4  1  1  0
  5  4  1  0
  6  4  1  0
  7  2  1  0
  8  7  2  0
  9  3  1  0
 10  9  1  0
 11 10  1  0
 12 11  2  0
 13 12  1  0
 14 13  2  0
 15 14  1  0
 16 11  1  0
 16 15  2  0
 17  1  1  0
 18 16  1  0
 19  5  1  0
 20  4  1  0
 20  6  1  0
 20  8  1  0
 21  1  1  0
 21 17  2  0
 22  5  1  0
 22 19  1  0
M  END
>  <ID>  (1) 
conformer_0

$$$$
