
     RDKit          3D

 23 28  0  0  0  0  0  0  0  0999 V2000
   -5.6064   18.3110   23.4184 C   0  0  0  0  0  0  0  0  0  0  0  0
   -5.9064   17.3110   24.2184 C   0  0  0  0  0  0  0  0  0  0  0  0
   -4.3064   18.9110   23.3184 C   0  0  0  0  0  0  0  0  0  0  0  0
   -6.4064   16.4110   25.0184 N   0  0  0  0  0  0  0  0  0  0  0  0
   -7.4064   16.6110   26.0184 C   0  0  0  0  0  0  0  0  0  0  0  0
   -3.9064   19.8110   22.3184 C   0  0  0  0  0  0  0  0  0  0  0  0
   -3.7064   21.2110   22.4184 C   0  0  0  0  0  0  0  0  0  0  0  0
   -6.5064   19.1110   22.6184 C   0  0  0  0  0  0  0  0  0  0  0  0
   -6.1064   20.5110   22.5184 N   0  0  0  0  0  0  0  0  0  0  0  0
   -2.6064   21.8110   21.7184 C   0  0  0  0  0  0  0  0  0  0  0  0
   -4.4064   21.9110   23.5184 C   0  0  0  0  0  0  0  0  0  0  0  0
   -3.4064   18.4110   24.3184 C   0  0  0  0  0  0  0  0  0  0  0  0
   -8.6064   16.1110   25.9184 C   0  0  0  0  0  0  0  0  0  0  0  0
   -9.8064   16.9110   25.8184 C   0  0  0  0  0  0  0  0  0  0  0  0
  -11.0064   16.3110   25.5184 N   0  0  0  0  0  0  0  0  0  0  0  0
   -5.1064   16.9110   25.3184 C   0  0  0  0  0  0  0  0  0  0  0  0
   -5.5064   22.5110   23.1184 O   0  0  0  0  0  0  0  0  0  0  0  0
   -5.6064   21.1110   23.6184 C   0  0  0  0  0  0  0  0  0  0  0  0
   -4.9064   20.5110   21.5184 C   0  0  0  0  0  0  0  0  0  0  0  0
   -9.4064   16.5110   27.0184 N   0  0  0  0  0  0  0  0  0  0  0  0
   -2.4064   21.4110   20.5184 F   0  0  0  0  0  0  0  0  0  0  0  0
   -2.3064   23.0110   22.0184 F   0  0  0  0  0  0  0  0  0  0  0  0
   -1.6064   21.1110   22.5184 F   0  0  0  0  0  0  0  0  0  0  0  0
  2  1  1  0
  3  1  1  0
  4  2  1  0
  5  4  1  0
  6  3  1  0
  7  6  1  0
  8  1  1  0
  9  8  1  0
 10  7  1  0
 11  7  1  0
 12  3  1  0
 13  5  1  0
 14 13  1  0
 15 14  1  0
 16  2  1  0
 16  4  1  0
 17 11  1  0
 18  9  1  0
 18 11  1  0
 18 17  1  0
 19  6  1  0
 19  7  1  0
 19  9  1  0
 20 13  1  0
 20 14  1  0
 21 10  1  0
 22 10  1  0
 23 10  1  0
M  END
>  <ID>  (1) 
conformer_0

$$$$
