
     RDKit          3D

 17 20  0  0  0  0  0  0  0  0999 V2000
   -4.1642   21.8855   23.2044 C   0  0  0  0  0  0  0  0  0  0  0  0
   -3.6642   20.4855   23.2044 C   0  0  0  0  0  0  0  0  0  0  0  0
   -3.7642   19.7855   21.9044 C   0  0  0  0  0  0  0  0  0  0  0  0
   -3.4642   20.5855   20.7044 C   0  0  0  0  0  0  0  0  0  0  0  0
   -4.0642   19.7855   24.4044 C   0  0  0  0  0  0  0  0  0  0  0  0
   -3.7642   18.3855   22.2044 C   0  0  0  0  0  0  0  0  0  0  0  0
   -3.2642   21.9855   20.9044 C   0  0  0  0  0  0  0  0  0  0  0  0
   -4.9642   18.6855   24.3044 C   0  0  0  0  0  0  0  0  0  0  0  0
   -5.9642   18.5855   23.3044 C   0  0  0  0  0  0  0  0  0  0  0  0
   -6.0642   19.5855   22.2044 C   0  0  0  0  0  0  0  0  0  0  0  0
   -7.2642   18.0855   23.7044 C   0  0  0  0  0  0  0  0  0  0  0  0
   -5.6642   18.1855   25.5044 C   0  0  0  0  0  0  0  0  0  0  0  0
   -6.3642   16.8855   25.6044 C   0  0  0  0  0  0  0  0  0  0  0  0
   -7.2642   16.8855   24.5044 C   0  0  0  0  0  0  0  0  0  0  0  0
   -8.0642   15.7855   24.3044 O   0  0  0  0  0  0  0  0  0  0  0  0
   -3.3642   22.5855   22.2044 C   0  0  0  0  0  0  0  0  0  0  0  0
   -4.7642   17.9855   23.2044 C   0  0  0  0  0  0  0  0  0  0  0  0
  2  1  1  0
  3  2  1  0
  4  3  1  0
  5  2  1  0
  6  3  1  0
  7  4  2  0
  8  5  1  0
  9  8  1  0
 10  9  1  0
 11  9  1  0
 12  8  1  0
 13 12  1  0
 14 11  1  0
 14 13  1  0
 15 14  1  0
 16  1  1  0
 16  7  1  0
 17  6  1  0
 17  8  1  0
 17  9  1  0
M  END
>  <ID>  (1) 
conformer_0

$$$$
