
     RDKit          3D

 20 23  0  0  0  0  0  0  0  0999 V2000
   -4.1555   20.1211   23.5432 C   0  0  0  0  0  0  0  0  0  0  0  0
   -4.7555   18.8211   23.3432 C   0  0  0  0  0  0  0  0  0  0  0  0
   -4.3555   17.7211   24.2432 C   0  0  0  0  0  0  0  0  0  0  0  0
   -3.6555   20.8211   22.3432 C   0  0  0  0  0  0  0  0  0  0  0  0
   -3.6555   19.9211   21.1432 C   0  0  0  0  0  0  0  0  0  0  0  0
   -3.8555   22.2211   22.1432 C   0  0  0  0  0  0  0  0  0  0  0  0
   -5.4555   16.8211   24.4432 C   0  0  0  0  0  0  0  0  0  0  0  0
   -6.2555   18.8211   23.3432 C   0  0  0  0  0  0  0  0  0  0  0  0
   -6.6555   17.5211   23.9432 N   0  0  0  0  0  0  0  0  0  0  0  0
   -7.8555   17.4211   24.5432 C   0  0  0  0  0  0  0  0  0  0  0  0
   -7.6555   16.4211   25.6432 C   0  0  0  0  0  0  0  0  0  0  0  0
   -9.1555   17.2211   23.9432 C   0  0  0  0  0  0  0  0  0  0  0  0
   -8.7555   15.5211   25.5432 O   0  0  0  0  0  0  0  0  0  0  0  0
   -9.8555   16.0211   24.7432 C   0  0  0  0  0  0  0  0  0  0  0  0
   -3.4555   20.8211   20.0432 C   0  0  0  0  0  0  0  0  0  0  0  0
   -4.0555   20.9211   24.7432 C   0  0  0  0  0  0  0  0  0  0  0  0
   -4.6555   22.9211   22.7432 O   0  0  0  0  0  0  0  0  0  0  0  0
   -2.5555   21.7211   22.3432 C   0  0  0  0  0  0  0  0  0  0  0  0
   -3.1555   22.1211   19.7432 C   0  0  0  0  0  0  0  0  0  0  0  0
   -4.2555   21.7211   20.1432 O   0  0  0  0  0  0  0  0  0  0  0  0
  2  1  1  0
  3  2  1  0
  4  1  1  0
  5  4  1  0
  6  4  1  0
  7  3  2  0
  8  2  2  0
  9  7  1  0
  9  8  1  0
 10  9  1  0
 11 10  1  0
 12 10  1  0
 13 11  1  0
 14 12  1  0
 14 13  1  0
 15  5  1  0
 16  1  1  0
 17  6  1  0
 18  4  1  0
 18  6  1  0
 19 15  1  0
 20 15  1  0
 20 19  1  0
M  END
>  <ID>  (1) 
conformer_0

$$$$
