
     RDKit          3D

 19 23  0  0  0  0  0  0  0  0999 V2000
   -3.3414   22.2519   22.7654 C   0  0  0  0  0  0  0  0  0  0  0  0
   -4.0414   21.0519   22.8654 C   0  0  0  0  0  0  0  0  0  0  0  0
   -4.5414   20.3519   21.6654 C   0  0  0  0  0  0  0  0  0  0  0  0
   -5.8414   19.7519   21.8654 C   0  0  0  0  0  0  0  0  0  0  0  0
   -4.7414   20.5519   24.0654 C   0  0  0  0  0  0  0  0  0  0  0  0
   -4.8414   19.1519   24.1654 C   0  0  0  0  0  0  0  0  0  0  0  0
   -4.1414   18.4519   23.0654 C   0  0  0  0  0  0  0  0  0  0  0  0
   -4.9414   18.4519   25.4654 C   0  0  0  0  0  0  0  0  0  0  0  0
   -3.7414   18.9519   21.7654 C   0  0  0  0  0  0  0  0  0  0  0  0
   -4.5414   17.0519   25.1654 C   0  0  0  0  0  0  0  0  0  0  0  0
   -5.5414   21.6519   23.4654 C   0  0  0  0  0  0  0  0  0  0  0  0
   -5.6414   16.2519   24.6654 C   0  0  0  0  0  0  0  0  0  0  0  0
   -6.7414   17.1519   24.2654 C   0  0  0  0  0  0  0  0  0  0  0  0
   -7.3414   18.0519   25.1654 C   0  0  0  0  0  0  0  0  0  0  0  0
   -2.8414   19.0519   22.8654 N   0  0  0  0  0  0  0  0  0  0  0  0
   -6.1414   18.3519   26.1654 N   0  0  0  0  0  0  0  0  0  0  0  0
   -2.5414   22.6519   21.6654 C   0  0  0  0  0  0  0  0  0  0  0  0
   -6.5414   19.6519   20.8654 O   0  0  0  0  0  0  0  0  0  0  0  0
   -6.5414   20.5519   22.8654 N   0  0  0  0  0  0  0  0  0  0  0  0
  2  1  1  0
  3  2  1  0
  4  3  1  0
  5  2  1  0
  6  5  1  0
  7  6  1  0
  8  6  1  0
  9  3  1  0
  9  7  1  0
 10  8  1  0
 11  2  1  0
 11  5  1  0
 12 10  1  0
 13 12  1  0
 14 13  1  0
 15  7  1  0
 15  9  1  0
 16  8  1  0
 16 14  1  0
 17  1  1  0
 18  4  1  0
 19  4  1  0
 19 11  1  0
M  END
>  <ID>  (1) 
conformer_0

$$$$
