
     RDKit          3D

 10 10  0  0  0  0  0  0  0  0999 V2000
   28.1990   58.3582   89.5232 N   0  0  0  0  0  0  0  0  0  0  0  0
   28.1990   58.7582   88.1232 C   0  0  0  0  0  0  0  0  0  0  0  0
   28.0990   56.9582   89.8232 C   0  0  0  0  0  0  0  0  0  0  0  0
   27.9990   57.5582   87.3232 C   0  0  0  0  0  0  0  0  0  0  0  0
   28.9990   56.6582   87.6232 O   0  0  0  0  0  0  0  0  0  0  0  0
   26.9990   56.5582   90.7232 C   0  0  0  0  0  0  0  0  0  0  0  0
   26.9990   57.0582   91.9232 O   0  0  0  0  0  0  0  0  0  0  0  0
   28.9990   59.8582   87.7232 C   0  0  0  0  0  0  0  0  0  0  0  0
   26.6990   56.7582   89.3232 C   0  0  0  0  0  0  0  0  0  0  0  0
   26.0990   56.4582   88.2232 O   0  0  0  0  0  0  0  0  0  0  0  0
  2  1  1  0
  3  1  1  0
  4  2  1  0
  5  4  1  0
  6  3  1  0
  7  6  1  0
  8  2  1  0
  9  3  1  0
  9  6  1  0
 10  9  1  0
M  END
>  <ID>  (1) 
conformer_0

$$$$
