
     RDKit          3D

 12 11  0  0  0  0  0  0  0  0999 V2000
   28.1990   58.3582   89.5232 N   0  0  0  0  0  0  0  0  0  0  0  0
   28.1990   58.7582   88.1232 C   0  0  0  0  0  0  0  0  0  0  0  0
   28.0990   56.9582   89.8232 C   0  0  0  0  0  0  0  0  0  0  0  0
   27.9990   57.5582   87.3232 C   0  0  0  0  0  0  0  0  0  0  0  0
   28.9990   56.6582   87.6232 O   0  0  0  0  0  0  0  0  0  0  0  0
   26.9990   56.5582   90.7232 C   0  0  0  0  0  0  0  0  0  0  0  0
   27.4990   56.8582   92.0232 O   0  0  0  0  0  0  0  0  0  0  0  0
   28.8990   59.8582   87.7232 C   0  0  0  0  0  0  0  0  0  0  0  0
   26.9990   57.7582   86.2232 C   0  0  0  0  0  0  0  0  0  0  0  0
   27.1990   59.1582   85.8232 N   0  0  0  0  0  0  0  0  0  0  0  0
   25.5990   56.1581   90.6232 C   0  0  0  0  0  0  0  0  0  0  0  0
   25.0990   55.1581   91.6232 C   0  0  0  0  0  0  0  0  0  0  0  0
  2  1  1  0
  3  1  1  0
  4  2  1  0
  5  4  1  0
  6  3  1  0
  7  6  1  0
  8  2  2  0
  9  4  1  0
 10  9  1  0
 11  6  1  0
 12 11  1  0
M  END
>  <ID>  (1) 
conformer_0

$$$$
