
     RDKit          3D

 12 11  0  0  0  0  0  0  0  0999 V2000
   28.7993   59.1371   89.0762 N   0  0  0  0  0  0  0  0  0  0  0  0
   27.8993   58.1371   88.4762 C   0  0  0  0  0  0  0  0  0  0  0  0
   28.2993   57.6371   87.1762 C   0  0  0  0  0  0  0  0  0  0  0  0
   27.4993   57.0371   89.3763 C   0  0  0  0  0  0  0  0  0  0  0  0
   28.5993   56.0371   89.1763 O   0  0  0  0  0  0  0  0  0  0  0  0
   26.0993   56.5371   89.2763 C   0  0  0  0  0  0  0  0  0  0  0  0
   25.7993   55.3371   89.9762 O   0  0  0  0  0  0  0  0  0  0  0  0
   24.5993   55.3371   90.7763 C   0  0  0  0  0  0  0  0  0  0  0  0
   23.3993   54.9371   90.0763 C   0  0  0  0  0  0  0  0  0  0  0  0
   22.2993   54.3371   90.7763 C   0  0  0  0  0  0  0  0  0  0  0  0
   23.9993   53.8371   89.2763 O   0  0  0  0  0  0  0  0  0  0  0  0
   28.1993   58.2371   85.9762 N   0  0  0  0  0  0  0  0  0  0  0  0
  2  1  1  0
  3  2  1  0
  4  2  1  0
  5  4  1  0
  6  4  1  0
  7  6  1  0
  8  7  1  0
  9  8  1  0
 10  9  1  0
 11  9  1  0
 12  3  1  0
M  END
>  <ID>  (1) 
conformer_0

$$$$
