
     RDKit          3D

 14 14  0  0  0  0  0  0  0  0999 V2000
   28.1990   58.3582   89.5232 N   0  0  0  0  0  0  0  0  0  0  0  0
   28.1990   58.7582   88.1232 C   0  0  0  0  0  0  0  0  0  0  0  0
   28.0990   56.9582   89.8232 C   0  0  0  0  0  0  0  0  0  0  0  0
   27.9990   57.5582   87.3232 C   0  0  0  0  0  0  0  0  0  0  0  0
   28.9990   56.6582   87.6232 O   0  0  0  0  0  0  0  0  0  0  0  0
   26.9990   56.5582   90.7232 C   0  0  0  0  0  0  0  0  0  0  0  0
   27.4990   56.8582   92.0232 O   0  0  0  0  0  0  0  0  0  0  0  0
   28.8990   59.8582   87.7232 C   0  0  0  0  0  0  0  0  0  0  0  0
   26.9990   57.7582   86.2232 C   0  0  0  0  0  0  0  0  0  0  0  0
   27.2990   59.1582   85.8232 N   0  0  0  0  0  0  0  0  0  0  0  0
   26.4990   59.7582   84.8232 C   0  0  0  0  0  0  0  0  0  0  0  0
   28.5990   59.6582   86.1232 C   0  0  0  0  0  0  0  0  0  0  0  0
   25.7990   56.1581   90.4232 C   0  0  0  0  0  0  0  0  0  0  0  0
   25.3990   55.0582   90.1232 O   0  0  0  0  0  0  0  0  0  0  0  0
  2  1  1  0
  3  1  1  0
  4  2  1  0
  5  4  1  0
  6  3  1  0
  7  6  1  0
  8  2  1  0
  9  4  1  0
 10  9  1  0
 11 10  1  0
 12  8  1  0
 12 10  1  0
 13  6  1  0
 14 13  2  0
M  END
>  <ID>  (1) 
conformer_0

$$$$
