
     RDKit          3D

 18 19  0  0  0  0  0  0  0  0999 V2000
   28.1990   58.3582   89.5232 N   0  0  0  0  0  0  0  0  0  0  0  0
   28.1990   58.7582   88.1232 C   0  0  0  0  0  0  0  0  0  0  0  0
   27.7990   57.0582   89.8232 C   0  0  0  0  0  0  0  0  0  0  0  0
   28.2990   57.5582   87.3232 C   0  0  0  0  0  0  0  0  0  0  0  0
   26.6990   56.6582   88.9232 C   0  0  0  0  0  0  0  0  0  0  0  0
   28.8990   56.4582   87.8232 O   0  0  0  0  0  0  0  0  0  0  0  0
   25.9990   57.5582   88.1232 O   0  0  0  0  0  0  0  0  0  0  0  0
   28.7990   59.9582   87.5232 C   0  0  0  0  0  0  0  0  0  0  0  0
   27.4990   56.6582   91.2232 C   0  0  0  0  0  0  0  0  0  0  0  0
   25.7990   55.6582   89.5232 O   0  0  0  0  0  0  0  0  0  0  0  0
   24.3990   56.0582   89.3232 C   0  0  0  0  0  0  0  0  0  0  0  0
   23.3990   55.1582   89.8232 C   0  0  0  0  0  0  0  0  0  0  0  0
   22.1990   54.9582   89.2232 C   0  0  0  0  0  0  0  0  0  0  0  0
   21.7990   55.8582   88.1232 C   0  0  0  0  0  0  0  0  0  0  0  0
   22.5990   56.8582   87.7232 C   0  0  0  0  0  0  0  0  0  0  0  0
   23.9990   56.5582   88.0232 C   0  0  0  0  0  0  0  0  0  0  0  0
   24.9990   57.0582   87.2232 C   0  0  0  0  0  0  0  0  0  0  0  0
   27.3990   56.8582   92.3232 O   0  0  0  0  0  0  0  0  0  0  0  0
  2  1  1  0
  3  1  1  0
  4  2  1  0
  5  3  1  0
  6  4  1  0
  7  5  1  0
  8  2  1  0
  9  3  1  0
 10  5  1  0
 11 10  1  0
 12 11  2  0
 13 12  1  0
 14 13  2  0
 15 14  1  0
 16 11  1  0
 16 15  2  0
 17  7  1  0
 17 16  1  0
 18  9  2  0
M  END
>  <ID>  (1) 
conformer_0

$$$$
