
     RDKit          3D

 15 15  0  0  0  0  0  0  0  0999 V2000
   28.3125   58.5001   89.5403 N   0  0  0  0  0  0  0  0  0  0  0  0
   27.9125   57.1001   89.6403 C   0  0  0  0  0  0  0  0  0  0  0  0
   28.3125   59.0001   88.1403 C   0  0  0  0  0  0  0  0  0  0  0  0
   28.3125   57.8001   87.2403 C   0  0  0  0  0  0  0  0  0  0  0  0
   29.0125   56.7001   87.6403 O   0  0  0  0  0  0  0  0  0  0  0  0
   26.7125   56.9001   88.8403 C   0  0  0  0  0  0  0  0  0  0  0  0
   26.7125   57.4001   87.4403 C   0  0  0  0  0  0  0  0  0  0  0  0
   25.4125   56.6001   89.4403 C   0  0  0  0  0  0  0  0  0  0  0  0
   24.4125   56.5001   88.3403 C   0  0  0  0  0  0  0  0  0  0  0  0
   23.2125   55.8001   88.7403 C   0  0  0  0  0  0  0  0  0  0  0  0
   23.4125   55.1001   90.0403 C   0  0  0  0  0  0  0  0  0  0  0  0
   22.6125   54.4001   90.8403 C   0  0  0  0  0  0  0  0  0  0  0  0
   23.0125   54.1001   92.2403 C   0  0  0  0  0  0  0  0  0  0  0  0
   27.6125   56.7001   91.0403 C   0  0  0  0  0  0  0  0  0  0  0  0
   29.0125   60.1001   87.7403 C   0  0  0  0  0  0  0  0  0  0  0  0
  2  1  1  0
  3  1  1  0
  4  3  1  0
  5  4  1  0
  6  2  1  0
  7  4  1  0
  7  6  1  0
  8  6  1  0
  9  8  1  0
 10  9  1  0
 11 10  1  0
 12 11  2  3
 13 12  1  0
 14  2  1  0
 15  3  2  0
M  END
>  <ID>  (1) 
conformer_0

$$$$
