
     RDKit          3D

 14 14  0  0  0  0  0  0  0  0999 V2000
   28.3125   58.5001   89.5403 N   0  0  0  0  0  0  0  0  0  0  0  0
   27.9125   57.1001   89.6403 C   0  0  0  0  0  0  0  0  0  0  0  0
   28.3125   59.0001   88.1403 C   0  0  0  0  0  0  0  0  0  0  0  0
   28.3125   57.8001   87.2403 C   0  0  0  0  0  0  0  0  0  0  0  0
   29.2125   56.8001   87.6403 O   0  0  0  0  0  0  0  0  0  0  0  0
   26.7125   56.9001   88.8403 C   0  0  0  0  0  0  0  0  0  0  0  0
   26.9125   57.3001   87.4403 C   0  0  0  0  0  0  0  0  0  0  0  0
   27.7125   56.7001   91.0403 C   0  0  0  0  0  0  0  0  0  0  0  0
   25.6125   56.5001   89.6403 C   0  0  0  0  0  0  0  0  0  0  0  0
   26.7125   57.2001   91.8403 O   0  0  0  0  0  0  0  0  0  0  0  0
   25.6125   55.2001   90.2403 O   0  0  0  0  0  0  0  0  0  0  0  0
   26.1125   57.6001   86.2403 C   0  0  0  0  0  0  0  0  0  0  0  0
   26.6125   58.8001   85.6403 N   0  0  0  0  0  0  0  0  0  0  0  0
   28.6125   60.3001   87.6403 C   0  0  0  0  0  0  0  0  0  0  0  0
  2  1  1  0
  3  1  1  0
  4  3  1  0
  5  4  1  0
  6  2  1  0
  7  4  1  0
  7  6  2  0
  8  2  1  0
  9  6  1  0
 10  8  1  0
 11  9  1  0
 12  7  1  0
 13 12  1  0
 14  3  1  0
M  END
>  <ID>  (1) 
conformer_0

$$$$
