
     RDKit          3D

 19 22  0  0  0  0  0  0  0  0999 V2000
   28.1953   57.0210   90.0775 C   0  0  0  0  0  0  0  0  0  0  0  0
   28.2953   58.3210   89.5775 N   0  0  0  0  0  0  0  0  0  0  0  0
   27.9953   58.4210   88.1775 C   0  0  0  0  0  0  0  0  0  0  0  0
   26.8953   57.5210   87.7775 C   0  0  0  0  0  0  0  0  0  0  0  0
   26.7953   56.5210   90.1775 C   0  0  0  0  0  0  0  0  0  0  0  0
   26.0953   57.1210   88.9775 C   0  0  0  0  0  0  0  0  0  0  0  0
   28.7953   59.2210   87.2775 C   0  0  0  0  0  0  0  0  0  0  0  0
   24.7953   56.5210   88.5775 C   0  0  0  0  0  0  0  0  0  0  0  0
   24.7953   56.5210   87.2775 N   0  0  0  0  0  0  0  0  0  0  0  0
   24.0953   55.7210   89.4775 C   0  0  0  0  0  0  0  0  0  0  0  0
   22.7953   55.3210   88.9775 C   0  0  0  0  0  0  0  0  0  0  0  0
   22.3953   56.3210   87.9775 C   0  0  0  0  0  0  0  0  0  0  0  0
   21.0954   56.5210   87.8775 N   0  0  0  0  0  0  0  0  0  0  0  0
   26.6953   57.6210   86.3775 C   0  0  0  0  0  0  0  0  0  0  0  0
   26.9953   58.8210   85.6775 N   0  0  0  0  0  0  0  0  0  0  0  0
   28.0953   59.6210   86.0775 C   0  0  0  0  0  0  0  0  0  0  0  0
   28.9953   55.9211   90.5775 O   0  0  0  0  0  0  0  0  0  0  0  0
   25.3953   57.0210   86.0775 C   0  0  0  0  0  0  0  0  0  0  0  0
   22.9953   55.2210   87.5775 N   0  0  0  0  0  0  0  0  0  0  0  0
  2  1  1  0
  3  2  1  0
  4  3  1  0
  5  1  1  0
  6  4  2  0
  6  5  1  0
  7  3  1  0
  8  6  1  0
  9  8  2  0
 10  8  1  0
 11 10  1  0
 12 11  1  0
 13 12  2  0
 14  4  1  0
 15 14  1  0
 16  7  1  0
 16 15  2  0
 17  1  2  0
 18  9  1  0
 18 14  2  0
 19 11  1  0
 19 12  1  0
M  END
>  <ID>  (1) 
conformer_0

$$$$
