
     RDKit          3D

 16 16  0  0  0  0  0  0  0  0999 V2000
   28.1314   58.3227   89.4457 N   0  0  0  0  0  0  0  0  0  0  0  0
   27.7314   56.9227   89.6457 C   0  0  0  0  0  0  0  0  0  0  0  0
   28.0314   58.8227   88.1457 C   0  0  0  0  0  0  0  0  0  0  0  0
   28.0314   57.7227   87.1457 C   0  0  0  0  0  0  0  0  0  0  0  0
   29.0314   56.7227   87.6457 O   0  0  0  0  0  0  0  0  0  0  0  0
   26.4314   56.7227   89.0457 C   0  0  0  0  0  0  0  0  0  0  0  0
   25.5314   55.8227   89.6457 O   0  0  0  0  0  0  0  0  0  0  0  0
   27.7314   56.5227   91.0457 C   0  0  0  0  0  0  0  0  0  0  0  0
   26.9314   57.0227   91.9457 O   0  0  0  0  0  0  0  0  0  0  0  0
   28.7314   60.0227   87.7457 C   0  0  0  0  0  0  0  0  0  0  0  0
   24.1314   55.7227   89.3457 C   0  0  0  0  0  0  0  0  0  0  0  0
   23.2314   54.9227   90.0457 C   0  0  0  0  0  0  0  0  0  0  0  0
   23.7314   56.2227   88.1457 C   0  0  0  0  0  0  0  0  0  0  0  0
   22.0314   54.7227   89.3457 C   0  0  0  0  0  0  0  0  0  0  0  0
   21.4314   55.5227   88.4457 C   0  0  0  0  0  0  0  0  0  0  0  0
   22.3314   56.4227   87.9457 C   0  0  0  0  0  0  0  0  0  0  0  0
  2  1  1  0
  3  1  1  0
  4  3  1  0
  5  4  1  0
  6  2  1  0
  7  6  1  0
  8  2  1  0
  9  8  1  0
 10  3  1  0
 11  7  1  0
 12 11  2  0
 13 11  1  0
 14 12  1  0
 15 14  2  0
 16 13  2  0
 16 15  1  0
M  END
>  <ID>  (1) 
conformer_0

$$$$
