
     RDKit          3D

 11 10  0  0  0  0  0  0  0  0999 V2000
   28.1990   58.3582   89.5232 N   0  0  0  0  0  0  0  0  0  0  0  0
   28.1990   58.7582   88.1232 C   0  0  0  0  0  0  0  0  0  0  0  0
   28.0990   56.9582   89.9232 C   0  0  0  0  0  0  0  0  0  0  0  0
   28.0990   57.5582   87.3232 C   0  0  0  0  0  0  0  0  0  0  0  0
   29.0990   56.6582   87.6232 O   0  0  0  0  0  0  0  0  0  0  0  0
   26.9990   56.7582   90.9232 C   0  0  0  0  0  0  0  0  0  0  0  0
   27.4990   56.8582   92.2232 O   0  0  0  0  0  0  0  0  0  0  0  0
   28.9990   59.8582   87.7232 C   0  0  0  0  0  0  0  0  0  0  0  0
   25.7990   55.9582   90.6232 C   0  0  0  0  0  0  0  0  0  0  0  0
   25.2990   55.2582   91.8232 C   0  0  0  0  0  0  0  0  0  0  0  0
   26.8990   57.5582   86.4232 C   0  0  0  0  0  0  0  0  0  0  0  0
  2  1  1  0
  3  1  1  0
  4  2  1  0
  5  4  1  0
  6  3  1  0
  7  6  1  0
  8  2  1  0
  9  6  1  0
 10  9  1  0
 11  4  1  0
M  END
>  <ID>  (1) 
conformer_0

$$$$
