
     RDKit          3D

 19 20  0  0  0  0  0  0  0  0999 V2000
   28.3125   58.5001   89.5403 N   0  0  0  0  0  0  0  0  0  0  0  0
   27.9125   57.1001   89.6403 C   0  0  0  0  0  0  0  0  0  0  0  0
   28.3125   59.0001   88.1403 C   0  0  0  0  0  0  0  0  0  0  0  0
   28.3125   57.8001   87.2403 C   0  0  0  0  0  0  0  0  0  0  0  0
   29.0125   56.7001   87.6403 O   0  0  0  0  0  0  0  0  0  0  0  0
   26.7125   56.9001   88.8403 C   0  0  0  0  0  0  0  0  0  0  0  0
   26.8125   57.3001   87.4403 C   0  0  0  0  0  0  0  0  0  0  0  0
   27.7125   56.6001   90.9403 C   0  0  0  0  0  0  0  0  0  0  0  0
   25.6125   56.3001   89.4403 C   0  0  0  0  0  0  0  0  0  0  0  0
   25.8125   55.3001   90.4403 O   0  0  0  0  0  0  0  0  0  0  0  0
   26.8125   57.2001   91.8403 O   0  0  0  0  0  0  0  0  0  0  0  0
   24.4125   55.1001   90.9403 C   0  0  0  0  0  0  0  0  0  0  0  0
   23.4125   55.3001   89.8403 C   0  0  0  0  0  0  0  0  0  0  0  0
   22.3125   54.4001   89.7403 C   0  0  0  0  0  0  0  0  0  0  0  0
   21.2125   54.8001   88.8403 C   0  0  0  0  0  0  0  0  0  0  0  0
   21.7125   55.9001   88.0403 C   0  0  0  0  0  0  0  0  0  0  0  0
   23.2125   56.1001   88.6403 N   0  0  0  0  0  0  0  0  0  0  0  0
   28.7125   60.3001   87.7403 C   0  0  0  0  0  0  0  0  0  0  0  0
   22.3125   56.8001   88.4403 O   0  0  0  0  0  0  0  0  0  0  0  0
  2  1  1  0
  3  1  1  0
  4  3  1  0
  5  4  1  0
  6  2  1  0
  7  4  1  0
  7  6  1  0
  8  2  1  0
  9  6  1  0
 10  9  1  0
 11  8  1  0
 12 10  1  0
 13 12  1  0
 14 13  1  0
 15 14  1  0
 16 15  1  0
 17 13  1  0
 17 16  1  0
 18  3  1  0
 19 16  1  0
M  END
>  <ID>  (1) 
conformer_0

$$$$
