
     RDKit          3D

 20 22  0  0  0  0  0  0  0  0999 V2000
   28.1996   56.7838   89.9111 C   0  0  0  0  0  0  0  0  0  0  0  0
   28.4996   58.0838   89.3111 N   0  0  0  0  0  0  0  0  0  0  0  0
   27.8996   58.3838   88.1111 C   0  0  0  0  0  0  0  0  0  0  0  0
   26.7996   57.4837   87.8111 C   0  0  0  0  0  0  0  0  0  0  0  0
   26.7996   56.5838   90.1111 C   0  0  0  0  0  0  0  0  0  0  0  0
   25.9996   57.0837   89.0111 C   0  0  0  0  0  0  0  0  0  0  0  0
   24.7996   56.2837   88.6111 C   0  0  0  0  0  0  0  0  0  0  0  0
   24.4996   56.3837   87.3111 N   0  0  0  0  0  0  0  0  0  0  0  0
   23.9996   55.6838   89.5111 C   0  0  0  0  0  0  0  0  0  0  0  0
   22.7996   55.2837   89.1111 C   0  0  0  0  0  0  0  0  0  0  0  0
   22.1996   55.7837   87.9111 C   0  0  0  0  0  0  0  0  0  0  0  0
   20.8996   56.1838   87.9111 N   0  0  0  0  0  0  0  0  0  0  0  0
   26.3996   57.3838   86.4111 C   0  0  0  0  0  0  0  0  0  0  0  0
   28.3996   59.3838   87.1111 C   0  0  0  0  0  0  0  0  0  0  0  0
   26.6996   58.4837   85.6111 N   0  0  0  0  0  0  0  0  0  0  0  0
   27.6996   57.5837   85.7111 C   0  0  0  0  0  0  0  0  0  0  0  0
   23.0996   56.2837   87.2111 N   0  0  0  0  0  0  0  0  0  0  0  0
   28.9996   55.6838   90.4111 O   0  0  0  0  0  0  0  0  0  0  0  0
   29.4996   59.1838   86.3111 O   0  0  0  0  0  0  0  0  0  0  0  0
   22.4996   56.5837   85.9111 C   0  0  0  0  0  0  0  0  0  0  0  0
  2  1  1  0
  3  2  1  0
  4  3  1  0
  5  1  1  0
  6  4  1  0
  6  5  1  0
  7  6  1  0
  8  7  1  0
  9  7  2  0
 10  9  1  0
 11 10  2  0
 12 11  1  0
 13  4  1  0
 14  3  1  0
 15 13  1  0
 16 13  1  0
 16 15  1  0
 17  8  1  0
 17 11  1  0
 18  1  2  0
 19 14  1  0
 20 17  1  0
M  END
>  <ID>  (1) 
conformer_0

$$$$
