
     RDKit          3D

 11 11  0  0  0  0  0  0  0  0999 V2000
   28.2689   56.4829   90.0633 C   0  0  0  0  0  0  0  0  0  0  0  0
   28.1689   57.8829   89.7633 N   0  0  0  0  0  0  0  0  0  0  0  0
   28.0689   58.2829   88.3633 C   0  0  0  0  0  0  0  0  0  0  0  0
   28.5689   57.1829   87.5633 C   0  0  0  0  0  0  0  0  0  0  0  0
   28.3689   59.6829   88.0633 C   0  0  0  0  0  0  0  0  0  0  0  0
   27.1689   55.9829   90.8633 C   0  0  0  0  0  0  0  0  0  0  0  0
   27.0689   56.7829   92.0633 O   0  0  0  0  0  0  0  0  0  0  0  0
   29.0689   56.0829   87.8633 O   0  0  0  0  0  0  0  0  0  0  0  0
   27.1689   57.4829   87.4633 C   0  0  0  0  0  0  0  0  0  0  0  0
   26.2689   56.6829   87.9633 O   0  0  0  0  0  0  0  0  0  0  0  0
   28.1689   60.6829   89.0633 O   0  0  0  0  0  0  0  0  0  0  0  0
  2  1  1  0
  3  2  1  0
  4  3  1  0
  5  3  1  0
  6  1  1  0
  7  6  1  0
  8  4  1  0
  9  3  1  0
  9  4  1  0
 10  9  1  0
 11  5  1  0
M  END
>  <ID>  (1) 
conformer_0

$$$$
