
     RDKit          3D

  8  7  0  0  0  0  0  0  0  0999 V2000
   28.1990   58.3582   89.5232 N   0  0  0  0  0  0  0  0  0  0  0  0
   28.1990   58.7582   88.1232 C   0  0  0  0  0  0  0  0  0  0  0  0
   28.0990   56.9582   89.8232 C   0  0  0  0  0  0  0  0  0  0  0  0
   27.9990   57.5582   87.3232 C   0  0  0  0  0  0  0  0  0  0  0  0
   28.9990   56.6582   87.6232 O   0  0  0  0  0  0  0  0  0  0  0  0
   27.2990   56.6582   91.0232 C   0  0  0  0  0  0  0  0  0  0  0  0
   28.9990   59.9582   87.7232 C   0  0  0  0  0  0  0  0  0  0  0  0
   27.4990   56.8582   92.1232 O   0  0  0  0  0  0  0  0  0  0  0  0
  2  1  1  0
  3  1  1  0
  4  2  1  0
  5  4  1  0
  6  3  1  0
  7  2  1  0
  8  6  2  0
M  END
>  <ID>  (1) 
conformer_0

$$$$
