
     RDKit          3D

 14 14  0  0  0  0  0  0  0  0999 V2000
   28.4542   58.2967   89.5482 N   0  0  0  0  0  0  0  0  0  0  0  0
   28.0542   56.9967   90.1482 C   0  0  0  0  0  0  0  0  0  0  0  0
   27.8542   58.4967   88.2482 C   0  0  0  0  0  0  0  0  0  0  0  0
   26.8542   56.4967   89.4482 C   0  0  0  0  0  0  0  0  0  0  0  0
   28.0542   57.2967   87.4482 C   0  0  0  0  0  0  0  0  0  0  0  0
   29.0542   56.3967   87.9482 O   0  0  0  0  0  0  0  0  0  0  0  0
   25.8542   57.2967   88.7482 O   0  0  0  0  0  0  0  0  0  0  0  0
   28.2542   59.6967   87.5482 C   0  0  0  0  0  0  0  0  0  0  0  0
   24.7542   56.4967   88.4482 C   0  0  0  0  0  0  0  0  0  0  0  0
   23.8542   56.2967   87.4482 C   0  0  0  0  0  0  0  0  0  0  0  0
   22.4542   56.0967   87.5482 C   0  0  0  0  0  0  0  0  0  0  0  0
   22.0542   55.3967   88.6482 C   0  0  0  0  0  0  0  0  0  0  0  0
   23.1542   55.2967   89.6482 C   0  0  0  0  0  0  0  0  0  0  0  0
   24.4542   55.6967   89.6482 C   0  0  0  0  0  0  0  0  0  0  0  0
  2  1  1  0
  3  1  1  0
  4  2  1  0
  5  3  1  0
  6  5  1  0
  7  4  1  0
  8  3  1  0
  9  7  1  0
 10  9  2  0
 11 10  1  0
 12 11  2  0
 13 12  1  0
 14  9  1  0
 14 13  2  0
M  END
>  <ID>  (1) 
conformer_0

$$$$
