
     RDKit          3D

  7  7  0  0  0  0  0  0  0  0999 V2000
   28.7993   59.1371   89.0762 N   0  0  0  0  0  0  0  0  0  0  0  0
   27.9993   58.9371   87.8763 C   0  0  0  0  0  0  0  0  0  0  0  0
   28.0993   57.5371   87.3763 C   0  0  0  0  0  0  0  0  0  0  0  0
   29.1993   56.8371   87.7763 O   0  0  0  0  0  0  0  0  0  0  0  0
   28.1993   59.9371   86.7763 C   0  0  0  0  0  0  0  0  0  0  0  0
   27.5993   57.5371   85.9762 C   0  0  0  0  0  0  0  0  0  0  0  0
   27.6993   59.1371   85.6763 N   0  0  0  0  0  0  0  0  0  0  0  0
  2  1  1  0
  3  2  1  0
  4  3  1  0
  5  2  1  0
  6  3  1  0
  7  5  1  0
  7  6  1  0
M  END
>  <ID>  (1) 
conformer_0

$$$$
