
     RDKit          3D

 18 20  0  0  0  0  0  0  0  0999 V2000
   28.1996   56.7838   89.9111 C   0  0  0  0  0  0  0  0  0  0  0  0
   28.4996   58.0838   89.3111 N   0  0  0  0  0  0  0  0  0  0  0  0
   27.8996   58.3838   88.1111 C   0  0  0  0  0  0  0  0  0  0  0  0
   26.7996   57.4837   87.8111 C   0  0  0  0  0  0  0  0  0  0  0  0
   26.7996   56.5838   90.1111 C   0  0  0  0  0  0  0  0  0  0  0  0
   25.9996   57.0837   89.0111 C   0  0  0  0  0  0  0  0  0  0  0  0
   24.7996   56.2837   88.6111 C   0  0  0  0  0  0  0  0  0  0  0  0
   24.4996   56.3837   87.3111 N   0  0  0  0  0  0  0  0  0  0  0  0
   23.9996   55.6838   89.5111 C   0  0  0  0  0  0  0  0  0  0  0  0
   22.7996   55.1838   89.3111 C   0  0  0  0  0  0  0  0  0  0  0  0
   22.1996   55.5838   88.0111 C   0  0  0  0  0  0  0  0  0  0  0  0
   20.7996   55.7838   88.0111 N   0  0  0  0  0  0  0  0  0  0  0  0
   26.2996   57.5837   86.5111 C   0  0  0  0  0  0  0  0  0  0  0  0
   28.4996   58.9837   86.9111 C   0  0  0  0  0  0  0  0  0  0  0  0
   26.4996   58.5837   85.6111 N   0  0  0  0  0  0  0  0  0  0  0  0
   22.8996   56.5838   87.4111 N   0  0  0  0  0  0  0  0  0  0  0  0
   27.4996   59.5837   85.8111 C   0  0  0  0  0  0  0  0  0  0  0  0
   29.0996   55.7838   90.4111 O   0  0  0  0  0  0  0  0  0  0  0  0
  2  1  1  0
  3  2  1  0
  4  3  1  0
  5  1  1  0
  6  4  1  0
  6  5  1  0
  7  6  1  0
  8  7  2  0
  9  7  1  0
 10  9  2  0
 11 10  1  0
 12 11  1  0
 13  4  1  0
 14  3  1  0
 15 13  2  0
 16  8  1  0
 16 11  2  0
 17 14  1  0
 17 15  1  0
 18  1  2  0
M  END
>  <ID>  (1) 
conformer_0

$$$$
