
     RDKit          3D

 14 15  0  0  0  0  0  0  0  0999 V2000
   28.1996   56.7838   89.9111 C   0  0  0  0  0  0  0  0  0  0  0  0
   28.4996   58.0838   89.3111 N   0  0  0  0  0  0  0  0  0  0  0  0
   27.8996   58.3838   88.1111 C   0  0  0  0  0  0  0  0  0  0  0  0
   26.7996   57.4837   87.8111 C   0  0  0  0  0  0  0  0  0  0  0  0
   26.7996   56.5838   90.2111 C   0  0  0  0  0  0  0  0  0  0  0  0
   25.9996   57.1838   89.0111 C   0  0  0  0  0  0  0  0  0  0  0  0
   28.6996   58.9837   87.0111 C   0  0  0  0  0  0  0  0  0  0  0  0
   24.7996   56.3838   88.7111 C   0  0  0  0  0  0  0  0  0  0  0  0
   26.0996   57.2837   86.6111 C   0  0  0  0  0  0  0  0  0  0  0  0
   24.2996   55.8838   87.5111 C   0  0  0  0  0  0  0  0  0  0  0  0
   28.9996   55.6838   90.3111 O   0  0  0  0  0  0  0  0  0  0  0  0
   24.8996   56.5837   86.3111 C   0  0  0  0  0  0  0  0  0  0  0  0
   26.4996   55.2838   90.6111 O   0  0  0  0  0  0  0  0  0  0  0  0
   22.9996   55.2838   87.5111 O   0  0  0  0  0  0  0  0  0  0  0  0
  2  1  1  0
  3  2  1  0
  4  3  1  0
  5  1  1  0
  6  4  2  0
  6  5  1  0
  7  3  1  0
  8  6  1  0
  9  4  1  0
 10  8  2  0
 11  1  2  0
 12  9  2  0
 12 10  1  0
 13  5  1  0
 14 10  1  0
M  END
>  <ID>  (1) 
conformer_0

$$$$
