
     RDKit          3D

 19 21  0  0  0  0  0  0  0  0999 V2000
   28.1953   57.0210   90.0775 C   0  0  0  0  0  0  0  0  0  0  0  0
   28.2953   58.3210   89.5775 N   0  0  0  0  0  0  0  0  0  0  0  0
   27.9953   58.4210   88.1775 C   0  0  0  0  0  0  0  0  0  0  0  0
   26.8953   57.5210   87.7775 C   0  0  0  0  0  0  0  0  0  0  0  0
   26.7953   56.5210   90.1775 C   0  0  0  0  0  0  0  0  0  0  0  0
   26.1953   57.0210   88.8775 C   0  0  0  0  0  0  0  0  0  0  0  0
   28.8953   59.1210   87.2775 C   0  0  0  0  0  0  0  0  0  0  0  0
   24.7953   56.6210   88.5775 C   0  0  0  0  0  0  0  0  0  0  0  0
   24.6953   56.3210   87.2775 N   0  0  0  0  0  0  0  0  0  0  0  0
   24.0953   55.8210   89.4775 C   0  0  0  0  0  0  0  0  0  0  0  0
   22.8953   55.2210   88.9775 C   0  0  0  0  0  0  0  0  0  0  0  0
   22.2953   56.0210   87.9775 C   0  0  0  0  0  0  0  0  0  0  0  0
   20.9953   56.2210   87.9775 N   0  0  0  0  0  0  0  0  0  0  0  0
   26.4953   57.6210   86.3775 C   0  0  0  0  0  0  0  0  0  0  0  0
   26.9953   58.7210   85.6775 N   0  0  0  0  0  0  0  0  0  0  0  0
   26.2953   59.4210   84.6775 C   0  0  0  0  0  0  0  0  0  0  0  0
   28.8953   56.0210   90.7775 O   0  0  0  0  0  0  0  0  0  0  0  0
   27.7953   57.6210   85.7775 C   0  0  0  0  0  0  0  0  0  0  0  0
   23.2953   56.2210   86.9774 C   0  0  0  0  0  0  0  0  0  0  0  0
  2  1  1  0
  3  2  1  0
  4  3  1  0
  5  1  1  0
  6  4  1  0
  6  5  1  0
  7  3  1  0
  8  6  1  0
  9  8  2  0
 10  8  1  0
 11 10  2  0
 12 11  1  0
 13 12  1  0
 14  4  1  0
 15 14  1  0
 16 15  1  0
 17  1  2  0
 18 14  1  0
 18 15  1  0
 19  9  1  0
 19 12  2  0
M  END
>  <ID>  (1) 
conformer_0

$$$$
