
     RDKit          3D

 19 21  0  0  0  0  0  0  0  0999 V2000
   28.1953   57.0210   90.0775 C   0  0  0  0  0  0  0  0  0  0  0  0
   28.2953   58.3210   89.5775 N   0  0  0  0  0  0  0  0  0  0  0  0
   27.9953   58.4210   88.1775 C   0  0  0  0  0  0  0  0  0  0  0  0
   26.8953   57.5210   87.7775 C   0  0  0  0  0  0  0  0  0  0  0  0
   26.7953   56.5210   90.1775 C   0  0  0  0  0  0  0  0  0  0  0  0
   26.0953   57.1210   88.9775 C   0  0  0  0  0  0  0  0  0  0  0  0
   28.7953   59.2210   87.2775 C   0  0  0  0  0  0  0  0  0  0  0  0
   24.7953   56.5210   88.5775 C   0  0  0  0  0  0  0  0  0  0  0  0
   24.7953   56.5210   87.2775 N   0  0  0  0  0  0  0  0  0  0  0  0
   24.0953   55.7210   89.4775 C   0  0  0  0  0  0  0  0  0  0  0  0
   23.3953   54.9210   90.1775 C   0  0  0  0  0  0  0  0  0  0  0  0
   22.1953   54.3210   90.1775 C   0  0  0  0  0  0  0  0  0  0  0  0
   21.2953   54.4210   89.0775 C   0  0  0  0  0  0  0  0  0  0  0  0
   21.4953   55.5210   88.2775 C   0  0  0  0  0  0  0  0  0  0  0  0
   20.3953   55.9210   87.4774 N   0  0  0  0  0  0  0  0  0  0  0  0
   22.5953   56.2210   87.8774 N   0  0  0  0  0  0  0  0  0  0  0  0
   23.4953   56.3210   86.7775 C   0  0  0  0  0  0  0  0  0  0  0  0
   28.1953   57.0210   87.5775 C   0  0  0  0  0  0  0  0  0  0  0  0
   28.9953   56.0210   90.6775 O   0  0  0  0  0  0  0  0  0  0  0  0
  2  1  1  0
  3  2  1  0
  4  3  1  0
  5  1  1  0
  6  4  1  0
  6  5  1  0
  7  3  1  0
  8  6  1  0
  9  8  1  0
 10  8  2  0
 11 10  2  0
 12 11  1  0
 13 12  1  0
 14 13  1  0
 15 14  1  0
 16 14  1  0
 17  9  2  0
 17 16  1  0
 18  3  1  0
 18  4  1  0
 19  1  2  0
M  END
>  <ID>  (1) 
conformer_0

$$$$
