
     RDKit          3D

 16 16  0  0  0  0  0  0  0  0999 V2000
   28.1990   58.3582   89.5232 N   0  0  0  0  0  0  0  0  0  0  0  0
   28.1990   58.7582   88.1232 C   0  0  0  0  0  0  0  0  0  0  0  0
   28.0990   56.9582   89.9232 C   0  0  0  0  0  0  0  0  0  0  0  0
   28.2990   57.4582   87.4232 C   0  0  0  0  0  0  0  0  0  0  0  0
   28.9990   56.4582   87.9232 O   0  0  0  0  0  0  0  0  0  0  0  0
   27.2990   56.7582   91.1232 C   0  0  0  0  0  0  0  0  0  0  0  0
   28.9990   59.8582   87.7232 C   0  0  0  0  0  0  0  0  0  0  0  0
   27.6990   56.8582   92.3232 O   0  0  0  0  0  0  0  0  0  0  0  0
   25.9990   56.0582   90.9232 C   0  0  0  0  0  0  0  0  0  0  0  0
   25.7990   55.9582   89.5232 O   0  0  0  0  0  0  0  0  0  0  0  0
   24.4990   55.9582   89.0232 C   0  0  0  0  0  0  0  0  0  0  0  0
   24.0990   56.2582   87.6232 C   0  0  0  0  0  0  0  0  0  0  0  0
   23.5990   55.2582   89.9232 C   0  0  0  0  0  0  0  0  0  0  0  0
   22.3990   54.8582   89.3232 C   0  0  0  0  0  0  0  0  0  0  0  0
   21.7990   55.5582   88.3232 C   0  0  0  0  0  0  0  0  0  0  0  0
   22.6990   56.3582   87.5232 C   0  0  0  0  0  0  0  0  0  0  0  0
  2  1  1  0
  3  1  1  0
  4  2  1  0
  5  4  1  0
  6  3  1  0
  7  2  1  0
  8  6  2  0
  9  6  1  0
 10  9  1  0
 11 10  1  0
 12 11  2  0
 13 11  1  0
 14 13  2  0
 15 14  1  0
 16 12  1  0
 16 15  2  0
M  END
>  <ID>  (1) 
conformer_0

$$$$
