
     RDKit          3D

 11 12  0  0  0  0  0  0  0  0999 V2000
   28.1314   58.3227   89.4457 N   0  0  0  0  0  0  0  0  0  0  0  0
   27.7314   56.9227   89.6457 C   0  0  0  0  0  0  0  0  0  0  0  0
   28.1314   58.6227   88.0457 C   0  0  0  0  0  0  0  0  0  0  0  0
   27.9314   57.5227   87.1457 C   0  0  0  0  0  0  0  0  0  0  0  0
   26.4314   56.7227   89.0457 C   0  0  0  0  0  0  0  0  0  0  0  0
   25.7314   55.8227   89.8457 O   0  0  0  0  0  0  0  0  0  0  0  0
   27.7314   56.4227   91.0457 C   0  0  0  0  0  0  0  0  0  0  0  0
   26.2314   55.8227   91.2457 C   0  0  0  0  0  0  0  0  0  0  0  0
   29.0314   56.7227   87.5457 O   0  0  0  0  0  0  0  0  0  0  0  0
   28.8314   59.8227   87.6457 C   0  0  0  0  0  0  0  0  0  0  0  0
   26.7314   57.1227   91.6457 O   0  0  0  0  0  0  0  0  0  0  0  0
  2  1  1  0
  3  1  1  0
  4  3  1  0
  5  2  1  0
  6  5  1  0
  7  2  1  0
  8  6  1  0
  8  7  1  0
  9  4  1  0
 10  3  1  0
 11  7  1  0
 11  8  1  0
M  END
>  <ID>  (1) 
conformer_0

$$$$
