
     RDKit          3D

 14 14  0  0  0  0  0  0  0  0999 V2000
   28.3125   58.5001   89.5403 N   0  0  0  0  0  0  0  0  0  0  0  0
   27.9125   57.1001   89.6403 C   0  0  0  0  0  0  0  0  0  0  0  0
   28.3125   59.0001   88.1403 C   0  0  0  0  0  0  0  0  0  0  0  0
   28.3125   57.8001   87.2403 C   0  0  0  0  0  0  0  0  0  0  0  0
   29.0125   56.7001   87.6403 O   0  0  0  0  0  0  0  0  0  0  0  0
   26.7125   56.9001   88.8403 C   0  0  0  0  0  0  0  0  0  0  0  0
   26.7125   57.4001   87.4403 C   0  0  0  0  0  0  0  0  0  0  0  0
   27.9125   56.5001   90.9403 C   0  0  0  0  0  0  0  0  0  0  0  0
   27.4125   56.8001   92.1403 O   0  0  0  0  0  0  0  0  0  0  0  0
   25.5125   56.6001   89.6403 C   0  0  0  0  0  0  0  0  0  0  0  0
   25.7125   55.4001   90.4403 O   0  0  0  0  0  0  0  0  0  0  0  0
   24.5125   55.0001   91.2403 C   0  0  0  0  0  0  0  0  0  0  0  0
   26.0125   57.3001   86.2403 C   0  0  0  0  0  0  0  0  0  0  0  0
   29.3125   60.1001   87.9403 C   0  0  0  0  0  0  0  0  0  0  0  0
  2  1  1  0
  3  1  1  0
  4  3  1  0
  5  4  1  0
  6  2  1  0
  7  4  1  0
  7  6  1  0
  8  2  1  0
  9  8  1  0
 10  6  1  0
 11 10  1  0
 12 11  1  0
 13  7  1  0
 14  3  1  0
M  END
>  <ID>  (1) 
conformer_0

$$$$
