
     RDKit          3D

 11 10  0  0  0  0  0  0  0  0999 V2000
   28.5812   58.4615   89.5864 N   0  0  0  0  0  0  0  0  0  0  0  0
   28.2812   58.8615   88.2864 C   0  0  0  0  0  0  0  0  0  0  0  0
   28.0812   57.8615   87.2864 C   0  0  0  0  0  0  0  0  0  0  0  0
   28.0812   57.0615   89.7864 C   0  0  0  0  0  0  0  0  0  0  0  0
   26.6812   57.0615   89.2864 C   0  0  0  0  0  0  0  0  0  0  0  0
   28.9812   56.7616   87.4864 O   0  0  0  0  0  0  0  0  0  0  0  0
   26.0812   55.8615   89.7864 O   0  0  0  0  0  0  0  0  0  0  0  0
   28.5812   55.8615   90.3864 C   0  0  0  0  0  0  0  0  0  0  0  0
   28.4812   60.2616   87.8864 C   0  0  0  0  0  0  0  0  0  0  0  0
   26.0812   55.7615   91.0864 C   0  0  0  0  0  0  0  0  0  0  0  0
   25.0812   55.0615   91.8864 C   0  0  0  0  0  0  0  0  0  0  0  0
  2  1  1  0
  3  2  1  0
  4  1  1  0
  5  4  1  0
  6  3  1  0
  7  5  1  0
  8  4  1  0
  9  2  1  0
 10  7  1  0
 11 10  1  0
M  END
>  <ID>  (1) 
conformer_0

$$$$
