
     RDKit          3D

  7  7  0  0  0  0  0  0  0  0999 V2000
   20.7247   55.4707   88.3578 C   0  0  0  0  0  0  0  0  0  0  0  0
   22.1247   55.7707   88.2578 C   0  0  0  0  0  0  0  0  0  0  0  0
   22.9247   55.3707   89.2578 C   0  0  0  0  0  0  0  0  0  0  0  0
   22.5247   54.3707   90.1578 C   0  0  0  0  0  0  0  0  0  0  0  0
   21.3247   53.8707   90.1578 C   0  0  0  0  0  0  0  0  0  0  0  0
   20.4247   54.1707   89.0578 C   0  0  0  0  0  0  0  0  0  0  0  0
   22.1247   57.0707   87.5578 N   0  0  0  0  0  0  0  0  0  0  0  0
  2  1  2  0
  3  2  1  0
  4  3  2  0
  5  4  1  0
  6  1  1  0
  6  5  2  0
  7  2  1  0
M  END
>  <ID>  (1) 
conformer_0

$$$$
