
     RDKit          3D

 20 23  0  0  0  0  0  0  0  0999 V2000
   28.1996   56.7838   89.9111 C   0  0  0  0  0  0  0  0  0  0  0  0
   28.4996   58.0838   89.3111 N   0  0  0  0  0  0  0  0  0  0  0  0
   27.8996   58.3838   88.1111 C   0  0  0  0  0  0  0  0  0  0  0  0
   26.7996   57.4837   87.8111 C   0  0  0  0  0  0  0  0  0  0  0  0
   26.7996   56.5838   90.1111 C   0  0  0  0  0  0  0  0  0  0  0  0
   25.9996   57.0837   89.0111 C   0  0  0  0  0  0  0  0  0  0  0  0
   24.7996   56.2837   88.6111 C   0  0  0  0  0  0  0  0  0  0  0  0
   24.4996   56.3837   87.3111 N   0  0  0  0  0  0  0  0  0  0  0  0
   23.9996   55.6838   89.5111 C   0  0  0  0  0  0  0  0  0  0  0  0
   22.7996   55.2837   89.1111 C   0  0  0  0  0  0  0  0  0  0  0  0
   22.1996   55.7837   87.9111 C   0  0  0  0  0  0  0  0  0  0  0  0
   20.8996   56.1838   87.9111 N   0  0  0  0  0  0  0  0  0  0  0  0
   26.1996   57.5837   86.5111 C   0  0  0  0  0  0  0  0  0  0  0  0
   26.7996   58.6837   85.7111 N   0  0  0  0  0  0  0  0  0  0  0  0
   28.2996   59.5838   87.4111 C   0  0  0  0  0  0  0  0  0  0  0  0
   27.5996   59.6837   86.0111 C   0  0  0  0  0  0  0  0  0  0  0  0
   28.9996   55.7838   90.5111 O   0  0  0  0  0  0  0  0  0  0  0  0
   27.7996   60.7837   85.2111 C   0  0  0  0  0  0  0  0  0  0  0  0
   25.0996   56.7837   86.1111 C   0  0  0  0  0  0  0  0  0  0  0  0
   22.9996   56.4837   87.1111 N   0  0  0  0  0  0  0  0  0  0  0  0
  2  1  1  0
  3  2  1  0
  4  3  2  0
  5  1  1  0
  6  4  1  0
  6  5  1  0
  7  6  1  0
  8  7  1  0
  9  7  1  0
 10  9  2  0
 11 10  1  0
 12 11  1  0
 13  4  1  0
 14 13  2  0
 15  3  1  0
 16 14  1  0
 16 15  2  0
 17  1  2  0
 18 16  1  0
 19  8  1  0
 19 13  1  0
 20  8  1  0
 20 11  2  0
M  END
>  <ID>  (1) 
conformer_0

$$$$
