
     RDKit          3D

 20 24  0  0  0  0  0  0  0  0999 V2000
   28.1953   57.0210   90.0775 C   0  0  0  0  0  0  0  0  0  0  0  0
   28.2953   58.3210   89.5775 N   0  0  0  0  0  0  0  0  0  0  0  0
   27.9953   58.4210   88.1775 C   0  0  0  0  0  0  0  0  0  0  0  0
   26.8953   57.5210   87.7775 C   0  0  0  0  0  0  0  0  0  0  0  0
   26.7953   56.5210   90.1775 C   0  0  0  0  0  0  0  0  0  0  0  0
   26.0953   57.2211   89.0775 C   0  0  0  0  0  0  0  0  0  0  0  0
   28.3953   59.5210   87.3775 C   0  0  0  0  0  0  0  0  0  0  0  0
   24.7953   56.5210   88.8775 C   0  0  0  0  0  0  0  0  0  0  0  0
   24.3953   55.6210   89.8775 C   0  0  0  0  0  0  0  0  0  0  0  0
   23.2953   55.0210   89.9775 C   0  0  0  0  0  0  0  0  0  0  0  0
   22.6953   54.3210   90.9775 C   0  0  0  0  0  0  0  0  0  0  0  0
   28.1953   57.1210   87.5775 C   0  0  0  0  0  0  0  0  0  0  0  0
   21.3953   53.8210   90.6775 C   0  0  0  0  0  0  0  0  0  0  0  0
   21.0953   54.1210   89.3775 C   0  0  0  0  0  0  0  0  0  0  0  0
   23.5953   56.5210   88.2775 N   0  0  0  0  0  0  0  0  0  0  0  0
   22.6953   55.6210   88.9775 N   0  0  0  0  0  0  0  0  0  0  0  0
   21.4953   55.2210   88.5775 C   0  0  0  0  0  0  0  0  0  0  0  0
   24.5953   56.2211   87.3775 C   0  0  0  0  0  0  0  0  0  0  0  0
   24.7953   57.0210   86.4775 O   0  0  0  0  0  0  0  0  0  0  0  0
   28.9953   56.0210   90.5775 O   0  0  0  0  0  0  0  0  0  0  0  0
  2  1  1  0
  3  2  1  0
  4  3  1  0
  5  1  1  0
  6  4  1  0
  6  5  1  0
  7  3  1  0
  8  6  1  0
  9  8  1  0
 10  9  2  0
 11 10  1  0
 12  3  1  0
 12  4  1  0
 13 11  2  0
 14 13  1  0
 15  8  1  0
 16 10  1  0
 16 15  1  0
 17 14  2  0
 17 16  1  0
 18  8  1  0
 18 15  1  0
 19 18  2  0
 20  1  2  0
M  END
>  <ID>  (1) 
conformer_0

$$$$
