
     RDKit          3D

 20 22  0  0  0  0  0  0  0  0999 V2000
   28.1314   58.3227   89.4457 N   0  0  0  0  0  0  0  0  0  0  0  0
   27.7314   56.9227   89.6457 C   0  0  0  0  0  0  0  0  0  0  0  0
   28.1314   58.6227   88.0457 C   0  0  0  0  0  0  0  0  0  0  0  0
   27.9314   57.5227   87.1457 C   0  0  0  0  0  0  0  0  0  0  0  0
   26.4314   56.7227   89.0457 C   0  0  0  0  0  0  0  0  0  0  0  0
   25.7314   55.8227   89.7457 O   0  0  0  0  0  0  0  0  0  0  0  0
   27.7314   56.4227   91.0457 C   0  0  0  0  0  0  0  0  0  0  0  0
   26.9314   56.9227   91.9457 O   0  0  0  0  0  0  0  0  0  0  0  0
   28.9314   56.6227   87.5457 O   0  0  0  0  0  0  0  0  0  0  0  0
   29.0314   59.7227   87.6457 C   0  0  0  0  0  0  0  0  0  0  0  0
   24.3314   55.6227   89.7457 C   0  0  0  0  0  0  0  0  0  0  0  0
   23.5314   54.9227   90.6457 C   0  0  0  0  0  0  0  0  0  0  0  0
   22.4314   54.2227   90.0457 C   0  0  0  0  0  0  0  0  0  0  0  0
   21.7314   54.8227   89.0457 C   0  0  0  0  0  0  0  0  0  0  0  0
   22.2314   55.9227   88.4457 C   0  0  0  0  0  0  0  0  0  0  0  0
   23.6314   56.3227   88.6457 C   0  0  0  0  0  0  0  0  0  0  0  0
   24.3314   56.9227   87.6457 N   0  0  0  0  0  0  0  0  0  0  0  0
   25.7314   56.9227   87.7457 C   0  0  0  0  0  0  0  0  0  0  0  0
   26.6314   57.2227   86.5457 C   0  0  0  0  0  0  0  0  0  0  0  0
   21.6314   56.5227   87.3457 N   0  0  0  0  0  0  0  0  0  0  0  0
  2  1  1  0
  3  1  1  0
  4  3  1  0
  5  2  1  0
  6  5  1  0
  7  2  1  0
  8  7  1  0
  9  4  1  0
 10  3  1  0
 11  6  1  0
 12 11  1  0
 13 12  2  0
 14 13  1  0
 15 14  2  0
 16 11  1  0
 16 15  1  0
 17 16  2  0
 18  5  2  0
 18 17  1  0
 19  4  1  0
 19 18  1  0
 20 15  1  0
M  END
>  <ID>  (1) 
conformer_0

$$$$
