
     RDKit          3D

 18 20  0  0  0  0  0  0  0  0999 V2000
   28.1953   57.0210   90.0775 C   0  0  0  0  0  0  0  0  0  0  0  0
   28.2953   58.3210   89.4775 N   0  0  0  0  0  0  0  0  0  0  0  0
   27.8953   58.4210   88.0775 C   0  0  0  0  0  0  0  0  0  0  0  0
   26.8953   57.3210   87.8775 C   0  0  0  0  0  0  0  0  0  0  0  0
   26.0953   57.1210   89.0775 C   0  0  0  0  0  0  0  0  0  0  0  0
   26.7953   56.5210   90.1775 C   0  0  0  0  0  0  0  0  0  0  0  0
   24.6953   56.6210   88.8775 C   0  0  0  0  0  0  0  0  0  0  0  0
   24.0953   55.6210   89.6775 C   0  0  0  0  0  0  0  0  0  0  0  0
   22.8953   54.9210   89.5775 C   0  0  0  0  0  0  0  0  0  0  0  0
   22.0953   55.5210   88.4775 C   0  0  0  0  0  0  0  0  0  0  0  0
   22.3953   56.7210   87.7775 C   0  0  0  0  0  0  0  0  0  0  0  0
   26.1953   57.3210   86.5775 C   0  0  0  0  0  0  0  0  0  0  0  0
   26.6953   58.3210   85.7775 N   0  0  0  0  0  0  0  0  0  0  0  0
   28.4953   59.3210   87.1775 C   0  0  0  0  0  0  0  0  0  0  0  0
   27.8953   58.9210   85.7775 C   0  0  0  0  0  0  0  0  0  0  0  0
   29.0953   56.0210   90.5775 O   0  0  0  0  0  0  0  0  0  0  0  0
   21.8953   57.0210   86.5775 N   0  0  0  0  0  0  0  0  0  0  0  0
   23.8953   56.7210   87.6775 C   0  0  0  0  0  0  0  0  0  0  0  0
  2  1  1  0
  3  2  1  0
  4  3  1  0
  5  4  1  0
  6  1  1  0
  6  5  1  0
  7  5  1  0
  8  7  2  0
  9  8  1  0
 10  9  2  0
 11 10  1  0
 12  4  1  0
 13 12  1  0
 14  3  1  0
 15 13  1  0
 15 14  1  0
 16  1  2  0
 17 11  1  0
 18  7  1  0
 18 11  2  0
M  END
>  <ID>  (1) 
conformer_0

$$$$
