
     RDKit          3D

 13 14  0  0  0  0  0  0  0  0999 V2000
   28.1314   58.3227   89.4457 N   0  0  0  0  0  0  0  0  0  0  0  0
   27.7314   56.9227   89.6457 C   0  0  0  0  0  0  0  0  0  0  0  0
   28.1314   58.6227   88.0457 C   0  0  0  0  0  0  0  0  0  0  0  0
   27.9314   57.5227   87.1457 C   0  0  0  0  0  0  0  0  0  0  0  0
   26.4314   56.7227   89.0457 C   0  0  0  0  0  0  0  0  0  0  0  0
   25.7314   55.8227   89.8457 O   0  0  0  0  0  0  0  0  0  0  0  0
   27.7314   56.4227   91.0457 C   0  0  0  0  0  0  0  0  0  0  0  0
   26.2314   55.7227   91.2457 C   0  0  0  0  0  0  0  0  0  0  0  0
   29.0314   56.6227   87.5457 O   0  0  0  0  0  0  0  0  0  0  0  0
   28.5314   59.9227   87.5457 C   0  0  0  0  0  0  0  0  0  0  0  0
   25.8314   55.2227   92.4457 C   0  0  0  0  0  0  0  0  0  0  0  0
   28.4314   55.7227   89.9457 O   0  0  0  0  0  0  0  0  0  0  0  0
   25.4314   54.2227   93.1457 O   0  0  0  0  0  0  0  0  0  0  0  0
  2  1  1  0
  3  1  1  0
  4  3  1  0
  5  2  1  0
  6  5  1  0
  7  2  1  0
  8  6  1  0
  8  7  1  0
  9  4  1  0
 10  3  1  0
 11  8  1  0
 12  2  1  0
 12  7  1  0
 13 11  2  0
M  END
>  <ID>  (1) 
conformer_0

$$$$
