
     RDKit          3D

 20 23  0  0  0  0  0  0  0  0999 V2000
   28.1953   57.0210   90.0775 C   0  0  0  0  0  0  0  0  0  0  0  0
   28.2953   58.3210   89.5775 N   0  0  0  0  0  0  0  0  0  0  0  0
   27.9953   58.4210   88.1775 C   0  0  0  0  0  0  0  0  0  0  0  0
   26.8953   57.5210   87.7775 C   0  0  0  0  0  0  0  0  0  0  0  0
   26.7953   56.5210   90.1775 C   0  0  0  0  0  0  0  0  0  0  0  0
   26.0953   57.1210   88.9775 C   0  0  0  0  0  0  0  0  0  0  0  0
   28.7953   59.2210   87.2775 C   0  0  0  0  0  0  0  0  0  0  0  0
   24.7953   56.5210   88.5775 C   0  0  0  0  0  0  0  0  0  0  0  0
   24.7953   56.5210   87.2775 N   0  0  0  0  0  0  0  0  0  0  0  0
   24.0953   55.7210   89.4775 C   0  0  0  0  0  0  0  0  0  0  0  0
   23.3953   54.9210   90.1775 C   0  0  0  0  0  0  0  0  0  0  0  0
   22.1953   54.3210   90.1775 C   0  0  0  0  0  0  0  0  0  0  0  0
   21.3953   54.8210   89.0775 C   0  0  0  0  0  0  0  0  0  0  0  0
   22.0953   55.7211   88.1775 C   0  0  0  0  0  0  0  0  0  0  0  0
   21.2953   56.6211   87.5775 N   0  0  0  0  0  0  0  0  0  0  0  0
   22.4953   56.9211   87.9775 C   0  0  0  0  0  0  0  0  0  0  0  0
   28.1953   56.9210   87.5775 C   0  0  0  0  0  0  0  0  0  0  0  0
   28.9953   56.0210   90.6775 O   0  0  0  0  0  0  0  0  0  0  0  0
   25.8953   57.2210   86.5775 C   0  0  0  0  0  0  0  0  0  0  0  0
   26.2953   57.8210   85.3775 C   0  0  0  0  0  0  0  0  0  0  0  0
  2  1  1  0
  3  2  1  0
  4  3  1  0
  5  1  1  0
  6  4  1  0
  6  5  1  0
  7  3  1  0
  8  6  1  0
  9  8  1  0
 10  8  2  0
 11 10  2  0
 12 11  1  0
 13 12  2  3
 14 13  1  0
 15 14  1  0
 16 14  1  0
 16 15  1  0
 17  3  1  0
 17  4  1  0
 18  1  2  0
 19  4  1  0
 19  9  1  0
 20 19  1  0
M  END
>  <ID>  (1) 
conformer_0

$$$$
