
     RDKit          3D

 10 11  0  0  0  0  0  0  0  0999 V2000
   28.1851   56.7376   89.8204 C   0  0  0  0  0  0  0  0  0  0  0  0
   28.2851   58.1376   89.5204 N   0  0  0  0  0  0  0  0  0  0  0  0
   28.1851   58.5376   88.1204 C   0  0  0  0  0  0  0  0  0  0  0  0
   27.9851   57.2376   87.4204 C   0  0  0  0  0  0  0  0  0  0  0  0
   26.7851   56.5376   89.4204 C   0  0  0  0  0  0  0  0  0  0  0  0
   29.0851   56.3376   87.6204 O   0  0  0  0  0  0  0  0  0  0  0  0
   26.5851   56.9376   88.0204 C   0  0  0  0  0  0  0  0  0  0  0  0
   26.0851   57.7376   89.0204 O   0  0  0  0  0  0  0  0  0  0  0  0
   29.0851   59.5376   87.6204 C   0  0  0  0  0  0  0  0  0  0  0  0
   28.9851   55.6376   90.1204 O   0  0  0  0  0  0  0  0  0  0  0  0
  2  1  1  0
  3  2  1  0
  4  3  1  0
  5  1  1  0
  6  4  1  0
  7  4  1  0
  7  5  1  0
  8  5  1  0
  8  7  1  0
  9  3  1  0
 10  1  2  0
M  END
>  <ID>  (1) 
conformer_0

$$$$
