
     RDKit          3D

 17 19  0  0  0  0  0  0  0  0999 V2000
   28.1996   56.7838   89.9111 C   0  0  0  0  0  0  0  0  0  0  0  0
   28.4996   58.0838   89.3111 N   0  0  0  0  0  0  0  0  0  0  0  0
   27.8996   58.3838   88.1111 C   0  0  0  0  0  0  0  0  0  0  0  0
   26.7996   57.4837   87.8111 C   0  0  0  0  0  0  0  0  0  0  0  0
   25.9996   57.0837   88.9111 C   0  0  0  0  0  0  0  0  0  0  0  0
   26.7996   56.5838   90.2111 C   0  0  0  0  0  0  0  0  0  0  0  0
   28.2996   59.4837   87.3111 C   0  0  0  0  0  0  0  0  0  0  0  0
   24.7996   56.2837   88.8111 C   0  0  0  0  0  0  0  0  0  0  0  0
   26.2996   57.3838   86.4111 C   0  0  0  0  0  0  0  0  0  0  0  0
   26.5996   58.5838   85.6111 N   0  0  0  0  0  0  0  0  0  0  0  0
   27.5996   59.5837   86.0111 C   0  0  0  0  0  0  0  0  0  0  0  0
   26.2996   55.2838   90.6111 O   0  0  0  0  0  0  0  0  0  0  0  0
   28.8996   55.4838   90.1111 O   0  0  0  0  0  0  0  0  0  0  0  0
   23.3996   56.2837   88.5111 C   0  0  0  0  0  0  0  0  0  0  0  0
   22.8996   55.0837   89.2111 C   0  0  0  0  0  0  0  0  0  0  0  0
   23.3996   54.9837   90.5111 C   0  0  0  0  0  0  0  0  0  0  0  0
   23.9996   54.0837   89.5111 O   0  0  0  0  0  0  0  0  0  0  0  0
  2  1  1  0
  3  2  2  0
  4  3  1  0
  5  4  1  0
  6  1  1  0
  6  5  1  0
  7  3  1  0
  8  5  1  0
  9  4  1  0
 10  9  1  0
 11  7  1  0
 11 10  2  0
 12  6  1  0
 13  1  2  0
 14  8  1  0
 15 14  1  0
 16 15  1  0
 17 15  1  0
 17 16  1  0
M  END
>  <ID>  (1) 
conformer_0

$$$$
