
     RDKit          3D

 13 12  0  0  0  0  0  0  0  0999 V2000
   28.1851   56.7376   89.8204 C   0  0  0  0  0  0  0  0  0  0  0  0
   28.2851   58.1376   89.5204 N   0  0  0  0  0  0  0  0  0  0  0  0
   28.0851   58.7376   88.2204 C   0  0  0  0  0  0  0  0  0  0  0  0
   28.2851   57.6376   87.2204 C   0  0  0  0  0  0  0  0  0  0  0  0
   29.1851   56.6376   87.6204 O   0  0  0  0  0  0  0  0  0  0  0  0
   27.1851   56.2376   90.8204 C   0  0  0  0  0  0  0  0  0  0  0  0
   27.5851   56.8376   92.0204 O   0  0  0  0  0  0  0  0  0  0  0  0
   28.8851   59.9376   87.9204 C   0  0  0  0  0  0  0  0  0  0  0  0
   27.1851   57.7376   86.2204 C   0  0  0  0  0  0  0  0  0  0  0  0
   26.9851   58.9376   85.6204 N   0  0  0  0  0  0  0  0  0  0  0  0
   25.7851   56.1376   90.6204 C   0  0  0  0  0  0  0  0  0  0  0  0
   24.9851   55.3376   91.5204 C   0  0  0  0  0  0  0  0  0  0  0  0
   25.9851   57.1376   86.8204 C   0  0  0  0  0  0  0  0  0  0  0  0
  2  1  1  0
  3  2  1  0
  4  3  1  0
  5  4  1  0
  6  1  1  0
  7  6  1  0
  8  3  1  0
  9  4  1  0
 10  9  1  0
 11  6  1  0
 12 11  1  0
 13  9  1  0
M  END
>  <ID>  (1) 
conformer_0

$$$$
