
     RDKit          3D

 40 49  0  0  0  0  0  0  0  0999 V2000
    7.6643   10.8695   13.4813 N   0  0  0  0  0  0  0  0  0  0  0  0
    8.5209   11.2829   12.7515 C   0  0  0  0  0  0  0  0  0  0  0  0
    9.2682   12.3298   13.1486 C   0  0  0  0  0  0  0  0  0  0  0  0
    8.7576   10.6989   11.4689 N   0  0  0  0  0  0  0  0  0  0  0  0
    9.0799   12.9892   14.3596 C   0  0  0  0  0  0  0  0  0  0  0  0
    9.8955   10.9947   10.8274 C   0  0  0  0  0  0  0  0  0  0  0  0
   10.1391   10.2378    9.6358 C   0  0  0  0  0  0  0  0  0  0  0  0
   10.2195   13.0027   12.1787 C   0  0  0  0  0  0  0  0  0  0  0  0
   10.5494   12.2178   11.0473 C   0  0  0  0  0  0  0  0  0  0  0  0
    9.8991   14.0941   14.7415 N   0  0  0  0  0  0  0  0  0  0  0  0
   11.0865   14.0394   12.5655 C   0  0  0  0  0  0  0  0  0  0  0  0
    9.4026    9.2138    9.2452 C   0  0  0  0  0  0  0  0  0  0  0  0
   12.0305   14.6685   11.8008 C   0  0  0  0  0  0  0  0  0  0  0  0
    9.7275   14.6874   16.0481 C   0  0  0  0  0  0  0  0  0  0  0  0
   12.8266   15.6708   12.3197 C   0  0  0  0  0  0  0  0  0  0  0  0
   10.9008   14.6155   13.8993 C   0  0  0  0  0  0  0  0  0  0  0  0
    8.1087   12.5020   15.2198 C   0  0  0  0  0  0  0  0  0  0  0  0
    7.8436   13.1360   16.5361 C   0  0  0  0  0  0  0  0  0  0  0  0
   11.2202   10.6471    8.7585 C   0  0  0  0  0  0  0  0  0  0  0  0
   10.2868   15.8641   16.3363 C   0  0  0  0  0  0  0  0  0  0  0  0
   13.8079   16.3405   11.3825 C   0  0  0  0  0  0  0  0  0  0  0  0
    7.3787   11.4604   14.7941 C   0  0  0  0  0  0  0  0  0  0  0  0
   14.6534   15.6594   10.8763 O   0  0  0  0  0  0  0  0  0  0  0  0
   11.4942   16.3108   15.7216 C   0  0  0  0  0  0  0  0  0  0  0  0
   14.0232   17.5842   11.5308 N   0  0  0  0  0  0  0  0  0  0  0  0
    9.5018   17.0207   16.3547 C   0  0  0  0  0  0  0  0  0  0  0  0
    9.8023    8.5439    8.0569 C   0  0  0  0  0  0  0  0  0  0  0  0
   14.9443   18.3408   10.7698 C   0  0  0  0  0  0  0  0  0  0  0  0
   10.8952    8.8794    7.3127 C   0  0  0  0  0  0  0  0  0  0  0  0
   12.5801   16.2021   13.5240 C   0  0  0  0  0  0  0  0  0  0  0  0
   11.7003   15.6882   14.3174 C   0  0  0  0  0  0  0  0  0  0  0  0
   13.3090   17.3249   13.9601 C   0  0  0  0  0  0  0  0  0  0  0  0
    8.4040   14.4223   16.6037 C   0  0  0  0  0  0  0  0  0  0  0  0
   14.0401   18.0974   12.9330 C   0  0  0  0  0  0  0  0  0  0  0  0
   14.4544   19.3440   13.2390 C   0  0  0  0  0  0  0  0  0  0  0  0
   14.6376   19.8645   14.4028 C   0  0  0  0  0  0  0  0  0  0  0  0
   13.4587   17.7508   15.2483 C   0  0  0  0  0  0  0  0  0  0  0  0
   14.1354   19.0533   15.5091 C   0  0  0  0  0  0  0  0  0  0  0  0
   12.4306   17.0449   15.9602 C   0  0  0  0  0  0  0  0  0  0  0  0
   11.6778    9.9587    7.7194 C   0  0  0  0  0  0  0  0  0  0  0  0
  1  2  2  0
  2  3  1  0
  2  4  1  0
  3  5  2  0
  4  6  1  0
  6  7  1  0
  3  8  1  0
  6  9  2  0
  8  9  1  0
  5 10  1  0
  8 11  2  0
  7 12  1  0
 11 13  1  0
 10 14  1  0
 13 15  2  0
 10 16  1  0
 11 16  1  0
  5 17  1  0
 17 18  1  0
  7 19  2  0
 14 20  1  0
 15 21  1  0
  1 22  1  0
 17 22  2  0
 21 23  2  0
 20 24  1  0
 21 25  1  0
 20 26  1  0
 12 27  2  0
 25 28  1  0
 27 29  1  0
 15 30  1  0
 16 31  2  0
 24 31  1  0
 30 31  1  0
 30 32  2  0
 14 33  1  0
 18 33  1  0
 25 34  1  0
 32 34  1  0
 34 35  2  0
 35 36  1  0
 32 37  1  0
 36 38  2  0
 37 38  1  0
 24 39  1  0
 37 39  1  0
 19 40  1  0
 29 40  2  0
M  END
>  <ID>  (1) 
conformer_0

$$$$
