
     RDKit          3D

 39 45  0  0  0  0  0  0  0  0999 V2000
    8.2984   14.6561   16.8977 C   0  0  0  0  0  0  0  0  0  0  0  0
    9.2832   15.3942   16.7174 N   0  0  0  0  0  0  0  0  0  0  0  0
    9.5263   16.4826   17.5326 C   0  0  0  0  0  0  0  0  0  0  0  0
   10.0166   15.2884   15.4898 C   0  0  0  0  0  0  0  0  0  0  0  0
    7.8744   13.6601   15.9915 C   0  0  0  0  0  0  0  0  0  0  0  0
    8.9570   16.5148   18.5472 O   0  0  0  0  0  0  0  0  0  0  0  0
   10.6460   17.3352   17.0802 N   0  0  0  0  0  0  0  0  0  0  0  0
   11.0474   16.1054   15.0963 C   0  0  0  0  0  0  0  0  0  0  0  0
   11.8037   15.8759   13.8495 C   0  0  0  0  0  0  0  0  0  0  0  0
    8.7253   13.1737   14.9848 C   0  0  0  0  0  0  0  0  0  0  0  0
    8.3018   12.0304   14.1707 C   0  0  0  0  0  0  0  0  0  0  0  0
   11.4367   14.7896   13.1292 N   0  0  0  0  0  0  0  0  0  0  0  0
   11.3690   17.3542   15.9810 C   0  0  0  0  0  0  0  0  0  0  0  0
    8.7502   11.5693   12.9447 C   0  0  0  0  0  0  0  0  0  0  0  0
    9.7639   12.1296   12.1826 N   0  0  0  0  0  0  0  0  0  0  0  0
    7.2282   11.3058   14.8271 C   0  0  0  0  0  0  0  0  0  0  0  0
   10.1909   11.6402   11.0094 C   0  0  0  0  0  0  0  0  0  0  0  0
   12.9746   16.7154   13.4714 C   0  0  0  0  0  0  0  0  0  0  0  0
    9.9030   14.0565   14.6940 C   0  0  0  0  0  0  0  0  0  0  0  0
    6.3941   11.7305   15.8530 C   0  0  0  0  0  0  0  0  0  0  0  0
   12.1404   18.2860   15.6761 O   0  0  0  0  0  0  0  0  0  0  0  0
   13.4150   18.0760   15.1518 C   0  0  0  0  0  0  0  0  0  0  0  0
   14.1364   19.3949   15.5826 C   0  0  0  0  0  0  0  0  0  0  0  0
   10.5734   13.9492   13.6021 C   0  0  0  0  0  0  0  0  0  0  0  0
    8.3320   10.5312   12.1327 C   0  0  0  0  0  0  0  0  0  0  0  0
    9.1927   10.4881   10.8838 C   0  0  0  0  0  0  0  0  0  0  0  0
   13.3571   17.8733   13.7527 C   0  0  0  0  0  0  0  0  0  0  0  0
   14.5235   18.4113   13.2205 O   0  0  0  0  0  0  0  0  0  0  0  0
   13.1281   16.3710   12.0005 O   0  0  0  0  0  0  0  0  0  0  0  0
    9.2631    9.5812   10.0318 C   0  0  0  0  0  0  0  0  0  0  0  0
   14.5144   19.9262   13.1292 C   0  0  0  0  0  0  0  0  0  0  0  0
    8.6267    8.4530   10.1333 O   0  0  0  0  0  0  0  0  0  0  0  0
   15.2597   20.4587   12.1352 C   0  0  0  0  0  0  0  0  0  0  0  0
    6.8296   12.8007   16.5036 C   0  0  0  0  0  0  0  0  0  0  0  0
   10.1868    9.5667    9.0252 O   0  0  0  0  0  0  0  0  0  0  0  0
   14.9465   20.2759   14.4904 C   0  0  0  0  0  0  0  0  0  0  0  0
   14.6629   21.6736   14.7441 O   0  0  0  0  0  0  0  0  0  0  0  0
   14.2235   19.7195   16.8261 O   0  0  0  0  0  0  0  0  0  0  0  0
   14.7661   21.3336   11.3781 O   0  0  0  0  0  0  0  0  0  0  0  0
  1  2  1  0
  2  3  1  0
  2  4  1  0
  1  5  1  0
  3  6  2  0
  3  7  1  0
  4  8  2  0
  8  9  1  0
  5 10  1  0
 10 11  1  0
  9 12  2  0
  7 13  1  0
  8 13  1  0
 11 14  1  0
 14 15  1  0
 11 16  2  0
 15 17  2  0
  9 18  1  0
  4 19  1  0
 10 19  2  0
 16 20  1  0
 13 21  1  0
 21 22  1  0
 22 23  1  0
 12 24  1  0
 19 24  1  0
 14 25  2  0
 17 26  1  0
 25 26  1  0
 18 27  1  0
 22 27  1  0
 27 28  1  0
 18 29  1  0
 26 30  1  0
 28 31  1  0
 30 32  2  0
 31 33  1  0
  5 34  1  0
 20 34  1  0
 30 35  1  0
 23 36  1  0
 31 36  1  0
 36 37  1  0
 23 38  2  0
 33 39  1  0
M  END
>  <ID>  (1) 
conformer_0

$$$$
