
     RDKit          3D

 28 32  0  0  0  0  0  0  0  0999 V2000
    7.6643   10.8695   13.4813 N   0  0  0  0  0  0  0  0  0  0  0  0
    8.5209   11.2829   12.7515 C   0  0  0  0  0  0  0  0  0  0  0  0
    9.2376   12.2583   13.0277 C   0  0  0  0  0  0  0  0  0  0  0  0
    8.7356   10.5142   11.5391 N   0  0  0  0  0  0  0  0  0  0  0  0
    8.9602   12.8142   14.3579 C   0  0  0  0  0  0  0  0  0  0  0  0
    9.7905   11.1565   10.8170 C   0  0  0  0  0  0  0  0  0  0  0  0
    9.7350   14.0169   14.7501 N   0  0  0  0  0  0  0  0  0  0  0  0
    8.0473   12.3741   15.0805 N   0  0  0  0  0  0  0  0  0  0  0  0
   10.5623   14.6595   13.8541 C   0  0  0  0  0  0  0  0  0  0  0  0
   10.0930   10.5926    9.5509 C   0  0  0  0  0  0  0  0  0  0  0  0
   11.0366   15.8676   14.3021 C   0  0  0  0  0  0  0  0  0  0  0  0
   11.4133   13.9563   12.9964 C   0  0  0  0  0  0  0  0  0  0  0  0
   10.5364   12.2359   11.0564 C   0  0  0  0  0  0  0  0  0  0  0  0
   10.3943   12.8549   12.2392 C   0  0  0  0  0  0  0  0  0  0  0  0
   12.0020   16.6064   13.6959 C   0  0  0  0  0  0  0  0  0  0  0  0
    9.4369    9.3913    8.9899 C   0  0  0  0  0  0  0  0  0  0  0  0
   11.5063   12.7798   10.2008 C   0  0  0  0  0  0  0  0  0  0  0  0
   11.6652   12.2281    8.9453 C   0  0  0  0  0  0  0  0  0  0  0  0
   10.8809   11.0627    8.6787 C   0  0  0  0  0  0  0  0  0  0  0  0
   10.6593   16.3877   15.5384 N   0  0  0  0  0  0  0  0  0  0  0  0
   11.2620   17.6980   15.5839 C   0  0  0  0  0  0  0  0  0  0  0  0
    8.6211    8.6581    9.6001 O   0  0  0  0  0  0  0  0  0  0  0  0
   12.1355   17.8467   14.4826 N   0  0  0  0  0  0  0  0  0  0  0  0
    9.9456    8.6932    7.9841 N   0  0  0  0  0  0  0  0  0  0  0  0
    7.3383   11.3794   14.6568 C   0  0  0  0  0  0  0  0  0  0  0  0
   11.0630   18.5809   16.5730 N   0  0  0  0  0  0  0  0  0  0  0  0
    6.3306   10.9668   15.5028 N   0  0  0  0  0  0  0  0  0  0  0  0
   12.9846   16.2551   12.7377 C   0  0  0  0  0  0  0  0  0  0  0  0
  1  2  1  0
  2  3  2  0
  2  4  1  0
  3  5  1  0
  4  6  1  0
  5  7  1  0
  5  8  2  0
  7  9  1  0
  6 10  1  0
  9 11  1  0
  9 12  2  0
  6 13  2  0
  3 14  1  0
 12 14  1  0
 13 14  1  0
 11 15  2  0
 10 16  1  0
 13 17  1  0
 17 18  2  0
 10 19  2  0
 18 19  1  0
 11 20  1  0
 20 21  1  0
 16 22  2  0
 15 23  1  0
 21 23  2  0
 16 24  1  0
  1 25  2  0
  8 25  1  0
 21 26  1  0
 25 27  1  0
 15 28  1  0
M  END
>  <ID>  (1) 
conformer_0

$$$$
