
     RDKit          3D

 41 49  0  0  0  0  0  0  0  0999 V2000
    8.2984   14.6561   16.8977 C   0  0  0  0  0  0  0  0  0  0  0  0
    9.2832   15.3942   16.7174 N   0  0  0  0  0  0  0  0  0  0  0  0
    9.5263   16.4826   17.5326 C   0  0  0  0  0  0  0  0  0  0  0  0
   10.0166   15.2884   15.4898 C   0  0  0  0  0  0  0  0  0  0  0  0
    7.8744   13.6601   15.9915 C   0  0  0  0  0  0  0  0  0  0  0  0
    8.9570   16.5148   18.5472 O   0  0  0  0  0  0  0  0  0  0  0  0
   10.6460   17.3352   17.0802 N   0  0  0  0  0  0  0  0  0  0  0  0
   11.0474   16.1054   15.0963 C   0  0  0  0  0  0  0  0  0  0  0  0
   11.8037   15.8759   13.8495 C   0  0  0  0  0  0  0  0  0  0  0  0
    8.7253   13.1737   14.9848 C   0  0  0  0  0  0  0  0  0  0  0  0
    8.3018   12.0304   14.1707 C   0  0  0  0  0  0  0  0  0  0  0  0
   11.4367   14.7896   13.1292 C   0  0  0  0  0  0  0  0  0  0  0  0
    8.7751   11.5837   12.9562 C   0  0  0  0  0  0  0  0  0  0  0  0
   12.2146   14.4786   11.9053 C   0  0  0  0  0  0  0  0  0  0  0  0
    8.2107   10.4712   12.3907 N   0  0  0  0  0  0  0  0  0  0  0  0
   12.8643   15.4376   11.3750 N   0  0  0  0  0  0  0  0  0  0  0  0
   11.3571   17.2521   16.0192 C   0  0  0  0  0  0  0  0  0  0  0  0
   11.4412   13.6221   11.2001 C   0  0  0  0  0  0  0  0  0  0  0  0
    7.4006    9.8400   13.0581 C   0  0  0  0  0  0  0  0  0  0  0  0
    9.7494   14.1035   14.7032 C   0  0  0  0  0  0  0  0  0  0  0  0
    6.9236   12.7895   16.2499 C   0  0  0  0  0  0  0  0  0  0  0  0
   12.4034   18.1456   15.7571 C   0  0  0  0  0  0  0  0  0  0  0  0
   10.3610   12.9191   11.8732 C   0  0  0  0  0  0  0  0  0  0  0  0
   12.2702   19.0651   14.6396 C   0  0  0  0  0  0  0  0  0  0  0  0
    7.3029   11.1951   14.6322 C   0  0  0  0  0  0  0  0  0  0  0  0
   10.4712   13.9266   13.5205 C   0  0  0  0  0  0  0  0  0  0  0  0
   13.3482   19.9724   14.4404 C   0  0  0  0  0  0  0  0  0  0  0  0
    6.5840   11.6364   15.6739 N   0  0  0  0  0  0  0  0  0  0  0  0
    9.5970   11.9884   11.8774 C   0  0  0  0  0  0  0  0  0  0  0  0
   11.5682   12.8415   10.0514 C   0  0  0  0  0  0  0  0  0  0  0  0
   13.4618   18.1483   16.6812 C   0  0  0  0  0  0  0  0  0  0  0  0
   14.4523   19.9205   15.3075 C   0  0  0  0  0  0  0  0  0  0  0  0
   12.3941   13.3316    9.1092 O   0  0  0  0  0  0  0  0  0  0  0  0
   13.2723   20.9218   13.1758 C   0  0  0  0  0  0  0  0  0  0  0  0
    6.9035   10.1964   14.1919 N   0  0  0  0  0  0  0  0  0  0  0  0
    9.7301   11.4004   10.6844 C   0  0  0  0  0  0  0  0  0  0  0  0
   12.4753   20.4365   12.3103 O   0  0  0  0  0  0  0  0  0  0  0  0
   14.4927   19.0520   16.3603 C   0  0  0  0  0  0  0  0  0  0  0  0
    8.9480   10.3041   10.3726 O   0  0  0  0  0  0  0  0  0  0  0  0
   13.9763   21.8510   13.1353 O   0  0  0  0  0  0  0  0  0  0  0  0
   10.6770   11.8333    9.7126 C   0  0  0  0  0  0  0  0  0  0  0  0
  1  2  1  0
  2  3  1  0
  2  4  1  0
  1  5  1  0
  3  6  2  0
  3  7  1  0
  4  8  2  0
  8  9  1  0
  5 10  1  0
 10 11  1  0
  9 12  2  0
 11 13  1  0
 12 14  1  0
 13 15  2  0
 14 16  1  0
  7 17  2  0
  8 17  1  0
 14 18  1  0
 15 19  1  0
  4 20  1  0
 10 20  2  0
  5 21  2  0
 17 22  1  0
 18 23  2  0
 22 24  2  0
 11 25  2  0
 12 26  1  0
 20 26  1  0
 23 26  1  0
 24 27  1  0
 21 28  1  0
 25 28  1  0
 13 29  1  0
 23 29  1  0
 18 30  1  0
 22 31  1  0
 27 32  2  0
 30 33  1  0
 27 34  1  0
 19 35  2  0
 25 35  1  0
 29 36  2  0
 34 37  1  0
 31 38  2  0
 32 38  1  0
 36 39  1  0
 34 40  2  0
 30 41  2  0
 36 41  1  0
M  END
>  <ID>  (1) 
conformer_0

$$$$
