
     RDKit          3D

 37 44  0  0  0  0  0  0  0  0999 V2000
    7.6643   10.8695   13.4813 N   0  0  0  0  0  0  0  0  0  0  0  0
    8.5209   11.2829   12.7515 C   0  0  0  0  0  0  0  0  0  0  0  0
    9.2682   12.3298   13.1486 C   0  0  0  0  0  0  0  0  0  0  0  0
    8.7576   10.6989   11.4689 N   0  0  0  0  0  0  0  0  0  0  0  0
    9.0799   12.9892   14.3596 C   0  0  0  0  0  0  0  0  0  0  0  0
    9.8955   10.9947   10.8274 C   0  0  0  0  0  0  0  0  0  0  0  0
   10.1391   10.2378    9.6358 C   0  0  0  0  0  0  0  0  0  0  0  0
   10.2195   13.0027   12.1787 C   0  0  0  0  0  0  0  0  0  0  0  0
   10.5494   12.2178   11.0473 C   0  0  0  0  0  0  0  0  0  0  0  0
    9.8991   14.0941   14.7415 N   0  0  0  0  0  0  0  0  0  0  0  0
   11.0865   14.0394   12.5655 C   0  0  0  0  0  0  0  0  0  0  0  0
    9.4026    9.2138    9.2452 C   0  0  0  0  0  0  0  0  0  0  0  0
   12.0305   14.6685   11.8008 C   0  0  0  0  0  0  0  0  0  0  0  0
    9.7275   14.6874   16.0481 C   0  0  0  0  0  0  0  0  0  0  0  0
   12.8266   15.6708   12.3197 C   0  0  0  0  0  0  0  0  0  0  0  0
   10.9008   14.6155   13.8993 C   0  0  0  0  0  0  0  0  0  0  0  0
    8.1087   12.5020   15.2198 C   0  0  0  0  0  0  0  0  0  0  0  0
    7.8436   13.1360   16.5361 C   0  0  0  0  0  0  0  0  0  0  0  0
   11.2202   10.6471    8.7585 C   0  0  0  0  0  0  0  0  0  0  0  0
   10.2868   15.8641   16.3363 C   0  0  0  0  0  0  0  0  0  0  0  0
   13.8079   16.3405   11.3825 C   0  0  0  0  0  0  0  0  0  0  0  0
    7.3787   11.4604   14.7941 C   0  0  0  0  0  0  0  0  0  0  0  0
   14.6534   15.6594   10.8763 O   0  0  0  0  0  0  0  0  0  0  0  0
   11.4942   16.3108   15.7216 C   0  0  0  0  0  0  0  0  0  0  0  0
   14.0232   17.5842   11.5308 N   0  0  0  0  0  0  0  0  0  0  0  0
    9.5018   17.0207   16.3547 C   0  0  0  0  0  0  0  0  0  0  0  0
    9.8023    8.5439    8.0569 C   0  0  0  0  0  0  0  0  0  0  0  0
   14.9443   18.3408   10.7698 C   0  0  0  0  0  0  0  0  0  0  0  0
   10.8952    8.8794    7.3127 C   0  0  0  0  0  0  0  0  0  0  0  0
   12.5801   16.2021   13.5240 C   0  0  0  0  0  0  0  0  0  0  0  0
   11.7003   15.6882   14.3174 C   0  0  0  0  0  0  0  0  0  0  0  0
   10.0307   18.1625   16.4119 O   0  0  0  0  0  0  0  0  0  0  0  0
   11.6324    9.9316    7.6216 C   0  0  0  0  0  0  0  0  0  0  0  0
   13.0201   18.4640   12.3317 C   0  0  0  0  0  0  0  0  0  0  0  0
    8.6676   14.3447   16.7443 C   0  0  0  0  0  0  0  0  0  0  0  0
   12.7138   17.7118   13.5764 C   0  0  0  0  0  0  0  0  0  0  0  0
    8.3450   17.0187   16.7115 O   0  0  0  0  0  0  0  0  0  0  0  0
  1  2  2  0
  2  3  1  0
  2  4  1  0
  3  5  2  0
  4  6  1  0
  6  7  1  0
  3  8  1  0
  6  9  2  0
  8  9  1  0
  5 10  1  0
  8 11  2  0
  7 12  1  0
 11 13  1  0
 10 14  1  0
 13 15  2  0
 10 16  1  0
 11 16  1  0
  5 17  1  0
 17 18  1  0
  7 19  2  0
 14 20  1  0
 15 21  1  0
  1 22  1  0
 17 22  2  0
 21 23  2  0
 20 24  1  0
 21 25  1  0
 20 26  1  0
 12 27  2  0
 25 28  1  0
 27 29  1  0
 15 30  1  0
 16 31  1  0
 24 31  1  0
 30 31  1  0
 26 32  2  0
 19 33  1  0
 29 33  2  0
 25 34  1  0
 14 35  2  0
 18 35  1  0
 30 36  1  0
 34 36  1  0
 26 37  1  0
M  END
>  <ID>  (1) 
conformer_0

$$$$
