
     RDKit          3D

 39 47  0  0  0  0  0  0  0  0999 V2000
    7.6643   10.8695   13.4813 N   0  0  0  0  0  0  0  0  0  0  0  0
    8.5209   11.2829   12.7515 C   0  0  0  0  0  0  0  0  0  0  0  0
    9.2682   12.3298   13.1486 C   0  0  0  0  0  0  0  0  0  0  0  0
    8.7576   10.6989   11.4689 N   0  0  0  0  0  0  0  0  0  0  0  0
    9.0799   12.9892   14.3596 C   0  0  0  0  0  0  0  0  0  0  0  0
    9.8955   10.9947   10.8274 C   0  0  0  0  0  0  0  0  0  0  0  0
   10.1391   10.2378    9.6358 C   0  0  0  0  0  0  0  0  0  0  0  0
   10.2195   13.0027   12.1787 C   0  0  0  0  0  0  0  0  0  0  0  0
   10.5494   12.2178   11.0473 C   0  0  0  0  0  0  0  0  0  0  0  0
    9.8991   14.0941   14.7415 N   0  0  0  0  0  0  0  0  0  0  0  0
   11.0865   14.0394   12.5655 C   0  0  0  0  0  0  0  0  0  0  0  0
    9.4026    9.2138    9.2452 C   0  0  0  0  0  0  0  0  0  0  0  0
   12.0305   14.6685   11.8008 C   0  0  0  0  0  0  0  0  0  0  0  0
    9.7275   14.6874   16.0481 C   0  0  0  0  0  0  0  0  0  0  0  0
   12.8266   15.6708   12.3197 C   0  0  0  0  0  0  0  0  0  0  0  0
   10.9008   14.6155   13.8993 C   0  0  0  0  0  0  0  0  0  0  0  0
    8.1087   12.5020   15.2198 C   0  0  0  0  0  0  0  0  0  0  0  0
    7.8436   13.1360   16.5361 C   0  0  0  0  0  0  0  0  0  0  0  0
   11.2202   10.6471    8.7585 C   0  0  0  0  0  0  0  0  0  0  0  0
   10.2868   15.8641   16.3363 C   0  0  0  0  0  0  0  0  0  0  0  0
   13.8079   16.3405   11.3825 C   0  0  0  0  0  0  0  0  0  0  0  0
    7.3787   11.4604   14.7941 C   0  0  0  0  0  0  0  0  0  0  0  0
   14.6534   15.6594   10.8763 O   0  0  0  0  0  0  0  0  0  0  0  0
   11.4942   16.3108   15.7216 C   0  0  0  0  0  0  0  0  0  0  0  0
   14.0232   17.5842   11.5308 N   0  0  0  0  0  0  0  0  0  0  0  0
    9.5018   17.0207   16.3547 C   0  0  0  0  0  0  0  0  0  0  0  0
    9.8023    8.5439    8.0569 C   0  0  0  0  0  0  0  0  0  0  0  0
   12.5913   16.1641   13.5522 C   0  0  0  0  0  0  0  0  0  0  0  0
   13.0682   18.5202   12.2651 C   0  0  0  0  0  0  0  0  0  0  0  0
   10.8994    8.8823    7.3133 C   0  0  0  0  0  0  0  0  0  0  0  0
   13.3821   17.3878   13.9172 C   0  0  0  0  0  0  0  0  0  0  0  0
   11.6522   15.6785   14.3607 C   0  0  0  0  0  0  0  0  0  0  0  0
    8.4035   14.4215   16.6213 C   0  0  0  0  0  0  0  0  0  0  0  0
   13.3571   17.3606   15.4437 C   0  0  0  0  0  0  0  0  0  0  0  0
   11.2526    8.0893    6.1572 O   0  0  0  0  0  0  0  0  0  0  0  0
   11.6072    9.9401    7.6083 C   0  0  0  0  0  0  0  0  0  0  0  0
   12.4405   17.1122   16.1218 C   0  0  0  0  0  0  0  0  0  0  0  0
   14.4063   16.5023   15.9323 C   0  0  0  0  0  0  0  0  0  0  0  0
   13.2317   18.6751   13.6308 C   0  0  0  0  0  0  0  0  0  0  0  0
  1  2  2  0
  2  3  1  0
  2  4  1  0
  3  5  2  0
  4  6  1  0
  6  7  1  0
  3  8  1  0
  6  9  2  0
  8  9  1  0
  5 10  1  0
  8 11  2  0
  7 12  1  0
 11 13  1  0
 10 14  1  0
 13 15  2  0
 10 16  1  0
 11 16  1  0
  5 17  1  0
 17 18  1  0
  7 19  2  0
 14 20  1  0
 15 21  1  0
  1 22  1  0
 17 22  2  0
 21 23  2  0
 20 24  1  0
 21 25  1  0
 20 26  1  0
 12 27  2  0
 15 28  1  0
 25 29  1  0
 27 30  1  0
 28 31  1  0
 16 32  1  0
 24 32  1  0
 28 32  2  0
 14 33  1  0
 18 33  1  0
 31 34  1  0
 30 35  1  0
 19 36  1  0
 30 36  2  0
 24 37  1  0
 34 37  1  0
 34 38  1  0
 29 39  1  0
 31 39  1  0
M  END
>  <ID>  (1) 
conformer_0

$$$$
