
     RDKit          3D

 43 52  0  0  0  0  0  0  0  0999 V2000
    8.2984   14.6561   16.8977 C   0  0  0  0  0  0  0  0  0  0  0  0
    9.2832   15.3942   16.7174 N   0  0  0  0  0  0  0  0  0  0  0  0
    9.5263   16.4826   17.5326 C   0  0  0  0  0  0  0  0  0  0  0  0
   10.0166   15.2884   15.4898 C   0  0  0  0  0  0  0  0  0  0  0  0
    7.8744   13.6601   15.9915 C   0  0  0  0  0  0  0  0  0  0  0  0
    8.9570   16.5148   18.5472 O   0  0  0  0  0  0  0  0  0  0  0  0
   10.6460   17.3352   17.0802 N   0  0  0  0  0  0  0  0  0  0  0  0
   11.0474   16.1054   15.0963 C   0  0  0  0  0  0  0  0  0  0  0  0
   11.8037   15.8759   13.8495 C   0  0  0  0  0  0  0  0  0  0  0  0
    8.7253   13.1737   14.9848 C   0  0  0  0  0  0  0  0  0  0  0  0
    8.3018   12.0304   14.1707 C   0  0  0  0  0  0  0  0  0  0  0  0
   11.4367   14.7896   13.1292 C   0  0  0  0  0  0  0  0  0  0  0  0
    8.7751   11.5837   12.9562 C   0  0  0  0  0  0  0  0  0  0  0  0
    7.3927   11.1569   14.7968 N   0  0  0  0  0  0  0  0  0  0  0  0
    9.7419   12.1009   12.1058 C   0  0  0  0  0  0  0  0  0  0  0  0
    9.7873   14.0284   14.6231 C   0  0  0  0  0  0  0  0  0  0  0  0
   11.3258   17.2900   15.9234 C   0  0  0  0  0  0  0  0  0  0  0  0
   10.8552   13.8559   13.5542 C   0  0  0  0  0  0  0  0  0  0  0  0
    6.6261   11.4047   15.8720 C   0  0  0  0  0  0  0  0  0  0  0  0
   12.8703   16.9198   13.5229 C   0  0  0  0  0  0  0  0  0  0  0  0
   12.2696   18.3765   15.7327 C   0  0  0  0  0  0  0  0  0  0  0  0
   12.9378   18.1202   14.4581 C   0  0  0  0  0  0  0  0  0  0  0  0
    9.9951   11.4697   10.8884 C   0  0  0  0  0  0  0  0  0  0  0  0
   10.5379   13.0439   12.6867 N   0  0  0  0  0  0  0  0  0  0  0  0
    9.2662   10.4819   10.3961 C   0  0  0  0  0  0  0  0  0  0  0  0
   13.5626   16.8463   12.4386 C   0  0  0  0  0  0  0  0  0  0  0  0
    9.7047    9.8962    9.1644 C   0  0  0  0  0  0  0  0  0  0  0  0
    8.5699    9.9212   11.1065 C   0  0  0  0  0  0  0  0  0  0  0  0
    9.2666    8.7909    8.7463 C   0  0  0  0  0  0  0  0  0  0  0  0
    6.9700   12.6381   16.4395 C   0  0  0  0  0  0  0  0  0  0  0  0
    9.5391    8.2897    7.4595 C   0  0  0  0  0  0  0  0  0  0  0  0
   14.4697   18.1144   12.4034 C   0  0  0  0  0  0  0  0  0  0  0  0
   10.4163    9.0941    6.6964 C   0  0  0  0  0  0  0  0  0  0  0  0
   10.6639   10.7315    8.1857 C   0  0  0  0  0  0  0  0  0  0  0  0
   11.1423   11.9745    8.7315 O   0  0  0  0  0  0  0  0  0  0  0  0
   13.8834   19.0550   13.8821 C   0  0  0  0  0  0  0  0  0  0  0  0
    8.2188   10.4848   12.4672 C   0  0  0  0  0  0  0  0  0  0  0  0
   14.2638   18.9500   11.1887 C   0  0  0  0  0  0  0  0  0  0  0  0
   14.8960   20.1241   11.0896 C   0  0  0  0  0  0  0  0  0  0  0  0
   10.9978   12.2546   10.1193 C   0  0  0  0  0  0  0  0  0  0  0  0
   10.9398   10.3378    7.1728 C   0  0  0  0  0  0  0  0  0  0  0  0
   14.2586   21.2997   11.2961 O   0  0  0  0  0  0  0  0  0  0  0  0
   16.0599   20.3112   10.4649 O   0  0  0  0  0  0  0  0  0  0  0  0
  1  2  1  0
  2  3  1  0
  2  4  1  0
  1  5  1  0
  3  6  2  0
  3  7  1  0
  4  8  2  0
  8  9  1  0
  5 10  1  0
 10 11  1  0
  9 12  2  0
 11 13  1  0
 11 14  2  0
 13 15  1  0
  4 16  1  0
 10 16  2  0
  7 17  2  0
  8 17  1  0
 12 18  1  0
 16 18  1  0
 14 19  1  0
  9 20  1  0
 17 21  1  0
 20 22  1  0
 21 22  1  0
 15 23  2  0
 15 24  1  0
 18 24  2  0
 23 25  1  0
 20 26  2  0
 25 27  1  0
 25 28  2  0
 27 29  2  0
  5 30  2  0
 19 30  1  0
 29 31  1  0
 26 32  1  0
 31 33  2  0
 27 34  1  0
 34 35  1  0
 22 36  2  0
 32 36  1  0
 13 37  2  0
 28 37  1  0
 32 38  1  0
 38 39  1  0
 23 40  1  0
 35 40  1  0
 33 41  1  0
 34 41  2  0
 39 42  2  0
 39 43  1  0
M  END
>  <ID>  (1) 
conformer_0

$$$$
