
     RDKit          3D

 40 47  0  0  0  0  0  0  0  0999 V2000
    8.2984   14.6561   16.8977 C   0  0  0  0  0  0  0  0  0  0  0  0
    9.2832   15.3942   16.7174 N   0  0  0  0  0  0  0  0  0  0  0  0
    9.5263   16.4826   17.5326 C   0  0  0  0  0  0  0  0  0  0  0  0
   10.0166   15.2884   15.4898 C   0  0  0  0  0  0  0  0  0  0  0  0
    7.8744   13.6601   15.9915 C   0  0  0  0  0  0  0  0  0  0  0  0
    8.9570   16.5148   18.5472 O   0  0  0  0  0  0  0  0  0  0  0  0
   10.6460   17.3352   17.0802 N   0  0  0  0  0  0  0  0  0  0  0  0
   11.0474   16.1054   15.0963 C   0  0  0  0  0  0  0  0  0  0  0  0
   11.8037   15.8759   13.8495 C   0  0  0  0  0  0  0  0  0  0  0  0
    8.7253   13.1737   14.9848 C   0  0  0  0  0  0  0  0  0  0  0  0
    8.3018   12.0304   14.1707 C   0  0  0  0  0  0  0  0  0  0  0  0
   11.4367   14.7896   13.1292 C   0  0  0  0  0  0  0  0  0  0  0  0
    8.7751   11.5837   12.9562 C   0  0  0  0  0  0  0  0  0  0  0  0
    7.3927   11.1569   14.7968 N   0  0  0  0  0  0  0  0  0  0  0  0
    9.7419   12.1009   12.1058 C   0  0  0  0  0  0  0  0  0  0  0  0
    9.7873   14.0284   14.6231 C   0  0  0  0  0  0  0  0  0  0  0  0
   11.3258   17.2900   15.9234 C   0  0  0  0  0  0  0  0  0  0  0  0
   10.8552   13.8559   13.5542 C   0  0  0  0  0  0  0  0  0  0  0  0
    6.6261   11.4047   15.8720 C   0  0  0  0  0  0  0  0  0  0  0  0
   12.8703   16.9198   13.5229 C   0  0  0  0  0  0  0  0  0  0  0  0
   12.2696   18.3765   15.7327 C   0  0  0  0  0  0  0  0  0  0  0  0
   12.9378   18.1202   14.4581 C   0  0  0  0  0  0  0  0  0  0  0  0
    9.9951   11.4697   10.8884 C   0  0  0  0  0  0  0  0  0  0  0  0
   10.5379   13.0439   12.6867 N   0  0  0  0  0  0  0  0  0  0  0  0
    8.0523   10.3831   12.4800 C   0  0  0  0  0  0  0  0  0  0  0  0
    9.3909   10.4797   10.4233 C   0  0  0  0  0  0  0  0  0  0  0  0
   13.7921   19.2255   14.0299 C   0  0  0  0  0  0  0  0  0  0  0  0
   13.6339   16.8196   12.5086 C   0  0  0  0  0  0  0  0  0  0  0  0
    9.7283    9.8708    9.1561 C   0  0  0  0  0  0  0  0  0  0  0  0
   14.4930   18.0268   12.1786 C   0  0  0  0  0  0  0  0  0  0  0  0
   14.5555   19.1445   12.8911 C   0  0  0  0  0  0  0  0  0  0  0  0
   13.8975   20.5866   14.9314 C   0  0  0  0  0  0  0  0  0  0  0  0
   10.7616   10.4959    8.5216 O   0  0  0  0  0  0  0  0  0  0  0  0
    8.5022    9.9458   11.1420 C   0  0  0  0  0  0  0  0  0  0  0  0
    9.1628    8.8940    8.6610 N   0  0  0  0  0  0  0  0  0  0  0  0
    6.9765   12.6154   16.5957 C   0  0  0  0  0  0  0  0  0  0  0  0
   14.6915   20.5806   15.9402 C   0  0  0  0  0  0  0  0  0  0  0  0
   13.9045   21.7306   14.2857 C   0  0  0  0  0  0  0  0  0  0  0  0
   13.4112   21.8951   12.9921 O   0  0  0  0  0  0  0  0  0  0  0  0
   14.0308   22.8327   14.8140 O   0  0  0  0  0  0  0  0  0  0  0  0
  1  2  1  0
  2  3  1  0
  2  4  1  0
  1  5  1  0
  3  6  2  0
  3  7  1  0
  4  8  2  0
  8  9  1  0
  5 10  1  0
 10 11  1  0
  9 12  2  0
 11 13  1  0
 11 14  2  0
 13 15  1  0
  4 16  1  0
 10 16  2  0
  7 17  2  0
  8 17  1  0
 12 18  1  0
 16 18  1  0
 14 19  1  0
  9 20  1  0
 17 21  1  0
 20 22  1  0
 21 22  1  0
 15 23  2  0
 15 24  1  0
 18 24  2  0
 13 25  2  0
 23 26  1  0
 22 27  2  0
 20 28  2  0
 26 29  1  0
 28 30  1  0
 27 31  1  0
 30 31  2  0
 27 32  1  0
 29 33  2  0
 25 34  1  0
 26 34  2  0
 29 35  1  0
  5 36  1  0
 19 36  2  0
 32 37  1  0
 32 38  1  0
 38 39  2  0
 38 40  1  0
M  END
>  <ID>  (1) 
conformer_0

$$$$
