
     RDKit          3D

 32 38  0  0  0  0  0  0  0  0999 V2000
    7.6520   10.1732   13.1731 N   0  0  0  0  0  0  0  0  0  0  0  0
    8.5386   10.6116   12.3041 C   0  0  0  0  0  0  0  0  0  0  0  0
    7.6859   11.1716   14.2026 C   0  0  0  0  0  0  0  0  0  0  0  0
    8.6578   12.0917   13.9390 C   0  0  0  0  0  0  0  0  0  0  0  0
    9.2350   11.7666   12.7202 C   0  0  0  0  0  0  0  0  0  0  0  0
    7.0188   11.4170   15.3813 N   0  0  0  0  0  0  0  0  0  0  0  0
    7.5685   12.5438   15.9819 C   0  0  0  0  0  0  0  0  0  0  0  0
    8.8413   10.0629   10.9753 C   0  0  0  0  0  0  0  0  0  0  0  0
    9.8056   10.6733   10.2312 C   0  0  0  0  0  0  0  0  0  0  0  0
    8.6028   13.0104   15.0601 C   0  0  0  0  0  0  0  0  0  0  0  0
   10.1631   10.1536    8.9842 C   0  0  0  0  0  0  0  0  0  0  0  0
   10.4636   11.9690   10.5974 C   0  0  0  0  0  0  0  0  0  0  0  0
    9.4807   14.1347   15.3104 C   0  0  0  0  0  0  0  0  0  0  0  0
   10.3853   14.5721   14.4032 N   0  0  0  0  0  0  0  0  0  0  0  0
   11.4219   12.5343    9.8292 C   0  0  0  0  0  0  0  0  0  0  0  0
   11.0085   15.6423   14.8767 N   0  0  0  0  0  0  0  0  0  0  0  0
    9.6774    9.0349    8.4989 O   0  0  0  0  0  0  0  0  0  0  0  0
   12.0400   16.3877   14.3114 C   0  0  0  0  0  0  0  0  0  0  0  0
   12.0685   13.7350   10.1624 C   0  0  0  0  0  0  0  0  0  0  0  0
   12.4648   17.5401   14.7872 C   0  0  0  0  0  0  0  0  0  0  0  0
   11.5894   12.0321    8.5623 C   0  0  0  0  0  0  0  0  0  0  0  0
   13.4145   18.3362   14.2016 C   0  0  0  0  0  0  0  0  0  0  0  0
    9.3324   14.8716   16.5107 C   0  0  0  0  0  0  0  0  0  0  0  0
   10.9196   10.8038    8.2131 C   0  0  0  0  0  0  0  0  0  0  0  0
   13.8949   18.0271   12.9342 C   0  0  0  0  0  0  0  0  0  0  0  0
   12.1387   17.8873   16.2047 C   0  0  0  0  0  0  0  0  0  0  0  0
   12.6605   18.9141   16.8141 O   0  0  0  0  0  0  0  0  0  0  0  0
   10.4764   15.9307   16.1949 C   0  0  0  0  0  0  0  0  0  0  0  0
   12.3923   16.0910   12.9480 C   0  0  0  0  0  0  0  0  0  0  0  0
   13.3620   16.8616   12.3057 C   0  0  0  0  0  0  0  0  0  0  0  0
   11.0086   17.2115   16.8880 N   0  0  0  0  0  0  0  0  0  0  0  0
   10.1279   12.4250   11.9689 C   0  0  0  0  0  0  0  0  0  0  0  0
  1  2  2  0
  1  3  1  0
  3  4  1  0
  2  5  1  0
  4  5  2  0
  3  6  2  0
  6  7  1  0
  2  8  1  0
  8  9  2  0
  4 10  1  0
  7 10  2  0
  9 11  1  0
  9 12  1  0
 10 13  1  0
 13 14  2  0
 12 15  1  0
 14 16  1  0
 11 17  1  0
 16 18  1  0
 15 19  1  0
 18 20  1  0
 15 21  2  0
 20 22  2  0
 13 23  1  0
 11 24  2  0
 21 24  1  0
 22 25  1  0
 20 26  1  0
 26 27  2  0
 16 28  1  0
 23 28  2  0
 18 29  2  0
 25 30  2  0
 29 30  1  0
 26 31  1  0
 28 31  1  0
  5 32  1  0
 12 32  2  0
M  END
>  <ID>  (1) 
conformer_0

$$$$
