
     RDKit          3D

 14 16  0  0  0  0  0  0  0  0999 V2000
    7.6643   10.8695   13.4813 N   0  0  0  0  0  0  0  0  0  0  0  0
    7.5404   11.3962   14.5800 C   0  0  0  0  0  0  0  0  0  0  0  0
    8.6885   11.4083   12.7863 C   0  0  0  0  0  0  0  0  0  0  0  0
    9.0895   11.0110   11.4295 C   0  0  0  0  0  0  0  0  0  0  0  0
    8.5905    9.9096   10.8526 N   0  0  0  0  0  0  0  0  0  0  0  0
    8.1867   12.4841   15.1923 N   0  0  0  0  0  0  0  0  0  0  0  0
    9.3085   12.5605   13.3243 C   0  0  0  0  0  0  0  0  0  0  0  0
    7.7994   12.9846   16.5217 C   0  0  0  0  0  0  0  0  0  0  0  0
   10.1345   11.7998   11.0347 C   0  0  0  0  0  0  0  0  0  0  0  0
   10.7513   11.5885    9.7649 C   0  0  0  0  0  0  0  0  0  0  0  0
    9.3240    9.6684    9.8107 C   0  0  0  0  0  0  0  0  0  0  0  0
   10.3944   10.4949    9.3190 C   0  0  0  0  0  0  0  0  0  0  0  0
   10.3241   12.8979   12.0845 C   0  0  0  0  0  0  0  0  0  0  0  0
    9.1504   13.1141   14.4293 C   0  0  0  0  0  0  0  0  0  0  0  0
  1  2  2  0
  1  3  1  0
  3  4  2  0
  4  5  1  0
  2  6  1  0
  3  7  1  0
  6  8  1  0
  4  9  1  0
  9 10  1  0
  5 11  2  0
 10 12  2  0
 11 12  1  0
  7 13  1  0
  9 13  2  0
  6 14  1  0
  7 14  2  0
M  END
>  <ID>  (1) 
conformer_0

$$$$
