
     RDKit          3D

 35 41  0  0  0  0  0  0  0  0999 V2000
    7.4227   10.7966   14.1645 N   0  0  0  0  0  0  0  0  0  0  0  0
    8.2987   11.1556   13.3423 C   0  0  0  0  0  0  0  0  0  0  0  0
    9.1691   12.1537   13.4800 C   0  0  0  0  0  0  0  0  0  0  0  0
    9.0186   13.0237   14.5867 C   0  0  0  0  0  0  0  0  0  0  0  0
    9.8138   14.1326   14.7754 N   0  0  0  0  0  0  0  0  0  0  0  0
   10.0679   12.5709   12.4146 C   0  0  0  0  0  0  0  0  0  0  0  0
    8.1132   12.7091   15.5320 C   0  0  0  0  0  0  0  0  0  0  0  0
    9.6027   14.6513   16.0264 C   0  0  0  0  0  0  0  0  0  0  0  0
   10.0737   15.7410   16.7177 C   0  0  0  0  0  0  0  0  0  0  0  0
   10.0617   11.8560   11.2291 C   0  0  0  0  0  0  0  0  0  0  0  0
   10.9448   16.5919   15.9739 C   0  0  0  0  0  0  0  0  0  0  0  0
   11.3567   16.5070   14.7794 N   0  0  0  0  0  0  0  0  0  0  0  0
    9.3720   16.2440   17.5873 O   0  0  0  0  0  0  0  0  0  0  0  0
   12.3157   17.2559   14.2055 C   0  0  0  0  0  0  0  0  0  0  0  0
    8.3670   10.5006   12.0568 N   0  0  0  0  0  0  0  0  0  0  0  0
   10.9828   12.1501   10.1804 C   0  0  0  0  0  0  0  0  0  0  0  0
    9.2046   10.7866   11.0807 C   0  0  0  0  0  0  0  0  0  0  0  0
   11.8095   13.3133   10.1313 C   0  0  0  0  0  0  0  0  0  0  0  0
    7.2171   11.6596   15.2791 C   0  0  0  0  0  0  0  0  0  0  0  0
    9.2601   10.1084    9.9851 N   0  0  0  0  0  0  0  0  0  0  0  0
   10.8975   11.4638    9.0099 C   0  0  0  0  0  0  0  0  0  0  0  0
   11.7561   11.8275    7.9811 C   0  0  0  0  0  0  0  0  0  0  0  0
   11.6917   17.6050   16.7517 C   0  0  0  0  0  0  0  0  0  0  0  0
   12.5948   16.9880   12.7322 C   0  0  0  0  0  0  0  0  0  0  0  0
   13.8491   16.5458   12.4863 C   0  0  0  0  0  0  0  0  0  0  0  0
   11.8451   11.0549    6.8147 N   0  0  0  0  0  0  0  0  0  0  0  0
   12.4799   18.3630   16.1142 C   0  0  0  0  0  0  0  0  0  0  0  0
   12.8121   18.2992   14.8406 C   0  0  0  0  0  0  0  0  0  0  0  0
    9.9430   10.3976    8.9395 C   0  0  0  0  0  0  0  0  0  0  0  0
   12.3361   18.2380   11.9125 C   0  0  0  0  0  0  0  0  0  0  0  0
   12.4385   13.0269    8.2304 N   0  0  0  0  0  0  0  0  0  0  0  0
   13.5222   18.6313   11.1159 C   0  0  0  0  0  0  0  0  0  0  0  0
    8.2656   13.7471   16.8060 S   0  0  0  0  0  0  0  0  0  0  0  0
   14.3193   17.3536   11.2227 C   0  0  0  0  0  0  0  0  0  0  0  0
   12.5155   13.6766    9.1794 C   0  0  0  0  0  0  0  0  0  0  0  0
  1  2  2  0
  2  3  1  0
  3  4  2  0
  4  5  1  0
  3  6  1  0
  4  7  1  0
  5  8  2  0
  8  9  1  0
  6 10  2  0
  9 11  1  0
 11 12  2  0
  9 13  2  0
 12 14  1  0
  2 15  1  0
 10 16  1  0
 10 17  1  0
 15 17  1  0
 16 18  1  0
  1 19  1  0
  7 19  2  0
 17 20  2  0
 16 21  2  0
 21 22  1  0
 11 23  1  0
 14 24  1  0
 24 25  1  0
 22 26  1  0
 23 27  2  0
 14 28  2  0
 27 28  1  0
 20 29  1  0
 21 29  1  0
 24 30  1  0
 22 31  2  0
 30 32  1  0
  7 33  1  0
  8 33  1  0
 25 34  1  0
 32 34  1  0
 18 35  2  0
 31 35  1  0
M  END
>  <ID>  (1) 
conformer_0

$$$$
