
     RDKit          3D

 39 47  0  0  0  0  0  0  0  0999 V2000
    8.2984   14.6561   16.8977 C   0  0  0  0  0  0  0  0  0  0  0  0
    9.2832   15.3942   16.7174 N   0  0  0  0  0  0  0  0  0  0  0  0
    9.5263   16.4826   17.5326 C   0  0  0  0  0  0  0  0  0  0  0  0
   10.0166   15.2884   15.4898 C   0  0  0  0  0  0  0  0  0  0  0  0
    7.8744   13.6601   15.9915 C   0  0  0  0  0  0  0  0  0  0  0  0
    8.9570   16.5148   18.5472 O   0  0  0  0  0  0  0  0  0  0  0  0
   10.6460   17.3352   17.0802 N   0  0  0  0  0  0  0  0  0  0  0  0
   11.0474   16.1054   15.0963 C   0  0  0  0  0  0  0  0  0  0  0  0
   11.8037   15.8759   13.8495 C   0  0  0  0  0  0  0  0  0  0  0  0
    8.7253   13.1737   14.9848 C   0  0  0  0  0  0  0  0  0  0  0  0
    8.3018   12.0304   14.1707 C   0  0  0  0  0  0  0  0  0  0  0  0
   11.4367   14.7896   13.1292 C   0  0  0  0  0  0  0  0  0  0  0  0
    8.7751   11.5837   12.9562 C   0  0  0  0  0  0  0  0  0  0  0  0
    7.3927   11.1569   14.7968 N   0  0  0  0  0  0  0  0  0  0  0  0
    9.7419   12.1009   12.1058 C   0  0  0  0  0  0  0  0  0  0  0  0
    9.7873   14.0284   14.6231 C   0  0  0  0  0  0  0  0  0  0  0  0
   10.5739   13.8619   13.5608 C   0  0  0  0  0  0  0  0  0  0  0  0
   12.8610   16.8371   13.5042 C   0  0  0  0  0  0  0  0  0  0  0  0
    6.6431   11.4031   15.8760 C   0  0  0  0  0  0  0  0  0  0  0  0
   11.3526   17.3286   16.0108 C   0  0  0  0  0  0  0  0  0  0  0  0
   10.6391   12.9975   12.5889 C   0  0  0  0  0  0  0  0  0  0  0  0
   11.7083   12.9807   11.7409 N   0  0  0  0  0  0  0  0  0  0  0  0
    8.3213   10.3545   12.4641 N   0  0  0  0  0  0  0  0  0  0  0  0
   12.4650   14.2798   12.1932 C   0  0  0  0  0  0  0  0  0  0  0  0
   14.0562   16.7388   14.0298 C   0  0  0  0  0  0  0  0  0  0  0  0
   12.5996   17.8426   12.5947 C   0  0  0  0  0  0  0  0  0  0  0  0
    8.8888   10.2603   11.1435 C   0  0  0  0  0  0  0  0  0  0  0  0
    9.8072   11.2774   10.9397 C   0  0  0  0  0  0  0  0  0  0  0  0
   10.5540   11.4581    9.8514 C   0  0  0  0  0  0  0  0  0  0  0  0
    6.9960   12.6245   16.6191 C   0  0  0  0  0  0  0  0  0  0  0  0
   10.2416   10.3244    8.8894 C   0  0  0  0  0  0  0  0  0  0  0  0
   13.2805   18.7499   12.3933 C   0  0  0  0  0  0  0  0  0  0  0  0
   14.4346   15.6786   14.9628 O   0  0  0  0  0  0  0  0  0  0  0  0
   14.9502   17.7924   13.8781 C   0  0  0  0  0  0  0  0  0  0  0  0
    8.7896    9.2768   10.2624 C   0  0  0  0  0  0  0  0  0  0  0  0
    9.3835    9.3461    9.2606 C   0  0  0  0  0  0  0  0  0  0  0  0
   14.5168   18.8409   13.2601 C   0  0  0  0  0  0  0  0  0  0  0  0
   13.0523   20.1340   11.4098 C   0  0  0  0  0  0  0  0  0  0  0  0
   13.1408   21.2116   12.1792 N   0  0  0  0  0  0  0  0  0  0  0  0
  1  2  1  0
  2  3  1  0
  2  4  1  0
  1  5  1  0
  3  6  2  0
  3  7  1  0
  4  8  2  0
  8  9  1  0
  5 10  1  0
 10 11  1  0
  9 12  2  0
 11 13  1  0
 11 14  2  0
 13 15  1  0
  4 16  1  0
 10 16  2  0
 12 17  1  0
 16 17  1  0
  9 18  1  0
 14 19  1  0
  7 20  2  0
  8 20  1  0
 15 21  1  0
 17 21  2  0
 21 22  1  0
 13 23  2  0
 12 24  1  0
 22 24  1  0
 18 25  2  0
 18 26  1  0
 23 27  1  0
 15 28  1  0
 27 28  1  0
 28 29  2  0
  5 30  1  0
 19 30  1  0
 29 31  1  0
 26 32  2  0
 25 33  1  0
 25 34  1  0
 27 35  2  0
 31 36  2  0
 35 36  1  0
 32 37  1  0
 34 37  2  0
 32 38  1  0
 38 39  1  0
M  END
>  <ID>  (1) 
conformer_0

$$$$
