
     RDKit          3D

 41 48  0  0  0  0  0  0  0  0999 V2000
    7.6643   10.8695   13.4813 N   0  0  0  0  0  0  0  0  0  0  0  0
    8.5209   11.2829   12.7515 C   0  0  0  0  0  0  0  0  0  0  0  0
    9.2682   12.3298   13.1486 C   0  0  0  0  0  0  0  0  0  0  0  0
    8.7576   10.6989   11.4689 N   0  0  0  0  0  0  0  0  0  0  0  0
    9.0799   12.9892   14.3596 C   0  0  0  0  0  0  0  0  0  0  0  0
    9.8955   10.9947   10.8274 C   0  0  0  0  0  0  0  0  0  0  0  0
   10.1391   10.2378    9.6358 C   0  0  0  0  0  0  0  0  0  0  0  0
   10.2195   13.0027   12.1787 C   0  0  0  0  0  0  0  0  0  0  0  0
   10.5494   12.2178   11.0473 C   0  0  0  0  0  0  0  0  0  0  0  0
    9.8991   14.0941   14.7415 N   0  0  0  0  0  0  0  0  0  0  0  0
   11.0865   14.0394   12.5655 C   0  0  0  0  0  0  0  0  0  0  0  0
    9.4026    9.2138    9.2452 C   0  0  0  0  0  0  0  0  0  0  0  0
   12.0305   14.6685   11.8008 C   0  0  0  0  0  0  0  0  0  0  0  0
    9.7275   14.6874   16.0481 C   0  0  0  0  0  0  0  0  0  0  0  0
   12.8266   15.6708   12.3197 C   0  0  0  0  0  0  0  0  0  0  0  0
   10.9008   14.6155   13.8993 C   0  0  0  0  0  0  0  0  0  0  0  0
    8.1087   12.5020   15.2198 C   0  0  0  0  0  0  0  0  0  0  0  0
    7.8436   13.1360   16.5361 C   0  0  0  0  0  0  0  0  0  0  0  0
   11.2202   10.6471    8.7585 C   0  0  0  0  0  0  0  0  0  0  0  0
   10.2868   15.8641   16.3363 C   0  0  0  0  0  0  0  0  0  0  0  0
   13.8079   16.3405   11.3825 C   0  0  0  0  0  0  0  0  0  0  0  0
    7.3787   11.4604   14.7941 C   0  0  0  0  0  0  0  0  0  0  0  0
   14.6534   15.6594   10.8763 O   0  0  0  0  0  0  0  0  0  0  0  0
   11.4942   16.3108   15.7216 C   0  0  0  0  0  0  0  0  0  0  0  0
   14.0232   17.5842   11.5308 N   0  0  0  0  0  0  0  0  0  0  0  0
    9.5018   17.0207   16.3547 C   0  0  0  0  0  0  0  0  0  0  0  0
    9.8023    8.5439    8.0569 C   0  0  0  0  0  0  0  0  0  0  0  0
   14.9443   18.3408   10.7698 C   0  0  0  0  0  0  0  0  0  0  0  0
   12.1344   17.5067   15.8598 N   0  0  0  0  0  0  0  0  0  0  0  0
   13.0780   18.5179   12.3230 C   0  0  0  0  0  0  0  0  0  0  0  0
   13.6417   19.4799   13.2228 C   0  0  0  0  0  0  0  0  0  0  0  0
    8.3818   14.4792   16.5476 C   0  0  0  0  0  0  0  0  0  0  0  0
   15.6096   19.4770   11.5477 C   0  0  0  0  0  0  0  0  0  0  0  0
   16.3646   20.3609   10.7450 O   0  0  0  0  0  0  0  0  0  0  0  0
   14.6388   20.2833   12.4321 C   0  0  0  0  0  0  0  0  0  0  0  0
   12.8556   20.1634   14.1418 O   0  0  0  0  0  0  0  0  0  0  0  0
   10.8922    8.8780    7.3091 C   0  0  0  0  0  0  0  0  0  0  0  0
   15.4217   21.1327   13.2666 O   0  0  0  0  0  0  0  0  0  0  0  0
   12.4464   16.0946   13.7356 C   0  0  0  0  0  0  0  0  0  0  0  0
   11.6293    9.9175    7.6250 C   0  0  0  0  0  0  0  0  0  0  0  0
   11.5200   15.7205   14.3851 C   0  0  0  0  0  0  0  0  0  0  0  0
  1  2  2  0
  2  3  1  0
  2  4  1  0
  3  5  2  0
  4  6  1  0
  6  7  1  0
  3  8  1  0
  6  9  2  0
  8  9  1  0
  5 10  1  0
  8 11  2  0
  7 12  1  0
 11 13  1  0
 10 14  1  0
 13 15  2  0
 10 16  1  0
 11 16  1  0
  5 17  1  0
 17 18  1  0
  7 19  2  0
 14 20  1  0
 15 21  1  0
  1 22  1  0
 17 22  2  0
 21 23  2  0
 20 24  1  0
 21 25  1  0
 20 26  1  0
 12 27  2  0
 25 28  1  0
 24 29  1  0
 25 30  1  0
 30 31  1  0
 14 32  1  0
 18 32  1  0
 28 33  1  0
 33 34  1  0
 31 35  1  0
 33 35  1  0
 31 36  1  0
 27 37  1  0
 35 38  1  0
 15 39  1  0
 19 40  1  0
 37 40  2  0
 16 41  1  0
 24 41  1  0
 39 41  1  0
M  END
>  <ID>  (1) 
conformer_0

$$$$
