
     RDKit          3D

 40 50  0  0  0  0  0  0  0  0999 V2000
    7.6643   10.8695   13.4813 N   0  0  0  0  0  0  0  0  0  0  0  0
    8.5209   11.2829   12.7515 C   0  0  0  0  0  0  0  0  0  0  0  0
    9.2682   12.3298   13.1486 C   0  0  0  0  0  0  0  0  0  0  0  0
    8.7576   10.6989   11.4689 N   0  0  0  0  0  0  0  0  0  0  0  0
    9.0799   12.9892   14.3596 C   0  0  0  0  0  0  0  0  0  0  0  0
    9.8955   10.9947   10.8274 C   0  0  0  0  0  0  0  0  0  0  0  0
   10.1391   10.2378    9.6358 C   0  0  0  0  0  0  0  0  0  0  0  0
   10.2195   13.0027   12.1787 C   0  0  0  0  0  0  0  0  0  0  0  0
   10.5494   12.2178   11.0473 C   0  0  0  0  0  0  0  0  0  0  0  0
    9.8991   14.0941   14.7415 N   0  0  0  0  0  0  0  0  0  0  0  0
   11.0865   14.0394   12.5655 C   0  0  0  0  0  0  0  0  0  0  0  0
    9.4026    9.2138    9.2452 C   0  0  0  0  0  0  0  0  0  0  0  0
   12.0305   14.6685   11.8008 C   0  0  0  0  0  0  0  0  0  0  0  0
    9.7275   14.6874   16.0481 C   0  0  0  0  0  0  0  0  0  0  0  0
   12.8266   15.6708   12.3197 C   0  0  0  0  0  0  0  0  0  0  0  0
   10.9008   14.6155   13.8993 C   0  0  0  0  0  0  0  0  0  0  0  0
    8.1087   12.5020   15.2198 C   0  0  0  0  0  0  0  0  0  0  0  0
    7.8436   13.1360   16.5361 C   0  0  0  0  0  0  0  0  0  0  0  0
   11.2202   10.6471    8.7585 C   0  0  0  0  0  0  0  0  0  0  0  0
   10.2868   15.8641   16.3363 C   0  0  0  0  0  0  0  0  0  0  0  0
   13.8079   16.3405   11.3825 C   0  0  0  0  0  0  0  0  0  0  0  0
    7.3787   11.4604   14.7941 C   0  0  0  0  0  0  0  0  0  0  0  0
   14.6534   15.6594   10.8763 O   0  0  0  0  0  0  0  0  0  0  0  0
   11.4942   16.3108   15.7216 C   0  0  0  0  0  0  0  0  0  0  0  0
   14.0232   17.5842   11.5308 N   0  0  0  0  0  0  0  0  0  0  0  0
    9.5018   17.0207   16.3547 C   0  0  0  0  0  0  0  0  0  0  0  0
    9.8023    8.5439    8.0569 C   0  0  0  0  0  0  0  0  0  0  0  0
   12.5913   16.1641   13.5522 C   0  0  0  0  0  0  0  0  0  0  0  0
   13.0682   18.5202   12.2651 C   0  0  0  0  0  0  0  0  0  0  0  0
   11.6813   15.7004   14.3490 C   0  0  0  0  0  0  0  0  0  0  0  0
   13.5811   19.9466   12.5322 C   0  0  0  0  0  0  0  0  0  0  0  0
   14.6497   20.1453   13.2614 C   0  0  0  0  0  0  0  0  0  0  0  0
   11.9348   17.6191   15.7129 C   0  0  0  0  0  0  0  0  0  0  0  0
    8.7395   14.1620   16.7001 C   0  0  0  0  0  0  0  0  0  0  0  0
   12.6082   18.0375   14.7349 C   0  0  0  0  0  0  0  0  0  0  0  0
   13.3886   19.2371   14.8902 C   0  0  0  0  0  0  0  0  0  0  0  0
   11.3286    9.5945    7.5651 S   0  0  0  0  0  0  0  0  0  0  0  0
   10.4806   18.1649   16.5833 C   0  0  0  0  0  0  0  0  0  0  0  0
   13.0620   17.5279   13.7060 C   0  0  0  0  0  0  0  0  0  0  0  0
   14.2215   20.3297   14.6893 C   0  0  0  0  0  0  0  0  0  0  0  0
  1  2  2  0
  2  3  1  0
  2  4  1  0
  3  5  2  0
  4  6  1  0
  6  7  1  0
  3  8  1  0
  6  9  2  0
  8  9  1  0
  5 10  1  0
  8 11  2  0
  7 12  1  0
 11 13  1  0
 10 14  1  0
 13 15  2  0
 10 16  1  0
 11 16  1  0
  5 17  1  0
 17 18  1  0
  7 19  2  0
 14 20  1  0
 15 21  1  0
  1 22  1  0
 17 22  2  0
 21 23  2  0
 20 24  1  0
 21 25  1  0
 20 26  1  0
 12 27  2  0
 15 28  1  0
 25 29  1  0
 16 30  2  0
 24 30  1  0
 28 30  1  0
 29 31  1  0
 31 32  1  0
 24 33  1  0
 14 34  2  0
 18 34  1  0
 33 35  1  0
 35 36  1  0
 19 37  1  0
 27 37  1  0
 26 38  1  0
 33 38  1  0
 28 39  1  0
 29 39  1  0
 35 39  2  0
 32 40  1  0
 36 40  2  0
M  END
>  <ID>  (1) 
conformer_0

$$$$
