
     RDKit          3D

 17 20  0  0  0  0  0  0  0  0999 V2000
    7.2525   11.5759   14.9237 C   0  0  0  0  0  0  0  0  0  0  0  0
    8.1014   12.4013   15.1510 C   0  0  0  0  0  0  0  0  0  0  0  0
    9.0110   12.5836   14.0705 C   0  0  0  0  0  0  0  0  0  0  0  0
    8.6861   11.4839   13.1744 C   0  0  0  0  0  0  0  0  0  0  0  0
    7.5427   10.8903   13.7525 N   0  0  0  0  0  0  0  0  0  0  0  0
    9.2314   11.1327   11.9649 C   0  0  0  0  0  0  0  0  0  0  0  0
    8.0739   13.4848   16.2726 C   0  0  0  0  0  0  0  0  0  0  0  0
    9.2852   14.3354   16.4555 C   0  0  0  0  0  0  0  0  0  0  0  0
   10.1608   13.3317   13.7285 C   0  0  0  0  0  0  0  0  0  0  0  0
   10.6337   14.3930   14.4570 C   0  0  0  0  0  0  0  0  0  0  0  0
   10.7693   13.2895   12.4518 C   0  0  0  0  0  0  0  0  0  0  0  0
   10.3422   12.0857   11.6017 C   0  0  0  0  0  0  0  0  0  0  0  0
   11.8595   13.9632   12.1020 C   0  0  0  0  0  0  0  0  0  0  0  0
   12.3196   14.9442   12.8923 C   0  0  0  0  0  0  0  0  0  0  0  0
    9.9490   15.0176   15.3622 N   0  0  0  0  0  0  0  0  0  0  0  0
    6.1483   11.2175   15.7422 N   0  0  0  0  0  0  0  0  0  0  0  0
   11.6919   15.2737   14.0134 C   0  0  0  0  0  0  0  0  0  0  0  0
  1  2  1  0
  2  3  1  0
  3  4  2  0
  1  5  2  0
  4  5  1  0
  4  6  1  0
  2  7  1  0
  7  8  1  0
  3  9  1  0
  9 10  1  0
  9 11  2  0
  6 12  2  0
 11 12  1  0
 11 13  1  0
 13 14  2  0
  8 15  1  0
 10 15  1  0
  1 16  1  0
 10 17  2  0
 14 17  1  0
M  END
>  <ID>  (1) 
conformer_0

$$$$
