
     RDKit          3D

 33 40  0  0  0  0  0  0  0  0999 V2000
    8.2984   14.6561   16.8977 C   0  0  0  0  0  0  0  0  0  0  0  0
    9.2832   15.3942   16.7174 N   0  0  0  0  0  0  0  0  0  0  0  0
    9.5263   16.4826   17.5326 C   0  0  0  0  0  0  0  0  0  0  0  0
   10.0166   15.2884   15.4898 C   0  0  0  0  0  0  0  0  0  0  0  0
    7.8744   13.6601   15.9915 C   0  0  0  0  0  0  0  0  0  0  0  0
    8.9570   16.5148   18.5472 O   0  0  0  0  0  0  0  0  0  0  0  0
   10.6460   17.3352   17.0802 N   0  0  0  0  0  0  0  0  0  0  0  0
   11.0474   16.1054   15.0963 C   0  0  0  0  0  0  0  0  0  0  0  0
   11.8037   15.8759   13.8495 C   0  0  0  0  0  0  0  0  0  0  0  0
    8.7253   13.1737   14.9848 C   0  0  0  0  0  0  0  0  0  0  0  0
    8.3018   12.0304   14.1707 C   0  0  0  0  0  0  0  0  0  0  0  0
   11.4367   14.7896   13.1292 C   0  0  0  0  0  0  0  0  0  0  0  0
    8.7751   11.5837   12.9562 C   0  0  0  0  0  0  0  0  0  0  0  0
    7.3927   11.1569   14.7968 N   0  0  0  0  0  0  0  0  0  0  0  0
    9.7946   14.0306   14.6792 C   0  0  0  0  0  0  0  0  0  0  0  0
    9.7806   12.0711   12.0453 C   0  0  0  0  0  0  0  0  0  0  0  0
   11.3600   17.3349   15.9979 C   0  0  0  0  0  0  0  0  0  0  0  0
   10.1323   11.4101   10.8905 C   0  0  0  0  0  0  0  0  0  0  0  0
    9.4330   10.2902   10.4794 C   0  0  0  0  0  0  0  0  0  0  0  0
    7.0609   10.1546   13.8648 N   0  0  0  0  0  0  0  0  0  0  0  0
   12.2961   14.4502   11.8938 C   0  0  0  0  0  0  0  0  0  0  0  0
    9.7615    9.6440    9.2666 C   0  0  0  0  0  0  0  0  0  0  0  0
    8.0118   10.3876   12.7370 C   0  0  0  0  0  0  0  0  0  0  0  0
   12.9773   16.7119   13.4724 C   0  0  0  0  0  0  0  0  0  0  0  0
    9.2291    8.6209    8.8868 O   0  0  0  0  0  0  0  0  0  0  0  0
   13.3162   15.2839   11.5792 C   0  0  0  0  0  0  0  0  0  0  0  0
   12.1731   18.2327   15.6438 O   0  0  0  0  0  0  0  0  0  0  0  0
   10.5699   10.2703    8.4085 O   0  0  0  0  0  0  0  0  0  0  0  0
   10.6749   13.8664   13.4751 N   0  0  0  0  0  0  0  0  0  0  0  0
    8.3887    9.8121   11.4798 C   0  0  0  0  0  0  0  0  0  0  0  0
   10.6151   13.1661   12.5812 N   0  0  0  0  0  0  0  0  0  0  0  0
   13.6613   16.4425   12.3484 C   0  0  0  0  0  0  0  0  0  0  0  0
   11.7485   13.2566   11.7729 N   0  0  0  0  0  0  0  0  0  0  0  0
  1  2  1  0
  2  3  1  0
  2  4  1  0
  1  5  1  0
  3  6  2  0
  3  7  1  0
  4  8  2  0
  8  9  1  0
  5 10  1  0
 10 11  1  0
  9 12  2  0
 11 13  1  0
 11 14  2  0
  4 15  1  0
 10 15  2  0
 13 16  1  0
  7 17  1  0
  8 17  1  0
 16 18  2  0
 18 19  1  0
 14 20  1  0
 12 21  1  0
 19 22  1  0
 13 23  1  0
 20 23  2  0
  9 24  1  0
 22 25  2  0
 21 26  2  0
 17 27  2  0
 22 28  1  0
 12 29  1  0
 15 29  1  0
 19 30  2  0
 23 30  1  0
 16 31  1  0
 29 31  1  0
 24 32  2  0
 26 32  1  0
 21 33  1  0
 31 33  1  0
M  END
>  <ID>  (1) 
conformer_0

$$$$
