
     RDKit          3D

 40 47  0  0  0  0  0  0  0  0999 V2000
    7.6520   10.1732   13.1731 N   0  0  0  0  0  0  0  0  0  0  0  0
    8.5386   10.6116   12.3041 C   0  0  0  0  0  0  0  0  0  0  0  0
    7.6859   11.1716   14.2026 C   0  0  0  0  0  0  0  0  0  0  0  0
    8.6578   12.0917   13.9390 C   0  0  0  0  0  0  0  0  0  0  0  0
    9.2350   11.7666   12.7202 C   0  0  0  0  0  0  0  0  0  0  0  0
    7.0188   11.4170   15.3813 N   0  0  0  0  0  0  0  0  0  0  0  0
    7.5685   12.5438   15.9819 C   0  0  0  0  0  0  0  0  0  0  0  0
    8.8413   10.0629   10.9753 C   0  0  0  0  0  0  0  0  0  0  0  0
    9.8056   10.6733   10.2312 C   0  0  0  0  0  0  0  0  0  0  0  0
    8.6028   13.0104   15.0601 C   0  0  0  0  0  0  0  0  0  0  0  0
   10.1631   10.1536    8.9842 C   0  0  0  0  0  0  0  0  0  0  0  0
   10.4636   11.9690   10.5974 C   0  0  0  0  0  0  0  0  0  0  0  0
    9.4807   14.1347   15.3104 C   0  0  0  0  0  0  0  0  0  0  0  0
   10.3853   14.5721   14.4032 N   0  0  0  0  0  0  0  0  0  0  0  0
   11.4219   12.5343    9.8292 C   0  0  0  0  0  0  0  0  0  0  0  0
   11.0085   15.6423   14.8767 N   0  0  0  0  0  0  0  0  0  0  0  0
    9.6774    9.0349    8.4989 O   0  0  0  0  0  0  0  0  0  0  0  0
   12.0400   16.3877   14.3114 C   0  0  0  0  0  0  0  0  0  0  0  0
   12.0685   13.7350   10.1624 C   0  0  0  0  0  0  0  0  0  0  0  0
   12.4648   17.5401   14.7872 C   0  0  0  0  0  0  0  0  0  0  0  0
   11.5894   12.0321    8.5623 C   0  0  0  0  0  0  0  0  0  0  0  0
   13.4145   18.3362   14.2016 C   0  0  0  0  0  0  0  0  0  0  0  0
    9.3324   14.8716   16.5107 C   0  0  0  0  0  0  0  0  0  0  0  0
   10.9196   10.8038    8.2131 C   0  0  0  0  0  0  0  0  0  0  0  0
   13.7429   19.7382   14.7078 C   0  0  0  0  0  0  0  0  0  0  0  0
   10.1358   12.4231   11.9697 C   0  0  0  0  0  0  0  0  0  0  0  0
   14.1888   17.7384   13.1292 C   0  0  0  0  0  0  0  0  0  0  0  0
   10.4362   15.9037   16.1919 C   0  0  0  0  0  0  0  0  0  0  0  0
   13.5207   20.6970   13.7690 C   0  0  0  0  0  0  0  0  0  0  0  0
   13.9517   19.9613   15.9347 C   0  0  0  0  0  0  0  0  0  0  0  0
   13.6881   22.0404   14.1004 N   0  0  0  0  0  0  0  0  0  0  0  0
   12.6964   15.7877   13.2169 C   0  0  0  0  0  0  0  0  0  0  0  0
   14.1109   18.9927   16.9693 O   0  0  0  0  0  0  0  0  0  0  0  0
   14.1112   22.2392   15.4564 C   0  0  0  0  0  0  0  0  0  0  0  0
   14.2880   23.6206   15.7693 O   0  0  0  0  0  0  0  0  0  0  0  0
   14.2275   21.2640   16.3847 C   0  0  0  0  0  0  0  0  0  0  0  0
   12.3751   14.5049   12.7051 O   0  0  0  0  0  0  0  0  0  0  0  0
   13.7515   16.5725   12.5465 C   0  0  0  0  0  0  0  0  0  0  0  0
   12.1118   14.4148   11.3599 C   0  0  0  0  0  0  0  0  0  0  0  0
   15.1823   24.1314   16.5816 C   0  0  0  0  0  0  0  0  0  0  0  0
  1  2  2  0
  1  3  1  0
  3  4  1  0
  2  5  1  0
  4  5  2  0
  3  6  2  0
  6  7  1  0
  2  8  1  0
  8  9  2  0
  4 10  1  0
  7 10  2  0
  9 11  1  0
  9 12  1  0
 10 13  1  0
 13 14  2  0
 12 15  1  0
 14 16  1  0
 11 17  1  0
 16 18  1  0
 15 19  1  0
 18 20  1  0
 15 21  2  0
 20 22  2  0
 13 23  1  0
 11 24  2  0
 21 24  1  0
 22 25  1  0
  5 26  1  0
 12 26  2  0
 22 27  1  0
 16 28  1  0
 23 28  2  0
 25 29  1  0
 25 30  2  0
 29 31  2  0
 18 32  2  0
 30 33  1  0
 31 34  1  0
 34 35  1  0
 30 36  1  0
 34 36  2  0
 32 37  1  0
 27 38  2  0
 32 38  1  0
 19 39  2  0
 37 39  1  0
 35 40  1  0
M  END
>  <ID>  (1) 
conformer_0

$$$$
