
     RDKit          3D

 41 50  0  0  0  0  0  0  0  0999 V2000
    8.2984   14.6561   16.8977 C   0  0  0  0  0  0  0  0  0  0  0  0
    9.2832   15.3942   16.7174 N   0  0  0  0  0  0  0  0  0  0  0  0
    9.5263   16.4826   17.5326 C   0  0  0  0  0  0  0  0  0  0  0  0
   10.0166   15.2884   15.4898 C   0  0  0  0  0  0  0  0  0  0  0  0
    7.8744   13.6601   15.9915 C   0  0  0  0  0  0  0  0  0  0  0  0
    8.9570   16.5148   18.5472 O   0  0  0  0  0  0  0  0  0  0  0  0
   10.6460   17.3352   17.0802 N   0  0  0  0  0  0  0  0  0  0  0  0
   11.0474   16.1054   15.0963 C   0  0  0  0  0  0  0  0  0  0  0  0
   11.8037   15.8759   13.8495 C   0  0  0  0  0  0  0  0  0  0  0  0
    8.7253   13.1737   14.9848 C   0  0  0  0  0  0  0  0  0  0  0  0
    8.3018   12.0304   14.1707 C   0  0  0  0  0  0  0  0  0  0  0  0
   11.4367   14.7896   13.1292 C   0  0  0  0  0  0  0  0  0  0  0  0
    8.7751   11.5837   12.9562 C   0  0  0  0  0  0  0  0  0  0  0  0
    7.3927   11.1569   14.7968 N   0  0  0  0  0  0  0  0  0  0  0  0
    9.7419   12.1009   12.1058 C   0  0  0  0  0  0  0  0  0  0  0  0
    9.7873   14.0284   14.6231 C   0  0  0  0  0  0  0  0  0  0  0  0
   11.3258   17.2900   15.9234 C   0  0  0  0  0  0  0  0  0  0  0  0
   10.8552   13.8559   13.5542 C   0  0  0  0  0  0  0  0  0  0  0  0
    6.6261   11.4047   15.8720 C   0  0  0  0  0  0  0  0  0  0  0  0
   12.8703   16.9198   13.5229 C   0  0  0  0  0  0  0  0  0  0  0  0
   12.2696   18.3765   15.7327 C   0  0  0  0  0  0  0  0  0  0  0  0
   12.9378   18.1202   14.4581 C   0  0  0  0  0  0  0  0  0  0  0  0
    9.9951   11.4697   10.8884 C   0  0  0  0  0  0  0  0  0  0  0  0
   10.5379   13.0439   12.6867 N   0  0  0  0  0  0  0  0  0  0  0  0
    9.2662   10.4819   10.3961 C   0  0  0  0  0  0  0  0  0  0  0  0
   13.5626   16.8463   12.4386 C   0  0  0  0  0  0  0  0  0  0  0  0
    9.7047    9.8962    9.1644 C   0  0  0  0  0  0  0  0  0  0  0  0
    9.2035    8.8373    8.7131 C   0  0  0  0  0  0  0  0  0  0  0  0
    8.1260   10.4116   12.4540 N   0  0  0  0  0  0  0  0  0  0  0  0
    6.8994   12.6934   16.5456 C   0  0  0  0  0  0  0  0  0  0  0  0
    8.4160    9.9109   11.2660 C   0  0  0  0  0  0  0  0  0  0  0  0
    9.7020    8.3214    7.4495 C   0  0  0  0  0  0  0  0  0  0  0  0
   13.4722   15.7874   11.5576 C   0  0  0  0  0  0  0  0  0  0  0  0
   10.7413   10.6212    8.3680 C   0  0  0  0  0  0  0  0  0  0  0  0
   11.3473   11.8309    8.8900 C   0  0  0  0  0  0  0  0  0  0  0  0
   14.1539   15.5964   10.4223 O   0  0  0  0  0  0  0  0  0  0  0  0
   10.6787    8.9501    6.7411 C   0  0  0  0  0  0  0  0  0  0  0  0
   14.4137   18.2086   14.8229 O   0  0  0  0  0  0  0  0  0  0  0  0
   11.0787   12.0873   10.1427 N   0  0  0  0  0  0  0  0  0  0  0  0
   11.2188   10.1292    7.2060 C   0  0  0  0  0  0  0  0  0  0  0  0
   12.4430   14.6922   11.7740 C   0  0  0  0  0  0  0  0  0  0  0  0
  1  2  1  0
  2  3  1  0
  2  4  1  0
  1  5  1  0
  3  6  2  0
  3  7  1  0
  4  8  2  0
  8  9  1  0
  5 10  1  0
 10 11  1  0
  9 12  2  0
 11 13  1  0
 11 14  2  0
 13 15  1  0
  4 16  1  0
 10 16  2  0
  7 17  2  0
  8 17  1  0
 12 18  1  0
 16 18  1  0
 14 19  1  0
  9 20  1  0
 17 21  1  0
 20 22  1  0
 21 22  1  0
 15 23  2  0
 15 24  1  0
 18 24  2  0
 23 25  1  0
 20 26  2  0
 25 27  1  0
 27 28  2  0
 13 29  2  0
  5 30  2  0
 19 30  2  0
 25 31  2  0
 29 31  1  0
 28 32  1  0
 26 33  1  0
 27 34  1  0
 34 35  1  0
 33 36  1  0
 32 37  2  0
 22 38  1  0
 23 39  1  0
 35 39  2  0
 34 40  2  0
 37 40  1  0
 12 41  1  0
 33 41  2  0
M  END
>  <ID>  (1) 
conformer_0

$$$$
