
     RDKit          3D

 39 44  0  0  0  0  0  0  0  0999 V2000
    8.2984   14.6561   16.8977 C   0  0  0  0  0  0  0  0  0  0  0  0
    9.2832   15.3942   16.7174 N   0  0  0  0  0  0  0  0  0  0  0  0
    9.5263   16.4826   17.5326 C   0  0  0  0  0  0  0  0  0  0  0  0
   10.0166   15.2884   15.4898 C   0  0  0  0  0  0  0  0  0  0  0  0
    7.8744   13.6601   15.9915 C   0  0  0  0  0  0  0  0  0  0  0  0
    8.9570   16.5148   18.5472 O   0  0  0  0  0  0  0  0  0  0  0  0
   10.6460   17.3352   17.0802 N   0  0  0  0  0  0  0  0  0  0  0  0
   11.0474   16.1054   15.0963 C   0  0  0  0  0  0  0  0  0  0  0  0
   11.8037   15.8759   13.8495 C   0  0  0  0  0  0  0  0  0  0  0  0
    8.7253   13.1737   14.9848 C   0  0  0  0  0  0  0  0  0  0  0  0
    8.3018   12.0304   14.1707 C   0  0  0  0  0  0  0  0  0  0  0  0
   11.4367   14.7896   13.1292 N   0  0  0  0  0  0  0  0  0  0  0  0
   11.3690   17.3542   15.9810 C   0  0  0  0  0  0  0  0  0  0  0  0
    8.7502   11.5693   12.9447 C   0  0  0  0  0  0  0  0  0  0  0  0
    9.7639   12.1296   12.1826 N   0  0  0  0  0  0  0  0  0  0  0  0
    7.2282   11.3058   14.8271 C   0  0  0  0  0  0  0  0  0  0  0  0
   10.1909   11.6402   11.0094 C   0  0  0  0  0  0  0  0  0  0  0  0
   11.1349   12.1832   10.1264 N   0  0  0  0  0  0  0  0  0  0  0  0
   12.9775   16.7085   13.4825 C   0  0  0  0  0  0  0  0  0  0  0  0
   12.9034   17.7027   12.8911 N   0  0  0  0  0  0  0  0  0  0  0  0
   14.1367   15.9714   13.4170 O   0  0  0  0  0  0  0  0  0  0  0  0
    9.8933   14.0481   14.4702 C   0  0  0  0  0  0  0  0  0  0  0  0
    6.8473   12.8260   16.4970 C   0  0  0  0  0  0  0  0  0  0  0  0
    6.5632   11.6575   15.6760 N   0  0  0  0  0  0  0  0  0  0  0  0
    9.5949   10.4059   10.4752 C   0  0  0  0  0  0  0  0  0  0  0  0
   11.7410   18.4746   15.4080 O   0  0  0  0  0  0  0  0  0  0  0  0
   10.0243    9.9006    9.2701 C   0  0  0  0  0  0  0  0  0  0  0  0
    9.5511    8.7474    8.6938 C   0  0  0  0  0  0  0  0  0  0  0  0
   10.9824   10.7853    8.6470 C   0  0  0  0  0  0  0  0  0  0  0  0
   11.6409   18.3985   12.5812 C   0  0  0  0  0  0  0  0  0  0  0  0
    8.5465   10.0984   11.3896 C   0  0  0  0  0  0  0  0  0  0  0  0
   14.0747   18.4291   12.3352 C   0  0  0  0  0  0  0  0  0  0  0  0
   11.4554   11.8374    9.0820 C   0  0  0  0  0  0  0  0  0  0  0  0
   10.6610   13.9697   13.4837 C   0  0  0  0  0  0  0  0  0  0  0  0
   13.9282   18.8360   10.9931 C   0  0  0  0  0  0  0  0  0  0  0  0
    8.2386   10.4839   12.4974 C   0  0  0  0  0  0  0  0  0  0  0  0
   14.9661   19.4740   10.3862 C   0  0  0  0  0  0  0  0  0  0  0  0
   15.0043   19.6193    9.0841 O   0  0  0  0  0  0  0  0  0  0  0  0
   16.0855   19.7921   11.0101 O   0  0  0  0  0  0  0  0  0  0  0  0
  1  2  1  0
  2  3  1  0
  2  4  1  0
  1  5  1  0
  3  6  2  0
  3  7  1  0
  4  8  2  0
  8  9  1  0
  5 10  1  0
 10 11  1  0
  9 12  2  0
  7 13  1  0
  8 13  1  0
 11 14  1  0
 14 15  1  0
 11 16  2  0
 15 17  2  0
 17 18  1  0
  9 19  1  0
 19 20  1  0
 19 21  2  0
  4 22  1  0
 10 22  2  0
  5 23  2  0
 16 24  1  0
 23 24  1  0
 17 25  1  0
 13 26  2  0
 25 27  1  0
 27 28  1  0
 27 29  2  0
 20 30  1  0
 25 31  2  0
 20 32  1  0
 18 33  2  0
 29 33  1  0
 12 34  1  0
 22 34  1  0
 32 35  1  0
 14 36  2  0
 31 36  1  0
 35 37  1  0
 37 38  2  0
 37 39  1  0
M  END
>  <ID>  (1) 
conformer_0

$$$$
