
     RDKit          3D

 43 52  0  0  0  0  0  0  0  0999 V2000
    7.6643   10.8695   13.4813 N   0  0  0  0  0  0  0  0  0  0  0  0
    8.5209   11.2829   12.7515 C   0  0  0  0  0  0  0  0  0  0  0  0
    9.2682   12.3298   13.1486 C   0  0  0  0  0  0  0  0  0  0  0  0
    8.7576   10.6989   11.4689 N   0  0  0  0  0  0  0  0  0  0  0  0
    9.0799   12.9892   14.3596 C   0  0  0  0  0  0  0  0  0  0  0  0
    9.8955   10.9947   10.8274 C   0  0  0  0  0  0  0  0  0  0  0  0
   10.1391   10.2378    9.6358 C   0  0  0  0  0  0  0  0  0  0  0  0
   10.2195   13.0027   12.1787 C   0  0  0  0  0  0  0  0  0  0  0  0
   10.5494   12.2178   11.0473 C   0  0  0  0  0  0  0  0  0  0  0  0
    9.8991   14.0941   14.7415 N   0  0  0  0  0  0  0  0  0  0  0  0
   11.0865   14.0394   12.5655 C   0  0  0  0  0  0  0  0  0  0  0  0
    9.4026    9.2138    9.2452 C   0  0  0  0  0  0  0  0  0  0  0  0
   12.0305   14.6685   11.8008 C   0  0  0  0  0  0  0  0  0  0  0  0
    9.7275   14.6874   16.0481 C   0  0  0  0  0  0  0  0  0  0  0  0
   12.8266   15.6708   12.3197 C   0  0  0  0  0  0  0  0  0  0  0  0
   10.9008   14.6155   13.8993 C   0  0  0  0  0  0  0  0  0  0  0  0
    8.1087   12.5020   15.2198 C   0  0  0  0  0  0  0  0  0  0  0  0
    7.8436   13.1360   16.5361 C   0  0  0  0  0  0  0  0  0  0  0  0
   11.2202   10.6471    8.7585 C   0  0  0  0  0  0  0  0  0  0  0  0
   10.2868   15.8641   16.3363 C   0  0  0  0  0  0  0  0  0  0  0  0
   13.8079   16.3405   11.3825 C   0  0  0  0  0  0  0  0  0  0  0  0
    7.3787   11.4604   14.7941 C   0  0  0  0  0  0  0  0  0  0  0  0
   14.6534   15.6594   10.8763 O   0  0  0  0  0  0  0  0  0  0  0  0
    9.6402    8.4319    8.1420 C   0  0  0  0  0  0  0  0  0  0  0  0
    9.7281   16.6614   17.2492 O   0  0  0  0  0  0  0  0  0  0  0  0
   10.7754    8.7991    7.3085 C   0  0  0  0  0  0  0  0  0  0  0  0
    8.6539   14.1167   16.7418 C   0  0  0  0  0  0  0  0  0  0  0  0
   13.8176   17.6183   11.3753 N   0  0  0  0  0  0  0  0  0  0  0  0
   12.7561   18.5229   12.0471 C   0  0  0  0  0  0  0  0  0  0  0  0
   12.8456   16.0278   13.7285 C   0  0  0  0  0  0  0  0  0  0  0  0
   13.0227   19.8801   11.9547 C   0  0  0  0  0  0  0  0  0  0  0  0
   11.5801    9.8724    7.6032 C   0  0  0  0  0  0  0  0  0  0  0  0
   13.4356   20.4670   13.2784 C   0  0  0  0  0  0  0  0  0  0  0  0
   13.7215   21.7345   13.4800 N   0  0  0  0  0  0  0  0  0  0  0  0
   13.6082   17.0213   14.2668 C   0  0  0  0  0  0  0  0  0  0  0  0
   11.5460   16.0088   15.8266 O   0  0  0  0  0  0  0  0  0  0  0  0
   11.6869   15.5801   14.4670 C   0  0  0  0  0  0  0  0  0  0  0  0
   13.7995   19.6409   14.3692 C   0  0  0  0  0  0  0  0  0  0  0  0
   14.2653   22.1499   14.6032 C   0  0  0  0  0  0  0  0  0  0  0  0
   14.4459   21.3167   15.4854 N   0  0  0  0  0  0  0  0  0  0  0  0
   14.2074   20.0025   15.5507 C   0  0  0  0  0  0  0  0  0  0  0  0
   13.1515   18.2138   13.9279 C   0  0  0  0  0  0  0  0  0  0  0  0
   14.4810   23.5525   14.7678 N   0  0  0  0  0  0  0  0  0  0  0  0
  1  2  2  0
  2  3  1  0
  2  4  1  0
  3  5  2  0
  4  6  1  0
  6  7  1  0
  3  8  1  0
  6  9  2  0
  8  9  1  0
  5 10  1  0
  8 11  2  0
  7 12  1  0
 11 13  1  0
 10 14  1  0
 13 15  2  0
 10 16  1  0
 11 16  1  0
  5 17  1  0
 17 18  1  0
  7 19  2  0
 14 20  1  0
 15 21  1  0
  1 22  1  0
 17 22  2  0
 21 23  2  0
 12 24  2  0
 20 25  2  0
 24 26  1  0
 14 27  2  0
 18 27  1  0
 21 28  1  0
 28 29  1  0
 15 30  1  0
 29 31  1  0
 19 32  1  0
 26 32  2  0
 31 33  1  0
 33 34  2  0
 30 35  1  0
 20 36  1  0
 16 37  1  0
 30 37  2  0
 36 37  1  0
 33 38  1  0
 34 39  1  0
 39 40  2  0
 38 41  2  0
 40 41  1  0
 29 42  1  0
 35 42  1  0
 38 42  1  0
 39 43  1  0
M  END
>  <ID>  (1) 
conformer_0

$$$$
