
     RDKit          3D

 40 47  0  0  0  0  0  0  0  0999 V2000
    7.4227   10.7966   14.1645 N   0  0  0  0  0  0  0  0  0  0  0  0
    8.2987   11.1556   13.3423 C   0  0  0  0  0  0  0  0  0  0  0  0
    9.1691   12.1537   13.4800 C   0  0  0  0  0  0  0  0  0  0  0  0
    9.0186   13.0237   14.5867 C   0  0  0  0  0  0  0  0  0  0  0  0
    9.8138   14.1326   14.7754 N   0  0  0  0  0  0  0  0  0  0  0  0
   10.0679   12.5709   12.4146 C   0  0  0  0  0  0  0  0  0  0  0  0
    8.1132   12.7091   15.5320 C   0  0  0  0  0  0  0  0  0  0  0  0
    9.6027   14.6513   16.0264 C   0  0  0  0  0  0  0  0  0  0  0  0
   10.0737   15.7410   16.7177 C   0  0  0  0  0  0  0  0  0  0  0  0
   10.0617   11.8560   11.2291 C   0  0  0  0  0  0  0  0  0  0  0  0
   10.9448   16.5919   15.9739 C   0  0  0  0  0  0  0  0  0  0  0  0
   11.3567   16.5070   14.7794 N   0  0  0  0  0  0  0  0  0  0  0  0
    9.3720   16.2440   17.5873 O   0  0  0  0  0  0  0  0  0  0  0  0
   12.3157   17.2559   14.2055 C   0  0  0  0  0  0  0  0  0  0  0  0
    8.3670   10.5006   12.0568 N   0  0  0  0  0  0  0  0  0  0  0  0
   10.9828   12.1501   10.1804 C   0  0  0  0  0  0  0  0  0  0  0  0
    9.2046   10.7866   11.0807 C   0  0  0  0  0  0  0  0  0  0  0  0
   11.8095   13.3133   10.1313 C   0  0  0  0  0  0  0  0  0  0  0  0
    7.2171   11.6596   15.2791 C   0  0  0  0  0  0  0  0  0  0  0  0
    9.2601   10.1084    9.9851 N   0  0  0  0  0  0  0  0  0  0  0  0
   10.8975   11.4638    9.0099 C   0  0  0  0  0  0  0  0  0  0  0  0
   11.7561   11.8275    7.9811 C   0  0  0  0  0  0  0  0  0  0  0  0
   11.6917   17.6050   16.7517 C   0  0  0  0  0  0  0  0  0  0  0  0
   12.5948   16.9880   12.7322 C   0  0  0  0  0  0  0  0  0  0  0  0
   13.8491   16.5458   12.4863 C   0  0  0  0  0  0  0  0  0  0  0  0
   11.8451   11.0549    6.8147 N   0  0  0  0  0  0  0  0  0  0  0  0
    8.1935   13.6145   16.8352 S   0  0  0  0  0  0  0  0  0  0  0  0
    9.9932   10.3926    8.9442 C   0  0  0  0  0  0  0  0  0  0  0  0
   12.4558   13.0136    8.2163 C   0  0  0  0  0  0  0  0  0  0  0  0
   11.7143   14.2383   11.4243 C   0  0  0  0  0  0  0  0  0  0  0  0
   12.2827   18.2899   12.0604 C   0  0  0  0  0  0  0  0  0  0  0  0
   13.3511   13.3809    7.0141 O   0  0  0  0  0  0  0  0  0  0  0  0
   13.4525   19.1827   11.9975 C   0  0  0  0  0  0  0  0  0  0  0  0
   13.2827   20.5169   12.0430 O   0  0  0  0  0  0  0  0  0  0  0  0
   13.0246   18.1475   14.8906 C   0  0  0  0  0  0  0  0  0  0  0  0
   14.6823   18.7559   11.9497 N   0  0  0  0  0  0  0  0  0  0  0  0
   12.6767   18.4062   16.2102 C   0  0  0  0  0  0  0  0  0  0  0  0
   12.5608   13.7591    9.1165 C   0  0  0  0  0  0  0  0  0  0  0  0
   11.0720   13.5700   12.6091 C   0  0  0  0  0  0  0  0  0  0  0  0
   14.7074   17.3882   11.5499 C   0  0  0  0  0  0  0  0  0  0  0  0
  1  2  2  0
  2  3  1  0
  3  4  2  0
  4  5  1  0
  3  6  1  0
  4  7  1  0
  5  8  2  0
  8  9  1  0
  6 10  2  0
  9 11  1  0
 11 12  2  0
  9 13  2  0
 12 14  1  0
  2 15  1  0
 10 16  1  0
 10 17  1  0
 15 17  1  0
 16 18  1  0
  1 19  1  0
  7 19  2  0
 17 20  2  0
 16 21  2  0
 21 22  1  0
 11 23  1  0
 14 24  1  0
 24 25  1  0
 22 26  1  0
  7 27  1  0
  8 27  1  0
 20 28  1  0
 21 28  1  0
 22 29  2  0
 18 30  1  0
 24 31  1  0
 29 32  1  0
 31 33  1  0
 33 34  2  0
 14 35  2  0
 33 36  1  0
 23 37  2  0
 35 37  1  0
 18 38  2  0
 29 38  1  0
  6 39  1  0
 30 39  2  0
 25 40  1  0
 36 40  1  0
M  END
>  <ID>  (1) 
conformer_0

$$$$
