
     RDKit          3D

 36 43  0  0  0  0  0  0  0  0999 V2000
    7.6643   10.8695   13.4813 N   0  0  0  0  0  0  0  0  0  0  0  0
    8.5209   11.2829   12.7515 C   0  0  0  0  0  0  0  0  0  0  0  0
    9.2682   12.3298   13.1486 C   0  0  0  0  0  0  0  0  0  0  0  0
    8.7576   10.6989   11.4689 N   0  0  0  0  0  0  0  0  0  0  0  0
    9.0799   12.9892   14.3596 C   0  0  0  0  0  0  0  0  0  0  0  0
    9.8955   10.9947   10.8274 C   0  0  0  0  0  0  0  0  0  0  0  0
   10.1391   10.2378    9.6358 C   0  0  0  0  0  0  0  0  0  0  0  0
   10.2195   13.0027   12.1787 C   0  0  0  0  0  0  0  0  0  0  0  0
   10.5494   12.2178   11.0473 C   0  0  0  0  0  0  0  0  0  0  0  0
    9.8991   14.0941   14.7415 N   0  0  0  0  0  0  0  0  0  0  0  0
   11.0865   14.0394   12.5655 C   0  0  0  0  0  0  0  0  0  0  0  0
    9.4026    9.2138    9.2452 C   0  0  0  0  0  0  0  0  0  0  0  0
   12.0305   14.6685   11.8008 C   0  0  0  0  0  0  0  0  0  0  0  0
    9.7275   14.6874   16.0481 C   0  0  0  0  0  0  0  0  0  0  0  0
   12.8266   15.6708   12.3197 C   0  0  0  0  0  0  0  0  0  0  0  0
   10.9008   14.6155   13.8993 C   0  0  0  0  0  0  0  0  0  0  0  0
    8.1087   12.5020   15.2198 C   0  0  0  0  0  0  0  0  0  0  0  0
    7.8436   13.1360   16.5361 C   0  0  0  0  0  0  0  0  0  0  0  0
   11.2202   10.6471    8.7585 C   0  0  0  0  0  0  0  0  0  0  0  0
   10.2868   15.8641   16.3363 C   0  0  0  0  0  0  0  0  0  0  0  0
   13.8079   16.3405   11.3825 C   0  0  0  0  0  0  0  0  0  0  0  0
    8.7085   14.1479   16.8653 C   0  0  0  0  0  0  0  0  0  0  0  0
   11.5013   16.3352   15.8110 C   0  0  0  0  0  0  0  0  0  0  0  0
   11.3423    9.6829    7.6346 C   0  0  0  0  0  0  0  0  0  0  0  0
    9.5360   17.0564   16.4069 O   0  0  0  0  0  0  0  0  0  0  0  0
    7.3830   11.4627   14.7838 C   0  0  0  0  0  0  0  0  0  0  0  0
   12.5000   16.1669   13.6172 C   0  0  0  0  0  0  0  0  0  0  0  0
   11.6704   15.6660   14.3876 C   0  0  0  0  0  0  0  0  0  0  0  0
   12.4928   10.1004    6.7617 O   0  0  0  0  0  0  0  0  0  0  0  0
   10.4719    8.8009    7.5073 C   0  0  0  0  0  0  0  0  0  0  0  0
   13.8770   17.6194   11.3456 C   0  0  0  0  0  0  0  0  0  0  0  0
   13.6481   10.3672    7.4118 C   0  0  0  0  0  0  0  0  0  0  0  0
   13.4159   18.2677   12.5247 C   0  0  0  0  0  0  0  0  0  0  0  0
   13.3707   17.5382   13.7655 C   0  0  0  0  0  0  0  0  0  0  0  0
    9.5606    8.4462    8.2708 C   0  0  0  0  0  0  0  0  0  0  0  0
   12.2842   19.1083   12.3818 C   0  0  0  0  0  0  0  0  0  0  0  0
  1  2  2  0
  2  3  1  0
  2  4  1  0
  3  5  2  0
  4  6  1  0
  6  7  1  0
  3  8  1  0
  6  9  2  0
  8  9  1  0
  5 10  1  0
  8 11  2  0
  7 12  1  0
 11 13  1  0
 10 14  1  0
 13 15  2  0
 10 16  1  0
 11 16  1  0
  5 17  1  0
 17 18  1  0
  7 19  2  0
 14 20  1  0
 15 21  1  0
 14 22  1  0
 18 22  1  0
 20 23  1  0
 19 24  1  0
 20 25  1  0
  1 26  1  0
 17 26  2  0
 15 27  1  0
 16 28  2  0
 23 28  1  0
 27 28  1  0
 24 29  1  0
 24 30  2  0
 21 31  1  0
 29 32  1  0
 31 33  1  0
 27 34  1  0
 33 34  1  0
 12 35  2  0
 30 35  1  0
 33 36  1  0
M  END
>  <ID>  (1) 
conformer_0

$$$$
