
     RDKit          3D

 33 38  0  0  0  0  0  0  0  0999 V2000
    7.4227   10.7966   14.1645 N   0  0  0  0  0  0  0  0  0  0  0  0
    8.2987   11.1556   13.3423 C   0  0  0  0  0  0  0  0  0  0  0  0
    9.1691   12.1537   13.4800 C   0  0  0  0  0  0  0  0  0  0  0  0
    9.0186   13.0237   14.5867 C   0  0  0  0  0  0  0  0  0  0  0  0
    9.8138   14.1326   14.7754 N   0  0  0  0  0  0  0  0  0  0  0  0
   10.0679   12.5709   12.4146 C   0  0  0  0  0  0  0  0  0  0  0  0
    8.1132   12.7091   15.5320 C   0  0  0  0  0  0  0  0  0  0  0  0
    9.6027   14.6513   16.0264 C   0  0  0  0  0  0  0  0  0  0  0  0
   10.0737   15.7410   16.7177 C   0  0  0  0  0  0  0  0  0  0  0  0
   10.0617   11.8560   11.2291 C   0  0  0  0  0  0  0  0  0  0  0  0
   10.9448   16.5919   15.9739 C   0  0  0  0  0  0  0  0  0  0  0  0
   11.3567   16.5070   14.7794 N   0  0  0  0  0  0  0  0  0  0  0  0
    9.3720   16.2440   17.5873 O   0  0  0  0  0  0  0  0  0  0  0  0
   12.3157   17.2559   14.2055 C   0  0  0  0  0  0  0  0  0  0  0  0
    8.3670   10.5006   12.0568 N   0  0  0  0  0  0  0  0  0  0  0  0
   10.9828   12.1501   10.1804 C   0  0  0  0  0  0  0  0  0  0  0  0
    9.2046   10.7866   11.0807 C   0  0  0  0  0  0  0  0  0  0  0  0
   11.8095   13.3133   10.1313 C   0  0  0  0  0  0  0  0  0  0  0  0
   11.0510   11.4904    9.0382 C   0  0  0  0  0  0  0  0  0  0  0  0
    7.2484   11.6570   15.3052 C   0  0  0  0  0  0  0  0  0  0  0  0
    8.1513   13.6014   16.8032 S   0  0  0  0  0  0  0  0  0  0  0  0
   12.9657   18.1222   14.9511 C   0  0  0  0  0  0  0  0  0  0  0  0
   11.7468   17.6844   16.7222 N   0  0  0  0  0  0  0  0  0  0  0  0
   12.6636   17.0176   12.7857 C   0  0  0  0  0  0  0  0  0  0  0  0
    9.2472   10.0219    9.9530 C   0  0  0  0  0  0  0  0  0  0  0  0
   12.5987   18.4097   16.1437 C   0  0  0  0  0  0  0  0  0  0  0  0
   11.9202   14.1781   11.2909 O   0  0  0  0  0  0  0  0  0  0  0  0
   11.8550   11.9246    8.0628 C   0  0  0  0  0  0  0  0  0  0  0  0
   10.1359   10.3830    8.9009 C   0  0  0  0  0  0  0  0  0  0  0  0
   11.7764   17.5083   11.8372 C   0  0  0  0  0  0  0  0  0  0  0  0
   12.3747   13.6835    8.9201 C   0  0  0  0  0  0  0  0  0  0  0  0
   12.0735   18.9141   11.5891 N   0  0  0  0  0  0  0  0  0  0  0  0
   12.5446   12.9206    8.1106 C   0  0  0  0  0  0  0  0  0  0  0  0
  1  2  2  0
  2  3  1  0
  3  4  2  0
  4  5  1  0
  3  6  1  0
  4  7  1  0
  5  8  2  0
  8  9  1  0
  6 10  2  0
  9 11  1  0
 11 12  2  0
  9 13  2  0
 12 14  1  0
  2 15  1  0
 10 16  1  0
 10 17  1  0
 15 17  1  0
 16 18  1  0
 16 19  2  0
  1 20  1  0
  7 20  2  0
  7 21  1  0
  8 21  1  0
 14 22  2  0
 11 23  1  0
 14 24  1  0
 17 25  2  0
 22 26  1  0
 23 26  2  0
 18 27  1  0
 19 28  1  0
 19 29  1  0
 25 29  1  0
 24 30  1  0
 18 31  2  0
 30 32  1  0
 28 33  2  0
 31 33  1  0
M  END
>  <ID>  (1) 
conformer_0

$$$$
