
     RDKit          3D

 34 40  0  0  0  0  0  0  0  0999 V2000
    7.4227   10.7966   14.1645 N   0  0  0  0  0  0  0  0  0  0  0  0
    8.2987   11.1556   13.3423 C   0  0  0  0  0  0  0  0  0  0  0  0
    9.1691   12.1537   13.4800 C   0  0  0  0  0  0  0  0  0  0  0  0
    9.0186   13.0237   14.5867 C   0  0  0  0  0  0  0  0  0  0  0  0
    9.8138   14.1326   14.7754 N   0  0  0  0  0  0  0  0  0  0  0  0
   10.0679   12.5709   12.4146 C   0  0  0  0  0  0  0  0  0  0  0  0
    8.1132   12.7091   15.5320 C   0  0  0  0  0  0  0  0  0  0  0  0
    9.6027   14.6513   16.0264 C   0  0  0  0  0  0  0  0  0  0  0  0
   10.0737   15.7410   16.7177 C   0  0  0  0  0  0  0  0  0  0  0  0
   10.0617   11.8560   11.2291 C   0  0  0  0  0  0  0  0  0  0  0  0
   10.9448   16.5919   15.9739 C   0  0  0  0  0  0  0  0  0  0  0  0
   11.3567   16.5070   14.7794 N   0  0  0  0  0  0  0  0  0  0  0  0
    9.3720   16.2440   17.5873 O   0  0  0  0  0  0  0  0  0  0  0  0
   12.3157   17.2559   14.2055 C   0  0  0  0  0  0  0  0  0  0  0  0
    8.3670   10.5006   12.0568 N   0  0  0  0  0  0  0  0  0  0  0  0
   10.9828   12.1501   10.1804 C   0  0  0  0  0  0  0  0  0  0  0  0
    9.2046   10.7866   11.0807 C   0  0  0  0  0  0  0  0  0  0  0  0
   11.8095   13.3133   10.1313 C   0  0  0  0  0  0  0  0  0  0  0  0
   11.0510   11.4904    9.0382 C   0  0  0  0  0  0  0  0  0  0  0  0
    7.2134   11.6060   15.3154 C   0  0  0  0  0  0  0  0  0  0  0  0
   12.6979   17.0913   12.8316 C   0  0  0  0  0  0  0  0  0  0  0  0
    8.3682   13.8625   16.8329 S   0  0  0  0  0  0  0  0  0  0  0  0
    9.4049    9.9744   10.0375 C   0  0  0  0  0  0  0  0  0  0  0  0
   13.6237   16.1280   12.5734 C   0  0  0  0  0  0  0  0  0  0  0  0
   11.6243   17.8193   16.5180 C   0  0  0  0  0  0  0  0  0  0  0  0
   12.3822   13.6401    9.0016 N   0  0  0  0  0  0  0  0  0  0  0  0
   12.1510   12.4841    8.1921 C   0  0  0  0  0  0  0  0  0  0  0  0
   13.5063   15.5735   11.1738 C   0  0  0  0  0  0  0  0  0  0  0  0
    8.7300    8.7945    9.7196 N   0  0  0  0  0  0  0  0  0  0  0  0
   12.4740   18.5497   15.8336 C   0  0  0  0  0  0  0  0  0  0  0  0
   12.3649   16.4033   10.7228 N   0  0  0  0  0  0  0  0  0  0  0  0
   11.8745   17.2418   11.7644 C   0  0  0  0  0  0  0  0  0  0  0  0
   12.7706   18.3937   14.6836 N   0  0  0  0  0  0  0  0  0  0  0  0
   10.3437   10.3433    8.9485 C   0  0  0  0  0  0  0  0  0  0  0  0
  1  2  2  0
  2  3  1  0
  3  4  2  0
  4  5  1  0
  3  6  1  0
  4  7  1  0
  5  8  2  0
  8  9  1  0
  6 10  2  0
  9 11  1  0
 11 12  2  0
  9 13  2  0
 12 14  1  0
  2 15  1  0
 10 16  1  0
 10 17  1  0
 15 17  1  0
 16 18  1  0
 16 19  2  0
  1 20  1  0
  7 20  2  0
 14 21  1  0
  7 22  1  0
  8 22  1  0
 17 23  2  0
 21 24  1  0
 11 25  1  0
 18 26  2  0
 19 27  1  0
 26 27  1  0
 24 28  2  0
 23 29  1  0
 25 30  2  0
 28 31  1  0
 21 32  1  0
 31 32  2  0
 14 33  2  0
 30 33  1  0
 19 34  1  0
 23 34  1  0
M  END
>  <ID>  (1) 
conformer_0

$$$$
