
     RDKit          3D

 35 41  0  0  0  0  0  0  0  0999 V2000
    7.4227   10.7966   14.1645 N   0  0  0  0  0  0  0  0  0  0  0  0
    8.2987   11.1556   13.3423 C   0  0  0  0  0  0  0  0  0  0  0  0
    9.1691   12.1537   13.4800 C   0  0  0  0  0  0  0  0  0  0  0  0
    9.0186   13.0237   14.5867 C   0  0  0  0  0  0  0  0  0  0  0  0
    9.8138   14.1326   14.7754 N   0  0  0  0  0  0  0  0  0  0  0  0
   10.0679   12.5709   12.4146 C   0  0  0  0  0  0  0  0  0  0  0  0
    8.1132   12.7091   15.5320 C   0  0  0  0  0  0  0  0  0  0  0  0
    9.6027   14.6513   16.0264 C   0  0  0  0  0  0  0  0  0  0  0  0
   10.0737   15.7410   16.7177 C   0  0  0  0  0  0  0  0  0  0  0  0
   10.0617   11.8560   11.2291 C   0  0  0  0  0  0  0  0  0  0  0  0
   10.9448   16.5919   15.9739 C   0  0  0  0  0  0  0  0  0  0  0  0
   11.3567   16.5070   14.7794 N   0  0  0  0  0  0  0  0  0  0  0  0
    9.3720   16.2440   17.5873 O   0  0  0  0  0  0  0  0  0  0  0  0
   12.3157   17.2559   14.2055 C   0  0  0  0  0  0  0  0  0  0  0  0
    8.3670   10.5006   12.0568 N   0  0  0  0  0  0  0  0  0  0  0  0
   10.9828   12.1501   10.1804 C   0  0  0  0  0  0  0  0  0  0  0  0
    9.2046   10.7866   11.0807 C   0  0  0  0  0  0  0  0  0  0  0  0
   11.8095   13.3133   10.1313 C   0  0  0  0  0  0  0  0  0  0  0  0
    7.2171   11.6596   15.2791 C   0  0  0  0  0  0  0  0  0  0  0  0
    9.2601   10.1084    9.9851 N   0  0  0  0  0  0  0  0  0  0  0  0
   10.8975   11.4638    9.0099 C   0  0  0  0  0  0  0  0  0  0  0  0
   11.7561   11.8275    7.9811 C   0  0  0  0  0  0  0  0  0  0  0  0
   11.6917   17.6050   16.7517 C   0  0  0  0  0  0  0  0  0  0  0  0
   12.5948   16.9880   12.7322 C   0  0  0  0  0  0  0  0  0  0  0  0
   13.8491   16.5458   12.4863 C   0  0  0  0  0  0  0  0  0  0  0  0
   11.8451   11.0549    6.8147 N   0  0  0  0  0  0  0  0  0  0  0  0
   12.5025   13.6832    9.1473 C   0  0  0  0  0  0  0  0  0  0  0  0
   12.3203   18.2566   11.9403 C   0  0  0  0  0  0  0  0  0  0  0  0
   12.7875   18.3250   14.7445 C   0  0  0  0  0  0  0  0  0  0  0  0
    8.3416   13.6580   16.5748 C   0  0  0  0  0  0  0  0  0  0  0  0
   12.5817   12.9886    8.0306 C   0  0  0  0  0  0  0  0  0  0  0  0
   13.4020   18.7041   11.3808 C   0  0  0  0  0  0  0  0  0  0  0  0
   14.3193   17.4560   11.6768 C   0  0  0  0  0  0  0  0  0  0  0  0
   12.5392   18.5912   16.1787 C   0  0  0  0  0  0  0  0  0  0  0  0
    9.9994   10.3923    8.9998 C   0  0  0  0  0  0  0  0  0  0  0  0
  1  2  2  0
  2  3  1  0
  3  4  2  0
  4  5  1  0
  3  6  1  0
  4  7  1  0
  5  8  2  0
  8  9  1  0
  6 10  2  0
  9 11  1  0
 11 12  2  0
  9 13  2  0
 12 14  1  0
  2 15  1  0
 10 16  1  0
 10 17  1  0
 15 17  1  0
 16 18  1  0
  1 19  1  0
  7 19  2  0
 17 20  2  0
 16 21  2  0
 21 22  1  0
 11 23  1  0
 14 24  1  0
 24 25  1  0
 22 26  1  0
 18 27  2  0
 24 28  1  0
 14 29  2  0
  7 30  1  0
  8 30  1  0
 22 31  2  0
 27 31  1  0
 28 32  1  0
 25 33  1  0
 32 33  1  0
 23 34  2  0
 29 34  1  0
 20 35  1  0
 21 35  1  0
M  END
>  <ID>  (1) 
conformer_0

$$$$
