
     RDKit          3D

 42 49  0  0  0  0  0  0  0  0999 V2000
    8.2984   14.6561   16.8977 C   0  0  0  0  0  0  0  0  0  0  0  0
    9.2832   15.3942   16.7174 N   0  0  0  0  0  0  0  0  0  0  0  0
    9.5263   16.4826   17.5326 C   0  0  0  0  0  0  0  0  0  0  0  0
   10.0166   15.2884   15.4898 C   0  0  0  0  0  0  0  0  0  0  0  0
    7.8744   13.6601   15.9915 C   0  0  0  0  0  0  0  0  0  0  0  0
    8.9570   16.5148   18.5472 O   0  0  0  0  0  0  0  0  0  0  0  0
   10.6460   17.3352   17.0802 N   0  0  0  0  0  0  0  0  0  0  0  0
   11.0474   16.1054   15.0963 C   0  0  0  0  0  0  0  0  0  0  0  0
   11.8037   15.8759   13.8495 C   0  0  0  0  0  0  0  0  0  0  0  0
    8.7253   13.1737   14.9848 C   0  0  0  0  0  0  0  0  0  0  0  0
    8.3018   12.0304   14.1707 C   0  0  0  0  0  0  0  0  0  0  0  0
   11.4367   14.7896   13.1292 N   0  0  0  0  0  0  0  0  0  0  0  0
   11.3690   17.3542   15.9810 C   0  0  0  0  0  0  0  0  0  0  0  0
    8.7502   11.5693   12.9447 C   0  0  0  0  0  0  0  0  0  0  0  0
    9.7639   12.1296   12.1826 N   0  0  0  0  0  0  0  0  0  0  0  0
    7.2282   11.3058   14.8271 C   0  0  0  0  0  0  0  0  0  0  0  0
   10.1909   11.6402   11.0094 C   0  0  0  0  0  0  0  0  0  0  0  0
   11.1349   12.1832   10.1264 N   0  0  0  0  0  0  0  0  0  0  0  0
   12.9775   16.7085   13.4825 C   0  0  0  0  0  0  0  0  0  0  0  0
   12.9034   17.7027   12.8911 N   0  0  0  0  0  0  0  0  0  0  0  0
   14.1367   15.9714   13.4170 O   0  0  0  0  0  0  0  0  0  0  0  0
    9.8933   14.0481   14.4702 C   0  0  0  0  0  0  0  0  0  0  0  0
    6.8473   12.8260   16.4970 C   0  0  0  0  0  0  0  0  0  0  0  0
    6.5632   11.6575   15.6760 N   0  0  0  0  0  0  0  0  0  0  0  0
    9.5949   10.4059   10.4752 C   0  0  0  0  0  0  0  0  0  0  0  0
   11.7410   18.4746   15.4080 O   0  0  0  0  0  0  0  0  0  0  0  0
   10.0243    9.9006    9.2701 C   0  0  0  0  0  0  0  0  0  0  0  0
    9.5511    8.7474    8.6938 C   0  0  0  0  0  0  0  0  0  0  0  0
   10.9824   10.7853    8.6470 C   0  0  0  0  0  0  0  0  0  0  0  0
   11.6409   18.3985   12.5812 C   0  0  0  0  0  0  0  0  0  0  0  0
   11.9858   19.7419   12.0529 C   0  0  0  0  0  0  0  0  0  0  0  0
   10.8303   13.8884   13.4262 C   0  0  0  0  0  0  0  0  0  0  0  0
   11.3508   10.0971    7.3452 C   0  0  0  0  0  0  0  0  0  0  0  0
    9.8885    8.2416    7.6116 C   0  0  0  0  0  0  0  0  0  0  0  0
   11.4738   11.9139    9.0186 C   0  0  0  0  0  0  0  0  0  0  0  0
   12.3399   10.7741    6.5018 O   0  0  0  0  0  0  0  0  0  0  0  0
   13.0191   20.3285   12.9100 C   0  0  0  0  0  0  0  0  0  0  0  0
   10.8560    8.9053    6.7929 C   0  0  0  0  0  0  0  0  0  0  0  0
    8.6483    9.9649   11.5194 N   0  0  0  0  0  0  0  0  0  0  0  0
   13.7011   21.4374   12.5846 N   0  0  0  0  0  0  0  0  0  0  0  0
   13.9572   18.9545   12.8957 C   0  0  0  0  0  0  0  0  0  0  0  0
    8.3508   10.4252   12.4892 C   0  0  0  0  0  0  0  0  0  0  0  0
  1  2  1  0
  2  3  1  0
  2  4  1  0
  1  5  1  0
  3  6  2  0
  3  7  1  0
  4  8  2  0
  8  9  1  0
  5 10  1  0
 10 11  1  0
  9 12  2  0
  7 13  1  0
  8 13  1  0
 11 14  1  0
 14 15  1  0
 11 16  2  0
 15 17  2  0
 17 18  1  0
  9 19  1  0
 19 20  1  0
 19 21  2  0
  4 22  1  0
 10 22  2  0
  5 23  2  0
 16 24  1  0
 23 24  1  0
 17 25  1  0
 13 26  2  0
 25 27  1  0
 27 28  1  0
 27 29  2  0
 20 30  1  0
 30 31  1  0
 12 32  1  0
 22 32  1  0
 29 33  1  0
 28 34  2  0
 18 35  2  0
 29 35  1  0
 33 36  1  0
 31 37  1  0
 33 38  2  0
 34 38  1  0
 25 39  2  0
 37 40  1  0
 20 41  1  0
 37 41  1  0
 14 42  2  0
 39 42  1  0
M  END
>  <ID>  (1) 
conformer_0

$$$$
