
     RDKit          3D

 37 45  0  0  0  0  0  0  0  0999 V2000
    8.2984   14.6561   16.8977 C   0  0  0  0  0  0  0  0  0  0  0  0
    9.2832   15.3942   16.7174 N   0  0  0  0  0  0  0  0  0  0  0  0
    9.5263   16.4826   17.5326 C   0  0  0  0  0  0  0  0  0  0  0  0
   10.0166   15.2884   15.4898 C   0  0  0  0  0  0  0  0  0  0  0  0
    7.8744   13.6601   15.9915 C   0  0  0  0  0  0  0  0  0  0  0  0
    8.9570   16.5148   18.5472 O   0  0  0  0  0  0  0  0  0  0  0  0
   10.6460   17.3352   17.0802 N   0  0  0  0  0  0  0  0  0  0  0  0
   11.0474   16.1054   15.0963 C   0  0  0  0  0  0  0  0  0  0  0  0
   11.8037   15.8759   13.8495 C   0  0  0  0  0  0  0  0  0  0  0  0
    8.7253   13.1737   14.9848 C   0  0  0  0  0  0  0  0  0  0  0  0
    8.3018   12.0304   14.1707 C   0  0  0  0  0  0  0  0  0  0  0  0
   11.4367   14.7896   13.1292 C   0  0  0  0  0  0  0  0  0  0  0  0
    8.7751   11.5837   12.9562 C   0  0  0  0  0  0  0  0  0  0  0  0
    7.3927   11.1569   14.7968 N   0  0  0  0  0  0  0  0  0  0  0  0
    9.7419   12.1009   12.1058 C   0  0  0  0  0  0  0  0  0  0  0  0
    9.7873   14.0284   14.6231 C   0  0  0  0  0  0  0  0  0  0  0  0
   11.3258   17.2900   15.9234 C   0  0  0  0  0  0  0  0  0  0  0  0
   10.8552   13.8559   13.5542 C   0  0  0  0  0  0  0  0  0  0  0  0
    6.6261   11.4047   15.8720 C   0  0  0  0  0  0  0  0  0  0  0  0
   12.8703   16.9198   13.5229 C   0  0  0  0  0  0  0  0  0  0  0  0
    6.9218   12.6891   16.4847 C   0  0  0  0  0  0  0  0  0  0  0  0
    8.5639   10.3388   12.4613 N   0  0  0  0  0  0  0  0  0  0  0  0
   14.0278   16.6942   13.8567 C   0  0  0  0  0  0  0  0  0  0  0  0
   12.4901   17.9821   12.6940 C   0  0  0  0  0  0  0  0  0  0  0  0
   12.4150   18.1676   15.8145 C   0  0  0  0  0  0  0  0  0  0  0  0
    8.8794    9.9493   11.3083 C   0  0  0  0  0  0  0  0  0  0  0  0
   10.4783   12.9553   12.4829 N   0  0  0  0  0  0  0  0  0  0  0  0
   10.1146   11.6149   10.9108 C   0  0  0  0  0  0  0  0  0  0  0  0
   15.0443   17.6337   13.5093 C   0  0  0  0  0  0  0  0  0  0  0  0
   11.3895   13.3515   11.4916 C   0  0  0  0  0  0  0  0  0  0  0  0
   13.3779   18.9008   12.2907 C   0  0  0  0  0  0  0  0  0  0  0  0
   12.0836   14.5308   11.8883 N   0  0  0  0  0  0  0  0  0  0  0  0
   12.3325   19.0118   16.7115 O   0  0  0  0  0  0  0  0  0  0  0  0
   13.4805   20.0005   16.8969 C   0  0  0  0  0  0  0  0  0  0  0  0
   14.7049   18.7141   12.7214 C   0  0  0  0  0  0  0  0  0  0  0  0
    9.5992   10.5100   10.4427 C   0  0  0  0  0  0  0  0  0  0  0  0
   11.2420   12.6146   10.2464 C   0  0  0  0  0  0  0  0  0  0  0  0
  1  2  1  0
  2  3  1  0
  2  4  1  0
  1  5  1  0
  3  6  2  0
  3  7  1  0
  4  8  2  0
  8  9  1  0
  5 10  1  0
 10 11  1  0
  9 12  2  0
 11 13  1  0
 11 14  2  0
 13 15  1  0
  4 16  1  0
 10 16  2  0
  7 17  2  0
  8 17  1  0
 12 18  1  0
 16 18  1  0
 14 19  1  0
  9 20  1  0
  5 21  2  0
 19 21  2  0
 13 22  2  0
 20 23  2  0
 20 24  1  0
 17 25  1  0
 22 26  1  0
 15 27  1  0
 18 27  1  0
 15 28  2  0
 23 29  1  0
 27 30  1  0
 24 31  2  0
 12 32  1  0
 30 32  2  0
 25 33  1  0
 33 34  1  0
 29 35  2  0
 31 35  1  0
 26 36  2  0
 28 36  1  0
 28 37  1  0
 30 37  1  0
M  END
>  <ID>  (1) 
conformer_0

$$$$
