
     RDKit          3D

 41 48  0  0  0  0  0  0  0  0999 V2000
    8.2984   14.6561   16.8977 C   0  0  0  0  0  0  0  0  0  0  0  0
    9.2832   15.3942   16.7174 N   0  0  0  0  0  0  0  0  0  0  0  0
    9.5263   16.4826   17.5326 C   0  0  0  0  0  0  0  0  0  0  0  0
   10.0166   15.2884   15.4898 C   0  0  0  0  0  0  0  0  0  0  0  0
    7.8744   13.6601   15.9915 C   0  0  0  0  0  0  0  0  0  0  0  0
    8.9570   16.5148   18.5472 O   0  0  0  0  0  0  0  0  0  0  0  0
   10.6460   17.3352   17.0802 N   0  0  0  0  0  0  0  0  0  0  0  0
   11.0474   16.1054   15.0963 C   0  0  0  0  0  0  0  0  0  0  0  0
   11.8037   15.8759   13.8495 C   0  0  0  0  0  0  0  0  0  0  0  0
    8.7253   13.1737   14.9848 C   0  0  0  0  0  0  0  0  0  0  0  0
    8.3018   12.0304   14.1707 C   0  0  0  0  0  0  0  0  0  0  0  0
   11.4367   14.7896   13.1292 N   0  0  0  0  0  0  0  0  0  0  0  0
   11.3690   17.3542   15.9810 C   0  0  0  0  0  0  0  0  0  0  0  0
    8.7502   11.5693   12.9447 C   0  0  0  0  0  0  0  0  0  0  0  0
    9.7639   12.1296   12.1826 N   0  0  0  0  0  0  0  0  0  0  0  0
    7.2282   11.3058   14.8271 C   0  0  0  0  0  0  0  0  0  0  0  0
   10.1909   11.6402   11.0094 C   0  0  0  0  0  0  0  0  0  0  0  0
   12.9746   16.7154   13.4714 C   0  0  0  0  0  0  0  0  0  0  0  0
    9.9030   14.0565   14.6940 C   0  0  0  0  0  0  0  0  0  0  0  0
    6.3941   11.7305   15.8530 C   0  0  0  0  0  0  0  0  0  0  0  0
    9.6262   10.5594   10.4501 C   0  0  0  0  0  0  0  0  0  0  0  0
   10.7922   13.9295   13.5631 C   0  0  0  0  0  0  0  0  0  0  0  0
    8.2256   10.2481   12.3308 C   0  0  0  0  0  0  0  0  0  0  0  0
    8.7600    9.9609   11.0946 C   0  0  0  0  0  0  0  0  0  0  0  0
   12.6672   17.8058   12.8913 C   0  0  0  0  0  0  0  0  0  0  0  0
   12.8553   19.1159   13.4103 C   0  0  0  0  0  0  0  0  0  0  0  0
    6.8563   12.7782   16.5183 C   0  0  0  0  0  0  0  0  0  0  0  0
   11.9910   18.3797   15.5425 C   0  0  0  0  0  0  0  0  0  0  0  0
   12.9666   20.2262   12.6168 N   0  0  0  0  0  0  0  0  0  0  0  0
   10.2073   10.1070    9.0930 C   0  0  0  0  0  0  0  0  0  0  0  0
    9.6813    9.1343    8.4954 C   0  0  0  0  0  0  0  0  0  0  0  0
   13.4633   21.2574   13.2286 C   0  0  0  0  0  0  0  0  0  0  0  0
   13.4970   21.0585   14.6802 C   0  0  0  0  0  0  0  0  0  0  0  0
   13.8109   21.8049   15.6120 N   0  0  0  0  0  0  0  0  0  0  0  0
    8.6914    8.4069    9.0115 O   0  0  0  0  0  0  0  0  0  0  0  0
   12.8467   19.5765   14.6844 C   0  0  0  0  0  0  0  0  0  0  0  0
   11.2946   10.7836    8.5631 C   0  0  0  0  0  0  0  0  0  0  0  0
   10.2832    8.8222    7.2066 C   0  0  0  0  0  0  0  0  0  0  0  0
   11.1669    9.3560    6.7924 C   0  0  0  0  0  0  0  0  0  0  0  0
   13.8414   22.4518   12.8727 O   0  0  0  0  0  0  0  0  0  0  0  0
   11.7455   10.3999    7.2766 C   0  0  0  0  0  0  0  0  0  0  0  0
  1  2  1  0
  2  3  1  0
  2  4  1  0
  1  5  1  0
  3  6  2  0
  3  7  1  0
  4  8  2  0
  8  9  1  0
  5 10  1  0
 10 11  1  0
  9 12  2  0
  7 13  1  0
  8 13  1  0
 11 14  1  0
 14 15  1  0
 11 16  2  0
 15 17  2  0
  9 18  1  0
  4 19  1  0
 10 19  2  0
 16 20  1  0
 17 21  1  0
 12 22  1  0
 19 22  1  0
 14 23  2  0
 21 24  2  0
 23 24  1  0
 18 25  1  0
 25 26  1  0
  5 27  2  0
 20 27  2  0
 13 28  2  0
 26 29  2  0
 21 30  1  0
 30 31  2  0
 29 32  1  0
 32 33  1  0
 33 34  1  0
 31 35  1  0
 26 36  1  0
 28 36  1  0
 33 36  2  0
 30 37  1  0
 31 38  1  0
 38 39  2  0
 32 40  2  0
 37 41  2  0
 39 41  1  0
M  END
>  <ID>  (1) 
conformer_0

$$$$
