
     RDKit          3D

 40 48  0  0  0  0  0  0  0  0999 V2000
    8.2984   14.6561   16.8977 C   0  0  0  0  0  0  0  0  0  0  0  0
    9.2832   15.3942   16.7174 N   0  0  0  0  0  0  0  0  0  0  0  0
    9.5263   16.4826   17.5326 C   0  0  0  0  0  0  0  0  0  0  0  0
   10.0166   15.2884   15.4898 C   0  0  0  0  0  0  0  0  0  0  0  0
    7.8744   13.6601   15.9915 C   0  0  0  0  0  0  0  0  0  0  0  0
    8.9570   16.5148   18.5472 O   0  0  0  0  0  0  0  0  0  0  0  0
   10.6460   17.3352   17.0802 N   0  0  0  0  0  0  0  0  0  0  0  0
   11.0474   16.1054   15.0963 C   0  0  0  0  0  0  0  0  0  0  0  0
   11.8037   15.8759   13.8495 C   0  0  0  0  0  0  0  0  0  0  0  0
    8.7253   13.1737   14.9848 C   0  0  0  0  0  0  0  0  0  0  0  0
    8.3018   12.0304   14.1707 C   0  0  0  0  0  0  0  0  0  0  0  0
   11.4367   14.7896   13.1292 C   0  0  0  0  0  0  0  0  0  0  0  0
    8.7751   11.5837   12.9562 C   0  0  0  0  0  0  0  0  0  0  0  0
   12.2146   14.4786   11.9053 C   0  0  0  0  0  0  0  0  0  0  0  0
    8.2107   10.4712   12.3907 N   0  0  0  0  0  0  0  0  0  0  0  0
   12.8643   15.4376   11.3750 N   0  0  0  0  0  0  0  0  0  0  0  0
   11.3571   17.2521   16.0192 C   0  0  0  0  0  0  0  0  0  0  0  0
   11.4412   13.6221   11.2001 C   0  0  0  0  0  0  0  0  0  0  0  0
    7.4006    9.8400   13.0581 C   0  0  0  0  0  0  0  0  0  0  0  0
    9.7494   14.1035   14.7032 C   0  0  0  0  0  0  0  0  0  0  0  0
    6.9236   12.7895   16.2499 C   0  0  0  0  0  0  0  0  0  0  0  0
   12.4034   18.1456   15.7571 C   0  0  0  0  0  0  0  0  0  0  0  0
   10.3610   12.9191   11.8732 C   0  0  0  0  0  0  0  0  0  0  0  0
   12.2702   19.0651   14.6396 C   0  0  0  0  0  0  0  0  0  0  0  0
   13.5558   18.2165   16.5270 C   0  0  0  0  0  0  0  0  0  0  0  0
    9.6884   11.8364   11.5361 C   0  0  0  0  0  0  0  0  0  0  0  0
    9.9348   11.0308   10.5913 C   0  0  0  0  0  0  0  0  0  0  0  0
   13.1942   20.0380   14.3846 C   0  0  0  0  0  0  0  0  0  0  0  0
    6.4748   11.6681   15.5182 C   0  0  0  0  0  0  0  0  0  0  0  0
    7.2565   11.3314   14.5120 C   0  0  0  0  0  0  0  0  0  0  0  0
    6.9609   10.2852   14.1486 N   0  0  0  0  0  0  0  0  0  0  0  0
   10.5542   13.9554   13.5064 C   0  0  0  0  0  0  0  0  0  0  0  0
   14.3552   20.0564   15.1705 C   0  0  0  0  0  0  0  0  0  0  0  0
   13.8208   17.2438   17.4530 F   0  0  0  0  0  0  0  0  0  0  0  0
   13.0018   20.9850   13.1840 C   0  0  0  0  0  0  0  0  0  0  0  0
   15.3983   21.0123   14.8367 O   0  0  0  0  0  0  0  0  0  0  0  0
   11.6236   12.8452    9.8936 C   0  0  0  0  0  0  0  0  0  0  0  0
   14.6380   19.0222   16.1672 C   0  0  0  0  0  0  0  0  0  0  0  0
   10.8544   11.5982    9.5941 C   0  0  0  0  0  0  0  0  0  0  0  0
   15.3980   22.1750   15.5813 C   0  0  0  0  0  0  0  0  0  0  0  0
  1  2  1  0
  2  3  1  0
  2  4  1  0
  1  5  1  0
  3  6  2  0
  3  7  1  0
  4  8  2  0
  8  9  1  0
  5 10  1  0
 10 11  1  0
  9 12  2  0
 11 13  1  0
 12 14  1  0
 13 15  2  0
 14 16  1  0
  7 17  2  0
  8 17  1  0
 14 18  1  0
 15 19  1  0
  4 20  1  0
 10 20  2  0
  5 21  2  0
 17 22  1  0
 18 23  2  0
 22 24  2  0
 22 25  1  0
 13 26  1  0
 23 26  1  0
 26 27  2  0
 24 28  1  0
 21 29  1  0
 11 30  1  0
 29 30  1  0
 19 31  1  0
 30 31  2  0
 12 32  1  0
 20 32  1  0
 23 32  1  0
 28 33  2  0
 25 34  1  0
 28 35  1  0
 33 36  1  0
 18 37  1  0
 25 38  2  0
 33 38  1  0
 27 39  1  0
 37 39  2  0
 36 40  1  0
M  END
>  <ID>  (1) 
conformer_0

$$$$
