
     RDKit          3D

 15 17  0  0  0  0  0  0  0  0999 V2000
    7.6155   10.4402   13.6097 N   0  0  0  0  0  0  0  0  0  0  0  0
    8.4109   10.6756   12.5904 C   0  0  0  0  0  0  0  0  0  0  0  0
    9.1422   11.8396   12.6753 C   0  0  0  0  0  0  0  0  0  0  0  0
   10.1130   12.2033   11.6527 C   0  0  0  0  0  0  0  0  0  0  0  0
    8.3782   10.0994   11.4553 N   0  0  0  0  0  0  0  0  0  0  0  0
    9.3880   10.3564   10.5070 C   0  0  0  0  0  0  0  0  0  0  0  0
   10.1863   11.4647   10.6125 C   0  0  0  0  0  0  0  0  0  0  0  0
   10.9657   13.1925   11.7824 C   0  0  0  0  0  0  0  0  0  0  0  0
   11.1560   11.8533    9.7004 N   0  0  0  0  0  0  0  0  0  0  0  0
    7.4413   11.2084   14.6720 C   0  0  0  0  0  0  0  0  0  0  0  0
   11.7193   13.0366   10.4544 N   0  0  0  0  0  0  0  0  0  0  0  0
    6.5115   10.9499   15.5991 N   0  0  0  0  0  0  0  0  0  0  0  0
    8.8997   12.6609   14.0195 C   0  0  0  0  0  0  0  0  0  0  0  0
    8.0863   12.3015   14.9245 N   0  0  0  0  0  0  0  0  0  0  0  0
   12.4314   14.0261    9.9642 C   0  0  0  0  0  0  0  0  0  0  0  0
  1  2  1  0
  2  3  1  0
  3  4  1  0
  2  5  2  0
  5  6  1  0
  4  7  1  0
  6  7  1  0
  4  8  2  0
  7  9  2  0
  1 10  2  0
  8 11  1  0
  9 11  1  0
 10 12  1  0
  3 13  2  0
 10 14  1  0
 13 14  1  0
 11 15  1  0
M  END
>  <ID>  (1) 
conformer_0

$$$$
