
     RDKit          3D

 27 32  0  0  0  0  0  0  0  0999 V2000
    8.2984   14.6561   16.8977 C   0  0  0  0  0  0  0  0  0  0  0  0
    9.2832   15.3942   16.7174 N   0  0  0  0  0  0  0  0  0  0  0  0
    9.5263   16.4826   17.5326 C   0  0  0  0  0  0  0  0  0  0  0  0
   10.0166   15.2884   15.4898 C   0  0  0  0  0  0  0  0  0  0  0  0
    7.8744   13.6601   15.9915 C   0  0  0  0  0  0  0  0  0  0  0  0
    8.9570   16.5148   18.5472 O   0  0  0  0  0  0  0  0  0  0  0  0
   10.6460   17.3352   17.0802 N   0  0  0  0  0  0  0  0  0  0  0  0
   11.0474   16.1054   15.0963 C   0  0  0  0  0  0  0  0  0  0  0  0
   11.8037   15.8759   13.8495 C   0  0  0  0  0  0  0  0  0  0  0  0
    8.7253   13.1737   14.9848 C   0  0  0  0  0  0  0  0  0  0  0  0
    8.3018   12.0304   14.1707 C   0  0  0  0  0  0  0  0  0  0  0  0
   11.4367   14.7896   13.1292 N   0  0  0  0  0  0  0  0  0  0  0  0
   11.3690   17.3542   15.9810 C   0  0  0  0  0  0  0  0  0  0  0  0
    8.7502   11.5693   12.9447 C   0  0  0  0  0  0  0  0  0  0  0  0
    9.7639   12.1296   12.1826 N   0  0  0  0  0  0  0  0  0  0  0  0
    7.2282   11.3058   14.8271 C   0  0  0  0  0  0  0  0  0  0  0  0
    6.9251   10.3327   13.9344 N   0  0  0  0  0  0  0  0  0  0  0  0
    7.9373   10.4715   12.7372 C   0  0  0  0  0  0  0  0  0  0  0  0
    9.7152   14.0342   14.6498 C   0  0  0  0  0  0  0  0  0  0  0  0
   10.0194   11.5435   11.0451 C   0  0  0  0  0  0  0  0  0  0  0  0
   10.6301   12.3048   10.1345 C   0  0  0  0  0  0  0  0  0  0  0  0
   11.8404   18.4401   15.5016 O   0  0  0  0  0  0  0  0  0  0  0  0
    6.6369   11.5459   16.0480 C   0  0  0  0  0  0  0  0  0  0  0  0
    9.2277   10.7144   10.6753 O   0  0  0  0  0  0  0  0  0  0  0  0
   10.6165   13.8929   13.5784 C   0  0  0  0  0  0  0  0  0  0  0  0
    6.9858   12.6574   16.6569 C   0  0  0  0  0  0  0  0  0  0  0  0
   10.4664   13.0191   12.8495 C   0  0  0  0  0  0  0  0  0  0  0  0
  1  2  1  0
  2  3  1  0
  2  4  1  0
  1  5  1  0
  3  6  2  0
  3  7  1  0
  4  8  2  0
  8  9  1  0
  5 10  1  0
 10 11  1  0
  9 12  2  0
  7 13  1  0
  8 13  1  0
 11 14  1  0
 14 15  1  0
 11 16  2  0
 16 17  1  0
 14 18  1  0
 17 18  1  0
  4 19  1  0
 10 19  2  0
 15 20  1  0
 20 21  1  0
 13 22  2  0
 16 23  1  0
 20 24  2  0
 12 25  1  0
 19 25  1  0
  5 26  1  0
 23 26  2  0
 15 27  1  0
 25 27  1  0
M  END
>  <ID>  (1) 
conformer_0

$$$$
