
     RDKit          3D

 13 15  0  0  0  0  0  0  0  0999 V2000
    7.8098   10.6711   12.9741 N   0  0  0  0  0  0  0  0  0  0  0  0
    8.7227   11.3035   12.5138 C   0  0  0  0  0  0  0  0  0  0  0  0
    7.4876   11.1192   14.2321 N   0  0  0  0  0  0  0  0  0  0  0  0
    8.0451   12.0159   14.8914 C   0  0  0  0  0  0  0  0  0  0  0  0
    9.3560   11.0685   11.1846 C   0  0  0  0  0  0  0  0  0  0  0  0
    7.7708   12.6609   16.1247 C   0  0  0  0  0  0  0  0  0  0  0  0
    9.3893   12.4931   13.2755 C   0  0  0  0  0  0  0  0  0  0  0  0
   10.4886   13.1240   12.4473 C   0  0  0  0  0  0  0  0  0  0  0  0
    8.4249   13.6598   16.3951 C   0  0  0  0  0  0  0  0  0  0  0  0
   10.3396   11.7381   10.5942 C   0  0  0  0  0  0  0  0  0  0  0  0
    9.0675   12.7299   14.1974 C   0  0  0  0  0  0  0  0  0  0  0  0
    9.4943   13.8745   15.1471 N   0  0  0  0  0  0  0  0  0  0  0  0
   10.9612   12.7650   11.2533 C   0  0  0  0  0  0  0  0  0  0  0  0
  1  2  1  0
  1  3  2  0
  3  4  1  0
  2  5  1  0
  4  6  1  0
  2  7  2  0
  7  8  1  0
  6  9  2  0
  5 10  2  0
  4 11  2  0
  7 11  1  0
  9 12  1  0
 11 12  1  0
  8 13  2  0
 10 13  1  0
M  END
>  <ID>  (1) 
conformer_0

$$$$
