
     RDKit          3D

 30 34  0  0  0  0  0  0  0  0999 V2000
    7.4227   10.7966   14.1645 N   0  0  0  0  0  0  0  0  0  0  0  0
    8.2987   11.1556   13.3423 C   0  0  0  0  0  0  0  0  0  0  0  0
    9.1691   12.1537   13.4800 C   0  0  0  0  0  0  0  0  0  0  0  0
    9.0186   13.0237   14.5867 C   0  0  0  0  0  0  0  0  0  0  0  0
    9.8138   14.1326   14.7754 N   0  0  0  0  0  0  0  0  0  0  0  0
   10.0679   12.5709   12.4146 C   0  0  0  0  0  0  0  0  0  0  0  0
    8.1132   12.7091   15.5320 C   0  0  0  0  0  0  0  0  0  0  0  0
    9.6027   14.6513   16.0264 C   0  0  0  0  0  0  0  0  0  0  0  0
   10.0737   15.7410   16.7177 C   0  0  0  0  0  0  0  0  0  0  0  0
   10.0617   11.8560   11.2291 C   0  0  0  0  0  0  0  0  0  0  0  0
   10.9448   16.5919   15.9739 C   0  0  0  0  0  0  0  0  0  0  0  0
   11.3567   16.5070   14.7794 N   0  0  0  0  0  0  0  0  0  0  0  0
   11.5056   17.6887   16.7556 N   0  0  0  0  0  0  0  0  0  0  0  0
   10.9370   12.0893   10.1574 C   0  0  0  0  0  0  0  0  0  0  0  0
    7.2525   11.6116   15.2850 C   0  0  0  0  0  0  0  0  0  0  0  0
   12.2389   17.5963   14.5652 C   0  0  0  0  0  0  0  0  0  0  0  0
    8.5528   13.6579   16.7091 C   0  0  0  0  0  0  0  0  0  0  0  0
   12.2662   18.3491   15.7784 C   0  0  0  0  0  0  0  0  0  0  0  0
   13.0519   19.5301   16.0522 C   0  0  0  0  0  0  0  0  0  0  0  0
   12.9144   17.9265   13.3737 C   0  0  0  0  0  0  0  0  0  0  0  0
   13.6902   19.6289   17.1584 O   0  0  0  0  0  0  0  0  0  0  0  0
   11.6538   13.3347   10.1972 C   0  0  0  0  0  0  0  0  0  0  0  0
   10.8349   11.5139    8.9960 C   0  0  0  0  0  0  0  0  0  0  0  0
   11.7241   14.2299   11.1859 C   0  0  0  0  0  0  0  0  0  0  0  0
   13.5922   20.1786   14.9377 O   0  0  0  0  0  0  0  0  0  0  0  0
   13.8498   17.1247   12.9634 C   0  0  0  0  0  0  0  0  0  0  0  0
   11.7457   18.0349   12.2706 C   0  0  0  0  0  0  0  0  0  0  0  0
   11.6372   12.0293    7.9586 C   0  0  0  0  0  0  0  0  0  0  0  0
   12.2524   13.3854    8.5963 C   0  0  0  0  0  0  0  0  0  0  0  0
   11.1973   13.5877   12.4532 C   0  0  0  0  0  0  0  0  0  0  0  0
  1  2  2  0
  2  3  1  0
  3  4  2  0
  4  5  1  0
  3  6  1  0
  4  7  1  0
  5  8  2  0
  8  9  1  0
  6 10  2  0
  9 11  1  0
 11 12  2  0
 11 13  1  0
 10 14  1  0
  1 15  1  0
  7 15  2  0
 12 16  1  0
  7 17  1  0
  8 17  1  0
 13 18  2  0
 16 18  1  0
 18 19  1  0
 16 20  1  0
 19 21  1  0
 14 22  1  0
 14 23  2  0
 22 24  1  0
 19 25  2  0
 20 26  1  0
 20 27  1  0
 23 28  1  0
 22 29  1  0
 28 29  2  0
  6 30  1  0
 24 30  2  0
M  END
>  <ID>  (1) 
conformer_0

$$$$
