
     RDKit          3D

 43 53  0  0  0  0  0  0  0  0999 V2000
    8.2984   14.6561   16.8977 C   0  0  0  0  0  0  0  0  0  0  0  0
    9.2832   15.3942   16.7174 N   0  0  0  0  0  0  0  0  0  0  0  0
    9.5263   16.4826   17.5326 C   0  0  0  0  0  0  0  0  0  0  0  0
   10.0166   15.2884   15.4898 C   0  0  0  0  0  0  0  0  0  0  0  0
    7.8744   13.6601   15.9915 C   0  0  0  0  0  0  0  0  0  0  0  0
    8.9570   16.5148   18.5472 O   0  0  0  0  0  0  0  0  0  0  0  0
   10.6460   17.3352   17.0802 N   0  0  0  0  0  0  0  0  0  0  0  0
   11.0474   16.1054   15.0963 C   0  0  0  0  0  0  0  0  0  0  0  0
   11.8037   15.8759   13.8495 C   0  0  0  0  0  0  0  0  0  0  0  0
    8.7253   13.1737   14.9848 C   0  0  0  0  0  0  0  0  0  0  0  0
    8.3018   12.0304   14.1707 C   0  0  0  0  0  0  0  0  0  0  0  0
   11.4367   14.7896   13.1292 C   0  0  0  0  0  0  0  0  0  0  0  0
    8.7751   11.5837   12.9562 C   0  0  0  0  0  0  0  0  0  0  0  0
    7.3927   11.1569   14.7968 N   0  0  0  0  0  0  0  0  0  0  0  0
    9.7946   14.0306   14.6792 C   0  0  0  0  0  0  0  0  0  0  0  0
    9.7806   12.0711   12.0453 C   0  0  0  0  0  0  0  0  0  0  0  0
   11.3600   17.3349   15.9979 C   0  0  0  0  0  0  0  0  0  0  0  0
   10.1323   11.4101   10.8905 C   0  0  0  0  0  0  0  0  0  0  0  0
    9.4330   10.2902   10.4794 C   0  0  0  0  0  0  0  0  0  0  0  0
    7.0609   10.1546   13.8648 N   0  0  0  0  0  0  0  0  0  0  0  0
   12.2961   14.4502   11.8938 C   0  0  0  0  0  0  0  0  0  0  0  0
    9.7615    9.6440    9.2666 C   0  0  0  0  0  0  0  0  0  0  0  0
    8.0118   10.3876   12.7370 C   0  0  0  0  0  0  0  0  0  0  0  0
   10.6842   13.8423   13.4923 C   0  0  0  0  0  0  0  0  0  0  0  0
    8.3990    9.8085   11.4973 C   0  0  0  0  0  0  0  0  0  0  0  0
   12.9031   16.8201   13.5554 C   0  0  0  0  0  0  0  0  0  0  0  0
   10.4306   13.2081   12.4111 N   0  0  0  0  0  0  0  0  0  0  0  0
   11.4496   13.3446   11.4853 C   0  0  0  0  0  0  0  0  0  0  0  0
    9.1382    8.6385    8.8644 C   0  0  0  0  0  0  0  0  0  0  0  0
   14.1166   16.6302   14.0835 C   0  0  0  0  0  0  0  0  0  0  0  0
   12.7547   17.9149   12.7584 C   0  0  0  0  0  0  0  0  0  0  0  0
   10.7911   10.1409    8.5660 C   0  0  0  0  0  0  0  0  0  0  0  0
   14.9886   17.7233   13.8866 C   0  0  0  0  0  0  0  0  0  0  0  0
    9.4335    7.9071    7.7469 C   0  0  0  0  0  0  0  0  0  0  0  0
   10.5908    8.3919    6.9996 C   0  0  0  0  0  0  0  0  0  0  0  0
   14.7649   18.7439   13.1846 C   0  0  0  0  0  0  0  0  0  0  0  0
   11.8502   18.4163   15.5714 O   0  0  0  0  0  0  0  0  0  0  0  0
   13.5341   18.9494   12.5309 C   0  0  0  0  0  0  0  0  0  0  0  0
   13.3307   20.0415   11.6690 O   0  0  0  0  0  0  0  0  0  0  0  0
   11.5629   11.2904    8.9117 O   0  0  0  0  0  0  0  0  0  0  0  0
   11.2403   12.3608   10.3224 C   0  0  0  0  0  0  0  0  0  0  0  0
   11.3861    9.5528    7.3905 C   0  0  0  0  0  0  0  0  0  0  0  0
   13.3654   21.1800   12.2856 C   0  0  0  0  0  0  0  0  0  0  0  0
  1  2  1  0
  2  3  1  0
  2  4  1  0
  1  5  1  0
  3  6  2  0
  3  7  1  0
  4  8  2  0
  8  9  1  0
  5 10  1  0
 10 11  1  0
  9 12  2  0
 11 13  1  0
 11 14  2  0
  4 15  1  0
 10 15  2  0
 13 16  1  0
  7 17  1  0
  8 17  1  0
 16 18  2  0
 18 19  1  0
 14 20  1  0
 12 21  1  0
 19 22  1  0
 13 23  1  0
 20 23  2  0
 12 24  1  0
 15 24  1  0
 19 25  2  0
 23 25  1  0
  9 26  1  0
 16 27  1  0
 24 27  1  0
 21 28  2  0
 27 28  1  0
 22 29  1  0
 26 30  2  0
 26 31  1  0
 22 32  2  0
 30 33  1  0
 29 34  2  0
 34 35  1  0
 33 36  2  0
 17 37  2  0
 31 38  2  0
 36 38  1  0
 38 39  1  0
 32 40  1  0
 18 41  1  0
 28 41  1  0
 40 41  1  0
 32 42  1  0
 35 42  2  0
 39 43  1  0
M  END
>  <ID>  (1) 
conformer_0

$$$$
