
     RDKit          3D

 42 51  0  0  0  0  0  0  0  0999 V2000
    7.6643   10.8695   13.4813 N   0  0  0  0  0  0  0  0  0  0  0  0
    8.5209   11.2829   12.7515 C   0  0  0  0  0  0  0  0  0  0  0  0
    9.2682   12.3298   13.1486 C   0  0  0  0  0  0  0  0  0  0  0  0
    8.7576   10.6989   11.4689 N   0  0  0  0  0  0  0  0  0  0  0  0
    9.0799   12.9892   14.3596 C   0  0  0  0  0  0  0  0  0  0  0  0
    9.8955   10.9947   10.8274 C   0  0  0  0  0  0  0  0  0  0  0  0
   10.1391   10.2378    9.6358 C   0  0  0  0  0  0  0  0  0  0  0  0
   10.2195   13.0027   12.1787 C   0  0  0  0  0  0  0  0  0  0  0  0
   10.5494   12.2178   11.0473 C   0  0  0  0  0  0  0  0  0  0  0  0
    9.8991   14.0941   14.7415 N   0  0  0  0  0  0  0  0  0  0  0  0
   11.0865   14.0394   12.5655 C   0  0  0  0  0  0  0  0  0  0  0  0
    9.4026    9.2138    9.2452 C   0  0  0  0  0  0  0  0  0  0  0  0
   12.0305   14.6685   11.8008 C   0  0  0  0  0  0  0  0  0  0  0  0
    9.7275   14.6874   16.0481 C   0  0  0  0  0  0  0  0  0  0  0  0
   12.8266   15.6708   12.3197 C   0  0  0  0  0  0  0  0  0  0  0  0
   10.9008   14.6155   13.8993 C   0  0  0  0  0  0  0  0  0  0  0  0
    8.1087   12.5020   15.2198 C   0  0  0  0  0  0  0  0  0  0  0  0
    7.8436   13.1360   16.5361 C   0  0  0  0  0  0  0  0  0  0  0  0
   11.2202   10.6471    8.7585 C   0  0  0  0  0  0  0  0  0  0  0  0
   10.2868   15.8641   16.3363 C   0  0  0  0  0  0  0  0  0  0  0  0
   13.8079   16.3405   11.3825 C   0  0  0  0  0  0  0  0  0  0  0  0
    8.7085   14.1479   16.8653 C   0  0  0  0  0  0  0  0  0  0  0  0
   11.5013   16.3352   15.8110 C   0  0  0  0  0  0  0  0  0  0  0  0
   11.3423    9.6829    7.6346 C   0  0  0  0  0  0  0  0  0  0  0  0
    9.5360   17.0564   16.4069 O   0  0  0  0  0  0  0  0  0  0  0  0
    7.3830   11.4627   14.7838 C   0  0  0  0  0  0  0  0  0  0  0  0
   12.5000   16.1669   13.6172 C   0  0  0  0  0  0  0  0  0  0  0  0
   11.6704   15.6660   14.3876 C   0  0  0  0  0  0  0  0  0  0  0  0
   12.4928   10.1004    6.7617 O   0  0  0  0  0  0  0  0  0  0  0  0
    9.6069    8.3978    8.2229 C   0  0  0  0  0  0  0  0  0  0  0  0
   12.0684   17.5559   15.8002 C   0  0  0  0  0  0  0  0  0  0  0  0
   14.1108   17.5746   11.5596 C   0  0  0  0  0  0  0  0  0  0  0  0
    8.8520    7.1834    7.9390 O   0  0  0  0  0  0  0  0  0  0  0  0
   12.3693   18.0082   17.0785 O   0  0  0  0  0  0  0  0  0  0  0  0
   10.7166    8.6298    7.3146 C   0  0  0  0  0  0  0  0  0  0  0  0
   13.2147   17.5062   13.7805 C   0  0  0  0  0  0  0  0  0  0  0  0
   12.9617   18.0728   15.0525 N   0  0  0  0  0  0  0  0  0  0  0  0
   13.6672   19.2537   15.2036 C   0  0  0  0  0  0  0  0  0  0  0  0
   15.0013   18.3022   10.6838 C   0  0  0  0  0  0  0  0  0  0  0  0
   14.1481   18.1075   12.8477 C   0  0  0  0  0  0  0  0  0  0  0  0
   14.1712   19.5073   13.7138 C   0  0  0  0  0  0  0  0  0  0  0  0
   15.5114   20.1021   13.7060 O   0  0  0  0  0  0  0  0  0  0  0  0
  1  2  2  0
  2  3  1  0
  2  4  1  0
  3  5  2  0
  4  6  1  0
  6  7  1  0
  3  8  1  0
  6  9  2  0
  8  9  1  0
  5 10  1  0
  8 11  2  0
  7 12  1  0
 11 13  1  0
 10 14  1  0
 13 15  2  0
 10 16  1  0
 11 16  1  0
  5 17  1  0
 17 18  1  0
  7 19  2  0
 14 20  1  0
 15 21  1  0
 14 22  1  0
 18 22  1  0
 20 23  1  0
 19 24  1  0
 20 25  1  0
  1 26  1  0
 17 26  2  0
 15 27  1  0
 16 28  2  0
 23 28  1  0
 27 28  1  0
 24 29  1  0
 12 30  2  0
 23 31  1  0
 21 32  2  0
 30 33  1  0
 31 34  2  0
 24 35  2  0
 30 35  1  0
 27 36  2  0
 31 37  1  0
 36 37  1  0
 37 38  1  0
 32 39  1  0
 32 40  1  0
 36 40  1  0
 38 41  1  0
 40 41  1  0
 41 42  1  0
M  END
>  <ID>  (1) 
conformer_0

$$$$
