
     RDKit          3D

 11 11  0  0  0  0  0  0  0  0999 V2000
    4.3276  108.4719   24.1039 C   0  0  0  0  0  0  0  0  0  0  0  0
    3.8351  107.2710   24.5051 C   0  0  0  0  0  0  0  0  0  0  0  0
    2.7193  106.6972   23.9055 C   0  0  0  0  0  0  0  0  0  0  0  0
    2.0509  107.3719   23.0985 O   0  0  0  0  0  0  0  0  0  0  0  0
    2.2093  105.6064   24.4520 O   0  0  0  0  0  0  0  0  0  0  0  0
    5.3504  109.0222   25.0072 C   0  0  0  0  0  0  0  0  0  0  0  0
    6.0427  110.2938   24.6790 C   0  0  0  0  0  0  0  0  0  0  0  0
    5.8797  108.0643   25.9301 C   0  0  0  0  0  0  0  0  0  0  0  0
    7.0261  108.6091   26.6665 N   0  0  0  0  0  0  0  0  0  0  0  0
    4.5885  106.6557   25.5667 C   0  0  0  0  0  0  0  0  0  0  0  0
    5.5220  106.9568   26.1820 N   0  0  0  0  0  0  0  0  0  0  0  0
  1  2  1  0
  2  3  1  0
  3  4  2  0
  3  5  1  0
  1  6  2  0
  6  7  1  0
  6  8  1  0
  8  9  1  0
  2 10  2  0
  8 11  2  0
 10 11  1  0
M  END
>  <ID>  (1) 
conformer_0

$$$$
