
     RDKit          3D

 14 15  0  0  0  0  0  0  0  0999 V2000
    4.3288  108.3558   23.9034 C   0  0  0  0  0  0  0  0  0  0  0  0
    3.2838  107.4089   23.9729 C   0  0  0  0  0  0  0  0  0  0  0  0
    2.2211  107.5109   23.2278 N   0  0  0  0  0  0  0  0  0  0  0  0
    5.4889  108.3509   24.7280 C   0  0  0  0  0  0  0  0  0  0  0  0
    3.3562  106.5077   25.0756 C   0  0  0  0  0  0  0  0  0  0  0  0
    5.4895  107.3999   25.7738 C   0  0  0  0  0  0  0  0  0  0  0  0
    1.1849  106.7054   23.3724 C   0  0  0  0  0  0  0  0  0  0  0  0
    6.4856  109.5293   24.7371 C   0  0  0  0  0  0  0  0  0  0  0  0
    7.5406  109.2254   24.4115 O   0  0  0  0  0  0  0  0  0  0  0  0
    2.3889  105.4656   25.2780 C   0  0  0  0  0  0  0  0  0  0  0  0
    6.0876  110.6445   25.1697 O   0  0  0  0  0  0  0  0  0  0  0  0
    1.2843  105.7007   24.4406 N   0  0  0  0  0  0  0  0  0  0  0  0
    0.1315  106.8172   22.6615 O   0  0  0  0  0  0  0  0  0  0  0  0
    4.6073  106.5029   25.9236 C   0  0  0  0  0  0  0  0  0  0  0  0
  1  2  1  0
  2  3  1  0
  1  4  2  0
  2  5  2  0
  4  6  1  0
  3  7  1  0
  4  8  1  0
  8  9  2  0
  5 10  1  0
  8 11  1  0
  7 12  1  0
 10 12  1  0
  7 13  2  0
  5 14  1  0
  6 14  2  0
M  END
>  <ID>  (1) 
conformer_0

$$$$
