
     RDKit          3D

 11 12  0  0  0  0  0  0  0  0999 V2000
    5.4932  109.7113   24.8442 C   0  0  0  0  0  0  0  0  0  0  0  0
    4.9770  108.5293   24.6480 C   0  0  0  0  0  0  0  0  0  0  0  0
    5.5988  107.4952   25.3602 C   0  0  0  0  0  0  0  0  0  0  0  0
    6.7084  110.0031   25.3476 N   0  0  0  0  0  0  0  0  0  0  0  0
    3.7513  108.0976   24.0732 C   0  0  0  0  0  0  0  0  0  0  0  0
    7.2636  108.7071   25.8779 C   0  0  0  0  0  0  0  0  0  0  0  0
    3.4223  106.8839   24.1630 C   0  0  0  0  0  0  0  0  0  0  0  0
    4.0820  105.9258   24.9405 N   0  0  0  0  0  0  0  0  0  0  0  0
    2.1702  106.1638   23.6254 N   0  0  0  0  0  0  0  0  0  0  0  0
    6.7486  107.6331   25.9723 C   0  0  0  0  0  0  0  0  0  0  0  0
    5.1127  106.2904   25.4932 N   0  0  0  0  0  0  0  0  0  0  0  0
  1  2  1  0
  2  3  2  0
  1  4  2  0
  2  5  1  0
  4  6  1  0
  5  7  2  0
  7  8  1  0
  7  9  1  0
  3 10  1  0
  6 10  2  0
  3 11  1  0
  8 11  2  0
M  END
>  <ID>  (1) 
conformer_0

$$$$
