
     RDKit          3D

 10 10  0  0  0  0  0  0  0  0999 V2000
    5.0246  108.5585   24.1135 C   0  0  0  0  0  0  0  0  0  0  0  0
    4.2170  107.6429   24.5705 C   0  0  0  0  0  0  0  0  0  0  0  0
    3.0602  107.1883   23.8511 C   0  0  0  0  0  0  0  0  0  0  0  0
    6.0670  109.0558   24.9531 C   0  0  0  0  0  0  0  0  0  0  0  0
    2.3882  106.3375   24.2398 N   0  0  0  0  0  0  0  0  0  0  0  0
    4.6281  106.9630   25.7763 C   0  0  0  0  0  0  0  0  0  0  0  0
    5.8884  107.5157   26.4537 C   0  0  0  0  0  0  0  0  0  0  0  0
    6.9383  110.2794   24.4231 O   0  0  0  0  0  0  0  0  0  0  0  0
    6.5188  108.5060   26.0745 C   0  0  0  0  0  0  0  0  0  0  0  0
    2.8266  107.8188   22.8715 O   0  0  0  0  0  0  0  0  0  0  0  0
  1  2  1  0
  2  3  1  0
  1  4  2  0
  3  5  1  0
  2  6  2  0
  6  7  1  0
  4  8  1  0
  4  9  1  0
  7  9  2  0
  3 10  2  0
M  END
>  <ID>  (1) 
conformer_0

$$$$
