
     RDKit          3D

 11 11  0  0  0  0  0  0  0  0999 V2000
    4.3276  108.4719   24.1039 C   0  0  0  0  0  0  0  0  0  0  0  0
    5.3058  108.8253   24.8468 C   0  0  0  0  0  0  0  0  0  0  0  0
    3.7634  107.2067   24.3263 C   0  0  0  0  0  0  0  0  0  0  0  0
    4.1033  106.4809   25.4704 C   0  0  0  0  0  0  0  0  0  0  0  0
    3.4761  105.2840   25.6783 N   0  0  0  0  0  0  0  0  0  0  0  0
    2.6038  106.8155   23.5961 C   0  0  0  0  0  0  0  0  0  0  0  0
    5.1642  106.9547   26.2182 C   0  0  0  0  0  0  0  0  0  0  0  0
    1.5762  106.3771   24.1449 O   0  0  0  0  0  0  0  0  0  0  0  0
    5.9078  108.2688   25.8968 C   0  0  0  0  0  0  0  0  0  0  0  0
    2.6979  106.9650   22.3829 O   0  0  0  0  0  0  0  0  0  0  0  0
    6.8799  108.7477   26.6832 C   0  0  0  0  0  0  0  0  0  0  0  0
  1  2  1  0
  1  3  2  0
  3  4  1  0
  4  5  1  0
  3  6  1  0
  4  7  2  0
  6  8  1  0
  2  9  2  0
  7  9  1  0
  6 10  2  0
  9 11  1  0
M  END
>  <ID>  (1) 
conformer_0

$$$$
