
     RDKit          3D

 21 23  0  0  0  0  0  0  0  0999 V2000
    4.3288  108.3558   23.9034 C   0  0  0  0  0  0  0  0  0  0  0  0
    3.2838  107.4089   23.9729 C   0  0  0  0  0  0  0  0  0  0  0  0
    2.2211  107.5109   23.2278 N   0  0  0  0  0  0  0  0  0  0  0  0
    1.1564  106.9599   23.2619 C   0  0  0  0  0  0  0  0  0  0  0  0
    1.2986  105.8583   24.0859 N   0  0  0  0  0  0  0  0  0  0  0  0
    5.3510  108.5083   24.9868 C   0  0  0  0  0  0  0  0  0  0  0  0
   -0.0037  107.1350   22.4766 C   0  0  0  0  0  0  0  0  0  0  0  0
    2.2566  105.5539   24.9684 C   0  0  0  0  0  0  0  0  0  0  0  0
   -0.1108  107.4829   21.4253 N   0  0  0  0  0  0  0  0  0  0  0  0
    3.4152  106.4676   24.9111 C   0  0  0  0  0  0  0  0  0  0  0  0
   -1.1701  107.9060   20.7834 C   0  0  0  0  0  0  0  0  0  0  0  0
   -2.2732  108.2484   21.4918 C   0  0  0  0  0  0  0  0  0  0  0  0
    4.5534  106.3485   25.8138 C   0  0  0  0  0  0  0  0  0  0  0  0
   -1.3306  107.7161   19.3364 C   0  0  0  0  0  0  0  0  0  0  0  0
   -3.3427  108.7940   21.0719 C   0  0  0  0  0  0  0  0  0  0  0  0
    5.3798  107.3818   25.9304 C   0  0  0  0  0  0  0  0  0  0  0  0
    6.3650  109.4298   24.8640 C   0  0  0  0  0  0  0  0  0  0  0  0
    7.1207  109.7715   25.6876 N   0  0  0  0  0  0  0  0  0  0  0  0
    6.5851  110.0040   23.6258 O   0  0  0  0  0  0  0  0  0  0  0  0
   -3.5596  108.8054   19.5941 C   0  0  0  0  0  0  0  0  0  0  0  0
   -2.4489  108.3493   18.7643 C   0  0  0  0  0  0  0  0  0  0  0  0
  1  2  1  0
  2  3  1  0
  3  4  2  0
  4  5  1  0
  1  6  2  0
  4  7  1  0
  5  8  2  0
  7  9  2  3
  2 10  2  0
  8 10  1  0
  9 11  1  0
 11 12  1  0
 10 13  1  0
 11 14  2  0
 12 15  2  0
  6 16  1  0
 13 16  2  0
  6 17  1  0
 17 18  1  0
 17 19  2  0
 15 20  1  0
 14 21  1  0
 20 21  2  0
M  END
>  <ID>  (1) 
conformer_0

$$$$
