
     RDKit          3D

 15 16  0  0  0  0  0  0  0  0999 V2000
   -1.0769  108.2778   19.2523 C   0  0  0  0  0  0  0  0  0  0  0  0
   -1.0621  108.2411   20.5297 C   0  0  0  0  0  0  0  0  0  0  0  0
   -2.3430  108.4548   18.5519 C   0  0  0  0  0  0  0  0  0  0  0  0
    0.1838  107.8422   21.1839 O   0  0  0  0  0  0  0  0  0  0  0  0
   -3.3570  108.9375   19.2238 C   0  0  0  0  0  0  0  0  0  0  0  0
    0.2042  107.9632   22.6315 C   0  0  0  0  0  0  0  0  0  0  0  0
   -2.2019  108.6852   21.3109 C   0  0  0  0  0  0  0  0  0  0  0  0
   -2.0946  108.6718   22.7274 O   0  0  0  0  0  0  0  0  0  0  0  0
    1.1752  107.0250   23.1864 C   0  0  0  0  0  0  0  0  0  0  0  0
   -1.1648  107.8972   23.1987 C   0  0  0  0  0  0  0  0  0  0  0  0
    2.4383  107.2635   22.9491 O   0  0  0  0  0  0  0  0  0  0  0  0
    3.3518  107.6596   23.8961 C   0  0  0  0  0  0  0  0  0  0  0  0
    3.4701  106.6366   24.8937 C   0  0  0  0  0  0  0  0  0  0  0  0
    2.4156  106.0648   25.3513 O   0  0  0  0  0  0  0  0  0  0  0  0
   -3.3849  109.0569   20.6850 C   0  0  0  0  0  0  0  0  0  0  0  0
  1  2  2  0
  1  3  1  0
  2  4  1  0
  3  5  2  0
  4  6  1  0
  2  7  1  0
  7  8  1  0
  6  9  1  0
  6 10  2  0
  8 10  1  0
  9 11  1  0
 11 12  1  0
 12 13  1  0
 13 14  1  0
  5 15  1  0
  7 15  2  0
M  END
>  <ID>  (1) 
conformer_0

$$$$
