
     RDKit          3D

 14 16  0  0  0  0  0  0  0  0999 V2000
    4.3288  108.3558   23.9034 C   0  0  0  0  0  0  0  0  0  0  0  0
    3.7878  107.2311   24.4661 C   0  0  0  0  0  0  0  0  0  0  0  0
    5.6673  108.7180   24.4705 C   0  0  0  0  0  0  0  0  0  0  0  0
    6.0575  108.0824   25.5960 C   0  0  0  0  0  0  0  0  0  0  0  0
    7.2362  108.5108   26.1863 C   0  0  0  0  0  0  0  0  0  0  0  0
    4.2720  106.6076   25.3171 C   0  0  0  0  0  0  0  0  0  0  0  0
    2.5149  106.8676   24.1980 N   0  0  0  0  0  0  0  0  0  0  0  0
    7.6947  109.6511   25.5874 N   0  0  0  0  0  0  0  0  0  0  0  0
    2.4235  105.7510   24.9582 C   0  0  0  0  0  0  0  0  0  0  0  0
    5.3201  106.9738   26.0168 C   0  0  0  0  0  0  0  0  0  0  0  0
    1.2246  104.8978   24.9483 N   0  0  0  0  0  0  0  0  0  0  0  0
    3.4208  105.5982   25.7023 N   0  0  0  0  0  0  0  0  0  0  0  0
    6.9604  110.1048   24.5177 C   0  0  0  0  0  0  0  0  0  0  0  0
    6.0302  109.7837   23.9424 N   0  0  0  0  0  0  0  0  0  0  0  0
  1  2  1  0
  1  3  1  0
  3  4  1  0
  4  5  2  0
  2  6  1  0
  2  7  2  0
  5  8  1  0
  7  9  1  0
  4 10  1  0
  6 10  1  0
  9 11  1  0
  6 12  1  0
  9 12  2  0
  8 13  2  0
  3 14  2  0
 13 14  1  0
M  END
>  <ID>  (1) 
conformer_0

$$$$
