
     RDKit          3D

 21 23  0  0  0  0  0  0  0  0999 V2000
    4.3288  108.3558   23.9034 C   0  0  0  0  0  0  0  0  0  0  0  0
    3.2838  107.4089   23.9729 C   0  0  0  0  0  0  0  0  0  0  0  0
    2.2211  107.5109   23.2278 N   0  0  0  0  0  0  0  0  0  0  0  0
    1.1564  106.9599   23.2619 C   0  0  0  0  0  0  0  0  0  0  0  0
    1.2986  105.8583   24.0859 N   0  0  0  0  0  0  0  0  0  0  0  0
    5.4035  108.4451   24.9197 C   0  0  0  0  0  0  0  0  0  0  0  0
   -0.0326  107.1188   22.3817 C   0  0  0  0  0  0  0  0  0  0  0  0
   -0.5648  108.3418   22.4617 C   0  0  0  0  0  0  0  0  0  0  0  0
   -0.6410  106.1365   21.7440 C   0  0  0  0  0  0  0  0  0  0  0  0
   -1.5501  108.6570   21.7235 C   0  0  0  0  0  0  0  0  0  0  0  0
   -0.1320  104.8374   21.8337 O   0  0  0  0  0  0  0  0  0  0  0  0
    5.3791  107.4022   25.8183 C   0  0  0  0  0  0  0  0  0  0  0  0
    6.3939  109.5974   24.9658 C   0  0  0  0  0  0  0  0  0  0  0  0
   -1.6959  106.4260   20.9934 C   0  0  0  0  0  0  0  0  0  0  0  0
    6.4446  107.3415   26.7647 O   0  0  0  0  0  0  0  0  0  0  0  0
   -2.1269  107.7137   20.9239 C   0  0  0  0  0  0  0  0  0  0  0  0
   -3.3673  108.1152   19.9827 C   0  0  0  0  0  0  0  0  0  0  0  0
    3.5091  106.5172   24.9089 C   0  0  0  0  0  0  0  0  0  0  0  0
    4.4742  106.3664   25.7827 C   0  0  0  0  0  0  0  0  0  0  0  0
   -2.9920  109.0591   19.0162 C   0  0  0  0  0  0  0  0  0  0  0  0
    2.3093  105.5744   24.8767 C   0  0  0  0  0  0  0  0  0  0  0  0
  1  2  1  0
  2  3  1  0
  3  4  2  0
  4  5  1  0
  1  6  2  0
  4  7  1  0
  7  8  1  0
  7  9  2  0
  8 10  2  0
  9 11  1  0
  6 12  1  0
  6 13  1  0
  9 14  1  0
 12 15  1  0
 10 16  1  0
 14 16  2  0
 16 17  1  0
  2 18  2  0
 12 19  2  0
 18 19  1  0
 17 20  1  0
  5 21  1  0
 18 21  1  0
M  END
>  <ID>  (1) 
conformer_0

$$$$
