
     RDKit          3D

  7  7  0  0  0  0  0  0  0  0999 V2000
    5.9391  110.0842   24.6676 C   0  0  0  0  0  0  0  0  0  0  0  0
    5.4535  108.8609   24.7327 C   0  0  0  0  0  0  0  0  0  0  0  0
    7.3490  110.2430   24.4469 O   0  0  0  0  0  0  0  0  0  0  0  0
    4.2365  108.5022   24.1074 C   0  0  0  0  0  0  0  0  0  0  0  0
    5.8287  107.7857   25.7038 C   0  0  0  0  0  0  0  0  0  0  0  0
    4.9604  106.7660   25.6655 C   0  0  0  0  0  0  0  0  0  0  0  0
    3.9419  106.8406   24.7760 S   0  0  0  0  0  0  0  0  0  0  0  0
  1  2  1  0
  1  3  2  0
  2  4  2  0
  2  5  1  0
  5  6  2  0
  4  7  1  0
  6  7  1  0
M  END
>  <ID>  (1) 
conformer_0

$$$$
