
     RDKit          3D

  8  8  0  0  0  0  0  0  0  0999 V2000
   -2.3889  109.1113   19.1069 C   0  0  0  0  0  0  0  0  0  0  0  0
   -1.3705  108.2987   19.3517 C   0  0  0  0  0  0  0  0  0  0  0  0
   -1.0388  107.8636   20.6098 C   0  0  0  0  0  0  0  0  0  0  0  0
   -3.1511  109.6031   20.1479 C   0  0  0  0  0  0  0  0  0  0  0  0
   -0.0002  107.0685   20.8172 O   0  0  0  0  0  0  0  0  0  0  0  0
   -1.8454  108.3475   21.6550 C   0  0  0  0  0  0  0  0  0  0  0  0
   -4.3115  110.4603   19.8870 F   0  0  0  0  0  0  0  0  0  0  0  0
   -2.9062  109.1545   21.4563 C   0  0  0  0  0  0  0  0  0  0  0  0
  1  2  2  0
  2  3  1  0
  1  4  1  0
  3  5  1  0
  3  6  2  0
  4  7  1  0
  4  8  2  0
  6  8  1  0
M  END
>  <ID>  (1) 
conformer_0

$$$$
