
     RDKit          3D

  9  9  0  0  0  0  0  0  0  0999 V2000
   -1.4579  108.5156   18.8740 C   0  0  0  0  0  0  0  0  0  0  0  0
   -2.8076  108.4627   18.6869 C   0  0  0  0  0  0  0  0  0  0  0  0
   -0.9410  108.6900   20.0866 C   0  0  0  0  0  0  0  0  0  0  0  0
   -3.6634  108.7044   19.7011 C   0  0  0  0  0  0  0  0  0  0  0  0
    0.3849  108.4854   20.3513 O   0  0  0  0  0  0  0  0  0  0  0  0
   -1.8191  108.8213   21.2243 C   0  0  0  0  0  0  0  0  0  0  0  0
   -5.0940  108.8237   19.5225 O   0  0  0  0  0  0  0  0  0  0  0  0
   -1.2014  109.0017   22.4621 O   0  0  0  0  0  0  0  0  0  0  0  0
   -3.1991  108.9548   21.0569 C   0  0  0  0  0  0  0  0  0  0  0  0
  1  2  2  0
  1  3  1  0
  2  4  1  0
  3  5  1  0
  3  6  2  0
  4  7  1  0
  6  8  1  0
  4  9  2  0
  6  9  1  0
M  END
>  <ID>  (1) 
conformer_0

$$$$
