
     RDKit          3D

 13 14  0  0  0  0  0  0  0  0999 V2000
    5.8418  109.9804   24.6709 C   0  0  0  0  0  0  0  0  0  0  0  0
    5.2961  108.7678   24.6739 C   0  0  0  0  0  0  0  0  0  0  0  0
    6.0050  107.7290   25.2705 C   0  0  0  0  0  0  0  0  0  0  0  0
    4.0779  108.4228   24.0495 C   0  0  0  0  0  0  0  0  0  0  0  0
    7.1083  110.0153   24.7614 N   0  0  0  0  0  0  0  0  0  0  0  0
    3.7605  107.0944   24.1308 C   0  0  0  0  0  0  0  0  0  0  0  0
    7.2300  108.2056   25.9239 N   0  0  0  0  0  0  0  0  0  0  0  0
    7.7982  109.1435   25.5013 C   0  0  0  0  0  0  0  0  0  0  0  0
    2.4500  106.6168   23.6759 C   0  0  0  0  0  0  0  0  0  0  0  0
    1.6709  107.4108   23.1635 O   0  0  0  0  0  0  0  0  0  0  0  0
    4.6048  106.1659   24.8029 N   0  0  0  0  0  0  0  0  0  0  0  0
    2.0169  105.4791   24.0495 N   0  0  0  0  0  0  0  0  0  0  0  0
    5.5908  106.5247   25.4227 C   0  0  0  0  0  0  0  0  0  0  0  0
  1  2  1  0
  2  3  2  0
  2  4  1  0
  1  5  2  0
  4  6  2  0
  3  7  1  0
  5  8  1  0
  7  8  2  0
  6  9  1  0
  9 10  2  0
  6 11  1  0
  9 12  1  0
  3 13  1  0
 11 13  2  0
M  END
>  <ID>  (1) 
conformer_0

$$$$
