
     RDKit          3D

  7  6  0  0  0  0  0  0  0  0999 V2000
    4.3276  108.4719   24.1039 C   0  0  0  0  0  0  0  0  0  0  0  0
    3.8351  107.2710   24.5051 C   0  0  0  0  0  0  0  0  0  0  0  0
    2.7193  106.6972   23.9055 C   0  0  0  0  0  0  0  0  0  0  0  0
    2.0509  107.3719   23.0985 O   0  0  0  0  0  0  0  0  0  0  0  0
    5.2526  109.0555   25.1550 C   0  0  0  0  0  0  0  0  0  0  0  0
    6.2468  109.8240   24.8096 O   0  0  0  0  0  0  0  0  0  0  0  0
    2.2149  105.5798   24.3544 N   0  0  0  0  0  0  0  0  0  0  0  0
  1  2  1  0
  2  3  1  0
  3  4  2  0
  1  5  1  0
  5  6  1  0
  3  7  1  0
M  END
>  <ID>  (1) 
conformer_0

$$$$
