
     RDKit          3D

 19 20  0  0  0  0  0  0  0  0999 V2000
    4.3288  108.3558   23.9034 C   0  0  0  0  0  0  0  0  0  0  0  0
    3.2838  107.4089   23.9729 C   0  0  0  0  0  0  0  0  0  0  0  0
    2.2211  107.5109   23.2278 N   0  0  0  0  0  0  0  0  0  0  0  0
    1.1564  106.9599   23.2619 C   0  0  0  0  0  0  0  0  0  0  0  0
    1.2986  105.8583   24.0859 N   0  0  0  0  0  0  0  0  0  0  0  0
    5.4035  108.4451   24.9197 C   0  0  0  0  0  0  0  0  0  0  0  0
   -0.0326  107.1188   22.3817 C   0  0  0  0  0  0  0  0  0  0  0  0
   -0.5648  108.3418   22.4617 C   0  0  0  0  0  0  0  0  0  0  0  0
   -0.6410  106.1365   21.7440 C   0  0  0  0  0  0  0  0  0  0  0  0
   -0.1048  104.8131   21.8453 O   0  0  0  0  0  0  0  0  0  0  0  0
    6.4374  109.4583   24.8743 C   0  0  0  0  0  0  0  0  0  0  0  0
    6.7867  109.8768   23.9317 O   0  0  0  0  0  0  0  0  0  0  0  0
   -1.6217  108.7251   21.7124 C   0  0  0  0  0  0  0  0  0  0  0  0
   -1.7315  106.3088   20.9312 C   0  0  0  0  0  0  0  0  0  0  0  0
   -2.1768  107.6865   20.8375 C   0  0  0  0  0  0  0  0  0  0  0  0
    2.9712  106.1991   24.7848 C   0  0  0  0  0  0  0  0  0  0  0  0
    7.1880  109.5628   25.9811 O   0  0  0  0  0  0  0  0  0  0  0  0
   -3.1617  108.1376   19.8453 C   0  0  0  0  0  0  0  0  0  0  0  0
   -2.7668  109.1759   18.9602 C   0  0  0  0  0  0  0  0  0  0  0  0
  1  2  1  0
  2  3  1  0
  3  4  2  0
  4  5  1  0
  1  6  2  3
  4  7  1  0
  7  8  1  0
  7  9  2  0
  9 10  1  0
  6 11  1  0
 11 12  2  0
  8 13  2  0
  9 14  1  0
 13 15  1  0
 14 15  2  0
  2 16  2  0
  5 16  2  0
 11 17  1  0
 15 18  1  0
 18 19  1  0
M  END
>  <ID>  (1) 
conformer_0

$$$$
