
     RDKit          3D

 10 10  0  0  0  0  0  0  0  0999 V2000
   -0.8433  108.5398   18.9268 C   0  0  0  0  0  0  0  0  0  0  0  0
   -2.1743  108.5395   18.7528 C   0  0  0  0  0  0  0  0  0  0  0  0
   -0.7474  108.1447   20.2126 C   0  0  0  0  0  0  0  0  0  0  0  0
   -1.6111  108.0923   21.1739 C   0  0  0  0  0  0  0  0  0  0  0  0
   -3.1947  108.5718   19.5993 C   0  0  0  0  0  0  0  0  0  0  0  0
   -1.1940  107.7841   22.5843 C   0  0  0  0  0  0  0  0  0  0  0  0
   -4.6215  108.8601   19.2415 O   0  0  0  0  0  0  0  0  0  0  0  0
   -1.9035  107.6839   23.4609 O   0  0  0  0  0  0  0  0  0  0  0  0
   -0.0710  106.9585   22.7302 O   0  0  0  0  0  0  0  0  0  0  0  0
   -2.9275  108.3048   20.9045 C   0  0  0  0  0  0  0  0  0  0  0  0
  1  2  1  0
  1  3  2  0
  3  4  1  0
  2  5  2  0
  4  6  1  0
  5  7  1  0
  6  8  1  0
  6  9  2  0
  4 10  2  0
  5 10  1  0
M  END
>  <ID>  (1) 
conformer_0

$$$$
