
     RDKit          3D

 17 19  0  0  0  0  0  0  0  0999 V2000
    5.2286  109.5269   24.4946 C   0  0  0  0  0  0  0  0  0  0  0  0
    6.1888  109.6735   25.2867 N   0  0  0  0  0  0  0  0  0  0  0  0
    4.4732  108.3743   24.6072 C   0  0  0  0  0  0  0  0  0  0  0  0
    3.2945  108.0220   23.9186 C   0  0  0  0  0  0  0  0  0  0  0  0
    2.7815  106.7369   24.0354 C   0  0  0  0  0  0  0  0  0  0  0  0
    1.5992  106.3296   23.3553 N   0  0  0  0  0  0  0  0  0  0  0  0
    1.0978  105.2594   23.6513 C   0  0  0  0  0  0  0  0  0  0  0  0
    4.9942  107.3454   25.5274 C   0  0  0  0  0  0  0  0  0  0  0  0
    3.4172  105.7757   24.9429 C   0  0  0  0  0  0  0  0  0  0  0  0
    2.7275  104.5481   25.0006 C   0  0  0  0  0  0  0  0  0  0  0  0
    4.5120  106.1151   25.6703 C   0  0  0  0  0  0  0  0  0  0  0  0
    6.1051  107.8823   26.1472 N   0  0  0  0  0  0  0  0  0  0  0  0
   -0.1283  104.8748   22.8644 C   0  0  0  0  0  0  0  0  0  0  0  0
    6.7427  108.9098   25.9925 C   0  0  0  0  0  0  0  0  0  0  0  0
   -0.0909  104.7565   21.6503 O   0  0  0  0  0  0  0  0  0  0  0  0
    1.6615  104.2524   24.4043 C   0  0  0  0  0  0  0  0  0  0  0  0
   -1.2610  104.8389   23.5077 O   0  0  0  0  0  0  0  0  0  0  0  0
  1  2  1  0
  1  3  2  0
  3  4  1  0
  4  5  2  0
  5  6  1  0
  6  7  2  0
  3  8  1  0
  5  9  1  0
  9 10  1  0
  8 11  1  0
  9 11  2  0
  8 12  2  0
  7 13  1  0
  2 14  2  0
 12 14  1  0
 13 15  2  0
  7 16  1  0
 10 16  2  0
 13 17  1  0
M  END
>  <ID>  (1) 
conformer_0

$$$$
