
     RDKit          3D

 13 14  0  0  0  0  0  0  0  0999 V2000
    4.3288  108.3558   23.9034 C   0  0  0  0  0  0  0  0  0  0  0  0
    5.2361  108.7726   24.7093 C   0  0  0  0  0  0  0  0  0  0  0  0
    3.6107  107.1976   24.3550 C   0  0  0  0  0  0  0  0  0  0  0  0
    3.9217  106.6080   25.6011 C   0  0  0  0  0  0  0  0  0  0  0  0
    6.0677  110.0008   24.3070 C   0  0  0  0  0  0  0  0  0  0  0  0
    2.5498  106.6598   23.5932 C   0  0  0  0  0  0  0  0  0  0  0  0
    5.6296  108.4284   25.8800 C   0  0  0  0  0  0  0  0  0  0  0  0
    5.7312  110.9936   24.2863 O   0  0  0  0  0  0  0  0  0  0  0  0
    7.3773  109.7319   24.0003 O   0  0  0  0  0  0  0  0  0  0  0  0
    3.2420  105.5234   26.0511 C   0  0  0  0  0  0  0  0  0  0  0  0
    1.7757  105.7458   24.1702 N   0  0  0  0  0  0  0  0  0  0  0  0
    4.9555  107.2453   26.4002 C   0  0  0  0  0  0  0  0  0  0  0  0
    2.1436  105.1090   25.2566 C   0  0  0  0  0  0  0  0  0  0  0  0
  1  2  1  0
  1  3  2  0
  3  4  1  0
  2  5  1  0
  3  6  1  0
  2  7  2  0
  5  8  1  0
  5  9  2  0
  4 10  1  0
  6 11  2  0
  4 12  2  0
  7 12  1  0
 10 13  2  0
 11 13  1  0
M  END
>  <ID>  (1) 
conformer_0

$$$$
