
     RDKit          3D

  8  7  0  0  0  0  0  0  0  0999 V2000
    6.3551  109.1579   24.1920 O   0  0  0  0  0  0  0  0  0  0  0  0
    5.2619  109.1593   24.7610 C   0  0  0  0  0  0  0  0  0  0  0  0
    4.2834  108.4963   24.1255 N   0  0  0  0  0  0  0  0  0  0  0  0
    5.3424  108.8646   26.1788 C   0  0  0  0  0  0  0  0  0  0  0  0
    3.5305  107.5064   24.6244 C   0  0  0  0  0  0  0  0  0  0  0  0
    2.5642  106.9083   23.8165 C   0  0  0  0  0  0  0  0  0  0  0  0
    3.6894  107.0390   25.8308 O   0  0  0  0  0  0  0  0  0  0  0  0
    2.2840  105.5386   24.0619 C   0  0  0  0  0  0  0  0  0  0  0  0
  1  2  2  0
  2  3  1  0
  2  4  1  0
  3  5  1  0
  5  6  1  0
  5  7  2  0
  6  8  1  0
M  END
>  <ID>  (1) 
conformer_0

$$$$
