
     RDKit          3D

 16 17  0  0  0  0  0  0  0  0999 V2000
    4.3276  108.4719   24.1039 C   0  0  0  0  0  0  0  0  0  0  0  0
    3.4255  107.4592   24.0629 C   0  0  0  0  0  0  0  0  0  0  0  0
    2.4312  107.4388   23.2200 N   0  0  0  0  0  0  0  0  0  0  0  0
    5.4942  108.4301   24.9686 C   0  0  0  0  0  0  0  0  0  0  0  0
    1.3377  107.1879   23.4961 C   0  0  0  0  0  0  0  0  0  0  0  0
    3.7026  106.3924   24.8792 C   0  0  0  0  0  0  0  0  0  0  0  0
    5.6029  107.2138   25.7783 C   0  0  0  0  0  0  0  0  0  0  0  0
    2.7022  105.3083   24.8587 N   0  0  0  0  0  0  0  0  0  0  0  0
    0.1390  107.2417   22.6645 C   0  0  0  0  0  0  0  0  0  0  0  0
   -0.3667  106.5632   22.0262 O   0  0  0  0  0  0  0  0  0  0  0  0
    6.7939  107.2482   26.6437 N   0  0  0  0  0  0  0  0  0  0  0  0
   -0.3118  108.5822   22.6956 O   0  0  0  0  0  0  0  0  0  0  0  0
    6.3854  109.5651   25.0794 C   0  0  0  0  0  0  0  0  0  0  0  0
    7.3372  109.4744   25.7612 N   0  0  0  0  0  0  0  0  0  0  0  0
    4.7844  106.2010   25.8175 N   0  0  0  0  0  0  0  0  0  0  0  0
    7.6591  108.3386   26.5748 C   0  0  0  0  0  0  0  0  0  0  0  0
  1  2  1  0
  2  3  1  0
  1  4  2  0
  3  5  1  0
  2  6  2  0
  4  7  1  0
  6  8  1  0
  5  9  1  0
  9 10  2  0
  7 11  1  0
  9 12  1  0
  4 13  1  0
 13 14  1  0
  6 15  1  0
  7 15  2  0
 11 16  1  0
 14 16  2  0
M  END
>  <ID>  (1) 
conformer_0

$$$$
