
     RDKit          3D

 19 21  0  0  0  0  0  0  0  0999 V2000
    4.9240  109.0047   24.6224 C   0  0  0  0  0  0  0  0  0  0  0  0
    4.1895  107.9753   24.4688 C   0  0  0  0  0  0  0  0  0  0  0  0
    6.2203  109.0634   25.2044 C   0  0  0  0  0  0  0  0  0  0  0  0
    2.9173  108.0004   23.8769 N   0  0  0  0  0  0  0  0  0  0  0  0
    2.2288  106.8712   23.6052 C   0  0  0  0  0  0  0  0  0  0  0  0
    4.6756  106.7832   25.0396 C   0  0  0  0  0  0  0  0  0  0  0  0
    0.9549  106.9931   23.0534 C   0  0  0  0  0  0  0  0  0  0  0  0
    6.6780  107.8708   25.7471 C   0  0  0  0  0  0  0  0  0  0  0  0
    3.8894  105.5637   25.0172 N   0  0  0  0  0  0  0  0  0  0  0  0
    0.4626  107.9806   22.5680 O   0  0  0  0  0  0  0  0  0  0  0  0
   -0.7794  108.1976   21.9419 C   0  0  0  0  0  0  0  0  0  0  0  0
   -1.7362  108.3500   22.6890 C   0  0  0  0  0  0  0  0  0  0  0  0
   -3.0608  108.5517   22.2160 C   0  0  0  0  0  0  0  0  0  0  0  0
   -0.7484  108.3764   20.5936 C   0  0  0  0  0  0  0  0  0  0  0  0
    2.6098  105.7284   24.3872 C   0  0  0  0  0  0  0  0  0  0  0  0
   -3.1605  108.7735   20.8066 C   0  0  0  0  0  0  0  0  0  0  0  0
   -1.9968  108.6741   19.9906 C   0  0  0  0  0  0  0  0  0  0  0  0
   -1.9765  108.8224   18.4141 C   0  0  0  0  0  0  0  0  0  0  0  0
    5.9111  106.6705   25.7285 C   0  0  0  0  0  0  0  0  0  0  0  0
  1  2  2  0
  1  3  1  0
  2  4  1  0
  4  5  1  0
  2  6  1  0
  5  7  1  0
  3  8  2  0
  6  9  1  0
  7 10  1  0
 10 11  1  0
 11 12  2  0
 12 13  1  0
 11 14  1  0
  5 15  1  0
  9 15  1  0
 13 16  2  0
 14 17  2  0
 16 17  1  0
 17 18  1  0
  6 19  2  0
  8 19  1  0
M  END
>  <ID>  (1) 
conformer_0

$$$$
