
     RDKit          3D

 12 12  0  0  0  0  0  0  0  0999 V2000
    5.2286  109.5269   24.4946 C   0  0  0  0  0  0  0  0  0  0  0  0
    4.7964  108.3417   24.4773 C   0  0  0  0  0  0  0  0  0  0  0  0
    6.5774  109.8053   24.8483 C   0  0  0  0  0  0  0  0  0  0  0  0
    5.4483  107.3323   25.2070 C   0  0  0  0  0  0  0  0  0  0  0  0
    3.4933  107.9089   24.0715 C   0  0  0  0  0  0  0  0  0  0  0  0
    3.2198  106.5192   23.9034 C   0  0  0  0  0  0  0  0  0  0  0  0
    1.8107  106.2064   23.6163 N   0  0  0  0  0  0  0  0  0  0  0  0
    1.4258  105.0327   23.8956 C   0  0  0  0  0  0  0  0  0  0  0  0
    0.0675  104.8001   23.6438 O   0  0  0  0  0  0  0  0  0  0  0  0
    6.8630  107.8209   25.7838 C   0  0  0  0  0  0  0  0  0  0  0  0
    2.1011  104.0135   24.6985 C   0  0  0  0  0  0  0  0  0  0  0  0
    7.2243  109.0171   25.6191 N   0  0  0  0  0  0  0  0  0  0  0  0
  1  2  1  0
  1  3  2  0
  2  4  2  0
  2  5  1  0
  5  6  1  0
  6  7  1  0
  7  8  1  0
  8  9  2  0
  4 10  1  0
  8 11  1  0
  3 12  1  0
 10 12  2  0
M  END
>  <ID>  (1) 
conformer_0

$$$$
