
     RDKit          3D

 11 12  0  0  0  0  0  0  0  0999 V2000
    4.9240  109.0047   24.6224 C   0  0  0  0  0  0  0  0  0  0  0  0
    4.1895  107.9753   24.4688 C   0  0  0  0  0  0  0  0  0  0  0  0
    6.2203  109.0634   25.2044 C   0  0  0  0  0  0  0  0  0  0  0  0
    2.9173  108.0004   23.8769 N   0  0  0  0  0  0  0  0  0  0  0  0
    2.2748  106.8573   23.6279 C   0  0  0  0  0  0  0  0  0  0  0  0
    2.8075  105.7387   24.0103 N   0  0  0  0  0  0  0  0  0  0  0  0
    4.5805  106.7152   25.0502 C   0  0  0  0  0  0  0  0  0  0  0  0
    1.1154  106.9576   22.9239 N   0  0  0  0  0  0  0  0  0  0  0  0
    3.7972  105.6251   24.7698 C   0  0  0  0  0  0  0  0  0  0  0  0
    5.9090  106.8475   25.7349 C   0  0  0  0  0  0  0  0  0  0  0  0
    6.5070  107.8407   25.8911 C   0  0  0  0  0  0  0  0  0  0  0  0
  1  2  2  0
  1  3  1  0
  2  4  1  0
  4  5  1  0
  5  6  2  0
  2  7  1  0
  5  8  1  0
  6  9  1  0
  7  9  2  0
  7 10  1  0
  3 11  2  0
 10 11  1  0
M  END
>  <ID>  (1) 
conformer_0

$$$$
