
     RDKit          3D

  7  7  0  0  0  0  0  0  0  0999 V2000
   -2.7983  108.7225   18.7045 C   0  0  0  0  0  0  0  0  0  0  0  0
   -3.5288  109.2585   19.5231 C   0  0  0  0  0  0  0  0  0  0  0  0
   -1.3738  108.5925   19.0781 C   0  0  0  0  0  0  0  0  0  0  0  0
   -0.4906  108.0310   18.1609 F   0  0  0  0  0  0  0  0  0  0  0  0
   -3.2807  109.4010   20.9111 C   0  0  0  0  0  0  0  0  0  0  0  0
   -1.9744  109.0406   21.3670 C   0  0  0  0  0  0  0  0  0  0  0  0
   -1.0432  108.6049   20.4643 C   0  0  0  0  0  0  0  0  0  0  0  0
  1  2  1  0
  1  3  2  0
  3  4  1  0
  2  5  2  0
  5  6  1  0
  3  7  1  0
  6  7  2  0
M  END
>  <ID>  (1) 
conformer_0

$$$$
