
     RDKit          3D

 16 18  0  0  0  0  0  0  0  0999 V2000
    4.3276  108.4719   24.1039 C   0  0  0  0  0  0  0  0  0  0  0  0
    3.4255  107.4592   24.0629 C   0  0  0  0  0  0  0  0  0  0  0  0
    2.4312  107.4388   23.2200 N   0  0  0  0  0  0  0  0  0  0  0  0
    5.4942  108.4301   24.9686 C   0  0  0  0  0  0  0  0  0  0  0  0
    6.4854  109.5816   25.0144 C   0  0  0  0  0  0  0  0  0  0  0  0
    3.4800  106.4866   25.0872 C   0  0  0  0  0  0  0  0  0  0  0  0
    5.5925  107.4542   25.9060 C   0  0  0  0  0  0  0  0  0  0  0  0
    6.3535  110.3610   24.1682 O   0  0  0  0  0  0  0  0  0  0  0  0
    7.3526  109.5765   25.8863 N   0  0  0  0  0  0  0  0  0  0  0  0
    6.6324  107.4019   26.8261 O   0  0  0  0  0  0  0  0  0  0  0  0
    1.5176  106.6437   23.1522 C   0  0  0  0  0  0  0  0  0  0  0  0
    7.5972  108.4907   26.9208 C   0  0  0  0  0  0  0  0  0  0  0  0
    2.6092  105.3793   25.1326 C   0  0  0  0  0  0  0  0  0  0  0  0
    1.4572  105.5431   24.1154 N   0  0  0  0  0  0  0  0  0  0  0  0
    4.6112  106.3639   26.0334 C   0  0  0  0  0  0  0  0  0  0  0  0
    0.4533  106.6857   22.4117 O   0  0  0  0  0  0  0  0  0  0  0  0
  1  2  1  0
  2  3  1  0
  1  4  2  0
  4  5  1  0
  2  6  2  0
  4  7  1  0
  5  8  2  0
  5  9  1  0
  7 10  1  0
  3 11  1  0
  9 12  1  0
 10 12  1  0
  6 13  1  0
 11 14  1  0
 13 14  2  0
  6 15  1  0
  7 15  2  0
 11 16  2  0
M  END
>  <ID>  (1) 
conformer_0

$$$$
