
     RDKit          3D

 16 17  0  0  0  0  0  0  0  0999 V2000
    4.3288  108.3558   23.9034 C   0  0  0  0  0  0  0  0  0  0  0  0
    3.2838  107.4089   23.9729 C   0  0  0  0  0  0  0  0  0  0  0  0
    2.2211  107.5109   23.2278 N   0  0  0  0  0  0  0  0  0  0  0  0
    1.2059  106.6291   23.4230 C   0  0  0  0  0  0  0  0  0  0  0  0
    1.3347  105.5974   24.2932 N   0  0  0  0  0  0  0  0  0  0  0  0
    5.3920  108.5006   24.8827 C   0  0  0  0  0  0  0  0  0  0  0  0
   -0.1505  106.8975   22.6813 C   0  0  0  0  0  0  0  0  0  0  0  0
    3.3421  106.3755   24.8999 C   0  0  0  0  0  0  0  0  0  0  0  0
    6.4085  109.5189   24.7700 C   0  0  0  0  0  0  0  0  0  0  0  0
    4.6087  106.2646   25.7861 C   0  0  0  0  0  0  0  0  0  0  0  0
    5.4035  107.4018   25.8729 C   0  0  0  0  0  0  0  0  0  0  0  0
   -0.0866  107.4360   21.6132 O   0  0  0  0  0  0  0  0  0  0  0  0
    7.0444  109.9718   25.5953 O   0  0  0  0  0  0  0  0  0  0  0  0
    2.4002  105.4541   25.0123 C   0  0  0  0  0  0  0  0  0  0  0  0
    6.3705  110.1988   23.6067 O   0  0  0  0  0  0  0  0  0  0  0  0
   -1.1656  106.4253   23.2989 O   0  0  0  0  0  0  0  0  0  0  0  0
  1  2  1  0
  2  3  1  0
  3  4  2  0
  4  5  1  0
  1  6  2  0
  4  7  1  0
  2  8  2  0
  6  9  1  0
  8 10  1  0
  6 11  1  0
 10 11  2  0
  7 12  2  0
  9 13  1  0
  5 14  2  0
  8 14  1  0
  9 15  2  0
  7 16  1  0
M  END
>  <ID>  (1) 
conformer_0

$$$$
