
     RDKit          3D

  9  9  0  0  0  0  0  0  0  0999 V2000
   -2.3231  109.4531   19.7945 C   0  0  0  0  0  0  0  0  0  0  0  0
   -1.8072  108.5367   19.0868 C   0  0  0  0  0  0  0  0  0  0  0  0
   -0.8437  107.7427   19.6475 N   0  0  0  0  0  0  0  0  0  0  0  0
   -2.9593  109.0332   20.9927 C   0  0  0  0  0  0  0  0  0  0  0  0
   -0.8876  107.8923   20.9815 C   0  0  0  0  0  0  0  0  0  0  0  0
   -1.8734  108.3821   21.7463 C   0  0  0  0  0  0  0  0  0  0  0  0
    0.0930  107.0890   21.7298 N   0  0  0  0  0  0  0  0  0  0  0  0
   -1.8941  108.2742   23.0828 N   0  0  0  0  0  0  0  0  0  0  0  0
   -2.9907  108.7711   23.7993 O   0  0  0  0  0  0  0  0  0  0  0  0
  1  2  1  0
  2  3  1  0
  1  4  1  0
  3  5  2  0
  4  6  1  0
  5  6  1  0
  5  7  1  0
  6  8  2  3
  8  9  1  0
M  END
>  <ID>  (1) 
conformer_0

$$$$
