
     RDKit          3D

  6  6  0  0  0  0  0  0  0  0999 V2000
    5.4504  109.2017   24.2343 C   0  0  0  0  0  0  0  0  0  0  0  0
    4.6124  108.3023   24.3660 C   0  0  0  0  0  0  0  0  0  0  0  0
    6.7097  109.3703   24.7050 C   0  0  0  0  0  0  0  0  0  0  0  0
    7.1362  108.3136   25.4978 C   0  0  0  0  0  0  0  0  0  0  0  0
    5.0331  107.2626   25.2706 C   0  0  0  0  0  0  0  0  0  0  0  0
    6.2039  107.2128   25.8479 C   0  0  0  0  0  0  0  0  0  0  0  0
  1  2  2  0
  1  3  1  0
  3  4  2  0
  2  5  1  0
  4  6  1  0
  5  6  2  0
M  END
>  <ID>  (1) 
conformer_0

$$$$
