
     RDKit          3D

 10 10  0  0  0  0  0  0  0  0999 V2000
    4.3276  108.4719   24.1039 C   0  0  0  0  0  0  0  0  0  0  0  0
    3.8351  107.2710   24.5051 C   0  0  0  0  0  0  0  0  0  0  0  0
    2.7193  106.6972   23.9055 C   0  0  0  0  0  0  0  0  0  0  0  0
    5.3817  109.0409   24.9322 C   0  0  0  0  0  0  0  0  0  0  0  0
    2.0911  105.7438   24.3416 N   0  0  0  0  0  0  0  0  0  0  0  0
    4.2854  106.5828   25.6313 C   0  0  0  0  0  0  0  0  0  0  0  0
    5.4446  107.3600   26.2572 C   0  0  0  0  0  0  0  0  0  0  0  0
    2.1551  107.2860   22.7709 N   0  0  0  0  0  0  0  0  0  0  0  0
    5.9446  108.4434   25.9500 C   0  0  0  0  0  0  0  0  0  0  0  0
    7.1415  109.1633   26.7048 C   0  0  0  0  0  0  0  0  0  0  0  0
  1  2  1  0
  2  3  1  0
  1  4  2  0
  3  5  2  0
  2  6  2  0
  6  7  1  0
  3  8  1  0
  4  9  1  0
  7  9  2  0
  9 10  1  0
M  END
>  <ID>  (1) 
conformer_0

$$$$
