
     RDKit          3D

  9  9  0  0  0  0  0  0  0  0999 V2000
   -3.2861  109.4621   18.9569 C   0  0  0  0  0  0  0  0  0  0  0  0
   -2.5513  108.3902   18.7461 C   0  0  0  0  0  0  0  0  0  0  0  0
   -3.2585  109.9219   20.3637 C   0  0  0  0  0  0  0  0  0  0  0  0
   -1.6607  107.9024   19.6157 C   0  0  0  0  0  0  0  0  0  0  0  0
   -1.6008  108.3931   20.9326 C   0  0  0  0  0  0  0  0  0  0  0  0
   -2.4783  109.4009   21.3171 C   0  0  0  0  0  0  0  0  0  0  0  0
   -0.7994  107.7518   21.9339 C   0  0  0  0  0  0  0  0  0  0  0  0
   -0.2934  106.5912   21.7720 O   0  0  0  0  0  0  0  0  0  0  0  0
   -0.5190  108.3881   23.0592 O   0  0  0  0  0  0  0  0  0  0  0  0
  1  2  1  0
  1  3  2  0
  2  4  2  0
  4  5  1  0
  3  6  1  0
  5  6  2  0
  5  7  1  0
  7  8  2  0
  7  9  1  0
M  END
>  <ID>  (1) 
conformer_0

$$$$
