
     RDKit          3D

  7  7  0  0  0  0  0  0  0  0999 V2000
   -2.3231  109.4531   19.7945 C   0  0  0  0  0  0  0  0  0  0  0  0
   -1.8072  108.5367   19.0868 C   0  0  0  0  0  0  0  0  0  0  0  0
   -0.8437  107.7427   19.6475 N   0  0  0  0  0  0  0  0  0  0  0  0
   -1.1854  107.4018   20.7607 C   0  0  0  0  0  0  0  0  0  0  0  0
   -3.5887  110.1243   19.2456 C   0  0  0  0  0  0  0  0  0  0  0  0
   -2.9729  109.0818   21.1802 C   0  0  0  0  0  0  0  0  0  0  0  0
   -1.8016  108.3200   21.8402 C   0  0  0  0  0  0  0  0  0  0  0  0
  1  2  1  0
  2  3  1  0
  3  4  1  0
  1  5  1  0
  1  6  1  0
  4  7  1  0
  6  7  1  0
M  END
>  <ID>  (1) 
conformer_0

$$$$
