
     RDKit          3D

 13 15  0  0  0  0  0  0  0  0999 V2000
    4.3288  108.3558   23.9034 C   0  0  0  0  0  0  0  0  0  0  0  0
    3.7878  107.2311   24.4661 C   0  0  0  0  0  0  0  0  0  0  0  0
    5.6673  108.7180   24.4705 C   0  0  0  0  0  0  0  0  0  0  0  0
    6.0575  108.0824   25.5960 C   0  0  0  0  0  0  0  0  0  0  0  0
    7.2362  108.5108   26.1863 C   0  0  0  0  0  0  0  0  0  0  0  0
    4.2720  106.6076   25.3171 C   0  0  0  0  0  0  0  0  0  0  0  0
    2.5149  106.8676   24.1980 N   0  0  0  0  0  0  0  0  0  0  0  0
    7.6947  109.6511   25.5874 N   0  0  0  0  0  0  0  0  0  0  0  0
    6.8802  109.7710   24.4132 C   0  0  0  0  0  0  0  0  0  0  0  0
    3.4666  105.4672   25.7470 N   0  0  0  0  0  0  0  0  0  0  0  0
    2.3394  105.7286   24.9689 C   0  0  0  0  0  0  0  0  0  0  0  0
    5.3995  106.9112   26.0179 C   0  0  0  0  0  0  0  0  0  0  0  0
    6.9515  110.7033   23.4499 O   0  0  0  0  0  0  0  0  0  0  0  0
  1  2  1  0
  1  3  1  0
  3  4  1  0
  4  5  2  0
  2  6  1  0
  2  7  2  0
  5  8  1  0
  3  9  1  0
  8  9  2  0
  6 10  1  0
  7 11  1  0
 10 11  2  0
  4 12  1  0
  6 12  2  0
  9 13  1  0
M  END
>  <ID>  (1) 
conformer_0

$$$$
