
     RDKit          3D

 20 22  0  0  0  0  0  0  0  0999 V2000
    4.9240  109.0047   24.6224 C   0  0  0  0  0  0  0  0  0  0  0  0
    4.1895  107.9753   24.4688 C   0  0  0  0  0  0  0  0  0  0  0  0
    6.2203  109.0634   25.2044 C   0  0  0  0  0  0  0  0  0  0  0  0
    2.9173  108.0004   23.8769 N   0  0  0  0  0  0  0  0  0  0  0  0
    2.2288  106.8712   23.6052 C   0  0  0  0  0  0  0  0  0  0  0  0
    4.6756  106.7832   25.0396 C   0  0  0  0  0  0  0  0  0  0  0  0
    0.9549  106.9931   23.0534 C   0  0  0  0  0  0  0  0  0  0  0  0
    6.6780  107.8708   25.7471 C   0  0  0  0  0  0  0  0  0  0  0  0
    3.8894  105.5637   25.0172 N   0  0  0  0  0  0  0  0  0  0  0  0
    0.4626  107.9806   22.5680 O   0  0  0  0  0  0  0  0  0  0  0  0
   -0.7794  108.1976   21.9419 C   0  0  0  0  0  0  0  0  0  0  0  0
   -1.7362  108.3500   22.6890 C   0  0  0  0  0  0  0  0  0  0  0  0
   -3.0608  108.5517   22.2160 C   0  0  0  0  0  0  0  0  0  0  0  0
   -0.7484  108.3764   20.5936 C   0  0  0  0  0  0  0  0  0  0  0  0
    0.2489  108.1987   19.7545 F   0  0  0  0  0  0  0  0  0  0  0  0
   -2.0821  108.6284   19.9897 C   0  0  0  0  0  0  0  0  0  0  0  0
   -2.2340  108.7898   18.4458 C   0  0  0  0  0  0  0  0  0  0  0  0
    5.8885  106.6805   25.7650 C   0  0  0  0  0  0  0  0  0  0  0  0
   -3.2206  108.8024   20.8065 C   0  0  0  0  0  0  0  0  0  0  0  0
    2.7277  105.7087   24.3549 C   0  0  0  0  0  0  0  0  0  0  0  0
  1  2  2  0
  1  3  1  0
  2  4  1  0
  4  5  1  0
  2  6  1  0
  5  7  1  0
  3  8  2  0
  6  9  1  0
  7 10  1  0
 10 11  1  0
 11 12  2  0
 12 13  1  0
 11 14  1  0
 14 15  1  0
 14 16  2  0
 16 17  1  0
  6 18  2  0
  8 18  1  0
 13 19  2  0
 16 19  1  0
  5 20  2  0
  9 20  1  0
M  END
>  <ID>  (1) 
conformer_0

$$$$
