
     RDKit          3D

 11 11  0  0  0  0  0  0  0  0999 V2000
   -3.3319  109.6465   20.6113 C   0  0  0  0  0  0  0  0  0  0  0  0
   -2.5176  109.0327   19.8714 C   0  0  0  0  0  0  0  0  0  0  0  0
   -1.4168  108.4149   20.2724 C   0  0  0  0  0  0  0  0  0  0  0  0
   -3.2964  109.3142   22.0735 C   0  0  0  0  0  0  0  0  0  0  0  0
   -4.2062  109.8906   22.9684 O   0  0  0  0  0  0  0  0  0  0  0  0
   -1.1955  108.2733   21.7748 C   0  0  0  0  0  0  0  0  0  0  0  0
   -2.1427  108.7226   22.6293 C   0  0  0  0  0  0  0  0  0  0  0  0
   -0.0956  107.5246   22.1853 C   0  0  0  0  0  0  0  0  0  0  0  0
   -2.6224  109.3227   18.1892 Cl  0  0  0  0  0  0  0  0  0  0  0  0
    0.8384  107.9303   22.7734 O   0  0  0  0  0  0  0  0  0  0  0  0
   -0.2400  106.1668   22.1229 O   0  0  0  0  0  0  0  0  0  0  0  0
  1  2  1  0
  2  3  2  0
  1  4  2  0
  4  5  1  0
  3  6  1  0
  4  7  1  0
  6  7  2  0
  6  8  1  0
  2  9  1  0
  8 10  1  0
  8 11  2  0
M  END
>  <ID>  (1) 
conformer_0

$$$$
