
     RDKit          3D

 13 15  0  0  0  0  0  0  0  0999 V2000
    4.3288  108.3558   23.9034 C   0  0  0  0  0  0  0  0  0  0  0  0
    3.7878  107.2311   24.4661 C   0  0  0  0  0  0  0  0  0  0  0  0
    5.6673  108.7180   24.4705 C   0  0  0  0  0  0  0  0  0  0  0  0
    6.0575  108.0824   25.5960 C   0  0  0  0  0  0  0  0  0  0  0  0
    7.2362  108.5108   26.1863 C   0  0  0  0  0  0  0  0  0  0  0  0
    4.2720  106.6076   25.3171 C   0  0  0  0  0  0  0  0  0  0  0  0
    2.5149  106.8676   24.1980 N   0  0  0  0  0  0  0  0  0  0  0  0
    7.6947  109.6511   25.5874 N   0  0  0  0  0  0  0  0  0  0  0  0
    2.4235  105.7510   24.9582 C   0  0  0  0  0  0  0  0  0  0  0  0
    6.9397  109.7283   24.3363 C   0  0  0  0  0  0  0  0  0  0  0  0
    1.2724  104.8531   24.9745 N   0  0  0  0  0  0  0  0  0  0  0  0
    5.3950  106.9136   25.9806 N   0  0  0  0  0  0  0  0  0  0  0  0
    3.4252  105.5077   25.7891 N   0  0  0  0  0  0  0  0  0  0  0  0
  1  2  1  0
  1  3  1  0
  3  4  1  0
  4  5  2  0
  2  6  1  0
  2  7  2  0
  5  8  1  0
  7  9  1  0
  3 10  2  0
  8 10  1  0
  9 11  1  0
  4 12  1  0
  6 12  2  0
  6 13  1  0
  9 13  2  0
M  END
>  <ID>  (1) 
conformer_0

$$$$
