
     RDKit          3D

 10 10  0  0  0  0  0  0  0  0999 V2000
   -3.5586  109.4049   19.3310 C   0  0  0  0  0  0  0  0  0  0  0  0
   -2.7704  108.5890   18.8489 C   0  0  0  0  0  0  0  0  0  0  0  0
   -1.9131  107.9898   19.8132 C   0  0  0  0  0  0  0  0  0  0  0  0
   -3.7760  109.5398   20.6237 C   0  0  0  0  0  0  0  0  0  0  0  0
   -2.9205  108.9847   21.5610 C   0  0  0  0  0  0  0  0  0  0  0  0
   -0.7863  107.1654   19.1413 O   0  0  0  0  0  0  0  0  0  0  0  0
   -1.9127  108.1431   21.1274 C   0  0  0  0  0  0  0  0  0  0  0  0
   -1.0063  107.5384   22.0047 C   0  0  0  0  0  0  0  0  0  0  0  0
   -1.2129  106.6069   22.7559 O   0  0  0  0  0  0  0  0  0  0  0  0
    0.3142  107.8292   21.9584 O   0  0  0  0  0  0  0  0  0  0  0  0
  1  2  1  0
  2  3  2  0
  1  4  2  0
  4  5  1  0
  3  6  1  0
  3  7  1  0
  5  7  2  0
  7  8  1  0
  8  9  1  0
  8 10  2  0
M  END
>  <ID>  (1) 
conformer_0

$$$$
