
     RDKit          3D

 10 10  0  0  0  0  0  0  0  0999 V2000
   -0.6074  108.5569   19.4415 C   0  0  0  0  0  0  0  0  0  0  0  0
   -0.9472  108.4152   20.6493 C   0  0  0  0  0  0  0  0  0  0  0  0
   -1.7063  108.7489   18.4502 C   0  0  0  0  0  0  0  0  0  0  0  0
   -2.9612  108.8914   19.0897 C   0  0  0  0  0  0  0  0  0  0  0  0
    0.1956  108.0597   21.5152 O   0  0  0  0  0  0  0  0  0  0  0  0
   -2.1169  108.5445   21.2706 C   0  0  0  0  0  0  0  0  0  0  0  0
    0.0335  107.9491   22.8817 C   0  0  0  0  0  0  0  0  0  0  0  0
   -0.0310  106.4805   23.2320 C   0  0  0  0  0  0  0  0  0  0  0  0
   -3.2781  108.8556   20.4205 C   0  0  0  0  0  0  0  0  0  0  0  0
    0.7915  105.8625   22.5010 O   0  0  0  0  0  0  0  0  0  0  0  0
  1  2  1  0
  1  3  2  0
  3  4  1  0
  2  5  1  0
  2  6  2  0
  5  7  1  0
  7  8  1  0
  4  9  2  0
  6  9  1  0
  8 10  1  0
M  END
>  <ID>  (1) 
conformer_0

$$$$
