
     RDKit          3D

 10 10  0  0  0  0  0  0  0  0999 V2000
   -3.2861  109.4621   18.9569 C   0  0  0  0  0  0  0  0  0  0  0  0
   -2.5513  108.3902   18.7461 C   0  0  0  0  0  0  0  0  0  0  0  0
   -1.1641  108.3335   19.3268 C   0  0  0  0  0  0  0  0  0  0  0  0
   -4.0821  109.4166   20.0814 C   0  0  0  0  0  0  0  0  0  0  0  0
   -1.3529  108.2540   20.8749 C   0  0  0  0  0  0  0  0  0  0  0  0
   -0.3588  107.8804   21.7758 C   0  0  0  0  0  0  0  0  0  0  0  0
   -3.4601  108.8503   21.2883 C   0  0  0  0  0  0  0  0  0  0  0  0
   -4.2687  108.7120   22.3855 O   0  0  0  0  0  0  0  0  0  0  0  0
   -0.5046  107.7725   23.1343 C   0  0  0  0  0  0  0  0  0  0  0  0
   -2.2629  108.4585   21.3750 O   0  0  0  0  0  0  0  0  0  0  0  0
  1  2  1  0
  2  3  1  0
  1  4  1  0
  3  5  1  0
  5  6  2  3
  4  7  1  0
  7  8  2  0
  6  9  1  0
  5 10  1  0
  7 10  1  0
M  END
>  <ID>  (1) 
conformer_0

$$$$
