
     RDKit          3D

  7  7  0  0  0  0  0  0  0  0999 V2000
   -4.1298  109.6347   20.5129 C   0  0  0  0  0  0  0  0  0  0  0  0
   -3.0770  109.1136   19.7497 C   0  0  0  0  0  0  0  0  0  0  0  0
   -1.8910  108.7999   20.4412 C   0  0  0  0  0  0  0  0  0  0  0  0
   -1.8522  108.8668   21.7958 C   0  0  0  0  0  0  0  0  0  0  0  0
   -4.0582  109.3059   21.8472 C   0  0  0  0  0  0  0  0  0  0  0  0
   -0.6714  108.4903   19.6310 C   0  0  0  0  0  0  0  0  0  0  0  0
   -2.9655  108.9946   22.5097 C   0  0  0  0  0  0  0  0  0  0  0  0
  1  2  1  0
  2  3  2  0
  3  4  1  0
  1  5  2  0
  3  6  1  0
  4  7  2  0
  5  7  1  0
M  END
>  <ID>  (1) 
conformer_0

$$$$
