
     RDKit          3D

 11 12  0  0  0  0  0  0  0  0999 V2000
    4.3288  108.3558   23.9034 C   0  0  0  0  0  0  0  0  0  0  0  0
    3.7878  107.2311   24.4661 C   0  0  0  0  0  0  0  0  0  0  0  0
    2.6951  106.7173   24.2352 N   0  0  0  0  0  0  0  0  0  0  0  0
    2.2578  105.6080   24.9391 C   0  0  0  0  0  0  0  0  0  0  0  0
    2.8555  105.0629   25.9799 N   0  0  0  0  0  0  0  0  0  0  0  0
    5.4724  109.0282   24.6401 C   0  0  0  0  0  0  0  0  0  0  0  0
    5.9378  108.4898   25.7602 C   0  0  0  0  0  0  0  0  0  0  0  0
    5.4973  107.4024   26.3404 C   0  0  0  0  0  0  0  0  0  0  0  0
    4.3448  106.7046   25.7595 C   0  0  0  0  0  0  0  0  0  0  0  0
    7.1177  109.2016   26.3004 C   0  0  0  0  0  0  0  0  0  0  0  0
    3.9297  105.6350   26.4195 C   0  0  0  0  0  0  0  0  0  0  0  0
  1  2  1  0
  2  3  1  0
  3  4  2  0
  4  5  1  0
  1  6  2  0
  6  7  1  0
  7  8  2  0
  2  9  2  0
  8  9  1  0
  7 10  1  0
  5 11  2  0
  9 11  1  0
M  END
>  <ID>  (1) 
conformer_0

$$$$
