
     RDKit          3D

  6  6  0  0  0  0  0  0  0  0999 V2000
   -1.0850  108.1519   18.8370 C   0  0  0  0  0  0  0  0  0  0  0  0
   -2.3886  108.5039   18.7461 C   0  0  0  0  0  0  0  0  0  0  0  0
   -2.9481  108.5737   20.0123 C   0  0  0  0  0  0  0  0  0  0  0  0
   -0.6477  108.4621   20.2028 C   0  0  0  0  0  0  0  0  0  0  0  0
   -3.9715  109.5857   20.2345 O   0  0  0  0  0  0  0  0  0  0  0  0
   -1.7890  108.6966   20.8647 C   0  0  0  0  0  0  0  0  0  0  0  0
  1  2  1  0
  2  3  1  0
  1  4  1  0
  3  5  1  0
  3  6  1  0
  4  6  1  0
M  END
>  <ID>  (1) 
conformer_0

$$$$
