
     RDKit          3D

 15 16  0  0  0  0  0  0  0  0999 V2000
    4.9240  109.0047   24.6224 C   0  0  0  0  0  0  0  0  0  0  0  0
    4.1895  107.9753   24.4688 C   0  0  0  0  0  0  0  0  0  0  0  0
    6.2203  109.0634   25.2044 C   0  0  0  0  0  0  0  0  0  0  0  0
    2.9173  108.0004   23.8769 N   0  0  0  0  0  0  0  0  0  0  0  0
    7.0351  110.2822   25.2897 O   0  0  0  0  0  0  0  0  0  0  0  0
    2.3757  106.7618   23.4842 C   0  0  0  0  0  0  0  0  0  0  0  0
    0.9985  106.7783   23.1406 C   0  0  0  0  0  0  0  0  0  0  0  0
    6.7095  107.9205   25.7953 C   0  0  0  0  0  0  0  0  0  0  0  0
    4.5024  106.7090   25.1611 C   0  0  0  0  0  0  0  0  0  0  0  0
    2.5868  105.7553   24.3482 N   0  0  0  0  0  0  0  0  0  0  0  0
    5.8575  106.8111   25.8241 C   0  0  0  0  0  0  0  0  0  0  0  0
    0.4453  107.1615   22.1161 O   0  0  0  0  0  0  0  0  0  0  0  0
    3.6467  105.8069   25.2156 C   0  0  0  0  0  0  0  0  0  0  0  0
    3.8266  104.7648   26.0092 O   0  0  0  0  0  0  0  0  0  0  0  0
    0.1608  106.3555   24.1761 O   0  0  0  0  0  0  0  0  0  0  0  0
  1  2  2  0
  1  3  1  0
  2  4  1  0
  3  5  1  0
  4  6  1  0
  6  7  1  0
  3  8  2  0
  2  9  1  0
  6 10  1  0
  8 11  1  0
  9 11  2  0
  7 12  2  0
  9 13  1  0
 10 13  1  0
 13 14  2  0
  7 15  1  0
M  END
>  <ID>  (1) 
conformer_0

$$$$
