
     RDKit          3D

 14 14  0  0  0  0  0  0  0  0999 V2000
    4.9240  109.0047   24.6224 C   0  0  0  0  0  0  0  0  0  0  0  0
    4.1895  107.9753   24.4688 C   0  0  0  0  0  0  0  0  0  0  0  0
    6.2203  109.0634   25.2044 C   0  0  0  0  0  0  0  0  0  0  0  0
    2.9173  108.0004   23.8769 N   0  0  0  0  0  0  0  0  0  0  0  0
    7.0351  110.2822   25.2897 O   0  0  0  0  0  0  0  0  0  0  0  0
    2.3757  106.7618   23.4842 C   0  0  0  0  0  0  0  0  0  0  0  0
    0.9985  106.7783   23.1406 C   0  0  0  0  0  0  0  0  0  0  0  0
    6.7095  107.9205   25.7953 C   0  0  0  0  0  0  0  0  0  0  0  0
    7.9771  108.0417   26.4065 O   0  0  0  0  0  0  0  0  0  0  0  0
    4.7615  106.7544   25.1309 C   0  0  0  0  0  0  0  0  0  0  0  0
    3.9706  105.5542   25.1069 O   0  0  0  0  0  0  0  0  0  0  0  0
    0.2704  107.7264   23.0946 O   0  0  0  0  0  0  0  0  0  0  0  0
    0.3536  105.5426   23.2407 O   0  0  0  0  0  0  0  0  0  0  0  0
    5.9633  106.8184   25.7631 C   0  0  0  0  0  0  0  0  0  0  0  0
  1  2  2  0
  1  3  1  0
  2  4  1  0
  3  5  1  0
  4  6  1  0
  6  7  1  0
  3  8  2  0
  8  9  1  0
  2 10  1  0
 10 11  1  0
  7 12  1  0
  7 13  2  0
  8 14  1  0
 10 14  2  0
M  END
>  <ID>  (1) 
conformer_0

$$$$
