
     RDKit          3D

 15 17  0  0  0  0  0  0  0  0999 V2000
    5.2286  109.5269   24.4946 C   0  0  0  0  0  0  0  0  0  0  0  0
    6.1888  109.6735   25.2867 N   0  0  0  0  0  0  0  0  0  0  0  0
    4.4732  108.3743   24.6072 C   0  0  0  0  0  0  0  0  0  0  0  0
    3.2945  108.0220   23.9186 C   0  0  0  0  0  0  0  0  0  0  0  0
    2.7815  106.7369   24.0354 C   0  0  0  0  0  0  0  0  0  0  0  0
    1.5992  106.3296   23.3553 N   0  0  0  0  0  0  0  0  0  0  0  0
    1.0978  105.2594   23.6513 C   0  0  0  0  0  0  0  0  0  0  0  0
    3.4790  105.8509   24.9080 C   0  0  0  0  0  0  0  0  0  0  0  0
    2.9136  104.5825   24.9652 N   0  0  0  0  0  0  0  0  0  0  0  0
    1.8138  104.3197   24.3866 C   0  0  0  0  0  0  0  0  0  0  0  0
    7.0413  108.8278   25.5394 C   0  0  0  0  0  0  0  0  0  0  0  0
    6.5189  107.5159   25.8777 C   0  0  0  0  0  0  0  0  0  0  0  0
    5.2145  107.2959   25.2147 C   0  0  0  0  0  0  0  0  0  0  0  0
    4.6506  106.1163   25.4732 C   0  0  0  0  0  0  0  0  0  0  0  0
    7.9800  109.3488   26.5207 O   0  0  0  0  0  0  0  0  0  0  0  0
  1  2  1  0
  1  3  2  0
  3  4  1  0
  4  5  2  0
  5  6  1  0
  6  7  2  0
  5  8  1  0
  8  9  1  0
  7 10  1  0
  9 10  2  0
  2 11  1  0
 11 12  1  0
  3 13  1  0
 12 13  1  0
  8 14  1  0
 13 14  2  0
 11 15  2  0
M  END
>  <ID>  (1) 
conformer_0

$$$$
