
     RDKit          3D

 20 22  0  0  0  0  0  0  0  0999 V2000
    4.9240  109.0047   24.6224 C   0  0  0  0  0  0  0  0  0  0  0  0
    4.1895  107.9753   24.4688 C   0  0  0  0  0  0  0  0  0  0  0  0
    6.2203  109.0634   25.2044 C   0  0  0  0  0  0  0  0  0  0  0  0
    2.9173  108.0004   23.8769 N   0  0  0  0  0  0  0  0  0  0  0  0
    2.2288  106.8712   23.6052 C   0  0  0  0  0  0  0  0  0  0  0  0
    4.6756  106.7832   25.0396 C   0  0  0  0  0  0  0  0  0  0  0  0
    0.9549  106.9931   23.0534 C   0  0  0  0  0  0  0  0  0  0  0  0
    6.6780  107.8708   25.7471 C   0  0  0  0  0  0  0  0  0  0  0  0
    3.8894  105.5637   25.0172 N   0  0  0  0  0  0  0  0  0  0  0  0
    0.4626  107.9806   22.5680 O   0  0  0  0  0  0  0  0  0  0  0  0
   -0.7794  108.1976   21.9419 C   0  0  0  0  0  0  0  0  0  0  0  0
   -0.8306  108.2162   20.6251 C   0  0  0  0  0  0  0  0  0  0  0  0
   -1.8521  108.2962   22.7806 C   0  0  0  0  0  0  0  0  0  0  0  0
   -2.0829  108.5476   19.9998 C   0  0  0  0  0  0  0  0  0  0  0  0
    2.7390  105.7541   24.3823 C   0  0  0  0  0  0  0  0  0  0  0  0
   -3.1820  108.6820   20.7693 C   0  0  0  0  0  0  0  0  0  0  0  0
   -2.1526  108.6317   18.2234 Cl  0  0  0  0  0  0  0  0  0  0  0  0
    5.8701  106.6700   25.7170 C   0  0  0  0  0  0  0  0  0  0  0  0
   -4.5466  109.0613   20.1377 C   0  0  0  0  0  0  0  0  0  0  0  0
   -3.1244  108.7060   22.2459 C   0  0  0  0  0  0  0  0  0  0  0  0
  1  2  2  0
  1  3  1  0
  2  4  1  0
  4  5  1  0
  2  6  1  0
  5  7  1  0
  3  8  2  0
  6  9  1  0
  7 10  1  0
 10 11  1  0
 11 12  2  0
 11 13  1  0
 12 14  1  0
  5 15  2  0
  9 15  2  0
 14 16  2  0
 14 17  1  0
  6 18  2  0
  8 18  1  0
 16 19  1  0
 13 20  2  0
 16 20  1  0
M  END
>  <ID>  (1) 
conformer_0

$$$$
