
     RDKit          3D

 14 16  0  0  0  0  0  0  0  0999 V2000
    5.2286  109.5269   24.4946 C   0  0  0  0  0  0  0  0  0  0  0  0
    6.1888  109.6735   25.2867 N   0  0  0  0  0  0  0  0  0  0  0  0
    4.4732  108.3743   24.6072 C   0  0  0  0  0  0  0  0  0  0  0  0
    3.2945  108.0220   23.9186 C   0  0  0  0  0  0  0  0  0  0  0  0
    2.7815  106.7369   24.0354 C   0  0  0  0  0  0  0  0  0  0  0  0
    1.5992  106.3296   23.3553 N   0  0  0  0  0  0  0  0  0  0  0  0
    1.0978  105.2594   23.6513 C   0  0  0  0  0  0  0  0  0  0  0  0
    4.9942  107.3454   25.5274 C   0  0  0  0  0  0  0  0  0  0  0  0
    3.4172  105.7757   24.9429 C   0  0  0  0  0  0  0  0  0  0  0  0
    6.2540  107.7565   26.2381 C   0  0  0  0  0  0  0  0  0  0  0  0
    1.7621  104.2099   24.3826 C   0  0  0  0  0  0  0  0  0  0  0  0
    4.5031  106.2374   25.7454 N   0  0  0  0  0  0  0  0  0  0  0  0
    6.8512  108.9293   25.9781 C   0  0  0  0  0  0  0  0  0  0  0  0
    2.8437  104.5802   25.1270 C   0  0  0  0  0  0  0  0  0  0  0  0
  1  2  1  0
  1  3  2  0
  3  4  1  0
  4  5  2  0
  5  6  1  0
  6  7  2  0
  3  8  1  0
  5  9  1  0
  8 10  2  0
  7 11  1  0
  8 12  1  0
  9 12  1  0
  2 13  2  0
 10 13  1  0
  9 14  1  0
 11 14  2  0
M  END
>  <ID>  (1) 
conformer_0

$$$$
