
     RDKit          3D

  9  8  0  0  0  0  0  0  0  0999 V2000
    4.3288  108.3558   23.9034 C   0  0  0  0  0  0  0  0  0  0  0  0
    3.2838  107.4089   23.9729 C   0  0  0  0  0  0  0  0  0  0  0  0
    4.8039  108.9676   25.1132 O   0  0  0  0  0  0  0  0  0  0  0  0
    5.9696  108.5112   25.5838 C   0  0  0  0  0  0  0  0  0  0  0  0
    6.8950  109.5813   25.7575 C   0  0  0  0  0  0  0  0  0  0  0  0
    6.9952  110.3981   24.9248 O   0  0  0  0  0  0  0  0  0  0  0  0
    2.4143  107.3041   23.1675 O   0  0  0  0  0  0  0  0  0  0  0  0
    7.5127  109.7976   26.8804 O   0  0  0  0  0  0  0  0  0  0  0  0
    3.2758  106.6825   25.1328 N   0  0  0  0  0  0  0  0  0  0  0  0
  1  2  1  0
  1  3  1  0
  3  4  1  0
  4  5  1  0
  5  6  2  0
  2  7  2  0
  5  8  1  0
  2  9  1  0
M  END
>  <ID>  (1) 
conformer_0

$$$$
