
     RDKit          3D

  7  7  0  0  0  0  0  0  0  0999 V2000
   -0.7994  108.3123   19.2771 C   0  0  0  0  0  0  0  0  0  0  0  0
   -1.0295  108.3406   20.5097 C   0  0  0  0  0  0  0  0  0  0  0  0
   -0.0541  107.9498   21.3722 O   0  0  0  0  0  0  0  0  0  0  0  0
   -2.2860  107.8728   20.8736 C   0  0  0  0  0  0  0  0  0  0  0  0
   -1.9216  108.7382   18.4031 C   0  0  0  0  0  0  0  0  0  0  0  0
   -2.9604  109.4336   19.2369 C   0  0  0  0  0  0  0  0  0  0  0  0
   -2.9674  109.2029   20.5484 C   0  0  0  0  0  0  0  0  0  0  0  0
  1  2  1  0
  2  3  1  0
  2  4  1  0
  1  5  1  0
  5  6  1  0
  4  7  1  0
  6  7  1  0
M  END
>  <ID>  (1) 
conformer_0

$$$$
