
     RDKit          3D

  7  7  0  0  0  0  0  0  0  0999 V2000
    5.4504  109.2017   24.2343 C   0  0  0  0  0  0  0  0  0  0  0  0
    4.6124  108.3023   24.3660 C   0  0  0  0  0  0  0  0  0  0  0  0
    6.7154  109.3161   24.7162 C   0  0  0  0  0  0  0  0  0  0  0  0
    5.0159  107.2470   25.2489 C   0  0  0  0  0  0  0  0  0  0  0  0
    4.0936  106.1631   25.4865 N   0  0  0  0  0  0  0  0  0  0  0  0
    6.2959  107.3010   25.7810 C   0  0  0  0  0  0  0  0  0  0  0  0
    7.1073  108.2554   25.7367 C   0  0  0  0  0  0  0  0  0  0  0  0
  1  2  1  0
  1  3  2  0
  2  4  2  0
  4  5  1  0
  4  6  1  0
  3  7  1  0
  6  7  2  0
M  END
>  <ID>  (1) 
conformer_0

$$$$
