
     RDKit          3D

 11 12  0  0  0  0  0  0  0  0999 V2000
    5.2286  109.5269   24.4946 C   0  0  0  0  0  0  0  0  0  0  0  0
    4.7964  108.3417   24.4773 C   0  0  0  0  0  0  0  0  0  0  0  0
    6.5871  109.9005   24.8724 C   0  0  0  0  0  0  0  0  0  0  0  0
    3.4376  107.9556   24.1275 C   0  0  0  0  0  0  0  0  0  0  0  0
    5.4153  107.3320   25.2527 C   0  0  0  0  0  0  0  0  0  0  0  0
    3.2626  106.5972   23.6991 N   0  0  0  0  0  0  0  0  0  0  0  0
    4.9473  106.0716   25.5768 N   0  0  0  0  0  0  0  0  0  0  0  0
    7.2801  108.9357   25.5989 C   0  0  0  0  0  0  0  0  0  0  0  0
    6.8912  107.7949   25.8668 C   0  0  0  0  0  0  0  0  0  0  0  0
    2.7739  105.6616   24.7245 C   0  0  0  0  0  0  0  0  0  0  0  0
    3.6851  105.7800   26.0183 C   0  0  0  0  0  0  0  0  0  0  0  0
  1  2  1  0
  1  3  2  0
  2  4  1  0
  2  5  2  0
  4  6  1  0
  5  7  1  0
  3  8  1  0
  5  9  1  0
  8  9  2  0
  6 10  1  0
  7 11  1  0
 10 11  1  0
M  END
>  <ID>  (1) 
conformer_0

$$$$
