
     RDKit          3D

  9  9  0  0  0  0  0  0  0  0999 V2000
    5.0246  108.5585   24.1135 C   0  0  0  0  0  0  0  0  0  0  0  0
    4.2170  107.6429   24.5705 C   0  0  0  0  0  0  0  0  0  0  0  0
    3.0602  107.1883   23.8511 C   0  0  0  0  0  0  0  0  0  0  0  0
    6.0670  109.0558   24.9531 C   0  0  0  0  0  0  0  0  0  0  0  0
    4.6943  106.8601   25.6743 C   0  0  0  0  0  0  0  0  0  0  0  0
    6.3922  108.2385   26.1957 C   0  0  0  0  0  0  0  0  0  0  0  0
    2.4557  107.9248   23.1917 O   0  0  0  0  0  0  0  0  0  0  0  0
    5.6953  107.2006   26.4909 C   0  0  0  0  0  0  0  0  0  0  0  0
    2.8185  105.8428   23.8799 N   0  0  0  0  0  0  0  0  0  0  0  0
  1  2  1  0
  2  3  1  0
  1  4  2  0
  2  5  2  0
  4  6  1  0
  3  7  2  0
  5  8  1  0
  6  8  2  0
  3  9  1  0
M  END
>  <ID>  (1) 
conformer_0

$$$$
