
     RDKit          3D

 20 22  0  0  0  0  0  0  0  0999 V2000
    4.9240  109.0047   24.6224 C   0  0  0  0  0  0  0  0  0  0  0  0
    4.1895  107.9753   24.4688 C   0  0  0  0  0  0  0  0  0  0  0  0
    6.2203  109.0634   25.2044 C   0  0  0  0  0  0  0  0  0  0  0  0
    2.9173  108.0004   23.8769 N   0  0  0  0  0  0  0  0  0  0  0  0
    2.2288  106.8712   23.6052 C   0  0  0  0  0  0  0  0  0  0  0  0
    4.6756  106.7832   25.0396 C   0  0  0  0  0  0  0  0  0  0  0  0
    0.9549  106.9931   23.0534 C   0  0  0  0  0  0  0  0  0  0  0  0
    6.6780  107.8708   25.7471 C   0  0  0  0  0  0  0  0  0  0  0  0
    3.8894  105.5637   25.0172 N   0  0  0  0  0  0  0  0  0  0  0  0
    0.4626  107.9806   22.5680 O   0  0  0  0  0  0  0  0  0  0  0  0
   -0.7794  108.1976   21.9419 C   0  0  0  0  0  0  0  0  0  0  0  0
   -1.7362  108.3500   22.6890 C   0  0  0  0  0  0  0  0  0  0  0  0
   -3.0608  108.5517   22.2160 C   0  0  0  0  0  0  0  0  0  0  0  0
   -0.7484  108.3764   20.5936 C   0  0  0  0  0  0  0  0  0  0  0  0
    5.8787  106.7559   25.6886 C   0  0  0  0  0  0  0  0  0  0  0  0
   -2.0102  108.6805   20.0037 C   0  0  0  0  0  0  0  0  0  0  0  0
    2.6632  105.7463   24.3524 C   0  0  0  0  0  0  0  0  0  0  0  0
   -3.0843  108.8338   20.7913 C   0  0  0  0  0  0  0  0  0  0  0  0
   -1.9098  108.8597   18.4167 C   0  0  0  0  0  0  0  0  0  0  0  0
   -4.4509  109.3258   20.2563 C   0  0  0  0  0  0  0  0  0  0  0  0
  1  2  2  0
  1  3  1  0
  2  4  1  0
  4  5  1  0
  2  6  1  0
  5  7  1  0
  3  8  2  0
  6  9  1  0
  7 10  1  0
 10 11  1  0
 11 12  2  0
 12 13  1  0
 11 14  1  0
  6 15  2  0
  8 15  1  0
 14 16  2  0
  5 17  2  0
  9 17  2  0
 13 18  2  0
 16 18  1  0
 16 19  1  0
 18 20  1  0
M  END
>  <ID>  (1) 
conformer_0

$$$$
