
     RDKit          3D

  9  9  0  0  0  0  0  0  0  0999 V2000
    6.4127  110.3890   24.5011 O   0  0  0  0  0  0  0  0  0  0  0  0
    5.8816  109.3549   24.6450 C   0  0  0  0  0  0  0  0  0  0  0  0
    6.6360  108.4511   25.4419 N   0  0  0  0  0  0  0  0  0  0  0  0
    4.7306  109.0217   24.2206 C   0  0  0  0  0  0  0  0  0  0  0  0
    4.2339  107.7560   24.5147 C   0  0  0  0  0  0  0  0  0  0  0  0
    6.1722  107.2663   25.7963 C   0  0  0  0  0  0  0  0  0  0  0  0
    6.8589  106.4414   26.6229 N   0  0  0  0  0  0  0  0  0  0  0  0
    4.9132  106.8891   25.3970 N   0  0  0  0  0  0  0  0  0  0  0  0
    3.0300  107.2108   24.0611 N   0  0  0  0  0  0  0  0  0  0  0  0
  1  2  2  0
  2  3  1  0
  2  4  1  0
  4  5  2  0
  3  6  1  0
  6  7  2  0
  5  8  1  0
  6  8  1  0
  5  9  1  0
M  END
>  <ID>  (1) 
conformer_0

$$$$
