
     RDKit          3D

 15 17  0  0  0  0  0  0  0  0999 V2000
   -2.5635  109.2470   19.2500 C   0  0  0  0  0  0  0  0  0  0  0  0
   -2.5613  109.5134   20.4963 C   0  0  0  0  0  0  0  0  0  0  0  0
   -1.5932  108.8695   21.3115 C   0  0  0  0  0  0  0  0  0  0  0  0
   -1.5059  109.0592   22.7300 C   0  0  0  0  0  0  0  0  0  0  0  0
   -0.8741  108.0044   23.4111 C   0  0  0  0  0  0  0  0  0  0  0  0
   -1.1823  107.4145   24.4414 N   0  0  0  0  0  0  0  0  0  0  0  0
   -1.5450  108.5123   18.6207 C   0  0  0  0  0  0  0  0  0  0  0  0
    0.2228  107.3263   22.5683 C   0  0  0  0  0  0  0  0  0  0  0  0
   -0.6046  108.1274   20.6848 C   0  0  0  0  0  0  0  0  0  0  0  0
    1.0023  106.3655   23.3469 N   0  0  0  0  0  0  0  0  0  0  0  0
   -0.5816  107.9896   19.3527 C   0  0  0  0  0  0  0  0  0  0  0  0
   -0.4274  106.4522   25.0893 C   0  0  0  0  0  0  0  0  0  0  0  0
    0.5794  106.0074   24.6844 C   0  0  0  0  0  0  0  0  0  0  0  0
    1.3484  105.0218   25.3045 N   0  0  0  0  0  0  0  0  0  0  0  0
    0.3527  107.4025   21.3685 N   0  0  0  0  0  0  0  0  0  0  0  0
  1  2  1  0
  2  3  2  0
  3  4  1  0
  4  5  1  0
  5  6  2  0
  1  7  2  0
  5  8  1  0
  3  9  1  0
  8 10  1  0
  7 11  1  0
  9 11  2  0
  6 12  1  0
 10 13  1  0
 12 13  2  0
 13 14  1  0
  8 15  2  0
  9 15  1  0
M  END
>  <ID>  (1) 
conformer_0

$$$$
