
     RDKit          3D

 10 10  0  0  0  0  0  0  0  0999 V2000
    5.0246  108.5585   24.1135 C   0  0  0  0  0  0  0  0  0  0  0  0
    4.2170  107.6429   24.5705 C   0  0  0  0  0  0  0  0  0  0  0  0
    3.0155  107.3568   24.0126 C   0  0  0  0  0  0  0  0  0  0  0  0
    4.6687  106.8613   25.6635 C   0  0  0  0  0  0  0  0  0  0  0  0
    2.5368  107.7392   23.1027 O   0  0  0  0  0  0  0  0  0  0  0  0
    5.9837  107.3183   26.2093 C   0  0  0  0  0  0  0  0  0  0  0  0
    2.3638  106.1441   24.5196 N   0  0  0  0  0  0  0  0  0  0  0  0
    6.5403  108.2963   25.9081 C   0  0  0  0  0  0  0  0  0  0  0  0
    6.1456  109.0911   24.7575 C   0  0  0  0  0  0  0  0  0  0  0  0
    7.8159  108.9467   26.4163 O   0  0  0  0  0  0  0  0  0  0  0  0
  1  2  1  0
  2  3  1  0
  2  4  2  0
  3  5  2  0
  4  6  1  0
  3  7  1  0
  6  8  2  0
  1  9  2  0
  8  9  1  0
  8 10  1  0
M  END
>  <ID>  (1) 
conformer_0

$$$$
