
     RDKit          3D

  9  9  0  0  0  0  0  0  0  0999 V2000
    5.0246  108.5585   24.1135 C   0  0  0  0  0  0  0  0  0  0  0  0
    4.2170  107.6429   24.5705 C   0  0  0  0  0  0  0  0  0  0  0  0
    5.8805  109.0264   24.7701 C   0  0  0  0  0  0  0  0  0  0  0  0
    3.0389  107.1275   23.8352 C   0  0  0  0  0  0  0  0  0  0  0  0
    6.0196  108.2775   26.1156 C   0  0  0  0  0  0  0  0  0  0  0  0
    2.5886  106.1136   23.9985 O   0  0  0  0  0  0  0  0  0  0  0  0
    2.2845  107.9607   23.2653 O   0  0  0  0  0  0  0  0  0  0  0  0
    4.3697  107.0032   25.8297 C   0  0  0  0  0  0  0  0  0  0  0  0
    5.4127  107.4090   26.5688 N   0  0  0  0  0  0  0  0  0  0  0  0
  1  2  1  0
  1  3  2  0
  2  4  1  0
  3  5  1  0
  4  6  1  0
  4  7  2  0
  2  8  2  0
  5  9  2  0
  8  9  1  0
M  END
>  <ID>  (1) 
conformer_0

$$$$
