
     RDKit          3D

  9  9  0  0  0  0  0  0  0  0999 V2000
   -2.3790  109.0019   18.7002 C   0  0  0  0  0  0  0  0  0  0  0  0
   -3.2363  109.3951   19.5770 C   0  0  0  0  0  0  0  0  0  0  0  0
   -1.3729  108.2577   19.3752 C   0  0  0  0  0  0  0  0  0  0  0  0
   -1.2667  107.9904   20.6573 C   0  0  0  0  0  0  0  0  0  0  0  0
   -0.2136  107.1573   21.1595 O   0  0  0  0  0  0  0  0  0  0  0  0
   -4.2838  110.2465   19.0515 F   0  0  0  0  0  0  0  0  0  0  0  0
   -2.2106  108.4493   21.4700 C   0  0  0  0  0  0  0  0  0  0  0  0
   -2.1616  108.1817   22.9155 C   0  0  0  0  0  0  0  0  0  0  0  0
   -3.2361  109.2493   20.9683 C   0  0  0  0  0  0  0  0  0  0  0  0
  1  2  1  0
  1  3  2  0
  3  4  1  0
  4  5  1  0
  2  6  1  0
  4  7  2  0
  7  8  1  0
  2  9  2  0
  7  9  1  0
M  END
>  <ID>  (1) 
conformer_0

$$$$
