
     RDKit          3D

 13 14  0  0  0  0  0  0  0  0999 V2000
    4.5869  108.5698   24.5066 C   0  0  0  0  0  0  0  0  0  0  0  0
    4.0511  107.4444   24.5499 C   0  0  0  0  0  0  0  0  0  0  0  0
    2.8497  107.1926   24.1995 C   0  0  0  0  0  0  0  0  0  0  0  0
    4.9973  106.4548   24.7151 N   0  0  0  0  0  0  0  0  0  0  0  0
    5.9179  108.9634   24.8772 C   0  0  0  0  0  0  0  0  0  0  0  0
    6.2334  106.7613   25.1831 C   0  0  0  0  0  0  0  0  0  0  0  0
    6.7526  107.9615   25.2853 C   0  0  0  0  0  0  0  0  0  0  0  0
    2.3024  107.4014   22.9655 N   0  0  0  0  0  0  0  0  0  0  0  0
    2.2072  105.9302   24.7447 C   0  0  0  0  0  0  0  0  0  0  0  0
    0.9106  105.6375   24.4256 C   0  0  0  0  0  0  0  0  0  0  0  0
    0.2655  104.6199   25.1726 C   0  0  0  0  0  0  0  0  0  0  0  0
    1.0485  107.2329   22.6461 C   0  0  0  0  0  0  0  0  0  0  0  0
    0.2759  106.3678   23.2733 C   0  0  0  0  0  0  0  0  0  0  0  0
  1  2  1  0
  2  3  1  0
  2  4  2  0
  1  5  2  0
  4  6  1  0
  5  7  1  0
  6  7  2  0
  3  8  2  0
  3  9  1  0
  9 10  2  0
 10 11  1  0
  8 12  1  0
 10 13  1  0
 12 13  2  0
M  END
>  <ID>  (1) 
conformer_0

$$$$
