
     RDKit          3D

  9 10  0  0  0  0  0  0  0  0999 V2000
    6.4108  109.7990   24.9162 C   0  0  0  0  0  0  0  0  0  0  0  0
    5.4201  108.8903   24.7044 C   0  0  0  0  0  0  0  0  0  0  0  0
    4.4019  108.9846   23.9049 N   0  0  0  0  0  0  0  0  0  0  0  0
    7.4339  109.5500   25.7655 C   0  0  0  0  0  0  0  0  0  0  0  0
    3.6809  107.8053   23.9226 C   0  0  0  0  0  0  0  0  0  0  0  0
    7.4311  108.2585   26.4455 C   0  0  0  0  0  0  0  0  0  0  0  0
    5.4736  107.6597   25.3651 C   0  0  0  0  0  0  0  0  0  0  0  0
    6.5272  107.3615   26.2559 C   0  0  0  0  0  0  0  0  0  0  0  0
    4.2990  106.8373   24.9383 C   0  0  0  0  0  0  0  0  0  0  0  0
  1  2  1  0
  2  3  1  0
  1  4  2  0
  3  5  2  0
  4  6  1  0
  2  7  2  0
  6  8  2  0
  7  8  1  0
  5  9  1  0
  7  9  1  0
M  END
>  <ID>  (1) 
conformer_0

$$$$
