
     RDKit          3D

 11 11  0  0  0  0  0  0  0  0999 V2000
    4.5869  108.5698   24.5066 C   0  0  0  0  0  0  0  0  0  0  0  0
    4.0511  107.4444   24.5499 C   0  0  0  0  0  0  0  0  0  0  0  0
    2.8086  107.1347   23.8726 C   0  0  0  0  0  0  0  0  0  0  0  0
    4.8192  106.3674   25.0217 N   0  0  0  0  0  0  0  0  0  0  0  0
    5.9608  108.8416   25.0289 C   0  0  0  0  0  0  0  0  0  0  0  0
    6.5714  107.7996   25.6348 C   0  0  0  0  0  0  0  0  0  0  0  0
    6.5269  110.2499   25.0943 C   0  0  0  0  0  0  0  0  0  0  0  0
    1.9191  106.3918   24.1798 N   0  0  0  0  0  0  0  0  0  0  0  0
    7.7918  107.9533   26.2845 N   0  0  0  0  0  0  0  0  0  0  0  0
    2.6259  107.7495   22.7053 O   0  0  0  0  0  0  0  0  0  0  0  0
    5.9689  106.5024   25.6021 C   0  0  0  0  0  0  0  0  0  0  0  0
  1  2  2  0
  2  3  1  0
  2  4  1  0
  1  5  1  0
  5  6  2  0
  5  7  1  0
  3  8  1  0
  6  9  1  0
  3 10  2  0
  4 11  2  0
  6 11  1  0
M  END
>  <ID>  (1) 
conformer_0

$$$$
