
     RDKit          3D

 16 17  0  0  0  0  0  0  0  0999 V2000
    4.3276  108.4719   24.1039 C   0  0  0  0  0  0  0  0  0  0  0  0
    3.4255  107.4592   24.0629 C   0  0  0  0  0  0  0  0  0  0  0  0
    2.4312  107.4388   23.2200 N   0  0  0  0  0  0  0  0  0  0  0  0
    5.4942  108.4301   24.9686 C   0  0  0  0  0  0  0  0  0  0  0  0
    1.3377  107.1879   23.4961 C   0  0  0  0  0  0  0  0  0  0  0  0
    3.7026  106.3924   24.8792 C   0  0  0  0  0  0  0  0  0  0  0  0
    0.1863  107.4824   22.5019 C   0  0  0  0  0  0  0  0  0  0  0  0
    5.5827  107.2447   25.8172 C   0  0  0  0  0  0  0  0  0  0  0  0
    6.7456  107.3109   26.6835 C   0  0  0  0  0  0  0  0  0  0  0  0
    6.3803  109.5481   25.0827 C   0  0  0  0  0  0  0  0  0  0  0  0
    2.7419  105.2150   24.8146 N   0  0  0  0  0  0  0  0  0  0  0  0
    7.2922  109.5313   26.0416 N   0  0  0  0  0  0  0  0  0  0  0  0
    4.7315  106.2613   25.7318 C   0  0  0  0  0  0  0  0  0  0  0  0
    7.8197  108.1941   26.4075 C   0  0  0  0  0  0  0  0  0  0  0  0
    0.1015  106.7575   21.4771 O   0  0  0  0  0  0  0  0  0  0  0  0
   -0.7147  108.3297   22.7924 O   0  0  0  0  0  0  0  0  0  0  0  0
  1  2  1  0
  2  3  1  0
  1  4  2  0
  3  5  1  0
  2  6  2  0
  5  7  1  0
  4  8  1  0
  8  9  1  0
  4 10  1  0
  6 11  1  0
 10 12  1  0
  6 13  1  0
  8 13  2  0
  9 14  1  0
 12 14  1  0
  7 15  2  0
  7 16  1  0
M  END
>  <ID>  (1) 
conformer_0

$$$$
