
     RDKit          3D

  7  7  0  0  0  0  0  0  0  0999 V2000
   -2.7983  108.7225   18.7045 C   0  0  0  0  0  0  0  0  0  0  0  0
   -3.5288  109.2585   19.5231 C   0  0  0  0  0  0  0  0  0  0  0  0
   -1.3991  108.7571   18.9195 C   0  0  0  0  0  0  0  0  0  0  0  0
   -0.4943  108.0979   18.1512 O   0  0  0  0  0  0  0  0  0  0  0  0
   -0.9173  109.2253   20.1816 C   0  0  0  0  0  0  0  0  0  0  0  0
   -1.9115  109.6608   21.0927 C   0  0  0  0  0  0  0  0  0  0  0  0
   -3.3000  109.6276   20.8018 C   0  0  0  0  0  0  0  0  0  0  0  0
  1  2  1  0
  1  3  2  0
  3  4  1  0
  3  5  1  0
  5  6  2  0
  2  7  2  0
  6  7  1  0
M  END
>  <ID>  (1) 
conformer_0

$$$$
