
     RDKit          3D

 11 11  0  0  0  0  0  0  0  0999 V2000
    4.3276  108.4719   24.1039 C   0  0  0  0  0  0  0  0  0  0  0  0
    3.8351  107.2710   24.5051 C   0  0  0  0  0  0  0  0  0  0  0  0
    2.7193  106.6972   23.9055 C   0  0  0  0  0  0  0  0  0  0  0  0
    5.3817  109.0409   24.9322 C   0  0  0  0  0  0  0  0  0  0  0  0
    4.3715  106.5594   25.6292 C   0  0  0  0  0  0  0  0  0  0  0  0
    5.9440  110.2859   24.5355 O   0  0  0  0  0  0  0  0  0  0  0  0
    2.5031  105.4187   24.0250 N   0  0  0  0  0  0  0  0  0  0  0  0
    5.9817  108.4625   25.9738 C   0  0  0  0  0  0  0  0  0  0  0  0
    5.4644  107.1479   26.2871 C   0  0  0  0  0  0  0  0  0  0  0  0
    7.0527  108.9735   26.6147 O   0  0  0  0  0  0  0  0  0  0  0  0
    2.0872  107.4123   22.9638 O   0  0  0  0  0  0  0  0  0  0  0  0
  1  2  1  0
  2  3  1  0
  1  4  2  0
  2  5  2  0
  4  6  1  0
  3  7  1  0
  4  8  1  0
  5  9  1  0
  8  9  2  0
  8 10  1  0
  3 11  2  0
M  END
>  <ID>  (1) 
conformer_0

$$$$
