
     RDKit          3D

 21 23  0  0  0  0  0  0  0  0999 V2000
    4.3288  108.3558   23.9034 C   0  0  0  0  0  0  0  0  0  0  0  0
    3.7878  107.2311   24.4661 C   0  0  0  0  0  0  0  0  0  0  0  0
    2.6267  106.6263   23.9626 C   0  0  0  0  0  0  0  0  0  0  0  0
    4.5966  106.4200   25.2941 N   0  0  0  0  0  0  0  0  0  0  0  0
    5.4823  108.9729   24.4734 C   0  0  0  0  0  0  0  0  0  0  0  0
    1.7817  107.3699   23.2571 N   0  0  0  0  0  0  0  0  0  0  0  0
    2.4636  105.2403   24.0905 C   0  0  0  0  0  0  0  0  0  0  0  0
    6.2037  108.2513   25.4795 C   0  0  0  0  0  0  0  0  0  0  0  0
    0.6943  106.5403   22.9370 C   0  0  0  0  0  0  0  0  0  0  0  0
    0.9021  105.2311   23.3637 C   0  0  0  0  0  0  0  0  0  0  0  0
   -0.4332  107.0478   22.2162 C   0  0  0  0  0  0  0  0  0  0  0  0
   -0.4529  107.4267   21.1701 N   0  0  0  0  0  0  0  0  0  0  0  0
   -1.4046  108.0875   20.5056 C   0  0  0  0  0  0  0  0  0  0  0  0
    5.7265  107.1708   25.8575 C   0  0  0  0  0  0  0  0  0  0  0  0
   -1.4629  108.3122   19.1612 C   0  0  0  0  0  0  0  0  0  0  0  0
   -2.3888  108.8791   21.2921 C   0  0  0  0  0  0  0  0  0  0  0  0
    7.4818  108.9864   26.0768 C   0  0  0  0  0  0  0  0  0  0  0  0
   -1.5656  106.9974   22.9441 O   0  0  0  0  0  0  0  0  0  0  0  0
   -2.5273  109.1525   18.6101 C   0  0  0  0  0  0  0  0  0  0  0  0
   -3.4300  109.5179   20.5949 C   0  0  0  0  0  0  0  0  0  0  0  0
   -3.4017  109.5840   19.2174 C   0  0  0  0  0  0  0  0  0  0  0  0
  1  2  1  0
  2  3  1  0
  2  4  2  0
  1  5  2  0
  3  6  2  0
  3  7  1  0
  5  8  1  0
  6  9  1  0
  7 10  1  0
  9 10  2  0
  9 11  1  0
 11 12  1  0
 12 13  1  0
  4 14  1  0
  8 14  2  0
 13 15  2  0
 13 16  1  0
  8 17  1  0
 11 18  2  0
 15 19  1  0
 16 20  2  0
 19 21  2  0
 20 21  1  0
M  END
>  <ID>  (1) 
conformer_0

$$$$
