
     RDKit          3D

 21 23  0  0  0  0  0  0  0  0999 V2000
    4.3288  108.3558   23.9034 C   0  0  0  0  0  0  0  0  0  0  0  0
    3.2838  107.4089   23.9729 C   0  0  0  0  0  0  0  0  0  0  0  0
    2.2211  107.5109   23.2278 N   0  0  0  0  0  0  0  0  0  0  0  0
    1.1564  106.9599   23.2619 C   0  0  0  0  0  0  0  0  0  0  0  0
    1.2986  105.8583   24.0859 N   0  0  0  0  0  0  0  0  0  0  0  0
    5.4035  108.4451   24.9197 C   0  0  0  0  0  0  0  0  0  0  0  0
   -0.0326  107.1188   22.3817 C   0  0  0  0  0  0  0  0  0  0  0  0
   -0.5648  108.3418   22.4617 C   0  0  0  0  0  0  0  0  0  0  0  0
   -0.6410  106.1365   21.7440 C   0  0  0  0  0  0  0  0  0  0  0  0
    5.2628  107.3859   25.8551 C   0  0  0  0  0  0  0  0  0  0  0  0
   -1.7588  106.6547   21.0046 N   0  0  0  0  0  0  0  0  0  0  0  0
    6.4454  109.5336   24.9814 C   0  0  0  0  0  0  0  0  0  0  0  0
    3.2472  106.4783   24.9160 C   0  0  0  0  0  0  0  0  0  0  0  0
    2.2440  105.5557   24.9357 C   0  0  0  0  0  0  0  0  0  0  0  0
   -2.1156  107.7885   20.9544 C   0  0  0  0  0  0  0  0  0  0  0  0
    4.3665  106.4257   25.8086 C   0  0  0  0  0  0  0  0  0  0  0  0
   -1.4279  108.7798   21.7273 C   0  0  0  0  0  0  0  0  0  0  0  0
   -3.3668  108.3142   19.9394 S   0  0  0  0  0  0  0  0  0  0  0  0
   -2.7534  109.1611   18.6952 C   0  0  0  0  0  0  0  0  0  0  0  0
    6.2829  110.4485   24.3833 O   0  0  0  0  0  0  0  0  0  0  0  0
    7.2866  109.3584   25.9494 O   0  0  0  0  0  0  0  0  0  0  0  0
  1  2  1  0
  2  3  1  0
  3  4  2  0
  4  5  1  0
  1  6  2  0
  4  7  1  0
  7  8  1  0
  7  9  2  0
  6 10  1  0
  9 11  1  0
  6 12  1  0
  2 13  2  0
  5 14  2  0
 13 14  1  0
 11 15  2  0
 10 16  2  0
 13 16  1  0
  8 17  2  0
 15 17  1  0
 15 18  1  0
 18 19  1  0
 12 20  2  0
 12 21  1  0
M  END
>  <ID>  (1) 
conformer_0

$$$$
