
     RDKit          3D

  9  9  0  0  0  0  0  0  0  0999 V2000
    5.4504  109.2017   24.2343 C   0  0  0  0  0  0  0  0  0  0  0  0
    4.6124  108.3023   24.3660 C   0  0  0  0  0  0  0  0  0  0  0  0
    5.0228  107.3431   25.3272 C   0  0  0  0  0  0  0  0  0  0  0  0
    6.6185  109.3568   24.8260 C   0  0  0  0  0  0  0  0  0  0  0  0
    4.1538  106.1639   25.5300 C   0  0  0  0  0  0  0  0  0  0  0  0
    6.3188  107.4640   25.8902 C   0  0  0  0  0  0  0  0  0  0  0  0
    7.4833  110.5212   24.5014 O   0  0  0  0  0  0  0  0  0  0  0  0
    6.6867  106.4443   26.8451 N   0  0  0  0  0  0  0  0  0  0  0  0
    7.1193  108.4708   25.6696 C   0  0  0  0  0  0  0  0  0  0  0  0
  1  2  1  0
  2  3  2  0
  1  4  2  0
  3  5  1  0
  3  6  1  0
  4  7  1  0
  6  8  1  0
  4  9  1  0
  6  9  2  0
M  END
>  <ID>  (1) 
conformer_0

$$$$
