
     RDKit          3D

 13 14  0  0  0  0  0  0  0  0999 V2000
    4.9240  109.0047   24.6224 C   0  0  0  0  0  0  0  0  0  0  0  0
    4.1895  107.9753   24.4688 C   0  0  0  0  0  0  0  0  0  0  0  0
    6.2203  109.0634   25.2044 C   0  0  0  0  0  0  0  0  0  0  0  0
    2.9173  108.0004   23.8769 N   0  0  0  0  0  0  0  0  0  0  0  0
    2.2748  106.8573   23.6279 C   0  0  0  0  0  0  0  0  0  0  0  0
    4.7675  106.7663   24.9949 C   0  0  0  0  0  0  0  0  0  0  0  0
    0.9726  106.9577   23.0736 C   0  0  0  0  0  0  0  0  0  0  0  0
    6.7227  107.8809   25.7024 C   0  0  0  0  0  0  0  0  0  0  0  0
    3.9460  105.5201   24.9457 N   0  0  0  0  0  0  0  0  0  0  0  0
    0.4776  107.9566   22.5768 O   0  0  0  0  0  0  0  0  0  0  0  0
    2.6961  105.6281   24.2924 C   0  0  0  0  0  0  0  0  0  0  0  0
    5.9724  106.7126   25.6853 C   0  0  0  0  0  0  0  0  0  0  0  0
    0.2508  105.8080   23.1026 O   0  0  0  0  0  0  0  0  0  0  0  0
  1  2  2  0
  1  3  1  0
  2  4  1  0
  4  5  1  0
  2  6  1  0
  5  7  1  0
  3  8  2  0
  6  9  1  0
  7 10  2  0
  5 11  1  0
  9 11  1  0
  6 12  2  0
  8 12  1  0
  7 13  1  0
M  END
>  <ID>  (1) 
conformer_0

$$$$
