
     RDKit          3D

  7  7  0  0  0  0  0  0  0  0999 V2000
   -0.6074  108.5569   19.4415 C   0  0  0  0  0  0  0  0  0  0  0  0
   -1.8087  108.5694   18.7431 C   0  0  0  0  0  0  0  0  0  0  0  0
   -2.6100  109.7964   19.0335 C   0  0  0  0  0  0  0  0  0  0  0  0
   -0.7059  108.0665   20.8374 C   0  0  0  0  0  0  0  0  0  0  0  0
    0.0674  107.4097   21.4429 O   0  0  0  0  0  0  0  0  0  0  0  0
   -2.8534  109.8476   20.5508 C   0  0  0  0  0  0  0  0  0  0  0  0
   -1.9254  108.6250   21.5291 C   0  0  0  0  0  0  0  0  0  0  0  0
  1  2  1  0
  2  3  1  0
  1  4  1  0
  4  5  1  0
  3  6  1  0
  4  7  2  0
  6  7  1  0
M  END
>  <ID>  (1) 
conformer_0

$$$$
