
     RDKit          3D

  8  8  0  0  0  0  0  0  0  0999 V2000
    5.4504  109.2017   24.2343 C   0  0  0  0  0  0  0  0  0  0  0  0
    4.6124  108.3023   24.3660 C   0  0  0  0  0  0  0  0  0  0  0  0
    6.7154  109.3161   24.7162 C   0  0  0  0  0  0  0  0  0  0  0  0
    5.0159  107.2470   25.2489 C   0  0  0  0  0  0  0  0  0  0  0  0
    4.0936  106.1631   25.4865 N   0  0  0  0  0  0  0  0  0  0  0  0
    6.1361  107.2486   25.8658 C   0  0  0  0  0  0  0  0  0  0  0  0
    7.6083  110.3550   24.5310 O   0  0  0  0  0  0  0  0  0  0  0  0
    7.0986  108.2622   25.6291 C   0  0  0  0  0  0  0  0  0  0  0  0
  1  2  1  0
  1  3  2  0
  2  4  2  0
  4  5  1  0
  4  6  1  0
  3  7  1  0
  3  8  1  0
  6  8  2  0
M  END
>  <ID>  (1) 
conformer_0

$$$$
