
     RDKit          3D

  8  8  0  0  0  0  0  0  0  0999 V2000
   -1.4579  108.5156   18.8740 C   0  0  0  0  0  0  0  0  0  0  0  0
   -2.8076  108.4627   18.6869 C   0  0  0  0  0  0  0  0  0  0  0  0
   -0.9410  108.6900   20.0866 C   0  0  0  0  0  0  0  0  0  0  0  0
   -3.6634  108.7044   19.7011 C   0  0  0  0  0  0  0  0  0  0  0  0
    0.3849  108.4854   20.3513 O   0  0  0  0  0  0  0  0  0  0  0  0
   -5.0797  108.8216   19.5105 O   0  0  0  0  0  0  0  0  0  0  0  0
   -1.8066  108.6790   21.1980 C   0  0  0  0  0  0  0  0  0  0  0  0
   -3.1922  108.8097   21.0024 C   0  0  0  0  0  0  0  0  0  0  0  0
  1  2  2  0
  1  3  1  0
  2  4  1  0
  3  5  1  0
  4  6  1  0
  3  7  2  0
  4  8  2  0
  7  8  1  0
M  END
>  <ID>  (1) 
conformer_0

$$$$
