
     RDKit          3D

 13 13  0  0  0  0  0  0  0  0999 V2000
    4.3276  108.4719   24.1039 C   0  0  0  0  0  0  0  0  0  0  0  0
    3.4255  107.4592   24.0629 C   0  0  0  0  0  0  0  0  0  0  0  0
    2.4312  107.4388   23.2200 N   0  0  0  0  0  0  0  0  0  0  0  0
    5.4942  108.4301   24.9686 C   0  0  0  0  0  0  0  0  0  0  0  0
    1.3377  107.1879   23.4961 C   0  0  0  0  0  0  0  0  0  0  0  0
    3.7026  106.3924   24.8792 C   0  0  0  0  0  0  0  0  0  0  0  0
    0.1863  107.4824   22.5019 C   0  0  0  0  0  0  0  0  0  0  0  0
    5.5827  107.2447   25.8172 C   0  0  0  0  0  0  0  0  0  0  0  0
    6.7456  107.3109   26.6835 C   0  0  0  0  0  0  0  0  0  0  0  0
    4.8322  106.3029   25.8156 C   0  0  0  0  0  0  0  0  0  0  0  0
    7.6596  108.3525   26.5594 N   0  0  0  0  0  0  0  0  0  0  0  0
   -0.1252  106.7795   21.6119 O   0  0  0  0  0  0  0  0  0  0  0  0
   -0.4895  108.5691   22.6734 O   0  0  0  0  0  0  0  0  0  0  0  0
  1  2  1  0
  2  3  1  0
  1  4  2  0
  3  5  1  0
  2  6  2  0
  5  7  1  0
  4  8  1  0
  8  9  1  0
  6 10  1  0
  8 10  2  0
  9 11  2  0
  7 12  2  0
  7 13  1  0
M  END
>  <ID>  (1) 
conformer_0

$$$$
