
     RDKit          3D

  9 10  0  0  0  0  0  0  0  0999 V2000
    6.4108  109.7990   24.9162 C   0  0  0  0  0  0  0  0  0  0  0  0
    5.4201  108.8903   24.7044 C   0  0  0  0  0  0  0  0  0  0  0  0
    4.4019  108.9846   23.9049 N   0  0  0  0  0  0  0  0  0  0  0  0
    7.4339  109.5500   25.7655 C   0  0  0  0  0  0  0  0  0  0  0  0
    3.6809  107.8053   23.9226 C   0  0  0  0  0  0  0  0  0  0  0  0
    7.4311  108.2585   26.4455 C   0  0  0  0  0  0  0  0  0  0  0  0
    3.9637  106.7228   24.6259 C   0  0  0  0  0  0  0  0  0  0  0  0
    6.5256  107.3327   26.2332 C   0  0  0  0  0  0  0  0  0  0  0  0
    5.3723  107.5720   25.2897 C   0  0  0  0  0  0  0  0  0  0  0  0
  1  2  1  0
  2  3  1  0
  1  4  2  0
  3  5  2  0
  4  6  1  0
  5  7  1  0
  6  8  2  0
  2  9  1  0
  7  9  2  0
  8  9  1  0
M  END
>  <ID>  (1) 
conformer_0

$$$$
