
     RDKit          3D

  9  9  0  0  0  0  0  0  0  0999 V2000
   -2.5635  109.2470   19.2500 C   0  0  0  0  0  0  0  0  0  0  0  0
   -2.5613  109.5134   20.4963 C   0  0  0  0  0  0  0  0  0  0  0  0
   -1.5932  108.8695   21.3115 C   0  0  0  0  0  0  0  0  0  0  0  0
   -1.5059  109.0592   22.7300 C   0  0  0  0  0  0  0  0  0  0  0  0
   -0.5528  108.0737   20.6930 C   0  0  0  0  0  0  0  0  0  0  0  0
   -0.6468  107.9680   19.2516 C   0  0  0  0  0  0  0  0  0  0  0  0
   -2.6066  108.6105   23.4729 O   0  0  0  0  0  0  0  0  0  0  0  0
   -1.7051  108.5841   18.5395 C   0  0  0  0  0  0  0  0  0  0  0  0
   -0.3588  108.4122   23.3628 N   0  0  0  0  0  0  0  0  0  0  0  0
  1  2  1  0
  2  3  2  0
  3  4  1  0
  3  5  1  0
  5  6  2  0
  4  7  1  0
  1  8  2  0
  6  8  1  0
  4  9  1  0
M  END
>  <ID>  (1) 
conformer_0

$$$$
