
     RDKit          3D

 31 37  0  0  0  0  0  0  0  0999 V2000
   46.1556   34.7610   82.7746 O   0  0  0  0  0  0  0  0  0  0  0  0
   45.6556   35.9610   82.6746 C   0  0  0  0  0  0  0  0  0  0  0  0
   46.1556   37.1610   81.9746 C   0  0  0  0  0  0  0  0  0  0  0  0
   44.2556   36.1610   83.1746 C   0  0  0  0  0  0  0  0  0  0  0  0
   45.2556   38.2610   81.9746 C   0  0  0  0  0  0  0  0  0  0  0  0
   45.2556   36.6610   84.0746 C   0  0  0  0  0  0  0  0  0  0  0  0
   43.2556   36.7610   82.3746 C   0  0  0  0  0  0  0  0  0  0  0  0
   44.5556   38.7610   83.0746 C   0  0  0  0  0  0  0  0  0  0  0  0
   43.7556   38.6610   84.0746 C   0  0  0  0  0  0  0  0  0  0  0  0
   46.1556   37.7610   84.4746 C   0  0  0  0  0  0  0  0  0  0  0  0
   42.8556   39.4610   84.7746 C   0  0  0  0  0  0  0  0  0  0  0  0
   42.2556   38.8610   85.8746 N   0  0  0  0  0  4  0  0  0  0  0  0
   42.0556   37.6610   85.4746 N   0  0  0  0  0  0  0  0  0  0  0  0
   41.1556   39.6610   86.4746 C   0  0  0  0  0  0  0  0  0  0  0  0
   42.8556   40.7610   84.6746 O   0  0  0  0  0  0  0  0  0  0  0  0
   43.0556   37.9610   86.3746 C   0  0  0  0  0  0  0  0  0  0  0  0
   43.2556   36.8610   87.2746 C   0  0  0  0  0  0  0  0  0  0  0  0
   42.5556   35.6610   87.3746 C   0  0  0  0  0  0  0  0  0  0  0  0
   44.3556   37.0610   88.1746 C   0  0  0  0  0  0  0  0  0  0  0  0
   44.6556   35.9610   88.8746 N   0  0  0  0  0  0  0  0  0  0  0  0
   42.5556   35.0610   88.6746 C   0  0  0  0  0  0  0  0  0  0  0  0
   43.8556   35.0610   89.2746 C   0  0  0  0  0  0  0  0  0  0  0  0
   44.5556   38.2610   80.6746 C   0  0  0  0  0  0  0  0  0  0  0  0
   46.6556   37.5610   85.6746 O   0  0  0  0  0  0  0  0  0  0  0  0
   45.9556   38.7610   85.2746 C   0  0  0  0  0  0  0  0  0  0  0  0
   46.2556   39.8610   85.9746 C   0  0  0  0  0  0  0  0  0  0  0  0
   42.0556   36.0610   82.4746 C   0  0  0  0  0  0  0  0  0  0  0  0
   40.9556   36.4610   83.3746 C   0  0  0  0  0  0  0  0  0  0  0  0
   40.0556   37.5610   83.7746 C   0  0  0  0  0  0  0  0  0  0  0  0
   43.9556   39.7610   85.0746 C   0  0  0  0  0  0  0  0  0  0  0  0
   44.6556   39.7610   83.9746 C   0  0  0  0  0  0  0  0  0  0  0  0
  2  1  1  0
  3  2  1  0
  4  2  1  0
  5  3  1  0
  6  2  1  0
  6  4  1  0
  7  4  1  0
  8  5  1  0
  9  8  1  0
 10  6  1  0
 11  9  1  0
 12 11  1  0
 14 12  1  0
 15 11  1  0
 16 12  1  0
 16 13  1  0
 17 16  1  0
 18 17  2  0
 19 17  1  0
 20 19  2  0
 21 18  1  0
 22 20  1  0
 22 21  2  0
 23  5  1  0
 24 10  1  0
 25 10  1  0
 25 24  1  0
 26 25  2  0
 27  7  1  0
 28 27  1  0
 29 28  1  0
 30  9  1  0
 30 11  1  0
 30 15  1  0
 31  8  2  0
 31  9  1  0
 31 30  1  0
M  END
>  <ID>  (1) 
conformer_0

$$$$
