
     RDKit          3D

 27 32  0  0  0  0  0  0  0  0999 V2000
   46.1556   34.7610   82.7746 O   0  0  0  0  0  0  0  0  0  0  0  0
   45.6556   35.9610   82.6746 C   0  0  0  0  0  0  0  0  0  0  0  0
   46.1556   37.1610   81.9746 C   0  0  0  0  0  0  0  0  0  0  0  0
   44.2556   36.1610   83.1746 C   0  0  0  0  0  0  0  0  0  0  0  0
   45.2556   38.2610   81.9746 C   0  0  0  0  0  0  0  0  0  0  0  0
   45.2556   36.6610   84.0746 C   0  0  0  0  0  0  0  0  0  0  0  0
   43.2556   36.7610   82.3746 C   0  0  0  0  0  0  0  0  0  0  0  0
   44.5556   38.7610   83.0746 C   0  0  0  0  0  0  0  0  0  0  0  0
   43.7556   38.6610   84.0746 C   0  0  0  0  0  0  0  0  0  0  0  0
   46.1556   37.7610   84.4746 C   0  0  0  0  0  0  0  0  0  0  0  0
   42.8556   39.4610   84.7746 C   0  0  0  0  0  0  0  0  0  0  0  0
   42.2556   38.8610   85.8746 N   0  0  0  0  0  4  0  0  0  0  0  0
   42.0556   37.6610   85.4746 N   0  0  0  0  0  0  0  0  0  0  0  0
   41.1556   39.6610   86.4746 C   0  0  0  0  0  0  0  0  0  0  0  0
   42.8556   40.7610   84.6746 O   0  0  0  0  0  0  0  0  0  0  0  0
   42.8556   37.7610   86.3746 C   0  0  0  0  0  0  0  0  0  0  0  0
   43.1556   37.2610   87.6746 C   0  0  0  0  0  0  0  0  0  0  0  0
   44.3556   37.4610   88.3746 C   0  0  0  0  0  0  0  0  0  0  0  0
   44.6556   36.6610   89.2746 N   0  0  0  0  0  0  0  0  0  0  0  0
   42.3556   36.4610   88.4746 N   0  0  0  0  0  0  0  0  0  0  0  0
   42.3556   36.6610   89.8746 C   0  0  0  0  0  0  0  0  0  0  0  0
   42.7556   35.5610   89.2746 C   0  0  0  0  0  0  0  0  0  0  0  0
   44.1556   35.2610   89.4746 C   0  0  0  0  0  0  0  0  0  0  0  0
   44.4556   38.3610   80.7746 C   0  0  0  0  0  0  0  0  0  0  0  0
   46.7556   37.4610   85.5746 O   0  0  0  0  0  0  0  0  0  0  0  0
   45.3556   38.9610   84.2746 C   0  0  0  0  0  0  0  0  0  0  0  0
   42.8556   36.1610   83.5746 C   0  0  0  0  0  0  0  0  0  0  0  0
  2  1  1  0
  3  2  1  0
  4  2  1  0
  5  3  1  0
  6  2  1  0
  6  4  1  0
  7  4  1  0
  8  5  1  0
  9  8  1  0
 10  6  1  0
 11  9  1  0
 12 11  1  0
 14 12  1  0
 15 11  2  0
 16 12  1  0
 16 13  1  0
 17 16  1  0
 18 17  1  0
 19 18  2  0
 20 17  1  0
 21 20  1  0
 22 20  1  0
 22 21  1  0
 23 19  1  0
 23 22  2  0
 24  5  1  0
 25 10  1  0
 26  8  1  0
 26  9  1  0
 26 10  1  0
 27  4  1  0
 27  7  1  0
M  END
>  <ID>  (1) 
conformer_0

$$$$
