
     RDKit          3D

  4  3  0  0  0  0  0  0  0  0999 V2000
   46.2394   34.9711   82.9878 O   0  0  0  0  0  0  0  0  0  0  0  0
   45.9394   36.1711   82.2878 C   0  0  0  0  0  0  0  0  0  0  0  0
   45.5394   37.5711   82.4878 C   0  0  0  0  0  0  0  0  0  0  0  0
   46.1394   35.8711   80.8878 C   0  0  0  0  0  0  0  0  0  0  0  0
  2  1  1  0
  3  2  1  0
  4  2  1  0
M  END
>  <ID>  (1) 
conformer_0

$$$$
