
     RDKit          3D

 15 18  0  0  0  0  0  0  0  0999 V2000
   46.1556   34.7610   82.7746 O   0  0  0  0  0  0  0  0  0  0  0  0
   45.6556   35.9610   82.6746 C   0  0  0  0  0  0  0  0  0  0  0  0
   45.8556   36.9610   81.5746 C   0  0  0  0  0  0  0  0  0  0  0  0
   44.2556   36.1610   83.1746 C   0  0  0  0  0  0  0  0  0  0  0  0
   45.0556   38.1610   81.7746 C   0  0  0  0  0  0  0  0  0  0  0  0
   43.2556   36.6610   82.2746 C   0  0  0  0  0  0  0  0  0  0  0  0
   43.9556   37.7610   82.8746 C   0  0  0  0  0  0  0  0  0  0  0  0
   43.9556   35.8610   84.5746 C   0  0  0  0  0  0  0  0  0  0  0  0
   43.2556   38.2610   84.0746 C   0  0  0  0  0  0  0  0  0  0  0  0
   42.0556   37.4610   84.4746 C   0  0  0  0  0  0  0  0  0  0  0  0
   42.3556   36.0610   84.6746 C   0  0  0  0  0  0  0  0  0  0  0  0
   43.6556   39.5610   84.6746 C   0  0  0  0  0  0  0  0  0  0  0  0
   40.6556   37.9610   84.5746 C   0  0  0  0  0  0  0  0  0  0  0  0
   40.3556   38.0610   85.9746 O   0  0  0  0  0  0  0  0  0  0  0  0
   42.5556   39.6610   83.6746 C   0  0  0  0  0  0  0  0  0  0  0  0
  2  1  1  0
  3  2  1  0
  4  2  1  0
  5  3  1  0
  6  4  1  0
  7  4  1  0
  7  5  1  0
  7  6  1  0
  8  4  1  0
  9  7  1  0
 10  9  1  0
 11  8  1  0
 11 10  1  0
 12  9  1  0
 13 10  1  0
 14 13  1  0
 15  9  1  0
 15 12  1  0
M  END
>  <ID>  (1) 
conformer_0

$$$$
