
     RDKit          3D

 32 38  0  0  0  0  0  0  0  0999 V2000
   46.1556   34.7610   82.7746 O   0  0  0  0  0  0  0  0  0  0  0  0
   45.6556   35.9610   82.6746 C   0  0  0  0  0  0  0  0  0  0  0  0
   46.1556   37.1610   81.9746 C   0  0  0  0  0  0  0  0  0  0  0  0
   44.2556   36.1610   83.1746 C   0  0  0  0  0  0  0  0  0  0  0  0
   45.2556   38.2610   81.9746 C   0  0  0  0  0  0  0  0  0  0  0  0
   45.2556   36.6610   84.0746 C   0  0  0  0  0  0  0  0  0  0  0  0
   43.2556   36.7610   82.3746 C   0  0  0  0  0  0  0  0  0  0  0  0
   44.5556   38.7610   83.0746 C   0  0  0  0  0  0  0  0  0  0  0  0
   43.7556   38.6610   84.0746 C   0  0  0  0  0  0  0  0  0  0  0  0
   46.1556   37.7610   84.4746 C   0  0  0  0  0  0  0  0  0  0  0  0
   42.8556   39.4610   84.7746 C   0  0  0  0  0  0  0  0  0  0  0  0
   42.2556   38.8610   85.8746 N   0  0  0  0  0  4  0  0  0  0  0  0
   42.0556   37.5610   85.6746 N   0  0  0  0  0  0  0  0  0  0  0  0
   41.0556   39.5610   86.3746 C   0  0  0  0  0  0  0  0  0  0  0  0
   42.5556   40.6610   84.3746 O   0  0  0  0  0  0  0  0  0  0  0  0
   42.9556   37.9610   86.4746 C   0  0  0  0  0  0  0  0  0  0  0  0
   43.0556   37.4610   87.8746 C   0  0  0  0  0  0  0  0  0  0  0  0
   43.3556   36.0610   88.1746 C   0  0  0  0  0  0  0  0  0  0  0  0
   44.3556   35.8610   88.9746 N   0  0  0  0  0  0  0  0  0  0  0  0
   43.9556   38.1610   88.6746 N   0  0  0  0  0  0  0  0  0  0  0  0
   44.3556   37.1610   89.6746 N   0  0  0  0  0  0  0  0  0  0  0  0
   45.2556   37.3610   90.7746 C   0  0  0  0  0  0  0  0  0  0  0  0
   44.5556   38.1610   80.6746 C   0  0  0  0  0  0  0  0  0  0  0  0
   46.5556   37.4610   85.7746 O   0  0  0  0  0  0  0  0  0  0  0  0
   44.2556   39.5610   80.2746 C   0  0  0  0  0  0  0  0  0  0  0  0
   44.1556   40.5610   81.3746 C   0  0  0  0  0  0  0  0  0  0  0  0
   44.5556   41.8610   80.7746 C   0  0  0  0  0  0  0  0  0  0  0  0
   44.2556   39.3610   85.1746 C   0  0  0  0  0  0  0  0  0  0  0  0
   42.7556   36.2610   83.6746 C   0  0  0  0  0  0  0  0  0  0  0  0
   46.2556   38.5610   85.2746 C   0  0  0  0  0  0  0  0  0  0  0  0
   45.4556   39.5610   85.7746 N   0  0  0  0  0  0  0  0  0  0  0  0
   43.8556   39.9610   82.6746 C   0  0  0  0  0  0  0  0  0  0  0  0
  2  1  1  0
  3  2  1  0
  4  2  1  0
  5  3  1  0
  6  2  1  0
  6  4  1  0
  7  4  1  0
  8  5  1  0
  9  8  1  0
 10  6  1  0
 11  9  1  0
 12 11  1  0
 14 12  1  0
 15 11  1  0
 16 12  1  0
 16 13  1  0
 17 16  1  0
 18 17  1  0
 19 18  2  0
 20 17  2  0
 21 19  1  0
 21 20  1  0
 22 21  1  0
 23  5  1  0
 24 10  1  0
 25 23  1  0
 26 25  1  0
 27 26  1  0
 28  9  1  0
 28 11  1  0
 29  4  1  0
 29  7  1  0
 30 10  1  0
 30 24  1  0
 31 28  1  0
 31 30  2  0
 32  8  2  0
 32 26  1  0
M  END
>  <ID>  (1) 
conformer_0

$$$$
