
     RDKit          3D

  7  7  0  0  0  0  0  0  0  0999 V2000
   46.1556   34.7610   82.7746 O   0  0  0  0  0  0  0  0  0  0  0  0
   45.9556   35.9610   82.1746 C   0  0  0  0  0  0  0  0  0  0  0  0
   46.0556   36.2610   80.7746 C   0  0  0  0  0  0  0  0  0  0  0  0
   45.9556   37.1610   82.9746 C   0  0  0  0  0  0  0  0  0  0  0  0
   45.3556   38.2610   82.1746 C   0  0  0  0  0  0  0  0  0  0  0  0
   44.3556   37.9610   81.3746 C   0  0  0  0  0  0  0  0  0  0  0  0
   44.8556   37.0610   80.3746 C   0  0  0  0  0  0  0  0  0  0  0  0
  2  1  1  0
  3  2  2  0
  4  2  1  0
  5  4  2  0
  6  5  1  0
  7  3  1  0
  7  6  2  0
M  END
>  <ID>  (1) 
conformer_0

$$$$
