
     RDKit          3D

 15 17  0  0  0  0  0  0  0  0999 V2000
   44.6604   35.7326   82.8182 C   0  0  0  0  0  0  0  0  0  0  0  0
   45.9604   35.9326   82.1182 C   0  0  0  0  0  0  0  0  0  0  0  0
   43.9604   36.9326   83.2182 C   0  0  0  0  0  0  0  0  0  0  0  0
   44.8604   38.0326   82.8182 C   0  0  0  0  0  0  0  0  0  0  0  0
   46.0604   37.6326   82.0182 C   0  0  0  0  0  0  0  0  0  0  0  0
   42.5603   36.8326   83.4182 C   0  0  0  0  0  0  0  0  0  0  0  0
   44.2604   39.3326   82.5182 C   0  0  0  0  0  0  0  0  0  0  0  0
   44.7603   36.0326   84.2182 C   0  0  0  0  0  0  0  0  0  0  0  0
   43.7603   35.4326   85.1182 C   0  0  0  0  0  0  0  0  0  0  0  0
   42.3603   36.1326   84.7182 C   0  0  0  0  0  0  0  0  0  0  0  0
   46.0603   36.6326   84.6182 C   0  0  0  0  0  0  0  0  0  0  0  0
   44.1604   40.2326   81.5182 C   0  0  0  0  0  0  0  0  0  0  0  0
   43.5604   39.8326   83.7182 O   0  0  0  0  0  0  0  0  0  0  0  0
   44.2604   40.6326   80.2182 C   0  0  0  0  0  0  0  0  0  0  0  0
   44.3604   40.1326   79.1182 O   0  0  0  0  0  0  0  0  0  0  0  0
  2  1  1  0
  3  1  1  0
  4  3  1  0
  5  2  2  0
  5  4  1  0
  6  3  1  0
  7  4  1  0
  8  1  1  0
  8  3  1  0
  9  8  1  0
 10  6  1  0
 10  9  1  0
 11  8  1  0
 12  7  1  0
 13  7  1  0
 14 12  1  0
 15 14  2  0
M  END
>  <ID>  (1) 
conformer_0

$$$$
