
     RDKit          3D

 16 19  0  0  0  0  0  0  0  0999 V2000
   46.1556   34.7610   82.7746 O   0  0  0  0  0  0  0  0  0  0  0  0
   45.6556   35.9610   82.6746 C   0  0  0  0  0  0  0  0  0  0  0  0
   45.8556   36.9610   81.5746 C   0  0  0  0  0  0  0  0  0  0  0  0
   44.2556   36.1610   83.1746 C   0  0  0  0  0  0  0  0  0  0  0  0
   45.0556   38.1610   81.7746 C   0  0  0  0  0  0  0  0  0  0  0  0
   43.2556   36.6610   82.2746 C   0  0  0  0  0  0  0  0  0  0  0  0
   43.9556   37.7610   82.8746 C   0  0  0  0  0  0  0  0  0  0  0  0
   43.9556   35.8610   84.5746 C   0  0  0  0  0  0  0  0  0  0  0  0
   43.2556   38.2610   84.0746 C   0  0  0  0  0  0  0  0  0  0  0  0
   42.0556   37.4610   84.4746 C   0  0  0  0  0  0  0  0  0  0  0  0
   42.4556   36.0610   84.7746 C   0  0  0  0  0  0  0  0  0  0  0  0
   41.1556   38.0610   85.4746 C   0  0  0  0  0  0  0  0  0  0  0  0
   43.3556   39.6610   84.4746 C   0  0  0  0  0  0  0  0  0  0  0  0
   40.8556   37.6610   86.5746 O   0  0  0  0  0  0  0  0  0  0  0  0
   40.7556   39.4610   85.1746 C   0  0  0  0  0  0  0  0  0  0  0  0
   42.0556   40.2610   84.8746 C   0  0  0  0  0  0  0  0  0  0  0  0
  2  1  1  0
  3  2  1  0
  4  2  1  0
  5  3  1  0
  6  4  1  0
  7  4  1  0
  7  5  1  0
  7  6  1  0
  8  4  1  0
  9  7  1  0
 10  9  1  0
 11  8  1  0
 11 10  1  0
 12 10  1  0
 13  9  1  0
 14 12  2  0
 15 12  1  0
 16 13  1  0
 16 15  1  0
M  END
>  <ID>  (1) 
conformer_0

$$$$
