
     RDKit          3D

 12 12  0  0  0  0  0  0  0  0999 V2000
   46.1556   34.7610   82.7746 O   0  0  0  0  0  0  0  0  0  0  0  0
   45.9556   35.9610   82.0746 C   0  0  0  0  0  0  0  0  0  0  0  0
   45.6556   37.2610   82.4746 C   0  0  0  0  0  0  0  0  0  0  0  0
   45.0556   38.0610   81.4746 C   0  0  0  0  0  0  0  0  0  0  0  0
   45.5556   37.6610   83.7746 C   0  0  0  0  0  0  0  0  0  0  0  0
   44.5556   39.2610   81.7746 O   0  0  0  0  0  0  0  0  0  0  0  0
   44.6556   37.2610   80.3746 C   0  0  0  0  0  0  0  0  0  0  0  0
   45.0556   38.6610   84.3746 O   0  0  0  0  0  0  0  0  0  0  0  0
   46.4556   35.8610   80.6746 C   0  0  0  0  0  0  0  0  0  0  0  0
   45.5556   36.5610   79.6746 C   0  0  0  0  0  0  0  0  0  0  0  0
   45.4556   35.9610   78.4746 O   0  0  0  0  0  0  0  0  0  0  0  0
   45.5556   35.8610   77.0746 C   0  0  0  0  0  0  0  0  0  0  0  0
  2  1  1  0
  3  2  2  0
  4  3  1  0
  5  3  1  0
  6  4  1  0
  7  4  2  0
  8  5  2  0
  9  2  1  0
 10  7  1  0
 10  9  2  0
 11 10  1  0
 12 11  1  0
M  END
>  <ID>  (1) 
conformer_0

$$$$
