
     RDKit          3D

 24 27  0  0  0  0  0  0  0  0999 V2000
   46.1556   34.7610   82.7746 O   0  0  0  0  0  0  0  0  0  0  0  0
   45.6556   35.9610   82.6746 C   0  0  0  0  0  0  0  0  0  0  0  0
   46.1556   37.1610   81.9746 C   0  0  0  0  0  0  0  0  0  0  0  0
   44.2556   36.1610   83.1746 C   0  0  0  0  0  0  0  0  0  0  0  0
   45.2556   38.2610   81.9746 C   0  0  0  0  0  0  0  0  0  0  0  0
   45.2556   36.6610   84.0746 C   0  0  0  0  0  0  0  0  0  0  0  0
   45.8556   37.9610   84.2746 C   0  0  0  0  0  0  0  0  0  0  0  0
   44.8556   38.7610   83.1746 C   0  0  0  0  0  0  0  0  0  0  0  0
   43.1556   36.9610   82.6746 C   0  0  0  0  0  0  0  0  0  0  0  0
   43.4556   38.4610   83.3746 C   0  0  0  0  0  0  0  0  0  0  0  0
   44.2556   38.3610   80.8746 C   0  0  0  0  0  0  0  0  0  0  0  0
   42.2556   39.1610   83.8746 C   0  0  0  0  0  0  0  0  0  0  0  0
   41.3556   38.7610   84.8746 C   0  0  0  0  0  0  0  0  0  0  0  0
   40.0556   39.2610   84.7746 C   0  0  0  0  0  0  0  0  0  0  0  0
   39.1556   39.1610   85.8746 C   0  0  0  0  0  0  0  0  0  0  0  0
   41.6556   38.9610   86.2746 O   0  0  0  0  0  0  0  0  0  0  0  0
   40.2556   40.5610   84.1746 O   0  0  0  0  0  0  0  0  0  0  0  0
   38.9556   40.2610   86.6746 O   0  0  0  0  0  0  0  0  0  0  0  0
   44.3556   37.3610   79.7746 N   0  0  0  0  0  0  0  0  0  0  0  0
   45.4556   36.5610   79.6746 C   0  0  0  0  0  0  0  0  0  0  0  0
   45.7556   36.1610   78.2746 C   0  0  0  0  0  0  0  0  0  0  0  0
   46.6556   35.2610   77.9746 O   0  0  0  0  0  0  0  0  0  0  0  0
   46.3556   36.4610   80.5746 O   0  0  0  0  0  0  0  0  0  0  0  0
   43.9556   39.4610   80.4746 O   0  0  0  0  0  0  0  0  0  0  0  0
  2  1  1  0
  3  2  1  0
  4  2  1  0
  5  3  1  0
  6  2  1  0
  6  4  1  0
  7  6  1  0
  8  5  1  0
  8  7  1  0
  9  4  1  0
 10  8  1  0
 10  9  1  0
 11  5  1  0
 12 10  1  0
 13 12  1  0
 14 13  1  0
 15 14  1  0
 16 13  1  0
 17 14  1  0
 18 15  1  0
 19 11  1  0
 20 19  2  0
 21 20  1  0
 22 21  1  0
 23  3  1  0
 23 20  1  0
 24 11  2  0
M  END
>  <ID>  (1) 
conformer_0

$$$$
