
     RDKit          3D

 14 17  0  0  0  0  0  0  0  0999 V2000
   46.1556   34.7610   82.7746 O   0  0  0  0  0  0  0  0  0  0  0  0
   45.6556   35.9610   82.6746 C   0  0  0  0  0  0  0  0  0  0  0  0
   45.8556   36.9610   81.5746 C   0  0  0  0  0  0  0  0  0  0  0  0
   44.2556   36.1610   83.1746 C   0  0  0  0  0  0  0  0  0  0  0  0
   43.4556   36.9610   82.2746 C   0  0  0  0  0  0  0  0  0  0  0  0
   45.4556   38.2610   82.0746 C   0  0  0  0  0  0  0  0  0  0  0  0
   45.3556   36.6610   83.9746 C   0  0  0  0  0  0  0  0  0  0  0  0
   45.8556   37.8610   84.3746 C   0  0  0  0  0  0  0  0  0  0  0  0
   44.1556   38.4610   82.4746 C   0  0  0  0  0  0  0  0  0  0  0  0
   43.8556   39.0610   83.7746 C   0  0  0  0  0  0  0  0  0  0  0  0
   43.4556   40.3610   83.8746 O   0  0  0  0  0  0  0  0  0  0  0  0
   43.3556   41.0610   82.6746 C   0  0  0  0  0  0  0  0  0  0  0  0
   44.9556   38.8610   84.7746 C   0  0  0  0  0  0  0  0  0  0  0  0
   46.7556   37.8610   81.9746 O   0  0  0  0  0  0  0  0  0  0  0  0
  2  1  1  0
  3  2  1  0
  4  2  1  0
  5  4  1  0
  6  3  1  0
  7  2  1  0
  7  4  1  0
  8  7  1  0
  9  5  1  0
  9  6  1  0
 10  9  1  0
 11 10  1  0
 12 11  1  0
 13  8  1  0
 13 10  1  0
 14  3  1  0
 14  6  1  0
M  END
>  <ID>  (1) 
conformer_0

$$$$
