
     RDKit          3D

 17 18  0  0  0  0  0  0  0  0999 V2000
   46.8753   35.8754   79.5247 O   0  0  0  0  0  0  0  0  0  0  0  0
   46.1753   36.0754   80.6246 C   0  0  0  0  0  0  0  0  0  0  0  0
   46.0753   36.9754   81.6246 C   0  0  0  0  0  0  0  0  0  0  0  0
   46.0753   36.5754   83.0247 C   0  0  0  0  0  0  0  0  0  0  0  0
   46.0753   35.8754   78.3247 C   0  0  0  0  0  0  0  0  0  0  0  0
   45.7753   37.6754   83.9247 O   0  0  0  0  0  0  0  0  0  0  0  0
   45.4753   35.3754   83.2246 C   0  0  0  0  0  0  0  0  0  0  0  0
   44.9753   35.1754   84.5247 O   0  0  0  0  0  0  0  0  0  0  0  0
   44.8753   36.1754   85.5247 C   0  0  0  0  0  0  0  0  0  0  0  0
   43.7753   35.8754   86.4247 C   0  0  0  0  0  0  0  0  0  0  0  0
   45.0753   37.5754   85.0247 C   0  0  0  0  0  0  0  0  0  0  0  0
   44.2753   34.7754   87.1246 F   0  0  0  0  0  0  0  0  0  0  0  0
   42.8753   35.3754   85.7247 F   0  0  0  0  0  0  0  0  0  0  0  0
   43.2753   36.7754   87.1246 F   0  0  0  0  0  0  0  0  0  0  0  0
   45.5753   34.3754   82.4246 C   0  0  0  0  0  0  0  0  0  0  0  0
   44.6753   38.5754   85.6246 O   0  0  0  0  0  0  0  0  0  0  0  0
   46.0753   34.6754   81.1246 C   0  0  0  0  0  0  0  0  0  0  0  0
  2  1  1  0
  3  2  2  0
  4  3  1  0
  5  1  1  0
  6  4  1  0
  7  4  2  0
  8  7  1  0
  9  8  1  0
 10  9  1  0
 11  6  1  0
 11  9  1  0
 12 10  1  0
 13 10  1  0
 14 10  1  0
 15  7  1  0
 16 11  2  0
 17  2  1  0
 17 15  2  0
M  END
>  <ID>  (1) 
conformer_0

$$$$
