
     RDKit          3D

 12 15  0  0  0  0  0  0  0  0999 V2000
   46.1556   34.7610   82.7746 O   0  0  0  0  0  0  0  0  0  0  0  0
   45.6556   35.9610   82.6746 C   0  0  0  0  0  0  0  0  0  0  0  0
   46.1556   37.2610   82.1746 C   0  0  0  0  0  0  0  0  0  0  0  0
   44.2556   35.9610   83.1746 C   0  0  0  0  0  0  0  0  0  0  0  0
   43.6556   37.2610   82.7746 C   0  0  0  0  0  0  0  0  0  0  0  0
   45.6556   36.4610   81.1746 C   0  0  0  0  0  0  0  0  0  0  0  0
   44.5556   37.1610   80.5746 C   0  0  0  0  0  0  0  0  0  0  0  0
   43.9556   38.1610   81.7746 C   0  0  0  0  0  0  0  0  0  0  0  0
   43.2556   35.9610   82.1746 C   0  0  0  0  0  0  0  0  0  0  0  0
   44.4556   39.3610   81.8746 N   0  0  0  0  0  0  0  0  0  0  0  0
   43.8556   40.6610   81.6746 C   0  0  0  0  0  0  0  0  0  0  0  0
   43.7556   39.9610   82.9746 C   0  0  0  0  0  0  0  0  0  0  0  0
  2  1  1  0
  3  2  1  0
  4  2  1  0
  5  4  1  0
  6  2  1  0
  6  3  1  0
  7  6  1  0
  8  5  1  0
  8  7  1  0
  9  4  1  0
  9  5  1  0
 10  8  1  0
 11 10  1  0
 12 10  1  0
 12 11  1  0
M  END
>  <ID>  (1) 
conformer_0

$$$$
