
     RDKit          3D

  9  9  0  0  0  0  0  0  0  0999 V2000
   46.2394   34.9711   82.9878 O   0  0  0  0  0  0  0  0  0  0  0  0
   45.9394   36.2711   82.3878 C   0  0  0  0  0  0  0  0  0  0  0  0
   46.4394   37.4711   82.9878 C   0  0  0  0  0  0  0  0  0  0  0  0
   46.1394   36.1711   80.9878 C   0  0  0  0  0  0  0  0  0  0  0  0
   46.4394   37.4711   84.3878 O   0  0  0  0  0  0  0  0  0  0  0  0
   45.8394   38.5711   82.2878 C   0  0  0  0  0  0  0  0  0  0  0  0
   44.9394   38.2711   81.1878 C   0  0  0  0  0  0  0  0  0  0  0  0
   44.2394   39.2711   80.6878 O   0  0  0  0  0  0  0  0  0  0  0  0
   45.0394   37.0711   80.3878 C   0  0  0  0  0  0  0  0  0  0  0  0
  2  1  1  0
  3  2  2  0
  4  2  1  0
  5  3  1  0
  6  3  1  0
  7  6  2  0
  8  7  1  0
  9  4  2  0
  9  7  1  0
M  END
>  <ID>  (1) 
conformer_0

$$$$
