
     RDKit          3D

 18 22  0  0  0  0  0  0  0  0999 V2000
   46.1556   34.7610   82.7746 O   0  0  0  0  0  0  0  0  0  0  0  0
   45.6556   35.9610   82.6746 C   0  0  0  0  0  0  0  0  0  0  0  0
   45.8556   36.9610   81.5746 C   0  0  0  0  0  0  0  0  0  0  0  0
   44.2556   36.1610   83.1746 C   0  0  0  0  0  0  0  0  0  0  0  0
   45.0556   38.1610   81.7746 C   0  0  0  0  0  0  0  0  0  0  0  0
   43.2556   36.6610   82.2746 C   0  0  0  0  0  0  0  0  0  0  0  0
   43.9556   37.7610   82.8746 C   0  0  0  0  0  0  0  0  0  0  0  0
   43.9556   35.8610   84.5746 C   0  0  0  0  0  0  0  0  0  0  0  0
   43.2556   38.2610   84.0746 C   0  0  0  0  0  0  0  0  0  0  0  0
   41.9556   37.5610   84.2746 C   0  0  0  0  0  0  0  0  0  0  0  0
   41.8556   36.4610   83.2746 C   0  0  0  0  0  0  0  0  0  0  0  0
   43.0556   37.1610   85.1746 C   0  0  0  0  0  0  0  0  0  0  0  0
   40.6556   38.1610   84.6746 C   0  0  0  0  0  0  0  0  0  0  0  0
   40.1556   38.1610   85.7746 O   0  0  0  0  0  0  0  0  0  0  0  0
   39.7556   38.7610   83.7746 N   0  0  0  0  0  0  0  0  0  0  0  0
   38.7556   39.4610   84.5746 C   0  0  0  0  0  0  0  0  0  0  0  0
   39.0556   40.7610   85.1746 C   0  0  0  0  0  0  0  0  0  0  0  0
   39.3556   41.7610   84.2746 O   0  0  0  0  0  0  0  0  0  0  0  0
  2  1  1  0
  3  2  1  0
  4  2  1  0
  5  3  1  0
  6  4  1  0
  7  4  1  0
  7  5  1  0
  7  6  1  0
  8  4  1  0
  9  7  1  0
 10  9  1  0
 11  6  1  0
 11 10  1  0
 12  8  1  0
 12  9  1  0
 12 10  1  0
 13 10  1  0
 14 13  2  0
 15 13  1  0
 16 15  1  0
 17 16  1  0
 18 17  1  0
M  END
>  <ID>  (1) 
conformer_0

$$$$
