
     RDKit          3D

 17 19  0  0  0  0  0  0  0  0999 V2000
   46.1556   34.7610   82.7746 O   0  0  0  0  0  0  0  0  0  0  0  0
   45.6556   35.9610   82.6746 C   0  0  0  0  0  0  0  0  0  0  0  0
   46.1556   37.1610   81.9746 C   0  0  0  0  0  0  0  0  0  0  0  0
   44.2556   36.1610   83.1746 C   0  0  0  0  0  0  0  0  0  0  0  0
   45.2556   38.2610   81.9746 C   0  0  0  0  0  0  0  0  0  0  0  0
   45.2556   36.6610   84.0746 C   0  0  0  0  0  0  0  0  0  0  0  0
   45.8556   37.9610   84.2746 C   0  0  0  0  0  0  0  0  0  0  0  0
   44.8556   38.7610   83.1746 C   0  0  0  0  0  0  0  0  0  0  0  0
   43.1556   36.9610   82.6746 C   0  0  0  0  0  0  0  0  0  0  0  0
   43.4556   38.3610   83.4746 C   0  0  0  0  0  0  0  0  0  0  0  0
   44.2556   38.5610   80.9746 C   0  0  0  0  0  0  0  0  0  0  0  0
   43.0556   37.8610   84.7746 C   0  0  0  0  0  0  0  0  0  0  0  0
   42.8556   36.4610   85.1746 C   0  0  0  0  0  0  0  0  0  0  0  0
   44.0556   39.3610   80.1746 O   0  0  0  0  0  0  0  0  0  0  0  0
   43.6556   35.4610   85.8746 C   0  0  0  0  0  0  0  0  0  0  0  0
   43.3556   35.0610   87.2746 C   0  0  0  0  0  0  0  0  0  0  0  0
   42.2556   35.6609   87.8746 C   0  0  0  0  0  0  0  0  0  0  0  0
  2  1  1  0
  3  2  1  0
  4  2  1  0
  5  3  1  0
  6  2  1  0
  6  4  1  0
  7  6  1  0
  8  5  1  0
  8  7  1  0
  9  4  1  0
 10  8  1  0
 10  9  1  0
 11  5  1  0
 12 10  1  0
 13 12  1  0
 14 11  2  0
 15 13  1  0
 16 15  2  3
 17 16  1  0
M  END
>  <ID>  (1) 
conformer_0

$$$$
