
     RDKit          3D

 17 19  0  0  0  0  0  0  0  0999 V2000
   42.2633   35.6854   85.4672 C   0  0  0  0  0  0  0  0  0  0  0  0
   43.3633   35.7854   84.6672 C   0  0  0  0  0  0  0  0  0  0  0  0
   44.6633   35.5854   84.8672 O   0  0  0  0  0  0  0  0  0  0  0  0
   42.9633   36.3854   83.3672 C   0  0  0  0  0  0  0  0  0  0  0  0
   43.9633   36.2854   82.3672 O   0  0  0  0  0  0  0  0  0  0  0  0
   45.1633   35.7854   82.4672 C   0  0  0  0  0  0  0  0  0  0  0  0
   45.6633   35.8854   83.9672 C   0  0  0  0  0  0  0  0  0  0  0  0
   46.2633   36.1854   81.5672 C   0  0  0  0  0  0  0  0  0  0  0  0
   41.5633   36.3854   83.0672 C   0  0  0  0  0  0  0  0  0  0  0  0
   40.6633   36.7854   84.0672 C   0  0  0  0  0  0  0  0  0  0  0  0
   41.2633   36.7854   85.4672 C   0  0  0  0  0  0  0  0  0  0  0  0
   46.6633   36.9854   83.9672 C   0  0  0  0  0  0  0  0  0  0  0  0
   40.9633   37.7854   86.2672 N   0  0  0  0  0  0  0  0  0  0  0  0
   41.3633   38.8854   86.9672 C   0  0  0  0  0  0  0  0  0  0  0  0
   41.6633   39.9854   86.7672 O   0  0  0  0  0  0  0  0  0  0  0  0
   40.1633   38.6854   85.7672 C   0  0  0  0  0  0  0  0  0  0  0  0
   38.9633   39.3854   86.2672 C   0  0  0  0  0  0  0  0  0  0  0  0
  2  1  2  0
  3  2  1  0
  4  2  1  0
  5  4  1  0
  6  5  1  0
  7  3  1  0
  7  6  1  0
  8  6  1  0
  9  4  2  0
 10  9  1  0
 11  1  1  0
 11 10  2  0
 12  7  1  0
 13 11  1  0
 14 13  1  0
 15 14  1  0
 16 13  1  0
 16 14  1  0
 17 16  1  0
M  END
>  <ID>  (1) 
conformer_0

$$$$
