
     RDKit          3D

 11 12  0  0  0  0  0  0  0  0999 V2000
   44.6604   35.7326   82.8182 C   0  0  0  0  0  0  0  0  0  0  0  0
   45.9604   36.3326   82.4182 C   0  0  0  0  0  0  0  0  0  0  0  0
   43.4604   36.5326   82.5182 C   0  0  0  0  0  0  0  0  0  0  0  0
   44.6604   35.3326   84.2182 C   0  0  0  0  0  0  0  0  0  0  0  0
   45.8604   37.7326   82.0182 C   0  0  0  0  0  0  0  0  0  0  0  0
   44.7604   38.5326   82.4182 C   0  0  0  0  0  0  0  0  0  0  0  0
   43.5603   37.9326   83.0182 C   0  0  0  0  0  0  0  0  0  0  0  0
   44.6603   38.0326   84.0182 C   0  0  0  0  0  0  0  0  0  0  0  0
   43.7603   35.3326   85.0182 O   0  0  0  0  0  0  0  0  0  0  0  0
   45.8604   35.7326   85.0182 N   0  0  0  0  0  0  0  0  0  0  0  0
   45.6604   35.3326   86.4182 O   0  0  0  0  0  0  0  0  0  0  0  0
  2  1  1  0
  3  1  1  0
  4  1  1  0
  5  2  1  0
  6  5  1  0
  7  3  1  0
  7  6  1  0
  8  6  1  0
  8  7  1  0
  9  4  2  0
 10  4  1  0
 11 10  1  0
M  END
>  <ID>  (1) 
conformer_0

$$$$
