
     RDKit          3D

 16 20  0  0  0  0  0  0  0  0999 V2000
   46.1556   34.7610   82.7746 O   0  0  0  0  0  0  0  0  0  0  0  0
   45.6556   35.9610   82.6746 C   0  0  0  0  0  0  0  0  0  0  0  0
   46.1556   37.1610   81.9746 C   0  0  0  0  0  0  0  0  0  0  0  0
   44.2556   36.1610   83.1746 C   0  0  0  0  0  0  0  0  0  0  0  0
   45.2556   38.2610   81.9746 C   0  0  0  0  0  3  0  0  0  0  0  0
   45.2556   36.5610   84.1746 C   0  0  0  0  0  0  0  0  0  0  0  0
   43.2556   36.9610   82.4746 C   0  0  0  0  0  0  0  0  0  0  0  0
   44.6556   38.8610   83.1746 C   0  0  0  0  0  0  0  0  0  0  0  0
   45.3556   37.9610   84.2746 C   0  0  0  0  0  0  0  0  0  0  0  0
   43.2556   38.4610   83.2746 C   0  0  0  0  0  0  0  0  0  0  0  0
   44.3556   38.6610   80.8746 C   0  0  0  0  0  0  0  0  0  0  0  0
   44.3556   37.7610   79.8746 O   0  0  0  0  0  0  0  0  0  0  0  0
   44.0556   40.0610   80.7746 C   0  0  0  0  0  0  0  0  0  0  0  0
   43.6556   39.8610   83.1746 C   0  0  0  0  0  0  0  0  0  0  0  0
   44.0556   40.7610   79.6746 O   0  0  0  0  0  0  0  0  0  0  0  0
   43.5556   40.6610   81.9746 C   0  0  0  0  0  0  0  0  0  0  0  0
  2  1  1  0
  3  2  1  0
  4  2  1  0
  5  3  1  0
  6  2  1  0
  6  4  1  0
  7  4  1  0
  8  5  1  0
  9  6  1  0
  9  8  1  0
 10  7  1  0
 10  8  1  0
 11  5  1  0
 12 11  1  0
 13 11  2  0
 14  8  1  0
 14 10  1  0
 15 13  1  0
 16 13  1  0
 16 14  2  0
M  END
>  <ID>  (1) 
conformer_0

$$$$
