
     RDKit          3D

  6  6  0  0  0  0  0  0  0  0999 V2000
   46.2394   34.9711   82.9878 O   0  0  0  0  0  0  0  0  0  0  0  0
   45.9394   36.1711   82.2878 C   0  0  0  0  0  0  0  0  0  0  0  0
   45.5394   37.5711   82.4878 C   0  0  0  0  0  0  0  0  0  0  0  0
   46.1394   36.0711   80.8878 C   0  0  0  0  0  0  0  0  0  0  0  0
   44.5394   37.9711   81.4878 C   0  0  0  0  0  0  0  0  0  0  0  0
   44.8394   37.0711   80.3878 C   0  0  0  0  0  0  0  0  0  0  0  0
  2  1  1  0
  3  2  1  0
  4  2  1  0
  5  3  1  0
  6  4  1  0
  6  5  1  0
M  END
>  <ID>  (1) 
conformer_0

$$$$
