
     RDKit          3D

 12 14  0  0  0  0  0  0  0  0999 V2000
   45.8722   37.9742   82.6544 C   0  0  0  0  0  0  0  0  0  0  0  0
   45.9722   36.7742   81.9544 C   0  0  0  0  0  0  0  0  0  0  0  0
   45.3722   35.6742   82.6544 C   0  0  0  0  0  0  0  0  0  0  0  0
   44.3722   36.1742   83.5544 C   0  0  0  0  0  0  0  0  0  0  0  0
   44.2722   35.4742   84.8544 O   0  0  0  0  0  0  0  0  0  0  0  0
   43.5722   37.0742   83.1544 C   0  0  0  0  0  0  0  0  0  0  0  0
   45.0722   37.7742   81.5544 C   0  0  0  0  0  0  0  0  0  0  0  0
   42.4722   37.4742   84.0544 O   0  0  0  0  0  0  0  0  0  0  0  0
   41.9722   36.3742   84.8544 C   0  0  0  0  0  0  0  0  0  0  0  0
   43.0722   35.7742   85.6544 C   0  0  0  0  0  0  0  0  0  0  0  0
   43.7722   37.5742   81.8544 C   0  0  0  0  0  0  0  0  0  0  0  0
   45.8722   34.4742   82.8544 O   0  0  0  0  0  0  0  0  0  0  0  0
  2  1  1  0
  3  2  2  0
  4  3  1  0
  5  4  1  0
  6  4  2  0
  7  1  1  0
  7  2  1  0
  8  6  1  0
  9  8  1  0
 10  5  1  0
 10  9  1  0
 11  6  1  0
 11  7  2  0
 12  3  1  0
M  END
>  <ID>  (1) 
conformer_0

$$$$
