
     RDKit          3D

 20 24  0  0  0  0  0  0  0  0999 V2000
   46.1556   34.7610   82.7746 O   0  0  0  0  0  0  0  0  0  0  0  0
   45.6556   35.9610   82.6746 C   0  0  0  0  0  0  0  0  0  0  0  0
   46.1556   37.1610   81.9746 C   0  0  0  0  0  0  0  0  0  0  0  0
   44.2556   36.1610   83.1746 C   0  0  0  0  0  0  0  0  0  0  0  0
   45.2556   38.2610   81.9746 C   0  0  0  0  0  0  0  0  0  0  0  0
   45.2556   36.6610   84.0746 C   0  0  0  0  0  0  0  0  0  0  0  0
   45.8556   37.9610   84.2746 C   0  0  0  0  0  0  0  0  0  0  0  0
   44.8556   38.7610   83.1746 C   0  0  0  0  0  0  0  0  0  0  0  0
   43.1556   36.9610   82.6746 C   0  0  0  0  0  0  0  0  0  0  0  0
   43.4556   38.4610   83.3746 C   0  0  0  0  0  0  0  0  0  0  0  0
   44.2556   38.2610   80.8746 C   0  0  0  0  0  0  0  0  0  0  0  0
   42.2556   39.0610   83.8746 C   0  0  0  0  0  0  0  0  0  0  0  0
   41.0556   38.5610   84.4746 C   0  0  0  0  0  0  0  0  0  0  0  0
   40.4556   39.3610   85.5746 C   0  0  0  0  0  0  0  0  0  0  0  0
   40.5556   38.7610   86.8746 C   0  0  0  0  0  0  0  0  0  0  0  0
   41.6556   39.5610   86.3746 O   0  0  0  0  0  0  0  0  0  0  0  0
   44.5556   37.3610   79.7746 N   0  0  0  0  0  0  0  0  0  0  0  0
   45.5556   36.5610   79.5746 C   0  0  0  0  0  0  0  0  0  0  0  0
   45.9556   35.9610   78.2746 C   0  0  0  0  0  0  0  0  0  0  0  0
   46.6556   35.9610   79.7746 O   0  0  0  0  0  0  0  0  0  0  0  0
  2  1  1  0
  3  2  1  0
  4  2  1  0
  5  3  1  0
  6  2  1  0
  6  4  1  0
  7  6  1  0
  8  5  1  0
  8  7  1  0
  9  4  1  0
 10  8  1  0
 10  9  1  0
 11  5  1  0
 12 10  1  0
 13 12  1  0
 14 13  1  0
 15 14  1  0
 16 14  1  0
 16 15  1  0
 17 11  1  0
 18 17  2  3
 19 18  1  0
 20 18  1  0
 20 19  1  0
M  END
>  <ID>  (1) 
conformer_0

$$$$
