
     RDKit          3D

 34 40  0  0  0  0  0  0  0  0999 V2000
   46.1556   34.7610   82.7746 O   0  0  0  0  0  0  0  0  0  0  0  0
   45.6556   35.9610   82.6746 C   0  0  0  0  0  0  0  0  0  0  0  0
   46.1556   37.1610   81.9746 C   0  0  0  0  0  0  0  0  0  0  0  0
   44.2556   36.1610   83.1746 C   0  0  0  0  0  0  0  0  0  0  0  0
   45.2556   38.2610   81.9746 C   0  0  0  0  0  0  0  0  0  0  0  0
   45.2556   36.6610   84.0746 C   0  0  0  0  0  0  0  0  0  0  0  0
   43.2556   36.7610   82.3746 C   0  0  0  0  0  0  0  0  0  0  0  0
   44.5556   38.7610   83.0746 C   0  0  0  0  0  0  0  0  0  0  0  0
   43.7556   38.6610   84.0746 C   0  0  0  0  0  0  0  0  0  0  0  0
   46.1556   37.7610   84.4746 C   0  0  0  0  0  0  0  0  0  0  0  0
   42.8556   39.4610   84.7746 C   0  0  0  0  0  0  0  0  0  0  0  0
   42.2556   38.8610   85.8746 N   0  0  0  0  0  4  0  0  0  0  0  0
   42.0556   37.5610   85.6746 N   0  0  0  0  0  0  0  0  0  0  0  0
   41.0556   39.5610   86.3746 C   0  0  0  0  0  0  0  0  0  0  0  0
   42.5556   40.6610   84.3746 O   0  0  0  0  0  0  0  0  0  0  0  0
   42.9556   37.9610   86.4746 C   0  0  0  0  0  0  0  0  0  0  0  0
   43.2556   37.5610   87.7746 C   0  0  0  0  0  0  0  0  0  0  0  0
   44.3556   36.7610   88.1746 C   0  0  0  0  0  0  0  0  0  0  0  0
   44.7556   36.1610   89.1746 N   0  0  0  0  0  0  0  0  0  0  0  0
   44.7556   35.6610   90.3746 C   0  0  0  0  0  0  0  0  0  0  0  0
   45.7556   35.4610   91.1746 N   0  0  0  0  0  0  0  0  0  0  0  0
   45.9556   34.9610   92.3746 N   0  0  0  0  0  0  0  0  0  0  0  0
   46.8556   34.8610   93.1746 C   0  0  0  0  0  0  0  0  0  0  0  0
   47.0556   36.0610   90.8746 C   0  0  0  0  0  0  0  0  0  0  0  0
   47.8556   36.6610   91.8746 C   0  0  0  0  0  0  0  0  0  0  0  0
   47.8556   35.7610   92.9746 C   0  0  0  0  0  0  0  0  0  0  0  0
   43.3556   35.4610   90.8746 C   0  0  0  0  0  0  0  0  0  0  0  0
   44.3556   38.2610   80.7746 C   0  0  0  0  0  0  0  0  0  0  0  0
   46.8556   37.3610   85.5746 O   0  0  0  0  0  0  0  0  0  0  0  0
   44.1556   39.6610   80.3746 C   0  0  0  0  0  0  0  0  0  0  0  0
   43.9556   40.6610   81.4746 C   0  0  0  0  0  0  0  0  0  0  0  0
   43.7556   39.7610   82.7746 C   0  0  0  0  0  0  0  0  0  0  0  0
   46.6556   36.4610   84.4746 C   0  0  0  0  0  0  0  0  0  0  0  0
   42.8556   36.1610   83.6746 C   0  0  0  0  0  0  0  0  0  0  0  0
  2  1  1  0
  3  2  1  0
  4  2  1  0
  5  3  1  0
  6  2  1  0
  6  4  1  0
  7  4  1  0
  8  5  1  0
  9  8  1  0
 10  6  1  0
 11  9  1  0
 12 11  1  0
 14 12  1  0
 15 11  2  0
 16 12  1  0
 16 13  1  0
 17 16  1  0
 18 17  2  3
 19 18  1  0
 20 19  1  0
 21 20  1  0
 22 21  1  0
 23 22  1  0
 24 21  1  0
 25 24  2  0
 26 23  2  0
 26 25  1  0
 27 20  1  0
 28  5  1  0
 29 10  1  0
 30 28  1  0
 31 30  1  0
 32  8  1  0
 32  9  1  0
 32 31  1  0
 33  6  1  0
 33 10  1  0
 33 29  1  0
 34  4  1  0
 34  7  1  0
M  END
>  <ID>  (1) 
conformer_0

$$$$
