
     RDKit          3D

 16 20  0  0  0  0  0  0  0  0999 V2000
   46.1556   34.7610   82.7746 O   0  0  0  0  0  0  0  0  0  0  0  0
   45.6556   35.9610   82.6746 C   0  0  0  0  0  0  0  0  0  0  0  0
   45.8556   36.9610   81.5746 C   0  0  0  0  0  0  0  0  0  0  0  0
   44.2556   36.1610   83.1746 C   0  0  0  0  0  0  0  0  0  0  0  0
   45.0556   38.1610   81.7746 C   0  0  0  0  0  0  0  0  0  0  0  0
   43.3556   36.5610   82.0746 C   0  0  0  0  0  0  0  0  0  0  0  0
   43.8556   37.6610   82.7746 C   0  0  0  0  0  0  0  0  0  0  0  0
   43.9556   35.7610   84.4746 C   0  0  0  0  0  0  0  0  0  0  0  0
   43.1556   38.2610   83.8746 C   0  0  0  0  0  0  0  0  0  0  0  0
   42.1556   37.5610   84.6746 C   0  0  0  0  0  0  0  0  0  0  0  0
   41.6556   36.3610   83.9746 C   0  0  0  0  0  0  0  0  0  0  0  0
   41.0556   38.2610   85.3746 C   0  0  0  0  0  0  0  0  0  0  0  0
   43.1556   39.7610   83.8746 C   0  0  0  0  0  0  0  0  0  0  0  0
   42.5556   36.1610   85.0746 C   0  0  0  0  0  0  0  0  0  0  0  0
   41.9556   40.4610   84.2746 C   0  0  0  0  0  0  0  0  0  0  0  0
   41.2556   39.7610   85.3746 C   0  0  0  0  0  0  0  0  0  0  0  0
  2  1  1  0
  3  2  1  0
  4  2  1  0
  5  3  1  0
  6  4  1  0
  7  4  1  0
  7  5  1  0
  7  6  1  0
  8  4  1  0
  9  7  1  0
 10  9  1  0
 11 10  1  0
 12 10  1  0
 13  9  1  0
 14  8  1  0
 14 10  1  0
 14 11  1  0
 15 13  1  0
 16 12  1  0
 16 15  1  0
M  END
>  <ID>  (1) 
conformer_0

$$$$
