
     RDKit          3D

 21 25  0  0  0  0  0  0  0  0999 V2000
   46.1556   34.7610   82.7746 O   0  0  0  0  0  0  0  0  0  0  0  0
   45.6556   35.9610   82.6746 C   0  0  0  0  0  0  0  0  0  0  0  0
   46.1556   37.1610   81.9746 C   0  0  0  0  0  0  0  0  0  0  0  0
   44.2556   36.1610   83.1746 C   0  0  0  0  0  0  0  0  0  0  0  0
   45.2556   38.2610   81.9746 C   0  0  0  0  0  0  0  0  0  0  0  0
   45.2556   36.6610   84.0746 C   0  0  0  0  0  0  0  0  0  0  0  0
   43.2556   36.7610   82.3746 C   0  0  0  0  0  0  0  0  0  0  0  0
   44.6556   38.7610   83.1746 C   0  0  0  0  0  0  0  0  0  0  0  0
   45.1556   38.0610   84.3746 C   0  0  0  0  0  0  0  0  0  0  0  0
   46.4556   37.6610   84.3746 C   0  0  0  0  0  0  0  0  0  0  0  0
   43.7556   38.5610   84.0746 C   0  0  0  0  0  0  0  0  0  0  0  0
   44.2556   38.4610   80.8746 C   0  0  0  0  0  0  0  0  0  0  0  0
   44.2556   37.5610   79.9746 N   0  0  0  0  0  0  0  0  0  0  0  0
   44.0556   39.7610   80.7746 N   0  0  0  0  0  0  0  0  0  0  0  0
   44.2556   40.8610   81.3746 C   0  0  0  0  0  0  0  0  0  0  0  0
   43.5556   40.2610   81.9746 N   0  0  0  0  0  0  0  0  0  0  0  0
   42.8556   36.3610   83.6746 C   0  0  0  0  0  0  0  0  0  0  0  0
   44.9556   37.0610   78.8746 N   0  0  0  0  0  0  0  0  0  0  0  0
   45.8556   36.1610   78.3746 C   0  0  0  0  0  0  0  0  0  0  0  0
   45.3556   35.4610   77.1746 C   0  0  0  0  0  0  0  0  0  0  0  0
   46.7556   35.7610   79.1746 O   0  0  0  0  0  0  0  0  0  0  0  0
  2  1  1  0
  3  2  1  0
  4  2  1  0
  5  3  1  0
  6  2  1  0
  6  4  1  0
  7  4  1  0
  8  5  1  0
  9  6  1  0
  9  8  1  0
 10  6  1  0
 10  9  1  0
 11  8  1  0
 11  9  1  0
 12  5  1  0
 13 12  1  0
 14 12  1  0
 15 14  1  0
 16 15  2  0
 17  4  1  0
 17  7  1  0
 18 13  1  0
 19 18  1  0
 20 19  1  0
 21 19  2  0
M  END
>  <ID>  (1) 
conformer_0

$$$$
