
     RDKit          3D

 23 25  0  0  0  0  0  0  0  0999 V2000
  -26.1484   17.0998  -23.0278 C   0  0  0  0  0  0  0  0  0  0  0  0
  -26.1570   17.7230  -24.2484 C   0  0  0  0  0  0  0  0  0  0  0  0
  -20.7459   17.2462  -26.3980 C   0  0  0  0  0  0  0  0  0  0  0  0
  -22.2140   16.4087  -30.5324 C   0  0  0  0  0  0  0  0  0  0  0  0
  -21.8301   17.9174  -25.4331 C   0  0  0  0  0  0  0  0  0  0  0  0
  -19.5213   16.5469  -28.2907 N   0  0  0  0  0  0  0  0  0  0  0  0
  -19.5736   16.8468  -26.6771 C   0  0  0  0  0  0  0  0  0  0  0  0
  -23.7832   17.7378  -24.3597 C   0  0  0  0  0  0  0  0  0  0  0  0
  -23.2795   17.7239  -30.5599 C   0  0  0  0  0  0  0  0  0  0  0  0
  -22.2895   17.7206  -24.4801 O   0  0  0  0  0  0  0  0  0  0  0  0
  -24.9738   18.0126  -24.8537 C   0  0  0  0  0  0  0  0  0  0  0  0
  -20.2596   15.8473  -30.6181 O   0  0  0  0  0  0  0  0  0  0  0  0
  -23.7904   17.7306  -29.6069 O   0  0  0  0  0  0  0  0  0  0  0  0
  -18.3922   15.8346  -28.6186 C   0  0  0  0  0  0  0  0  0  0  0  0
  -18.5622   15.5570  -26.7788 C   0  0  0  0  0  0  0  0  0  0  0  0
  -21.0730   16.4543  -30.2319 C   0  0  0  0  0  0  0  0  0  0  0  0
  -23.3176   18.2703  -27.0859 O   0  0  0  0  0  0  0  0  0  0  0  0
  -25.0889   16.7200  -22.3732 C   0  0  0  0  0  0  0  0  0  0  0  0
  -21.5101   17.5905  -27.6762 C   0  0  0  0  0  0  0  0  0  0  0  0
  -22.6271   17.8401  -28.1144 C   0  0  0  0  0  0  0  0  0  0  0  0
  -20.6882   16.9174  -28.3974 C   0  0  0  0  0  0  0  0  0  0  0  0
  -22.5237   17.9954  -31.3743 C   0  0  0  0  0  0  0  0  0  0  0  0
  -23.7994   16.9766  -23.0233 C   0  0  0  0  0  0  0  0  0  0  0  0
  2  1  2  0
  5  3  1  0
  7  3  2  0
  7  6  1  0
  9  4  1  0
 10  5  1  0
 10  8  1  0
 11  2  1  0
 11  8  2  0
 13  9  1  0
 14  6  1  0
 15  7  1  0
 15 14  1  0
 16  4  1  0
 16 12  2  0
 18  1  1  0
 19  3  1  0
 20 17  1  0
 20 19  1  0
 21  6  1  0
 21 16  1  0
 21 19  2  0
 22  9  1  0
 23  8  1  0
 23 18  2  0
M  END
>  <ID>  (1) 
conformer_0

$$$$
