
     RDKit          3D

 14 14  0  0  0  0  0  0  0  0999 V2000
  -25.6034   17.2957  -23.0160 C   0  0  0  0  0  0  0  0  0  0  0  0
  -20.9331   17.2312  -26.8713 C   0  0  0  0  0  0  0  0  0  0  0  0
  -25.3400   18.0089  -24.2009 C   0  0  0  0  0  0  0  0  0  0  0  0
  -23.8436   17.4546  -30.1682 C   0  0  0  0  0  0  0  0  0  0  0  0
  -23.6628   17.7373  -24.2923 C   0  0  0  0  0  0  0  0  0  0  0  0
  -20.2259   16.7067  -27.7785 C   0  0  0  0  0  0  0  0  0  0  0  0
  -19.4026   16.3242  -28.2166 N   0  0  0  0  0  0  0  0  0  0  0  0
  -18.3883   15.7836  -28.7847 C   0  0  0  0  0  3  0  0  0  0  0  0
  -22.1818   18.0387  -24.7195 O   0  0  0  0  0  0  0  0  0  0  0  0
  -22.2567   17.9885  -26.3055 C   0  0  0  0  0  0  0  0  0  0  0  0
  -23.6687   17.8478  -28.5999 O   0  0  0  0  0  0  0  0  0  0  0  0
  -24.1849   16.8339  -22.7593 C   0  0  0  0  0  0  0  0  0  0  0  0
  -22.4294   17.3426  -30.7350 C   0  0  0  0  0  0  0  0  0  0  0  0
  -21.4242   16.6678  -29.9900 C   0  0  0  0  0  0  0  0  0  0  0  0
  3  1  2  0
  5  3  1  0
  6  2  2  3
  7  6  1  0
  8  7  2  3
  9  5  1  0
 10  2  1  0
 10  9  1  0
 11  4  1  0
 12  1  1  0
 12  5  2  0
 13  4  1  0
 14  6  1  0
 14 13  1  0
M  RAD  1   8   2
M  END
>  <ID>  (1) 
conformer_0

$$$$
