
     RDKit          3D

 22 23  0  0  0  0  0  0  0  0999 V2000
  -25.3802   16.8892  -22.6855 C   0  0  0  0  0  0  0  0  0  0  0  0
  -25.9443   17.6798  -23.6983 C   0  0  0  0  0  0  0  0  0  0  0  0
  -20.7848   17.4727  -26.7517 C   0  0  0  0  0  0  0  0  0  0  0  0
  -23.9916   17.5902  -30.6900 C   0  0  0  0  0  0  0  0  0  0  0  0
  -20.5524   16.6756  -28.6784 C   0  0  0  0  0  0  0  0  0  0  0  0
  -21.8802   18.0964  -26.0207 C   0  0  0  0  0  0  0  0  0  0  0  0
  -22.1960   18.0877  -24.9123 O   0  0  0  0  0  0  0  0  0  0  0  0
  -23.6691   17.7447  -24.4804 C   0  0  0  0  0  0  0  0  0  0  0  0
  -25.0975   18.1174  -24.6595 C   0  0  0  0  0  0  0  0  0  0  0  0
  -22.1233   16.8277  -30.6929 C   0  0  0  0  0  0  0  0  0  0  0  0
  -19.8605   15.8414  -29.7880 O   0  0  0  0  0  0  0  0  0  0  0  0
  -19.2636   16.5585  -27.7626 N   0  0  0  0  0  0  0  0  0  0  0  0
  -18.3752   15.2087  -28.9249 C   0  0  0  0  0  0  0  0  0  0  0  0
  -18.1297   17.1123  -25.4831 C   0  0  0  0  0  0  0  0  0  0  0  0
  -24.3292   17.4228  -29.9890 O   0  0  0  0  0  0  0  0  0  0  0  0
  -21.7564   16.4133  -30.1283 C   0  0  0  0  0  0  0  0  0  0  0  0
  -23.6528   17.6164  -27.7539 O   0  0  0  0  0  0  0  0  0  0  0  0
  -23.8742   16.8860  -23.0580 C   0  0  0  0  0  0  0  0  0  0  0  0
  -19.6530   17.1486  -26.9806 C   0  0  0  0  0  0  0  0  0  0  0  0
  -21.4079   17.4117  -28.1052 C   0  0  0  0  0  3  0  0  0  0  0  0
  -22.9713   17.5431  -28.4455 C   0  0  0  0  0  0  0  0  0  0  0  0
  -18.1404   16.6662  -27.0635 C   0  0  0  0  0  0  0  0  0  0  0  0
  2  1  2  0
  6  3  1  0
  7  6  1  0
  8  7  1  0
  9  2  1  0
  9  8  2  0
 10  4  1  0
 11  5  1  0
 12  5  1  0
 13 11  1  0
 15  4  1  0
 16  5  1  0
 16 10  1  0
 18  1  1  0
 18  8  1  0
 19  3  2  0
 19 12  1  0
 20  3  1  0
 20  5  1  0
 21 17  2  0
 21 20  1  0
 22 12  1  0
 22 14  1  0
M  RAD  1  20   2
M  END
>  <ID>  (1) 
conformer_0

$$$$
