
     RDKit          3D

 20 22  0  0  0  0  0  0  0  0999 V2000
  -24.9690   16.6652  -22.5551 C   0  0  0  0  0  0  0  0  0  0  0  0
  -21.3050   17.5148  -27.4920 C   0  0  0  0  0  0  0  0  0  0  0  0
  -23.4766   17.6059  -24.3218 C   0  0  0  0  0  0  0  0  0  0  0  0
  -25.8057   17.3617  -23.3870 C   0  0  0  0  0  0  0  0  0  0  0  0
  -24.0996   18.2185  -30.8575 C   0  0  0  0  0  0  0  0  0  0  0  0
  -18.4919   15.5398  -28.6091 C   0  0  0  0  0  0  0  0  0  0  0  0
  -19.6480   16.2623  -28.3533 N   0  0  0  0  0  0  0  0  0  0  0  0
  -22.1145   17.2039  -30.6692 C   0  0  0  0  0  0  0  0  0  0  0  0
  -21.0054   16.8678  -28.3427 C   0  0  0  0  0  0  0  0  0  0  0  0
  -22.3419   17.9985  -24.9047 O   0  0  0  0  0  0  0  0  0  0  0  0
  -23.0487   17.5382  -29.5305 C   0  0  0  0  0  0  0  0  0  0  0  0
  -21.7393   17.8210  -25.8729 C   0  0  0  0  0  0  0  0  0  0  0  0
  -24.7449   17.8574  -30.4022 O   0  0  0  0  0  0  0  0  0  0  0  0
  -23.4273   16.6321  -22.8741 C   0  0  0  0  0  0  0  0  0  0  0  0
  -18.1557   16.6203  -25.8839 C   0  0  0  0  0  0  0  0  0  0  0  0
  -23.6408   17.4259  -28.6299 O   0  0  0  0  0  0  0  0  0  0  0  0
  -25.1476   18.0601  -24.4215 C   0  0  0  0  0  0  0  0  0  0  0  0
  -20.7923   16.3633  -30.0472 C   0  0  0  0  0  0  0  0  0  0  0  0
  -19.4535   16.6899  -26.9290 C   0  0  0  0  0  0  0  0  0  0  0  0
  -20.5547   17.1088  -26.3137 C   0  0  0  0  0  0  0  0  0  0  0  0
  4  1  2  0
  7  6  1  0
  9  2  2  0
  9  7  1  0
 10  3  1  0
 11  5  1  0
 11  8  1  0
 12  2  1  0
 12 10  1  0
 13  5  1  0
 14  1  1  0
 14  3  1  0
 16 11  2  0
 17  3  2  0
 17  4  1  0
 18  8  1  0
 18  9  1  0
 19  7  1  0
 19 15  1  0
 20  2  1  0
 20 12  1  0
 20 19  2  0
M  END
>  <ID>  (1) 
conformer_0

$$$$
