
     RDKit          3D

 22 23  0  0  0  0  0  0  0  0999 V2000
  -25.9599   17.1000  -23.3435 C   0  0  0  0  0  0  0  0  0  0  0  0
  -21.3557   17.5539  -27.8267 C   0  0  0  0  0  0  0  0  0  0  0  0
  -25.8083   18.1365  -24.0503 C   0  0  0  0  0  0  0  0  0  0  0  0
  -23.5828   17.6562  -24.0196 C   0  0  0  0  0  0  0  0  0  0  0  0
  -22.1428   17.9647  -24.8369 O   0  0  0  0  0  0  0  0  0  0  0  0
  -23.0215   17.7525  -29.0819 C   0  0  0  0  0  0  0  0  0  0  0  0
  -20.5462   16.7718  -28.6126 C   0  0  0  0  0  0  0  0  0  0  0  0
  -21.7707   18.0990  -25.8875 C   0  0  0  0  0  0  0  0  0  0  0  0
  -18.4732   16.5909  -25.9596 C   0  0  0  0  0  0  0  0  0  0  0  0
  -19.4288   16.3440  -28.1799 N   0  0  0  0  0  0  0  0  0  0  0  0
  -18.3921   15.5653  -28.7297 C   0  0  0  0  0  0  0  0  0  0  0  0
  -21.6701   17.2435  -30.5236 C   0  0  0  0  0  0  0  0  0  0  0  0
  -24.6371   18.1856  -24.8635 C   0  0  0  0  0  0  0  0  0  0  0  0
  -24.5356   17.2962  -30.1413 O   0  0  0  0  0  0  0  0  0  0  0  0
  -20.3062   15.6687  -30.2804 O   0  0  0  0  0  0  0  0  0  0  0  0
  -24.5928   17.5145  -30.8058 C   0  0  0  0  0  0  0  0  0  0  0  0
  -21.3360   16.6513  -30.2302 C   0  0  0  0  0  0  0  0  0  0  0  0
  -20.5004   17.3242  -26.5917 C   0  0  0  0  0  0  0  0  0  0  0  0
  -19.4736   16.7238  -26.7802 C   0  0  0  0  0  0  0  0  0  0  0  0
  -25.2191   16.9070  -22.2866 C   0  0  0  0  0  0  0  0  0  0  0  0
  -23.2138   17.5745  -29.1187 O   0  0  0  0  0  0  0  0  0  0  0  0
  -23.7249   16.7318  -22.6831 C   0  0  0  0  0  0  0  0  0  0  0  0
  3  1  2  0
  5  4  1  0
  7  2  2  0
  8  5  1  0
 10  7  1  0
 11 10  1  0
 12  6  1  0
 13  3  1  0
 13  4  2  0
 16 14  1  0
 17  7  1  0
 17 12  1  0
 17 15  1  0
 18  2  1  0
 18  8  1  0
 19  9  1  0
 19 10  1  0
 19 18  2  0
 20  1  1  0
 21  6  1  0
 21 14  1  0
 22  4  1  0
 22 20  2  0
M  END
>  <ID>  (1) 
conformer_0

$$$$
