
     RDKit          3D

 23 24  0  0  0  0  0  0  0  0999 V2000
  -25.6184   17.5783  -23.6067 C   0  0  0  0  0  0  0  0  0  0  0  0
  -24.6599   16.9415  -22.8373 C   0  0  0  0  0  0  0  0  0  0  0  0
  -23.2626   17.7344  -24.1581 C   0  0  0  0  0  0  0  0  0  0  0  0
  -21.1091   17.2404  -27.8675 C   0  0  0  0  0  0  0  0  0  0  0  0
  -24.6322   17.7406  -30.9128 C   0  0  0  0  0  0  0  0  0  0  0  0
  -20.5854   16.6968  -28.5427 C   0  0  0  0  0  0  0  0  0  0  0  0
  -22.2032   16.8446  -30.4024 C   0  0  0  0  0  0  0  0  0  0  0  0
  -23.2601   16.9065  -23.2307 C   0  0  0  0  0  0  0  0  0  0  0  0
  -21.7861   18.3036  -25.0554 O   0  0  0  0  0  0  0  0  0  0  0  0
  -19.1606   16.3085  -27.7116 N   0  0  0  0  0  0  0  0  0  0  0  0
  -19.8672   16.0249  -29.8031 O   0  0  0  0  0  0  0  0  0  0  0  0
  -25.0844   17.2917  -28.3150 O   0  0  0  0  0  0  0  0  0  0  0  0
  -21.6447   18.0873  -25.9651 C   0  0  0  0  0  0  0  0  0  0  0  0
  -18.1994   16.5564  -25.7085 C   0  0  0  0  0  0  0  0  0  0  0  0
  -20.4860   16.4754  -30.0096 C   0  0  0  0  0  0  0  0  0  0  0  0
  -18.2419   15.6616  -27.5597 C   0  0  0  0  0  0  0  0  0  0  0  0
  -24.5855   17.3699  -30.2135 O   0  0  0  0  0  0  0  0  0  0  0  0
  -25.1118   18.1254  -24.7609 C   0  0  0  0  0  0  0  0  0  0  0  0
  -23.3214   18.3967  -26.9707 O   0  0  0  0  0  0  0  0  0  0  0  0
  -19.5522   16.6376  -26.8751 C   0  0  0  0  0  0  0  0  0  0  0  0
  -20.4819   17.2230  -26.4868 C   0  0  0  0  0  0  0  0  0  0  0  0
  -23.6285   17.7177  -25.6426 C   0  0  0  0  0  0  0  0  0  0  0  0
  -23.1647   17.3645  -29.7706 C   0  0  0  0  0  0  0  0  0  0  0  0
  2  1  2  0
  6  4  2  0
  8  2  1  0
  8  3  2  0
  9  3  1  0
 10  6  1  0
 13  9  1  0
 15  6  1  0
 15  7  1  0
 15 11  1  0
 16 10  1  0
 17  5  1  0
 18  1  1  0
 20 10  1  0
 20 14  1  0
 21  4  1  0
 21 13  1  0
 21 20  2  0
 22  3  1  0
 22 18  2  0
 22 19  1  0
 23  7  1  0
 23 12  1  0
 23 17  1  0
M  END
>  <ID>  (1) 
conformer_0

$$$$
