
     RDKit          3D

 22 23  0  0  0  0  0  0  0  0999 V2000
  -25.7532   17.2181  -23.3757 C   0  0  0  0  0  0  0  0  0  0  0  0
  -21.0304   17.3968  -26.6572 C   0  0  0  0  0  0  0  0  0  0  0  0
  -24.3576   18.0993  -25.0519 C   0  0  0  0  0  0  0  0  0  0  0  0
  -20.5007   16.6881  -28.5443 C   0  0  0  0  0  0  0  0  0  0  0  0
  -24.4288   17.6369  -30.5838 C   0  0  0  0  0  0  0  0  0  0  0  0
  -23.4626   17.8549  -24.4456 C   0  0  0  0  0  0  0  0  0  0  0  0
  -22.0666   18.7075  -25.1755 O   0  0  0  0  0  0  0  0  0  0  0  0
  -21.9297   18.0554  -26.0917 C   0  0  0  0  0  0  0  0  0  0  0  0
  -23.9879   17.2689  -29.5136 O   0  0  0  0  0  0  0  0  0  0  0  0
  -24.6773   16.8914  -22.6353 C   0  0  0  0  0  0  0  0  0  0  0  0
  -18.2106   16.9939  -25.5751 C   0  0  0  0  0  0  0  0  0  0  0  0
  -20.2372   15.8747  -30.1351 O   0  0  0  0  0  0  0  0  0  0  0  0
  -18.4459   15.5154  -28.8551 C   0  0  0  0  0  0  0  0  0  0  0  0
  -22.0202   16.9786  -30.4139 C   0  0  0  0  0  0  0  0  0  0  0  0
  -21.1322   16.3891  -30.5031 C   0  0  0  0  0  0  0  0  0  0  0  0
  -19.4058   16.4229  -27.8245 N   0  0  0  0  0  0  0  0  0  0  0  0
  -19.6401   16.8955  -26.6782 C   0  0  0  0  0  0  0  0  0  0  0  0
  -23.0057   18.4005  -27.7582 O   0  0  0  0  0  0  0  0  0  0  0  0
  -25.6518   18.1563  -24.3121 C   0  0  0  0  0  0  0  0  0  0  0  0
  -22.9968   17.5520  -29.0518 C   0  0  0  0  0  0  0  0  0  0  0  0
  -21.1814   17.3795  -28.0806 C   0  0  0  0  0  0  0  0  0  0  0  0
  -23.3109   16.9946  -23.2130 C   0  0  0  0  0  0  0  0  0  0  0  0
  6  3  1  0
  7  6  1  0
  8  2  1  0
  8  7  1  0
  9  5  1  0
 10  1  2  0
 12  4  1  0
 15 12  1  0
 15 14  1  0
 16  4  1  0
 16 13  1  0
 17  2  2  0
 17 11  1  0
 17 16  1  0
 19  1  1  0
 19  3  2  0
 20  9  1  0
 20 14  1  0
 20 18  2  0
 21  2  1  0
 21  4  2  0
 22  6  2  0
 22 10  1  0
M  END
>  <ID>  (1) 
conformer_0

$$$$
