
     RDKit          3D

 21 22  0  0  0  0  0  0  0  0999 V2000
  -25.7291   17.3005  -23.3339 C   0  0  0  0  0  0  0  0  0  0  0  0
  -23.8309   17.7927  -24.6677 C   0  0  0  0  0  0  0  0  0  0  0  0
  -20.4285   17.5618  -26.6202 C   0  0  0  0  0  0  0  0  0  0  0  0
  -25.1330   17.9285  -24.4215 C   0  0  0  0  0  0  0  0  0  0  0  0
  -19.3930   16.5822  -28.4446 N   0  0  0  0  0  0  0  0  0  0  0  0
  -19.4320   17.2912  -27.1959 C   0  0  0  0  0  0  0  0  0  0  0  0
  -22.1298   18.2561  -25.9735 C   0  0  0  0  0  0  0  0  0  0  0  0
  -23.4256   17.4531  -29.2507 C   0  0  0  0  0  0  0  0  0  0  0  0
  -18.2163   15.8180  -28.5501 C   0  0  0  0  0  0  0  0  0  0  0  0
  -24.9382   16.6567  -22.4930 C   0  0  0  0  0  0  0  0  0  0  0  0
  -22.2709   17.6912  -24.7441 O   0  0  0  0  0  0  0  0  0  0  0  0
  -24.1307   17.5924  -29.5886 O   0  0  0  0  0  0  0  0  0  0  0  0
  -21.7311   17.2194  -30.8170 C   0  0  0  0  0  0  0  0  0  0  0  0
  -20.2550   16.1004  -30.3466 C   0  0  0  0  0  0  0  0  0  0  0  0
  -18.1289   17.5146  -26.0714 C   0  0  0  0  0  0  0  0  0  0  0  0
  -23.6325   17.7945  -27.5842 O   0  0  0  0  0  0  0  0  0  0  0  0
  -23.4059   16.5491  -22.6783 C   0  0  0  0  0  0  0  0  0  0  0  0
  -20.8408   17.0154  -28.7579 C   0  0  0  0  0  0  0  0  0  0  0  0
  -25.0740   17.8448  -30.5257 C   0  0  0  0  0  0  0  0  0  0  0  0
  -23.0125   17.1525  -23.7602 C   0  0  0  0  0  0  0  0  0  0  0  0
  -21.4743   17.5062  -27.7457 C   0  0  0  0  0  0  0  0  0  0  0  0
  4  1  2  0
  4  2  1  0
  6  3  2  0
  6  5  1  0
  7  3  1  0
  9  5  1  0
 10  1  1  0
 11  7  1  0
 12  8  1  0
 13  8  1  0
 14 13  1  0
 15  6  1  0
 16  8  2  0
 17 10  2  0
 18  5  1  0
 18 14  1  0
 19 12  1  0
 20  2  2  0
 20 11  1  0
 20 17  1  0
 21  3  1  0
 21 18  2  0
M  END
>  <ID>  (1) 
conformer_0

$$$$
