
     RDKit          3D

 23 24  0  0  0  0  0  0  0  0999 V2000
  -26.1322   17.3651  -23.0013 C   0  0  0  0  0  0  0  0  0  0  0  0
  -25.7565   18.1361  -24.0535 C   0  0  0  0  0  0  0  0  0  0  0  0
  -21.2365   17.3456  -27.8755 C   0  0  0  0  0  0  0  0  0  0  0  0
  -24.4883   17.6457  -30.8925 C   0  0  0  0  0  0  0  0  0  0  0  0
  -23.5840   17.4001  -23.9486 C   0  0  0  0  0  0  0  0  0  0  0  0
  -19.2861   16.3967  -28.2917 N   0  0  0  0  0  0  0  0  0  0  0  0
  -21.8229   17.8418  -25.6934 C   0  0  0  0  0  0  0  0  0  0  0  0
  -20.5792   16.7613  -28.6787 C   0  0  0  0  0  0  0  0  0  0  0  0
  -22.5097   18.2490  -25.7820 O   0  0  0  0  0  0  0  0  0  0  0  0
  -24.6327   18.1712  -24.5538 C   0  0  0  0  0  0  0  0  0  0  0  0
  -19.8555   15.4021  -30.3420 O   0  0  0  0  0  0  0  0  0  0  0  0
  -24.5097   18.1083  -30.3559 O   0  0  0  0  0  0  0  0  0  0  0  0
  -18.1016   15.9930  -28.3863 C   0  0  0  0  0  0  0  0  0  0  0  0
  -21.9074   16.9506  -30.1649 C   0  0  0  0  0  0  0  0  0  0  0  0
  -23.1181   17.5888  -29.1983 C   0  0  0  0  0  0  0  0  0  0  0  0
  -18.3135   16.7166  -26.0341 C   0  0  0  0  0  0  0  0  0  0  0  0
  -21.0955   16.6249  -30.3219 C   0  0  0  0  0  0  0  0  0  0  0  0
  -23.5296   17.6302  -28.4885 O   0  0  0  0  0  0  0  0  0  0  0  0
  -25.3204   16.5590  -22.4078 C   0  0  0  0  0  0  0  0  0  0  0  0
  -20.4272   17.3031  -26.5622 C   0  0  0  0  0  0  0  0  0  0  0  0
  -19.4637   16.8314  -26.9646 C   0  0  0  0  0  0  0  0  0  0  0  0
  -22.1988   17.3194  -24.1644 O   0  0  0  0  0  0  0  0  0  0  0  0
  -23.9000   16.5699  -22.8146 C   0  0  0  0  0  0  0  0  0  0  0  0
  2  1  2  0
  8  3  2  0
  8  6  1  0
  9  7  2  0
 10  2  1  0
 10  5  2  0
 12  4  1  0
 13  6  1  0
 15 12  1  0
 15 14  1  0
 17  8  1  0
 17 11  1  0
 17 14  1  0
 18 15  2  0
 19  1  1  0
 20  3  1  0
 20  7  1  0
 21  6  1  0
 21 16  1  0
 21 20  2  0
 22  5  1  0
 22  7  1  0
 23  5  1  0
 23 19  2  0
M  END
>  <ID>  (1) 
conformer_0

$$$$
