
     RDKit          3D

 22 23  0  0  0  0  0  0  0  0999 V2000
  -24.6041   18.2216  -24.7217 C   0  0  0  0  0  0  0  0  0  0  0  0
  -25.7994   17.9481  -24.2569 C   0  0  0  0  0  0  0  0  0  0  0  0
  -20.5351   17.5072  -26.6906 C   0  0  0  0  0  0  0  0  0  0  0  0
  -19.3393   16.3244  -28.1935 N   0  0  0  0  0  0  0  0  0  0  0  0
  -21.5758   18.1007  -25.6343 C   0  0  0  0  0  0  0  0  0  0  0  0
  -22.2080   17.6891  -24.7002 O   0  0  0  0  0  0  0  0  0  0  0  0
  -24.3910   17.5675  -30.6783 C   0  0  0  0  0  0  0  0  0  0  0  0
  -20.6192   16.7820  -28.6327 C   0  0  0  0  0  0  0  0  0  0  0  0
  -25.0401   16.5988  -22.5786 C   0  0  0  0  0  0  0  0  0  0  0  0
  -23.5193   17.5982  -24.2615 C   0  0  0  0  0  0  0  0  0  0  0  0
  -21.9952   17.2316  -30.6343 C   0  0  0  0  0  0  0  0  0  0  0  0
  -20.3665   15.5267  -30.3846 O   0  0  0  0  0  0  0  0  0  0  0  0
  -24.6504   17.5619  -30.3662 O   0  0  0  0  0  0  0  0  0  0  0  0
  -18.2361   15.5725  -28.4642 C   0  0  0  0  0  0  0  0  0  0  0  0
  -18.7920   17.3519  -25.6492 C   0  0  0  0  0  0  0  0  0  0  0  0
  -23.0661   17.5197  -29.1887 C   0  0  0  0  0  0  0  0  0  0  0  0
  -23.2636   17.6091  -28.6226 O   0  0  0  0  0  0  0  0  0  0  0  0
  -26.0733   17.2129  -23.1375 C   0  0  0  0  0  0  0  0  0  0  0  0
  -23.6440   16.6762  -23.1280 C   0  0  0  0  0  0  0  0  0  0  0  0
  -19.6618   17.0013  -26.8219 C   0  0  0  0  0  0  0  0  0  0  0  0
  -21.2865   17.3132  -28.1279 C   0  0  0  0  0  0  0  0  0  0  0  0
  -21.0927   16.4140  -30.1984 C   0  0  0  0  0  0  0  0  0  0  0  0
  2  1  2  0
  5  3  1  0
  6  5  1  0
  8  4  1  0
 10  1  1  0
 10  6  1  0
 13  7  1  0
 14  4  1  0
 16  7  1  0
 16 11  1  0
 17 16  2  0
 18  2  1  0
 18  9  2  0
 19  9  1  0
 19 10  2  0
 20  3  2  0
 20  4  1  0
 20 15  1  0
 21  3  1  0
 21  8  2  0
 22  8  1  0
 22 11  1  0
 22 12  2  0
M  END
>  <ID>  (1) 
conformer_0

$$$$
