
     RDKit          3D

 21 22  0  0  0  0  0  0  0  0999 V2000
  -20.6247   17.3802  -26.4975 C   0  0  0  0  0  0  0  0  0  0  0  0
  -24.1325   16.9147  -22.9300 C   0  0  0  0  0  0  0  0  0  0  0  0
  -25.6099   17.1295  -22.8059 C   0  0  0  0  0  0  0  0  0  0  0  0
  -23.6776   17.6522  -24.3882 C   0  0  0  0  0  0  0  0  0  0  0  0
  -20.2196   16.8143  -28.5384 C   0  0  0  0  0  0  0  0  0  0  0  0
  -24.0367   17.7285  -30.2074 C   0  0  0  0  0  0  0  0  0  0  0  0
  -25.9718   17.8624  -23.8760 C   0  0  0  0  0  0  0  0  0  0  0  0
  -22.0096   17.0654  -30.2771 C   0  0  0  0  0  0  0  0  0  0  0  0
  -21.4259   17.7248  -25.4438 C   0  0  0  0  0  0  0  0  0  0  0  0
  -22.4120   17.9374  -24.9727 O   0  0  0  0  0  0  0  0  0  0  0  0
  -19.8156   15.8823  -30.3533 O   0  0  0  0  0  0  0  0  0  0  0  0
  -19.2806   16.5049  -28.0096 N   0  0  0  0  0  0  0  0  0  0  0  0
  -24.3191   17.3308  -29.8410 O   0  0  0  0  0  0  0  0  0  0  0  0
  -18.2339   15.6395  -28.5046 C   0  0  0  0  0  0  0  0  0  0  0  0
  -21.2391   16.5978  -30.2694 C   0  0  0  0  0  0  0  0  0  0  0  0
  -23.5291   18.1170  -27.7563 O   0  0  0  0  0  0  0  0  0  0  0  0
  -18.6136   16.6853  -25.7460 C   0  0  0  0  0  0  0  0  0  0  0  0
  -22.7477   18.0528  -28.2569 C   0  0  0  0  0  0  0  0  0  0  0  0
  -21.1518   17.5445  -27.7986 C   0  0  0  0  0  0  0  0  0  0  0  0
  -25.0762   18.2101  -24.8631 C   0  0  0  0  0  0  0  0  0  0  0  0
  -19.3102   16.7746  -26.6877 C   0  0  0  0  0  0  0  0  0  0  0  0
  3  2  2  0
  4  2  1  0
  7  3  1  0
  8  6  1  0
  9  1  1  0
 10  4  1  0
 10  9  1  0
 12  5  1  0
 13  6  1  0
 14 12  1  0
 15  5  1  0
 15  8  1  0
 15 11  1  0
 18 16  2  0
 19  1  1  0
 19  5  2  0
 19 18  1  0
 20  4  1  0
 20  7  2  0
 21  1  2  0
 21 12  1  0
 21 17  1  0
M  END
>  <ID>  (1) 
conformer_0

$$$$
