
     RDKit          3D

 20 21  0  0  0  0  0  0  0  0999 V2000
  -25.1115   16.7450  -22.7780 C   0  0  0  0  0  0  0  0  0  0  0  0
  -25.8891   17.5290  -23.5993 C   0  0  0  0  0  0  0  0  0  0  0  0
  -21.4219   17.4337  -27.7765 C   0  0  0  0  0  0  0  0  0  0  0  0
  -24.5219   17.3265  -30.4637 C   0  0  0  0  0  0  0  0  0  0  0  0
  -20.8094   16.7555  -28.8410 C   0  0  0  0  0  0  0  0  0  0  0  0
  -22.3709   18.1726  -25.3041 O   0  0  0  0  0  0  0  0  0  0  0  0
  -22.1097   16.9311  -30.7609 C   0  0  0  0  0  0  0  0  0  0  0  0
  -23.5539   17.8043  -24.5163 C   0  0  0  0  0  0  0  0  0  0  0  0
  -25.0420   18.1320  -24.6042 C   0  0  0  0  0  0  0  0  0  0  0  0
  -19.7534   16.2974  -28.8449 N   0  0  0  0  0  0  0  0  0  0  0  0
  -18.3570   15.4132  -29.0855 C   0  0  0  0  0  0  0  0  0  0  0  0
  -24.3500   17.7632  -30.0421 O   0  0  0  0  0  0  0  0  0  0  0  0
  -23.0919   17.7654  -29.1287 C   0  0  0  0  0  0  0  0  0  0  0  0
  -19.7732   17.2467  -25.4427 C   0  0  0  0  0  0  0  0  0  0  0  0
  -20.6603   16.3213  -30.5191 C   0  0  0  0  0  0  0  0  0  0  0  0
  -23.5886   16.8312  -23.2931 C   0  0  0  0  0  0  0  0  0  0  0  0
  -20.4648   17.0794  -26.7567 C   0  0  0  0  0  0  0  0  0  0  0  0
  -22.3322   17.9402  -26.7827 C   0  0  0  0  0  0  0  0  0  0  0  0
  -19.3998   16.4665  -27.3088 C   0  0  0  0  0  0  0  0  0  0  0  0
  -23.6673   17.8468  -28.1457 O   0  0  0  0  0  0  0  0  0  0  0  0
  2  1  2  0
  5  3  2  0
  8  6  1  0
  9  2  1  0
  9  8  2  0
 10  5  1  0
 11 10  1  0
 12  4  1  0
 13 12  1  0
 15  5  1  0
 15  7  1  0
 16  1  1  0
 16  8  1  0
 17  3  1  0
 17 14  1  0
 18  3  1  0
 18  6  1  0
 19 10  1  0
 19 17  2  0
 20 13  1  0
 20 18  1  0
M  END
>  <ID>  (1) 
conformer_0

$$$$
