
     RDKit          3D

 21 24  0  0  0  0  0  0  0  0999 V2000
  -25.8691   17.8917  -23.6437 C   0  0  0  0  0  0  0  0  0  0  0  0
  -25.5400   17.0584  -22.6905 C   0  0  0  0  0  0  0  0  0  0  0  0
  -20.9548   17.2649  -26.4833 C   0  0  0  0  0  0  0  0  0  0  0  0
  -20.6782   16.5822  -28.7069 C   0  0  0  0  0  0  0  0  0  0  0  0
  -23.5780   17.5966  -24.1282 C   0  0  0  0  0  0  0  0  0  0  0  0
  -23.9983   17.8153  -30.5728 C   0  0  0  0  0  0  0  0  0  0  0  0
  -24.8187   18.2430  -24.6274 C   0  0  0  0  0  0  0  0  0  0  0  0
  -18.3610   15.5234  -28.6501 C   0  0  0  0  0  0  0  0  0  0  0  0
  -22.1757   18.0048  -26.0769 C   0  0  0  0  0  0  0  0  0  0  0  0
  -24.1329   17.9408  -30.3168 O   0  0  0  0  0  0  0  0  0  0  0  0
  -19.8852   15.6491  -29.7666 O   0  0  0  0  0  0  0  0  0  0  0  0
  -18.8726   17.0055  -25.7591 C   0  0  0  0  0  0  0  0  0  0  0  0
  -22.5463   17.7766  -24.8113 O   0  0  0  0  0  0  0  0  0  0  0  0
  -21.8837   16.5887  -30.6220 C   0  0  0  0  0  0  0  0  0  0  0  0
  -19.4926   16.4499  -27.8345 N   0  0  0  0  0  0  0  0  0  0  0  0
  -21.0100   16.2824  -30.4907 C   0  0  0  0  0  0  0  0  0  0  0  0
  -24.0446   16.7373  -22.8038 C   0  0  0  0  0  0  0  0  0  0  0  0
  -22.8155   17.7677  -28.8014 C   0  0  0  0  0  0  0  0  0  0  0  0
  -19.9045   16.8059  -26.9220 C   0  0  0  0  0  0  0  0  0  0  0  0
  -23.6111   17.9280  -28.5349 O   0  0  0  0  0  0  0  0  0  0  0  0
  -21.5890   17.4557  -27.8754 C   0  0  0  0  0  0  0  0  0  0  0  0
  2  1  2  0
  7  1  1  0
  7  5  1  0
  9  3  1  0
 10  6  1  0
 11  4  1  0
 13  5  1  0
 13  9  1  0
 15  4  1  0
 15  8  1  0
 16  4  1  0
 16 11  1  0
 16 14  1  0
 17  2  1  0
 17  5  2  0
 19  3  2  0
 19 12  1  0
 19 15  1  0
 20 10  1  0
 20 18  1  0
 21  3  1  0
 21  4  1  0
 21  9  1  0
 21 18  1  0
M  END
>  <ID>  (1) 
conformer_0

$$$$
