
     RDKit          3D

 20 21  0  0  0  0  0  0  0  0999 V2000
  -23.9627   16.7546  -23.0122 C   0  0  0  0  0  0  0  0  0  0  0  0
  -25.9475   17.7788  -23.6025 C   0  0  0  0  0  0  0  0  0  0  0  0
  -21.6015   17.4484  -27.6849 C   0  0  0  0  0  0  0  0  0  0  0  0
  -20.7744   16.5878  -28.4746 C   0  0  0  0  0  0  0  0  0  0  0  0
  -24.2681   17.6730  -30.5517 C   0  0  0  0  0  0  0  0  0  0  0  0
  -19.3149   16.3563  -27.8690 N   0  0  0  0  0  0  0  0  0  0  0  0
  -22.2060   17.9790  -26.1271 C   0  0  0  0  0  0  0  0  0  0  0  0
  -23.6985   17.6504  -24.3722 C   0  0  0  0  0  0  0  0  0  0  0  0
  -17.9136   17.0278  -25.6043 C   0  0  0  0  0  0  0  0  0  0  0  0
  -25.0897   18.1810  -24.5997 C   0  0  0  0  0  0  0  0  0  0  0  0
  -20.2800   15.8853  -29.7099 O   0  0  0  0  0  0  0  0  0  0  0  0
  -24.4878   17.3204  -30.0198 O   0  0  0  0  0  0  0  0  0  0  0  0
  -18.2424   15.7902  -28.6207 C   0  0  0  0  0  0  0  0  0  0  0  0
  -21.7034   18.1130  -24.9372 O   0  0  0  0  0  0  0  0  0  0  0  0
  -22.6885   17.4855  -30.7957 C   0  0  0  0  0  0  0  0  0  0  0  0
  -22.3962   17.0046  -29.6431 C   0  0  0  0  0  0  0  0  0  0  0  0
  -23.7375   17.8286  -27.8965 O   0  0  0  0  0  0  0  0  0  0  0  0
  -25.4949   16.8702  -22.6287 C   0  0  0  0  0  0  0  0  0  0  0  0
  -19.5342   16.7404  -26.8783 C   0  0  0  0  0  0  0  0  0  0  0  0
  -20.5950   17.2542  -26.4863 C   0  0  0  0  0  0  0  0  0  0  0  0
  4  3  1  0
  6  4  1  0
  7  3  1  0
  8  1  2  0
  8  7  1  0
 10  2  2  0
 10  8  1  0
 11  4  2  0
 12  5  1  0
 13  6  1  0
 14  7  1  0
 15  5  1  0
 16  3  1  0
 16 15  1  0
 17  7  1  0
 18  1  1  0
 18  2  1  0
 19  6  1  0
 19  9  1  0
 20  3  1  0
 20 19  1  0
M  END
>  <ID>  (1) 
conformer_0

$$$$
