
     RDKit          3D

 22 23  0  0  0  0  0  0  0  0999 V2000
  -26.0679   17.2012  -22.9166 C   0  0  0  0  0  0  0  0  0  0  0  0
  -21.3148   17.5308  -27.7064 C   0  0  0  0  0  0  0  0  0  0  0  0
  -24.7801   18.2301  -24.6141 C   0  0  0  0  0  0  0  0  0  0  0  0
  -21.5839   17.6281  -25.3635 C   0  0  0  0  0  0  0  0  0  0  0  0
  -24.7022   17.9713  -30.5650 C   0  0  0  0  0  0  0  0  0  0  0  0
  -19.5529   16.4105  -28.6594 N   0  0  0  0  0  0  0  0  0  0  0  0
  -19.2484   16.6289  -27.0962 C   0  0  0  0  0  0  0  0  0  0  0  0
  -22.3146   17.8970  -24.6909 O   0  0  0  0  0  0  0  0  0  0  0  0
  -23.8785   17.7179  -24.2127 C   0  0  0  0  0  0  0  0  0  0  0  0
  -23.0379   17.3797  -29.4316 C   0  0  0  0  0  0  0  0  0  0  0  0
  -18.7902   16.5487  -25.8382 C   0  0  0  0  0  0  0  0  0  0  0  0
  -25.0360   16.6292  -22.4766 C   0  0  0  0  0  0  0  0  0  0  0  0
  -19.9291   15.3614  -31.0308 O   0  0  0  0  0  0  0  0  0  0  0  0
  -23.4819   17.4080  -28.4715 O   0  0  0  0  0  0  0  0  0  0  0  0
  -21.9273   16.7830  -30.3286 C   0  0  0  0  0  0  0  0  0  0  0  0
  -20.6054   16.5128  -30.2828 C   0  0  0  0  0  0  0  0  0  0  0  0
  -23.6874   16.8289  -23.0950 C   0  0  0  0  0  0  0  0  0  0  0  0
  -24.2403   17.5516  -30.3658 O   0  0  0  0  0  0  0  0  0  0  0  0
  -20.4115   17.3454  -26.6183 C   0  0  0  0  0  0  0  0  0  0  0  0
  -20.9187   17.0676  -28.5111 C   0  0  0  0  0  0  0  0  0  0  0  0
  -18.6106   15.7026  -29.3387 C   0  0  0  0  0  0  0  0  0  0  0  0
  -26.1068   18.0628  -24.0267 C   0  0  0  0  0  0  0  0  0  0  0  0
  7  6  1  0
  8  4  1  0
  9  3  1  0
  9  8  1  0
 11  7  1  0
 12  1  2  0
 14 10  2  0
 15 10  1  0
 16 13  1  0
 16 15  1  0
 17  9  2  0
 17 12  1  0
 18  5  1  0
 18 10  1  0
 19  2  1  0
 19  4  1  0
 19  7  2  0
 20  2  2  0
 20  6  1  0
 20 16  1  0
 21  6  1  0
 22  1  1  0
 22  3  2  0
M  END
>  <ID>  (1) 
conformer_0

$$$$
