
     RDKit          3D

 20 23  0  0  0  0  0  0  0  0999 V2000
  -25.9620   17.5823  -23.2092 C   0  0  0  0  0  0  0  0  0  0  0  0
  -21.4460   17.5527  -27.7546 C   0  0  0  0  0  3  0  0  0  0  0  0
  -25.0354   16.8000  -22.5613 C   0  0  0  0  0  0  0  0  0  0  0  0
  -20.6626   16.6937  -28.5565 C   0  0  0  0  0  0  0  0  0  0  0  0
  -24.4966   17.9249  -31.1582 C   0  0  0  0  0  0  0  0  0  0  0  0
  -23.8695   17.8108  -24.3467 C   0  0  0  0  0  0  0  0  0  0  0  0
  -18.3952   16.9621  -25.4027 C   0  0  0  0  0  0  0  0  0  0  0  0
  -19.2235   16.4077  -27.6653 N   0  0  0  0  0  0  0  0  0  0  0  0
  -22.2269   18.1740  -24.9475 O   0  0  0  0  0  0  0  0  0  0  0  0
  -25.2953   18.1845  -24.3329 C   0  0  0  0  0  0  0  0  0  0  0  0
  -21.7915   16.6719  -30.8870 C   0  0  0  0  0  0  0  0  0  0  0  0
  -24.3066   17.3185  -28.8436 O   0  0  0  0  0  0  0  0  0  0  0  0
  -22.2093   18.1524  -26.1115 C   0  0  0  0  0  0  0  0  0  0  0  0
  -20.1591   15.6372  -29.5850 O   0  0  0  0  0  0  0  0  0  0  0  0
  -23.2173   17.3208  -29.9136 C   0  0  0  0  0  0  0  0  0  0  0  0
  -18.2124   15.8322  -28.0306 C   0  0  0  0  0  0  0  0  0  0  0  0
  -19.5502   16.8701  -27.0524 C   0  0  0  0  0  0  0  0  0  0  0  0
  -23.6259   16.8862  -23.1208 C   0  0  0  0  0  0  0  0  0  0  0  0
  -20.6413   17.4671  -26.5603 C   0  0  0  0  0  0  0  0  0  0  0  0
  -21.2981   16.4361  -29.9744 C   0  0  0  0  0  0  0  0  0  0  0  0
  3  1  2  0
  4  2  1  0
  8  4  1  0
  9  6  1  0
 10  1  1  0
 10  6  1  0
 13  2  1  0
 13  9  1  0
 14  4  1  0
 15  5  1  0
 15 11  1  0
 15 12  1  0
 16  8  1  0
 17  7  1  0
 17  8  1  0
 18  3  1  0
 18  6  2  0
 19  2  1  0
 19 13  1  0
 19 17  2  0
 20  4  1  0
 20 11  1  0
 20 14  1  0
M  RAD  1   2   2
M  END
>  <ID>  (1) 
conformer_0

$$$$
