
     RDKit          3D

 20 20  0  0  0  0  0  0  0  0999 V2000
  -25.2841   17.0191  -22.5690 C   0  0  0  0  0  0  0  0  0  0  0  0
  -25.9363   17.6855  -23.4785 C   0  0  0  0  0  0  0  0  0  0  0  0
  -21.3055   17.4106  -27.7544 C   0  0  0  0  0  0  0  0  0  0  0  0
  -24.1012   17.6894  -30.6716 C   0  0  0  0  0  0  0  0  0  0  0  0
  -19.3445   16.3351  -27.7102 N   0  0  0  0  0  0  0  0  0  0  0  0
  -20.7377   16.7414  -28.2618 C   0  0  0  0  0  0  0  0  0  0  0  0
  -23.8019   17.1181  -23.0095 C   0  0  0  0  0  0  0  0  0  0  0  0
  -23.7253   17.9084  -24.3883 C   0  0  0  0  0  0  0  0  0  0  0  0
  -22.1197   16.7480  -29.8725 C   0  0  2  0  0  0  0  0  0  0  0  0
  -20.4317   15.7880  -30.1998 O   0  0  0  0  0  0  0  0  0  0  0  0
  -18.4160   15.6569  -28.0661 C   0  0  0  0  0  0  0  0  0  0  0  0
  -22.6111   18.3377  -25.4380 O   0  0  0  0  0  0  0  0  0  0  0  0
  -18.0542   16.8846  -25.8490 C   0  0  0  0  0  0  0  0  0  0  0  0
  -21.9646   18.0468  -25.8081 C   0  0  0  0  0  0  0  0  0  0  0  0
  -24.2960   17.1489  -30.6343 O   0  0  0  0  0  0  0  0  0  0  0  0
  -25.2105   18.1637  -24.5740 C   0  0  0  0  0  0  0  0  0  0  0  0
  -22.2391   17.1562  -30.1334 C   0  0  2  0  0  0  0  0  0  0  0  0
  -20.7457   17.3085  -26.3375 C   0  0  0  0  0  0  0  0  0  0  0  0
  -23.5417   17.7910  -28.6243 O   0  0  0  0  0  0  0  0  0  0  0  0
  -19.6596   16.8604  -26.5439 C   0  0  0  0  0  0  0  0  0  0  0  0
  2  1  2  0
  6  3  2  3
  6  5  1  0
  7  1  1  0
  8  7  1  0
  9 10  1  6
 11  5  1  0
 12  8  1  0
 14 12  1  0
 15  4  1  0
 16  2  1  0
 16  8  2  0
 17  4  1  0
 17  9  1  0
 18  9  1  0
 18 14  1  0
 17 19  1  1
 20  5  1  0
 20 13  1  0
 20 18  2  3
M  END
>  <ID>  (1) 
conformer_0

$$$$
