
     RDKit          3D

 20 22  0  0  0  0  0  0  0  0999 V2000
  -24.9202   18.0582  -24.3983 C   0  0  0  0  0  0  0  0  0  0  0  0
  -21.4408   17.4952  -27.4749 C   0  0  0  0  0  0  0  0  0  0  0  0
  -25.8237   17.6085  -23.4571 C   0  0  0  0  0  0  0  0  0  0  0  0
  -23.4771   17.5763  -23.9982 C   0  0  0  0  0  0  0  0  0  0  0  0
  -19.7610   16.4415  -28.7503 N   0  0  0  0  0  0  0  0  0  0  0  0
  -23.2390   17.5875  -29.6018 C   0  0  0  0  0  0  0  0  0  0  0  0
  -20.9728   16.9391  -28.7046 C   0  0  0  0  0  0  0  0  0  0  0  0
  -22.0678   18.0167  -24.9086 O   0  0  0  0  0  0  0  0  0  0  0  0
  -25.3564   16.8075  -22.4831 C   0  0  0  0  0  0  0  0  0  0  0  0
  -21.8258   17.8465  -25.7632 C   0  0  0  0  0  0  0  0  0  0  0  0
  -18.2958   15.6410  -28.9817 C   0  0  0  0  0  0  0  0  0  0  0  0
  -21.9884   16.3016  -30.5700 C   0  0  0  0  0  0  0  0  0  0  0  0
  -23.9922   17.4582  -28.6266 O   0  0  0  0  0  0  0  0  0  0  0  0
  -24.6264   18.0483  -31.1867 C   0  0  0  0  0  0  0  0  0  0  0  0
  -18.7542   16.8101  -25.8777 C   0  0  0  0  0  0  0  0  0  0  0  0
  -20.3399   17.0771  -26.5613 C   0  0  0  0  0  0  0  0  0  0  0  0
  -23.7618   16.6791  -22.6348 C   0  0  0  0  0  0  0  0  0  0  0  0
  -21.2384   16.4649  -30.2821 C   0  0  0  0  0  0  0  0  0  0  0  0
  -23.9159   17.7700  -30.5592 O   0  0  0  0  0  0  0  0  0  0  0  0
  -19.4504   16.6356  -27.3730 C   0  0  0  0  0  0  0  0  0  0  0  0
  3  1  2  0
  4  1  1  0
  7  2  2  0
  7  5  1  0
  8  4  1  0
  9  3  1  0
 10  2  1  0
 10  8  1  0
 11  5  1  0
 12  6  1  0
 13  6  1  0
 16  2  1  0
 16 10  1  0
 17  4  1  0
 17  9  2  0
 18  7  1  0
 18 12  1  0
 19  6  1  0
 19 14  1  0
 20  5  1  0
 20 15  1  0
 20 16  2  0
M  END
>  <ID>  (1) 
conformer_0

$$$$
