
     RDKit          3D

 22 25  0  0  0  0  0  0  0  0999 V2000
  -25.9082   17.6388  -23.3832 C   0  0  0  0  0  0  0  0  0  0  0  0
  -21.2961   17.5098  -27.5469 C   0  0  0  0  0  3  0  0  0  0  0  0
  -25.2087   18.1380  -24.5345 C   0  0  0  0  0  0  0  0  0  0  0  0
  -23.2182   17.3828  -23.7220 C   0  0  0  0  0  0  0  0  0  0  0  0
  -20.7420   16.7401  -28.6897 C   0  0  0  0  0  0  0  0  0  0  0  0
  -24.2327   17.7881  -30.7399 C   0  0  0  0  0  0  0  0  0  0  0  0
  -24.1630   17.8510  -29.6855 O   0  0  0  0  0  0  0  0  0  0  0  0
  -25.2764   16.9011  -22.5614 C   0  0  0  0  0  0  0  0  0  0  0  0
  -20.4491   15.8563  -29.7203 O   0  0  0  0  0  0  0  0  0  0  0  0
  -22.3686   17.7812  -24.7127 O   0  0  0  0  0  0  0  0  0  0  0  0
  -22.5810   17.0669  -30.4632 C   0  0  0  0  0  0  0  0  0  0  0  0
  -22.1825   17.9757  -25.8392 C   0  0  0  0  0  0  0  0  0  0  0  0
  -19.2309   16.4578  -28.0978 N   0  0  0  0  0  0  0  0  0  0  0  0
  -18.0784   15.7050  -28.7337 C   0  0  0  0  0  0  0  0  0  0  0  0
  -18.5280   17.1412  -25.9926 C   0  0  0  0  0  0  0  0  0  0  0  0
  -21.7623   16.4768  -30.2206 C   0  0  0  0  0  0  0  0  0  0  0  0
  -20.2987   17.2521  -26.5498 C   0  0  0  0  0  0  0  0  0  0  0  0
  -19.4368   16.8087  -27.3337 C   0  0  0  0  0  0  0  0  0  0  0  0
  -23.7633   16.7109  -22.7570 C   0  0  0  0  0  0  0  0  0  0  0  0
  -23.2265   17.6565  -28.7652 C   0  0  0  0  0  0  0  0  0  0  0  0
  -24.1474   17.8760  -24.7481 C   0  0  0  0  0  0  0  0  0  0  0  0
  -23.9926   17.4739  -27.9267 O   0  0  0  0  0  0  0  0  0  0  0  0
  3  1  2  0
  5  2  1  0
  7  6  1  0
  8  1  1  0
  9  5  1  0
 10  4  1  0
 11  6  1  0
 12  2  1  0
 12 10  1  0
 13  5  1  0
 14 13  1  0
 16  5  1  0
 16  9  1  0
 16 11  1  0
 17  2  1  0
 18 13  1  0
 18 15  1  0
 18 17  2  0
 19  4  1  0
 19  8  2  0
 20  7  1  0
 20 11  1  0
 21  3  1  0
 21  4  2  0
 22 20  1  0
M  RAD  1   2   2
M  END
>  <ID>  (1) 
conformer_0

$$$$
