
     RDKit          3D

 18 19  0  0  0  0  0  0  0  0999 V2000
  -23.8951   16.8558  -22.7617 C   0  0  0  0  0  0  0  0  0  0  0  0
  -21.3989   17.6664  -27.6596 C   0  0  0  0  0  0  0  0  0  0  0  0
  -25.3579   16.7358  -22.5333 C   0  0  0  0  0  0  0  0  0  0  0  0
  -20.0554   16.9690  -27.7124 C   0  0  0  0  0  0  0  0  0  0  0  0
  -19.4128   16.5284  -28.2755 N   0  0  0  0  0  0  0  0  0  0  0  0
  -22.0563   17.0685  -30.3446 C   0  0  0  0  0  0  0  0  0  0  0  0
  -24.1503   17.6317  -30.5892 C   0  0  0  0  0  0  0  0  0  0  0  0
  -18.3118   15.6131  -28.6443 C   0  0  0  0  0  3  0  0  0  0  0  0
  -22.4234   17.9941  -24.6827 O   0  0  0  0  0  0  0  0  0  0  0  0
  -23.7011   17.6743  -24.3206 C   0  0  0  0  0  0  0  0  0  0  0  0
  -24.3409   17.5397  -29.0450 O   0  0  0  0  0  0  0  0  0  0  0  0
  -25.1014   17.9714  -24.6096 C   0  0  0  0  0  0  0  0  0  0  0  0
  -21.8686   17.7962  -25.6939 C   0  0  0  0  0  0  0  0  0  0  0  0
  -21.1171   16.1903  -30.1032 C   0  0  0  0  0  0  0  0  0  0  0  0
  -18.9504   17.0444  -25.6329 C   0  0  0  0  0  0  0  0  0  0  0  0
  -22.7201   17.7630  -28.7690 C   0  0  1  0  0  0  0  0  0  0  0  0
  -25.9592   17.3893  -23.6019 C   0  0  0  0  0  0  0  0  0  0  0  0
  -20.5154   17.3330  -26.4499 C   0  0  2  0  0  0  0  0  0  0  0  0
  3  1  2  0
  4  2  2  0
  5  4  1  0
  8  5  2  3
 10  1  1  0
 10  9  1  0
 11  7  1  0
 12 10  1  0
 13  9  1  0
 14  6  1  0
 16  2  1  0
 16  6  1  6
 16 11  1  0
 17  3  1  0
 17 12  2  0
 18  2  1  0
 18  4  1  0
 18 13  1  0
 18 15  1  1
M  RAD  1   8   2
M  END
>  <ID>  (1) 
conformer_0

$$$$
