
     RDKit          3D

 22 24  0  0  0  0  0  0  0  0999 V2000
  -23.7399   16.7055  -22.9662 C   0  0  0  0  0  0  0  0  0  0  0  0
  -20.5467   17.4215  -26.7307 C   0  0  0  0  0  0  0  0  0  0  0  0
  -26.0803   17.1472  -22.8798 C   0  0  0  0  0  0  0  0  0  0  0  0
  -25.8949   17.9837  -23.9644 C   0  0  0  0  0  0  0  0  0  0  0  0
  -20.4949   16.7926  -28.8815 C   0  0  0  0  0  0  0  0  0  0  0  0
  -23.8168   18.0048  -30.9543 C   0  0  0  0  0  0  0  0  0  0  0  0
  -22.3880   18.1257  -24.7223 O   0  0  0  0  0  0  0  0  0  0  0  0
  -19.3116   16.2687  -28.2951 N   0  0  0  0  0  0  0  0  0  0  0  0
  -21.8925   18.2290  -25.9583 C   0  0  0  0  0  0  0  0  0  0  0  0
  -23.6369   17.6544  -24.0943 C   0  0  0  0  0  0  0  0  0  0  0  0
  -18.2801   15.3759  -28.3728 C   0  0  0  0  0  0  0  0  0  0  0  0
  -22.1145   16.8411  -30.4237 C   0  0  0  0  0  0  0  0  0  0  0  0
  -23.9227   17.5809  -28.0906 O   0  0  0  0  0  0  0  0  0  0  0  0
  -20.3537   15.7925  -30.3026 O   0  0  0  0  0  0  0  0  0  0  0  0
  -22.5968   17.7874  -29.3066 C   0  0  0  0  0  0  0  0  0  0  0  0
  -24.7942   18.1628  -24.5022 C   0  0  0  0  0  0  0  0  0  0  0  0
  -18.3920   16.8950  -25.7643 C   0  0  0  0  0  0  0  0  0  0  0  0
  -21.2447   17.6138  -27.9324 C   0  0  0  0  0  0  0  0  0  0  0  0
  -24.0602   17.8615  -29.9871 O   0  0  0  0  0  0  0  0  0  0  0  0
  -19.5361   16.8219  -27.1327 C   0  0  0  0  0  0  0  0  0  0  0  0
  -20.7418   16.2125  -30.4566 C   0  0  0  0  0  0  0  0  0  0  0  0
  -25.1055   16.4447  -22.3660 C   0  0  0  0  0  0  0  0  0  0  0  0
  4  3  1  0
  8  5  1  0
  9  2  1  0
  9  7  1  0
 10  1  2  0
 10  7  1  0
 11  8  1  0
 15 12  1  0
 15 13  1  0
 16  4  2  0
 16 10  1  0
 18  2  1  0
 18  5  2  0
 18 15  1  0
 19  6  1  0
 19 15  1  0
 20  2  2  0
 20  8  1  0
 20 17  1  0
 21  5  1  0
 21 12  1  0
 21 14  1  0
 22  1  1  0
 22  3  2  0
M  END
>  <ID>  (1) 
conformer_0

$$$$
