
     RDKit          3D

 21 22  0  0  0  0  0  0  0  0999 V2000
  -25.6611   17.0134  -22.6739 C   0  0  0  0  0  0  0  0  0  0  0  0
  -25.9311   17.6942  -23.8486 C   0  0  0  0  0  0  0  0  0  0  0  0
  -20.3016   17.3096  -26.5960 C   0  0  0  0  0  0  0  0  0  0  0  0
  -23.6168   17.7216  -24.1461 C   0  0  0  0  0  0  0  0  0  0  0  0
  -20.7243   16.6441  -28.8355 C   0  0  0  0  0  0  0  0  0  0  0  0
  -18.3076   16.9858  -25.7083 C   0  0  0  0  0  0  0  0  0  0  0  0
  -24.9513   17.8386  -30.9196 C   0  0  0  0  0  0  0  0  0  0  0  0
  -21.8069   17.8701  -25.8324 C   0  0  0  0  0  0  0  0  0  0  0  0
  -22.0512   17.8090  -24.2994 O   0  0  0  0  0  0  0  0  0  0  0  0
  -19.6118   16.3743  -28.5577 N   0  0  0  0  0  0  0  0  0  0  0  0
  -24.9875   18.0250  -24.7116 C   0  0  0  0  0  0  0  0  0  0  0  0
  -24.3623   17.4949  -30.3753 O   0  0  0  0  0  0  0  0  0  0  0  0
  -21.8244   16.5442  -30.7340 C   0  0  0  0  0  0  0  0  0  0  0  0
  -20.8147   15.8749  -30.4308 C   0  0  0  0  0  0  0  0  0  0  0  0
  -17.9458   15.9733  -27.9863 C   0  0  0  0  0  0  0  0  0  0  0  0
  -24.1076   16.9658  -22.7299 C   0  0  0  0  0  0  0  0  0  0  0  0
  -23.8021   17.5434  -28.6037 O   0  0  0  0  0  0  0  0  0  0  0  0
  -21.3520   17.3752  -27.8215 C   0  0  0  0  0  0  0  0  0  0  0  0
  -19.3873   16.7673  -27.3058 C   0  0  0  0  0  0  0  0  0  0  0  0
  -23.2275   17.1719  -29.6210 C   0  0  0  0  0  0  0  0  0  0  0  0
  -22.8284   18.0554  -26.0557 O   0  0  0  0  0  0  0  0  0  0  0  0
  2  1  2  0
  8  3  1  0
  9  4  1  0
  9  8  1  0
 10  5  2  0
 11  2  1  0
 11  4  2  0
 12  7  1  0
 14  5  1  0
 14 13  1  0
 16  1  1  0
 16  4  1  0
 18  3  2  0
 18  5  1  0
 19  3  1  0
 19  6  1  0
 19 10  1  0
 19 15  1  0
 20 12  1  0
 20 13  1  0
 20 17  2  0
 21  8  2  0
M  END
>  <ID>  (1) 
conformer_0

$$$$
