
     RDKit          3D

 22 23  0  0  0  0  0  0  0  0999 V2000
  -25.7948   16.8798  -22.6458 C   0  0  0  0  0  0  0  0  0  0  0  0
  -24.4647   16.7222  -22.3970 C   0  0  0  0  0  0  0  0  0  0  0  0
  -21.5732   17.5560  -28.0047 C   0  0  0  0  0  0  0  0  0  0  0  0
  -24.2922   17.4990  -30.5515 C   0  0  0  0  0  0  0  0  0  0  0  0
  -18.0345   16.8124  -25.7678 C   0  0  0  0  0  0  0  0  0  0  0  0
  -19.3512   16.4707  -27.9520 N   0  0  0  0  0  0  0  0  0  0  0  0
  -21.9860   18.2968  -25.6900 C   0  0  0  0  0  0  0  0  0  0  0  0
  -23.9445   17.8704  -24.5323 C   0  0  0  0  0  0  0  0  0  0  0  0
  -20.5845   16.7881  -28.4505 C   0  0  0  0  0  0  0  0  0  0  0  0
  -20.2995   15.6796  -30.1515 O   0  0  0  0  0  0  0  0  0  0  0  0
  -25.2598   18.0448  -24.6693 C   0  0  0  0  0  0  0  0  0  0  0  0
  -22.0506   17.0580  -30.3325 C   0  0  0  0  0  0  0  0  0  0  0  0
  -18.2972   15.7296  -28.2810 C   0  0  0  0  0  0  0  0  0  0  0  0
  -24.2047   17.2174  -30.1907 O   0  0  0  0  0  0  0  0  0  0  0  0
  -22.8199   18.2544  -25.0456 O   0  0  0  0  0  0  0  0  0  0  0  0
  -21.9680   16.9927  -30.1505 C   0  0  0  0  0  0  0  0  0  0  0  0
  -23.4772   17.1778  -23.3322 C   0  0  0  0  0  0  0  0  0  0  0  0
  -23.7943   17.6756  -28.1462 O   0  0  0  0  0  0  0  0  0  0  0  0
  -22.9669   17.8466  -28.1323 C   0  0  0  0  0  3  0  0  0  0  0  0
  -19.5019   17.0349  -26.7183 C   0  0  0  0  0  0  0  0  0  0  0  0
  -20.6235   17.4774  -26.6845 C   0  0  0  0  0  0  0  0  0  0  0  0
  -26.1276   17.5980  -23.6885 C   0  0  0  0  0  0  0  0  0  0  0  0
  2  1  2  0
  9  3  1  0
  9  6  1  0
 11  8  1  0
 13  6  1  0
 14  4  1  0
 14 12  1  0
 15  7  1  0
 15  8  1  0
 16  3  1  0
 16 10  1  0
 16 12  1  0
 17  2  1  0
 17  8  2  0
 19  3  1  0
 19 18  2  0
 20  5  1  0
 20  6  1  0
 21  3  1  0
 21  7  1  0
 21 20  2  0
 22  1  1  0
 22 11  2  0
M  RAD  1  19   2
M  END
>  <ID>  (1) 
conformer_0

$$$$
