
     RDKit          3D

 23 24  0  0  0  0  0  0  0  0999 V2000
  -25.8873   17.8901  -24.1156 C   0  0  0  0  0  0  0  0  0  0  0  0
  -24.5250   16.8059  -22.6193 C   0  0  0  0  0  0  0  0  0  0  0  0
  -21.1564   17.6239  -26.6208 C   0  0  0  0  0  0  0  0  0  0  0  0
  -24.4173   17.7726  -30.9909 C   0  0  0  0  0  0  0  0  0  0  0  0
  -23.5296   17.8198  -24.6083 C   0  0  0  0  0  0  0  0  0  0  0  0
  -19.8313   17.2661  -26.7559 C   0  0  2  0  0  0  0  0  0  0  0  0
  -19.3646   16.6142  -27.8495 N   0  0  0  0  0  0  0  0  0  0  0  0
  -18.1197   16.9894  -25.5615 C   0  0  0  0  0  0  0  0  0  0  0  0
  -23.3123   17.1363  -23.2791 C   0  0  0  0  0  0  0  0  0  0  0  0
  -22.2300   18.0919  -25.0561 O   0  0  0  0  0  0  0  0  0  0  0  0
  -22.2371   16.8992  -29.7815 C   0  0  0  0  0  0  0  0  0  0  0  0
  -18.6809   15.5383  -29.2021 C   0  0  0  0  0  0  0  0  0  0  0  0
  -21.8074   16.7556  -30.4229 C   0  0  0  0  0  0  0  0  0  0  0  0
  -23.9824   17.3797  -29.9870 O   0  0  0  0  0  0  0  0  0  0  0  0
  -23.7206   17.7558  -28.7213 C   0  0  0  0  0  0  0  0  0  0  0  0
  -25.7388   17.2751  -22.9462 C   0  0  0  0  0  0  0  0  0  0  0  0
  -23.9160   17.7712  -27.5690 O   0  0  0  0  0  0  0  0  0  0  0  0
  -20.3027   15.9774  -29.8344 O   0  0  0  0  0  0  0  0  0  0  0  0
  -18.6530   16.7240  -26.3406 C   0  0  0  0  0  0  0  0  0  0  0  0
  -20.4797   16.8580  -28.6986 C   0  0  0  0  0  0  0  0  0  0  0  0
  -22.3632   17.9155  -26.7589 C   0  0  2  0  0  0  0  0  0  0  0  0
  -21.3003   17.5399  -28.1644 C   0  0  0  0  0  0  0  0  0  0  0  0
  -24.7603   18.0715  -24.9458 C   0  0  0  0  0  0  0  0  0  0  0  0
  6  3  1  1
  7  6  1  0
  9  2  2  0
  9  5  1  0
 10  5  1  0
 13 11  1  0
 14  4  1  0
 15 14  1  0
 16  1  2  0
 16  2  1  0
 17 15  1  0
 18 13  1  0
 19  6  1  0
 19  8  2  3
 19 12  1  0
 20  7  2  0
 20 18  1  0
 21  3  1  0
 21 10  1  1
 21 17  1  0
 22  3  1  0
 22 20  1  0
 23  1  1  0
 23  5  2  0
M  END
>  <ID>  (1) 
conformer_0

$$$$
