
     RDKit          3D

 21 22  0  0  0  0  0  0  0  0999 V2000
  -25.8389   17.6348  -23.7311 C   0  0  0  0  0  0  0  0  0  0  0  0
  -21.3760   17.5078  -27.8282 C   0  0  0  0  0  0  0  0  0  0  0  0
  -24.9631   18.1329  -24.6968 C   0  0  0  0  0  0  0  0  0  0  0  0
  -20.6187   16.7478  -28.7103 C   0  0  0  0  0  0  0  0  0  0  0  0
  -23.5653   17.7481  -24.3832 C   0  0  0  0  0  0  0  0  0  0  0  0
  -25.2816   16.8914  -22.7369 C   0  0  0  0  0  0  0  0  0  0  0  0
  -21.6130   17.8837  -25.4998 C   0  0  0  0  0  0  0  0  0  0  0  0
  -23.8517   17.6759  -30.2873 C   0  0  0  0  0  0  0  0  0  0  0  0
  -22.4576   17.9699  -25.0007 O   0  0  0  0  0  0  0  0  0  0  0  0
  -23.7864   18.0077  -27.7586 O   0  0  0  0  0  0  0  0  0  0  0  0
  -18.6092   17.1187  -25.7497 C   0  0  0  0  0  0  0  0  0  0  0  0
  -20.3245   15.7539  -30.5135 O   0  0  0  0  0  0  0  0  0  0  0  0
  -22.3095   16.8741  -30.1152 C   0  0  0  0  0  0  0  0  0  0  0  0
  -19.6855   16.5076  -28.3191 N   0  0  0  0  0  0  0  0  0  0  0  0
  -21.5442   16.6003  -30.3678 C   0  0  0  0  0  0  0  0  0  0  0  0
  -18.5546   15.5821  -28.9956 C   0  0  0  0  0  0  0  0  0  0  0  0
  -24.1562   17.3016  -29.9079 O   0  0  0  0  0  0  0  0  0  0  0  0
  -23.7428   16.9015  -23.0259 C   0  0  0  0  0  0  0  0  0  0  0  0
  -19.3327   16.7789  -27.0331 C   0  0  0  0  0  0  0  0  0  0  0  0
  -20.5609   17.4282  -26.6637 C   0  0  0  0  0  0  0  0  0  0  0  0
  -22.9630   17.9163  -27.7713 C   0  0  0  0  0  0  0  0  0  0  0  0
  3  1  2  0
  4  2  1  0
  5  3  1  0
  6  1  1  0
  9  5  1  0
  9  7  1  0
 13  8  1  0
 14  4  1  0
 15  4  1  0
 15 12  1  0
 15 13  1  0
 16 14  1  0
 17  8  1  0
 18  5  2  0
 18  6  1  0
 19 11  1  0
 19 14  1  0
 20  2  1  0
 20  7  1  0
 20 19  1  0
 21  2  2  0
 21 10  2  0
M  END
>  <ID>  (1) 
conformer_0

$$$$
