
     RDKit          3D

 21 23  0  0  0  0  0  0  0  0999 V2000
  -24.8941   17.9969  -24.6214 C   0  0  0  0  0  0  0  0  0  0  0  0
  -25.8355   17.4736  -23.6309 C   0  0  0  0  0  0  0  0  0  0  0  0
  -21.3770   17.4234  -27.3752 C   0  0  0  0  0  0  0  0  0  0  0  0
  -24.0978   18.2800  -31.0582 C   0  0  0  0  0  0  0  0  0  0  0  0
  -19.5305   16.7725  -26.7708 C   0  0  0  0  0  0  0  0  0  0  0  0
  -18.4484   15.4626  -28.4605 C   0  0  0  0  0  0  0  0  0  0  0  0
  -23.4824   17.6643  -24.6195 C   0  0  0  0  0  0  0  0  0  0  0  0
  -19.4033   16.3325  -28.0843 N   0  0  0  0  0  0  0  0  0  0  0  0
  -22.1861   18.1959  -24.8832 O   0  0  0  0  0  0  0  0  0  0  0  0
  -20.2577   15.8916  -30.3644 O   0  0  0  0  0  0  0  0  0  0  0  0
  -18.7825   17.0946  -25.3944 C   0  0  0  0  0  0  0  0  0  0  0  0
  -24.9014   17.5624  -28.1579 O   0  0  0  0  0  0  0  0  0  0  0  0
  -23.4663   16.7427  -23.1699 C   0  0  0  0  0  0  0  0  0  0  0  0
  -22.8450   17.5765  -29.6201 C   0  0  0  0  0  0  0  0  0  0  0  0
  -21.5400   17.7547  -25.5679 C   0  0  0  0  0  0  0  0  0  0  0  0
  -21.9960   16.9909  -30.5388 C   0  0  0  0  0  0  0  0  0  0  0  0
  -24.4298   17.3063  -30.0849 O   0  0  0  0  0  0  0  0  0  0  0  0
  -25.0220   16.7089  -22.7124 C   0  0  0  0  0  0  0  0  0  0  0  0
  -20.8029   16.8766  -28.3397 C   0  0  0  0  0  0  0  0  0  0  0  0
  -20.2372   17.1933  -26.2324 C   0  0  0  0  0  0  0  0  0  0  0  0
  -20.6097   16.5869  -30.1087 C   0  0  0  0  0  0  0  0  0  0  0  0
  2  1  2  0
  7  1  1  0
  8  5  1  0
  8  6  1  0
  9  7  1  0
 11  5  1  0
 13  7  1  0
 14 12  1  0
 15  3  1  0
 15  9  1  0
 16 14  1  0
 17  4  1  0
 17 14  1  0
 18  2  1  0
 18 13  2  0
 19  3  2  0
 19  8  1  0
 20  3  1  0
 20  5  2  0
 20 15  1  0
 21 10  1  0
 21 16  1  0
 21 19  1  0
M  END
>  <ID>  (1) 
conformer_0

$$$$
