
     RDKit          3D

 21 22  0  0  0  0  0  0  0  0999 V2000
  -25.9244   17.7867  -24.0836 C   0  0  0  0  0  0  0  0  0  0  0  0
  -20.7044   17.2766  -26.5772 C   0  0  0  0  0  0  0  0  0  0  0  0
  -24.8528   18.1312  -24.7675 C   0  0  0  0  0  0  0  0  0  0  0  0
  -22.2255   17.8926  -24.8831 O   0  0  0  0  0  0  0  0  0  0  0  0
  -19.3477   16.5031  -27.8605 N   0  0  0  0  0  0  0  0  0  0  0  0
  -20.7871   16.7268  -28.6438 C   0  0  0  0  0  0  0  0  0  0  0  0
  -21.7216   16.6329  -30.2294 C   0  0  0  0  0  0  0  0  0  0  0  0
  -24.0458   16.7990  -23.1422 C   0  0  0  0  0  0  0  0  0  0  0  0
  -23.4741   17.6254  -24.4155 C   0  0  0  0  0  0  0  0  0  0  0  0
  -21.8694   18.1337  -25.7545 C   0  0  0  0  0  0  0  0  0  0  0  0
  -23.9971   17.5615  -30.6152 O   0  0  0  0  0  0  0  0  0  0  0  0
  -18.6671   17.2087  -25.6216 C   0  0  0  0  0  0  0  0  0  0  0  0
  -21.9651   16.5934  -30.6134 C   0  0  0  0  0  0  0  0  0  0  0  0
  -18.1764   16.0679  -27.8886 C   0  0  0  0  0  0  0  0  0  0  0  0
  -20.4085   16.0900  -29.6148 O   0  0  0  0  0  0  0  0  0  0  0  0
  -23.5060   17.6695  -28.2762 O   0  0  0  0  0  0  0  0  0  0  0  0
  -25.5961   16.9570  -22.9280 C   0  0  0  0  0  0  0  0  0  0  0  0
  -24.1703   17.5140  -30.8989 C   0  0  0  0  0  0  0  0  0  0  0  0
  -21.5609   17.4122  -27.8470 C   0  0  0  0  0  0  0  0  0  0  0  0
  -19.6969   16.8508  -26.8295 C   0  0  0  0  0  0  0  0  0  0  0  0
  -22.9767   17.6796  -28.6001 C   0  0  0  0  0  0  0  0  0  0  0  0
  3  1  2  0
  6  5  1  0
  9  3  1  0
  9  4  1  0
  9  8  2  0
 10  2  1  0
 10  4  1  0
 13  7  2  3
 13 11  1  0
 14  5  1  0
 15  6  1  0
 15  7  1  0
 17  1  1  0
 17  8  1  0
 18 11  1  0
 19  2  1  0
 19  6  2  0
 20  2  2  0
 20  5  1  0
 20 12  1  0
 21 16  2  0
 21 19  1  0
M  END
>  <ID>  (1) 
conformer_0

$$$$
