
     RDKit          3D

 20 21  0  0  0  0  0  0  0  0999 V2000
  -24.1811   16.8130  -22.8916 C   0  0  0  0  0  0  0  0  0  0  0  0
  -20.6793   17.4195  -26.7362 C   0  0  0  0  0  0  0  0  0  0  0  0
  -25.6429   17.1160  -22.9055 C   0  0  0  0  0  0  0  0  0  0  0  0
  -22.6560   15.9855  -30.5872 C   0  0  0  0  0  0  0  0  0  0  0  0
  -23.6737   17.5541  -24.3498 C   0  0  0  0  0  0  0  0  0  0  0  0
  -20.7137   16.7876  -28.7390 C   0  0  0  0  0  0  0  0  0  0  0  0
  -21.5267   17.7909  -25.8145 C   0  0  0  0  0  0  0  0  0  0  0  0
  -18.2511   16.8901  -25.7302 C   0  0  0  0  0  0  0  0  0  0  0  0
  -21.8111   17.7692  -24.8096 O   0  0  0  0  0  0  0  0  0  0  0  0
  -24.1704   17.4216  -29.9172 C   0  0  0  0  0  0  0  0  0  0  0  0
  -20.0621   15.8372  -30.2620 O   0  0  0  0  0  0  0  0  0  0  0  0
  -18.3948   15.5689  -28.7721 C   0  0  0  0  0  0  0  0  0  0  0  0
  -19.6006   16.5042  -28.2903 N   0  0  0  0  0  0  0  0  0  0  0  0
  -24.4473   17.6097  -29.4729 O   0  0  0  0  0  0  0  0  0  0  0  0
  -25.9140   17.8660  -24.1667 C   0  0  0  0  0  0  0  0  0  0  0  0
  -24.8798   18.0549  -24.9240 C   0  0  0  0  0  0  0  0  0  0  0  0
  -21.7120   16.6945  -30.1676 C   0  0  0  0  0  0  0  0  0  0  0  0
  -21.5689   17.5224  -27.9892 C   0  0  0  0  0  0  0  0  0  0  0  0
  -19.4762   16.8632  -27.0936 C   0  0  0  0  0  0  0  0  0  0  0  0
  -22.1126   17.4386  -30.5367 C   0  0  0  0  0  0  0  0  0  0  0  0
  3  1  2  0
  5  1  1  0
  7  2  1  0
  9  5  1  0
  9  7  1  0
 13  6  1  0
 13 12  1  0
 14 10  2  0
 15  3  1  0
 16  5  1  0
 16 15  2  0
 17  4  1  0
 17  6  1  0
 17 11  1  0
 18  2  1  0
 18  6  2  0
 19  2  2  0
 19  8  1  0
 19 13  1  0
 20 10  1  0
 20 17  1  0
M  END
>  <ID>  (1) 
conformer_0

$$$$
