
     RDKit          3D

 23 24  0  0  0  0  0  0  0  0999 V2000
  -25.2897   18.2881  -24.7295 C   0  0  0  0  0  0  0  0  0  0  0  0
  -20.8477   17.3744  -26.5210 C   0  0  0  0  0  0  0  0  0  0  0  0
  -26.0405   17.8235  -23.6688 C   0  0  0  0  0  0  0  0  0  0  0  0
  -24.6167   17.6950  -30.4932 C   0  0  0  0  0  0  0  0  0  0  0  0
  -23.7809   17.8364  -24.7849 C   0  0  0  0  0  0  0  0  0  0  0  0
  -19.2601   16.2590  -28.0902 N   0  0  0  0  0  0  0  0  0  0  0  0
  -18.1015   15.7121  -27.9543 C   0  0  0  0  0  0  0  0  0  0  0  0
  -19.6203   16.8810  -26.6677 C   0  0  0  0  0  0  0  0  0  0  0  0
  -23.9340   17.5922  -30.7852 O   0  0  0  0  0  0  0  0  0  0  0  0
  -21.9720   16.9754  -29.8149 C   0  0  0  0  0  0  0  0  0  0  0  0
  -25.2709   16.9582  -22.7799 C   0  0  0  0  0  0  0  0  0  0  0  0
  -20.2710   15.5483  -30.5397 O   0  0  0  0  0  0  0  0  0  0  0  0
  -22.2180   18.1433  -24.6165 O   0  0  0  0  0  0  0  0  0  0  0  0
  -24.6395   17.5670  -28.5692 O   0  0  0  0  0  0  0  0  0  0  0  0
  -22.8763   17.4030  -29.7362 C   0  0  0  0  0  0  0  0  0  0  0  0
  -21.6417   17.7524  -25.4155 C   0  0  0  0  0  0  0  0  0  0  0  0
  -19.1261   17.3578  -25.9166 C   0  0  0  0  0  0  0  0  0  0  0  0
  -23.7967   17.0349  -23.3640 C   0  0  0  0  0  0  0  0  0  0  0  0
  -21.2205   17.5036  -27.9118 C   0  0  0  0  0  3  0  0  0  0  0  0
  -23.6679   18.2713  -26.6721 O   0  0  0  0  0  0  0  0  0  0  0  0
  -20.4948   16.7036  -28.5562 C   0  0  2  0  0  0  0  0  0  0  0  0
  -19.2735   15.6944  -29.6087 C   0  0  0  0  0  0  0  0  0  0  0  0
  -23.1170   18.1360  -27.9705 C   0  0  0  0  0  0  0  0  0  0  0  0
  3  1  2  0
  5  1  1  0
  7  6  1  0
  8  2  2  0
  8  6  1  0
  9  4  1  0
 11  3  1  0
 13  5  1  0
 15  9  1  0
 15 10  2  3
 16  2  1  0
 16 13  1  0
 17  8  1  0
 18  5  1  0
 18 11  2  0
 19  2  1  0
 21  6  1  0
 21 10  1  0
 21 19  1  0
 22 12  1  0
 21 22  1  1
 23 14  1  0
 23 15  1  0
 23 20  1  0
M  RAD  1  19   2
M  END
>  <ID>  (1) 
conformer_0

$$$$
