
     RDKit          3D

 24 25  0  0  0  0  0  0  0  0999 V2000
  -25.8177   17.8090  -23.8591 C   0  0  0  0  0  0  0  0  0  0  0  0
  -24.6772   18.1523  -24.5557 C   0  0  0  0  0  0  0  0  0  0  0  0
  -24.8580   17.3764  -30.3132 C   0  0  0  0  0  0  0  0  0  0  0  0
  -21.2357   17.4737  -27.7189 C   0  0  0  0  0  0  0  0  0  0  0  0
  -23.4720   17.7472  -24.2327 C   0  0  0  0  0  0  0  0  0  0  0  0
  -19.5650   16.2720  -28.3011 N   0  0  0  0  0  0  0  0  0  0  0  0
  -21.7340   18.0018  -25.7183 C   0  0  1  0  0  0  0  0  0  0  0  0
  -21.2311   18.4559  -24.4774 O   0  0  0  0  0  0  0  0  0  0  0  0
  -22.0002   16.7743  -30.8289 C   0  0  0  0  0  0  0  0  0  0  0  0
  -19.3840   16.7553  -26.7934 C   0  0  1  0  0  0  0  0  0  0  0  0
  -18.6381   16.9557  -25.6152 C   0  0  0  0  0  0  0  0  0  0  0  0
  -18.5126   15.4895  -28.8738 C   0  0  0  0  0  0  0  0  0  0  0  0
  -19.7242   15.6497  -30.6511 O   0  0  0  0  0  0  0  0  0  0  0  0
  -25.7853   17.2127  -22.7502 C   0  0  0  0  0  0  0  0  0  0  0  0
  -24.5093   18.1626  -30.6369 O   0  0  0  0  0  0  0  0  0  0  0  0
  -23.3199   17.4719  -30.5766 C   0  0  0  0  0  0  0  0  0  0  0  0
  -23.3698   17.3945  -28.5293 O   0  0  0  0  0  0  0  0  0  0  0  0
  -23.3779   17.0167  -22.9681 C   0  0  0  0  0  0  0  0  0  0  0  0
  -20.9141   16.3321  -29.9604 C   0  0  0  0  0  0  0  0  0  0  0  0
  -20.7844   16.8094  -28.3978 C   0  0  2  0  0  0  0  0  0  0  0  0
  -20.2914   17.3671  -26.3517 C   0  0  1  0  0  0  0  0  0  0  0  0
  -22.7400   17.5893  -28.3104 C   0  0  0  0  0  0  0  0  0  0  0  0
  -22.8108   17.7779  -25.2334 O   0  0  0  0  0  0  0  0  0  0  0  0
  -24.6925   16.6678  -22.2258 C   0  0  0  0  0  0  0  0  0  0  0  0
  2  1  2  0
  5  2  1  0
  7  8  1  1
 10  6  1  0
 10 11  1  6
 12  6  1  0
 14  1  1  0
 15  3  1  0
 16  9  1  0
 16 15  1  0
 18  5  2  0
 19  9  2  3
 19 13  1  0
 20  4  1  0
 20  6  1  6
 20 19  1  0
 21  4  1  6
 21  7  1  0
 21 10  1  0
 22  4  2  0
 22 17  2  0
 23  5  1  0
 23  7  1  0
 24 14  2  0
 24 18  1  0
M  END
>  <ID>  (1) 
conformer_0

$$$$
