
     RDKit          3D

 20 22  0  0  0  0  0  0  0  0999 V2000
  -25.6449   17.1847  -23.1377 C   0  0  0  0  0  0  0  0  0  0  0  0
  -20.4948   17.1910  -26.3267 C   0  0  0  0  0  0  0  0  0  0  0  0
  -25.3866   17.8185  -24.2932 C   0  0  0  0  0  0  0  0  0  0  0  0
  -18.6369   16.9980  -25.7450 C   0  0  0  0  0  0  0  0  0  0  0  0
  -19.4085   16.7762  -26.7753 C   0  0  0  0  0  0  0  0  0  0  0  0
  -22.7798   17.9479  -28.4623 C   0  0  1  0  0  0  0  0  0  0  0  0
  -21.8254   17.9556  -25.6904 C   0  0  0  0  0  0  0  0  0  0  0  0
  -23.5561   17.6724  -24.2792 C   0  0  0  0  0  0  0  0  0  0  0  0
  -19.4395   16.3521  -28.2159 N   0  0  0  0  0  0  0  0  0  0  0  0
  -18.5740   15.3103  -28.6274 C   0  0  0  0  0  0  0  0  0  0  0  0
  -23.7684   17.5782  -28.1666 O   0  0  0  0  0  0  0  0  0  0  0  0
  -22.3901   17.9383  -24.8530 O   0  0  0  0  0  0  0  0  0  0  0  0
  -24.4431   17.5256  -30.5829 C   0  0  0  0  0  0  0  0  0  0  0  0
  -24.2515   16.8644  -22.8554 C   0  0  0  0  0  0  0  0  0  0  0  0
  -20.1982   15.7623  -29.9013 O   0  0  0  0  0  0  0  0  0  0  0  0
  -21.3065   17.4732  -27.5760 C   0  0  0  0  0  3  0  0  0  0  0  0
  -21.7820   17.0140  -30.2644 C   0  0  0  0  0  0  0  0  0  0  0  0
  -23.6628   17.7870  -30.1505 O   0  0  0  0  0  0  0  0  0  0  0  0
  -21.3998   16.8947  -30.1607 C   0  0  0  0  0  0  0  0  0  0  0  0
  -20.5492   16.8026  -28.4950 C   0  0  1  0  0  0  0  0  0  0  0  0
  3  1  2  0
  5  2  2  0
  5  4  1  0
  7  2  1  0
  8  3  1  0
  9  5  1  0
 10  9  1  0
  6 11  1  1
 12  7  1  0
 12  8  1  0
 14  1  1  0
 14  8  2  0
 16  2  1  0
 16  6  1  0
 18  6  1  0
 18 13  1  0
 19 15  1  0
 19 17  2  3
 20  9  1  0
 20 15  1  1
 20 16  1  0
 20 19  1  0
M  RAD  1  16   2
M  END
>  <ID>  (1) 
conformer_0

$$$$
