
     RDKit          3D

 21 22  0  0  0  0  0  0  0  0999 V2000
  -21.4650   17.4355  -27.4838 C   0  0  0  0  0  0  0  0  0  0  0  0
  -23.6153   17.0660  -23.3534 C   0  0  0  0  0  0  0  0  0  0  0  0
  -24.7073   16.5961  -22.4662 C   0  0  0  0  0  0  0  0  0  0  0  0
  -25.0873   18.1702  -24.6454 C   0  0  0  0  0  0  0  0  0  0  0  0
  -23.4634   17.8780  -28.9529 C   0  0  0  0  0  0  0  0  0  0  0  0
  -21.8559   16.9704  -30.7557 C   0  0  0  0  0  0  0  0  0  0  0  0
  -19.7751   16.4829  -28.5657 N   0  0  0  0  0  0  0  0  0  0  0  0
  -20.9422   16.9132  -28.7668 C   0  0  0  0  0  0  0  0  0  0  0  0
  -21.5542   18.0625  -24.9408 O   0  0  0  0  0  0  0  0  0  0  0  0
  -23.8857   17.7177  -24.5241 C   0  0  0  0  0  0  0  0  0  0  0  0
  -24.0116   17.3042  -29.7534 O   0  0  0  0  0  0  0  0  0  0  0  0
  -19.7899   15.5683  -30.3519 O   0  0  0  0  0  0  0  0  0  0  0  0
  -22.1848   17.8428  -26.2196 C   0  0  0  0  0  0  0  0  0  0  0  0
  -20.4334   16.7358  -26.6163 C   0  0  0  0  0  0  0  0  0  0  0  0
  -18.2886   15.7544  -28.6362 C   0  0  0  0  0  0  0  0  0  0  0  0
  -23.8369   18.0125  -27.3132 O   0  0  0  0  0  0  0  0  0  0  0  0
  -21.7290   16.9341  -30.3242 C   0  0  0  0  0  0  0  0  0  0  0  0
  -18.3898   16.7707  -25.8741 C   0  0  0  0  0  0  0  0  0  0  0  0
  -25.9378   17.0299  -22.7158 C   0  0  0  0  0  0  0  0  0  0  0  0
  -26.1153   17.7959  -23.7904 C   0  0  0  0  0  0  0  0  0  0  0  0
  -19.4523   16.2430  -27.4243 C   0  0  0  0  0  0  0  0  0  0  0  0
  3  2  2  0
  8  1  2  0
  8  7  1  0
 10  2  1  0
 10  4  2  0
 10  9  1  0
 11  5  2  0
 13  1  1  0
 13  9  1  0
 14  1  1  0
 15  7  1  0
 15 12  1  0
 16  5  1  0
 16 13  1  0
 17  6  3  0
 17  8  1  0
 19  3  1  0
 20  4  1  0
 20 19  2  0
 21  7  1  0
 21 14  2  0
 21 18  1  0
M  END
>  <ID>  (1) 
conformer_0

$$$$
