
     RDKit          3D

 22 25  0  0  0  0  0  0  0  0999 V2000
  -25.7538   17.7908  -23.8198 C   0  0  0  0  0  0  0  0  0  0  0  0
  -24.6405   18.0385  -24.6667 C   0  0  0  0  0  0  0  0  0  0  0  0
  -21.4763   17.6303  -27.7104 C   0  0  0  0  0  0  0  0  0  0  0  0
  -24.0831   17.1361  -30.7502 C   0  0  0  0  0  0  0  0  0  0  0  0
  -23.4178   17.5539  -24.1962 C   0  0  0  0  0  0  0  0  0  0  0  0
  -19.2837   16.6266  -27.8210 N   0  0  0  0  0  0  0  0  0  0  0  0
  -20.5308   16.8911  -28.5936 C   0  0  0  0  0  0  0  0  0  0  0  0
  -24.7033   16.5120  -22.2557 C   0  0  0  0  0  0  0  0  0  0  0  0
  -24.1218   17.6227  -30.0210 O   0  0  0  0  0  0  0  0  0  0  0  0
  -18.2831   16.0589  -28.2472 C   0  0  0  0  0  0  0  0  0  0  0  0
  -23.1181   17.9290  -29.0275 C   0  0  0  0  0  0  0  0  0  0  0  0
  -21.4489   16.6066  -30.3062 C   0  0  0  0  0  0  0  0  0  0  0  0
  -19.9050   16.2847  -29.9532 O   0  0  0  0  0  0  0  0  0  0  0  0
  -22.5324   17.8394  -24.7757 O   0  0  0  0  0  0  0  0  0  0  0  0
  -18.6619   16.8633  -25.6347 C   0  0  0  0  0  0  0  0  0  0  0  0
  -23.3413   16.6503  -22.9491 C   0  0  0  0  0  0  0  0  0  0  0  0
  -21.6059   16.8460  -30.7742 C   0  0  0  0  0  0  0  0  0  0  0  0
  -23.9173   18.1940  -28.1355 O   0  0  0  0  0  0  0  0  0  0  0  0
  -19.6806   17.0203  -26.6312 C   0  0  0  0  0  0  0  0  0  0  0  0
  -20.9367   17.2782  -26.4409 C   0  0  0  0  0  0  0  0  0  0  0  0
  -22.4450   18.1528  -26.4859 C   0  0  0  0  0  0  0  0  0  0  0  0
  -25.8479   16.9841  -22.7652 C   0  0  0  0  0  0  0  0  0  0  0  0
  2  1  2  0
  5  2  1  0
  7  3  1  0
  7  6  1  0
  9  4  1  0
 10  6  1  0
 11  3  1  0
 11  9  1  0
 12  7  1  0
 13  7  1  0
 13 12  1  0
 14  5  1  0
 16  5  2  0
 16  8  1  0
 17 12  1  0
 18 11  2  0
 19  6  1  0
 19 15  1  0
 20  3  1  0
 20 19  2  0
 21  3  1  0
 21 14  1  0
 21 20  1  0
 22  1  1  0
 22  8  2  0
M  END
>  <ID>  (1) 
conformer_0

$$$$
