
     RDKit          3D

 24 26  0  0  0  0  0  0  0  0999 V2000
  -25.9691   17.6448  -23.6998 C   0  0  0  0  0  0  0  0  0  0  0  0
  -24.9840   18.2709  -24.4830 C   0  0  0  0  0  0  0  0  0  0  0  0
  -20.5637   17.1960  -26.5188 C   0  0  0  0  0  0  0  0  0  0  0  0
  -23.7396   17.8111  -24.3223 C   0  0  0  0  0  0  0  0  0  0  0  0
  -20.5681   16.5448  -28.6993 C   0  0  0  0  0  3  0  0  0  0  0  0
  -25.2580   17.5903  -30.5172 C   0  0  0  0  0  0  0  0  0  0  0  0
  -19.2948   16.1767  -28.0841 N   0  0  0  0  0  0  0  0  0  0  0  0
  -21.3069   16.5570  -31.1173 C   0  0  0  0  0  0  0  0  0  0  0  0
  -22.9303   18.1066  -25.4673 O   0  0  0  0  0  0  0  0  0  0  0  0
  -25.7474   16.9965  -22.6438 C   0  0  0  0  0  0  0  0  0  0  0  0
  -18.4475   17.1178  -25.6532 C   0  0  0  0  0  0  0  0  0  0  0  0
  -18.2065   15.4621  -28.1141 C   0  0  0  0  0  0  0  0  0  0  0  0
  -23.9182   17.6726  -30.5076 O   0  0  0  0  0  0  0  0  0  0  0  0
  -23.3290   17.6415  -28.3339 C   0  0  0  0  0  0  0  0  0  0  0  0
  -20.1367   15.6791  -29.8636 O   0  0  0  0  0  0  0  0  0  0  0  0
  -23.9640   17.5879  -28.2586 O   0  0  0  0  0  0  0  0  0  0  0  0
  -22.0136   18.0109  -26.1902 C   0  0  0  0  0  0  0  0  0  0  0  0
  -20.0624   16.1206  -30.3431 C   0  0  0  0  0  0  0  0  0  0  0  0
  -19.6287   16.8578  -26.7577 C   0  0  0  0  0  0  0  0  0  0  0  0
  -23.2935   16.9921  -23.1263 C   0  0  0  0  0  0  0  0  0  0  0  0
  -21.3405   17.3938  -27.8923 C   0  0  0  0  0  0  0  0  0  0  0  0
  -22.9848   17.4386  -30.3565 C   0  0  0  0  0  0  0  0  0  0  0  0
  -21.8492   17.3334  -28.8345 C   0  0  0  0  0  0  0  0  0  0  0  0
  -24.5238   16.4155  -22.4248 C   0  0  0  0  0  0  0  0  0  0  0  0
  2  1  2  0
  4  2  1  0
  7  5  1  0
  9  4  1  0
 10  1  1  0
 12  7  1  0
 13  6  1  0
 15  5  1  0
 16 14  1  0
 17  3  1  0
 17  9  1  0
 18  8  1  0
 18 15  1  0
 19  3  2  0
 19  7  1  0
 19 11  1  0
 20  4  2  0
 21  3  1  0
 21  5  1  0
 21 17  1  0
 22 13  1  0
 23 14  1  0
 23 21  1  0
 23 22  1  0
 24 10  2  0
 24 20  1  0
M  RAD  1   5   2
M  END
>  <ID>  (1) 
conformer_0

$$$$
