
     RDKit          3D

 23 25  0  0  0  0  0  0  0  0999 V2000
  -25.7359   17.7280  -23.8755 C   0  0  0  0  0  0  0  0  0  0  0  0
  -24.6682   18.0278  -24.7208 C   0  0  0  0  0  0  0  0  0  0  0  0
  -21.5568   17.5486  -27.4555 C   0  0  0  0  0  0  0  0  0  0  0  0
  -23.4010   17.1032  -23.4108 C   0  0  0  0  0  3  0  0  0  0  0  0
  -24.6138   17.7521  -30.9522 C   0  0  0  0  0  0  0  0  0  0  0  0
  -18.3003   15.9881  -28.3737 C   0  0  0  0  0  0  0  0  0  0  0  0
  -19.5914   16.9864  -26.6672 C   0  0  0  0  0  0  0  0  0  0  0  0
  -20.2699   16.4823  -29.9439 C   0  0  1  0  0  0  0  0  0  0  0  0
  -20.2114   15.6775  -30.8109 O   0  0  0  0  0  0  0  0  0  0  0  0
  -19.5331   16.6221  -28.0328 N   0  0  0  0  0  0  0  0  0  0  0  0
  -22.1184   18.2432  -24.6182 O   0  0  0  0  0  0  0  0  0  0  0  0
  -24.4607   17.5773  -28.4923 O   0  0  0  0  0  0  0  0  0  0  0  0
  -25.5129   16.8810  -22.7645 C   0  0  0  0  0  0  0  0  0  0  0  0
  -17.8445   17.0227  -25.7158 C   0  0  0  0  0  0  0  0  0  0  0  0
  -24.2510   17.7605  -28.7522 C   0  0  0  0  0  0  0  0  0  0  0  0
  -21.9168   17.7952  -25.9307 C   0  0  1  0  0  0  0  0  0  0  0  0
  -22.1441   16.8891  -30.6533 C   0  0  0  0  0  0  0  0  0  0  0  0
  -21.0212   17.2820  -26.1682 C   0  0  0  0  0  0  0  0  0  0  0  0
  -23.9781   16.5734  -22.6612 C   0  0  0  0  0  0  0  0  0  0  0  0
  -23.2426   17.8506  -24.9154 C   0  0  2  0  0  0  0  0  0  0  0  0
  -22.5198   17.1925  -30.5094 C   0  0  0  0  0  0  0  0  0  0  0  0
  -20.9013   17.0345  -28.2697 C   0  0  0  0  0  0  0  0  0  0  0  0
  -25.2028   17.6399  -30.1037 O   0  0  0  0  0  0  0  0  0  0  0  0
  2  1  2  0
  8  9  1  1
 10  6  1  0
 10  7  1  0
 13  1  1  0
 14  7  1  0
 15 12  1  0
 16 11  1  1
 17  8  1  0
 18  3  1  0
 18  7  2  0
 18 16  1  0
 19  4  1  0
 19 13  2  0
 20  2  1  0
 20  4  1  1
 20 11  1  0
 20 16  1  0
 21  5  1  0
 21 17  2  3
 22  3  2  0
 22  8  1  0
 22 10  1  0
 23  5  1  0
 23 15  1  0
M  RAD  1   4   2
M  END
>  <ID>  (1) 
conformer_0

$$$$
