
     RDKit          3D

 22 24  0  0  0  0  0  0  0  0999 V2000
  -25.5902   17.9702  -24.0345 C   0  0  0  0  0  0  0  0  0  0  0  0
  -20.7941   17.4525  -26.4136 C   0  0  0  0  0  0  0  0  0  0  0  0
  -24.4501   17.9805  -25.0333 C   0  0  0  0  0  0  0  0  0  0  0  0
  -23.4847   17.6920  -29.6165 C   0  0  0  0  0  0  0  0  0  0  0  0
  -23.5049   17.5822  -24.2869 C   0  0  0  0  0  0  0  0  0  0  0  0
  -20.6193   16.6749  -28.3972 C   0  0  0  0  0  0  0  0  0  0  0  0
  -19.3090   16.4426  -27.8226 N   0  0  0  0  0  0  0  0  0  0  0  0
  -18.0978   17.0694  -25.8498 C   0  0  0  0  0  0  0  0  0  0  0  0
  -24.1888   17.6291  -29.7611 O   0  0  0  0  0  0  0  0  0  0  0  0
  -25.8166   17.0523  -23.1889 C   0  0  0  0  0  0  0  0  0  0  0  0
  -22.2795   18.2317  -24.7179 O   0  0  0  0  0  0  0  0  0  0  0  0
  -22.1593   18.0131  -25.8963 C   0  0  0  0  0  0  0  0  0  0  0  0
  -20.1483   16.2379  -30.0708 O   0  0  0  0  0  0  0  0  0  0  0  0
  -18.3310   15.7290  -28.1378 C   0  0  0  0  0  0  0  0  0  0  0  0
  -22.1057   16.8611  -29.7719 C   0  0  0  0  0  0  0  0  0  0  0  0
  -24.5461   17.6940  -31.2342 C   0  0  0  0  0  0  0  0  0  0  0  0
  -21.4825   17.4149  -27.5384 C   0  0  0  0  0  3  0  0  0  0  0  0
  -24.7615   16.6502  -22.4314 C   0  0  0  0  0  0  0  0  0  0  0  0
  -19.4506   16.9488  -26.7210 C   0  0  0  0  0  0  0  0  0  0  0  0
  -21.6512   16.8535  -29.7793 C   0  0  0  0  0  0  0  0  0  0  0  0
  -23.5814   17.9323  -28.1220 O   0  0  0  0  0  0  0  0  0  0  0  0
  -23.3558   16.6980  -22.9586 C   0  0  0  0  0  0  0  0  0  0  0  0
  3  1  2  0
  5  3  1  0
  7  6  1  0
  9  4  1  0
 10  1  1  0
 11  5  1  0
 12  2  1  0
 12 11  1  0
 13  6  1  0
 14  7  1  0
 15  4  1  0
 16  9  1  0
 17  2  1  0
 17  6  1  0
 18 10  2  0
 19  2  2  0
 19  7  1  0
 19  8  1  0
 20  6  1  0
 20 13  1  0
 20 15  1  0
 21  4  1  0
 22  5  2  0
 22 18  1  0
M  RAD  1  17   2
M  END
>  <ID>  (1) 
conformer_0

$$$$
