
     RDKit          3D

 21 23  0  0  0  0  0  0  0  0999 V2000
  -23.6739   16.7766  -22.7971 C   0  0  0  0  0  0  0  0  0  0  0  0
  -21.4832   17.6480  -28.0283 C   0  0  0  0  0  0  0  0  0  0  0  0
  -25.0990   16.8028  -22.3089 C   0  0  0  0  0  0  0  0  0  0  0  0
  -23.7440   17.6434  -24.2098 C   0  0  0  0  0  0  0  0  0  0  0  0
  -20.8208   17.0004  -28.9420 C   0  0  0  0  0  0  0  0  0  0  0  0
  -24.1314   17.6025  -30.6110 C   0  0  0  0  0  0  0  0  0  0  0  0
  -18.4618   16.8470  -25.8265 C   0  0  0  0  0  0  0  0  0  0  0  0
  -19.5575   16.3906  -28.4869 N   0  0  0  0  0  0  0  0  0  0  0  0
  -22.1730   17.9635  -24.8398 O   0  0  0  0  0  0  0  0  0  0  0  0
  -22.1925   18.1567  -26.0638 C   0  0  0  0  0  0  0  0  0  0  0  0
  -18.4108   15.5511  -28.5864 C   0  0  0  0  0  0  0  0  0  0  0  0
  -20.4226   15.6041  -30.9029 O   0  0  0  0  0  0  0  0  0  0  0  0
  -22.3734   17.1775  -30.8375 C   0  0  0  0  0  0  0  0  0  0  0  0
  -24.1860   17.8744  -29.3503 O   0  0  0  0  0  0  0  0  0  0  0  0
  -24.6954   18.0237  -24.7412 C   0  0  0  0  0  0  0  0  0  0  0  0
  -20.8565   16.4551  -30.3261 C   0  0  0  0  0  0  0  0  0  0  0  0
  -22.9016   17.9663  -28.8993 C   0  0  0  0  0  0  0  0  0  0  0  0
  -19.6764   16.8285  -27.2229 C   0  0  0  0  0  0  0  0  0  0  0  0
  -20.6600   17.3780  -26.7269 C   0  0  0  0  0  0  0  0  0  0  0  0
  -26.0134   16.9402  -23.1666 C   0  0  0  0  0  0  0  0  0  0  0  0
  -26.0645   17.7154  -24.1918 C   0  0  0  0  0  0  0  0  0  0  0  0
  3  1  2  0
  4  1  1  0
  5  2  2  0
  8  5  1  0
  9  4  1  0
 10  9  1  0
 11  8  1  0
 13  6  1  0
 14  6  1  0
 15  4  2  0
 16  5  1  0
 16 12  2  0
 16 13  1  0
 17  2  1  0
 17 14  1  0
 18  7  1  0
 18  8  1  0
 19  2  1  0
 19 10  1  0
 19 18  2  0
 20  3  1  0
 21 15  1  0
 21 20  2  0
M  END
>  <ID>  (1) 
conformer_0

$$$$
