
     RDKit          3D

 23 25  0  0  0  0  0  0  0  0999 V2000
  -25.8749   17.9236  -24.0024 C   0  0  0  0  0  0  0  0  0  0  0  0
  -20.6014   17.0852  -26.2545 C   0  0  0  0  0  0  0  0  0  0  0  0
  -24.7012   18.0657  -24.6860 C   0  0  0  0  0  0  0  0  0  0  0  0
  -22.5441   18.2529  -27.6252 C   0  0  0  0  0  0  0  0  0  0  0  0
  -23.5618   17.5194  -24.0389 C   0  0  0  0  0  0  0  0  0  0  0  0
  -18.4666   15.4237  -29.0771 C   0  0  0  0  0  0  0  0  0  0  0  0
  -19.3887   16.8203  -26.4732 C   0  0  0  0  0  0  0  0  0  0  0  0
  -22.3546   17.7453  -24.5449 O   0  0  0  0  0  0  0  0  0  0  0  0
  -25.9966   17.1986  -22.8767 C   0  0  0  0  0  0  0  0  0  0  0  0
  -22.0172   16.8783  -30.2322 C   0  0  0  0  0  0  0  0  0  0  0  0
  -19.4245   16.4412  -28.0754 N   0  0  0  0  0  0  0  0  0  0  0  0
  -18.5770   16.9420  -25.4565 C   0  0  0  0  0  0  0  0  0  0  0  0
  -24.0250   18.0298  -30.4455 O   0  0  0  0  0  0  0  0  0  0  0  0
  -24.5663   17.3585  -31.0858 C   0  0  0  0  0  0  0  0  0  0  0  0
  -21.5225   17.4657  -24.9791 C   0  0  0  0  0  0  0  0  0  0  0  0
  -25.0346   16.5868  -22.3712 C   0  0  0  0  0  0  0  0  0  0  0  0
  -19.8579   15.6435  -29.6388 O   0  0  0  0  0  0  0  0  0  0  0  0
  -21.3257   17.5682  -27.4703 C   0  0  0  0  0  0  0  0  0  0  0  0
  -20.3425   16.7548  -28.3415 C   0  0  0  0  0  0  0  0  0  0  0  0
  -23.2053   17.9103  -29.8498 C   0  0  1  0  0  0  0  0  0  0  0  0
  -23.7107   17.7701  -28.4564 O   0  0  0  0  0  0  0  0  0  0  0  0
  -21.1837   16.9344  -30.1541 C   0  0  0  0  0  0  0  0  0  0  0  0
  -23.6197   16.6373  -22.8681 C   0  0  0  0  0  0  0  0  0  0  0  0
  3  1  2  0
  5  3  1  0
  7  2  2  0
  8  5  1  0
  9  1  1  0
 11  6  1  0
 11  7  1  0
 12  7  1  0
 14 13  1  0
 15  2  1  0
 15  8  1  0
 16  9  2  0
 17  6  1  0
 18  2  1  0
 18  4  1  0
 19 11  1  0
 19 17  1  0
 19 18  2  0
 20 10  1  0
 20 13  1  6
 21  4  1  0
 21 20  1  0
 22 10  2  3
 23  5  2  0
 23 16  1  0
M  END
>  <ID>  (1) 
conformer_0

$$$$
