
     RDKit          3D

 23 25  0  0  0  0  0  0  0  0999 V2000
  -25.7145   17.1000  -22.8089 C   0  0  0  0  0  0  0  0  0  0  0  0
  -25.9156   17.7894  -23.8939 C   0  0  0  0  0  0  0  0  0  0  0  0
  -20.6959   17.1110  -26.4474 C   0  0  0  0  0  0  0  0  0  0  0  0
  -23.9107   17.7184  -30.7913 C   0  0  0  0  0  0  0  0  0  0  0  0
  -22.0779   16.8728  -30.5259 C   0  0  0  0  0  0  0  0  0  0  0  0
  -21.7987   17.9272  -24.5980 O   0  0  0  0  0  0  0  0  0  0  0  0
  -19.3482   16.5864  -28.0055 N   0  0  0  0  0  0  0  0  0  0  0  0
  -23.5742   17.7526  -24.3865 C   0  0  0  0  0  0  0  0  0  0  0  0
  -24.4806   16.6627  -22.4797 C   0  0  0  0  0  0  0  0  0  0  0  0
  -21.7543   17.8471  -25.8523 C   0  0  0  0  0  0  0  0  0  0  0  0
  -20.6025   16.7652  -28.4343 C   0  0  0  0  0  0  0  0  0  0  0  0
  -20.0088   16.0661  -30.1540 O   0  0  0  0  0  0  0  0  0  0  0  0
  -18.3041   17.0084  -25.6030 C   0  0  0  0  0  0  0  0  0  0  0  0
  -18.1662   15.8887  -28.4130 C   0  0  0  0  0  0  0  0  0  0  0  0
  -24.2278   17.2923  -29.9990 O   0  0  0  0  0  0  0  0  0  0  0  0
  -23.2893   17.9786  -28.3572 O   0  0  0  0  0  0  0  0  0  0  0  0
  -23.3670   16.9856  -23.2582 C   0  0  0  0  0  0  0  0  0  0  0  0
  -21.4305   17.3772  -27.9543 C   0  0  0  0  0  0  0  0  0  0  0  0
  -23.5930   17.6696  -28.7411 C   0  0  0  0  0  0  0  0  0  0  0  0
  -19.4936   16.8089  -26.6878 C   0  0  0  0  0  0  0  0  0  0  0  0
  -21.5555   16.9887  -29.8315 C   0  0  0  0  0  0  0  0  0  0  0  0
  -24.8457   17.9982  -24.7176 C   0  0  0  0  0  3  0  0  0  0  0  0
  -22.9734   18.3592  -26.0498 O   0  0  0  0  0  0  0  0  0  0  0  0
  2  1  2  0
  5  4  1  0
  8  6  1  0
  9  1  1  0
 10  3  1  0
 10  6  1  0
 11  7  1  0
 14  7  1  0
 15  4  1  0
 17  8  1  0
 17  9  2  0
 18  3  1  0
 18 11  2  0
 19 15  1  0
 19 16  1  0
 20  3  2  0
 20  7  1  0
 20 13  1  0
 21  5  1  0
 21 11  1  0
 21 12  1  0
 22  2  1  0
 22  8  1  0
 23  8  1  0
 23 10  1  0
M  RAD  1  22   2
M  END
>  <ID>  (1) 
conformer_0

$$$$
