
     RDKit          3D

 22 25  0  0  0  0  0  0  0  0999 V2000
  -25.1856   16.8193  -22.6261 C   0  0  0  0  0  0  0  0  0  0  0  0
  -21.2746   17.3862  -27.9936 C   0  0  0  0  0  3  0  0  0  0  0  0
  -25.7355   17.5527  -23.6403 C   0  0  0  0  0  0  0  0  0  0  0  0
  -24.2635   17.5620  -30.6444 C   0  0  0  0  0  0  0  0  0  0  0  0
  -23.4119   17.6826  -24.2774 C   0  0  0  0  0  0  0  0  0  0  0  0
  -20.8232   16.6319  -28.7006 C   0  0  0  0  0  0  0  0  0  0  0  0
  -22.2638   18.0419  -24.9253 O   0  0  0  0  0  0  0  0  0  0  0  0
  -21.7567   18.0690  -25.9111 C   0  0  0  0  0  0  0  0  0  0  0  0
  -24.8854   18.0469  -24.5910 C   0  0  0  0  0  0  0  0  0  0  0  0
  -18.1535   15.3412  -28.2900 C   0  0  0  0  0  0  0  0  0  0  0  0
  -23.4262   17.7740  -27.9416 O   0  0  0  0  0  0  0  0  0  0  0  0
  -19.2935   16.1226  -27.9115 N   0  0  0  0  0  0  0  0  0  0  0  0
  -22.5852   16.3345  -30.5667 C   0  0  0  0  0  0  0  0  0  0  0  0
  -20.2086   15.8762  -30.0028 O   0  0  0  0  0  0  0  0  0  0  0  0
  -19.3253   17.1276  -25.7696 C   0  0  0  0  0  0  0  0  0  0  0  0
  -21.6746   16.9105  -30.2207 C   0  0  0  0  0  0  0  0  0  0  0  0
  -24.7587   17.5077  -31.3870 O   0  0  0  0  0  0  0  0  0  0  0  0
  -23.6166   16.7935  -22.8152 C   0  0  0  0  0  0  0  0  0  0  0  0
  -20.5167   17.1966  -26.6903 C   0  0  0  0  0  0  0  0  0  0  0  0
  -19.5570   16.5939  -27.2223 C   0  0  0  0  0  3  0  0  0  0  0  0
  -23.4247   17.5694  -28.9039 C   0  0  0  0  0  0  0  0  0  0  0  0
  -25.0350   17.4457  -28.8280 O   0  0  0  0  0  0  0  0  0  0  0  0
  3  1  2  0
  6  2  1  0
  7  5  1  0
  8  7  1  0
  9  3  1  0
  9  5  2  0
 12  6  1  0
 12 10  1  0
 13  4  1  0
 14  6  1  0
 16  6  1  0
 16 13  1  0
 16 14  1  0
 17  4  1  0
 18  1  1  0
 18  5  1  0
 19  2  1  0
 19  8  1  0
 19 15  1  0
 20 12  1  0
 20 15  1  0
 20 19  1  0
 21  4  1  0
 21 11  1  0
 22 21  1  0
M  RAD  2   2   2  20   2
M  END
>  <ID>  (1) 
conformer_0

$$$$
