
     RDKit          3D

 21 23  0  0  0  0  0  0  0  0999 V2000
  -25.8835   17.6537  -23.8751 C   0  0  0  0  0  0  0  0  0  0  0  0
  -21.4574   17.4889  -27.7289 C   0  0  0  0  0  0  0  0  0  0  0  0
  -25.0525   18.1267  -24.8320 C   0  0  0  0  0  0  0  0  0  0  0  0
  -20.7064   16.8054  -28.7424 C   0  0  0  0  0  0  0  0  0  0  0  0
  -23.6040   17.7265  -24.6233 C   0  0  0  0  0  0  0  0  0  0  0  0
  -22.3162   18.0380  -24.7837 O   0  0  0  0  0  0  0  0  0  0  0  0
  -23.4970   17.9316  -30.9685 C   0  0  0  0  0  0  0  0  0  0  0  0
  -22.2714   18.2225  -26.1188 C   0  0  0  0  0  0  0  0  0  0  0  0
  -22.1808   17.0123  -30.8460 C   0  0  0  0  0  0  0  0  0  0  0  0
  -19.3984   16.2821  -27.9955 N   0  0  0  0  0  0  0  0  0  0  0  0
  -18.2937   15.4150  -28.2059 C   0  0  0  0  0  0  0  0  0  0  0  0
  -24.0897   17.8787  -27.9524 O   0  0  0  0  0  0  0  0  0  0  0  0
  -18.6904   16.9894  -25.6629 C   0  0  0  0  0  0  0  0  0  0  0  0
  -25.3478   16.8735  -22.8612 C   0  0  0  0  0  0  0  0  0  0  0  0
  -20.0465   16.0338  -29.9701 O   0  0  0  0  0  0  0  0  0  0  0  0
  -24.1359   17.7270  -30.1100 O   0  0  0  0  0  0  0  0  0  0  0  0
  -20.4728   17.4266  -26.6790 C   0  0  0  0  0  0  0  0  0  0  0  0
  -23.7532   16.8006  -23.1109 C   0  0  0  0  0  0  0  0  0  0  0  0
  -21.3942   16.8049  -30.1854 C   0  0  0  0  0  0  0  0  0  0  0  0
  -19.5522   16.6860  -27.0754 C   0  0  0  0  0  0  0  0  0  0  0  0
  -22.8806   17.7602  -28.3036 C   0  0  0  0  0  0  0  0  0  0  0  0
  3  1  2  0
  4  2  1  0
  5  3  1  0
  6  5  1  0
  8  2  1  0
  8  6  1  0
  9  7  1  0
 10  4  1  0
 11 10  1  0
 14  1  1  0
 15  4  1  0
 16  7  1  0
 17  2  1  0
 18  5  2  0
 18 14  1  0
 19  4  1  0
 19  9  1  0
 19 15  1  0
 20 10  1  0
 20 13  1  0
 20 17  2  0
 21  2  1  0
 21 12  2  0
M  END
>  <ID>  (1) 
conformer_0

$$$$
