
     RDKit          3D

 20 22  0  0  0  0  0  0  0  0999 V2000
  -25.8481   17.6383  -23.9779 C   0  0  0  0  0  0  0  0  0  0  0  0
  -24.7816   18.0274  -24.8412 C   0  0  0  0  0  0  0  0  0  0  0  0
  -21.4509   17.3673  -27.4047 C   0  0  0  0  0  3  0  0  0  0  0  0
  -23.7334   17.7363  -30.0344 C   0  0  0  0  0  0  0  0  0  0  0  0
  -23.4883   17.5120  -24.1821 C   0  0  0  0  0  0  0  0  0  0  0  0
  -19.4082   16.6914  -26.9172 C   0  0  0  0  0  0  0  0  0  0  0  0
  -18.2289   16.7818  -26.0578 C   0  0  0  0  0  0  0  0  0  0  0  0
  -18.4317   15.5140  -28.9449 C   0  0  0  0  0  0  0  0  0  0  0  0
  -22.1701   17.5846  -24.5297 O   0  0  0  0  0  0  0  0  0  0  0  0
  -22.3066   18.0921  -26.0962 C   0  0  0  0  0  0  0  0  0  0  0  0
  -25.5338   16.9407  -22.8146 C   0  0  0  0  0  0  0  0  0  0  0  0
  -22.1298   16.7644  -30.5845 C   0  0  0  0  0  0  0  0  0  0  0  0
  -24.8092   17.4417  -29.5283 O   0  0  0  0  0  0  0  0  0  0  0  0
  -22.9519   18.6756  -27.2494 O   0  0  0  0  0  0  0  0  0  0  0  0
  -19.4694   16.2877  -28.2679 N   0  0  0  0  0  0  0  0  0  0  0  0
  -21.2531   16.6680  -30.3206 C   0  0  0  0  0  0  0  0  0  0  0  0
  -19.9504   15.8578  -29.9582 O   0  0  0  0  0  0  0  0  0  0  0  0
  -24.0230   16.7566  -22.7613 C   0  0  0  0  0  0  0  0  0  0  0  0
  -20.7020   16.7388  -28.5225 C   0  0  0  0  0  0  0  0  0  0  0  0
  -20.3812   17.3320  -26.5689 C   0  0  0  0  0  0  0  0  0  0  0  0
  2  1  2  0
  5  2  1  0
  7  6  1  0
  9  5  1  0
 10  3  1  0
 10  9  1  0
 11  1  1  0
 12  4  1  0
 13  4  2  0
 14 10  2  0
 15  6  1  0
 15  8  1  0
 16 12  1  0
 17 16  1  0
 18  5  2  0
 18 11  1  0
 19  3  1  0
 19 15  1  0
 19 16  1  0
 19 17  1  0
 20  3  1  0
 20  6  2  0
M  RAD  1   3   2
M  END
>  <ID>  (1) 
conformer_0

$$$$
