
     RDKit          3D

 23 26  0  0  0  0  0  0  0  0999 V2000
  -25.7977   17.8390  -24.1594 C   0  0  0  0  0  0  0  0  0  0  0  0
  -21.3551   17.4592  -27.8736 C   0  0  0  0  0  0  0  0  0  0  0  0
  -24.6748   18.1491  -24.7453 C   0  0  0  0  0  0  0  0  0  0  0  0
  -18.2668   15.4875  -28.6010 C   0  0  0  0  0  0  0  0  0  0  0  0
  -22.2325   18.1758  -24.9561 O   0  0  0  0  0  0  0  0  0  0  0  0
  -23.4986   17.7645  -24.2861 C   0  0  0  0  0  0  0  0  0  0  0  0
  -19.3689   16.4117  -28.1421 N   0  0  0  0  0  0  0  0  0  0  0  0
  -23.4943   17.2275  -30.3431 C   0  0  0  0  0  0  0  0  0  0  0  0
  -22.1058   16.9906  -30.4225 C   0  0  0  0  0  0  0  0  0  0  0  0
  -25.9149   17.1181  -23.0124 C   0  0  0  0  0  0  0  0  0  0  0  0
  -20.4541   16.7214  -28.6842 C   0  0  0  0  0  0  0  0  0  0  0  0
  -21.6208   17.9545  -25.5129 C   0  0  0  0  0  0  0  0  0  0  0  0
  -19.4466   17.2661  -25.2617 C   0  0  0  0  0  0  0  0  0  0  0  0
  -20.1171   15.8527  -30.7107 O   0  0  0  0  0  0  0  0  0  0  0  0
  -24.4496   17.4705  -30.7125 O   0  0  0  0  0  0  0  0  0  0  0  0
  -25.4886   17.8306  -31.0499 C   0  0  0  0  0  0  0  0  0  0  0  0
  -20.6086   17.4624  -26.5799 C   0  0  0  0  0  0  0  0  0  0  0  0
  -24.8039   16.6412  -22.4434 C   0  0  0  0  0  0  0  0  0  0  0  0
  -19.3992   16.8853  -26.7254 C   0  0  0  0  0  3  0  0  0  0  0  0
  -21.0315   16.1521  -30.0673 C   0  0  0  0  0  0  0  0  0  0  0  0
  -23.7068   17.3174  -28.8702 O   0  0  0  0  0  0  0  0  0  0  0  0
  -23.4256   16.9537  -23.0135 C   0  0  0  0  0  0  0  0  0  0  0  0
  -22.6257   17.7250  -28.3072 C   0  0  0  0  0  0  0  0  0  0  0  0
  3  1  2  0
  6  3  1  0
  6  5  1  0
  7  4  1  0
  9  8  1  0
 10  1  1  0
 11  2  2  0
 11  7  1  0
 12  5  1  0
 15  8  1  0
 16 15  1  0
 17  2  1  0
 17 12  1  0
 17 13  1  0
 18 10  2  0
 19  7  1  0
 19 13  1  0
 19 17  1  0
 20  9  1  0
 20 11  1  0
 20 14  1  0
 21  8  1  0
 22  6  2  0
 22 18  1  0
 23  2  1  0
 23 21  1  0
M  RAD  1  19   2
M  END
>  <ID>  (1) 
conformer_0

$$$$
