
     RDKit          3D

 21 22  0  0  0  0  0  0  0  0999 V2000
  -25.8433   17.5527  -23.5471 C   0  0  0  0  0  0  0  0  0  0  0  0
  -25.0857   18.0785  -24.5826 C   0  0  0  0  0  0  0  0  0  0  0  0
  -21.0926   17.4038  -27.8092 C   0  0  0  0  0  3  0  0  0  0  0  0
  -23.5859   17.5466  -24.1701 C   0  0  0  0  0  0  0  0  0  0  0  0
  -23.6003   17.7460  -30.0170 C   0  0  0  0  0  0  0  0  0  0  0  0
  -20.3692   16.6809  -28.5852 C   0  0  0  0  0  0  0  0  0  0  0  0
  -19.1507   16.1392  -27.8758 N   0  0  0  0  0  0  0  0  0  0  0  0
  -18.3023   15.2205  -28.4478 C   0  0  0  0  0  0  0  0  0  0  0  0
  -25.3412   16.8052  -22.5715 C   0  0  0  0  0  0  0  0  0  0  0  0
  -22.5995   17.6988  -24.7497 O   0  0  0  0  0  0  0  0  0  0  0  0
  -20.0377   15.8154  -30.1865 O   0  0  0  0  0  0  0  0  0  0  0  0
  -18.8662   17.0555  -25.2802 C   0  0  0  0  0  0  0  0  0  0  0  0
  -21.8846   16.8588  -30.1839 C   0  0  0  0  0  0  0  0  0  0  0  0
  -21.5387   17.8912  -25.7260 C   0  0  0  0  0  0  0  0  0  0  0  0
  -24.1944   17.8601  -29.6113 O   0  0  0  0  0  0  0  0  0  0  0  0
  -25.0865   17.3664  -31.1110 C   0  0  0  0  0  0  0  0  0  0  0  0
  -21.5718   17.0867  -29.8494 C   0  0  0  0  0  0  0  0  0  0  0  0
  -23.7833   16.6025  -22.7492 C   0  0  0  0  0  0  0  0  0  0  0  0
  -19.4163   16.6054  -26.6726 C   0  0  0  0  0  0  0  0  0  0  0  0
  -20.3467   17.2378  -26.4760 C   0  0  0  0  0  0  0  0  0  0  0  0
  -21.3221   18.7326  -25.2687 O   0  0  0  0  0  0  0  0  0  0  0  0
  2  1  2  0
  4  2  1  0
  6  3  1  0
  7  6  1  0
  8  7  1  0
  9  1  1  0
 10  4  1  0
 11  6  1  0
 13  5  1  0
 14 10  1  0
 15  5  1  0
 16  5  1  0
 17  6  1  0
 17 13  1  0
 18  4  2  0
 18  9  1  0
 19  7  1  0
 19 12  1  0
 20  3  1  0
 20 14  1  0
 20 19  2  0
 21 14  2  0
M  RAD  1   3   2
M  END
>  <ID>  (1) 
conformer_0

$$$$
