
     RDKit          3D

 21 23  0  0  0  0  0  0  0  0999 V2000
  -25.7222   18.0047  -24.4786 C   0  0  0  0  0  0  0  0  0  0  0  0
  -25.8913   17.3484  -23.2962 C   0  0  0  0  0  0  0  0  0  0  0  0
  -20.7504   17.0336  -28.5147 C   0  0  0  0  0  0  0  0  0  0  0  0
  -20.6092   17.5632  -27.1432 C   0  0  0  0  0  0  0  0  0  0  0  0
  -23.0464   17.6989  -29.2370 C   0  0  0  0  0  0  0  0  0  0  0  0
  -23.4322   17.7477  -24.4429 C   0  0  0  0  0  0  0  0  0  0  0  0
  -19.4889   16.4378  -28.3781 N   0  0  0  0  0  0  0  0  0  0  0  0
  -22.1481   18.2735  -24.9271 O   0  0  0  0  0  0  0  0  0  0  0  0
  -18.4627   15.6121  -28.8297 C   0  0  0  0  0  0  0  0  0  0  0  0
  -21.5821   18.0379  -25.8578 C   0  0  0  0  0  0  0  0  0  0  0  0
  -24.5335   18.1908  -25.0382 C   0  0  0  0  0  0  0  0  0  0  0  0
  -20.9036   16.7331  -30.4718 C   0  0  0  0  0  0  0  0  0  0  0  0
  -19.0494   17.7578  -25.5088 C   0  0  0  0  0  0  0  0  0  0  0  0
  -24.6423   17.7990  -29.6638 O   0  0  0  0  0  0  0  0  0  0  0  0
  -20.5313   15.8701  -30.7179 O   0  0  0  0  0  0  0  0  0  0  0  0
  -22.6785   17.0093  -30.4814 C   0  0  0  0  0  0  0  0  0  0  0  0
  -24.8892   16.7798  -22.6974 C   0  0  0  0  0  0  0  0  0  0  0  0
  -19.4989   16.9652  -27.0224 C   0  0  0  0  0  0  0  0  0  0  0  0
  -23.7521   17.6308  -27.9448 O   0  0  0  0  0  0  0  0  0  0  0  0
  -24.4976   17.3652  -30.5801 C   0  0  0  0  0  0  0  0  0  0  0  0
  -23.4472   16.9288  -23.1357 C   0  0  0  0  0  0  0  0  0  0  0  0
  2  1  2  0
  4  3  1  0
  7  3  1  0
  8  6  1  0
  9  7  1  0
 10  4  1  0
 10  8  1  0
 11  1  1  0
 11  6  2  0
 12  3  1  0
 14  5  1  0
 15 12  1  0
 16  5  1  0
 16 12  1  0
 17  2  1  0
 18  4  1  0
 18  7  1  0
 18 13  1  0
 19  5  1  0
 20 14  1  0
 20 16  1  0
 21  6  1  0
 21 17  2  0
M  END
>  <ID>  (1) 
conformer_0

$$$$
