
     RDKit          3D

 21 22  0  0  0  0  0  0  0  0999 V2000
  -23.6447   16.8120  -23.1075 C   0  0  0  0  0  0  0  0  0  0  0  0
  -25.0342   16.5980  -22.5046 C   0  0  0  0  0  0  0  0  0  0  0  0
  -21.2305   17.4960  -27.7831 C   0  0  0  0  0  0  0  0  0  0  0  0
  -24.3018   17.5453  -30.4101 C   0  0  0  0  0  0  0  0  0  0  0  0
  -23.7646   17.7570  -24.3509 C   0  0  0  0  0  0  0  0  0  0  0  0
  -25.9436   17.3598  -23.1889 C   0  0  0  0  0  0  0  0  0  0  0  0
  -20.1046   16.7050  -28.4335 C   0  0  0  0  0  0  0  0  0  0  0  0
  -18.2114   15.8197  -28.7256 C   0  0  0  0  0  0  0  0  0  0  0  0
  -19.1832   16.4623  -28.3229 N   0  0  0  0  0  0  0  0  0  0  0  0
  -20.1486   15.6223  -30.4419 O   0  0  0  0  0  0  0  0  0  0  0  0
  -22.2005   16.9687  -30.2724 C   0  0  0  0  0  0  0  0  0  0  0  0
  -24.6045   18.0096  -30.0857 O   0  0  0  0  0  0  0  0  0  0  0  0
  -21.1502   16.2849  -30.3544 C   0  0  0  0  0  0  0  0  0  0  0  0
  -22.4737   18.1546  -24.9883 O   0  0  0  0  0  0  0  0  0  0  0  0
  -22.9209   17.6570  -28.8858 C   0  0  2  0  0  0  0  0  0  0  0  0
  -18.2347   17.2801  -26.2302 C   0  0  0  0  0  0  0  0  0  0  0  0
  -25.3223   18.0373  -24.2768 C   0  0  0  0  0  0  0  0  0  0  0  0
  -20.6238   17.6626  -26.4054 C   0  0  0  0  0  0  0  0  0  0  0  0
  -22.0715   18.0714  -25.8980 C   0  0  0  0  0  0  0  0  0  0  0  0
  -23.9698   17.4313  -28.3869 O   0  0  0  0  0  0  0  0  0  0  0  0
  -20.0998   17.3176  -26.7106 C   0  0  0  0  0  0  0  0  0  0  0  0
  2  1  2  0
  5  1  1  0
  6  2  1  0
  7  3  2  0
  9  7  1  0
  9  8  2  3
 12  4  1  0
 13 10  2  0
 13 11  2  0
 14  5  1  0
 15  3  1  0
 15  4  1  0
 15 11  1  0
 17  5  1  0
 17  6  2  0
 18  3  1  0
 19 14  1  0
 19 18  1  0
 15 20  1  6
 21  7  1  0
 21 16  1  0
 21 18  2  0
M  END
>  <ID>  (1) 
conformer_0

$$$$
