
     RDKit          3D

 22 23  0  0  0  0  0  0  0  0999 V2000
  -25.5982   17.0459  -22.7311 C   0  0  0  0  0  0  0  0  0  0  0  0
  -21.4288   17.3074  -27.7008 C   0  0  0  0  0  0  0  0  0  0  0  0
  -25.2987   18.1480  -24.8286 C   0  0  0  0  0  0  0  0  0  0  0  0
  -20.4898   16.5763  -28.6440 C   0  0  0  0  0  0  0  0  0  0  0  0
  -23.1625   17.5913  -29.2063 C   0  0  0  0  0  0  0  0  0  0  0  0
  -22.6132   18.0735  -25.1253 O   0  0  0  0  0  0  0  0  0  0  0  0
  -23.9266   17.8190  -24.5143 C   0  0  0  0  0  0  0  0  0  0  0  0
  -22.1249   17.9510  -25.9002 C   0  0  0  0  0  0  0  0  0  0  0  0
  -22.1558   16.7227  -30.2821 C   0  0  0  0  0  0  0  0  0  0  0  0
  -24.0872   17.3714  -29.7177 O   0  0  0  0  0  0  0  0  0  0  0  0
  -24.1625   17.0799  -23.1739 C   0  0  0  0  0  0  0  0  0  0  0  0
  -18.1104   17.4943  -25.3320 C   0  0  0  0  0  0  0  0  0  0  0  0
  -19.1062   16.5714  -27.6798 N   0  0  0  0  0  0  0  0  0  0  0  0
  -19.7659   15.8030  -29.6886 O   0  0  0  0  0  0  0  0  0  0  0  0
  -18.4363   15.2896  -29.0678 C   0  0  0  0  0  0  0  0  0  0  0  0
  -24.5532   17.6279  -31.0214 C   0  0  0  0  0  0  0  0  0  0  0  0
  -20.5821   17.4572  -26.4415 C   0  0  0  0  0  0  0  0  0  0  0  0
  -26.1396   17.8160  -23.8063 C   0  0  0  0  0  0  0  0  0  0  0  0
  -17.5946   17.0555  -26.9412 C   0  0  0  0  0  0  0  0  0  0  0  0
  -19.4416   16.8413  -27.2126 C   0  0  0  0  0  0  0  0  0  0  0  0
  -23.5134   18.0106  -27.7805 O   0  0  0  0  0  0  0  0  0  0  0  0
  -21.2171   16.4784  -30.4546 C   0  0  0  0  0  0  0  0  0  0  0  0
  4  2  2  0
  7  3  2  0
  7  6  1  0
  8  6  1  0
  9  5  1  0
 10  5  1  0
 11  1  2  0
 11  7  1  0
 13  4  1  0
 14  4  1  0
 15 14  1  0
 16 10  1  0
 17  2  1  0
 17  8  1  0
 18  1  1  0
 18  3  1  0
 19 12  1  0
 19 13  1  0
 20 13  1  0
 20 17  1  0
 21  5  2  0
 22  9  1  0
 22 15  1  0
M  END
>  <ID>  (1) 
conformer_0

$$$$
