
     RDKit          3D

 22 24  0  0  0  0  0  0  0  0999 V2000
  -24.9728   18.2683  -24.5577 C   0  0  0  0  0  0  0  0  0  0  0  0
  -26.0390   17.9188  -23.7893 C   0  0  0  0  0  0  0  0  0  0  0  0
  -21.2920   17.3404  -28.0328 C   0  0  0  0  0  3  0  0  0  0  0  0
  -20.4979   16.5475  -28.7777 C   0  0  0  0  0  0  0  0  0  0  0  0
  -23.1317   17.6288  -29.5554 C   0  0  0  0  0  0  0  0  0  0  0  0
  -23.7784   17.8776  -24.3344 C   0  0  0  0  0  0  0  0  0  0  0  0
  -24.7323   16.5637  -22.5474 C   0  0  0  0  0  0  0  0  0  0  0  0
  -19.2830   16.2407  -28.0604 N   0  0  0  0  0  0  0  0  0  0  0  0
  -21.8289   18.0459  -26.1271 C   0  0  0  0  0  0  0  0  0  0  0  0
  -23.9637   17.6352  -29.8357 O   0  0  0  0  0  0  0  0  0  0  0  0
  -21.8412   17.2070  -30.6779 C   0  0  0  0  0  0  0  0  0  0  0  0
  -22.2669   18.1929  -24.8260 N   0  0  0  0  0  0  0  0  0  0  0  0
  -18.2407   15.4749  -28.4094 C   0  0  0  0  0  0  0  0  0  0  0  0
  -20.4880   15.4883  -30.2473 O   0  0  0  0  0  0  0  0  0  0  0  0
  -18.6850   17.2127  -25.5812 C   0  0  0  0  0  0  0  0  0  0  0  0
  -23.1084   18.0400  -27.4536 O   0  0  0  0  0  0  0  0  0  0  0  0
  -24.7989   17.6897  -30.9816 C   0  0  0  0  0  0  0  0  0  0  0  0
  -23.4985   17.0241  -23.2705 C   0  0  0  0  0  0  0  0  0  0  0  0
  -19.5780   16.7175  -26.8471 C   0  0  0  0  0  0  0  0  0  0  0  0
  -21.3715   16.5345  -30.2728 C   0  0  0  0  0  0  0  0  0  0  0  0
  -20.5760   17.4136  -26.7590 C   0  0  0  0  0  0  0  0  0  0  0  0
  -25.8880   17.1849  -22.7068 C   0  0  0  0  0  0  0  0  0  0  0  0
  2  1  2  0
  4  3  1  0
  6  1  1  0
  8  4  1  0
 10  5  1  0
 11  5  1  0
 12  6  1  0
 12  9  1  0
 13  8  1  0
 14  4  1  0
 16  9  2  0
 17 10  1  0
 18  6  2  0
 18  7  1  0
 19  8  1  0
 19 15  1  0
 20  4  1  0
 20 11  1  0
 20 14  1  0
 21  3  1  0
 21  9  1  0
 21 19  2  0
 22  2  1  0
 22  7  2  0
M  RAD  1   3   2
M  END
>  <ID>  (1) 
conformer_0

$$$$
