
     RDKit          3D

 22 24  0  0  0  0  0  0  0  0999 V2000
  -25.5681   16.8824  -22.5749 C   0  0  0  0  0  0  0  0  0  0  0  0
  -21.0785   17.6156  -27.7145 C   0  0  0  0  0  0  0  0  0  0  0  0
  -26.0647   17.7366  -23.6126 C   0  0  0  0  0  0  0  0  0  0  0  0
  -24.0047   17.9130  -30.7366 C   0  0  0  0  0  0  0  0  0  0  0  0
  -23.8232   17.6798  -24.1929 C   0  0  0  0  0  0  0  0  0  0  0  0
  -17.9326   16.8139  -25.6193 C   0  0  0  0  0  0  0  0  0  0  0  0
  -19.9789   16.8591  -27.6147 C   0  0  0  0  0  0  0  0  0  0  0  0
  -22.6499   18.0119  -24.7660 O   0  0  0  0  0  0  0  0  0  0  0  0
  -19.2177   16.2934  -27.5562 N   0  0  0  0  0  0  0  0  0  0  0  0
  -25.2254   18.1464  -24.6103 C   0  0  0  0  0  0  0  0  0  0  0  0
  -18.7889   15.4007  -29.0659 C   0  0  0  0  0  0  0  0  0  0  0  0
  -23.0960   17.6851  -28.8429 C   0  0  0  0  0  0  0  0  0  0  0  0
  -21.7691   16.6726  -30.7398 C   0  0  0  0  0  0  0  0  0  0  0  0
  -20.1929   15.9013  -29.5131 O   0  0  0  0  0  0  0  0  0  0  0  0
  -24.5432   17.5661  -30.1980 O   0  0  0  0  0  0  0  0  0  0  0  0
  -21.5859   16.6539  -30.1031 C   0  0  0  0  0  0  0  0  0  0  0  0
  -23.6646   18.1444  -27.1884 O   0  0  0  0  0  0  0  0  0  0  0  0
  -22.8718   17.5396  -29.4544 N   0  0  0  0  0  0  0  0  0  0  0  0
  -24.0745   16.7567  -22.9180 C   0  0  0  0  0  0  0  0  0  0  0  0
  -22.4601   18.0666  -26.4746 C   0  0  2  0  0  0  0  0  0  0  0  0
  -20.7734   17.4895  -26.3929 C   0  0  0  0  0  0  0  0  0  0  0  0
  -18.3736   15.8749  -26.8488 C   0  0  0  0  0  0  0  0  0  0  0  0
  3  1  2  0
  7  2  1  0
  8  5  1  0
  9  7  1  0
 10  3  1  0
 10  5  2  0
 11  9  1  0
 14 11  1  0
 15  4  1  0
 16 13  2  3
 16 14  1  0
 17 12  1  0
 18  4  1  0
 18 12  1  0
 18 16  1  0
 19  1  1  0
 19  5  1  0
 20  8  1  1
 20 17  1  0
 21  2  2  0
 21  7  1  0
 21 20  1  0
 22  6  1  0
 22  9  1  0
M  END
>  <ID>  (1) 
conformer_0

$$$$
