
     RDKit          3D

 19 20  0  0  0  0  0  0  0  0999 V2000
  -26.1938   17.3993  -23.2110 C   0  0  0  0  0  0  0  0  0  0  0  0
  -21.1551   17.4980  -27.7349 C   0  0  0  0  0  0  0  0  0  0  0  0
  -23.9745   17.6947  -24.3363 C   0  0  0  0  0  0  0  0  0  0  0  0
  -25.5443   18.0540  -24.1678 C   0  0  0  0  0  0  0  0  0  0  0  0
  -22.0348   18.1422  -26.0753 C   0  0  0  0  0  0  0  0  0  0  0  0
  -22.0748   16.5480  -30.6853 C   0  0  0  0  0  0  0  0  0  0  0  0
  -19.2912   16.3200  -28.4551 N   0  0  0  0  0  0  0  0  0  0  0  0
  -20.6844   16.9021  -28.8121 C   0  0  0  0  0  0  0  0  0  0  0  0
  -23.8312   17.5872  -30.3644 C   0  0  0  0  0  0  0  0  0  0  0  0
  -22.4535   17.9539  -24.8995 O   0  0  0  0  0  0  0  0  0  0  0  0
  -23.9081   17.8109  -29.2849 O   0  0  0  0  0  0  0  0  0  0  0  0
  -18.0997   15.6672  -28.5525 C   0  0  0  0  0  0  0  0  0  0  0  0
  -19.7526   15.9118  -30.5484 O   0  0  0  0  0  0  0  0  0  0  0  0
  -25.3099   16.6406  -22.4130 C   0  0  0  0  0  0  0  0  0  0  0  0
  -21.5452   16.7689  -29.9861 C   0  0  0  0  0  0  0  0  0  0  0  0
  -18.6537   16.4731  -25.9711 C   0  0  0  0  0  0  0  0  0  0  0  0
  -20.2529   17.0858  -26.5753 C   0  0  0  0  0  0  0  0  0  0  0  0
  -19.3423   16.5432  -27.2577 C   0  0  0  0  0  0  0  0  0  0  0  0
  -23.8560   16.8040  -22.9233 C   0  0  0  0  0  0  0  0  0  0  0  0
  4  1  2  0
  4  3  1  0
  5  2  1  0
  8  2  2  0
  8  7  1  0
  9  6  1  0
 10  3  1  0
 10  5  1  0
 11  9  1  0
 12  7  1  0
 14  1  1  0
 15  6  1  0
 15  8  1  0
 15 13  1  0
 17  2  1  0
 18  7  1  0
 18 16  1  0
 18 17  2  0
 19  3  2  0
 19 14  1  0
M  END
>  <ID>  (1) 
conformer_0

$$$$
