
     RDKit          3D

 23 25  0  0  0  0  0  0  0  0999 V2000
  -25.8332   17.7921  -24.1112 C   0  0  0  0  0  0  0  0  0  0  0  0
  -24.7212   18.1346  -24.7635 C   0  0  0  0  0  0  0  0  0  0  0  0
  -20.3200   17.1389  -26.4446 C   0  0  0  0  0  0  0  0  0  0  0  0
  -20.3371   16.3014  -29.7860 C   0  0  0  0  0  0  0  0  0  0  0  0
  -23.6880   18.2878  -31.2276 C   0  0  0  0  0  0  0  0  0  0  0  0
  -19.5399   16.7605  -26.6947 C   0  0  0  0  0  0  0  0  0  0  0  0
  -23.5171   17.6782  -24.4099 C   0  0  0  0  0  0  0  0  0  0  0  0
  -25.8749   17.1196  -22.9226 C   0  0  0  0  0  0  0  0  0  0  0  0
  -24.2942   17.9118  -30.4896 O   0  0  0  0  0  0  0  0  0  0  0  0
  -22.3573   17.9416  -24.5987 O   0  0  0  0  0  0  0  0  0  0  0  0
  -20.1021   15.8485  -29.6477 O   0  0  0  0  0  0  0  0  0  0  0  0
  -22.4480   17.3833  -29.5682 C   0  0  0  0  0  0  0  0  0  0  0  0
  -21.7131   17.2450  -30.4001 C   0  0  0  0  0  0  0  0  0  0  0  0
  -21.6476   17.9038  -25.5627 C   0  0  0  0  0  0  0  0  0  0  0  0
  -19.9831   17.3824  -25.3528 C   0  0  0  0  0  0  0  0  0  0  0  0
  -24.5446   17.7982  -28.3723 C   0  0  0  0  0  0  0  0  0  0  0  0
  -23.6887   17.6927  -28.3810 O   0  0  0  0  0  0  0  0  0  0  0  0
  -24.7436   16.6216  -22.4489 C   0  0  0  0  0  0  0  0  0  0  0  0
  -19.3421   16.4185  -27.9711 N   0  0  0  0  0  0  0  0  0  0  0  0
  -23.4249   16.8976  -23.1038 C   0  0  0  0  0  0  0  0  0  0  0  0
  -18.2994   15.3509  -28.6146 C   0  0  0  0  0  0  0  0  0  0  0  0
  -20.7511   16.9793  -28.2395 C   0  0  0  0  0  0  0  0  0  0  0  0
  -21.4978   17.6049  -27.3883 C   0  0  0  0  0  0  0  0  0  0  0  0
  2  1  2  0
  6  3  2  0
  7  2  1  0
  8  1  1  0
  9  5  1  0
 10  7  1  0
 11  4  1  0
 12  9  1  0
 13  4  1  0
 13 12  1  0
 14 10  1  0
 15  3  1  0
 15 14  1  0
 17 12  1  0
 17 16  1  0
 18  8  2  0
 19  6  1  0
 20  7  2  0
 20 18  1  0
 21 19  1  0
 22  4  1  0
 22 19  1  0
 23  3  1  0
 23 14  1  0
 23 22  2  0
M  END
>  <ID>  (1) 
conformer_0

$$$$
