
     RDKit          3D

 21 22  0  0  0  0  0  0  0  0999 V2000
  -26.0315   17.6831  -23.7716 C   0  0  0  0  0  0  0  0  0  0  0  0
  -25.6490   16.9501  -22.5513 C   0  0  0  0  0  0  0  0  0  0  0  0
  -21.4482   17.3856  -27.9806 C   0  0  0  0  0  0  0  0  0  0  0  0
  -19.3660   16.3281  -28.6291 N   0  0  0  0  0  0  0  0  0  0  0  0
  -23.3630   17.7968  -28.4724 C   0  0  0  0  0  0  0  0  0  0  0  0
  -20.9489   16.7240  -28.7337 C   0  0  0  0  0  0  0  0  0  0  0  0
  -25.0750   18.0133  -24.6525 C   0  0  0  0  0  0  0  0  0  0  0  0
  -20.1695   15.8345  -30.7521 O   0  0  0  0  0  0  0  0  0  0  0  0
  -22.2455   17.9608  -24.7609 O   0  0  0  0  0  0  0  0  0  0  0  0
  -18.2039   15.7010  -28.8274 C   0  0  0  0  0  0  0  0  0  0  0  0
  -22.3445   18.0360  -26.0170 C   0  0  0  0  0  0  0  0  0  0  0  0
  -23.7251   17.6704  -24.1027 C   0  0  0  0  0  0  0  0  0  0  0  0
  -22.6490   16.8078  -30.3607 C   0  0  0  0  0  0  0  0  0  0  0  0
  -24.5093   17.6286  -30.0339 O   0  0  0  0  0  0  0  0  0  0  0  0
  -18.3102   16.8967  -26.1289 C   0  0  0  0  0  0  0  0  0  0  0  0
  -24.2273   16.8853  -22.7326 C   0  0  0  0  0  0  0  0  0  0  0  0
  -24.1381   17.8385  -30.7115 C   0  0  0  0  0  0  0  0  0  0  0  0
  -21.6800   16.4981  -29.9161 C   0  0  0  0  0  0  0  0  0  0  0  0
  -19.5801   16.9075  -27.2701 C   0  0  0  0  0  0  0  0  0  0  0  0
  -20.2733   17.4915  -26.7774 C   0  0  0  0  0  0  0  0  0  0  0  0
  -24.3564   17.6699  -27.9862 O   0  0  0  0  0  0  0  0  0  0  0  0
  2  1  2  0
  5  3  1  0
  6  3  2  0
  6  4  1  0
  7  1  1  0
 10  4  1  0
 11  9  1  0
 12  7  1  0
 12  9  1  0
 16  2  1  0
 16 12  2  0
 17 13  1  0
 17 14  1  0
 18  6  1  0
 18  8  1  0
 18 13  1  0
 19  4  1  0
 19 15  1  0
 20  3  1  0
 20 11  1  0
 20 19  2  0
 21  5  2  0
M  END
>  <ID>  (1) 
conformer_0

$$$$
