
     RDKit          3D

 21 21  0  0  0  0  0  0  0  0999 V2000
  -25.2630   16.7758  -22.3227 C   0  0  0  0  0  0  0  0  0  0  0  0
  -21.2196   17.5485  -27.8571 C   0  0  1  0  0  0  0  0  0  0  0  0
  -25.8419   17.4483  -23.2937 C   0  0  0  0  0  0  0  0  0  0  0  0
  -23.8439   17.5143  -30.3599 C   0  0  0  0  0  0  0  0  0  0  0  0
  -19.1682   16.4005  -28.0756 N   0  0  0  0  0  0  0  0  0  0  0  0
  -20.1906   16.8515  -28.5117 C   0  0  1  0  0  0  0  0  0  0  0  0
  -18.5689   15.2859  -29.1722 C   0  0  0  0  0  0  0  0  0  0  0  0
  -22.5254   18.0090  -25.0257 O   0  0  0  0  0  0  0  0  0  0  0  0
  -23.4135   17.6567  -24.1235 C   0  0  0  0  0  0  0  0  0  0  0  0
  -24.9440   17.9318  -24.2713 C   0  0  0  0  0  0  0  0  0  0  0  0
  -20.3662   15.3020  -30.3142 O   0  0  0  0  0  0  0  0  0  0  0  0
  -21.8619   16.9369  -30.4671 C   0  0  0  0  0  0  0  0  0  0  0  0
  -24.2890   17.6716  -30.2913 O   0  0  0  0  0  0  0  0  0  0  0  0
  -21.4260   16.6409  -29.9305 C   0  0  0  0  0  0  0  0  0  0  0  0
  -23.0934   17.9590  -28.5304 C   0  0  0  0  0  0  0  0  0  0  0  0
  -23.7866   17.9961  -27.9730 O   0  0  0  0  0  0  0  0  0  0  0  0
  -23.7116   16.8722  -22.6682 C   0  0  0  0  0  0  0  0  0  0  0  0
  -21.8669   17.8315  -25.7946 C   0  0  0  0  0  0  0  0  0  0  0  0
  -20.4867   17.2802  -26.4895 C   0  0  0  0  0  0  0  0  0  0  0  0
  -19.9026   17.2255  -26.5294 C   0  0  0  0  0  0  0  0  0  0  0  0
  -18.0828   15.9068  -27.3049 C   0  0  0  0  0  0  0  0  0  0  0  0
  3  1  2  0
  6  2  1  0
  6  5  1  1
  7  5  1  0
  9  8  1  0
 10  3  1  0
 10  9  2  0
 13  4  1  0
 14  6  1  0
 14 11  1  0
 14 12  2  3
  2 15  1  1
 15  4  1  0
 16 15  2  0
 17  1  1  0
 17  9  1  0
 18  8  1  0
 19  2  1  0
 19 18  1  0
 20 19  2  3
 21  5  1  0
M  END
>  <ID>  (1) 
conformer_0

$$$$
