
     RDKit          3D

 24 27  0  0  0  0  0  0  0  0999 V2000
  -23.5631   17.0453  -23.0441 C   0  0  0  0  0  0  0  0  0  0  0  0
  -25.9069   17.0042  -22.8788 C   0  0  0  0  0  0  0  0  0  0  0  0
  -21.3062   17.5227  -28.2071 C   0  0  1  0  0  0  0  0  0  0  0  0
  -24.5788   17.5536  -29.6900 C   0  0  2  0  0  0  0  0  0  0  0  0
  -19.9764   17.2631  -25.4899 C   0  0  2  0  0  0  0  0  0  0  0  0
  -22.3066   18.0469  -24.8833 O   0  0  0  0  0  0  0  0  0  0  0  0
  -20.4055   16.7939  -28.5611 C   0  0  1  0  0  0  0  0  0  0  0  0
  -25.9112   17.6354  -24.0764 C   0  0  0  0  0  0  0  0  0  0  0  0
  -23.5451   17.7750  -24.2218 C   0  0  0  0  0  0  0  0  0  0  0  0
  -21.4352   17.9575  -25.6210 C   0  0  2  0  0  0  0  0  0  0  0  0
  -22.0352   17.0290  -30.6527 C   0  0  0  0  0  0  0  0  0  0  0  0
  -24.8262   18.0094  -29.9575 O   0  0  0  0  0  0  0  0  0  0  0  0
  -20.3437   15.4324  -30.6573 O   0  0  0  0  0  0  0  0  0  0  0  0
  -19.6993   16.2527  -28.5361 N   0  0  0  0  0  0  0  0  0  0  0  0
  -18.4475   15.4677  -28.5145 C   0  0  0  0  0  3  0  0  0  0  0  0
  -22.6163   17.8388  -28.3342 C   0  0  0  0  0  0  0  0  0  0  0  0
  -24.7579   16.6048  -22.4020 C   0  0  0  0  0  0  0  0  0  0  0  0
  -20.7075   16.4473  -30.2522 C   0  0  0  0  0  0  0  0  0  0  0  0
  -23.9333   17.5815  -28.1650 O   0  0  0  0  0  0  0  0  0  0  0  0
  -19.7243   16.9121  -26.6075 C   0  0  0  0  0  0  0  0  0  0  0  0
  -20.6288   17.5101  -26.8025 C   0  0  2  0  0  0  0  0  0  0  0  0
  -24.7882   17.9806  -24.6799 C   0  0  0  0  0  0  0  0  0  0  0  0
  -23.1223   17.8367  -30.7843 C   0  0  0  0  0  0  0  0  0  0  0  0
  -18.2541   17.0952  -24.9315 C   0  0  0  0  0  0  0  0  0  0  0  0
  7  3  1  0
  8  2  1  0
  9  1  2  0
  9  6  1  0
 10  5  1  0
 10  6  1  1
  4 12  1  1
  7 14  1  1
 15 14  2  3
  3 16  1  1
 17  1  1  0
 17  2  2  0
 18  7  1  0
 18 11  2  0
 18 13  1  0
 19  4  1  0
 19 16  1  0
 20  5  1  0
 21  3  1  0
 21  5  1  0
 21 10  1  0
 21 20  1  6
 22  8  2  0
 22  9  1  0
 23  4  1  0
 23 11  2  0
  5 24  1  6
M  RAD  1  15   2
M  END
>  <ID>  (1) 
conformer_0

$$$$
