
     RDKit          3D

 17 17  0  0  0  0  0  0  0  0999 V2000
  -25.8799   17.3649  -23.3744 C   0  0  0  0  0  0  0  0  0  0  0  0
  -25.2266   18.0449  -24.4200 C   0  0  0  0  0  0  0  0  0  0  0  0
  -23.5649   17.5770  -24.2613 C   0  0  0  0  0  0  0  0  0  0  0  0
  -20.9692   17.4612  -27.1113 C   0  0  0  0  0  0  0  0  0  0  0  0
  -22.9471   17.6537  -29.1897 C   0  0  2  0  0  0  0  0  0  0  0  0
  -19.9696   17.2354  -26.4459 C   0  0  0  0  0  0  0  0  0  0  0  0
  -19.2507   16.4248  -28.0593 N   0  0  0  0  0  0  0  0  0  0  0  0
  -22.5003   17.8531  -25.0434 O   0  0  0  0  0  0  0  0  0  0  0  0
  -18.4988   15.6912  -28.7259 C   0  0  0  0  0  0  0  0  0  0  0  0
  -25.1961   16.6453  -22.5281 C   0  0  0  0  0  0  0  0  0  0  0  0
  -22.1536   18.2217  -26.2871 C   0  0  0  0  0  0  0  0  0  0  0  0
  -23.8788   17.7736  -29.3279 O   0  0  0  0  0  0  0  0  0  0  0  0
  -22.1222   16.5481  -30.4013 C   0  0  0  0  0  0  0  0  0  0  0  0
  -18.2217   16.8650  -25.9996 C   0  0  0  0  0  0  0  0  0  0  0  0
  -24.2964   17.5730  -30.9530 C   0  0  0  0  0  0  0  0  0  0  0  0
  -20.4369   16.8605  -28.4031 C   0  0  0  0  0  0  0  0  0  0  0  0
  -23.6263   16.6162  -22.8047 C   0  0  0  0  0  0  0  0  0  0  0  0
  2  1  2  0
  3  2  1  0
  5  4  1  0
  6  4  1  0
  8  3  1  0
  9  7  1  0
 10  1  1  0
 11  4  1  0
 11  8  1  0
 12  5  1  0
  5 13  1  1
 14  6  1  0
 15 12  1  0
 16  4  1  0
 16  7  2  3
 17  3  2  0
 17 10  1  0
M  END
>  <ID>  (1) 
conformer_0

$$$$
