
     RDKit          3D

 21 23  0  0  0  0  0  0  0  0999 V2000
  -25.8561   17.5631  -23.7283 C   0  0  0  0  0  0  0  0  0  0  0  0
  -25.5684   16.7884  -22.6813 C   0  0  0  0  0  0  0  0  0  0  0  0
  -20.5461   17.2690  -26.7568 C   0  0  0  0  0  0  0  0  0  0  0  0
  -23.5752   17.6366  -24.0604 C   0  0  0  0  0  0  0  0  0  0  0  0
  -24.3841   17.8735  -30.3850 C   0  0  0  0  0  0  0  0  0  0  0  0
  -20.3007   16.6037  -28.9774 C   0  0  1  0  0  0  0  0  0  0  0  0
  -22.4240   18.1104  -24.5623 O   0  0  0  0  0  0  0  0  0  0  0  0
  -24.9127   18.1510  -24.5627 C   0  0  0  0  0  0  0  0  0  0  0  0
  -19.1965   16.1769  -28.4021 N   0  0  0  0  0  0  0  0  0  0  0  0
  -24.6825   17.5842  -30.4249 O   0  0  0  0  0  0  0  0  0  0  0  0
  -23.2313   18.3072  -27.8654 O   0  0  0  0  0  0  0  0  0  0  0  0
  -18.0258   16.5780  -26.1498 C   0  0  0  0  0  0  0  0  0  0  0  0
  -22.0251   16.4924  -30.6318 C   0  0  0  0  0  0  0  0  0  0  0  0
  -22.8965   17.6348  -29.0269 C   0  0  2  0  0  0  0  0  0  0  0  0
  -22.1381   18.0298  -26.1734 C   0  0  0  0  0  0  0  0  0  0  0  0
  -18.0601   15.6463  -28.5780 C   0  0  0  0  0  0  0  0  0  0  0  0
  -19.8349   16.0429  -30.3865 O   0  0  0  0  0  0  0  0  0  0  0  0
  -24.0328   16.6625  -22.6156 C   0  0  0  0  0  0  0  0  0  0  0  0
  -21.3641   16.2909  -30.4613 C   0  0  0  0  0  0  0  0  0  0  0  0
  -21.0418   17.3943  -28.0271 C   0  0  0  0  0  3  0  0  0  0  0  0
  -19.4033   16.5030  -27.1644 C   0  0  0  0  0  0  0  0  0  0  0  0
  2  1  2  0
  7  4  1  0
  8  1  1  0
  8  4  1  0
  9  6  1  0
 10  5  2  0
 14  5  1  0
 14 11  1  1
 15  3  1  0
 15  7  1  0
 16  9  1  0
  6 17  1  6
 18  2  1  0
 18  4  2  0
 19  6  1  0
 19 13  2  3
 19 17  1  0
 20  3  1  0
 20  6  1  0
 20 14  1  0
 21  3  2  0
 21  9  1  0
 21 12  1  0
M  RAD  1  20   2
M  END
>  <ID>  (1) 
conformer_0

$$$$
