
     RDKit          3D

 24 26  0  0  0  0  0  0  0  0999 V2000
  -26.0813   18.0256  -24.2258 C   0  0  0  0  0  0  0  0  0  0  0  0
  -25.0964   18.0821  -25.1298 C   0  0  0  0  0  0  0  0  0  0  0  0
  -21.3659   17.3003  -27.9585 C   0  0  0  0  0  0  0  0  0  0  0  0
  -23.9014   17.7611  -24.6198 C   0  0  0  0  0  0  0  0  0  0  0  0
  -24.2913   17.5343  -30.9037 C   0  0  0  0  0  0  0  0  0  0  0  0
  -20.4593   16.5754  -28.4426 C   0  0  0  0  0  0  0  0  0  0  0  0
  -19.0610   16.6322  -27.6309 N   0  0  0  0  0  0  0  0  0  0  0  0
  -21.6430   17.8112  -25.6456 C   0  0  0  0  0  0  0  0  0  0  0  0
  -18.3735   15.3212  -28.9155 C   0  0  0  0  0  0  0  0  0  0  0  0
  -21.7820   18.4735  -24.9632 O   0  0  0  0  0  0  0  0  0  0  0  0
  -23.5692   17.0629  -23.3347 C   0  0  0  0  0  0  0  0  0  0  0  0
  -19.7510   15.9104  -29.7644 O   0  0  0  0  0  0  0  0  0  0  0  0
  -24.3596   17.7781  -30.4130 O   0  0  0  0  0  0  0  0  0  0  0  0
  -21.9082   16.6242  -30.2914 C   0  0  0  0  0  0  0  0  0  0  0  0
  -18.3110   17.1401  -25.5015 C   0  0  0  0  0  0  0  0  0  0  0  0
  -23.9378   17.5908  -28.5114 O   0  0  0  0  0  0  0  0  0  0  0  0
  -25.9855   17.4324  -23.0129 C   0  0  0  0  0  0  0  0  0  0  0  0
  -22.0339   16.8208  -29.7279 C   0  0  0  0  0  0  0  0  0  0  0  0
  -19.5391   17.2614  -26.7453 C   0  0  0  0  0  0  0  0  0  0  0  0
  -24.2758   17.5053  -28.7602 C   0  0  2  0  0  0  0  0  0  0  0  0
  -17.8322   16.6870  -27.2059 C   0  0  0  0  0  0  0  0  0  0  0  0
  -23.3607   18.0569  -25.9561 O   0  0  0  0  0  0  0  0  0  0  0  0
  -20.8523   17.4350  -26.4966 C   0  0  0  0  0  0  0  0  0  0  0  0
  -24.8633   16.8923  -22.5997 C   0  0  0  0  0  0  0  0  0  0  0  0
  2  1  2  0
  4  2  1  0
  6  3  2  0
  7  6  1  0
 10  8  2  0
 11  4  2  0
 12  6  1  0
 12  9  1  0
 13  5  1  0
 17  1  1  0
 18  3  1  0
 18 14  2  3
 19  7  1  0
 19 15  1  0
 20 13  1  0
 20 16  1  1
 20 18  1  0
 21  7  1  0
 21 15  1  0
 22  4  1  0
 22  8  1  0
 23  3  1  0
 23  8  1  0
 23 19  2  0
 24 11  1  0
 24 17  2  0
M  END
>  <ID>  (1) 
conformer_0

$$$$
