
     RDKit          3D

 20 21  0  0  0  0  0  0  0  0999 V2000
  -25.8932   17.3818  -23.7649 C   0  0  0  0  0  0  0  0  0  0  0  0
  -21.4554   17.4841  -27.8606 C   0  0  0  0  0  0  0  0  0  0  0  0
  -25.0772   17.9318  -24.6712 C   0  0  0  0  0  0  0  0  0  0  0  0
  -24.1082   17.4356  -30.8135 C   0  0  0  0  0  0  0  0  0  0  0  0
  -23.6120   17.6278  -24.3172 C   0  0  0  0  0  0  0  0  0  0  0  0
  -20.7404   16.6255  -28.8404 C   0  0  0  0  0  0  0  0  0  0  0  0
  -21.8816   18.2014  -26.1320 C   0  0  0  0  0  0  0  0  0  0  0  0
  -22.2883   18.2170  -24.9778 O   0  0  0  0  0  0  0  0  0  0  0  0
  -19.3682   16.4740  -28.2580 N   0  0  0  0  0  0  0  0  0  0  0  0
  -24.6574   16.8482  -30.6884 O   0  0  0  0  0  0  0  0  0  0  0  0
  -22.4500   17.0041  -30.7007 C   0  0  0  0  0  0  0  0  0  0  0  0
  -20.2877   16.0705  -30.1731 O   0  0  0  0  0  0  0  0  0  0  0  0
  -23.8214   16.7235  -22.9172 C   0  0  0  0  0  0  0  0  0  0  0  0
  -18.0950   16.0576  -28.4745 C   0  0  0  0  0  0  0  0  0  0  0  0
  -19.0213   17.2335  -25.4163 C   0  0  0  0  0  0  0  0  0  0  0  0
  -19.3734   16.8557  -27.1511 C   0  0  0  0  0  0  0  0  0  0  0  0
  -22.7398   17.4288  -29.2726 C   0  0  0  0  0  0  0  0  0  0  0  0
  -25.3303   16.6912  -22.6574 C   0  0  0  0  0  0  0  0  0  0  0  0
  -23.7444   17.5985  -28.8624 O   0  0  0  0  0  0  0  0  0  0  0  0
  -20.4781   17.4054  -26.8498 C   0  0  0  0  0  0  0  0  0  0  0  0
  3  1  2  0
  5  3  1  0
  6  2  1  0
  8  5  1  0
  8  7  1  0
  9  6  1  0
 10  4  2  0
 11  4  1  0
 12  6  2  0
 13  5  2  0
 14  9  1  0
 16  9  1  0
 16 15  1  0
 17  2  1  0
 17 11  1  0
 18  1  1  0
 18 13  1  0
 19 17  2  0
 20  2  1  0
 20  7  1  0
 20 16  2  0
M  END
>  <ID>  (1) 
conformer_0

$$$$
