
     RDKit          3D

 21 23  0  0  0  0  0  0  0  0999 V2000
  -25.9731   17.5466  -23.6821 C   0  0  0  0  0  0  0  0  0  0  0  0
  -20.9680   17.5206  -26.6052 C   0  0  0  0  0  0  0  0  0  0  0  0
  -25.1341   18.0676  -24.7390 C   0  0  0  0  0  0  0  0  0  0  0  0
  -24.9111   17.4184  -30.2337 C   0  0  0  0  0  0  0  0  0  0  0  0
  -18.4242   17.2922  -25.2265 C   0  0  0  0  0  0  0  0  0  0  0  0
  -22.1279   18.2937  -24.8411 O   0  0  0  0  0  0  0  0  0  0  0  0
  -20.3924   16.5443  -28.5033 C   0  0  0  0  0  0  0  0  0  0  0  0
  -23.7191   17.7735  -24.6193 C   0  0  0  0  0  0  0  0  0  0  0  0
  -20.3442   15.6229  -30.4603 O   0  0  0  0  0  0  0  0  0  0  0  0
  -19.2803   16.7294  -27.5524 N   0  0  0  0  0  0  0  0  0  0  0  0
  -22.2610   16.6804  -30.2001 C   0  0  0  0  0  0  0  0  0  0  0  0
  -23.9826   17.5703  -29.4917 O   0  0  0  0  0  0  0  0  0  0  0  0
  -25.2030   16.8593  -22.7597 C   0  0  0  0  0  0  0  0  0  0  0  0
  -22.0104   18.2000  -25.9080 C   0  0  0  0  0  0  0  0  0  0  0  0
  -23.3604   17.4606  -29.2840 C   0  0  0  0  0  0  0  0  0  0  0  0
  -18.0243   16.6221  -26.9427 C   0  0  0  0  0  0  0  0  0  0  0  0
  -21.4753   17.2668  -27.9618 C   0  0  0  0  0  0  0  0  0  0  0  0
  -19.7063   17.2370  -26.6363 C   0  0  0  0  0  0  0  0  0  0  0  0
  -23.7182   17.0205  -23.1331 C   0  0  0  0  0  0  0  0  0  0  0  0
  -24.4439   17.6954  -27.6658 O   0  0  0  0  0  0  0  0  0  0  0  0
  -21.2588   16.4157  -30.2141 C   0  0  0  0  0  0  0  0  0  0  0  0
  3  1  2  0
  8  3  1  0
  8  6  1  0
 10  7  1  0
 12  4  1  0
 13  1  1  0
 14  2  1  0
 14  6  1  0
 15 11  1  0
 15 12  1  0
 16  5  1  0
 16 10  1  0
 17  2  1  0
 17  7  2  0
 18  2  2  0
 18  5  1  0
 18 10  1  0
 19  8  2  0
 19 13  1  0
 20 15  2  0
 21  7  1  0
 21  9  2  0
 21 11  1  0
M  END
>  <ID>  (1) 
conformer_0

$$$$
