
     RDKit          3D

 23 25  0  0  0  0  0  0  0  0999 V2000
  -24.8332   16.8986  -22.5564 C   0  0  0  0  0  0  0  0  0  0  0  0
  -25.9499   17.3517  -23.0539 C   0  0  0  0  0  0  0  0  0  0  0  0
  -21.5378   17.3960  -27.8440 C   0  0  0  0  0  0  0  0  0  0  0  0
  -22.2544   16.8978  -30.5671 C   0  0  0  0  0  0  0  0  0  0  0  0
  -24.7605   17.5442  -30.1776 C   0  0  0  0  0  0  0  0  0  0  0  0
  -20.5525   16.6317  -28.5914 C   0  0  0  0  0  0  0  0  0  0  0  0
  -23.5597   17.8477  -24.4753 C   0  0  0  0  0  0  0  0  0  0  0  0
  -23.4834   17.1496  -23.2267 C   0  0  0  0  0  0  0  0  0  0  0  0
  -18.2320   17.2566  -25.6002 C   0  0  0  0  0  0  0  0  0  0  0  0
  -21.7212   18.0390  -25.9160 C   0  0  0  0  0  0  0  0  0  0  0  0
  -22.4902   18.1601  -25.2575 O   0  0  0  0  0  0  0  0  0  0  0  0
  -24.4796   17.4524  -30.0528 O   0  0  0  0  0  0  0  0  0  0  0  0
  -20.0428   15.9437  -30.1824 O   0  0  0  0  0  0  0  0  0  0  0  0
  -19.7716   16.3768  -28.3549 N   0  0  0  0  0  0  0  0  0  0  0  0
  -18.4850   15.5219  -28.8358 C   0  0  0  0  0  0  0  0  0  0  0  0
  -21.4488   16.3457  -30.4269 C   0  0  0  0  0  0  0  0  0  0  0  0
  -24.8043   18.1815  -24.9454 C   0  0  0  0  0  0  0  0  0  0  0  0
  -19.4698   16.9367  -26.7728 C   0  0  0  0  0  0  0  0  0  0  0  0
  -23.7540   17.7204  -28.1363 O   0  0  0  0  0  0  0  0  0  0  0  0
  -17.9745   15.7940  -27.4962 C   0  0  0  0  0  0  0  0  0  0  0  0
  -22.9920   17.5962  -28.9478 C   0  0  0  0  0  0  0  0  0  0  0  0
  -20.4606   17.5476  -26.7258 C   0  0  0  0  0  0  0  0  0  0  0  0
  -25.8858   17.9753  -24.2995 C   0  0  0  0  0  0  0  0  0  0  0  0
  2  1  2  0
  6  3  2  0
  8  1  1  0
  8  7  2  0
 11  7  1  0
 11 10  1  0
 12  5  1  0
 13  6  1  0
 14  6  1  0
 15 14  1  0
 16  4  1  0
 16 13  1  0
 17  7  1  0
 18  9  1  0
 18 14  1  0
 20 15  1  0
 21  3  1  0
 21  4  1  0
 21 12  1  0
 21 19  1  0
 22  3  1  0
 22 10  1  0
 22 18  2  0
 23  2  1  0
 23 17  2  0
M  END
>  <ID>  (1) 
conformer_0

$$$$
