
     RDKit          3D

 21 22  0  0  0  0  0  0  0  0999 V2000
  -25.8969   17.3274  -23.4548 C   0  0  0  0  0  0  0  0  0  0  0  0
  -25.1838   17.9979  -24.4234 C   0  0  0  0  0  0  0  0  0  0  0  0
  -21.3532   17.5164  -27.8864 C   0  0  0  0  0  0  0  0  0  0  0  0
  -18.2610   15.2684  -28.6757 C   0  0  0  0  0  0  0  0  0  0  0  0
  -23.6253   17.6680  -24.2141 C   0  0  0  0  0  0  0  0  0  0  0  0
  -21.9039   17.4027  -30.9763 C   0  0  0  0  0  0  0  0  0  0  0  0
  -20.1551   15.6227  -30.9455 O   0  0  0  0  0  0  0  0  0  0  0  0
  -19.9267   16.1950  -29.8722 C   0  0  0  0  0  0  0  0  0  0  0  0
  -19.4798   16.3564  -28.5805 N   0  0  0  0  0  0  0  0  0  0  0  0
  -20.1715   16.8950  -28.3347 C   0  0  2  0  0  0  0  0  0  0  0  0
  -22.4400   18.0964  -24.9005 O   0  0  0  0  0  0  0  0  0  0  0  0
  -25.2971   16.5646  -22.5244 C   0  0  0  0  0  0  0  0  0  0  0  0
  -23.9993   17.7405  -30.3067 O   0  0  0  0  0  0  0  0  0  0  0  0
  -18.9081   17.4723  -25.5428 C   0  0  0  0  0  0  0  0  0  0  0  0
  -21.7643   18.0353  -25.6013 C   0  0  0  0  0  0  0  0  0  0  0  0
  -21.8283   17.1646  -30.3154 C   0  0  0  0  0  0  0  0  0  0  0  0
  -23.7601   16.5940  -22.8260 C   0  0  0  0  0  0  0  0  0  0  0  0
  -23.8955   17.5194  -28.2965 O   0  0  0  0  0  0  0  0  0  0  0  0
  -20.2299   17.4852  -26.4009 C   0  0  1  0  0  0  0  0  0  0  0  0
  -20.3245   17.5196  -26.6514 C   0  0  2  0  0  0  0  0  0  0  0  0
  -24.0214   17.7872  -30.0867 C   0  0  0  0  0  0  0  0  0  0  0  0
  2  1  2  0
  5  2  1  0
  8  7  2  0
  9  4  1  0
  9  8  1  0
 10  3  1  0
 10  9  1  1
 11  5  1  0
 12  1  1  0
 15 11  1  0
 16  6  2  3
 16  8  1  0
 17  5  2  0
 17 12  1  0
 19 14  1  1
 19 15  1  0
 20  3  1  1
 20 10  1  0
 20 19  1  0
 21 13  1  0
 21 16  1  0
 21 18  1  0
M  END
>  <ID>  (1) 
conformer_0

$$$$
