
     RDKit          3D

 23 24  0  0  0  0  0  0  0  0999 V2000
  -25.8818   17.6773  -23.9508 C   0  0  0  0  0  0  0  0  0  0  0  0
  -17.8695   17.1011  -25.2914 C   0  0  0  0  0  0  0  0  0  0  0  0
  -24.9898   18.1300  -24.8245 C   0  0  0  0  0  0  0  0  0  0  0  0
  -21.5691   17.2291  -27.3868 C   0  0  0  0  0  0  0  0  0  0  0  0
  -23.5934   17.6146  -24.2544 C   0  0  0  0  0  0  0  0  0  0  0  0
  -24.1986   18.4399  -31.2384 C   0  0  0  0  0  0  0  0  0  0  0  0
  -21.5478   18.0172  -25.4325 C   0  0  0  0  0  0  0  0  0  0  0  0
  -18.2524   15.5714  -28.9879 C   0  0  0  0  0  0  0  0  0  0  0  0
  -19.6805   16.4404  -28.2584 N   0  0  0  0  0  0  0  0  0  0  0  0
  -20.8480   16.6971  -28.2403 C   0  0  0  0  0  0  0  0  0  0  0  0
  -22.4728   17.9267  -24.6994 O   0  0  0  0  0  0  0  0  0  0  0  0
  -20.9303   15.8107  -30.2260 O   0  0  0  0  0  0  0  0  0  0  0  0
  -22.6186   16.8692  -30.1765 C   0  0  0  0  0  0  0  0  0  0  0  0
  -25.5602   17.0117  -22.8674 C   0  0  0  0  0  0  0  0  0  0  0  0
  -25.2674   17.7274  -30.7913 O   0  0  0  0  0  0  0  0  0  0  0  0
  -22.7061   17.2123  -30.1728 C   0  0  0  0  0  0  0  0  0  0  0  0
  -19.4493   16.8895  -26.5706 C   0  0  0  0  0  0  0  0  0  0  0  0
  -24.0364   16.7619  -22.8080 C   0  0  0  0  0  0  0  0  0  0  0  0
  -19.4737   17.2646  -25.2202 C   0  0  0  0  0  0  0  0  0  0  0  0
  -24.2926   17.4420  -29.1854 O   0  0  0  0  0  0  0  0  0  0  0  0
  -20.2857   16.2415  -29.8039 C   0  0  0  0  0  0  0  0  0  0  0  0
  -20.3978   17.1972  -26.2339 C   0  0  0  0  0  0  0  0  0  0  0  0
  -24.9133   17.4964  -29.8067 C   0  0  0  0  0  0  0  0  0  0  0  0
  3  1  2  0
  5  3  1  0
 10  4  2  0
 10  9  1  0
 11  5  1  0
 11  7  1  0
 13 12  1  0
 14  1  1  0
 15  6  1  0
 16 13  1  0
 17  9  1  0
 18  5  2  0
 18 14  1  0
 19  2  1  0
 20 16  1  0
 21  8  1  0
 21  9  1  0
 21 12  1  0
 22  4  1  0
 22  7  1  0
 22 17  1  0
 22 19  1  0
 23 15  1  0
 23 20  1  0
M  END
>  <ID>  (1) 
conformer_0

$$$$
