
     RDKit          3D

 20 22  0  0  0  0  0  0  0  0999 V2000
  -25.8720   17.6959  -23.9992 C   0  0  0  0  0  0  0  0  0  0  0  0
  -21.6194   17.6420  -27.7396 C   0  0  0  0  0  3  0  0  0  0  0  0
  -24.9680   18.1187  -24.8456 C   0  0  0  0  0  0  0  0  0  0  0  0
  -20.8361   17.0902  -28.7396 C   0  0  0  0  0  0  0  0  0  0  0  0
  -23.6835   17.6477  -24.3673 C   0  0  0  0  0  0  0  0  0  0  0  0
  -18.3727   15.7651  -28.4938 C   0  0  0  0  0  0  0  0  0  0  0  0
  -19.3659   16.6052  -28.1081 N   0  0  0  0  0  0  0  0  0  0  0  0
  -19.9900   16.3702  -30.1911 O   0  0  0  0  0  0  0  0  0  0  0  0
  -22.2488   17.0582  -29.9380 C   0  0  0  0  0  0  0  0  0  0  0  0
  -22.0808   16.9472  -30.5579 C   0  0  0  0  0  0  0  0  0  0  0  0
  -22.4486   18.3033  -25.1461 O   0  0  0  0  0  0  0  0  0  0  0  0
  -24.2138   17.6643  -30.5187 O   0  0  0  0  0  0  0  0  0  0  0  0
  -25.6019   16.9442  -22.7985 C   0  0  0  0  0  0  0  0  0  0  0  0
  -22.4148   18.0331  -26.4840 C   0  0  0  0  0  0  0  0  0  0  0  0
  -18.6062   16.6586  -25.9719 C   0  0  0  0  0  0  0  0  0  0  0  0
  -24.4231   17.7411  -31.0706 C   0  0  0  0  0  0  0  0  0  0  0  0
  -23.9358   16.8667  -22.9027 C   0  0  0  0  0  0  0  0  0  0  0  0
  -20.7732   17.2874  -26.5101 C   0  0  0  0  0  0  0  0  0  0  0  0
  -23.7927   17.5530  -28.4731 O   0  0  0  0  0  0  0  0  0  0  0  0
  -19.7010   16.9900  -27.0739 C   0  0  0  0  0  0  0  0  0  0  0  0
  3  1  2  0
  4  2  1  0
  5  3  1  0
  7  4  1  0
  7  6  1  0
  8  4  1  0
  9  4  1  0
 10  9  1  0
 11  5  1  0
 12  9  1  0
 13  1  1  0
 14  2  1  0
 14 11  1  0
 16 12  1  0
 17  5  2  0
 17 13  1  0
 18  2  1  0
 18 14  1  0
 19  9  1  0
 20  7  1  0
 20 15  1  0
 20 18  2  0
M  RAD  1   2   2
M  END
>  <ID>  (1) 
conformer_0

$$$$
