
     RDKit          3D

 17 19  0  0  0  0  0  0  0  0999 V2000
  -23.8897   16.9184  -22.6180 C   0  0  0  0  0  0  0  0  0  0  0  0
  -25.4298   16.9294  -22.5619 C   0  0  0  0  0  0  0  0  0  0  0  0
  -20.0984   17.2089  -26.3820 C   0  0  0  0  0  0  0  0  0  0  0  0
  -23.5603   17.6349  -24.1768 C   0  0  0  0  0  0  0  0  0  0  0  0
  -21.0726   17.0733  -28.4304 C   0  0  0  0  0  0  0  0  0  0  0  0
  -18.3501   15.4930  -29.0654 C   0  0  0  0  0  0  0  0  0  0  0  0
  -21.6336   17.8529  -25.5903 C   0  0  0  0  0  0  0  0  0  0  0  0
  -22.2403   17.0100  -30.5180 C   0  0  0  0  0  0  0  0  0  0  0  0
  -24.3341   17.4147  -29.9626 O   0  0  0  0  0  0  0  0  0  0  0  0
  -22.1102   17.8631  -24.6686 O   0  0  0  0  0  0  0  0  0  0  0  0
  -24.3297   17.7668  -30.7993 C   0  0  0  0  0  0  0  0  0  0  0  0
  -19.4568   16.5348  -28.4697 N   0  0  0  0  0  0  0  0  0  0  0  0
  -25.9203   17.4195  -23.6238 C   0  0  0  0  0  0  0  0  0  0  0  0
  -25.1323   17.8358  -24.6171 C   0  0  0  0  0  0  0  0  0  0  0  0
  -22.0681   17.1006  -29.7469 C   0  0  0  0  0  0  0  0  0  0  0  0
  -21.2001   17.4896  -27.2369 C   0  0  0  0  0  0  0  0  0  0  0  0
  -19.4224   16.8337  -27.5010 C   0  0  0  0  0  0  0  0  0  0  0  0
  2  1  2  0
  4  1  1  0
  7  3  1  0
 10  4  1  0
 10  7  1  0
 11  8  1  0
 11  9  1  0
 12  5  1  0
 12  6  1  0
 13  2  1  0
 14  4  1  0
 14 13  2  0
 15  5  1  0
 15  8  1  0
 16  3  1  0
 16  5  2  0
 16  7  1  0
 17  3  2  0
 17 12  1  0
M  END
>  <ID>  (1) 
conformer_0

$$$$
