
     RDKit          3D

 21 22  0  0  0  0  0  0  0  0999 V2000
  -25.1618   16.7956  -22.5131 C   0  0  0  0  0  0  0  0  0  0  0  0
  -23.2404   17.3845  -23.5574 C   0  0  0  0  0  0  0  0  0  0  0  0
  -25.8044   17.4070  -23.4830 C   0  0  0  0  0  0  0  0  0  0  0  0
  -21.0142   17.4249  -27.3275 C   0  0  2  0  0  0  0  0  0  0  0  0
  -19.7605   17.0305  -26.5225 C   0  0  1  0  0  0  0  0  0  0  0  0
  -19.4624   16.4627  -28.1159 N   0  0  0  0  0  0  0  0  0  0  0  0
  -18.8315   17.1170  -25.2643 C   0  0  0  0  0  0  0  0  0  0  0  0
  -24.2519   18.0639  -31.0783 C   0  0  0  0  0  0  0  0  0  0  0  0
  -24.4990   17.4059  -30.0787 O   0  0  0  0  0  0  0  0  0  0  0  0
  -20.5024   16.0257  -30.2358 O   0  0  0  0  0  0  0  0  0  0  0  0
  -22.4744   16.6494  -30.8378 C   0  0  0  0  0  0  0  0  0  0  0  0
  -22.3882   17.8630  -24.9241 O   0  0  0  0  0  0  0  0  0  0  0  0
  -21.6089   17.6352  -25.4575 C   0  0  0  0  0  0  0  0  0  0  0  0
  -25.0814   18.0146  -24.5087 C   0  0  0  0  0  0  0  0  0  0  0  0
  -18.3788   15.7603  -28.4523 C   0  0  0  0  0  0  0  0  0  0  0  0
  -21.6622   16.3180  -30.2692 C   0  0  0  0  0  0  0  0  0  0  0  0
  -20.6148   16.8315  -28.4646 C   0  0  1  0  0  0  0  0  0  0  0  0
  -22.3455   17.6023  -28.6908 C   0  0  0  0  0  3  0  0  0  0  0  0
  -23.6182   16.6970  -22.6838 C   0  0  0  0  0  0  0  0  0  0  0  0
  -23.3703   17.7451  -29.1034 C   0  0  0  0  0  0  0  0  0  0  0  0
  -23.7358   17.8790  -24.8628 C   0  0  0  0  0  0  0  0  0  0  0  0
  3  1  2  0
  5  4  1  0
  6  5  1  0
  5  7  1  6
  9  8  1  0
  4 13  1  1
 13 12  1  0
 14  3  1  0
 15  6  1  0
 16 10  1  0
 16 11  2  3
 17  4  1  0
 17  6  1  0
 17 10  1  1
 18 17  1  0
 19  1  1  0
 19  2  2  0
 20  9  1  0
 20 18  2  3
 21  2  1  0
 21 12  1  0
 21 14  2  0
M  RAD  1  18   2
M  END
>  <ID>  (1) 
conformer_0

$$$$
