
     RDKit          3D

 21 23  0  0  0  0  0  0  0  0999 V2000
  -25.9658   18.0517  -24.0292 C   0  0  0  0  0  0  0  0  0  0  0  0
  -24.7889   18.1344  -24.7482 C   0  0  0  0  0  0  0  0  0  0  0  0
  -20.4882   17.2312  -26.8261 C   0  0  0  0  0  0  0  0  0  0  0  0
  -19.6147   16.7545  -27.2046 C   0  0  0  0  0  0  0  0  0  0  0  0
  -22.3381   17.2046  -30.7517 C   0  0  0  0  0  0  0  0  0  0  0  0
  -22.2423   17.8673  -24.9244 O   0  0  0  0  0  0  0  0  0  0  0  0
  -22.4084   17.9665  -26.2544 C   0  0  0  0  0  0  0  0  0  0  0  0
  -23.7092   17.6576  -24.2801 C   0  0  0  0  0  0  0  0  0  0  0  0
  -24.9641   16.6977  -22.4812 C   0  0  0  0  0  0  0  0  0  0  0  0
  -18.4036   15.6266  -28.9649 C   0  0  0  0  0  0  0  0  0  0  0  0
  -24.2013   17.7048  -29.3319 O   0  0  0  0  0  0  0  0  0  0  0  0
  -19.4277   16.3884  -28.1972 N   0  0  0  0  0  0  0  0  0  0  0  0
  -23.6863   17.6898  -30.0043 C   0  0  0  0  0  0  0  0  0  0  0  0
  -20.4224   15.5936  -30.1428 O   0  0  0  0  0  0  0  0  0  0  0  0
  -18.6993   17.0778  -25.5933 C   0  0  0  0  0  0  0  0  0  0  0  0
  -21.5363   16.5995  -30.1212 C   0  0  0  0  0  0  0  0  0  0  0  0
  -23.6033   16.8298  -23.1095 C   0  0  0  0  0  0  0  0  0  0  0  0
  -20.8461   16.7698  -28.6395 C   0  0  0  0  0  0  0  0  0  0  0  0
  -20.2284   17.9406  -25.5703 C   0  0  0  0  0  0  0  0  0  0  0  0
  -21.7692   17.4451  -27.8027 C   0  0  0  0  0  0  0  0  0  0  0  0
  -26.0025   17.3356  -22.8914 C   0  0  0  0  0  0  0  0  0  0  0  0
  2  1  2  0
  4  3  2  0
  7  6  1  0
  8  2  1  0
  8  6  1  0
 12  4  1  0
 12 10  1  0
 13  5  1  0
 13 11  2  0
 15  4  1  0
 16  5  1  0
 16 14  1  0
 17  8  2  0
 17  9  1  0
 18 12  1  0
 18 16  1  0
 19  3  1  0
 19 15  1  0
 20  3  1  0
 20  7  1  0
 20 18  2  0
 21  1  1  0
 21  9  2  0
M  END
>  <ID>  (1) 
conformer_0

$$$$
