
     RDKit          3D

 24 26  0  0  0  0  0  0  0  0999 V2000
  -23.5974   16.9671  -23.1046 C   0  0  0  0  0  0  0  0  0  0  0  0
  -21.1250   17.2890  -28.2982 C   0  0  1  0  0  0  0  0  0  0  0  0
  -24.8578   16.6962  -22.3209 C   0  0  0  0  0  0  0  0  0  0  0  0
  -24.0974   17.8132  -30.2994 C   0  0  0  0  0  0  0  0  0  0  0  0
  -20.4454   16.6598  -28.6010 C   0  0  2  0  0  0  0  0  0  0  0  0
  -22.0068   18.0310  -25.7301 C   0  0  1  0  0  0  0  0  0  0  0  0
  -19.1339   16.4869  -27.7552 N   0  0  0  0  0  0  0  0  0  0  0  0
  -23.7931   17.7266  -24.1728 C   0  0  0  0  0  0  0  0  0  0  0  0
  -17.4014   17.2506  -26.0285 C   0  0  0  0  0  0  0  0  0  0  0  0
  -22.1599   16.6950  -30.5327 C   0  0  0  0  0  0  0  0  0  0  0  0
  -25.9543   17.7848  -24.0287 C   0  0  0  0  0  0  0  0  0  0  0  0
  -24.5354   18.3783  -30.7590 O   0  0  0  0  0  0  0  0  0  0  0  0
  -22.5642   18.0049  -24.5026 O   0  0  0  0  0  0  0  0  0  0  0  0
  -20.2310   16.0627  -30.1845 O   0  0  0  0  0  0  0  0  0  0  0  0
  -23.9458   17.9874  -28.7748 O   0  0  0  0  0  0  0  0  0  0  0  0
  -18.0897   15.7985  -28.0365 C   0  0  0  0  0  0  0  0  0  0  0  0
  -21.6038   17.6752  -26.8416 C   0  0  0  0  0  3  0  0  0  0  0  0
  -21.7613   16.6889  -30.0287 C   0  0  0  0  0  0  0  0  0  0  0  0
  -24.9283   18.1335  -24.7361 C   0  0  0  0  0  0  0  0  0  0  0  0
  -19.3171   16.9229  -26.9128 C   0  0  0  0  0  0  0  0  0  0  0  0
  -22.9206   17.9325  -28.4830 C   0  0  0  0  0  0  0  0  0  0  0  0
  -23.2304   18.2695  -26.6784 O   0  0  0  0  0  0  0  0  0  0  0  0
  -26.0223   16.9777  -22.9950 C   0  0  0  0  0  0  0  0  0  0  0  0
  -20.2123   17.2929  -26.2202 C   0  0  0  0  0  0  0  0  0  0  0  0
  3  1  2  0
  5  2  1  0
  7  5  1  0
  8  1  1  0
 12  4  2  0
 13  6  1  0
 13  8  1  0
  5 14  1  6
 15  4  1  0
 16  7  1  0
 17  2  1  0
 17  6  1  0
 18  2  1  0
 18 10  2  3
 18 14  1  0
 19  8  2  0
 19 11  1  0
 20  7  1  0
 20  9  1  0
  2 21  1  6
 21 15  1  0
  6 22  1  6
 23  3  1  0
 23 11  2  0
 24 17  1  0
 24 20  2  0
M  RAD  1  17   2
M  END
>  <ID>  (1) 
conformer_0

$$$$
