
     RDKit          3D

 22 23  0  0  0  0  0  0  0  0999 V2000
  -25.0316   18.0536  -24.6423 C   0  0  0  0  0  0  0  0  0  0  0  0
  -20.4873   17.1938  -26.6367 C   0  0  0  0  0  0  0  0  0  0  0  0
  -25.7535   16.9666  -22.6605 C   0  0  0  0  0  0  0  0  0  0  0  0
  -24.4098   16.5996  -22.4803 C   0  0  0  0  0  0  0  0  0  0  0  0
  -20.6450   16.5420  -28.7348 C   0  0  0  0  0  0  0  0  0  0  0  0
  -23.0987   17.8191  -28.1561 C   0  0  0  0  0  0  0  0  0  0  0  0
  -23.7698   17.8045  -24.3878 C   0  0  0  0  0  0  0  0  0  0  0  0
  -19.3616   16.2753  -28.1836 N   0  0  0  0  0  0  0  0  0  0  0  0
  -21.8717   18.0460  -25.8533 C   0  0  0  0  0  0  0  0  0  0  0  0
  -22.0115   16.9924  -30.1404 C   0  0  0  0  0  0  0  0  0  0  0  0
  -18.3553   15.3855  -28.7566 C   0  0  0  0  0  0  0  0  0  0  0  0
  -23.8185   17.9758  -28.0241 O   0  0  0  0  0  0  0  0  0  0  0  0
  -18.0273   17.4168  -25.9892 C   0  0  0  0  0  0  0  0  0  0  0  0
  -20.3067   15.6672  -30.1351 O   0  0  0  0  0  0  0  0  0  0  0  0
  -22.5547   18.1657  -25.3027 O   0  0  0  0  0  0  0  0  0  0  0  0
  -19.3207   16.8533  -26.9566 C   0  0  0  0  0  0  0  0  0  0  0  0
  -24.1091   17.2868  -30.2056 O   0  0  0  0  0  0  0  0  0  0  0  0
  -23.3511   17.0400  -23.3193 C   0  0  0  0  0  0  0  0  0  0  0  0
  -24.4397   17.8072  -30.6055 C   0  0  0  0  0  0  0  0  0  0  0  0
  -21.3876   17.2718  -27.7438 C   0  0  0  0  0  0  0  0  0  0  0  0
  -22.1064   16.7975  -30.2154 C   0  0  0  0  0  0  0  0  0  0  0  0
  -25.9582   17.7524  -23.7234 C   0  0  0  0  0  0  0  0  0  0  0  0
  4  3  1  0
  7  1  2  0
  8  5  1  0
  9  2  1  0
 10  5  1  0
 11  8  1  0
 12  6  2  0
 14  5  1  0
 15  7  1  0
 15  9  1  0
 16  2  1  0
 16  8  1  0
 16 13  1  0
 18  4  2  0
 18  7  1  0
 19 17  1  0
 20  2  1  0
 20  5  1  0
 20  6  2  0
 21 10  1  0
 21 17  1  0
 22  1  1  0
 22  3  2  0
M  END
>  <ID>  (1) 
conformer_0

$$$$
