
     RDKit          3D

 21 23  0  0  0  0  0  0  0  0999 V2000
  -24.8175   16.6936  -22.4878 C   0  0  0  0  0  0  0  0  0  0  0  0
  -25.8705   17.2522  -23.0711 C   0  0  0  0  0  0  0  0  0  0  0  0
  -20.3264   17.2318  -26.4323 C   0  0  0  0  0  0  0  0  0  0  0  0
  -20.4860   16.7954  -28.6841 C   0  0  0  0  0  0  0  0  0  0  0  0
  -24.0536   17.7021  -30.6167 C   0  0  0  0  0  0  0  0  0  0  0  0
  -24.5460   18.1642  -24.7798 C   0  0  0  0  0  0  0  0  0  0  0  0
  -21.9955   18.1546  -24.9467 O   0  0  0  0  0  0  0  0  0  0  0  0
  -23.4647   17.6869  -24.3822 C   0  0  0  0  0  0  0  0  0  0  0  0
  -22.1092   16.7391  -30.5446 C   0  0  0  0  0  0  0  0  0  0  0  0
  -21.8846   18.0004  -25.9631 C   0  0  0  0  0  0  0  0  0  0  0  0
  -19.3772   16.3379  -28.1310 N   0  0  0  0  0  0  0  0  0  0  0  0
  -24.1834   18.0925  -29.4821 O   0  0  0  0  0  0  0  0  0  0  0  0
  -19.4915   15.4830  -30.0298 O   0  0  0  0  0  0  0  0  0  0  0  0
  -18.2610   16.9685  -25.6841 C   0  0  0  0  0  0  0  0  0  0  0  0
  -18.0617   15.6335  -28.2476 C   0  0  0  0  0  0  0  0  0  0  0  0
  -21.0792   16.1889  -30.2607 C   0  0  0  0  0  0  0  0  0  0  0  0
  -23.4270   16.8419  -23.1594 C   0  0  0  0  0  0  0  0  0  0  0  0
  -21.0967   17.4571  -27.6225 C   0  0  0  0  0  0  0  0  0  0  0  0
  -19.3151   16.5766  -27.0653 C   0  0  0  0  0  0  0  0  0  0  0  0
  -22.6600   17.6614  -29.1376 C   0  0  0  0  0  0  0  0  0  0  0  0
  -25.6617   17.9912  -24.2327 C   0  0  0  0  0  0  0  0  0  0  0  0
  2  1  2  0
  8  6  1  0
  8  7  1  0
 10  3  1  0
 10  7  1  0
 11  4  1  0
 12  5  1  0
 15 11  1  0
 16  4  1  0
 16  9  1  0
 16 13  1  0
 17  1  1  0
 17  8  2  0
 18  3  1  0
 18  4  2  0
 18 10  1  0
 19  3  2  0
 19 11  1  0
 19 14  1  0
 20  9  1  0
 20 12  1  0
 21  2  1  0
 21  6  2  0
M  END
>  <ID>  (1) 
conformer_0

$$$$
