
     RDKit          3D

 22 23  0  0  0  0  0  0  0  0999 V2000
  -25.9550   17.3947  -22.7840 C   0  0  0  0  0  0  0  0  0  0  0  0
  -25.9925   17.8436  -24.0036 C   0  0  0  0  0  0  0  0  0  0  0  0
  -21.7372   17.3166  -27.8711 C   0  0  0  0  0  0  0  0  0  0  0  0
  -22.2966   16.4914  -30.4979 C   0  0  0  0  0  0  0  0  0  0  0  0
  -18.5353   15.1607  -28.1308 C   0  0  0  0  0  0  0  0  0  0  0  0
  -24.1303   17.7124  -30.8165 C   0  0  0  0  0  0  0  0  0  0  0  0
  -19.7297   16.2186  -28.1343 N   0  0  0  0  0  0  0  0  0  0  0  0
  -22.3261   18.1441  -24.9047 O   0  0  0  0  0  0  0  0  0  0  0  0
  -21.0949   16.6569  -28.7119 C   0  0  0  0  0  0  0  0  0  0  0  0
  -23.6640   17.6434  -24.1586 C   0  0  0  0  0  0  0  0  0  0  0  0
  -19.9653   15.6092  -30.3189 O   0  0  0  0  0  0  0  0  0  0  0  0
  -21.9270   18.2793  -25.8719 C   0  0  0  0  0  0  0  0  0  0  0  0
  -23.6296   17.7435  -28.4398 O   0  0  0  0  0  0  0  0  0  0  0  0
  -25.0613   16.5685  -22.4516 C   0  0  0  0  0  0  0  0  0  0  0  0
  -18.8079   17.4360  -25.4622 C   0  0  0  0  0  0  0  0  0  0  0  0
  -21.0602   16.4523  -30.1263 C   0  0  0  0  0  0  0  0  0  0  0  0
  -23.4937   17.5728  -28.6992 C   0  0  0  0  0  0  0  0  0  0  0  0
  -19.7845   16.8464  -27.0546 C   0  0  0  0  0  0  0  0  0  0  0  0
  -24.7560   18.1678  -24.5802 C   0  0  0  0  0  0  0  0  0  0  0  0
  -23.6254   16.8737  -22.9821 C   0  0  0  0  0  0  0  0  0  0  0  0
  -20.7663   17.4332  -26.6443 C   0  0  0  0  0  0  0  0  0  0  0  0
  -24.3020   17.4443  -30.2230 O   0  0  0  0  0  0  0  0  0  0  0  0
  2  1  2  0
  7  5  1  0
  9  3  2  0
  9  7  1  0
 10  8  1  0
 12  8  1  0
 14  1  1  0
 16  4  2  3
 16  9  1  0
 16 11  1  0
 17  3  1  0
 17 13  2  0
 18  7  1  0
 18 15  1  0
 19  2  1  0
 19 10  2  0
 20 10  1  0
 20 14  2  0
 21  3  1  0
 21 12  1  0
 21 18  2  0
 22  6  1  0
 22 17  1  0
M  END
>  <ID>  (1) 
conformer_0

$$$$
