
     RDKit          3D

 20 21  0  0  0  0  0  0  0  0999 V2000
  -25.3632   16.8846  -22.5572 C   0  0  0  0  0  0  0  0  0  0  0  0
  -20.4946   17.3061  -26.4799 C   0  0  0  0  0  0  0  0  0  0  0  0
  -25.1493   18.0863  -24.6400 C   0  0  0  0  0  0  0  0  0  0  0  0
  -23.1689   17.7661  -29.3020 C   0  0  0  0  0  0  0  0  0  0  0  0
  -21.9231   18.0044  -25.8959 C   0  0  0  0  0  0  0  0  0  0  0  0
  -19.3120   16.3315  -28.2910 N   0  0  0  0  0  0  0  0  0  0  0  0
  -20.5123   16.7577  -28.6333 C   0  0  0  0  0  0  0  0  0  0  0  0
  -23.6824   17.7998  -24.2400 C   0  0  0  0  0  0  0  0  0  0  0  0
  -23.8916   16.8558  -22.8381 C   0  0  0  0  0  0  0  0  0  0  0  0
  -22.3186   18.2081  -24.7977 O   0  0  0  0  0  0  0  0  0  0  0  0
  -18.2476   15.6804  -28.7397 C   0  0  0  0  0  0  0  0  0  0  0  0
  -24.0820   17.6871  -30.2742 O   0  0  0  0  0  0  0  0  0  0  0  0
  -19.5972   15.4616  -30.4557 O   0  0  0  0  0  0  0  0  0  0  0  0
  -22.0174   16.8541  -30.1419 C   0  0  0  0  0  0  0  0  0  0  0  0
  -24.4882   17.9040  -31.2160 C   0  0  0  0  0  0  0  0  0  0  0  0
  -23.3968   18.1435  -27.8415 O   0  0  0  0  0  0  0  0  0  0  0  0
  -25.9502   17.6478  -23.6146 C   0  0  0  0  0  0  0  0  0  0  0  0
  -21.1591   17.3818  -27.7183 C   0  0  0  0  0  0  0  0  0  0  0  0
  -21.3893   16.5921  -30.0825 C   0  0  0  0  0  0  0  0  0  0  0  0
  -19.3353   16.6625  -26.8932 C   0  0  0  0  0  0  0  0  0  0  0  0
  5  2  1  0
  7  6  1  0
  8  3  2  0
  9  1  2  0
  9  8  1  0
 10  5  1  0
 10  8  1  0
 11  6  1  0
 12  4  1  0
 14  4  1  0
 15 12  1  0
 16  4  2  0
 17  1  1  0
 17  3  1  0
 18  2  1  0
 18  7  2  0
 19  7  1  0
 19 13  1  0
 19 14  2  3
 20  2  2  0
 20  6  1  0
M  END
>  <ID>  (1) 
conformer_0

$$$$
