
     RDKit          3D

 21 22  0  0  0  0  0  0  0  0999 V2000
  -25.8083   18.1139  -23.9038 C   0  0  0  0  0  0  0  0  0  0  0  0
  -24.7276   18.2802  -24.6481 C   0  0  0  0  0  0  0  0  0  0  0  0
  -21.4117   17.3086  -27.8843 C   0  0  0  0  0  0  0  0  0  0  0  0
  -24.4119   18.0236  -31.2436 C   0  0  0  0  0  0  0  0  0  0  0  0
  -20.4936   16.4853  -28.5347 C   0  0  0  0  0  0  0  0  0  0  0  0
  -24.6887   16.5222  -22.5350 C   0  0  0  0  0  0  0  0  0  0  0  0
  -22.5324   18.0798  -24.9011 O   0  0  0  0  0  0  0  0  0  0  0  0
  -21.7842   18.0941  -26.0267 C   0  0  0  0  0  0  0  0  0  0  0  0
  -23.5565   17.8198  -24.2524 C   0  0  0  0  0  0  0  0  0  0  0  0
  -24.0904   17.3999  -29.8530 O   0  0  0  0  0  0  0  0  0  0  0  0
  -19.1238   17.3430  -25.4068 C   0  0  0  0  0  0  0  0  0  0  0  0
  -23.0963   17.5669  -29.8269 C   0  0  0  0  0  0  0  0  0  0  0  0
  -19.4873   16.1420  -28.1282 N   0  0  0  0  0  0  0  0  0  0  0  0
  -20.5718   15.6377  -30.1309 O   0  0  0  0  0  0  0  0  0  0  0  0
  -18.3347   15.2946  -28.5578 C   0  0  0  0  0  0  0  0  0  0  0  0
  -22.0248   16.8582  -30.9161 C   0  0  0  0  0  0  0  0  0  0  0  0
  -23.4058   16.8291  -23.2161 C   0  0  0  0  0  0  0  0  0  0  0  0
  -19.3706   16.7219  -26.7132 C   0  0  0  0  0  0  0  0  0  0  0  0
  -20.5259   17.2871  -26.6722 C   0  0  0  0  0  0  0  0  0  0  0  0
  -21.0563   16.4784  -30.2839 C   0  0  0  0  0  0  0  0  0  0  0  0
  -25.8716   17.2221  -22.8419 C   0  0  0  0  0  0  0  0  0  0  0  0
  2  1  2  0
  5  3  2  0
  8  7  1  0
  9  2  1  0
  9  7  1  0
 10  4  1  0
 12 10  1  0
 13  5  1  0
 15 13  1  0
 16 12  1  0
 17  6  1  0
 17  9  2  0
 18 11  1  0
 18 13  1  0
 19  3  1  0
 19  8  1  0
 19 18  2  0
 20  5  1  0
 20 14  2  0
 20 16  1  0
 21  1  1  0
 21  6  2  0
M  END
>  <ID>  (1) 
conformer_0

$$$$
