
     RDKit          3D

 21 22  0  0  0  0  0  0  0  0999 V2000
  -25.9903   17.4556  -23.2066 C   0  0  0  0  0  0  0  0  0  0  0  0
  -25.7597   18.1212  -24.4037 C   0  0  0  0  0  0  0  0  0  0  0  0
  -21.2033   17.5613  -27.8352 C   0  0  0  0  0  0  0  0  0  0  0  0
  -20.6441   16.7364  -28.6180 C   0  0  0  0  0  0  0  0  0  0  0  0
  -19.4290   16.1904  -27.8190 N   0  0  0  0  0  0  0  0  0  0  0  0
  -22.1918   18.0538  -25.0112 O   0  0  0  0  0  0  0  0  0  0  0  0
  -24.2689   17.2450  -30.5697 C   0  0  0  0  0  0  0  0  0  0  0  0
  -23.4529   17.7338  -24.3825 C   0  0  0  0  0  0  0  0  0  0  0  0
  -24.9675   16.8287  -22.6363 C   0  0  0  0  0  0  0  0  0  0  0  0
  -20.0012   15.6567  -30.2371 O   0  0  0  0  0  0  0  0  0  0  0  0
  -22.0289   16.8871  -30.2567 C   0  0  0  0  0  0  0  0  0  0  0  0
  -18.3561   15.4421  -27.8522 C   0  0  0  0  0  0  0  0  0  0  0  0
  -24.2570   17.5751  -29.8488 O   0  0  0  0  0  0  0  0  0  0  0  0
  -21.6249   18.1456  -25.8939 C   0  0  0  0  0  0  0  0  0  0  0  0
  -21.1304   16.3654  -30.2870 C   0  0  0  0  0  0  0  0  0  0  0  0
  -24.6181   18.2384  -24.8877 C   0  0  0  0  0  0  0  0  0  0  0  0
  -19.8221   16.6922  -26.8214 C   0  0  0  0  0  0  0  0  0  0  0  0
  -22.8751   17.6840  -28.9262 C   0  0  0  0  0  0  0  0  0  0  0  0
  -23.5265   17.9040  -27.9661 O   0  0  0  0  0  0  0  0  0  0  0  0
  -20.4525   17.2715  -26.3554 C   0  0  0  0  0  0  0  0  0  0  0  0
  -23.5867   16.9487  -23.2203 C   0  0  0  0  0  0  0  0  0  0  0  0
  2  1  2  0
  4  3  2  0
  5  4  1  0
  8  6  1  0
  9  1  1  0
 12  5  1  0
 13  7  1  0
 14  6  1  0
 15  4  1  0
 15 10  1  0
 15 11  1  0
 16  2  1  0
 16  8  2  0
 17  5  1  0
 18 11  1  0
 18 13  1  0
 19 18  1  0
 20  3  1  0
 20 14  1  0
 20 17  2  0
 21  8  1  0
 21  9  2  0
M  END
>  <ID>  (1) 
conformer_0

$$$$
