
     RDKit          3D

 22 23  0  0  0  0  0  0  0  0999 V2000
  -25.8056   18.0532  -24.1521 C   0  0  0  0  0  0  0  0  0  0  0  0
  -23.6078   16.7605  -23.0001 C   0  0  0  0  0  0  0  0  0  0  0  0
  -20.9262   17.4487  -27.7676 C   0  0  0  0  0  0  0  0  0  0  0  0
  -20.7440   16.7733  -28.5552 C   0  0  0  0  0  0  0  0  0  0  0  0
  -24.5786   17.5608  -30.7367 C   0  0  0  0  0  0  0  0  0  0  0  0
  -21.9440   17.3071  -30.3075 C   0  0  0  0  0  0  0  0  0  0  0  0
  -21.4085   17.9853  -25.6806 C   0  0  0  0  0  0  0  0  0  0  0  0
  -23.5907   17.6278  -24.1829 C   0  0  0  0  0  0  0  0  0  0  0  0
  -24.7487   18.2163  -24.7439 C   0  0  0  0  0  0  0  0  0  0  0  0
  -22.0815   17.8831  -24.5087 O   0  0  0  0  0  0  0  0  0  0  0  0
  -18.4684   16.7364  -26.1522 C   0  0  0  0  0  0  0  0  0  0  0  0
  -24.3715   17.3927  -29.7141 O   0  0  0  0  0  0  0  0  0  0  0  0
  -18.3067   15.5184  -29.4814 C   0  0  0  0  0  0  0  0  0  0  0  0
  -19.2538   16.2093  -28.4470 N   0  0  0  0  0  0  0  0  0  0  0  0
  -20.1741   15.8989  -30.0174 O   0  0  0  0  0  0  0  0  0  0  0  0
  -23.3100   17.7546  -29.3792 C   0  0  0  0  0  0  0  0  0  0  0  0
  -24.9918   16.6709  -22.4746 C   0  0  0  0  0  0  0  0  0  0  0  0
  -22.7957   17.8286  -25.8620 N   0  0  0  0  0  0  0  0  0  0  0  0
  -21.2167   16.3006  -30.4751 C   0  0  0  0  0  0  0  0  0  0  0  0
  -19.3591   16.5473  -27.3787 C   0  0  0  0  0  3  0  0  0  0  0  0
  -26.0172   17.3918  -22.9377 C   0  0  0  0  0  0  0  0  0  0  0  0
  -19.8901   16.9892  -26.5496 C   0  0  0  0  0  0  0  0  0  0  0  0
  4  3  2  0
  8  2  2  0
  9  1  2  0
  9  8  1  0
 10  7  1  0
 10  8  1  0
 12  5  1  0
 14  4  1  0
 14 13  1  0
 15  4  1  0
 16  6  1  0
 16 12  1  0
 17  2  1  0
 18  7  1  0
 19  6  1  0
 19 15  1  0
 20 14  1  0
 21  1  1  0
 21 17  2  0
 22  3  1  0
 22  7  1  0
 22 11  1  0
 22 20  1  0
M  RAD  1  20   2
M  END
>  <ID>  (1) 
conformer_0

$$$$
