
     RDKit          3D

 21 23  0  0  0  0  0  0  0  0999 V2000
  -25.6067   17.0402  -22.8186 C   0  0  0  0  0  0  0  0  0  0  0  0
  -20.9794   17.5508  -26.7363 C   0  0  0  0  0  0  0  0  0  0  0  0
  -25.1793   18.0627  -24.8939 C   0  0  0  0  0  0  0  0  0  0  0  0
  -23.8470   17.5456  -24.5156 C   0  0  0  0  0  0  0  0  0  0  0  0
  -21.6183   16.8772  -30.4018 C   0  0  0  0  0  0  0  0  0  0  0  0
  -20.5472   16.8491  -28.6940 C   0  0  0  0  0  0  0  0  0  0  0  0
  -22.3634   17.9180  -24.8552 O   0  0  0  0  0  0  0  0  0  0  0  0
  -19.3608   16.4698  -28.0652 N   0  0  0  0  0  0  0  0  0  0  0  0
  -18.1119   15.6871  -27.4540 C   0  0  0  0  0  0  0  0  0  0  0  0
  -18.9542   17.1576  -25.6570 C   0  0  0  0  0  0  0  0  0  0  0  0
  -22.6709   17.5617  -28.7616 C   0  0  0  0  0  0  0  0  0  0  0  0
  -22.0618   17.7938  -25.9788 C   0  0  0  0  0  0  0  0  0  0  0  0
  -23.7988   17.8353  -30.1434 O   0  0  0  0  0  0  0  0  0  0  0  0
  -24.0834   16.8622  -22.9789 C   0  0  0  0  0  0  0  0  0  0  0  0
  -20.0513   15.5196  -29.7256 O   0  0  0  0  0  0  0  0  0  0  0  0
  -23.6667   17.7614  -28.1504 O   0  0  0  0  0  0  0  0  0  0  0  0
  -21.5008   17.5444  -28.1114 C   0  0  0  0  0  0  0  0  0  0  0  0
  -24.0474   17.7300  -30.4845 C   0  0  0  0  0  0  0  0  0  0  0  0
  -19.8064   17.1187  -26.8995 C   0  0  0  0  0  0  0  0  0  0  0  0
  -18.9772   15.6978  -29.5053 C   0  0  0  0  0  0  0  0  0  0  0  0
  -26.0931   17.6746  -23.9369 C   0  0  0  0  0  0  0  0  0  0  0  0
  4  3  2  0
  7  4  1  0
  8  6  1  0
  9  8  1  0
 11  5  1  0
 12  2  1  0
 12  7  1  0
 13 11  1  0
 14  1  2  0
 14  4  1  0
 15  6  1  0
 16 11  1  0
 17  2  1  0
 17  6  1  0
 17 11  1  0
 18 13  1  0
 19  2  1  0
 19  6  1  0
 19  8  1  0
 19 10  1  0
 20 15  1  0
 21  1  1  0
 21  3  1  0
M  END
>  <ID>  (1) 
conformer_0

$$$$
