
     RDKit          3D

 20 21  0  0  0  0  0  0  0  0999 V2000
  -25.2527   16.7425  -22.6240 C   0  0  0  0  0  0  0  0  0  0  0  0
  -21.1620   17.3906  -27.3243 C   0  0  0  0  0  0  0  0  0  0  0  0
  -25.9458   17.5335  -23.5314 C   0  0  0  0  0  0  0  0  0  0  0  0
  -23.8451   17.5067  -30.1400 C   0  0  0  0  0  0  0  0  0  0  0  0
  -19.5694   17.0005  -26.9711 C   0  0  0  0  0  0  0  0  0  0  0  0
  -23.7941   17.7036  -24.3865 C   0  0  0  0  0  0  0  0  0  0  0  0
  -18.3134   15.5750  -28.7506 C   0  0  0  0  0  0  0  0  0  0  0  0
  -19.3749   16.3798  -28.1528 N   0  0  0  0  0  0  0  0  0  0  0  0
  -23.1692   18.0388  -27.9534 C   0  0  0  0  0  0  0  0  0  0  0  0
  -20.2856   15.6764  -30.2682 O   0  0  0  0  0  0  0  0  0  0  0  0
  -24.2028   17.9760  -30.3623 O   0  0  0  0  0  0  0  0  0  0  0  0
  -23.7404   16.7215  -23.0015 C   0  0  0  0  0  0  0  0  0  0  0  0
  -21.6079   16.6304  -30.1514 C   0  0  0  0  0  0  0  0  0  0  0  0
  -22.4248   17.9450  -24.6513 O   0  0  0  0  0  0  0  0  0  0  0  0
  -24.1093   17.8083  -28.0817 O   0  0  0  0  0  0  0  0  0  0  0  0
  -18.5803   17.1697  -25.8283 C   0  0  0  0  0  0  0  0  0  0  0  0
  -21.9665   18.1309  -25.8529 C   0  0  0  0  0  0  0  0  0  0  0  0
  -20.6724   16.6609  -28.6114 C   0  0  0  0  0  0  0  0  0  0  0  0
  -25.3059   18.1063  -24.5623 C   0  0  0  0  0  0  0  0  0  0  0  0
  -22.2579   16.8330  -29.9055 C   0  0  0  0  0  0  0  0  0  0  0  0
  3  1  2  0
  5  2  2  0
  8  5  1  0
  8  7  1  0
 11  4  1  0
 12  1  1  0
 12  6  1  0
 13 10  1  0
 14  6  1  0
 15  4  1  0
 15  9  1  0
 16  5  1  0
 17  2  1  0
 17 14  1  0
 18  2  1  0
 18  8  1  0
 18 13  1  0
 19  3  1  0
 19  6  2  0
 20  4  1  0
 20 13  1  0
M  END
>  <ID>  (1) 
conformer_0

$$$$
