
     RDKit          3D

 21 22  0  0  0  0  0  0  0  0999 V2000
  -26.0501   17.5900  -23.4921 C   0  0  0  0  0  0  0  0  0  0  0  0
  -21.4122   17.5809  -27.7605 C   0  0  0  0  0  0  0  0  0  0  0  0
  -25.1864   18.0436  -24.3992 C   0  0  0  0  0  0  0  0  0  0  0  0
  -20.6721   16.9596  -28.6558 C   0  0  0  0  0  0  0  0  0  0  0  0
  -24.0060   17.8031  -30.8453 C   0  0  0  0  0  0  0  0  0  0  0  0
  -23.7403   17.5430  -24.0663 C   0  0  0  0  0  0  0  0  0  0  0  0
  -19.1362   16.5907  -27.6319 N   0  0  0  0  0  0  0  0  0  0  0  0
  -22.4866   18.0398  -24.8823 O   0  0  0  0  0  0  0  0  0  0  0  0
  -22.2299   17.9541  -25.8878 C   0  0  0  0  0  0  0  0  0  0  0  0
  -25.5436   16.7449  -22.4923 C   0  0  0  0  0  0  0  0  0  0  0  0
  -18.0135   16.8950  -25.6227 C   0  0  0  0  0  0  0  0  0  0  0  0
  -22.2714   17.2729  -31.1571 C   0  0  0  0  0  0  0  0  0  0  0  0
  -24.1085   17.4137  -30.1517 O   0  0  0  0  0  0  0  0  0  0  0  0
  -21.3241   16.5734  -30.3718 C   0  0  0  0  0  0  0  0  0  0  0  0
  -18.2031   15.9828  -27.8782 C   0  0  0  0  0  0  0  0  0  0  0  0
  -20.4135   16.2483  -29.6998 O   0  0  0  0  0  0  0  0  0  0  0  0
  -23.7626   17.9087  -27.9860 O   0  0  0  0  0  0  0  0  0  0  0  0
  -23.4869   17.8054  -28.5884 C   0  0  0  0  0  0  0  0  0  0  0  0
  -20.7876   17.4331  -26.5383 C   0  0  0  0  0  0  0  0  0  0  0  0
  -24.0677   16.6394  -22.7813 C   0  0  0  0  0  0  0  0  0  0  0  0
  -19.5467   16.9496  -26.9207 C   0  0  0  0  0  0  0  0  0  0  0  0
  3  1  2  0
  4  2  2  0
  6  3  1  0
  7  4  1  0
  8  6  1  0
  9  8  1  0
 10  1  1  0
 12  5  1  0
 13  5  1  0
 14 12  1  0
 15  7  1  0
 16  4  1  0
 16 14  1  0
 18 13  1  0
 18 17  2  0
 19  2  1  0
 19  9  1  0
 20  6  2  0
 20 10  1  0
 21  7  1  0
 21 11  1  0
 21 19  2  0
M  END
>  <ID>  (1) 
conformer_0

$$$$
