
     RDKit          3D

 24 25  0  0  0  0  0  0  0  0999 V2000
  -25.7038   18.0787  -24.3855 C   0  0  0  0  0  0  0  0  0  0  0  0
  -17.7438   17.0479  -25.3736 C   0  0  0  0  0  0  0  0  0  0  0  0
  -21.2939   17.4153  -27.7676 C   0  0  0  0  0  0  0  0  0  0  0  0
  -24.4773   18.0481  -24.8215 C   0  0  0  0  0  0  0  0  0  0  0  0
  -24.3536   17.7130  -30.9880 C   0  0  0  0  0  0  0  0  0  0  0  0
  -20.5284   16.7306  -28.4697 C   0  0  0  0  0  0  0  0  0  0  0  0
  -22.1722   17.9687  -24.5813 O   0  0  0  0  0  0  0  0  0  0  0  0
  -22.0919   18.2090  -26.1071 C   0  0  0  0  0  0  0  0  0  0  0  0
  -26.1151   17.3525  -23.2319 C   0  0  0  0  0  0  0  0  0  0  0  0
  -23.5859   17.5468  -24.1459 C   0  0  0  0  0  0  0  0  0  0  0  0
  -24.1423   17.3043  -30.1716 O   0  0  0  0  0  0  0  0  0  0  0  0
  -18.8275   15.5643  -29.7718 C   0  0  0  0  0  0  0  0  0  0  0  0
  -19.3646   16.4018  -27.8768 N   0  0  0  0  0  0  0  0  0  0  0  0
  -21.9068   17.3695  -30.2769 C   0  0  0  0  0  0  0  0  0  0  0  0
  -23.2628   17.8787  -28.9668 C   0  0  0  0  0  0  0  0  0  0  0  0
  -21.3029   15.7372  -30.1891 O   0  0  0  0  0  0  0  0  0  0  0  0
  -25.1994   16.6974  -22.5266 C   0  0  0  0  0  0  0  0  0  0  0  0
  -23.7291   18.0192  -28.1902 O   0  0  0  0  0  0  0  0  0  0  0  0
  -19.6258   16.8751  -26.7043 C   0  0  0  0  0  0  0  0  0  0  0  0
  -21.7779   16.7767  -30.4284 C   0  0  0  0  0  0  0  0  0  0  0  0
  -19.1892   17.3812  -25.2954 C   0  0  0  0  0  0  0  0  0  0  0  0
  -20.6778   17.2780  -26.4572 C   0  0  0  0  0  0  0  0  0  0  0  0
  -18.1639   15.8568  -27.4701 C   0  0  0  0  0  0  0  0  0  0  0  0
  -23.8072   16.7059  -22.9793 C   0  0  0  0  0  0  0  0  0  0  0  0
  4  1  2  0
  6  3  2  0
  8  7  1  0
  9  1  1  0
 10  4  1  0
 10  7  1  0
 11  5  1  0
 13  6  1  0
 15 11  1  0
 15 14  1  0
 17  9  2  0
 18 15  2  0
 19 13  1  0
 20 12  1  0
 20 14  1  0
 20 16  1  0
 21  2  1  0
 21 19  1  0
 22  3  1  0
 22  8  1  0
 22 19  2  0
 23 12  1  0
 23 13  1  0
 24 10  2  0
 24 17  1  0
M  END
>  <ID>  (1) 
conformer_0

$$$$
