
     RDKit          3D

 24 25  0  0  0  0  0  0  0  0999 V2000
  -23.6083   16.7774  -23.1068 C   0  0  0  0  0  0  0  0  0  0  0  0
  -24.8387   16.4464  -22.4443 C   0  0  0  0  0  0  0  0  0  0  0  0
  -21.4017   17.4700  -27.8623 C   0  0  0  0  0  0  0  0  0  0  0  0
  -22.8942   17.3464  -30.4304 C   0  0  0  0  0  0  0  0  0  0  0  0
  -18.0512   15.8782  -28.8697 C   0  0  0  0  0  0  0  0  0  0  0  0
  -19.4776   17.0638  -26.7449 C   0  0  0  0  0  0  0  0  0  0  0  0
  -22.3276   18.0911  -24.5409 O   0  0  0  0  0  0  0  0  0  0  0  0
  -19.9831   15.6304  -30.3411 O   0  0  0  0  0  0  0  0  0  0  0  0
  -23.6593   17.6772  -24.3576 C   0  0  0  0  0  0  0  0  0  0  0  0
  -25.9115   17.7170  -24.0801 C   0  0  0  0  0  0  0  0  0  0  0  0
  -19.2033   16.4672  -28.0407 N   0  0  0  0  0  0  0  0  0  0  0  0
  -21.5102   18.1190  -25.7454 C   0  0  0  0  0  0  0  0  0  0  0  0
  -18.5463   17.1103  -25.5376 C   0  0  0  0  0  0  0  0  0  0  0  0
  -24.7525   17.9656  -30.7855 O   0  0  0  0  0  0  0  0  0  0  0  0
  -20.7831   16.4238  -30.0123 C   0  0  0  0  0  0  0  0  0  0  0  0
  -22.1590   16.6754  -30.2037 C   0  0  0  0  0  0  0  0  0  0  0  0
  -24.9041   18.0138  -24.7262 C   0  0  0  0  0  0  0  0  0  0  0  0
  -25.0548   17.8844  -28.7602 O   0  0  0  0  0  0  0  0  0  0  0  0
  -20.5235   16.7130  -28.5240 C   0  0  0  0  0  0  0  0  0  0  0  0
  -24.5188   17.8063  -29.8666 C   0  0  0  0  0  0  0  0  0  0  0  0
  -23.1189   17.9253  -27.8390 C   0  0  0  0  0  0  0  0  0  0  0  0
  -23.4309   18.2412  -26.4040 O   0  0  0  0  0  0  0  0  0  0  0  0
  -20.4469   17.4677  -26.6162 C   0  0  0  0  0  0  0  0  0  0  0  0
  -26.0104   16.9680  -22.9000 C   0  0  0  0  0  0  0  0  0  0  0  0
  2  1  2  0
  9  1  1  0
  9  7  1  0
 11  5  1  0
 11  6  1  0
 12  7  1  0
 13  6  1  0
 15  8  2  0
 16  4  1  0
 16 15  1  0
 17  9  2  0
 17 10  1  0
 19  3  2  0
 19 11  1  0
 19 15  1  0
 20  4  1  0
 20 14  2  0
 20 18  1  0
 21  3  1  0
 22 21  1  0
 23  3  1  0
 23  6  2  0
 23 12  1  0
 24  2  1  0
 24 10  2  0
M  END
>  <ID>  (1) 
conformer_0

$$$$
