
     RDKit          3D

 24 27  0  0  0  0  0  0  0  0999 V2000
  -25.9679   17.8438  -23.8623 C   0  0  0  0  0  0  0  0  0  0  0  0
  -24.7917   16.4899  -22.3882 C   0  0  0  0  0  0  0  0  0  0  0  0
  -21.1031   17.5201  -27.7982 C   0  0  0  0  0  3  0  0  0  0  0  0
  -19.1152   17.3424  -25.4177 C   0  0  0  0  0  0  0  0  0  0  0  0
  -23.4457   17.7404  -29.7457 C   0  0  0  0  0  0  0  0  0  0  0  0
  -21.8730   18.1154  -25.6868 C   0  0  0  0  0  0  0  0  0  0  0  0
  -23.5455   16.8454  -23.1215 C   0  0  0  0  0  0  0  0  0  0  0  0
  -20.4702   16.7927  -28.6925 C   0  0  0  0  0  0  0  0  0  0  0  0
  -22.6503   17.9938  -25.0859 O   0  0  0  0  0  0  0  0  0  0  0  0
  -23.6849   17.6966  -24.1501 C   0  0  0  0  0  0  0  0  0  0  0  0
  -21.7747   17.1799  -30.2392 C   0  0  0  0  0  0  0  0  0  0  0  0
  -24.3020   17.1903  -30.4607 O   0  0  0  0  0  0  0  0  0  0  0  0
  -19.2725   16.4825  -28.3718 N   0  0  0  0  0  0  0  0  0  0  0  0
  -25.1570   17.7881  -30.6542 C   0  0  0  0  0  0  0  0  0  0  0  0
  -18.3235   15.6384  -28.9723 C   0  0  0  0  0  0  0  0  0  0  0  0
  -19.9956   16.2214  -30.0466 O   0  0  0  0  0  0  0  0  0  0  0  0
  -24.8971   18.1670  -24.5392 C   0  0  0  0  0  0  0  0  0  0  0  0
  -23.5815   18.2251  -28.2253 O   0  0  0  0  0  0  0  0  0  0  0  0
  -22.3839   18.1293  -27.8105 C   0  0  0  0  0  0  0  0  0  0  0  0
  -18.1876   16.0722  -26.6104 C   0  0  0  0  0  0  0  0  0  0  0  0
  -19.3117   16.6908  -27.0258 C   0  0  0  0  0  3  0  0  0  0  0  0
  -20.2498   17.2053  -26.4869 C   0  0  0  0  0  0  0  0  0  0  0  0
  -25.9714   17.0599  -22.7500 C   0  0  0  0  0  0  0  0  0  0  0  0
  -21.7657   16.5686  -30.1470 C   0  0  0  0  0  0  0  0  0  0  0  0
  7  2  1  0
  8  3  1  0
  9  6  1  0
 10  7  2  0
 10  9  1  0
 11  5  1  0
 12  5  1  0
 13  8  1  0
 14 12  1  0
 15 13  1  0
 16  8  1  0
 17  1  2  0
 17 10  1  0
 18  5  1  0
 19  3  1  0
 19 18  1  0
 21 13  1  0
 21 20  1  0
 22  3  1  0
 22  4  1  0
 22  6  1  0
 22 21  1  0
 23  1  1  0
 23  2  2  0
 24  8  1  0
 24 11  1  0
 24 16  1  0
M  RAD  2   3   2  21   2
M  END
>  <ID>  (1) 
conformer_0

$$$$
