
     RDKit          3D

 20 21  0  0  0  0  0  0  0  0999 V2000
  -20.8106   17.3348  -26.6645 C   0  0  1  0  0  0  0  0  0  0  0  0
  -26.0222   17.5484  -23.5685 C   0  0  0  0  0  0  0  0  0  0  0  0
  -25.2388   16.6612  -22.7708 C   0  0  0  0  0  0  0  0  0  0  0  0
  -19.1590   16.4810  -27.8370 N   0  0  0  0  0  0  0  0  0  0  0  0
  -20.4440   16.5943  -28.8071 C   0  0  0  0  0  0  0  0  0  0  0  0
  -21.9518   17.9688  -25.7009 C   0  0  0  0  0  0  0  0  0  0  0  0
  -22.5715   17.2013  -29.6710 C   0  0  0  0  0  0  0  0  0  0  0  0
  -21.9560   16.6945  -30.4169 C   0  0  0  0  0  0  0  0  0  0  0  0
  -19.8284   16.1926  -29.8539 O   0  0  0  0  0  0  0  0  0  0  0  0
  -23.8220   17.7664  -24.7196 C   0  0  0  0  0  0  0  0  0  0  0  0
  -25.3027   18.1752  -24.6038 C   0  0  0  0  0  0  0  0  0  0  0  0
  -23.8442   17.2330  -29.7078 O   0  0  0  0  0  0  0  0  0  0  0  0
  -17.9163   17.1716  -25.7702 C   0  0  0  0  0  0  0  0  0  0  0  0
  -18.1214   15.8539  -27.9722 C   0  0  0  0  0  0  0  0  0  0  0  0
  -22.1625   18.4716  -25.0074 O   0  0  0  0  0  0  0  0  0  0  0  0
  -24.7352   17.4438  -30.7939 C   0  0  0  0  0  0  0  0  0  0  0  0
  -22.9206   18.5030  -27.3374 O   0  0  0  0  0  0  0  0  0  0  0  0
  -21.3793   17.4069  -27.9666 C   0  0  1  0  0  0  0  0  0  0  0  0
  -23.7974   16.7670  -23.4609 C   0  0  0  0  0  0  0  0  0  0  0  0
  -19.5921   16.9185  -26.8966 C   0  0  1  0  0  0  0  0  0  0  0  0
  3  2  2  0
  5  4  1  0
  1  6  1  6
  8  7  2  3
  9  5  2  0
 11  2  1  0
 11 10  1  0
 12  7  1  0
 14  4  1  0
 15  6  1  0
 15 10  1  0
 16 12  1  0
 17  6  2  0
 18  1  1  0
 18  5  1  0
 18  7  1  1
 19  3  1  0
 19 10  2  0
 20  1  1  0
 20  4  1  0
 20 13  1  6
M  END
>  <ID>  (1) 
conformer_0

$$$$
