
     RDKit          3D

 21 22  0  0  0  0  0  0  0  0999 V2000
  -25.8432   17.5933  -23.3421 C   0  0  0  0  0  0  0  0  0  0  0  0
  -21.2602   17.2917  -27.7056 C   0  0  0  0  0  0  0  0  0  0  0  0
  -25.1147   16.7440  -22.6490 C   0  0  0  0  0  0  0  0  0  0  0  0
  -23.6391   16.6471  -23.2004 C   0  0  0  0  0  0  0  0  0  0  0  0
  -20.8091   16.5980  -28.8081 C   0  0  0  0  0  0  0  0  0  0  0  0
  -21.9712   18.2308  -26.0301 C   0  0  0  0  0  0  0  0  0  0  0  0
  -23.6859   17.6212  -24.5200 C   0  0  0  0  0  0  0  0  0  0  0  0
  -19.2224   16.2557  -28.2749 N   0  0  0  0  0  0  0  0  0  0  0  0
  -22.2136   16.8450  -30.6934 C   0  0  0  0  0  0  0  0  0  0  0  0
  -24.4296   18.0301  -31.0823 C   0  0  0  0  0  0  0  0  0  0  0  0
  -18.0389   15.7974  -28.4259 C   0  0  0  0  0  0  0  0  0  0  0  0
  -24.3677   17.4598  -30.3240 O   0  0  0  0  0  0  0  0  0  0  0  0
  -19.8756   15.8492  -30.1191 O   0  0  0  0  0  0  0  0  0  0  0  0
  -21.4987   18.2584  -24.8521 O   0  0  0  0  0  0  0  0  0  0  0  0
  -22.7861   17.3312  -29.6111 C   0  0  0  0  0  0  0  0  0  0  0  0
  -25.1496   18.2144  -24.5090 C   0  0  0  0  0  0  0  0  0  0  0  0
  -20.3566   17.2105  -26.6554 C   0  0  0  0  0  0  0  0  0  0  0  0
  -23.6777   17.6684  -28.3930 O   0  0  0  0  0  0  0  0  0  0  0  0
  -18.5994   17.1533  -26.0938 C   0  0  0  0  0  0  0  0  0  0  0  0
  -19.4508   16.6495  -27.3880 C   0  0  0  0  0  0  0  0  0  0  0  0
  -20.6319   15.8462  -30.4286 C   0  0  0  0  0  0  0  0  0  0  0  0
  3  1  2  0
  4  3  1  0
  5  2  2  0
  7  4  2  0
  7  6  1  0
  8  5  1  0
 11  8  1  0
 12 10  1  0
 14  6  1  0
 15  9  1  0
 15 12  1  0
 16  1  1  0
 16  7  1  0
 17  2  1  0
 17  6  1  0
 18 15  1  0
 20  8  1  0
 20 17  2  0
 20 19  1  0
 21  5  1  0
 21  9  1  0
 21 13  1  0
M  END
>  <ID>  (1) 
conformer_0

$$$$
