
     RDKit          3D

 21 22  0  0  0  0  0  0  0  0999 V2000
  -25.4081   16.9861  -22.6271 C   0  0  0  0  0  0  0  0  0  0  0  0
  -25.9657   17.6570  -23.6536 C   0  0  0  0  0  0  0  0  0  0  0  0
  -21.2779   17.5353  -27.5039 C   0  0  0  0  0  0  0  0  0  0  0  0
  -23.7037   17.6730  -24.3388 C   0  0  0  0  0  0  0  0  0  0  0  0
  -20.6143   16.9088  -28.3904 C   0  0  0  0  0  3  0  0  0  0  0  0
  -23.7813   17.4540  -30.7780 C   0  0  0  0  0  0  0  0  0  0  0  0
  -21.9729   17.1918  -30.7513 C   0  0  0  0  0  0  0  0  0  0  0  0
  -18.5477   17.0598  -25.3884 C   0  0  0  0  0  0  0  0  0  0  0  0
  -22.7768   17.7776  -28.7682 C   0  0  0  0  0  0  0  0  0  0  0  0
  -19.6425   16.3651  -28.4088 N   0  0  0  0  0  0  0  0  0  0  0  0
  -21.0144   16.2768  -30.4473 C   0  0  0  0  0  0  0  0  0  0  0  0
  -24.1324   17.3442  -30.3103 O   0  0  0  0  0  0  0  0  0  0  0  0
  -18.5756   15.5683  -28.8383 C   0  0  0  0  0  0  0  0  0  0  0  0
  -23.8724   16.8237  -22.7705 C   0  0  0  0  0  0  0  0  0  0  0  0
  -22.2082   17.9409  -24.6202 O   0  0  0  0  0  0  0  0  0  0  0  0
  -20.0988   15.6261  -30.6486 O   0  0  0  0  0  0  0  0  0  0  0  0
  -23.6000   17.9254  -28.1058 O   0  0  0  0  0  0  0  0  0  0  0  0
  -19.2909   16.6888  -26.8019 C   0  0  0  0  0  0  0  0  0  0  0  0
  -25.2626   18.0346  -24.7400 C   0  0  0  0  0  0  0  0  0  0  0  0
  -20.3063   17.2093  -26.2995 C   0  0  0  0  0  0  0  0  0  0  0  0
  -22.1746   18.1702  -26.1160 C   0  0  0  0  0  0  0  0  0  0  0  0
  2  1  2  0
  5  3  1  0
  7  6  1  0
  9  3  1  0
 10  5  1  0
 11  7  2  0
 12  6  1  0
 12  9  1  0
 13 10  1  0
 14  1  1  0
 14  4  1  0
 15  4  1  0
 16 11  2  0
 17  9  2  0
 18  8  1  0
 18 10  1  0
 19  2  1  0
 19  4  2  0
 20  3  1  0
 20 18  2  0
 21  3  1  0
 21 15  1  0
M  RAD  1   5   2
M  END
>  <ID>  (1) 
conformer_0

$$$$
