
     RDKit          3D

 21 24  0  0  0  0  0  0  0  0999 V2000
  -23.8304   16.7267  -22.7342 C   0  0  0  0  0  0  0  0  0  0  0  0
  -21.1046   17.4290  -27.6526 C   0  0  0  0  0  3  0  0  0  0  0  0
  -25.7397   17.7903  -23.6402 C   0  0  0  0  0  0  0  0  0  0  0  0
  -23.5274   17.6062  -24.1433 C   0  0  0  0  0  0  0  0  0  0  0  0
  -23.4989   17.4881  -29.9379 C   0  0  0  0  0  0  0  0  0  0  0  0
  -19.0376   16.5066  -27.8948 N   0  0  0  0  0  0  0  0  0  0  0  0
  -20.4683   16.6194  -28.5333 C   0  0  0  0  0  0  0  0  0  0  0  0
  -18.3844   16.8965  -25.4838 C   0  0  0  0  0  0  0  0  0  0  0  0
  -22.4328   17.9754  -24.9711 O   0  0  0  0  0  0  0  0  0  0  0  0
  -22.0048   18.0565  -26.2361 C   0  0  0  0  0  0  0  0  0  0  0  0
  -18.2079   15.6931  -28.6378 C   0  0  0  0  0  0  0  0  0  0  0  0
  -24.8489   18.2083  -24.6512 C   0  0  0  0  0  0  0  0  0  0  0  0
  -24.6065   17.8052  -30.4241 O   0  0  0  0  0  0  0  0  0  0  0  0
  -20.2702   15.6602  -29.9306 O   0  0  0  0  0  0  0  0  0  0  0  0
  -22.0935   16.8266  -30.2633 C   0  0  0  0  0  0  0  0  0  0  0  0
  -25.1323   17.6966  -31.2566 C   0  0  0  0  0  0  0  0  0  0  0  0
  -23.0745   18.2134  -28.4493 O   0  0  0  0  0  0  0  0  0  0  0  0
  -20.5536   17.2495  -26.3816 C   0  0  0  0  0  0  0  0  0  0  0  0
  -25.3961   17.0355  -22.6317 C   0  0  0  0  0  0  0  0  0  0  0  0
  -19.2471   16.9174  -26.8908 C   0  0  0  0  0  0  0  0  0  0  0  0
  -21.6806   16.6301  -29.7693 C   0  0  0  0  0  0  0  0  0  0  0  0
  4  1  2  0
  7  2  1  0
  7  6  1  0
  9  4  1  0
 10  2  1  0
 10  9  1  0
 11  6  1  0
 12  3  2  0
 12  4  1  0
 13  5  1  0
 14  7  1  0
 15  5  1  0
 16 13  1  0
 17  5  2  0
 18  2  1  0
 18 10  1  0
 19  1  1  0
 19  3  1  0
 20  6  1  0
 20  8  1  0
 20 18  2  0
 21  7  1  0
 21 14  1  0
 21 15  1  0
M  RAD  1   2   2
M  END
>  <ID>  (1) 
conformer_0

$$$$
