
     RDKit          3D

 20 21  0  0  0  0  0  0  0  0999 V2000
  -25.4862   17.0101  -22.6380 C   0  0  0  0  0  0  0  0  0  0  0  0
  -21.4601   17.5951  -27.5133 C   0  0  0  0  0  0  0  0  0  0  0  0
  -25.8350   17.6820  -23.7916 C   0  0  0  0  0  0  0  0  0  0  0  0
  -24.4545   17.1279  -30.6232 C   0  0  0  0  0  0  0  0  0  0  0  0
  -19.5377   16.7893  -26.3857 C   0  0  0  0  0  0  0  0  0  0  0  0
  -19.5462   16.4130  -28.0509 N   0  0  0  0  0  0  0  0  0  0  0  0
  -20.5205   15.7462  -30.5941 O   0  0  0  0  0  0  0  0  0  0  0  0
  -18.4515   15.6289  -28.6389 C   0  0  0  0  0  0  0  0  0  0  0  0
  -23.4604   17.6471  -24.1026 C   0  0  0  0  0  0  0  0  0  0  0  0
  -22.1650   17.0883  -30.3057 C   0  0  0  0  0  0  0  0  0  0  0  0
  -21.7577   18.0486  -25.4494 C   0  0  0  0  0  0  0  0  0  0  0  0
  -24.1535   17.7017  -29.4881 O   0  0  0  0  0  0  0  0  0  0  0  0
  -21.0884   16.5519  -29.9044 C   0  0  0  0  0  0  0  0  0  0  0  0
  -24.8088   18.0278  -24.6557 C   0  0  0  0  0  0  0  0  0  0  0  0
  -21.6424   18.6804  -25.0290 O   0  0  0  0  0  0  0  0  0  0  0  0
  -19.2082   17.1189  -25.2543 C   0  0  0  0  0  0  0  0  0  0  0  0
  -23.9421   16.8673  -22.6793 C   0  0  0  0  0  0  0  0  0  0  0  0
  -20.6329   17.3316  -26.3046 C   0  0  0  0  0  0  0  0  0  0  0  0
  -20.5535   16.8950  -28.1353 C   0  0  0  0  0  0  0  0  0  0  0  0
  -23.0335   17.7154  -29.4747 C   0  0  0  0  0  0  0  0  0  0  0  0
  3  1  2  0
  6  5  1  0
  8  6  1  0
 11  9  1  0
 12  4  1  0
 13  7  2  0
 13 10  1  0
 14  3  1  0
 14  9  2  0
 15 11  2  0
 16  5  1  0
 17  1  1  0
 17  9  1  0
 18  2  1  0
 18  5  2  0
 18 11  1  0
 19  2  2  0
 19  6  1  0
 19 13  1  0
 20 10  1  0
 20 12  1  0
M  END
>  <ID>  (1) 
conformer_0

$$$$
