
     RDKit          3D

 21 24  0  0  0  0  0  0  0  0999 V2000
  -24.6418   16.6064  -22.4402 C   0  0  0  0  0  0  0  0  0  0  0  0
  -20.6472   17.4514  -26.6128 C   0  0  0  0  0  0  0  0  0  0  0  0
  -25.7190   17.8448  -24.0327 C   0  0  0  0  0  0  0  0  0  0  0  0
  -24.6621   18.0784  -24.7028 C   0  0  0  0  0  0  0  0  0  0  0  0
  -23.9781   17.6824  -30.8016 C   0  0  0  0  0  0  0  0  0  0  0  0
  -20.9665   17.1413  -28.6971 C   0  0  0  0  0  0  0  0  0  0  0  0
  -23.4130   17.6525  -24.2108 C   0  0  0  0  0  0  0  0  0  0  0  0
  -19.3139   16.4446  -28.0973 N   0  0  0  0  0  0  0  0  0  0  0  0
  -22.2663   18.1882  -24.9134 O   0  0  0  0  0  0  0  0  0  0  0  0
  -18.1776   15.7769  -28.5991 C   0  0  0  0  0  0  0  0  0  0  0  0
  -24.8283   17.4672  -30.2195 O   0  0  0  0  0  0  0  0  0  0  0  0
  -20.5322   15.6204  -30.3769 O   0  0  0  0  0  0  0  0  0  0  0  0
  -21.8754   18.0632  -25.8505 C   0  0  0  0  0  0  0  0  0  0  0  0
  -22.2466   17.0868  -30.3275 C   0  0  0  0  0  0  0  0  0  0  0  0
  -21.1206   16.5867  -30.1233 C   0  0  0  0  0  0  0  0  0  0  0  0
  -23.3368   16.7523  -23.0796 C   0  0  0  0  0  0  0  0  0  0  0  0
  -21.1836   17.5554  -27.8658 C   0  0  0  0  0  0  0  0  0  0  0  0
  -19.6294   16.7288  -27.2636 C   0  0  0  0  0  0  0  0  0  0  0  0
  -23.7157   17.4758  -28.3381 O   0  0  0  0  0  0  0  0  0  0  0  0
  -25.8270   17.0681  -22.9065 C   0  0  0  0  0  0  0  0  0  0  0  0
  -23.2510   17.6465  -29.1111 C   0  0  0  0  0  0  0  0  0  0  0  0
  4  3  1  0
  7  4  2  0
  8  6  1  0
  9  7  1  0
 10  8  1  0
 11  5  1  0
 13  2  1  0
 13  9  1  0
 14  5  1  0
 15  6  1  0
 15 12  2  0
 15 14  1  0
 16  1  2  0
 16  7  1  0
 17  2  1  0
 17  6  1  0
 18  2  1  0
 18  8  1  0
 18 17  2  0
 20  1  1  0
 20  3  2  0
 21  5  1  0
 21 14  1  0
 21 19  1  0
M  END
>  <ID>  (1) 
conformer_0

$$$$
