
     RDKit          3D

 21 23  0  0  0  0  0  0  0  0999 V2000
  -25.9709   17.9618  -23.6598 C   0  0  0  0  0  0  0  0  0  0  0  0
  -21.1432   17.5186  -27.5740 C   0  0  0  0  0  0  0  0  0  0  0  0
  -25.0103   18.2465  -24.6068 C   0  0  0  0  0  0  0  0  0  0  0  0
  -23.0210   17.5503  -28.7151 C   0  0  0  0  0  0  0  0  0  0  0  0
  -21.8513   16.5201  -30.2625 C   0  0  0  0  0  0  0  0  0  0  0  0
  -20.4672   16.9821  -28.5001 C   0  0  0  0  0  0  0  0  0  0  0  0
  -19.3096   16.5023  -28.1696 N   0  0  0  0  0  0  0  0  0  0  0  0
  -23.6217   17.5908  -24.1918 C   0  0  0  0  0  0  0  0  0  0  0  0
  -20.3579   16.2594  -30.3437 C   0  0  0  0  0  0  0  0  0  0  0  0
  -21.9258   17.7673  -25.8446 C   0  0  0  0  0  0  0  0  0  0  0  0
  -24.0864   16.7744  -22.9444 C   0  0  0  0  0  0  0  0  0  0  0  0
  -22.1706   17.6081  -24.6863 O   0  0  0  0  0  0  0  0  0  0  0  0
  -18.3274   15.7536  -28.4703 C   0  0  0  0  0  0  0  0  0  0  0  0
  -24.9819   17.4430  -29.9991 O   0  0  0  0  0  0  0  0  0  0  0  0
  -18.5192   16.8103  -25.6449 C   0  0  0  0  0  0  0  0  0  0  0  0
  -23.4468   17.7771  -28.0174 O   0  0  0  0  0  0  0  0  0  0  0  0
  -19.8817   15.3674  -30.3855 O   0  0  0  0  0  0  0  0  0  0  0  0
  -24.4887   17.5693  -30.3129 C   0  0  0  0  0  0  0  0  0  0  0  0
  -25.5686   17.0217  -22.6702 C   0  0  0  0  0  0  0  0  0  0  0  0
  -20.5414   17.3243  -26.2375 C   0  0  0  0  0  0  0  0  0  0  0  0
  -19.3041   16.8650  -26.7444 C   0  0  0  0  0  0  0  0  0  0  0  0
  3  1  2  0
  5  4  1  0
  6  2  2  0
  7  6  1  0
  8  3  1  0
  9  5  1  0
  9  6  1  0
 10  2  1  0
 11  8  2  0
 12  8  1  0
 12 10  1  0
 13  7  1  0
 16  4  2  0
 17  9  1  0
 18  4  1  0
 18 14  1  0
 19  1  1  0
 19 11  1  0
 20  2  1  0
 20 10  1  0
 21  7  1  0
 21 15  1  0
 21 20  2  0
M  END
>  <ID>  (1) 
conformer_0

$$$$
