
     RDKit          3D

 21 22  0  0  0  0  0  0  0  0999 V2000
  -25.2496   16.7175  -22.4801 C   0  0  0  0  0  0  0  0  0  0  0  0
  -25.9462   17.5911  -23.3711 C   0  0  0  0  0  0  0  0  0  0  0  0
  -20.5417   17.4071  -26.6582 C   0  0  0  0  0  0  0  0  0  0  0  0
  -22.9246   17.9017  -28.7360 C   0  0  0  0  0  0  0  0  0  0  0  0
  -23.7837   16.7201  -22.9476 C   0  0  0  0  0  0  0  0  0  0  0  0
  -20.3599   16.7510  -28.9186 C   0  0  2  0  0  0  0  0  0  0  0  0
  -23.5720   17.6237  -24.1527 C   0  0  0  0  0  0  0  0  0  0  0  0
  -19.1589   16.4078  -28.1195 N   0  0  0  0  0  0  0  0  0  0  0  0
  -19.8232   15.9283  -30.3604 O   0  0  0  0  0  0  0  0  0  0  0  0
  -21.9488   16.9692  -30.4658 C   0  0  0  0  0  0  0  0  0  0  0  0
  -21.6323   17.9763  -26.0217 C   0  0  1  0  0  0  0  0  0  0  0  0
  -21.6421   18.5859  -25.1793 O   0  0  0  0  0  0  0  0  0  0  0  0
  -24.2548   17.6712  -30.0433 O   0  0  0  0  0  0  0  0  0  0  0  0
  -18.3004   17.1154  -25.7307 C   0  0  0  0  0  0  0  0  0  0  0  0
  -18.2592   15.5613  -28.1980 C   0  0  0  0  0  0  0  0  0  0  0  0
  -25.1032   18.1073  -24.3345 C   0  0  0  0  0  0  0  0  0  0  0  0
  -24.2453   17.7183  -30.7339 C   0  0  0  0  0  0  0  0  0  0  0  0
  -22.9591   18.2693  -27.7452 N   0  0  0  0  0  0  0  0  0  0  0  0
  -21.1639   17.3774  -27.9706 C   0  0  0  0  0  3  0  0  0  0  0  0
  -19.3496   16.9908  -27.0177 C   0  0  0  0  0  0  0  0  0  0  0  0
  -21.6723   16.5872  -30.1010 C   0  0  0  0  0  0  0  0  0  0  0  0
  2  1  2  0
  5  1  1  0
  7  5  1  0
  8  6  1  0
  6  9  1  1
 11  3  1  0
 11  7  1  0
 11 12  1  1
 13  4  1  0
 15  8  1  0
 16  2  1  0
 16  7  2  0
 17 13  1  0
 18  4  2  3
 19  3  1  0
 19  4  1  0
 19  6  1  0
 20  3  2  0
 20  8  1  0
 20 14  1  0
 21  6  1  0
 21 10  2  3
M  RAD  1  19   2
M  END
>  <ID>  (1) 
conformer_0

$$$$
