
     RDKit          3D

 21 24  0  0  0  0  0  0  0  0999 V2000
  -23.9129   16.8078  -22.9971 C   0  0  0  0  0  0  0  0  0  0  0  0
  -25.4209   16.7915  -22.6702 C   0  0  0  0  0  0  0  0  0  0  0  0
  -21.5218   17.7094  -27.4345 C   0  0  0  0  0  0  0  0  0  0  0  0
  -23.7954   17.6825  -24.4909 C   0  0  0  0  0  0  0  0  0  0  0  0
  -18.4792   15.5966  -28.6486 C   0  0  0  0  0  0  0  0  0  0  0  0
  -19.6268   16.6595  -28.3270 N   0  0  0  0  0  0  0  0  0  0  0  0
  -20.7180   17.2635  -28.4228 C   0  0  0  0  0  0  0  0  0  0  0  0
  -22.0259   17.2841  -30.3418 C   0  0  0  0  0  0  0  0  0  0  0  0
  -22.9138   17.5479  -29.6421 C   0  0  0  0  0  0  0  0  0  0  0  0
  -22.4270   18.1547  -24.8430 O   0  0  0  0  0  0  0  0  0  0  0  0
  -18.5438   17.4189  -25.4523 C   0  0  0  0  0  0  0  0  0  0  0  0
  -20.6611   16.4494  -30.2262 C   0  0  0  0  0  0  0  0  0  0  0  0
  -20.4336   15.7255  -30.6073 O   0  0  0  0  0  0  0  0  0  0  0  0
  -26.0845   17.5596  -23.5708 C   0  0  0  0  0  0  0  0  0  0  0  0
  -24.1369   17.5411  -28.5920 O   0  0  0  0  0  0  0  0  0  0  0  0
  -21.9977   18.0526  -25.6183 C   0  0  0  0  0  0  0  0  0  0  0  0
  -25.2977   18.1522  -24.6256 C   0  0  0  0  0  0  0  0  0  0  0  0
  -20.4175   17.5628  -26.2888 C   0  0  0  0  0  0  0  0  0  0  0  0
  -19.5034   17.1525  -26.7247 C   0  0  0  0  0  0  0  0  0  0  0  0
  -25.1584   17.4725  -29.9207 C   0  0  0  0  0  0  0  0  0  0  0  0
  -24.3708   17.0433  -30.4268 O   0  0  0  0  0  0  0  0  0  0  0  0
  2  1  2  0
  4  1  1  0
  6  5  1  0
  7  3  2  0
  7  6  1  0
  9  8  1  0
 10  4  1  0
 12  7  1  0
 12  8  1  0
 13 12  2  0
 14  2  1  0
 15  9  1  0
 16  3  1  0
 16 10  1  0
 17  4  1  0
 17 14  2  0
 18  3  1  0
 18 16  1  0
 19  6  1  0
 19 11  1  0
 19 18  2  0
 20 15  1  0
 21  9  1  0
 21 20  1  0
M  END
>  <ID>  (1) 
conformer_0

$$$$
