
     RDKit          3D

 20 22  0  0  0  0  0  0  0  0999 V2000
  -25.4194   16.8100  -22.5317 C   0  0  0  0  0  0  0  0  0  0  0  0
  -20.5710   16.9918  -26.5129 C   0  0  0  0  0  0  0  0  0  0  0  0
  -26.0660   17.5770  -23.5226 C   0  0  0  0  0  0  0  0  0  0  0  0
  -25.2864   18.0440  -24.5632 C   0  0  0  0  0  0  0  0  0  0  0  0
  -21.5793   17.8195  -25.5641 C   0  0  0  0  0  0  0  0  0  0  0  0
  -23.7925   17.6641  -24.3153 C   0  0  0  0  0  0  0  0  0  0  0  0
  -23.4525   17.6287  -30.2453 C   0  0  0  0  0  0  0  0  0  0  0  0
  -20.6258   16.7433  -28.6460 C   0  0  0  0  0  0  0  0  0  0  0  0
  -22.5699   17.9264  -24.9984 O   0  0  0  0  0  0  0  0  0  0  0  0
  -22.1286   17.4545  -30.7008 C   0  0  0  0  0  0  0  0  0  0  0  0
  -24.1611   17.8310  -29.4432 O   0  0  0  0  0  0  0  0  0  0  0  0
  -19.7114   16.4625  -28.4228 N   0  0  0  0  0  0  0  0  0  0  0  0
  -18.5189   16.9065  -25.6745 C   0  0  0  0  0  0  0  0  0  0  0  0
  -21.3107   16.2330  -30.3758 C   0  0  0  0  0  0  0  0  0  0  0  0
  -20.2078   15.6897  -30.5659 O   0  0  0  0  0  0  0  0  0  0  0  0
  -18.2982   15.8108  -28.6255 C   0  0  0  0  0  0  0  0  0  0  0  0
  -23.9533   16.8423  -22.9751 C   0  0  0  0  0  0  0  0  0  0  0  0
  -21.3877   17.4924  -27.7281 C   0  0  0  0  0  0  0  0  0  0  0  0
  -19.5073   16.7384  -26.8712 C   0  0  0  0  0  0  0  0  0  0  0  0
  -22.7740   17.8973  -28.1909 C   0  0  0  0  0  0  0  0  0  0  0  0
  3  1  2  0
  4  3  1  0
  5  2  1  0
  6  4  2  0
  9  5  1  0
  9  6  1  0
 10  7  1  0
 11  7  1  0
 12  8  1  0
 14  8  1  0
 14 10  1  0
 15 14  1  0
 16 12  1  0
 17  1  1  0
 17  6  1  0
 18  2  1  0
 18  8  2  0
 19  2  2  0
 19 12  1  0
 19 13  1  0
 20 11  1  0
 20 18  1  0
M  END
>  <ID>  (1) 
conformer_0

$$$$
