
     RDKit          3D

 22 23  0  0  0  0  0  0  0  0999 V2000
  -25.7613   17.4305  -23.4106 C   0  0  0  0  0  0  0  0  0  0  0  0
  -25.0770   18.0734  -24.4458 C   0  0  0  0  0  0  0  0  0  0  0  0
  -20.7023   17.3634  -26.5093 C   0  0  0  0  0  0  0  0  0  0  0  0
  -23.5086   17.8615  -24.2581 C   0  0  0  0  0  0  0  0  0  0  0  0
  -20.6152   16.7669  -28.4704 C   0  0  0  0  0  0  0  0  0  0  0  0
  -24.1470   17.7433  -30.8311 C   0  0  0  0  0  0  0  0  0  0  0  0
  -22.3142   18.3112  -24.9668 O   0  0  0  0  0  0  0  0  0  0  0  0
  -22.1514   17.1723  -30.2591 C   0  0  0  0  0  0  0  0  0  0  0  0
  -24.9659   16.7954  -22.5535 C   0  0  0  0  0  0  0  0  0  0  0  0
  -18.5484   17.1393  -25.2872 C   0  0  0  0  0  0  0  0  0  0  0  0
  -21.6289   17.9650  -25.6378 C   0  0  0  0  0  0  0  0  0  0  0  0
  -24.6139   17.6310  -30.7857 O   0  0  0  0  0  0  0  0  0  0  0  0
  -21.2456   16.5190  -30.4409 C   0  0  0  0  0  0  0  0  0  0  0  0
  -20.5798   15.8358  -30.8724 O   0  0  0  0  0  0  0  0  0  0  0  0
  -19.6117   16.4292  -28.1548 N   0  0  0  0  0  0  0  0  0  0  0  0
  -18.6429   15.5769  -29.0044 C   0  0  0  0  0  0  0  0  0  0  0  0
  -23.4639   16.9463  -22.7943 C   0  0  0  0  0  0  0  0  0  0  0  0
  -19.5876   16.7955  -26.6081 C   0  0  0  0  0  0  0  0  0  0  0  0
  -21.4000   17.4469  -27.7278 C   0  0  0  0  0  0  0  0  0  0  0  0
  -18.0662   15.6042  -27.2767 C   0  0  0  0  0  0  0  0  0  0  0  0
  -23.5675   17.5067  -28.8475 C   0  0  0  0  0  0  0  0  0  0  0  0
  -23.9048   17.7050  -29.0489 O   0  0  0  0  0  0  0  0  0  0  0  0
  2  1  2  0
  4  2  1  0
  7  4  1  0
  9  1  1  0
 11  3  1  0
 11  7  1  0
 12  6  1  0
 13  5  1  0
 13  8  1  0
 14 13  2  0
 15  5  1  0
 16 15  1  0
 17  4  2  0
 17  9  1  0
 18  3  2  0
 18 10  1  0
 18 15  1  0
 19  3  1  0
 19  5  2  0
 20 16  1  0
 21  8  1  0
 22  6  1  0
 22 21  1  0
M  END
>  <ID>  (1) 
conformer_0

$$$$
