
     RDKit          3D

 19 21  0  0  0  0  0  0  0  0999 V2000
  -25.7596   17.4062  -23.5446 C   0  0  0  0  0  0  0  0  0  0  0  0
  -21.1321   17.3900  -27.8254 C   0  0  0  0  0  0  0  0  0  0  0  0
  -24.9847   17.9490  -24.5598 C   0  0  0  0  0  0  0  0  0  0  0  0
  -23.4467   17.5446  -24.3056 C   0  0  0  0  0  0  0  0  0  0  0  0
  -23.4487   17.8110  -30.3030 C   0  0  0  0  0  0  0  0  0  0  0  0
  -20.4243   16.7741  -28.5666 C   0  0  0  0  0  0  0  0  0  0  0  0
  -22.0601   18.1302  -24.7629 O   0  0  0  0  0  0  0  0  0  0  0  0
  -25.1792   16.7177  -22.5132 C   0  0  0  0  0  0  0  0  0  0  0  0
  -20.5206   15.7493  -30.6423 O   0  0  0  0  0  0  0  0  0  0  0  0
  -21.8948   18.0763  -26.0699 C   0  0  0  0  0  0  0  0  0  0  0  0
  -19.3507   16.5834  -28.1849 N   0  0  0  0  0  0  0  0  0  0  0  0
  -18.4635   15.8373  -28.9491 C   0  0  0  0  0  0  0  0  0  0  0  0
  -24.0889   17.4327  -29.0248 O   0  0  0  0  0  0  0  0  0  0  0  0
  -21.6300   16.6092  -29.9940 C   0  0  0  0  0  0  0  0  0  0  0  0
  -22.1691   17.2137  -30.1203 C   0  0  0  0  0  0  0  0  0  0  0  0
  -19.5660   17.1786  -25.3480 C   0  0  0  0  0  0  0  0  0  0  0  0
  -20.5775   17.2125  -26.3715 C   0  0  0  0  0  0  0  0  0  0  0  0
  -23.6107   16.6837  -22.8093 C   0  0  0  0  0  0  0  0  0  0  0  0
  -19.3669   16.9351  -26.7270 C   0  0  0  0  0  3  0  0  0  0  0  0
  3  1  2  0
  4  3  1  0
  6  2  2  0
  7  4  1  0
  8  1  1  0
 10  7  1  0
 11  6  1  0
 12 11  1  0
 13  5  1  0
 14  6  1  0
 14  9  1  0
 15  5  1  0
 15 14  1  0
 17  2  1  0
 17 10  1  0
 17 16  1  0
 18  4  2  0
 18  8  1  0
 19 11  1  0
 19 16  1  0
 19 17  1  0
M  RAD  1  19   2
M  END
>  <ID>  (1) 
conformer_0

$$$$
