
     RDKit          3D

 22 23  0  0  0  0  0  0  0  0999 V2000
  -23.3564   16.8677  -22.9890 C   0  0  0  0  0  0  0  0  0  0  0  0
  -24.4735   16.5128  -22.2577 C   0  0  0  0  0  0  0  0  0  0  0  0
  -20.4061   17.2345  -26.4657 C   0  0  0  0  0  0  0  0  0  0  0  0
  -20.6499   17.1064  -28.6845 C   0  0  0  0  0  0  0  0  0  0  0  0
  -22.2178   17.8959  -24.9188 O   0  0  0  0  0  0  0  0  0  0  0  0
  -25.8695   17.5742  -23.7003 C   0  0  0  0  0  0  0  0  0  0  0  0
  -19.5831   16.4789  -28.3296 N   0  0  0  0  0  0  0  0  0  0  0  0
  -24.2914   17.7181  -30.7828 C   0  0  0  0  0  0  0  0  0  0  0  0
  -23.5339   17.5817  -24.2206 C   0  0  0  0  0  0  0  0  0  0  0  0
  -22.1558   18.0360  -26.0357 C   0  0  0  0  0  0  0  0  0  0  0  0
  -18.5221   16.7682  -26.0636 C   0  0  0  0  0  0  0  0  0  0  0  0
  -21.8797   17.4737  -30.2653 C   0  0  0  0  0  0  0  0  0  0  0  0
  -23.7643   17.6374  -30.7294 O   0  0  0  0  0  0  0  0  0  0  0  0
  -18.6257   15.4313  -29.1757 C   0  0  0  0  0  0  0  0  0  0  0  0
  -20.3159   15.8606  -30.2985 O   0  0  0  0  0  0  0  0  0  0  0  0
  -21.5008   16.5302  -30.3699 C   0  0  0  0  0  0  0  0  0  0  0  0
  -24.8913   17.8543  -24.4594 C   0  0  0  0  0  0  0  0  0  0  0  0
  -19.4340   16.7391  -27.1410 C   0  0  0  0  0  0  0  0  0  0  0  0
  -23.6347   17.7636  -28.6420 O   0  0  0  0  0  0  0  0  0  0  0  0
  -23.1583   17.7813  -28.7642 C   0  0  0  0  0  0  0  0  0  0  0  0
  -21.3284   17.6860  -27.7738 C   0  0  0  0  0  0  0  0  0  0  0  0
  -25.7641   16.8089  -22.5869 C   0  0  0  0  0  0  0  0  0  0  0  0
  2  1  2  0
  7  4  1  0
  9  1  1  0
  9  5  1  0
 10  5  1  0
 13  8  1  0
 13 12  1  0
 14  7  1  0
 16  4  1  0
 16 12  1  0
 16 15  1  0
 17  6  1  0
 17  9  2  0
 18  3  2  0
 18  7  1  0
 18 11  1  0
 20 12  1  0
 20 19  2  0
 21  3  1  0
 21  4  2  0
 21 10  1  0
 22  2  1  0
 22  6  2  0
M  END
>  <ID>  (1) 
conformer_0

$$$$
