
     RDKit          3D

 21 22  0  0  0  0  0  0  0  0999 V2000
  -25.1792   18.0844  -24.3350 C   0  0  0  0  0  0  0  0  0  0  0  0
  -21.3940   17.4156  -27.7416 C   0  0  0  0  0  0  0  0  0  0  0  0
  -26.1722   17.6243  -23.5481 C   0  0  0  0  0  0  0  0  0  0  0  0
  -20.5456   16.4512  -28.8805 C   0  0  0  0  0  0  0  0  0  0  0  0
  -23.4602   17.8145  -30.8731 C   0  0  0  0  0  0  0  0  0  0  0  0
  -24.2286   16.7304  -22.8257 C   0  0  0  0  0  0  0  0  0  0  0  0
  -22.1103   18.2374  -24.9222 O   0  0  0  0  0  0  0  0  0  0  0  0
  -18.2058   15.2577  -28.6299 C   0  0  0  0  0  0  0  0  0  0  0  0
  -18.1760   16.7256  -25.7910 C   0  0  0  0  0  0  0  0  0  0  0  0
  -19.8047   15.7570  -29.8495 O   0  0  0  0  0  0  0  0  0  0  0  0
  -23.7770   17.6322  -23.9831 C   0  0  0  0  0  0  0  0  0  0  0  0
  -21.7913   18.0265  -25.5666 C   0  0  0  0  0  0  0  0  0  0  0  0
  -21.9885   16.3257  -30.6801 C   0  0  0  0  0  0  0  0  0  0  0  0
  -24.7474   17.4069  -29.3830 O   0  0  0  0  0  0  0  0  0  0  0  0
  -20.5625   17.2792  -26.6954 C   0  0  0  0  0  0  0  0  0  0  0  0
  -19.3659   16.1841  -27.9671 N   0  0  0  0  0  0  0  0  0  0  0  0
  -25.6886   16.6893  -22.5159 C   0  0  0  0  0  0  0  0  0  0  0  0
  -22.7430   18.1617  -28.2266 C   0  0  0  0  0  0  0  0  0  0  0  0
  -19.5108   16.5158  -27.3416 C   0  0  0  0  0  0  0  0  0  0  0  0
  -21.6662   16.5975  -30.3796 C   0  0  0  0  0  0  0  0  0  0  0  0
  -23.2429   18.4921  -29.0235 O   0  0  0  0  0  0  0  0  0  0  0  0
  3  1  2  0
  4  2  1  0
 10  4  2  0
 11  1  1  0
 11  6  1  0
 11  7  1  0
 12  7  1  0
 13  5  1  0
 14  5  1  0
 15  2  2  0
 15 12  1  0
 16  4  1  0
 16  8  1  0
 17  3  1  0
 17  6  2  0
 18  2  1  0
 19  9  1  0
 19 15  1  0
 19 16  1  0
 20 13  1  0
 21  5  1  0
 21 18  1  0
M  END
>  <ID>  (1) 
conformer_0

$$$$
