
     RDKit          3D

 23 24  0  0  0  0  0  0  0  0999 V2000
  -25.7340   18.1014  -24.2242 C   0  0  0  0  0  0  0  0  0  0  0  0
  -24.5450   18.2002  -24.7261 C   0  0  0  0  0  0  0  0  0  0  0  0
  -20.4674   17.6395  -26.4074 C   0  0  0  0  0  0  0  0  0  0  0  0
  -23.1223   17.6570  -29.1853 C   0  0  0  0  0  0  0  0  0  0  0  0
  -21.9931   17.9518  -24.4897 O   0  0  0  0  0  0  0  0  0  0  0  0
  -20.8306   16.9120  -28.4827 C   0  0  0  0  0  0  0  0  0  0  0  0
  -23.4603   17.7149  -24.1866 C   0  0  0  0  0  0  0  0  0  0  0  0
  -22.0528   16.8757  -30.6603 C   0  0  0  0  0  0  0  0  0  0  0  0
  -26.0389   17.2857  -23.1640 C   0  0  0  0  0  0  0  0  0  0  0  0
  -20.1150   15.6918  -30.0636 O   0  0  0  0  0  0  0  0  0  0  0  0
  -19.5286   16.5327  -27.8905 N   0  0  0  0  0  0  0  0  0  0  0  0
  -18.3101   17.4896  -25.5702 C   0  0  0  0  0  0  0  0  0  0  0  0
  -24.5035   17.5940  -30.6173 O   0  0  0  0  0  0  0  0  0  0  0  0
  -21.9020   17.9495  -25.9093 C   0  0  0  0  0  0  0  0  0  0  0  0
  -24.5632   17.6135  -30.8984 C   0  0  0  0  0  0  0  0  0  0  0  0
  -25.1122   16.6625  -22.5569 C   0  0  0  0  0  0  0  0  0  0  0  0
  -23.5748   17.1509  -28.6655 O   0  0  0  0  0  0  0  0  0  0  0  0
  -18.4785   15.8904  -27.9750 C   0  0  0  0  0  0  0  0  0  0  0  0
  -19.4582   16.9650  -26.9537 C   0  0  0  0  0  0  0  0  0  0  0  0
  -21.6015   16.4279  -30.0153 C   0  0  0  0  0  0  0  0  0  0  0  0
  -21.3237   17.5203  -27.8331 C   0  0  0  0  0  0  0  0  0  0  0  0
  -18.0141   15.6098  -26.9653 C   0  0  0  0  0  0  0  0  0  0  0  0
  -23.6846   16.7200  -23.0330 C   0  0  0  0  0  0  0  0  0  0  0  0
  2  1  2  0
  7  2  1  0
  7  5  1  0
  8  4  1  0
  9  1  1  0
 11  6  1  0
 13  4  1  0
 14  3  1  0
 14  5  1  0
 15 13  1  0
 16  9  2  0
 17  4  1  0
 18 11  1  0
 19  3  2  0
 19 11  1  0
 19 12  1  0
 20  6  1  0
 20  8  1  0
 20 10  1  0
 21  3  1  0
 21  6  2  0
 22 18  1  0
 23  7  2  0
 23 16  1  0
M  END
>  <ID>  (1) 
conformer_0

$$$$
