
     RDKit          3D

 20 21  0  0  0  0  0  0  0  0999 V2000
  -24.4443   16.8697  -22.5659 C   0  0  0  0  0  0  0  0  0  0  0  0
  -21.3471   17.2467  -27.5467 C   0  0  0  0  0  0  0  0  0  0  0  0
  -24.8581   18.0603  -25.0163 C   0  0  0  0  0  0  0  0  0  0  0  0
  -24.4255   17.9158  -30.4202 C   0  0  0  0  0  0  0  0  0  0  0  0
  -20.6953   16.6785  -28.7885 C   0  0  0  0  0  0  0  0  0  0  0  0
  -23.6723   17.8768  -24.5809 C   0  0  0  0  0  0  0  0  0  0  0  0
  -19.1315   16.3290  -27.9718 N   0  0  0  0  0  0  0  0  0  0  0  0
  -22.0482   18.8540  -25.1020 O   0  0  0  0  0  0  0  0  0  0  0  0
  -22.1440   18.0425  -26.0242 C   0  0  0  0  0  0  0  0  0  0  0  0
  -23.2355   17.1739  -23.4496 C   0  0  0  0  0  0  0  0  0  0  0  0
  -24.3762   17.3168  -29.5801 O   0  0  0  0  0  0  0  0  0  0  0  0
  -21.5626   16.4144  -30.4925 C   0  0  0  0  0  0  0  0  0  0  0  0
  -20.2612   15.9018  -29.8054 O   0  0  0  0  0  0  0  0  0  0  0  0
  -18.0339   15.8471  -27.9245 C   0  0  0  0  0  0  0  0  0  0  0  0
  -20.5619   16.9763  -26.5984 C   0  0  0  0  0  0  0  0  0  0  0  0
  -25.6877   17.0540  -23.1244 C   0  0  0  0  0  0  0  0  0  0  0  0
  -19.5248   16.5000  -27.3516 C   0  0  0  0  0  0  0  0  0  0  0  0
  -23.6167   17.9769  -27.6600 O   0  0  0  0  0  0  0  0  0  0  0  0
  -23.0688   17.3339  -29.3312 C   0  0  0  0  0  0  0  0  0  0  0  0
  -25.9112   17.9279  -24.0123 C   0  0  0  0  0  0  0  0  0  0  0  0
  5  2  1  0
  6  3  2  0
  7  5  1  0
  8  6  1  0
  9  2  1  0
  9  8  1  0
 10  1  2  0
 10  6  1  0
 11  4  1  0
 13  5  1  0
 13 12  1  0
 14  7  1  0
 15  2  2  0
 16  1  1  0
 17  7  1  0
 17 15  1  0
 19 11  1  0
 19 12  1  0
 19 18  2  0
 20  3  1  0
 20 16  2  0
M  END
>  <ID>  (1) 
conformer_0

$$$$
