
     RDKit          3D

 22 24  0  0  0  0  0  0  0  0999 V2000
  -25.7958   17.1096  -22.8008 C   0  0  0  0  0  0  0  0  0  0  0  0
  -21.0124   17.4207  -26.6600 C   0  0  0  0  0  0  0  0  0  0  0  0
  -25.8288   17.7881  -23.9258 C   0  0  0  0  0  0  0  0  0  0  0  0
  -24.7228   18.0675  -24.6157 C   0  0  0  0  0  0  0  0  0  0  0  0
  -24.7222   17.5957  -29.8609 C   0  0  0  0  0  0  0  0  0  0  0  0
  -22.0586   16.5575  -30.9301 C   0  0  0  0  0  0  0  0  0  0  0  0
  -20.5688   16.8242  -28.5755 C   0  0  0  0  0  0  0  0  0  0  0  0
  -23.4729   17.6682  -24.2303 C   0  0  0  0  0  0  0  0  0  0  0  0
  -22.0972   18.2529  -25.9128 C   0  0  0  0  0  0  0  0  0  0  0  0
  -18.3220   17.1438  -25.3355 C   0  0  0  0  0  0  0  0  0  0  0  0
  -20.0089   16.3055  -29.9526 O   0  0  0  0  0  0  0  0  0  0  0  0
  -22.2046   18.2323  -24.9696 O   0  0  0  0  0  0  0  0  0  0  0  0
  -19.5485   16.7027  -27.7645 N   0  0  0  0  0  0  0  0  0  0  0  0
  -23.6919   17.5258  -28.4709 O   0  0  0  0  0  0  0  0  0  0  0  0
  -21.2854   16.6354  -30.1583 C   0  0  0  0  0  0  0  0  0  0  0  0
  -18.2302   15.9617  -27.8130 C   0  0  0  0  0  0  0  0  0  0  0  0
  -24.6440   16.5725  -22.3871 C   0  0  0  0  0  0  0  0  0  0  0  0
  -21.6842   17.5431  -28.0210 C   0  0  0  0  0  3  0  0  0  0  0  0
  -23.9882   17.3464  -30.5248 O   0  0  0  0  0  0  0  0  0  0  0  0
  -19.9053   17.0246  -26.5947 C   0  0  0  0  0  0  0  0  0  0  0  0
  -23.3256   16.8324  -23.0642 C   0  0  0  0  0  0  0  0  0  0  0  0
  -23.2023   17.2151  -30.8447 C   0  0  0  0  0  0  0  0  0  0  0  0
  3  1  2  0
  4  3  1  0
  8  4  2  0
  9  2  1  0
 11  7  1  0
 12  8  1  0
 12  9  1  0
 13  7  1  0
 14  5  1  0
 15  6  1  0
 15  7  1  0
 15 11  1  0
 16 13  1  0
 17  1  1  0
 18  2  1  0
 18  7  1  0
 19  5  1  0
 20  2  2  0
 20 10  1  0
 20 13  1  0
 21  8  1  0
 21 17  2  0
 22  6  1  0
 22 19  1  0
M  RAD  1  18   2
M  END
>  <ID>  (1) 
conformer_0

$$$$
