
     RDKit          3D

 21 23  0  0  0  0  0  0  0  0999 V2000
  -24.8817   18.1559  -24.8732 C   0  0  0  0  0  0  0  0  0  0  0  0
  -20.6934   17.3648  -26.3835 C   0  0  0  0  0  0  0  0  0  0  0  0
  -25.4963   17.0624  -22.8571 C   0  0  0  0  0  0  0  0  0  0  0  0
  -24.3909   17.3012  -30.4792 C   0  0  0  0  0  0  0  0  0  0  0  0
  -19.3651   16.4324  -27.8323 N   0  0  0  0  0  0  0  0  0  0  0  0
  -20.7569   16.6478  -28.4780 C   0  0  0  0  0  0  0  0  0  0  0  0
  -22.1606   18.0147  -24.7378 O   0  0  0  0  0  0  0  0  0  0  0  0
  -23.5482   17.7314  -24.4733 C   0  0  0  0  0  0  0  0  0  0  0  0
  -21.7584   16.8655  -30.6774 C   0  0  0  0  0  0  0  0  0  0  0  0
  -21.6313   17.9430  -25.7119 C   0  0  0  0  0  0  0  0  0  0  0  0
  -20.3671   15.6722  -29.6526 O   0  0  0  0  0  0  0  0  0  0  0  0
  -23.9599   16.9417  -23.0225 C   0  0  0  0  0  0  0  0  0  0  0  0
  -18.3777   15.6970  -28.0315 C   0  0  0  0  0  0  0  0  0  0  0  0
  -24.1319   17.5528  -30.2077 O   0  0  0  0  0  0  0  0  0  0  0  0
  -18.3898   16.8228  -25.7350 C   0  0  0  0  0  0  0  0  0  0  0  0
  -21.6568   16.5360  -30.1911 C   0  0  0  0  0  0  0  0  0  0  0  0
  -24.0026   17.9829  -27.8925 O   0  0  0  0  0  0  0  0  0  0  0  0
  -25.8946   17.8281  -23.9865 C   0  0  0  0  0  0  0  0  0  0  0  0
  -19.5433   16.9957  -26.7809 C   0  0  0  0  0  0  0  0  0  0  0  0
  -23.2817   17.7249  -28.6913 C   0  0  0  0  0  0  0  0  0  0  0  0
  -21.4115   17.2624  -27.6973 C   0  0  0  0  0  3  0  0  0  0  0  0
  6  5  1  0
  8  1  2  0
  8  7  1  0
 10  2  1  0
 10  7  1  0
 11  6  1  0
 12  3  2  0
 12  8  1  0
 13  5  1  0
 14  4  1  0
 16  6  1  0
 16  9  1  0
 16 11  1  0
 18  1  1  0
 18  3  1  0
 19  2  2  0
 19  5  1  0
 19 15  1  0
 20 14  1  0
 20 16  1  0
 20 17  2  0
 21  2  1  0
 21  6  1  0
M  RAD  1  21   2
M  END
>  <ID>  (1) 
conformer_0

$$$$
