
     RDKit          3D

 19 19  0  0  0  0  0  0  0  0999 V2000
  -26.1014   17.7472  -23.6794 C   0  0  0  0  0  0  0  0  0  0  0  0
  -25.2070   18.1442  -24.5924 C   0  0  0  0  0  0  0  0  0  0  0  0
  -24.0593   17.6503  -30.7360 C   0  0  0  0  0  0  0  0  0  0  0  0
  -20.8427   17.5913  -27.0180 C   0  0  0  0  0  0  0  0  0  0  0  0
  -18.3960   15.6641  -28.1802 C   0  0  0  0  0  0  0  0  0  0  0  0
  -20.1435   17.2301  -27.7484 C   0  0  0  0  0  0  0  0  0  0  0  0
  -19.2048   16.5949  -27.8362 N   0  0  0  0  0  0  0  0  0  0  0  0
  -18.0513   16.9856  -25.7116 C   0  0  0  0  0  0  0  0  0  0  0  0
  -23.9086   17.6141  -24.2986 C   0  0  0  0  0  0  0  0  0  0  0  0
  -19.8931   15.8121  -30.3101 O   0  0  0  0  0  0  0  0  0  0  0  0
  -22.4684   17.7430  -24.5409 O   0  0  0  0  0  0  0  0  0  0  0  0
  -22.0338   18.0824  -25.5782 C   0  0  0  0  0  0  0  0  0  0  0  0
  -25.5950   16.9165  -22.6068 C   0  0  0  0  0  0  0  0  0  0  0  0
  -21.9730   17.0156  -30.6523 C   0  0  0  0  0  0  0  0  0  0  0  0
  -23.6484   17.5587  -29.2017 C   0  0  0  0  0  0  0  0  0  0  0  0
  -24.4919   17.7081  -28.8574 O   0  0  0  0  0  0  0  0  0  0  0  0
  -24.1483   16.7960  -22.9499 C   0  0  0  0  0  0  0  0  0  0  0  0
  -21.1678   16.8648  -29.9140 C   0  0  0  0  0  0  0  0  0  0  0  0
  -21.2833   17.8089  -26.2651 C   0  0  0  0  0  0  0  0  0  0  0  0
  2  1  2  0
  6  4  1  0
  7  5  1  0
  7  6  1  0
  8  5  1  0
  9  2  1  0
 11  9  1  0
 12 11  1  0
 13  1  1  0
 14  3  1  0
 15  3  1  0
 16 15  2  0
 17  9  2  0
 17 13  1  0
 18 10  1  0
 18 14  1  0
 19  4  1  0
 19 12  1  0
 19 15  1  0
M  END
>  <ID>  (1) 
conformer_0

$$$$
