
     RDKit          3D

 23 24  0  0  0  0  0  0  0  0999 V2000
  -25.1312   16.4077  -22.3876 C   0  0  0  0  0  0  0  0  0  0  0  0
  -26.0922   17.0438  -22.9745 C   0  0  0  0  0  0  0  0  0  0  0  0
  -21.4223   17.4643  -27.8962 C   0  0  0  0  0  0  0  0  0  0  0  0
  -23.1177   17.8781  -28.4668 C   0  0  0  0  0  0  0  0  0  0  0  0
  -19.3624   16.3772  -27.8797 N   0  0  0  0  0  0  0  0  0  0  0  0
  -18.8155   15.7738  -29.3601 C   0  0  0  0  0  0  0  0  0  0  0  0
  -22.0491   17.7998  -24.4396 O   0  0  0  0  0  0  0  0  0  0  0  0
  -19.8116   17.0596  -26.4107 C   0  0  0  0  0  0  0  0  0  0  0  0
  -20.1280   15.8350  -30.3170 O   0  0  0  0  0  0  0  0  0  0  0  0
  -25.9115   17.8864  -24.0517 C   0  0  0  0  0  0  0  0  0  0  0  0
  -23.5675   17.4552  -24.1051 C   0  0  0  0  0  0  0  0  0  0  0  0
  -22.1581   18.1007  -25.7111 C   0  0  0  0  0  0  0  0  0  0  0  0
  -22.0165   16.6794  -30.1552 C   0  0  0  0  0  0  0  0  0  0  0  0
  -18.4123   17.0187  -25.6767 C   0  0  0  0  0  0  0  0  0  0  0  0
  -24.3166   17.8003  -28.5216 O   0  0  0  0  0  0  0  0  0  0  0  0
  -21.3372   16.5870  -30.1776 C   0  0  0  0  0  0  0  0  0  0  0  0
  -24.1928   18.0772  -30.6721 C   0  0  0  0  0  0  0  0  0  0  0  0
  -24.7406   17.9947  -24.5294 C   0  0  0  0  0  0  0  0  0  0  0  0
  -23.7972   16.5588  -22.9822 C   0  0  0  0  0  0  0  0  0  0  0  0
  -20.8439   17.5021  -26.4464 C   0  0  0  0  0  0  0  0  0  0  0  0
  -20.4498   16.8171  -28.3768 C   0  0  0  0  0  0  0  0  0  0  0  0
  -24.1284   17.6686  -30.3308 O   0  0  0  0  0  0  0  0  0  0  0  0
  -18.2511   15.6127  -27.4405 C   0  0  0  0  0  0  0  0  0  0  0  0
  2  1  2  0
  4  3  1  0
  8  5  1  0
  9  6  1  0
 10  2  1  0
 11  7  1  0
 12  7  1  0
 14  8  1  0
 15  4  1  0
 16  9  1  0
 16 13  3  0
 18 10  2  0
 18 11  1  0
 19  1  1  0
 19 11  2  0
 20  3  1  0
 20  8  2  0
 20 12  1  0
 21  3  2  0
 21  5  1  0
 22 15  1  0
 22 17  1  0
 23  5  1  0
 23  6  1  0
M  END
>  <ID>  (1) 
conformer_0

$$$$
