
     RDKit          3D

 30 30  0  0  0  0  0  0  0  0999 V2000
  -14.0109   -0.2422  -31.3538 P   0  0  0  0  0  4  0  0  0  0  0  0
  -10.8847    2.4320  -31.6293 O   0  0  0  0  0  0  0  0  0  0  0  0
   -6.7885    1.8538  -31.7770 C   0  0  0  0  0  0  0  0  0  0  0  0
   -8.8399    1.8213  -33.0180 O   0  0  0  0  0  0  0  0  0  0  0  0
   -7.8870    2.7495  -32.4369 C   0  0  0  0  0  0  0  0  0  0  0  0
   -8.9145    7.2878  -26.6091 O   0  0  0  0  0  0  0  0  0  0  0  0
  -14.5693   -0.0342  -29.9711 O   0  0  0  0  0  1  0  0  0  0  0  0
   -7.3542    3.6714  -33.3809 O   0  0  0  0  0  0  0  0  0  0  0  0
   -7.6647    5.1338  -29.4162 C   0  0  0  0  0  0  0  0  0  0  0  0
   -7.7200    6.2860  -30.2264 O   0  0  0  0  0  0  0  0  0  0  0  0
   -9.6445    5.2185  -28.1592 C   0  0  0  0  0  0  0  0  0  0  0  0
  -13.0160    0.9370  -31.7053 O   0  0  0  0  0  0  0  0  0  0  0  0
   -4.7382   -1.5213  -29.8551 C   0  0  0  0  0  0  0  0  0  0  0  0
   -8.5657    3.6646  -31.3712 C   0  0  0  0  0  0  0  0  0  0  0  0
  -12.9124    3.4329  -31.2726 O   0  0  0  0  0  0  0  0  0  0  0  0
  -10.6720    5.2105  -27.3094 O   0  0  0  0  0  0  0  0  0  0  0  0
   -8.6801    4.2041  -29.9474 C   0  0  0  0  0  0  0  0  0  0  0  0
  -13.0269   -1.4139  -31.4300 O   0  0  0  0  0  0  0  0  0  0  0  0
   -7.9105    6.8420  -27.5486 C   0  0  0  0  0  0  0  0  0  0  0  0
   -5.4608   -0.6571  -31.0312 C   0  0  0  0  0  0  0  0  0  0  0  0
  -11.0418    3.8501  -29.6132 C   0  0  0  0  0  0  0  0  0  0  0  0
   -6.5048   -0.0156  -30.1285 C   0  0  0  0  0  0  0  0  0  0  0  0
  -10.0171    3.6237  -31.6863 C   0  0  0  0  0  0  0  0  0  0  0  0
   -5.6272    1.8693  -32.1847 O   0  0  0  0  0  0  0  0  0  0  0  0
   -7.1694    1.0824  -30.7413 N   0  0  0  0  0  0  0  0  0  0  0  0
  -11.8198    2.7432  -30.4627 C   0  0  0  0  0  0  0  0  0  0  0  0
   -8.1973    5.3964  -27.9743 C   0  0  0  0  0  0  0  0  0  0  0  0
  -13.3947    2.2615  -32.0443 C   0  0  0  0  0  0  0  0  0  0  0  0
  -15.0671   -0.3693  -32.3484 O   0  0  0  0  0  0  0  0  0  0  0  0
   -9.9080    4.8120  -29.5175 O   0  0  0  0  0  0  0  0  0  0  0  0
  1  7  2  0
  1 12  1  0
  1 18  1  0
  1 29  1  0
  2 23  1  0
  2 26  1  0
  3  5  1  0
  3 24  2  0
  3 25  1  0
  4  5  1  0
  5  8  1  0
  5 14  1  0
  6 19  1  0
  9 10  1  0
  9 17  1  0
  9 27  1  0
 11 16  2  0
 11 27  1  0
 11 30  1  0
 12 28  1  0
 13 20  1  0
 14 17  1  0
 14 23  1  0
 15 26  1  0
 15 28  1  0
 17 30  1  0
 19 27  1  0
 20 22  1  0
 21 26  1  0
 22 25  1  0
M  END
>  <ID>  (1) 
conformer_0

$$$$
