
     RDKit          3D

 17 17  0  0  0  0  0  0  0  0999 V2000
   -7.8476    7.3453  -27.2570 N   0  0  0  0  0  0  0  0  0  0  0  0
   -7.4027    3.5124  -33.4330 O   0  0  0  0  0  1  0  0  0  0  0  0
   -7.2759    2.2467  -29.8425 O   0  0  0  0  0  0  0  0  0  0  0  0
  -10.0411    4.3018  -30.4981 C   0  0  0  0  0  0  0  0  0  0  0  0
   -9.4534    3.0300  -31.2395 C   0  0  0  0  0  0  0  0  0  0  0  0
   -7.2889    2.4162  -32.3578 P   0  0  0  0  0  4  0  0  0  0  0  0
   -9.8652    3.9075  -28.9819 C   0  0  0  0  0  0  0  0  0  0  0  0
   -5.8572    1.9938  -32.2000 O   0  0  0  0  0  0  0  0  0  0  0  0
   -7.9055    3.0132  -30.8158 C   0  0  0  0  0  0  0  0  0  0  0  0
   -8.4469    4.0465  -28.3515 C   0  0  0  0  0  0  0  0  0  0  0  0
  -10.8383    2.3445  -31.6604 C   0  0  0  0  0  0  0  0  0  0  0  0
   -8.7799    6.4071  -27.5300 C   0  0  0  0  0  0  0  0  0  0  0  0
   -8.8043    6.1924  -28.9529 N   0  0  0  0  0  0  0  0  0  0  0  0
   -8.1533    1.2279  -32.7584 O   0  0  0  0  0  0  0  0  0  0  0  0
   -7.5058    4.4981  -30.5857 C   0  0  0  0  0  0  0  0  0  0  0  0
  -11.6995    2.3235  -30.4060 O   0  0  0  0  0  0  0  0  0  0  0  0
   -7.8551    5.1728  -29.2738 C   0  0  0  0  0  0  0  0  0  0  0  0
  1 12  1  0
  2  6  2  0
  3  9  1  0
  4  5  1  0
  4  7  1  0
  5  9  1  0
  5 11  1  0
  6  8  1  0
  6  9  1  0
  6 14  1  0
  7 10  1  0
  9 15  1  0
 10 17  1  0
 11 16  1  0
 12 13  1  0
 13 17  1  0
 15 17  1  0
M  END
>  <ID>  (1) 
conformer_0

$$$$
