
     RDKit          3D

 17 17  0  0  0  0  0  0  0  0999 V2000
  -10.0837    4.0678  -28.9176 C   0  0  0  0  0  0  0  0  0  0  0  0
   -8.7729    4.4070  -28.2848 C   0  0  0  0  0  0  0  0  0  0  0  0
   -8.0238    5.6193  -30.0688 O   0  0  0  0  0  0  0  0  0  0  0  0
   -7.7737    2.3257  -32.2154 P   0  0  0  0  0  5  0  0  0  0  0  0
  -10.3808    3.5993  -30.2899 C   0  0  0  0  0  0  0  0  0  0  0  0
   -8.1115    1.0347  -31.6141 O   0  0  0  0  0  0  0  0  0  0  0  0
  -10.9490    3.4846  -28.0291 O   0  0  0  0  0  0  0  0  0  0  0  0
   -7.6433    4.2886  -30.2369 C   0  0  0  0  0  0  0  0  0  0  0  0
   -8.7444    6.8134  -28.0025 N   0  0  0  0  0  0  0  0  0  0  0  0
   -8.0335    3.6487  -31.4042 O   0  0  0  0  0  0  0  0  0  0  0  0
  -11.7119    3.0885  -30.4478 O   0  0  0  0  0  0  0  0  0  0  0  0
   -8.4291    5.7877  -28.8065 C   0  0  0  0  0  0  0  0  0  0  0  0
   -6.0502    2.1592  -31.7553 O   0  0  0  0  0  0  0  0  0  0  0  0
   -7.7704    3.6063  -29.0301 O   0  0  0  0  0  0  0  0  0  0  0  0
   -9.4396    2.1957  -32.7985 O   0  0  0  0  0  0  0  0  0  0  0  0
   -7.7062    7.3458  -27.2991 O   0  0  0  0  0  0  0  0  0  0  0  0
   -7.2528    2.8590  -33.6011 O   0  0  0  0  0  0  0  0  0  0  0  0
  1  2  1  0
  1  5  1  0
  1  7  1  0
  2 12  1  0
  2 14  1  0
  3  8  1  0
  3 12  1  0
  4  6  1  0
  4 10  1  0
  4 13  1  0
  4 15  1  0
  4 17  1  0
  5 11  1  0
  8 10  1  0
  8 14  1  0
  9 12  1  0
  9 16  1  0
M  END
>  <ID>  (1) 
conformer_0

$$$$
