
     RDKit          3D

 14 13  0  0  0  0  0  0  0  0999 V2000
   -7.4862    3.3183  -30.7590 C   0  0  0  0  0  0  0  0  0  0  0  0
   -8.6522    6.0765  -31.0443 O   0  0  0  0  0  0  0  0  0  0  0  0
   -9.3983    2.9121  -29.4599 O   0  0  0  0  0  0  0  0  0  0  0  0
  -10.8923    4.7391  -28.3773 O   0  0  0  0  0  0  0  0  0  0  0  0
   -8.0213    6.4875  -28.0219 O   0  0  0  0  0  0  0  0  0  0  0  0
   -9.6714    4.7488  -27.6417 C   0  0  0  0  0  0  0  0  0  0  0  0
   -6.0044    1.8833  -32.2113 O   0  0  0  0  0  1  0  0  0  0  0  0
   -6.6043    3.9956  -30.0783 O   0  0  0  0  0  0  0  0  0  0  0  0
   -8.4967    5.2261  -28.5346 C   0  0  0  0  0  0  0  0  0  0  0  0
   -7.3683    2.5027  -32.2290 P   0  0  0  0  0  4  0  0  0  0  0  0
   -7.4690    3.5132  -33.3068 O   0  0  0  0  0  0  0  0  0  0  0  0
   -8.9643    5.2170  -29.9980 C   0  0  0  0  0  0  0  0  0  0  0  0
   -8.9346    3.7578  -30.5140 C   0  0  0  0  0  0  0  0  0  0  0  0
   -8.4244    1.4826  -32.4089 O   0  0  0  0  0  0  0  0  0  0  0  0
  1  8  1  0
  1 10  1  0
  1 13  1  0
  2 12  1  0
  3 13  1  0
  4  6  1  0
  5  9  1  0
  6  9  1  0
  7 10  2  0
  9 12  1  0
 10 11  1  0
 10 14  1  0
 12 13  1  0
M  END
>  <ID>  (1) 
conformer_0

$$$$
