
     RDKit          3D

 26 26  0  0  0  0  0  0  0  0999 V2000
   -7.8475    1.6233  -32.0366 C   0  0  0  0  0  0  0  0  0  0  0  0
   -8.1745    2.4049  -30.8621 C   0  0  0  0  0  0  0  0  0  0  0  0
   -7.0981    3.3253  -33.4935 O   0  0  0  0  0  0  0  0  0  0  0  0
   -9.2688    5.9284  -26.2557 C   0  0  0  0  0  0  0  0  0  0  0  0
   -8.8582    7.3214  -26.3212 O   0  0  0  0  0  0  0  0  0  0  0  0
  -11.3252    2.3062  -28.7257 O   0  0  0  0  0  0  0  0  0  0  0  0
   -9.1961    6.6765  -31.6370 O   0  0  0  0  0  0  0  0  0  0  0  0
   -8.4618    4.9030  -30.2745 C   0  0  0  0  0  0  0  0  0  0  0  0
  -11.0661    3.2366  -29.5217 C   0  0  0  0  0  0  0  0  0  0  0  0
  -10.4597    4.4368  -29.0062 O   0  0  0  0  0  0  0  0  0  0  0  0
   -7.6284    3.7279  -30.5778 C   0  0  0  0  0  0  0  0  0  0  0  0
   -5.6003    1.9595  -32.5021 O   0  0  0  0  0  0  0  0  0  0  0  0
   -7.8397    6.8298  -28.9467 O   0  0  0  0  0  0  0  0  0  0  0  0
   -6.3010    3.9053  -30.4803 O   0  0  0  0  0  0  0  0  0  0  0  0
  -10.1256    1.9232  -32.6802 O   0  0  0  0  0  0  0  0  0  0  0  0
   -8.3472    5.5631  -28.9183 C   0  0  0  0  0  0  0  0  0  0  0  0
   -9.0106    0.0138  -33.3992 O   0  0  0  0  0  0  0  0  0  0  0  0
   -9.0397    1.2501  -32.7857 C   0  0  0  0  0  0  0  0  0  0  0  0
  -10.5627    4.4921  -27.4866 C   0  0  0  0  0  0  0  0  0  0  0  0
   -9.3334    5.4535  -27.8440 C   0  0  0  0  0  0  0  0  0  0  0  0
  -11.8026    3.3029  -30.7928 C   0  0  0  0  0  0  0  0  0  0  0  0
   -6.7742    2.3870  -32.7474 C   0  0  0  0  0  0  0  0  0  0  0  0
   -9.5404    5.2420  -31.2505 C   0  0  0  0  0  0  0  0  0  0  0  0
  -10.8197    5.4398  -26.1025 C   0  0  0  0  0  0  0  0  0  0  0  0
   -8.2364    4.5526  -27.9602 O   0  0  0  0  0  0  0  0  0  0  0  0
  -12.6528    2.0243  -31.0762 C   0  0  0  0  0  0  0  0  0  0  0  0
  1  2  1  0
  1 18  1  0
  1 22  1  0
  2 11  1  0
  3 22  2  0
  4  5  1  0
  4 20  1  0
  4 24  1  0
  6  9  2  0
  7 23  1  0
  8 11  1  0
  8 16  1  0
  8 23  1  0
  9 10  1  0
  9 21  1  0
 10 19  1  0
 11 14  1  0
 12 22  1  0
 13 16  1  0
 15 18  2  0
 16 20  1  0
 16 25  1  0
 17 18  1  0
 19 20  1  0
 19 24  1  0
 21 26  1  0
M  END
>  <ID>  (1) 
conformer_0

$$$$
