
     RDKit          3D

 11 10  0  0  0  0  0  0  0  0999 V2000
   -9.6517    3.9266  -29.1546 C   0  0  0  0  0  0  0  0  0  0  0  0
   -7.8203    2.9543  -30.7306 O   0  0  0  0  0  0  0  0  0  0  0  0
   -9.9620    3.9148  -27.7314 O   0  0  0  0  0  0  0  0  0  0  0  0
   -8.5171    4.9231  -29.4823 C   0  0  0  0  0  0  0  0  0  0  0  0
   -7.5695    3.5102  -33.2053 O   0  0  0  0  0  1  0  0  0  0  0  0
   -8.7640    5.6574  -30.7204 O   0  0  0  0  0  0  0  0  0  0  0  0
   -7.4825    2.4070  -32.1254 P   0  0  0  0  0  4  0  0  0  0  0  0
   -7.3058    3.9725  -29.8807 C   0  0  0  0  0  0  0  0  0  0  0  0
   -6.0294    1.8958  -32.0781 O   0  0  0  0  0  0  0  0  0  0  0  0
   -8.5045    1.2955  -32.3956 O   0  0  0  0  0  0  0  0  0  0  0  0
   -8.1313    5.8191  -28.3245 C   0  0  0  0  0  0  0  0  0  0  0  0
  1  3  1  0
  1  4  1  0
  2  7  1  0
  2  8  1  0
  4  6  1  0
  4  8  1  0
  4 11  1  0
  5  7  2  0
  7  9  1  0
  7 10  1  0
M  END
>  <ID>  (1) 
conformer_0

$$$$
