
     RDKit          3D

  9  8  0  0  0  0  0  0  0  0999 V2000
   -8.6815    4.0512  -30.1538 C   0  0  0  0  0  0  0  0  0  0  0  0
   -6.2880    3.7461  -30.2401 O   0  0  0  0  0  0  0  0  0  0  0  0
   -7.4764    3.6680  -30.9291 C   0  0  0  0  0  0  0  0  0  0  0  0
   -7.6601    2.5170  -31.8570 C   0  0  0  0  0  0  0  0  0  0  0  0
   -9.5412    4.0625  -27.8890 O   0  0  0  0  0  0  0  0  0  0  0  0
   -8.4583    4.4764  -28.7072 C   0  0  0  0  0  0  0  0  0  0  0  0
   -6.5526    1.9502  -32.2243 O   0  0  0  0  0  0  0  0  0  0  0  0
   -8.1263    5.9197  -28.2689 C   0  0  0  0  0  0  0  0  0  0  0  0
   -8.7926    2.3098  -32.3923 O   0  0  0  0  0  0  0  0  0  0  0  0
  1  3  1  0
  1  6  1  0
  2  3  1  0
  3  4  1  0
  4  7  2  0
  4  9  1  0
  5  6  1  0
  6  8  1  0
M  END
>  <ID>  (1) 
conformer_0

$$$$
