
     RDKit          3D

 20 20  0  0  0  0  0  0  0  0999 V2000
   -8.1673    4.8929  -29.6134 C   0  0  0  0  0  0  0  0  0  0  0  0
   -8.3003    6.1267  -30.1930 O   0  0  0  0  0  0  0  0  0  0  0  0
   -8.2273    6.5904  -27.5384 O   0  0  0  0  0  0  0  0  0  0  0  0
   -5.8720    2.0512  -32.2486 O   0  0  0  0  0  0  0  0  0  0  0  0
  -10.2887    5.7734  -26.8736 O   0  0  0  0  0  0  0  0  0  0  0  0
   -7.5029    3.8052  -30.3391 C   0  0  0  0  0  0  0  0  0  0  0  0
   -8.4294    1.3860  -31.5967 O   0  0  0  0  0  0  0  0  0  0  0  0
   -7.2233    3.4988  -33.4195 O   0  0  0  0  0  0  0  0  0  0  0  0
   -9.0602    3.3814  -27.7551 O   0  0  0  0  0  0  0  0  0  0  0  0
   -9.9966    3.5854  -29.8398 C   0  0  0  0  0  0  0  0  0  0  0  0
   -9.6518    1.4898  -32.7329 F   0  0  0  0  0  0  0  0  0  0  0  0
   -9.2991    4.4907  -28.6822 C   0  0  0  0  0  0  0  0  0  0  0  0
  -11.6954    2.4517  -31.9397 O   0  0  0  0  0  0  0  0  0  0  0  0
   -8.0448    2.7769  -31.3213 C   0  0  0  0  0  0  0  0  0  0  0  0
  -10.3468    2.4858  -32.0921 C   0  0  0  0  0  0  0  0  0  0  0  0
  -11.3518    3.7137  -29.6689 O   0  0  0  0  0  0  0  0  0  0  0  0
   -6.8870    2.8228  -32.4139 C   0  0  0  0  0  0  0  0  0  0  0  0
   -9.1971    5.6875  -27.5645 C   0  0  0  0  0  0  0  0  0  0  0  0
   -6.1164    3.8511  -30.1859 O   0  0  0  0  0  0  0  0  0  0  0  0
   -9.5061    3.3301  -31.2320 C   0  0  0  0  0  0  0  0  0  0  0  0
  1  2  1  0
  1  6  1  0
  1 12  1  0
  3 18  2  0
  4 17  2  0
  5 18  1  0
  6 14  1  0
  6 19  1  0
  7 14  1  0
  8 17  1  0
  9 12  1  0
 10 12  1  0
 10 16  1  0
 10 20  1  0
 11 15  1  0
 12 18  1  0
 13 15  1  0
 14 17  1  0
 14 20  1  0
 15 20  1  0
M  END
>  <ID>  (1) 
conformer_0

$$$$
