
     RDKit          3D

 21 21  0  0  0  0  0  0  0  0999 V2000
   -7.8284    7.0000  -27.9479 O   0  0  0  0  0  0  0  0  0  0  0  0
   -7.5609    3.9968  -33.1938 O   0  0  0  0  0  0  0  0  0  0  0  0
   -9.2771    0.9281  -32.7740 O   0  0  0  0  0  0  0  0  0  0  0  0
   -6.7914    1.3250  -33.4696 O   0  0  0  0  0  0  0  0  0  0  0  0
   -9.2671    2.3788  -32.7529 C   0  0  0  0  0  0  0  0  0  0  0  0
   -8.4775    5.0773  -30.3629 C   0  0  0  0  0  0  0  0  0  0  0  0
  -10.7009    3.9027  -27.7913 O   0  0  0  0  0  0  0  0  0  0  0  0
   -7.9251    3.0440  -32.2282 C   0  0  0  0  0  0  0  0  0  0  0  0
  -10.2394    2.7048  -31.5785 C   0  0  0  0  0  0  0  0  0  0  0  0
   -8.8922    6.0846  -27.6655 C   0  0  0  0  0  0  0  0  0  0  0  0
   -5.4657    2.0150  -32.0016 O   0  0  0  0  0  0  0  0  0  0  0  0
   -8.2973    3.6838  -30.9041 C   0  0  0  0  0  0  0  0  0  0  0  0
  -11.5402    2.2062  -31.9514 O   0  0  0  0  0  0  0  0  0  0  0  0
   -9.3703    2.8080  -30.3959 O   0  0  0  0  0  0  0  0  0  0  0  0
   -7.2102    1.0567  -30.9522 O   0  0  0  0  0  0  0  0  0  0  0  0
   -8.7622    6.2052  -31.0075 O   0  0  0  0  0  0  0  0  0  0  0  0
   -7.8729    4.0838  -28.3296 C   0  0  0  0  0  0  0  0  0  0  0  0
  -10.3688    4.5841  -28.8948 C   0  0  0  0  0  0  0  0  0  0  0  0
  -11.1671    4.7162  -30.0474 C   0  0  0  0  0  0  0  0  0  0  0  0
   -8.9253    5.0549  -28.8489 C   0  0  0  0  0  0  0  0  0  0  0  0
   -6.8165    1.8055  -32.1242 C   0  0  0  0  0  0  0  0  0  0  0  0
  1 10  1  0
  2  8  1  0
  3  5  1  0
  4 21  1  0
  5  8  1  0
  5  9  1  0
  6 12  1  0
  6 16  1  0
  6 20  1  0
  7 18  1  0
  8 12  1  0
  8 21  1  0
  9 13  2  0
  9 14  1  0
 10 20  1  0
 11 21  1  0
 12 14  1  0
 15 21  1  0
 17 20  1  0
 18 19  1  0
 18 20  1  0
M  END
>  <ID>  (1) 
conformer_0

$$$$
