
     RDKit          3D

 29 29  0  0  0  0  0  0  0  0999 V2000
   -9.3670    2.0124  -32.6295 C   0  0  0  0  0  0  0  0  0  0  0  0
   -9.5578    6.3816  -26.9739 N   0  0  0  0  0  0  0  0  0  0  0  0
  -11.8904    2.5668  -31.2358 C   0  0  0  0  0  0  0  0  0  0  0  0
   -6.7140    1.8629  -31.7943 C   0  0  0  0  0  0  0  0  0  0  0  0
   -6.2592    1.2410  -32.9275 O   0  0  0  0  0  0  0  0  0  0  0  0
   -4.8072   -0.9328  -30.6141 C   0  0  0  0  0  0  0  0  0  0  0  0
  -10.5828    2.5352  -31.8432 O   0  0  0  0  0  0  0  0  0  0  0  0
   -8.3871    5.8590  -27.6490 C   0  0  0  0  0  0  0  0  0  0  0  0
   -6.0422   -0.3201  -30.2536 C   0  0  0  0  0  0  0  0  0  0  0  0
   -6.8708    0.6747  -30.7836 C   0  0  0  0  0  0  0  0  0  0  0  0
   -8.5642    3.7070  -31.2129 C   0  0  0  0  0  0  0  0  0  0  0  0
  -10.4400    3.2957  -29.6536 C   0  0  0  0  0  0  0  0  0  0  0  0
  -12.9897    1.7071  -31.7826 C   0  0  0  0  0  0  0  0  0  0  0  0
  -10.1007    3.7504  -31.0623 C   0  0  0  0  0  0  0  0  0  0  0  0
   -8.1452    2.8412  -32.3929 C   0  0  0  0  0  0  0  0  0  0  0  0
   -4.4484   -2.3124  -29.9339 C   0  0  0  0  0  0  0  0  0  0  0  0
   -4.1724   -2.0593  -28.6915 F   0  0  0  0  0  0  0  0  0  0  0  0
  -10.1946    3.9202  -27.3525 O   0  0  0  0  0  0  0  0  0  0  0  0
   -8.8670    5.1881  -28.9650 C   0  0  0  0  0  0  0  0  0  0  0  0
   -7.9487    7.1813  -27.7923 C   0  0  0  0  0  0  0  0  0  0  0  0
   -3.8694   -0.3406  -31.2563 F   0  0  0  0  0  0  0  0  0  0  0  0
   -7.6917    3.6659  -33.3962 O   0  0  0  0  0  0  0  0  0  0  0  0
   -6.3493   -0.5644  -28.9749 F   0  0  0  0  0  0  0  0  0  0  0  0
   -8.9287    6.0945  -30.0444 O   0  0  0  0  0  0  0  0  0  0  0  0
   -6.0469    2.8744  -31.1736 O   0  0  0  0  0  0  0  0  0  0  0  0
  -11.6780    2.6368  -29.8216 O   0  0  0  0  0  0  0  0  0  0  0  0
   -5.5054   -3.0461  -30.1852 F   0  0  0  0  0  0  0  0  0  0  0  0
  -10.0042    4.2945  -28.6307 C   0  0  0  0  0  0  0  0  0  0  0  0
   -3.4363   -2.8719  -30.4857 F   0  0  0  0  0  0  0  0  0  0  0  0
  1 15  1  0
  2  8  1  0
  3  7  1  0
  3 13  1  0
  3 26  1  0
  4  5  1  0
  4 10  1  0
  4 15  1  0
  4 25  1  0
  6  9  1  0
  6 16  1  0
  6 21  1  0
  7 14  1  0
  8 19  1  0
  8 20  1  0
  9 10  1  0
  9 23  1  0
 11 14  1  0
 11 15  1  0
 12 14  1  0
 12 26  1  0
 12 28  1  0
 15 22  1  0
 16 17  1  0
 16 27  1  0
 16 29  1  0
 18 28  1  0
 19 24  1  0
 19 28  1  0
M  END
>  <ID>  (1) 
conformer_0

$$$$
