
     RDKit          3D

 21 22  0  0  0  0  0  0  0  0999 V2000
  -11.6081    1.8037  -32.5087 O   0  0  0  0  0  0  0  0  0  0  0  0
   -8.9392    6.3325  -27.0038 C   0  0  0  0  0  0  0  0  0  0  0  0
   -9.6036    3.1632  -31.5946 C   0  0  0  0  0  0  0  0  0  0  0  0
  -10.9699    4.1309  -29.8194 C   0  0  0  0  0  0  0  0  0  0  0  0
   -7.0648    2.2760  -31.9510 P   0  0  0  0  0  5  0  0  0  0  0  0
   -8.9303    4.4410  -28.4566 C   0  0  0  0  0  0  0  0  0  0  0  0
   -6.4800    3.3686  -30.9240 O   0  0  0  0  0  0  0  0  0  0  0  0
  -10.1188    4.6026  -27.5201 C   0  0  0  0  0  0  0  0  0  0  0  0
   -8.4014    7.6921  -26.9179 O   0  0  0  0  0  0  0  0  0  0  0  0
  -10.7023    2.7794  -30.6066 C   0  0  0  0  0  0  0  0  0  0  0  0
   -5.7339    1.6827  -32.7309 O   0  0  0  0  0  0  0  0  0  0  0  0
  -11.8949    2.2708  -31.3720 C   0  0  0  0  0  0  0  0  0  0  0  0
   -9.6100    4.8606  -29.7786 C   0  0  0  0  0  0  0  0  0  0  0  0
   -8.9206    4.2977  -30.9323 O   0  0  0  0  0  0  0  0  0  0  0  0
   -8.9880    1.9705  -32.1735 O   0  0  0  0  0  0  0  0  0  0  0  0
  -12.6617    1.5640  -30.5901 O   0  0  0  0  0  0  0  0  0  0  0  0
   -7.3590    3.3428  -33.2159 O   0  0  0  0  0  0  0  0  0  0  0  0
   -8.0057    5.6124  -28.0181 C   0  0  0  0  0  0  0  0  0  0  0  0
   -7.7663    6.4438  -29.1158 O   0  0  0  0  0  0  0  0  0  0  0  0
   -7.1604    1.0133  -30.9382 O   0  0  0  0  0  0  0  0  0  0  0  0
  -11.0890    3.7784  -28.4019 O   0  0  0  0  0  0  0  0  0  0  0  0
  1 12  1  0
  2  9  1  0
  2 18  1  0
  3 10  1  0
  3 14  1  0
  3 15  1  0
  4 10  1  0
  4 13  1  0
  4 21  1  0
  5  7  1  0
  5 11  1  0
  5 15  1  0
  5 17  1  0
  5 20  1  0
  6  8  1  0
  6 13  1  0
  6 18  1  0
  8 21  1  0
 10 12  1  0
 12 16  1  0
 13 14  1  0
 18 19  1  0
M  END
>  <ID>  (1) 
conformer_0

$$$$
