
     RDKit          3D

 21 22  0  0  0  0  0  0  0  0999 V2000
   -9.5658    2.1966  -32.7819 C   0  0  0  0  0  0  0  0  0  0  0  0
   -5.6730    1.4573  -32.6323 O   0  0  0  0  0  1  0  0  0  0  0  0
  -10.0916    2.6254  -31.4276 C   0  0  0  0  0  0  0  0  0  0  0  0
   -7.2730    4.0507  -29.2530 C   0  0  0  0  0  0  0  0  0  0  0  0
  -10.5608    4.2315  -28.4175 C   0  0  0  0  0  0  0  0  0  0  0  0
   -7.4549    3.6434  -33.3482 O   0  0  0  0  0  0  0  0  0  0  0  0
   -9.0723    7.3666  -26.2461 O   0  0  0  0  0  0  0  0  0  0  0  0
   -9.0967    3.1949  -30.4764 C   0  0  0  0  0  0  0  0  0  0  0  0
   -6.9723    0.7128  -30.7651 O   0  0  0  0  0  1  0  0  0  0  0  0
   -8.4267    5.1187  -29.1575 C   0  0  0  0  0  0  0  0  0  0  0  0
   -8.1491    5.9676  -30.2310 O   0  0  0  0  0  0  0  0  0  0  0  0
   -7.2659    3.2700  -32.0665 C   0  0  0  0  0  0  0  0  0  0  0  0
  -10.1205    5.2613  -27.4903 N   0  0  0  0  0  0  0  0  0  0  0  0
   -7.8676    7.7277  -28.1324 O   0  0  0  0  0  0  0  0  0  0  0  0
   -8.7365    5.5692  -27.7668 C   0  0  0  0  0  0  0  0  0  0  0  0
   -7.6291    3.4067  -30.6097 C   0  0  0  0  0  0  0  0  0  0  0  0
   -8.3417    6.9388  -27.2762 C   0  0  0  0  0  0  0  0  0  0  0  0
   -9.6110    4.1755  -29.5018 C   0  0  0  0  0  0  0  0  0  0  0  0
   -8.5054    1.1686  -32.6554 O   0  0  0  0  0  0  0  0  0  0  0  0
  -11.4221    2.8700  -30.8253 O   0  0  0  0  0  0  0  0  0  0  0  0
   -7.0436    1.5147  -32.0226 P   0  0  0  0  0  0  0  0  0  0  0  0
  1  3  1  0
  1 19  1  0
  2 21  1  0
  3  8  1  0
  3 20  1  0
  4 10  1  0
  4 16  1  0
  5 13  1  0
  5 18  1  0
  6 12  1  0
  7 17  2  0
  8 16  1  0
  8 18  1  0
  9 21  1  0
 10 11  1  0
 10 15  1  0
 10 18  1  0
 12 16  1  0
 13 15  1  0
 14 17  1  0
 15 17  1  0
 19 21  1  0
M  END
>  <ID>  (1) 
conformer_0

$$$$
