
     RDKit          3D

 29 30  0  0  0  0  0  0  0  0999 V2000
   -7.9652    4.5325  -30.1280 C   0  0  0  0  0  0  0  0  0  0  0  0
   -7.5244    2.2282  -33.1502 C   0  0  0  0  0  0  0  0  0  0  0  0
   -9.9444    5.2408  -27.2690 C   0  0  0  0  0  0  0  0  0  0  0  0
   -6.7195    4.5937  -30.5917 O   0  0  0  0  0  0  0  0  0  0  0  0
   -8.7684    5.1535  -28.0561 C   0  0  0  0  0  0  0  0  0  0  0  0
   -9.0782    5.3034  -30.5255 C   0  0  0  0  0  0  0  0  0  0  0  0
  -11.9943    1.8872  -29.4804 O   0  0  0  0  0  0  0  0  0  0  0  0
   -9.1049    6.2437  -31.5496 O   0  0  0  0  0  0  0  0  0  0  0  0
   -9.1408    0.4326  -32.9533 O   0  0  0  0  0  0  0  0  0  0  0  0
   -5.7867    1.9001  -31.6103 O   0  0  0  0  0  0  0  0  0  0  0  0
   -8.2207    2.1836  -30.7534 C   0  0  0  0  0  0  0  0  0  0  0  0
   -8.9686    1.7849  -33.3019 C   0  0  0  0  0  0  0  0  0  0  0  0
   -8.3378    3.9710  -28.7902 C   0  0  0  0  0  0  0  0  0  0  0  0
  -11.4605    5.6142  -30.7928 O   0  0  0  0  0  0  0  0  0  0  0  0
   -7.9742    6.3038  -28.2600 C   0  0  0  0  0  0  0  0  0  0  0  0
  -10.5235    3.4753  -30.3039 C   0  0  0  0  0  0  0  0  0  0  0  0
   -7.0877    2.2174  -31.6958 C   0  0  0  0  0  0  0  0  0  0  0  0
  -11.8356    2.8138  -30.5198 C   0  0  0  0  0  0  0  0  0  0  0  0
  -10.7501    4.3093  -27.1714 O   0  0  0  0  0  0  0  0  0  0  0  0
   -6.6902    1.3948  -33.9168 O   0  0  0  0  0  0  0  0  0  0  0  0
   -9.5238    2.7701  -31.0372 C   0  0  0  0  0  0  0  0  0  0  0  0
  -12.3516    2.3225  -31.6717 N   0  0  0  0  0  0  0  0  0  0  0  0
   -8.2376    1.1481  -29.8888 O   0  0  0  0  0  0  0  0  0  0  0  0
  -10.3901    4.9178  -30.0167 C   0  0  0  0  0  0  0  0  0  0  0  0
   -7.9052    7.2087  -27.2148 O   0  0  0  0  0  0  0  0  0  0  0  0
  -10.0448    6.4271  -26.5415 N   0  0  0  0  0  0  0  0  0  0  0  0
   -9.8814    2.5736  -32.4278 C   0  0  0  0  0  0  0  0  0  0  0  0
   -7.5106    3.5345  -33.5228 O   0  0  0  0  0  0  0  0  0  0  0  0
   -8.8968    7.1523  -26.2970 C   0  0  0  0  0  0  0  0  0  0  0  0
  1  4  1  0
  1  6  1  0
  1 13  1  0
  2 12  1  0
  2 17  1  0
  2 20  1  0
  2 28  1  0
  3  5  1  0
  3 19  2  0
  3 26  1  0
  5 13  1  0
  5 15  1  0
  6  8  1  0
  6 24  1  0
  7 18  2  0
  9 12  1  0
 10 17  1  0
 11 17  1  0
 11 21  1  0
 11 23  1  0
 12 27  1  0
 14 24  1  0
 15 25  1  0
 16 18  1  0
 16 21  1  0
 16 24  1  0
 18 22  1  0
 21 27  2  0
 25 29  1  0
 26 29  1  0
M  END
>  <ID>  (1) 
conformer_0

$$$$
