
     RDKit          3D

 19 19  0  0  0  0  0  0  0  0999 V2000
   -6.8468    1.6159  -32.2128 C   0  0  0  0  0  0  0  0  0  0  0  0
   -6.8925    3.5449  -30.7709 C   0  0  0  0  0  0  0  0  0  0  0  0
   -7.3901    3.0040  -32.0611 C   0  0  0  0  0  0  0  0  0  0  0  0
   -9.2371    4.4543  -31.2034 C   0  0  0  0  0  0  0  0  0  0  0  0
   -8.5873    5.7840  -31.2123 O   0  0  0  0  0  0  0  0  0  0  0  0
  -10.9393    5.0497  -27.3313 O   0  0  0  0  0  0  0  0  0  0  0  0
   -8.9943    3.0153  -31.7872 C   0  0  0  0  0  0  0  0  0  0  0  0
   -9.4436    1.8842  -32.5090 O   0  0  0  0  0  0  0  0  0  0  0  0
   -6.8366    0.8556  -31.1892 O   0  0  0  0  0  0  0  0  0  0  0  0
   -9.0612    6.7091  -27.1028 F   0  0  0  0  0  0  0  0  0  0  0  0
   -7.3259    3.7478  -33.2503 O   0  0  0  0  0  0  0  0  0  0  0  0
   -8.3945    6.0187  -28.0446 C   0  0  0  0  0  0  0  0  0  0  0  0
   -9.8406    4.4217  -29.7780 C   0  0  0  0  0  0  0  0  0  0  0  0
   -8.9265    4.6743  -28.5991 C   0  0  0  0  0  0  0  0  0  0  0  0
  -10.6172    3.2825  -29.6810 O   0  0  0  0  0  0  0  0  0  0  0  0
   -6.3595    1.2832  -33.3643 O   0  0  0  0  0  0  0  0  0  0  0  0
   -7.4161    3.9182  -29.1643 S   0  0  0  0  0  0  0  0  0  0  0  0
   -7.1689    5.8698  -27.4979 F   0  0  0  0  0  0  0  0  0  0  0  0
   -9.7763    4.1859  -27.4020 C   0  0  0  0  0  0  0  0  0  0  0  0
  1  3  1  0
  1  9  2  0
  1 16  1  0
  2  3  1  0
  2 17  1  0
  3  7  1  0
  3 11  1  0
  4  5  1  0
  4  7  1  0
  4 13  1  0
  6 19  1  0
  7  8  1  0
 10 12  1  0
 12 14  1  0
 12 18  1  0
 13 14  1  0
 13 15  1  0
 14 17  1  0
 14 19  1  0
M  END
>  <ID>  (1) 
conformer_0

$$$$
