
     RDKit          3D

 18 18  0  0  0  0  0  0  0  0999 V2000
   -6.8592    0.6306  -31.0382 O   0  0  0  0  0  0  0  0  0  0  0  0
   -9.6908    4.7815  -28.1733 C   0  0  0  0  0  0  0  0  0  0  0  0
   -7.4082    2.9188  -31.7100 C   0  0  0  0  0  0  0  0  0  0  0  0
   -8.9301    5.8168  -27.4741 C   0  0  0  0  0  0  0  0  0  0  0  0
   -7.1191    4.2389  -29.6165 C   0  0  0  0  0  0  0  0  0  0  0  0
   -7.4399    3.5525  -32.9880 O   0  0  0  0  0  0  0  0  0  0  0  0
   -8.6588    5.5749  -31.3931 O   0  0  0  0  0  0  0  0  0  0  0  0
   -6.4887    3.4871  -30.6832 O   0  0  0  0  0  0  0  0  0  0  0  0
  -10.6852    4.1828  -27.4991 O   0  0  0  0  0  0  0  0  0  0  0  0
  -11.2778    2.7539  -30.5021 O   0  0  0  0  0  0  0  0  0  0  0  0
   -8.3171    4.9757  -30.1687 C   0  0  0  0  0  0  0  0  0  0  0  0
   -8.2185    6.8839  -28.1893 O   0  0  0  0  0  0  0  0  0  0  0  0
   -5.4603    1.6774  -32.3976 O   0  0  0  0  0  0  0  0  0  0  0  0
   -9.5944    4.3015  -29.6061 C   0  0  0  0  0  0  0  0  0  0  0  0
   -8.8900    2.5619  -31.3746 C   0  0  0  0  0  0  0  0  0  0  0  0
   -9.3717    1.5155  -32.1655 O   0  0  0  0  0  0  0  0  0  0  0  0
   -6.6404    1.5551  -31.8939 C   0  0  0  0  0  0  0  0  0  0  0  0
  -10.0473    3.4326  -30.8595 C   0  0  0  0  0  0  0  0  0  0  0  0
  1 17  2  0
  2  4  1  0
  2  9  1  0
  2 14  2  3
  3  6  1  0
  3  8  1  0
  3 15  1  0
  3 17  1  0
  4 12  1  0
  5  8  1  0
  5 11  1  0
  7 11  1  0
 10 18  1  0
 11 14  1  0
 13 17  1  0
 14 18  1  0
 15 16  1  0
 15 18  1  0
M  END
>  <ID>  (1) 
conformer_0

$$$$
