
     RDKit          3D

 23 24  0  0  0  0  0  0  0  0999 V2000
   -8.7198    5.1121  -30.4625 C   0  0  0  0  0  0  0  0  0  0  0  0
   -7.7025    0.7816  -31.7186 C   0  0  0  0  0  0  0  0  0  0  0  0
   -8.4092    5.7857  -26.5189 C   0  0  0  0  0  0  0  0  0  0  0  0
   -8.7055    5.2079  -27.9089 C   0  0  0  0  0  0  0  0  0  0  0  0
   -7.5142    4.4312  -31.1904 C   0  0  0  0  0  0  0  0  0  0  0  0
   -9.9063    4.4188  -28.0439 C   0  0  0  0  0  0  0  0  0  0  0  0
   -6.9018    5.5972  -26.3020 C   0  0  0  0  0  0  0  0  0  0  0  0
   -7.9759    3.3595  -32.1419 C   0  0  0  0  0  0  0  0  0  0  0  0
  -11.1762    4.3715  -30.6478 O   0  0  0  0  0  0  0  0  0  0  0  0
   -7.6764    3.9376  -33.4313 O   0  0  0  0  0  0  0  0  0  0  0  0
   -8.6100    0.1823  -32.3317 O   0  0  0  0  0  0  0  0  0  0  0  0
   -8.2436    5.7115  -29.2110 O   0  0  0  0  0  0  0  0  0  0  0  0
   -9.7157    3.3547  -29.1250 C   0  0  0  0  0  0  0  0  0  0  0  0
   -9.2463    6.1725  -31.3000 O   0  0  0  0  0  0  0  0  0  0  0  0
   -7.1166    0.2406  -30.7254 O   0  0  0  0  0  0  0  0  0  0  0  0
   -7.1579    2.1101  -32.1421 C   0  0  0  0  0  0  0  0  0  0  0  0
   -9.7845    3.9967  -30.4937 C   0  0  0  0  0  0  0  0  0  0  0  0
   -6.4771    4.0708  -30.3732 O   0  0  0  0  0  0  0  0  0  0  0  0
   -5.8426    2.1491  -32.2093 O   0  0  0  0  0  0  0  0  0  0  0  0
   -9.3714    3.0257  -31.6057 C   0  0  0  0  0  0  0  0  0  0  0  0
  -10.0686    2.3794  -32.7074 O   0  0  0  0  0  0  0  0  0  0  0  0
  -10.9866    4.8844  -27.5670 O   0  0  0  0  0  0  0  0  0  0  0  0
   -8.5003    7.2766  -26.8144 C   0  0  0  0  0  0  0  0  0  0  0  0
  1  5  1  0
  1 12  1  0
  1 14  1  0
  1 17  1  0
  2 11  2  0
  2 15  1  0
  2 16  1  0
  3  4  1  0
  3  7  1  0
  3 23  1  0
  4  6  1  0
  4 12  1  0
  5  8  1  0
  5 18  1  0
  6 13  1  0
  6 22  2  0
  8 10  1  0
  8 16  1  0
  8 20  1  0
  9 17  1  0
 13 17  1  0
 16 19  1  0
 17 20  1  0
 20 21  1  0
M  END
>  <ID>  (1) 
conformer_0

$$$$
