
     RDKit          3D

 28 29  0  0  0  0  0  0  0  0999 V2000
  -10.8193    5.1714  -26.2635 C   0  0  0  0  0  0  0  0  0  0  0  0
   -9.1068    5.8989  -29.4589 C   0  0  0  0  0  0  0  0  0  0  0  0
   -9.6015    5.5739  -30.7736 C   0  0  0  0  0  0  0  0  0  0  0  0
  -10.7824    4.7354  -30.8990 C   0  0  0  0  0  0  0  0  0  0  0  0
   -6.2221    6.2293  -26.1584 N   0  0  0  0  0  0  0  0  0  0  0  0
   -9.5517    6.5966  -31.7685 O   0  0  0  0  0  0  0  0  0  0  0  0
   -6.8319    2.7106  -32.1120 P   0  0  0  0  0  4  0  0  0  0  0  0
  -11.3446    2.7692  -29.4063 O   0  0  0  0  0  0  0  0  0  0  0  0
   -7.2181    3.4052  -33.4148 O   0  0  0  0  0  1  0  0  0  0  0  0
   -5.6704    4.0780  -28.2509 O   0  0  0  0  0  0  0  0  0  0  0  0
   -9.1842    3.5579  -29.5035 O   0  0  0  0  0  0  0  0  0  0  0  0
   -5.7527    1.6784  -32.3716 O   0  0  0  0  0  0  0  0  0  0  0  0
   -6.4162    3.7050  -31.0589 O   0  0  0  0  0  0  0  0  0  0  0  0
  -11.9492    5.2259  -30.3402 O   0  0  0  0  0  0  0  0  0  0  0  0
   -8.1469    1.9720  -31.5577 O   0  0  0  0  0  0  0  0  0  0  0  0
   -8.3574    5.7074  -26.4351 C   0  0  0  0  0  0  0  0  0  0  0  0
   -8.0777    3.9395  -28.5240 C   0  0  0  0  0  0  0  0  0  0  0  0
  -10.4465    2.5633  -31.6051 C   0  0  0  0  0  0  0  0  0  0  0  0
   -5.2938    5.2903  -25.9936 O   0  0  0  0  0  0  0  0  0  0  0  0
  -11.6563    2.0979  -32.0530 O   0  0  0  0  0  0  0  0  0  0  0  0
   -9.2472    4.7522  -28.4876 C   0  0  0  0  0  0  0  0  0  0  0  0
   -8.6771    6.9550  -25.9276 C   0  0  0  0  0  0  0  0  0  0  0  0
   -9.6074    0.8916  -33.0696 O   0  0  0  0  0  0  0  0  0  0  0  0
   -6.8797    4.4968  -27.7544 C   0  0  0  0  0  0  0  0  0  0  0  0
  -10.4184    3.3623  -30.3312 C   0  0  0  0  0  0  0  0  0  0  0  0
   -9.2983    2.1195  -32.3954 C   0  0  0  0  0  0  0  0  0  0  0  0
   -7.0606    5.4207  -26.7623 C   0  0  0  0  0  0  0  0  0  0  0  0
   -9.3918    4.9347  -26.9728 C   0  0  0  0  0  0  0  0  0  0  0  0
  1 28  1  0
  2  3  1  0
  2 21  1  0
  3  4  1  0
  3  6  1  0
  4 14  1  0
  4 25  1  0
  5 19  1  0
  5 27  1  0
  7  9  2  0
  7 12  1  0
  7 13  1  0
  7 15  1  0
  8 25  1  0
 10 24  1  0
 11 17  1  0
 11 25  1  0
 15 26  1  0
 16 22  1  0
 16 27  1  0
 16 28  1  0
 17 21  1  0
 17 24  1  0
 18 20  1  0
 18 25  1  0
 18 26  1  0
 21 28  1  0
 23 26  1  0
 24 27  2  0
M  END
>  <ID>  (1) 
conformer_0

$$$$
