
     RDKit          3D

 19 19  0  0  0  0  0  0  0  0999 V2000
   -8.9412    5.8853  -27.6236 C   0  0  0  0  0  0  0  0  0  0  0  0
   -7.9345    1.3795  -32.5969 O   0  0  0  0  0  1  0  0  0  0  0  0
   -8.8068    6.0596  -30.7080 O   0  0  0  0  0  0  0  0  0  0  0  0
   -7.3368    3.4746  -30.9470 C   0  0  0  0  0  0  0  0  0  0  0  0
  -10.4322    2.2396  -32.5114 O   0  0  0  0  0  0  0  0  0  0  0  0
  -10.5679    3.6463  -27.8416 S   0  0  0  0  0  0  0  0  0  0  0  0
   -6.3839    3.7819  -30.1698 O   0  0  0  0  0  0  0  0  0  0  0  0
   -9.9417    2.8467  -31.3494 C   0  0  0  0  0  0  0  0  0  0  0  0
   -7.8865    6.9956  -27.4423 C   0  0  0  0  0  0  0  0  0  0  0  0
   -9.2307    4.8171  -29.9383 C   0  0  0  0  0  0  0  0  0  0  0  0
   -8.7728    3.7089  -30.8545 C   0  0  0  0  0  0  0  0  0  0  0  0
  -11.1715    3.1308  -30.4234 C   0  0  0  0  0  0  0  0  0  0  0  0
  -12.3033    3.4835  -31.2322 O   0  0  0  0  0  0  0  0  0  0  0  0
   -8.4605    4.9455  -28.6788 N   0  0  0  0  0  0  0  0  0  0  0  0
  -10.6839    4.3122  -29.4932 C   0  0  0  0  0  0  0  0  0  0  0  0
   -7.0401    2.5591  -32.3728 P   0  0  0  0  0  4  0  0  0  0  0  0
   -5.6754    1.9806  -32.2520 O   0  0  0  0  0  0  0  0  0  0  0  0
  -11.6067    2.0109  -29.6556 O   0  0  0  0  0  0  0  0  0  0  0  0
   -7.2434    3.5231  -33.5019 O   0  0  0  0  0  0  0  0  0  0  0  0
  1  9  1  0
  1 14  1  0
  2 16  2  0
  3 10  1  0
  4  7  2  0
  4 11  1  0
  4 16  1  0
  5  8  1  0
  6 15  1  0
  8 11  1  0
  8 12  1  0
 10 11  1  0
 10 14  1  0
 10 15  1  0
 12 13  1  0
 12 15  1  0
 12 18  1  0
 16 17  1  0
 16 19  1  0
M  END
>  <ID>  (1) 
conformer_0

$$$$
