
     RDKit          3D

 22 24  0  0  0  0  0  0  0  0999 V2000
   -5.9723    3.7945  -29.6847 O   0  0  0  0  0  0  0  0  0  0  0  0
   -7.0475    2.5782  -31.5071 C   0  0  0  0  0  0  0  0  0  0  0  0
   -9.6893    3.7755  -27.5002 C   0  0  0  0  0  0  0  0  0  0  0  0
  -10.5959    2.4840  -32.3545 N   0  0  0  0  0  0  0  0  0  0  0  0
   -8.3752    3.7119  -29.6537 C   0  0  0  0  0  0  0  0  0  0  0  0
   -8.2473    7.3229  -27.6008 O   0  0  0  0  0  0  0  0  0  0  0  0
  -10.8616    3.2386  -28.3252 O   0  0  0  0  0  0  0  0  0  0  0  0
   -8.8966    0.9881  -32.4109 O   0  0  0  0  0  0  0  0  0  0  0  0
  -10.2614    5.9481  -27.2622 O   0  0  0  0  0  0  0  0  0  0  0  0
   -9.2675    2.2752  -32.6905 C   0  0  0  0  0  0  0  0  0  0  0  0
   -7.5202    6.1624  -27.9144 C   0  0  0  0  0  0  0  0  0  0  0  0
   -8.3028    5.1644  -28.9677 C   0  0  0  0  0  0  0  0  0  0  0  0
   -5.9132    2.1323  -32.0009 O   0  0  0  0  0  0  0  0  0  0  0  0
  -10.9261    2.9164  -31.0884 C   0  0  0  0  0  0  0  0  0  0  0  0
   -9.6729    5.1534  -28.2745 C   0  0  0  0  0  0  0  0  0  0  0  0
   -7.0853    3.2310  -30.1648 C   0  0  0  0  0  0  0  0  0  0  0  0
  -10.6979    4.4420  -29.2288 C   0  0  0  0  0  0  0  0  0  0  0  0
   -7.4552    3.6498  -33.5791 O   0  0  0  0  0  0  0  0  0  0  0  0
   -8.2718    5.9693  -30.1912 O   0  0  0  0  0  0  0  0  0  0  0  0
  -12.0877    2.7898  -30.6734 O   0  0  0  0  0  0  0  0  0  0  0  0
   -9.8125    3.5930  -30.2827 C   0  0  0  0  0  0  0  0  0  0  0  0
   -8.0902    3.1913  -32.4091 C   0  0  0  0  0  0  0  0  0  0  0  0
  1 16  1  0
  2 13  1  0
  2 16  1  0
  2 22  1  0
  3  7  1  0
  3 15  1  0
  4 10  1  0
  4 14  1  0
  5 12  1  0
  5 16  1  0
  5 21  1  0
  6 11  1  0
  7 17  1  0
  8 10  2  0
  9 15  1  0
 10 22  1  0
 11 12  1  0
 12 15  1  0
 12 19  1  0
 14 20  2  0
 14 21  1  0
 15 17  1  0
 17 21  1  0
 18 22  1  0
M  END
>  <ID>  (1) 
conformer_0

$$$$
