
     RDKit          3D

 22 24  0  0  0  0  0  0  0  0999 V2000
   -7.7244    3.6983  -29.8588 C   0  0  0  0  0  0  0  0  0  0  0  0
   -8.4082    3.6175  -31.2148 C   0  0  0  0  0  0  0  0  0  0  0  0
   -6.6762    1.7837  -31.7783 C   0  0  0  0  0  0  0  0  0  0  0  0
   -8.5164    5.7280  -28.7770 O   0  0  0  0  0  0  0  0  0  0  0  0
  -10.1302    2.4121  -32.2669 C   0  0  0  0  0  0  0  0  0  0  0  0
  -11.5841    2.3788  -29.5558 O   0  0  0  0  0  0  0  0  0  0  0  0
   -7.7719    2.6794  -32.2612 C   0  0  0  0  0  0  0  0  0  0  0  0
  -11.4622    1.9578  -32.2198 O   0  0  0  0  0  0  0  0  0  0  0  0
   -9.9486    3.7839  -28.5379 C   0  0  0  0  0  0  0  0  0  0  0  0
   -8.5858    4.3003  -28.7936 C   0  0  0  0  0  0  0  0  0  0  0  0
   -5.5392    1.8006  -32.3818 O   0  0  0  0  0  0  0  0  0  0  0  0
   -7.6620    7.5020  -27.7183 O   0  0  0  0  0  0  0  0  0  0  0  0
   -8.4622    6.5407  -27.6547 C   0  0  0  0  0  0  0  0  0  0  0  0
   -9.8220    3.2017  -31.0374 C   0  0  0  0  0  0  0  0  0  0  0  0
   -6.9319    0.8452  -30.9419 O   0  0  0  0  0  0  0  0  0  0  0  0
   -9.5356    6.5806  -26.7779 N   0  0  0  0  0  0  0  0  0  0  0  0
  -10.3001    5.3428  -26.6353 C   0  0  0  0  0  0  0  0  0  0  0  0
  -10.5865    3.2734  -29.8054 C   0  0  0  0  0  0  0  0  0  0  0  0
   -7.4208    3.5211  -33.3258 O   0  0  0  0  0  0  0  0  0  0  0  0
   -6.3304    3.9064  -30.0300 O   0  0  0  0  0  0  0  0  0  0  0  0
   -8.9335    1.7190  -32.5794 O   0  0  0  0  0  0  0  0  0  0  0  0
  -10.7359    4.8218  -27.8729 N   0  0  0  0  0  0  0  0  0  0  0  0
  1  2  1  0
  1 10  1  0
  1 20  1  0
  2  7  1  0
  2 14  1  0
  3  7  1  0
  3 11  2  0
  3 15  1  0
  4 10  1  0
  4 13  1  0
  5  8  2  0
  5 14  1  0
  5 21  1  0
  6 18  1  0
  7 19  1  0
  7 21  1  0
  9 10  1  0
  9 18  1  0
  9 22  1  0
 12 13  2  0
 13 16  1  0
 14 18  1  0
 16 17  1  0
 17 22  1  0
M  END
>  <ID>  (1) 
conformer_0

$$$$
