
     RDKit          3D

 27 30  0  0  0  0  0  0  0  0999 V2000
   -7.1102    1.6545  -30.2887 C   0  0  0  0  0  0  0  0  0  0  0  0
   -9.2154    4.0369  -31.6162 C   0  0  0  0  0  0  0  0  0  0  0  0
   -4.1617   -1.7553  -29.6167 C   0  0  0  0  0  0  0  0  0  0  0  0
   -9.2455    2.0576  -32.5965 C   0  0  0  0  0  0  0  0  0  0  0  0
   -5.7072   -3.0593  -30.7431 C   0  0  0  0  0  0  0  0  0  0  0  0
   -9.5341    3.2611  -30.3390 O   0  0  0  0  0  0  0  0  0  0  0  0
   -6.7757    3.9572  -30.1661 O   0  0  0  0  0  0  0  0  0  0  0  0
   -8.7411    4.9730  -28.8834 N   0  0  0  0  0  0  0  0  0  0  0  0
  -10.6095    3.6769  -28.1637 C   0  0  0  0  0  0  0  0  0  0  0  0
   -7.7010    5.1419  -29.9022 C   0  0  0  0  0  0  0  0  0  0  0  0
   -9.0770    6.4664  -31.3675 O   0  0  0  0  0  0  0  0  0  0  0  0
   -9.6224    3.9636  -29.1027 C   0  0  0  0  0  0  0  0  0  0  0  0
   -7.0301    2.6268  -33.2011 O   0  0  0  0  0  0  0  0  0  0  0  0
   -6.9076    0.2863  -29.6441 C   0  0  0  0  0  0  0  0  0  0  0  0
   -6.3404   -0.7273  -30.3347 O   0  0  0  0  0  0  0  0  0  0  0  0
   -8.8436    5.8251  -27.7305 C   0  0  0  0  0  0  0  0  0  0  0  0
   -9.8417    5.6379  -26.8278 C   0  0  0  0  0  0  0  0  0  0  0  0
  -10.7568    4.5817  -27.0460 C   0  0  0  0  0  0  0  0  0  0  0  0
   -7.9689    6.8030  -27.5525 O   0  0  0  0  0  0  0  0  0  0  0  0
   -8.0833    3.0289  -32.2379 C   0  0  0  0  0  0  0  0  0  0  0  0
   -8.3582    5.2509  -31.2521 C   0  0  0  0  0  0  0  0  0  0  0  0
   -3.6386   -3.1358  -29.8231 C   0  0  0  0  0  0  0  0  0  0  0  0
   -5.4218   -1.6589  -30.1886 C   0  0  0  0  0  0  0  0  0  0  0  0
  -10.1297    2.5432  -33.4133 O   0  0  0  0  0  0  0  0  0  0  0  0
   -7.2493    2.8878  -30.9538 C   0  0  0  0  0  0  0  0  0  0  0  0
   -4.5742   -3.8389  -30.4752 C   0  0  0  0  0  0  0  0  0  0  0  0
   -8.9634    0.8175  -32.3433 O   0  0  0  0  0  0  0  0  0  0  0  0
  1 14  2  0
  1 25  2  0
  2  6  1  0
  2 20  1  0
  2 21  1  0
  3 22  1  0
  3 23  1  0
  4 20  1  0
  4 24  2  0
  4 27  1  0
  5 23  1  0
  5 26  1  0
  6 12  1  0
  7 10  1  0
  7 25  1  0
  8 10  1  0
  8 12  1  0
  8 16  1  0
  9 12  2  0
  9 18  1  0
 10 21  1  0
 11 21  1  0
 13 20  1  0
 14 15  1  0
 15 23  1  0
 16 17  1  0
 16 19  2  0
 17 18  2  0
 20 25  1  0
 22 26  1  0
M  END
>  <ID>  (1) 
conformer_0

$$$$
