
     RDKit          3D

 29 29  0  0  0  0  0  0  0  0999 V2000
  -14.4804    1.6874  -32.5440 O   0  0  0  0  0  0  0  0  0  0  0  0
   -8.5008    4.0586  -31.2427 C   0  0  0  0  0  0  0  0  0  0  0  0
  -12.3897    1.8223  -31.3191 C   0  0  0  0  0  0  0  0  0  0  0  0
  -13.5402    1.0690  -31.9744 C   0  0  0  0  0  0  0  0  0  0  0  0
  -11.1942    2.0369  -32.1933 C   0  0  0  0  0  0  0  0  0  0  0  0
   -7.1449    2.6574  -32.5847 C   0  0  0  0  0  0  0  0  0  0  0  0
   -8.5997    2.6147  -31.9431 C   0  0  0  0  0  0  0  0  0  0  0  0
   -8.6572    5.5748  -27.5412 C   0  0  0  0  0  0  0  0  0  0  0  0
  -11.6287    4.8865  -27.6788 O   0  0  0  0  0  0  0  0  0  0  0  0
   -8.8374    1.1769  -32.3031 O   0  0  0  0  0  0  0  0  0  0  0  0
   -7.5421    3.6018  -30.0699 O   0  0  0  0  0  0  0  0  0  0  0  0
  -12.8160    2.8096  -30.5535 O   0  0  0  0  0  0  0  0  0  0  0  0
  -10.5164    4.1792  -27.9916 C   0  0  0  0  0  0  0  0  0  0  0  0
   -6.2724    4.8036  -27.1467 C   0  0  0  0  0  0  0  0  0  0  0  0
  -13.4921   -0.1616  -31.9448 O   0  0  0  0  0  0  0  0  0  0  0  0
  -11.3890    5.1941  -30.3831 O   0  0  0  0  0  0  0  0  0  0  0  0
  -10.2614    2.9042  -30.1406 O   0  0  0  0  0  0  0  0  0  0  0  0
   -6.1749    2.0253  -32.1746 O   0  0  0  0  0  0  0  0  0  0  0  0
  -10.0267    3.4661  -26.8486 F   0  0  0  0  0  0  0  0  0  0  0  0
  -10.1130    3.0060  -31.6953 C   0  0  0  0  0  0  0  0  0  0  0  0
  -10.6259    4.2669  -29.6988 C   0  0  0  0  0  0  0  0  0  0  0  0
   -8.9683    5.1311  -32.0163 O   0  0  0  0  0  0  0  0  0  0  0  0
   -7.9862    6.8638  -27.6063 C   0  0  0  0  0  0  0  0  0  0  0  0
   -9.5145    4.9187  -28.8127 C   0  0  0  0  0  0  0  0  0  0  0  0
   -7.7427    4.5841  -27.0240 C   0  0  0  0  0  0  0  0  0  0  0  0
   -8.3346    4.6794  -29.8016 C   0  0  0  0  0  0  0  0  0  0  0  0
   -7.1239    3.4088  -33.5965 O   0  0  0  0  0  0  0  0  0  0  0  0
   -7.5586    5.8597  -29.9296 O   0  0  0  0  0  0  0  0  0  0  0  0
   -9.5283    6.0769  -26.5367 C   0  0  0  0  0  0  0  0  0  0  0  0
  1  4  2  0
  2  7  1  0
  2 22  1  0
  2 26  1  0
  3  4  1  0
  3  5  1  0
  3 12  1  0
  4 15  1  0
  5 20  1  0
  6  7  1  0
  6 18  2  0
  6 27  1  0
  7 10  1  0
  7 20  1  0
  8 23  1  0
  8 24  1  0
  8 25  1  0
  8 29  1  0
  9 13  1  0
 11 26  1  0
 13 19  1  0
 13 24  1  0
 14 25  1  0
 16 21  2  0
 17 20  1  0
 17 21  1  0
 21 24  1  0
 24 26  1  0
 26 28  1  0
M  END
>  <ID>  (1) 
conformer_0

$$$$
