
     RDKit          3D

 15 16  0  0  0  0  0  0  0  0999 V2000
   -7.0283    4.4343  -29.8858 C   0  0  0  0  0  0  0  0  0  0  0  0
   -9.5689    5.6451  -27.3137 C   0  0  0  0  0  0  0  0  0  0  0  0
  -10.5875    4.7429  -27.7447 C   0  0  0  0  0  0  0  0  0  0  0  0
   -8.9189    1.7681  -32.6697 O   0  0  0  0  0  0  0  0  0  0  0  0
   -9.0828    3.7933  -30.9583 N   0  0  0  0  0  0  0  0  0  0  0  0
   -8.4187    5.7656  -28.0531 C   0  0  0  0  0  0  0  0  0  0  0  0
   -7.5827    0.8375  -31.0252 O   0  0  0  0  0  0  0  0  0  0  0  0
   -5.8664    1.9515  -32.1676 O   0  0  0  0  0  0  0  0  0  0  0  0
   -9.3248    4.2354  -29.6658 C   0  0  0  0  0  0  0  0  0  0  0  0
   -7.4444    2.1261  -32.0829 S   0  0  0  0  0  6  0  0  0  0  0  0
   -7.3775    3.4146  -33.3851 O   0  0  0  0  0  0  0  0  0  0  0  0
   -7.6068    3.5215  -30.8587 C   0  0  0  0  0  0  0  0  0  0  0  0
   -8.2195    4.8922  -29.1646 C   0  0  0  0  0  0  0  0  0  0  0  0
  -10.4679    4.0613  -28.9709 C   0  0  0  0  0  0  0  0  0  0  0  0
   -7.5512    6.6978  -27.7276 O   0  0  0  0  0  0  0  0  0  0  0  0
  1 12  1  0
  1 13  1  0
  2  3  1  0
  2  6  2  0
  3 14  1  0
  4 10  1  0
  5  9  1  0
  5 12  1  0
  6 13  1  0
  6 15  1  0
  7 10  1  0
  8 10  1  0
  9 13  1  0
  9 14  2  0
 10 11  1  0
 10 12  1  0
M  END
>  <ID>  (1) 
conformer_0

$$$$
