
     RDKit          3D

 26 27  0  0  0  0  0  0  0  0999 V2000
  -13.7073    1.9138  -31.5870 C   0  0  0  0  0  0  0  0  0  0  0  0
   -9.4102    4.2301  -27.6696 C   0  0  0  0  0  0  0  0  0  0  0  0
   -8.8191    1.1598  -32.4480 O   0  0  0  0  0  0  0  0  0  0  0  0
   -7.0011    3.1691  -33.4278 O   0  0  0  0  0  0  0  0  0  0  0  0
  -12.4887    2.7491  -31.1708 C   0  0  0  0  0  0  0  0  0  0  0  0
   -6.6221    2.5499  -32.3997 C   0  0  0  0  0  0  0  0  0  0  0  0
   -8.5740    6.0860  -31.1540 O   0  0  0  0  0  0  0  0  0  0  0  0
   -9.7118    6.6955  -31.8644 O   0  0  0  0  0  0  0  0  0  0  0  0
   -8.7600    4.7804  -30.8088 C   0  0  0  0  0  0  0  0  0  0  0  0
  -12.0719    2.3969  -29.7992 N   0  0  0  0  0  0  0  0  0  0  0  0
   -7.4584    2.7178  -31.1361 C   0  0  0  0  0  0  0  0  0  0  0  0
   -8.7964    2.2885  -31.5819 C   0  0  0  0  0  0  0  0  0  0  0  0
  -10.0855    4.2339  -31.0019 C   0  0  0  0  0  0  0  0  0  0  0  0
   -7.3343    4.1838  -28.9976 O   0  0  0  0  0  0  0  0  0  0  0  0
  -10.2966    4.8642  -26.8372 C   0  0  0  0  0  0  0  0  0  0  0  0
  -10.0137    6.1650  -26.3764 C   0  0  0  0  0  0  0  0  0  0  0  0
   -5.6065    1.8133  -32.2700 O   0  0  0  0  0  0  0  0  0  0  0  0
  -11.1793    4.9554  -30.5998 O   0  0  0  0  0  0  0  0  0  0  0  0
  -12.5693    1.1402  -29.3637 O   0  0  0  0  0  0  0  0  0  0  0  0
   -7.9903    6.2323  -27.7358 C   0  0  0  0  0  0  0  0  0  0  0  0
  -11.2712    2.3486  -32.0418 C   0  0  0  0  0  0  0  0  0  0  0  0
   -8.8467    6.8422  -26.8208 C   0  0  0  0  0  0  0  0  0  0  0  0
  -13.3419    0.7694  -32.3046 O   0  0  0  0  0  0  0  0  0  0  0  0
  -10.1012    2.7567  -31.1832 C   0  0  0  0  0  0  0  0  0  0  0  0
   -8.2651    4.8946  -28.1134 C   0  0  0  0  0  0  0  0  0  0  0  0
   -7.6199    4.0239  -30.3838 C   0  0  0  0  0  0  0  0  0  0  0  0
  1  5  1  0
  1 23  1  0
  2 15  2  0
  2 25  1  0
  3 12  1  0
  4  6  2  0
  5 10  1  0
  5 21  1  0
  6 11  1  0
  6 17  1  0
  7  8  1  0
  7  9  1  0
  9 13  1  0
  9 26  1  0
 10 19  1  0
 11 12  1  0
 11 26  1  0
 12 24  1  0
 13 18  1  0
 13 24  1  0
 14 25  1  0
 14 26  1  0
 15 16  1  0
 16 22  1  0
 20 22  2  0
 20 25  1  0
 21 24  1  0
M  END
>  <ID>  (1) 
conformer_0

$$$$
