
     RDKit          3D

 18 19  0  0  0  0  0  0  0  0999 V2000
   -7.6338    6.2515  -28.7363 N   0  0  0  0  0  0  0  0  0  0  0  0
   -7.8836    7.1133  -27.7303 C   0  0  0  0  0  0  0  0  0  0  0  0
   -8.8794    6.9123  -26.9126 C   0  0  0  0  0  0  0  0  0  0  0  0
  -10.2415    3.0781  -30.5890 C   0  0  0  0  0  0  0  0  0  0  0  0
   -9.6851    5.8316  -27.1079 N   0  0  0  0  0  0  0  0  0  0  0  0
  -11.0579    3.8630  -29.5989 C   0  0  0  0  0  0  0  0  0  0  0  0
   -7.9649    4.0946  -29.8956 C   0  0  0  0  0  0  0  0  0  0  0  0
   -7.3136    3.4338  -33.2096 O   0  0  0  0  0  1  0  0  0  0  0  0
   -9.0636    3.9271  -30.9863 C   0  0  0  0  0  0  0  0  0  0  0  0
   -8.3024    5.1065  -28.9112 C   0  0  0  0  0  0  0  0  0  0  0  0
  -10.4585    1.8905  -32.6793 O   0  0  0  0  0  0  0  0  0  0  0  0
   -7.9115    1.4132  -31.7232 O   0  0  0  0  0  0  0  0  0  0  0  0
  -10.2844    3.6708  -28.2284 C   0  0  0  0  0  0  0  0  0  0  0  0
   -9.4147    4.8889  -28.0752 C   0  0  0  0  0  0  0  0  0  0  0  0
   -6.8948    2.5636  -31.9550 P   0  0  0  0  0  4  0  0  0  0  0  0
   -6.6383    3.6247  -30.6098 O   0  0  0  0  0  0  0  0  0  0  0  0
   -5.5202    1.8544  -32.2952 O   0  0  0  0  0  0  0  0  0  0  0  0
  -11.2271    2.4944  -31.6369 C   0  0  0  0  0  0  0  0  0  0  0  0
  1  2  2  0
  1 10  1  0
  2  3  1  0
  3  5  2  0
  4  6  1  0
  4  9  1  0
  4 18  1  0
  5 14  1  0
  6 13  1  0
  7  9  1  0
  7 10  1  0
  7 16  1  0
  8 15  2  0
 10 14  2  0
 11 18  1  0
 12 15  1  0
 13 14  1  0
 15 16  1  0
 15 17  1  0
M  END
>  <ID>  (1) 
conformer_0

$$$$
