
     RDKit          3D

 25 25  0  0  0  0  0  0  0  0999 V2000
   -5.7774   -0.3945  -30.4230 C   0  0  0  0  0  0  0  0  0  0  0  0
   -8.8904    0.6180  -32.6606 O   0  0  0  0  0  0  0  0  0  0  0  0
   -9.0382    4.0501  -29.7556 C   0  0  0  0  0  0  0  0  0  0  0  0
  -11.3011    4.7974  -26.1700 C   0  0  0  0  0  0  0  0  0  0  0  0
   -7.2342    2.2918  -32.8059 C   0  0  0  0  0  0  0  0  0  0  0  0
   -5.1786    1.3427  -32.0988 O   0  0  0  0  0  0  0  0  0  0  0  0
   -9.3321    2.8565  -31.8342 C   0  0  0  0  0  0  0  0  0  0  0  0
  -10.7263    2.5023  -31.8934 O   0  0  0  0  0  0  0  0  0  0  0  0
   -8.1232    4.9102  -29.0561 C   0  0  0  0  0  0  0  0  0  0  0  0
   -6.5434    4.6038  -29.4887 Cl  0  0  0  0  0  0  0  0  0  0  0  0
  -10.2529    4.6238  -27.4250 C   0  0  0  0  0  0  0  0  0  0  0  0
   -6.1444   -1.7920  -30.7649 C   0  0  0  0  0  0  0  0  0  0  0  0
   -9.3834    5.8311  -27.1884 C   0  0  0  0  0  0  0  0  0  0  0  0
   -4.9428   -2.6120  -30.3104 C   0  0  0  0  0  0  0  0  0  0  0  0
   -8.4760    3.1883  -30.7564 O   0  0  0  0  0  0  0  0  0  0  0  0
  -11.0718    4.5762  -28.6275 N   0  0  0  0  0  0  0  0  0  0  0  0
  -10.4981    3.9053  -29.7114 C   0  0  0  0  0  0  0  0  0  0  0  0
   -7.6803    7.1310  -28.1321 O   0  0  0  0  0  0  0  0  0  0  0  0
   -6.5299    1.6546  -31.6469 C   0  0  0  0  0  0  0  0  0  0  0  0
   -7.1868    3.6382  -33.2330 O   0  0  0  0  0  0  0  0  0  0  0  0
   -6.9647    0.5606  -30.8778 C   0  0  0  0  0  0  0  0  0  0  0  0
   -5.1988   -3.8577  -30.1637 O   0  0  0  0  0  0  0  0  0  0  0  0
   -8.6817    1.9385  -32.8702 C   0  0  0  0  0  0  0  0  0  0  0  0
   -3.8332   -2.1121  -30.0963 O   0  0  0  0  0  0  0  0  0  0  0  0
   -8.3265    5.9951  -28.1248 C   0  0  0  0  0  0  0  0  0  0  0  0
  1 12  1  0
  1 21  1  0
  2 23  1  0
  3  9  2  0
  3 15  1  0
  3 17  1  0
  4 11  1  0
  5 19  1  0
  5 20  1  0
  5 23  1  0
  6 19  1  0
  7  8  2  0
  7 15  1  0
  7 23  1  0
  9 10  1  0
  9 25  1  0
 11 13  1  0
 11 16  1  0
 12 14  1  0
 13 25  1  0
 14 22  2  0
 14 24  1  0
 16 17  1  0
 18 25  1  0
 19 21  1  0
M  END
>  <ID>  (1) 
conformer_0

$$$$
