
     RDKit          3D

 17 18  0  0  0  0  0  0  0  0999 V2000
   -8.7638    5.6942  -28.9035 C   0  0  0  0  0  0  0  0  0  0  0  0
   -9.0267    4.0891  -30.8982 C   0  0  0  0  0  0  0  0  0  0  0  0
   -7.7670    3.1448  -30.7513 C   0  0  0  0  0  0  0  0  0  0  0  0
   -8.2166    1.4125  -32.4007 O   0  0  0  0  0  0  0  0  0  0  0  0
   -7.2934    3.5625  -29.4294 C   0  0  0  0  0  0  0  0  0  0  0  0
   -7.3629    3.5169  -33.3223 O   0  0  0  0  0  1  0  0  0  0  0  0
   -9.8813    4.6589  -28.7383 C   0  0  0  0  0  0  0  0  0  0  0  0
   -8.5359    5.4984  -30.5195 C   0  0  0  0  0  0  0  0  0  0  0  0
  -11.1235    5.5281  -26.7772 O   0  0  0  0  0  0  0  0  0  0  0  0
   -8.7602    6.5146  -27.6028 O   0  0  0  0  0  0  0  0  0  0  0  0
   -9.3063    6.4775  -31.2015 O   0  0  0  0  0  0  0  0  0  0  0  0
  -10.3795    4.3713  -27.3278 C   0  0  0  0  0  0  0  0  0  0  0  0
   -9.5713    1.9644  -32.3844 O   0  0  0  0  0  0  0  0  0  0  0  0
   -7.4766    4.7683  -28.5750 C   0  0  0  0  0  0  0  0  0  0  0  0
   -9.8060    3.6504  -29.7023 O   0  0  0  0  0  0  0  0  0  0  0  0
   -7.2453    2.4779  -32.1769 P   0  0  0  0  0  4  0  0  0  0  0  0
   -5.8342    1.9991  -32.0441 O   0  0  0  0  0  0  0  0  0  0  0  0
  1  7  1  0
  1  8  1  0
  1 10  1  0
  1 14  1  0
  2  3  1  0
  2  8  1  0
  2 15  1  0
  3  5  1  0
  3 16  1  0
  4 13  1  0
  4 16  1  0
  5 14  1  0
  6 16  2  0
  7 12  1  0
  7 15  1  0
  8 11  1  0
  9 12  1  0
 16 17  1  0
M  END
>  <ID>  (1) 
conformer_0

$$$$
