
     RDKit          3D

 24 24  0  0  0  0  0  0  0  0999 V2000
   -7.8039    3.8219  -33.5086 O   0  0  0  0  0  0  0  0  0  0  0  0
  -10.8364    6.4299  -26.2415 O   0  0  0  0  0  0  0  0  0  0  0  0
   -9.8916    2.9360  -30.5690 C   0  0  0  0  0  0  0  0  0  0  0  0
   -7.1152    1.2476  -33.2112 O   0  0  0  0  0  0  0  0  0  0  0  0
   -6.4647    1.8254  -32.3182 C   0  0  0  0  0  0  0  0  0  0  0  0
   -6.8446    2.7675  -30.1273 O   0  0  0  0  0  0  0  0  0  0  0  0
   -8.5100    6.8205  -28.3543 O   0  0  0  0  0  0  0  0  0  0  0  0
   -8.2668    6.9823  -26.9354 C   0  0  0  0  0  0  0  0  0  0  0  0
  -11.1838    3.1817  -29.8596 C   0  0  0  0  0  0  0  0  0  0  0  0
  -10.9125    3.7499  -28.5793 O   0  0  0  0  0  0  0  0  0  0  0  0
  -12.2141    3.3045  -30.4253 O   0  0  0  0  0  0  0  0  0  0  0  0
   -9.0158    4.0047  -30.0950 O   0  0  0  0  0  0  0  0  0  0  0  0
  -11.4706    1.5353  -32.2952 O   0  0  0  0  0  0  0  0  0  0  0  0
   -9.2330    2.4399  -31.8705 C   0  0  0  0  0  0  0  0  0  0  0  0
   -8.2272    3.4875  -32.2294 C   0  0  0  0  0  0  0  0  0  0  0  0
   -8.6123    6.1847  -30.9286 O   0  0  0  0  0  0  0  0  0  0  0  0
  -10.0777    4.7163  -27.8930 C   0  0  0  0  0  0  0  0  0  0  0  0
   -8.1242    5.1214  -30.1648 C   0  0  0  0  0  0  0  0  0  0  0  0
   -8.5895    4.5714  -27.8003 C   0  0  0  0  0  0  0  0  0  0  0  0
   -6.9323    3.0593  -31.4478 C   0  0  0  0  0  0  0  0  0  0  0  0
  -10.7242    4.9780  -26.4969 C   0  0  0  0  0  0  0  0  0  0  0  0
  -10.1627    1.8318  -32.7763 C   0  0  0  0  0  0  0  0  0  0  0  0
   -7.8541    5.5806  -28.7278 C   0  0  0  0  0  0  0  0  0  0  0  0
   -5.1832    1.4946  -32.1775 O   0  0  0  0  0  0  0  0  0  0  0  0
  1 15  1  0
  2 21  1  0
  3  9  1  0
  3 12  1  0
  3 14  1  0
  4  5  2  0
  5 20  1  0
  5 24  1  0
  6 20  1  0
  7  8  1  0
  7 23  1  0
  9 10  1  0
  9 11  2  0
 10 17  1  0
 12 18  1  0
 13 22  1  0
 14 15  1  0
 14 22  1  0
 15 20  1  0
 16 18  1  0
 17 19  1  0
 17 21  1  0
 18 23  1  0
 19 23  1  0
M  END
>  <ID>  (1) 
conformer_0

$$$$
