
     RDKit          3D

 12 11  0  0  0  0  0  0  0  0999 V2000
  -10.8333    4.3738  -28.7898 O   0  0  0  0  0  0  0  0  0  0  0  0
   -9.0664    5.9237  -27.8012 C   0  0  0  0  0  0  0  0  0  0  0  0
   -6.2721    1.9500  -32.1379 O   0  0  0  0  0  0  0  0  0  0  0  0
   -6.5956    4.0193  -30.3224 O   0  0  0  0  0  0  0  0  0  0  0  0
   -7.2859    2.7215  -32.1783 C   0  0  0  0  0  0  0  0  0  0  0  0
   -7.7929    3.1331  -33.2583 O   0  0  0  0  0  0  0  0  0  0  0  0
   -9.8047    4.2884  -29.7597 C   0  0  0  0  0  0  0  0  0  0  0  0
   -8.1682    4.8054  -28.0765 C   0  0  0  0  0  0  0  0  0  0  0  0
   -8.7847    5.3762  -29.3269 C   0  0  0  0  0  0  0  0  0  0  0  0
   -8.9743    3.1524  -30.3958 C   0  0  0  0  0  0  0  0  0  0  0  0
   -8.0528    7.0644  -27.6480 O   0  0  0  0  0  0  0  0  0  0  0  0
   -7.6405    3.4949  -30.9434 C   0  0  0  0  0  0  0  0  0  0  0  0
  1  7  1  0
  2  8  1  0
  2 11  1  0
  3  5  2  0
  4 12  1  0
  5  6  1  0
  5 12  1  0
  7  9  1  0
  7 10  1  0
  8  9  1  0
 10 12  1  0
M  END
>  <ID>  (1) 
conformer_0

$$$$
