
     RDKit          3D

 30 32  0  0  0  0  0  0  0  0999 V2000
  -11.9672    2.5675  -31.4477 C   0  0  0  0  0  0  0  0  0  0  0  0
   -6.8008    2.7918  -29.8615 C   0  0  0  0  0  0  0  0  0  0  0  0
  -10.0318    5.1398  -27.4569 O   0  0  0  0  0  0  0  0  0  0  0  0
   -8.3394    7.1918  -27.1507 C   0  0  0  0  0  0  0  0  0  0  0  0
   -8.5949    4.2953  -30.7647 C   0  0  0  0  0  0  0  0  0  0  0  0
   -4.8631   -2.0475  -30.2930 C   0  0  0  0  0  0  0  0  0  0  0  0
   -6.5512    1.3539  -29.8674 C   0  0  0  0  0  3  0  0  0  0  0  0
  -10.0047    4.0929  -28.4757 C   0  0  0  0  0  0  0  0  0  0  0  0
   -6.3175   -0.0582  -30.2878 C   0  0  0  0  0  0  0  0  0  0  0  0
  -10.7940    3.0579  -30.6549 C   0  0  0  0  0  0  0  0  0  0  0  0
   -5.0985   -0.6318  -30.2543 N   0  0  0  0  0  0  0  0  0  0  0  0
  -11.5900    1.9290  -32.4445 O   0  0  0  0  0  0  0  0  0  0  0  0
  -13.0456    2.6302  -30.8657 O   0  0  0  0  0  0  0  0  0  0  0  0
   -3.6564   -2.6722  -29.7419 C   0  0  0  0  0  0  0  0  0  0  0  0
   -3.8387   -4.1008  -29.7954 N   0  0  0  0  0  0  0  0  0  0  0  0
   -7.3328   -0.6014  -30.6592 O   0  0  0  0  0  0  0  0  0  0  0  0
   -7.9759    5.2085  -28.4711 C   0  0  0  0  0  0  0  0  0  0  0  0
   -5.3626   -5.4569  -30.8874 O   0  0  0  0  0  0  0  0  0  0  0  0
   -8.6260    5.5970  -31.3630 O   0  0  0  0  0  0  0  0  0  0  0  0
   -8.8554    2.1980  -31.9774 O   0  0  0  0  0  0  0  0  0  0  0  0
   -8.8188    5.8003  -27.3956 C   0  0  0  0  0  0  0  0  0  0  0  0
   -6.2396    1.8752  -32.6126 O   0  0  0  0  0  0  0  0  0  0  0  0
   -5.0645   -4.3003  -30.3854 C   0  0  0  0  0  0  0  0  0  0  0  0
   -5.7023   -3.0740  -30.5076 O   0  0  0  0  0  0  0  0  0  0  0  0
   -7.3500    2.8115  -32.3808 P   0  0  0  0  0  0  0  0  0  0  0  0
   -8.8033    4.3354  -29.2975 C   0  0  0  0  0  0  0  0  0  0  0  0
   -7.1511    3.6748  -31.0039 C   0  0  0  0  0  0  0  0  0  0  0  0
  -11.1887    3.7961  -29.4026 C   0  0  0  0  0  0  0  0  0  0  0  0
   -9.5768    3.3667  -31.5051 C   0  0  0  0  0  0  0  0  0  0  0  0
   -7.4903    3.7469  -33.5648 O   0  0  0  0  0  0  0  0  0  0  0  0
  1 10  1  0
  1 12  2  0
  1 13  1  0
  2  7  2  0
  2 27  1  0
  3  8  1  0
  3 21  1  0
  4 21  1  0
  5 19  1  0
  5 26  1  0
  5 27  1  0
  5 29  1  0
  6 11  1  0
  6 14  1  0
  6 24  1  0
  7  9  1  0
  8 26  1  0
  8 28  1  0
  9 11  1  0
  9 16  2  0
 10 28  1  0
 10 29  1  0
 14 15  1  0
 15 23  1  0
 17 21  1  0
 17 26  1  0
 18 23  2  0
 20 29  1  0
 22 25  1  0
 23 24  1  0
 25 27  1  0
 25 30  1  0
M  END
>  <ID>  (1) 
conformer_0

$$$$
