
     RDKit          3D

 14 14  0  0  0  0  0  0  0  0999 V2000
  -10.1604    4.1635  -30.0823 C   0  0  0  0  0  0  0  0  0  0  0  0
   -7.6108    5.0254  -29.3559 N   0  0  0  0  0  0  0  0  0  0  0  0
   -8.7782    6.1946  -27.5406 C   0  0  0  0  0  0  0  0  0  0  0  0
   -5.9934    1.9363  -32.0534 O   0  0  0  0  0  1  0  0  0  0  0  0
   -7.4438    2.3880  -32.2229 P   0  0  0  0  0  4  0  0  0  0  0  0
   -7.9077    7.3306  -27.9128 O   0  0  0  0  0  0  0  0  0  0  0  0
   -8.1179    2.9368  -30.7749 C   0  0  0  0  0  0  0  0  0  0  0  0
   -7.4422    3.5127  -33.2819 O   0  0  0  0  0  0  0  0  0  0  0  0
   -8.8785    5.4120  -28.7912 C   0  0  0  0  0  0  0  0  0  0  0  0
   -7.3971    3.6667  -29.7307 C   0  0  0  0  0  0  0  0  0  0  0  0
   -9.4193    3.5134  -31.1302 N   0  0  0  0  0  0  0  0  0  0  0  0
   -9.6687    4.0313  -28.6137 C   0  0  0  0  0  0  0  0  0  0  0  0
   -8.3241    1.2555  -32.6879 O   0  0  0  0  0  0  0  0  0  0  0  0
  -10.7012    4.3284  -27.6998 O   0  0  0  0  0  0  0  0  0  0  0  0
  1 11  2  0
  1 12  1  0
  2  9  1  0
  2 10  1  0
  3  6  1  0
  3  9  1  0
  4  5  2  0
  5  7  1  0
  5  8  1  0
  5 13  1  0
  7 10  1  0
  7 11  1  0
  9 12  1  0
 12 14  1  0
M  END
>  <ID>  (1) 
conformer_0

$$$$
