
     RDKit          3D

 30 30  0  0  0  0  0  0  0  0999 V2000
   -8.7052    6.1845  -31.1657 O   0  0  0  0  0  0  0  0  0  0  0  0
   -7.5019    3.6421  -30.8938 C   0  0  0  0  0  0  0  0  0  0  0  0
  -12.2405    3.9019  -30.7584 O   0  0  0  0  0  0  0  0  0  0  0  0
   -5.5542    1.7298  -32.0216 O   0  0  0  0  0  0  0  0  0  0  0  0
  -14.2765    0.6710  -32.1617 C   0  0  0  0  0  0  0  0  0  0  0  0
  -13.4517    1.3931  -31.3045 N   0  0  0  0  0  0  0  0  0  0  0  0
   -6.7707    1.3372  -33.7868 O   0  0  0  0  0  0  0  0  0  0  0  0
   -8.4197    5.9630  -28.5937 C   0  0  0  0  0  0  0  0  0  0  0  0
   -9.8352    2.5383  -32.6462 C   0  0  0  0  0  0  0  0  0  0  0  0
   -9.4235    1.1878  -32.6237 O   0  0  0  0  0  0  0  0  0  0  0  0
  -10.9859    4.2785  -26.5796 C   0  0  0  0  0  0  0  0  0  0  0  0
   -9.4134    6.1710  -26.2004 C   0  0  0  0  0  0  0  0  0  0  0  0
   -7.6888    3.9028  -33.2634 O   0  0  0  0  0  0  0  0  0  0  0  0
   -8.3083    6.6663  -27.1890 C   0  0  0  0  0  0  0  0  0  0  0  0
  -14.2393   -0.5599  -32.0609 O   0  0  0  0  0  0  0  0  0  0  0  0
   -7.4614    3.5855  -29.2986 C   0  0  0  0  0  0  0  0  0  0  0  0
   -6.5222    4.9326  -27.4980 O   0  0  0  0  0  0  0  0  0  0  0  0
   -9.7239    4.2363  -30.4886 O   0  0  0  0  0  0  0  0  0  0  0  0
   -7.2585    4.9582  -28.6417 C   0  0  0  0  0  0  0  0  0  0  0  0
  -14.9680    1.3218  -33.0094 O   0  0  0  0  0  0  0  0  0  0  0  0
  -12.1934    1.8542  -31.9142 C   0  0  0  0  0  0  0  0  0  0  0  0
  -10.9096    5.8142  -26.3114 C   0  0  0  0  0  0  0  0  0  0  0  0
  -11.5410    2.7691  -30.9823 C   0  0  0  0  0  0  0  0  0  0  0  0
   -6.3471    3.3862  -30.2101 O   0  0  0  0  0  0  0  0  0  0  0  0
   -9.7777    5.2776  -28.6023 C   0  0  0  0  0  0  0  0  0  0  0  0
   -8.4621    4.7606  -30.9733 C   0  0  0  0  0  0  0  0  0  0  0  0
   -7.6194    2.9686  -32.2429 C   0  0  0  0  0  0  0  0  0  0  0  0
  -10.0811    3.0328  -31.2432 C   0  0  0  0  0  0  0  0  0  0  0  0
   -9.8944    4.0522  -27.6618 C   0  0  0  0  0  0  0  0  0  0  0  0
   -6.6406    1.8938  -32.6230 C   0  0  0  0  0  0  0  0  0  0  0  0
  1 26  2  0
  2 24  1  0
  2 26  1  0
  2 27  1  0
  3 23  1  0
  4 30  2  0
  5  6  1  0
  5 15  2  0
  5 20  1  0
  6 21  1  0
  7 30  1  0
  8 14  1  0
  8 19  1  0
  8 25  1  0
  9 10  1  0
  9 28  1  0
 11 22  1  0
 11 29  1  0
 12 14  1  0
 12 22  1  0
 13 27  1  0
 16 19  1  0
 16 24  1  0
 17 19  1  0
 18 26  1  0
 18 28  1  0
 21 23  1  0
 23 28  1  0
 25 29  1  0
 27 30  1  0
M  END
>  <ID>  (1) 
conformer_0

$$$$
