
     RDKit          3D

 13 13  0  0  0  0  0  0  0  0999 V2000
   -9.4110    4.5465  -29.5200 C   0  0  0  0  0  0  0  0  0  0  0  0
   -7.1553    4.1333  -30.2372 O   0  0  0  0  0  0  0  0  0  0  0  0
   -7.6298    5.9693  -28.6870 O   0  0  0  0  0  0  0  0  0  0  0  0
   -7.4363    2.4125  -32.2427 P   0  0  0  0  0  4  0  0  0  0  0  0
   -9.7793    5.6803  -27.3534 O   0  0  0  0  0  0  0  0  0  0  0  0
   -7.4897    3.5282  -33.2846 O   0  0  0  0  0  1  0  0  0  0  0  0
   -9.9885    4.6590  -28.0929 C   0  0  0  0  0  0  0  0  0  0  0  0
   -5.9910    1.9627  -32.1166 O   0  0  0  0  0  0  0  0  0  0  0  0
   -7.9172    4.9134  -29.3655 C   0  0  0  0  0  0  0  0  0  0  0  0
   -9.3501    3.4791  -30.6571 C   0  0  0  0  0  0  0  0  0  0  0  0
   -7.9031    2.9573  -30.7127 C   0  0  0  0  0  0  0  0  0  0  0  0
  -10.5712    3.6034  -27.6829 O   0  0  0  0  0  0  0  0  0  0  0  0
   -8.3412    1.2870  -32.6403 O   0  0  0  0  0  0  0  0  0  0  0  0
  1  7  1  0
  1  9  1  0
  1 10  1  0
  2  9  1  0
  2 11  1  0
  3  9  2  0
  4  6  2  0
  4  8  1  0
  4 11  1  0
  4 13  1  0
  5  7  2  0
  7 12  1  0
 10 11  1  0
M  END
>  <ID>  (1) 
conformer_0

$$$$
