
     RDKit          3D

 22 23  0  0  0  0  0  0  0  0999 V2000
   -8.6409    2.5977  -30.4373 O   0  0  0  0  0  0  0  0  0  0  0  0
  -11.1573    4.0536  -29.7311 O   0  0  0  0  0  0  0  0  0  0  0  0
   -6.0419    1.7195  -32.3749 O   0  0  0  0  0  1  0  0  0  0  0  0
   -8.7626    6.1980  -30.1503 O   0  0  0  0  0  0  0  0  0  0  0  0
  -11.0673    2.6168  -31.8120 C   0  0  0  0  0  0  0  0  0  0  0  0
   -8.3729    5.2386  -29.2062 C   0  0  0  0  0  0  0  0  0  0  0  0
   -7.8519    7.5613  -27.9499 O   0  0  0  0  0  0  0  0  0  0  0  0
   -8.9031    3.8767  -29.6890 C   0  0  0  0  0  0  0  0  0  0  0  0
  -11.0233    2.7138  -30.2686 C   0  0  0  0  0  0  0  0  0  0  0  0
   -8.5883    6.6622  -27.1338 C   0  0  0  0  0  0  0  0  0  0  0  0
  -10.1642    3.5884  -28.8443 C   0  0  0  0  0  0  0  0  0  0  0  0
  -12.2122    1.9387  -32.3441 O   0  0  0  0  0  0  0  0  0  0  0  0
   -8.9307    5.4345  -27.8612 C   0  0  0  0  0  0  0  0  0  0  0  0
  -10.8406    4.5594  -26.6590 O   0  0  0  0  0  0  0  0  0  0  0  0
   -8.5779    2.3716  -31.7713 C   0  0  0  0  0  0  0  0  0  0  0  0
   -7.1920    3.6058  -33.5214 O   0  0  0  0  0  0  0  0  0  0  0  0
   -9.7774    4.2880  -27.5540 C   0  0  0  0  0  0  0  0  0  0  0  0
  -11.0261    5.9109  -26.2724 O   0  0  0  0  0  0  0  0  0  0  0  0
  -11.8967    1.8225  -29.7197 O   0  0  0  0  0  0  0  0  0  0  0  0
   -9.8346    2.1169  -32.5182 C   0  0  0  0  0  0  0  0  0  0  0  0
   -6.9691    2.8673  -32.1960 P   0  0  0  0  0  4  0  0  0  0  0  0
   -6.3672    3.7313  -31.0507 O   0  0  0  0  0  0  0  0  0  0  0  0
  1  8  1  0
  1 15  1  0
  2  9  1  0
  2 11  1  0
  3 21  2  0
  4  6  1  0
  5  9  1  0
  5 12  1  0
  5 20  1  0
  6  8  1  0
  6 13  1  0
  7 10  1  0
  8 11  1  0
  9 19  1  0
 10 13  1  0
 11 17  1  0
 13 17  1  0
 14 17  1  0
 14 18  1  0
 15 20  1  0
 15 21  1  0
 16 21  1  0
 21 22  1  0
M  END
>  <ID>  (1) 
conformer_0

$$$$
