
     RDKit          3D

  9  8  0  0  0  0  0  0  0  0999 V2000
   -7.5347    2.4955  -31.9189 P   0  0  0  0  0  4  0  0  0  0  0  0
   -9.9013    4.6378  -28.5151 O   0  0  0  0  0  0  0  0  0  0  0  0
   -8.4788    1.3122  -32.1284 O   0  0  0  0  0  1  0  0  0  0  0  0
   -8.8651    5.2059  -29.0620 C   0  0  0  0  0  0  0  0  0  0  0  0
   -7.6729    3.5350  -33.1075 O   0  0  0  0  0  0  0  0  0  0  0  0
   -8.4851    4.6458  -30.3634 C   0  0  0  0  0  0  0  0  0  0  0  0
   -7.8867    3.2640  -30.3286 C   0  0  0  0  0  0  0  0  0  0  0  0
   -8.1654    6.1066  -28.4552 O   0  0  0  0  0  0  0  0  0  0  0  0
   -6.0380    2.0304  -31.9428 O   0  0  0  0  0  0  0  0  0  0  0  0
  1  3  2  0
  1  5  1  0
  1  7  1  0
  1  9  1  0
  2  4  2  0
  4  6  1  0
  4  8  1  0
  6  7  2  3
M  END
>  <ID>  (1) 
conformer_0

$$$$
