
     RDKit          3D

 12 12  0  0  0  0  0  0  0  0999 V2000
   -9.8228    4.3987  -28.0325 C   0  0  0  0  0  0  0  0  0  0  0  0
   -8.5553    1.4098  -32.3620 O   0  0  0  0  0  1  0  0  0  0  0  0
   -7.9372    5.0148  -29.4726 C   0  0  0  0  0  0  0  0  0  0  0  0
   -8.6072    5.3555  -28.0868 C   0  0  0  0  0  0  0  0  0  0  0  0
   -7.5455    3.6303  -32.9887 O   0  0  0  0  0  0  0  0  0  0  0  0
   -7.7329    2.8457  -30.5129 O   0  0  0  0  0  0  0  0  0  0  0  0
   -6.0624    1.8585  -32.1389 O   0  0  0  0  0  0  0  0  0  0  0  0
   -8.0079    6.6813  -27.6367 C   0  0  0  0  0  0  0  0  0  0  0  0
   -8.5747    7.4963  -26.7332 O   0  0  0  0  0  0  0  0  0  0  0  0
   -8.7151    3.9088  -30.1403 C   0  0  0  0  0  0  0  0  0  0  0  0
  -10.1382    4.0586  -29.5803 C   0  0  0  0  0  0  0  0  0  0  0  0
   -7.4966    2.4288  -32.0101 P   0  0  0  0  0  4  0  0  0  0  0  0
  1  4  1  0
  1 11  1  0
  2 12  2  0
  3  4  1  0
  3 10  1  0
  4  8  1  0
  5 12  1  0
  6 10  1  0
  6 12  1  0
  7 12  1  0
  8  9  1  0
 10 11  1  0
M  END
>  <ID>  (1) 
conformer_0

$$$$
