
     RDKit          3D

 26 27  0  0  0  0  0  0  0  0999 V2000
   -9.8955    4.7556  -28.8533 N   0  0  0  0  0  0  0  0  0  0  0  0
   -5.5303    1.9467  -32.0632 O   0  0  0  0  0  0  0  0  0  0  0  0
   -6.4631    0.6502  -30.4904 C   0  0  0  0  0  0  0  0  0  0  0  0
   -7.8210    4.1115  -30.9022 C   0  0  0  0  0  0  0  0  0  0  0  0
   -7.6930    7.2210  -27.5304 C   0  0  0  0  0  0  0  0  0  0  0  0
   -8.9455    2.4120  -32.4588 C   0  0  0  0  0  0  0  0  0  0  0  0
  -10.6942    5.3619  -26.5508 C   0  0  0  0  0  0  0  0  0  0  0  0
   -9.7515    6.4271  -26.8593 O   0  0  0  0  0  0  0  0  0  0  0  0
   -5.4250   -1.6915  -30.5109 C   0  0  0  0  0  0  0  0  0  0  0  0
   -8.4617    5.1156  -28.7047 C   0  0  0  0  0  0  0  0  0  0  0  0
   -9.8301    2.8718  -30.3543 C   0  0  0  0  0  0  0  0  0  0  0  0
   -6.5016    4.1812  -30.2428 F   0  0  0  0  0  0  0  0  0  0  0  0
   -8.8812    1.0458  -32.6037 O   0  0  0  0  0  0  0  0  0  0  0  0
   -8.5903    6.1645  -27.5306 C   0  0  0  0  0  0  0  0  0  0  0  0
   -6.4952   -0.7332  -30.4618 C   0  0  0  0  0  0  0  0  0  0  0  0
   -7.6697    3.0102  -31.9143 C   0  0  0  0  0  0  0  0  0  0  0  0
  -10.1632    2.9654  -31.8318 C   0  0  0  0  0  0  0  0  0  0  0  0
   -8.9223    3.9556  -29.7736 C   0  0  0  0  0  0  0  0  0  0  0  0
   -8.1392    5.3832  -31.4209 O   0  0  0  0  0  0  0  0  0  0  0  0
   -5.7793   -2.9148  -30.6315 O   0  0  0  0  0  0  0  0  0  0  0  0
  -11.3260    2.2063  -32.1742 O   0  0  0  0  0  0  0  0  0  0  0  0
   -4.2187   -1.4348  -30.2124 O   0  0  0  0  0  0  0  0  0  0  0  0
   -6.7473    1.8653  -31.3717 C   0  0  0  0  0  0  0  0  0  0  0  0
  -11.0299    2.6519  -29.6363 O   0  0  0  0  0  0  0  0  0  0  0  0
  -10.2665    4.1857  -27.4908 C   0  0  0  0  0  0  0  0  0  0  0  0
   -7.2464    3.6554  -33.1753 O   0  0  0  0  0  0  0  0  0  0  0  0
  1 10  1  0
  1 18  1  0
  1 25  1  0
  2 23  1  0
  3 15  1  0
  3 23  1  0
  4 12  1  0
  4 16  1  0
  4 18  1  0
  4 19  1  0
  5 14  1  0
  6 13  1  0
  6 16  1  0
  6 17  1  0
  7  8  1  0
  7 25  1  0
  8 14  1  0
  9 15  1  0
  9 20  2  0
  9 22  1  0
 10 14  1  0
 11 17  1  0
 11 18  1  0
 11 24  1  0
 16 23  1  0
 16 26  1  0
 17 21  1  0
M  END
>  <ID>  (1) 
conformer_0

$$$$
