
     RDKit          3D

 17 18  0  0  0  0  0  0  0  0999 V2000
   -6.4327    1.6471  -32.6273 O   0  0  0  0  0  1  0  0  0  0  0  0
  -10.4432    3.5821  -30.5936 C   0  0  0  0  0  0  0  0  0  0  0  0
   -6.0243    3.5458  -31.0088 O   0  0  0  0  0  0  0  0  0  0  0  0
   -9.3841    1.9549  -32.0704 C   0  0  0  0  0  0  0  0  0  0  0  0
   -7.9224    4.8077  -27.8049 C   0  0  0  0  0  0  0  0  0  0  0  0
   -8.8393    5.4092  -30.5045 C   0  0  0  0  0  0  0  0  0  0  0  0
  -11.7932    2.0274  -32.0102 O   0  0  0  0  0  0  0  0  0  0  0  0
   -8.3139    2.5774  -31.0503 C   0  0  0  0  0  0  0  0  0  0  0  0
   -7.4189    3.7897  -33.2179 O   0  0  0  0  0  0  0  0  0  0  0  0
   -6.9819    2.8746  -32.0057 P   0  0  0  0  0  4  0  0  0  0  0  0
   -8.5660    6.3118  -29.4662 N   0  0  0  0  0  0  0  0  0  0  0  0
   -8.0317    3.8291  -28.9034 C   0  0  0  0  0  0  0  0  0  0  0  0
   -8.9170    3.8885  -30.2029 C   0  0  0  0  0  0  0  0  0  0  0  0
  -11.4554    3.3921  -29.7385 N   0  0  0  0  0  0  0  0  0  0  0  0
  -10.6583    2.6868  -31.8091 C   0  0  0  0  0  0  0  0  0  0  0  0
   -8.0905    6.1883  -28.1931 C   0  0  0  0  0  0  0  0  0  0  0  0
   -8.2664    7.2231  -27.1580 C   0  0  0  0  0  0  0  0  0  0  0  0
  1 10  2  0
  2 13  1  0
  2 14  1  0
  2 15  1  0
  3 10  1  0
  4  8  1  0
  4 15  1  0
  5 12  1  0
  5 16  1  0
  6 11  1  0
  6 13  1  0
  7 15  1  0
  8 10  1  0
  8 13  1  0
  9 10  1  0
 11 16  2  0
 12 13  1  0
 16 17  1  0
M  END
>  <ID>  (1) 
conformer_0

$$$$
