
     RDKit          3D

 27 27  0  0  0  0  0  0  0  0999 V2000
   -9.2411    1.8294  -32.7660 O   0  0  0  0  0  0  0  0  0  0  0  0
   -8.7270    6.2587  -27.5382 C   0  0  0  0  0  0  0  0  0  0  0  0
   -6.9571   -1.7472  -30.5656 O   0  0  0  0  0  0  0  0  0  0  0  0
  -10.0914    4.4394  -28.7666 C   0  0  0  0  0  0  0  0  0  0  0  0
   -2.6312   -4.0798  -29.2022 O   0  0  0  0  0  0  0  0  0  0  0  0
   -3.7498   -1.8929  -30.4746 O   0  0  0  0  0  0  0  0  0  0  0  0
  -10.4110    4.2910  -30.3095 C   0  0  0  0  0  0  0  0  0  0  0  0
   -3.3949   -5.0287  -29.6312 C   0  0  0  0  0  0  0  0  0  0  0  0
   -7.9199    4.9189  -29.4950 C   0  0  0  0  0  0  0  0  0  0  0  0
   -5.9808    0.3676  -30.3339 C   0  0  0  0  0  0  0  0  0  0  0  0
   -4.6847   -4.9494  -30.3434 C   0  0  0  0  0  0  0  0  0  0  0  0
   -5.4474   -3.7119  -29.6855 C   0  0  0  0  0  0  0  0  0  0  0  0
   -7.3454    0.8130  -30.7805 O   0  0  0  0  0  0  0  0  0  0  0  0
   -5.8095    3.5087  -29.8703 O   0  0  0  0  0  0  0  0  0  0  0  0
   -9.0750    5.5812  -28.8148 C   0  0  0  0  0  0  0  0  0  0  0  0
   -9.2068    3.5142  -31.0561 C   0  0  0  0  0  0  0  0  0  0  0  0
  -10.9235    4.7540  -27.7066 O   0  0  0  0  0  0  0  0  0  0  0  0
   -7.1531    2.0704  -31.5476 C   0  0  0  0  0  0  0  0  0  0  0  0
  -11.7098    3.6531  -30.3373 O   0  0  0  0  0  0  0  0  0  0  0  0
   -8.1751    3.5016  -29.8997 O   0  0  0  0  0  0  0  0  0  0  0  0
   -7.9065    3.6602  -33.1874 O   0  0  0  0  0  0  0  0  0  0  0  0
   -8.4372    2.7941  -32.2411 C   0  0  0  0  0  0  0  0  0  0  0  0
   -5.8842   -1.1344  -29.9019 C   0  0  0  0  0  0  0  0  0  0  0  0
   -6.9124    2.9803  -30.3640 C   0  0  0  0  0  0  0  0  0  0  0  0
   -6.0237    1.9743  -32.3165 O   0  0  0  0  0  0  0  0  0  0  0  0
   -4.7159   -2.4939  -29.8885 C   0  0  0  0  0  0  0  0  0  0  0  0
   -7.8798    7.3987  -27.9505 O   0  0  0  0  0  0  0  0  0  0  0  0
  1 22  1  0
  2 15  1  0
  2 27  1  0
  3 23  1  0
  4  7  1  0
  4 15  1  0
  4 17  1  0
  5  8  1  0
  6 26  2  0
  7 16  1  0
  7 19  1  0
  8 11  1  0
  9 15  1  0
  9 20  1  0
 10 13  1  0
 10 23  1  0
 11 12  1  0
 12 26  1  0
 13 18  1  0
 14 24  2  0
 16 22  1  0
 18 22  1  0
 18 24  1  0
 18 25  1  0
 20 24  1  0
 21 22  1  0
 23 26  1  0
M  END
>  <ID>  (1) 
conformer_0

$$$$
