
     RDKit          3D

 13 13  0  0  0  0  0  0  0  0999 V2000
   -8.3095    2.1360  -32.6833 O   0  0  0  0  0  1  0  0  0  0  0  0
   -8.3474    4.6603  -31.0690 C   0  0  0  0  0  0  0  0  0  0  0  0
   -5.8882    2.2740  -32.1867 O   0  0  0  0  0  0  0  0  0  0  0  0
   -8.7684    4.2973  -28.4603 C   0  0  0  0  0  0  0  0  0  0  0  0
   -7.2528    0.7820  -30.8252 O   0  0  0  0  0  0  0  0  0  0  0  0
   -8.0754    6.6207  -28.0046 O   0  0  0  0  0  0  0  0  0  0  0  0
   -7.5158    3.5215  -30.5116 C   0  0  0  0  0  0  0  0  0  0  0  0
   -7.2751    2.1089  -31.5678 P   0  0  0  0  0  4  0  0  0  0  0  0
  -10.7414    2.9373  -28.8246 O   0  0  0  0  0  0  0  0  0  0  0  0
   -8.1873    3.1583  -29.2200 C   0  0  0  0  0  0  0  0  0  0  0  0
   -8.2317    5.7935  -30.2498 O   0  0  0  0  0  0  0  0  0  0  0  0
   -8.3386    5.6167  -28.8777 C   0  0  0  0  0  0  0  0  0  0  0  0
  -10.2077    4.1224  -28.0704 C   0  0  0  0  0  0  0  0  0  0  0  0
  1  8  2  0
  2  7  1  0
  2 11  1  0
  3  8  1  0
  4 10  1  0
  4 12  1  0
  4 13  1  0
  5  8  1  0
  6 12  2  0
  7  8  1  0
  7 10  1  0
  9 13  1  0
 11 12  1  0
M  END
>  <ID>  (1) 
conformer_0

$$$$
