
     RDKit          3D

 27 29  0  0  0  0  0  0  0  0999 V2000
   -8.0136    0.3350  -33.1052 O   0  0  0  0  0  0  0  0  0  0  0  0
  -10.0290    4.5738  -30.4961 C   0  0  0  0  0  0  0  0  0  0  0  0
  -11.2894    2.6019  -30.1423 O   0  0  0  0  0  0  0  0  0  0  0  0
   -6.2023    0.6508  -30.6669 N   0  0  0  0  0  0  0  0  0  0  0  0
  -10.5849    5.9739  -26.2993 C   0  0  0  0  0  0  0  0  0  0  0  0
   -7.9626    4.4930  -28.4438 C   0  0  0  0  0  0  0  0  0  0  0  0
   -9.2574    5.9900  -26.8963 C   0  0  0  0  0  0  0  0  0  0  0  0
   -4.7606   -2.4036  -30.7645 C   0  0  0  0  0  0  0  0  0  0  0  0
   -8.6502    2.7481  -32.6809 C   0  0  0  0  0  0  0  0  0  0  0  0
   -8.1964    3.6680  -31.7280 O   0  0  0  0  0  0  0  0  0  0  0  0
  -10.5778    3.3066  -31.2710 C   0  0  0  0  0  0  0  0  0  0  0  0
   -9.3675    4.9216  -28.0374 C   0  0  0  0  0  0  0  0  0  0  0  0
   -5.1622   -1.2321  -29.9115 C   0  0  0  0  0  0  0  0  0  0  0  0
  -10.0218    3.7828  -27.2198 C   0  0  0  0  0  0  0  0  0  0  0  0
   -6.5157   -0.7762  -30.7138 C   0  0  0  0  0  0  0  0  0  0  0  0
   -8.2568    6.9227  -27.2637 O   0  0  0  0  0  0  0  0  0  0  0  0
   -8.5473    4.7845  -30.9566 C   0  0  0  0  0  0  0  0  0  0  0  0
  -10.8671    4.4854  -26.1621 C   0  0  0  0  0  0  0  0  0  0  0  0
   -8.7231    6.1764  -31.4885 O   0  0  0  0  0  0  0  0  0  0  0  0
   -6.2877    4.3191  -30.1890 O   0  0  0  0  0  0  0  0  0  0  0  0
   -7.5177    4.9688  -29.7984 C   0  0  0  0  0  0  0  0  0  0  0  0
   -6.4457    2.1159  -32.9857 O   0  0  0  0  0  0  0  0  0  0  0  0
  -10.2023    5.1658  -29.1903 O   0  0  0  0  0  0  0  0  0  0  0  0
   -7.4564    1.2923  -30.9552 C   0  0  0  0  0  0  0  0  0  0  0  0
  -10.0637    2.2929  -32.3422 C   0  0  0  0  0  0  0  0  0  0  0  0
   -7.5384    1.4355  -32.4807 C   0  0  0  0  0  0  0  0  0  0  0  0
   -5.9839   -3.2098  -30.8080 O   0  0  0  0  0  0  0  0  0  0  0  0
  1 26  1  0
  2 11  1  0
  2 17  1  0
  2 23  1  0
  3 11  1  0
  4 15  1  0
  4 24  1  0
  5  7  1  0
  5 18  1  0
  6 12  1  0
  6 21  1  0
  7 12  1  0
  7 16  1  0
  8 13  1  0
  8 27  1  0
  9 10  1  0
  9 25  1  0
  9 26  1  0
 10 17  1  0
 11 25  1  0
 12 14  1  0
 12 23  1  0
 13 15  1  0
 14 18  1  0
 17 19  1  0
 17 21  1  0
 20 21  1  0
 22 26  1  0
 24 26  1  0
M  END
>  <ID>  (1) 
conformer_0

$$$$
