
     RDKit          3D

 15 15  0  0  0  0  0  0  0  0999 V2000
   -6.0350    1.9534  -32.1333 O   0  0  0  0  0  0  0  0  0  0  0  0
  -11.1053    4.5541  -28.6930 O   0  0  0  0  0  0  0  0  0  0  0  0
   -8.0277    2.7956  -31.0077 C   0  0  0  0  0  0  0  0  0  0  0  0
   -9.7858    3.9718  -28.3249 C   0  0  0  0  0  0  0  0  0  0  0  0
   -7.5506    3.5092  -29.7894 C   0  0  0  0  0  0  0  0  0  0  0  0
   -9.4739    3.2461  -31.2930 C   0  0  0  0  0  0  0  0  0  0  0  0
   -8.5082    6.7545  -29.0197 O   0  0  0  0  0  0  0  0  0  0  0  0
   -8.2557    1.1479  -32.6633 O   0  0  0  0  0  0  0  0  0  0  0  0
   -7.5108    3.3352  -33.3247 O   0  0  0  0  0  0  0  0  0  0  0  0
   -8.0362    5.6640  -28.6948 C   0  0  0  0  0  0  0  0  0  0  0  0
   -7.4186    2.2634  -32.3569 C   0  0  0  0  0  0  0  0  0  0  0  0
   -6.2371    3.9848  -29.7410 O   0  0  0  0  0  0  0  0  0  0  0  0
   -7.3059    5.5149  -27.6497 O   0  0  0  0  0  0  0  0  0  0  0  0
   -8.7055    4.4470  -29.2971 C   0  0  0  0  0  0  0  0  0  0  0  0
   -9.5496    4.6641  -30.6172 C   0  0  0  0  0  0  0  0  0  0  0  0
  1 11  1  0
  2  4  1  0
  3  5  1  0
  3  6  1  0
  3 11  1  0
  4 14  1  0
  5 12  1  0
  5 14  1  0
  6 15  1  0
  7 10  2  0
  8 11  1  0
  9 11  1  0
 10 13  1  0
 10 14  1  0
 14 15  1  0
M  END
>  <ID>  (1) 
conformer_0

$$$$
