
     RDKit          3D

 15 14  0  0  0  0  0  0  0  0999 V2000
   -7.6876    3.2081  -30.6260 O   0  0  0  0  0  0  0  0  0  0  0  0
   -9.6693    5.0071  -31.1473 C   0  0  0  0  0  0  0  0  0  0  0  0
   -9.7000    4.9898  -29.6347 C   0  0  0  0  0  0  0  0  0  0  0  0
   -7.4018    2.4774  -32.0098 P   0  0  0  0  0  4  0  0  0  0  0  0
   -8.1913    5.4006  -29.2670 C   0  0  0  0  0  0  0  0  0  0  0  0
   -9.0592    6.3504  -31.4798 O   0  0  0  0  0  0  0  0  0  0  0  0
   -7.5248    3.4557  -33.2173 O   0  0  0  0  0  1  0  0  0  0  0  0
   -8.0949    6.5199  -28.5538 O   0  0  0  0  0  0  0  0  0  0  0  0
   -9.7315    3.6020  -28.8123 C   0  0  0  0  0  0  0  0  0  0  0  0
   -8.3361    1.3004  -32.1710 O   0  0  0  0  0  0  0  0  0  0  0  0
  -10.9852    2.9102  -29.1625 N   0  0  0  0  0  0  0  0  0  0  0  0
  -10.1088    5.7915  -26.7017 S   0  0  0  0  0  0  0  0  0  0  0  0
   -7.3658    4.4456  -30.0952 C   0  0  0  0  0  0  0  0  0  0  0  0
   -5.8957    2.0110  -32.0133 O   0  0  0  0  0  0  0  0  0  0  0  0
   -9.8555    4.0871  -27.2923 C   0  0  0  0  0  0  0  0  0  0  0  0
  1  4  1  0
  1 13  1  0
  2  3  1  0
  2  6  1  0
  3  5  1  0
  3  9  1  0
  4  7  2  0
  4 10  1  0
  4 14  1  0
  5  8  1  0
  5 13  1  0
  9 11  1  0
  9 15  1  0
 12 15  1  0
M  END
>  <ID>  (1) 
conformer_0

$$$$
