
     RDKit          3D

 11 10  0  0  0  0  0  0  0  0999 V2000
   -8.2196    1.3905  -32.3931 O   0  0  0  0  0  0  0  0  0  0  0  0
  -10.6048    3.7088  -29.0919 C   0  0  0  0  0  0  0  0  0  0  0  0
   -7.5849    3.5197  -31.5480 C   0  0  0  0  0  0  0  0  0  0  0  0
   -7.9866    6.5021  -27.6875 C   0  0  0  0  0  0  0  0  0  0  0  0
   -8.2490    3.5354  -30.1572 C   0  0  0  0  0  0  0  0  0  0  0  0
   -6.0184    1.9357  -32.1546 O   0  0  0  0  0  0  0  0  0  0  0  0
   -7.9024    5.8756  -30.3540 O   0  0  0  0  0  0  0  0  0  0  0  0
   -7.9611    5.1128  -28.1979 N   0  0  0  0  0  0  0  0  0  0  0  0
   -8.0594    4.9028  -29.5515 C   0  0  0  0  0  0  0  0  0  0  0  0
   -9.7673    3.2926  -30.4286 C   0  0  0  0  0  0  0  0  0  0  0  0
   -7.2852    2.1462  -32.0512 C   0  0  0  0  0  0  0  0  0  0  0  0
  1 11  2  0
  2 10  1  0
  3  5  1  0
  3 11  1  0
  4  8  1  0
  5  9  1  0
  5 10  1  0
  6 11  1  0
  7  9  2  0
  8  9  1  0
M  END
>  <ID>  (1) 
conformer_0

$$$$
