
     RDKit          3D

 25 26  0  0  0  0  0  0  0  0999 V2000
   -7.6810    3.6050  -33.1854 O   0  0  0  0  0  0  0  0  0  0  0  0
  -10.1205    4.3699  -28.4884 C   0  0  0  0  0  0  0  0  0  0  0  0
  -12.7185    2.3317  -31.7159 N   0  0  0  0  0  0  0  0  0  0  0  0
   -9.6249    1.4832  -32.6909 O   0  0  0  0  0  0  0  0  0  0  0  0
   -8.0548    5.6768  -28.8691 C   0  0  0  0  0  0  0  0  0  0  0  0
   -9.0501    5.1778  -27.8634 C   0  0  0  0  0  0  0  0  0  0  0  0
   -8.6482    6.0700  -31.2093 O   0  0  0  0  0  0  0  0  0  0  0  0
  -11.3210    4.8235  -30.4586 O   0  0  0  0  0  0  0  0  0  0  0  0
   -6.1174    3.8002  -30.1523 O   0  0  0  0  0  0  0  0  0  0  0  0
   -7.1272    4.1429  -30.8964 C   0  0  0  0  0  0  0  0  0  0  0  0
  -11.3470    2.3424  -31.2825 C   0  0  0  0  0  0  0  0  0  0  0  0
   -9.0064    7.2648  -26.4608 N   0  0  0  0  0  0  0  0  0  0  0  0
   -9.5641    6.0051  -26.7061 C   0  0  0  0  0  0  0  0  0  0  0  0
   -6.7339    1.0349  -31.0955 O   0  0  0  0  0  0  0  0  0  0  0  0
  -10.1988    3.9209  -30.0183 C   0  0  0  0  0  0  0  0  0  0  0  0
   -7.8843    7.0441  -28.7282 O   0  0  0  0  0  0  0  0  0  0  0  0
   -7.7895    3.1484  -31.8756 C   0  0  0  0  0  0  0  0  0  0  0  0
  -13.0587    0.9830  -32.1658 O   0  0  0  0  0  0  0  0  0  0  0  0
  -10.2427    2.6677  -32.1942 C   0  0  0  0  0  0  0  0  0  0  0  0
  -10.6873    3.4808  -27.6101 O   0  0  0  0  0  0  0  0  0  0  0  0
   -9.3092    3.4769  -31.3330 C   0  0  0  0  0  0  0  0  0  0  0  0
   -6.7082    2.0668  -31.9907 N   0  0  0  0  0  0  0  0  0  0  0  0
  -10.9447    2.5733  -29.9630 O   0  0  0  0  0  0  0  0  0  0  0  0
  -10.8632    5.9231  -26.3935 O   0  0  0  0  0  0  0  0  0  0  0  0
   -8.0120    5.1876  -30.2889 C   0  0  0  0  0  0  0  0  0  0  0  0
  1 17  1  0
  2  6  1  0
  2 15  1  0
  2 20  1  0
  3 11  1  0
  3 18  1  0
  4 19  1  0
  5  6  1  0
  5 16  1  0
  5 25  1  0
  6 13  1  0
  7 25  1  0
  8 15  1  0
  9 10  1  0
 10 17  1  0
 10 25  1  0
 11 19  1  0
 11 23  1  0
 12 13  1  0
 13 24  2  0
 14 22  1  0
 15 21  1  0
 15 23  1  0
 17 21  1  0
 17 22  1  0
 19 21  1  0
M  END
>  <ID>  (1) 
conformer_0

$$$$
