
     RDKit          3D

 13 13  0  0  0  0  0  0  0  0999 V2000
   -7.9527    5.3984  -30.2336 O   0  0  0  0  0  0  0  0  0  0  0  0
   -8.4377    4.8032  -28.9771 C   0  0  0  0  0  0  0  0  0  0  0  0
   -6.0995    2.0922  -32.0141 O   0  0  0  0  0  0  0  0  0  0  0  0
   -7.3200    4.2776  -30.9221 C   0  0  0  0  0  0  0  0  0  0  0  0
  -10.2478    3.9146  -30.3264 C   0  0  0  0  0  0  0  0  0  0  0  0
  -10.8203    2.8951  -30.9029 O   0  0  0  0  0  0  0  0  0  0  0  0
   -8.1714    1.5059  -32.6207 O   0  0  0  0  0  0  0  0  0  0  0  0
   -7.9867    2.9091  -30.6899 C   0  0  0  0  0  0  0  0  0  0  0  0
   -8.0660    7.1319  -28.2291 O   0  0  0  0  0  0  0  0  0  0  0  0
  -10.7080    5.0798  -30.2912 O   0  0  0  0  0  0  0  0  0  0  0  0
   -7.3537    2.0444  -31.8885 C   0  0  0  0  0  0  0  0  0  0  0  0
   -7.9690    5.7474  -27.9103 C   0  0  0  0  0  0  0  0  0  0  0  0
   -9.0197    3.4612  -29.5120 C   0  0  0  0  0  0  0  0  0  0  0  0
  1  2  1  0
  1  4  1  0
  2 12  1  0
  2 13  1  0
  3 11  2  0
  4  8  2  0
  5  6  2  0
  5 10  1  0
  5 13  1  0
  7 11  1  0
  8 11  1  0
  8 13  1  0
  9 12  1  0
M  END
>  <ID>  (1) 
conformer_0

$$$$
