
     RDKit          3D

 21 23  0  0  0  0  0  0  0  0999 V2000
   -9.9160    4.0398  -30.7248 C   0  0  0  0  0  0  0  0  0  0  0  0
   -7.4479    0.8657  -31.1761 O   0  0  0  0  0  0  0  0  0  0  0  0
  -10.2815    3.4858  -29.3971 C   0  0  0  0  0  0  0  0  0  0  0  0
   -7.6167    6.6536  -29.2623 O   0  0  0  0  0  0  0  0  0  0  0  0
   -9.1218    6.1917  -31.5181 O   0  0  0  0  0  0  0  0  0  0  0  0
   -8.7284    5.0160  -30.6716 C   0  0  0  0  0  0  0  0  0  0  0  0
   -9.7253    3.7984  -28.0923 C   0  0  0  0  0  0  0  0  0  0  0  0
  -10.3671    5.3608  -26.3158 C   0  0  0  0  0  0  0  0  0  0  0  0
   -6.9360    1.6622  -32.0882 C   0  0  0  0  0  0  0  0  0  0  0  0
  -10.3668    2.0831  -32.3247 O   0  0  0  0  0  0  0  0  0  0  0  0
   -7.6297    4.1307  -31.3456 C   0  0  0  0  0  0  0  0  0  0  0  0
  -11.3903    2.6630  -29.4755 O   0  0  0  0  0  0  0  0  0  0  0  0
   -8.3884    3.3857  -32.4653 C   0  0  0  0  0  0  0  0  0  0  0  0
   -8.4493    5.5755  -29.3067 C   0  0  0  0  0  0  0  0  0  0  0  0
   -8.9602    5.6917  -26.7127 C   0  0  0  0  0  0  0  0  0  0  0  0
   -8.6485    7.0565  -26.8349 O   0  0  0  0  0  0  0  0  0  0  0  0
   -7.6419    2.3326  -33.0706 O   0  0  0  0  0  0  0  0  0  0  0  0
   -5.6186    1.7810  -32.1820 O   0  0  0  0  0  0  0  0  0  0  0  0
   -9.4608    2.7770  -31.5520 C   0  0  0  0  0  0  0  0  0  0  0  0
   -8.7669    4.9527  -28.0345 C   0  0  0  0  0  0  0  0  0  0  0  0
  -10.6998    3.9944  -27.0030 C   0  0  0  0  0  0  0  0  0  0  0  0
  1  3  1  0
  1  6  1  0
  1 19  1  0
  2  9  2  0
  3  7  1  0
  3 12  1  0
  4 14  1  0
  5  6  1  0
  6 11  1  0
  6 14  1  0
  7 20  1  0
  7 21  1  0
  8 15  1  0
  8 21  1  0
  9 17  1  0
  9 18  1  0
 10 19  1  0
 11 13  1  0
 13 17  1  0
 13 19  1  0
 14 20  1  0
 15 16  1  0
 15 20  1  0
M  END
>  <ID>  (1) 
conformer_0

$$$$
