
     RDKit          3D

 25 24  0  0  0  0  0  0  0  0999 V2000
   -7.8121    5.3654  -30.7347 O   0  0  0  0  0  0  0  0  0  0  0  0
  -10.1240    2.3058  -32.3028 C   0  0  0  0  0  0  0  0  0  0  0  0
   -7.5270    3.7821  -33.3039 O   0  0  0  0  0  0  0  0  0  0  0  0
  -10.4184    3.2947  -27.2795 C   0  0  0  0  0  0  0  0  0  0  0  0
   -8.7378    7.6994  -26.0601 N   0  0  0  0  0  0  0  0  0  0  0  0
   -7.3846    0.9749  -33.3511 O   0  0  0  0  0  1  0  0  0  0  0  0
   -9.9615    0.9014  -32.0865 F   0  0  0  0  0  0  0  0  0  0  0  0
   -6.9539    1.6471  -32.0541 P   0  0  0  0  0  4  0  0  0  0  0  0
   -7.8342    7.4058  -28.1077 O   0  0  0  0  0  0  0  0  0  0  0  0
   -7.2368    0.8761  -30.8609 O   0  0  0  0  0  0  0  0  0  0  0  0
  -10.7889    3.7456  -29.6244 C   0  0  0  0  0  0  0  0  0  0  0  0
   -5.5063    1.8875  -32.2085 O   0  0  0  0  0  0  0  0  0  0  0  0
  -11.0660    4.3529  -28.2977 C   0  0  0  0  0  0  0  0  0  0  0  0
   -8.5558    4.8543  -28.3383 C   0  0  0  0  0  0  0  0  0  0  0  0
   -7.8205    3.2057  -32.0191 C   0  0  0  0  0  0  0  0  0  0  0  0
  -11.6327    2.7639  -30.0150 O   0  0  0  0  0  0  0  0  0  0  0  0
   -8.4384    6.9759  -27.1370 C   0  0  0  0  0  0  0  0  0  0  0  0
   -9.9826    2.4479  -33.7644 F   0  0  0  0  0  0  0  0  0  0  0  0
   -7.0486    4.0493  -30.9604 C   0  0  0  0  0  0  0  0  0  0  0  0
   -9.2723    3.3101  -31.6538 C   0  0  0  0  0  0  0  0  0  0  0  0
   -9.2094    5.7268  -27.3081 C   0  0  0  0  0  0  0  0  0  0  0  0
  -10.0916    5.6098  -26.0696 C   0  0  0  0  0  0  0  0  0  0  0  0
   -8.8468    4.9579  -29.7186 C   0  0  0  0  0  0  0  0  0  0  0  0
   -8.7896    6.1967  -31.5630 O   0  0  0  0  0  0  0  0  0  0  0  0
   -9.7064    4.0568  -30.4729 C   0  0  0  0  0  0  0  0  0  0  0  0
  1 23  1  0
  1 24  1  0
  2  7  1  0
  2 18  1  0
  2 20  1  0
  3 15  1  0
  4 13  1  0
  5 17  1  0
  6  8  2  0
  8 10  1  0
  8 12  1  0
  8 15  1  0
  9 17  2  0
 11 13  1  0
 11 16  1  0
 11 25  2  3
 14 21  1  0
 14 23  1  0
 15 19  1  0
 15 20  1  0
 17 21  1  0
 20 25  1  0
 21 22  1  0
 23 25  1  0
M  END
>  <ID>  (1) 
conformer_0

$$$$
