
     RDKit          3D

  6  5  0  0  0  0  0  0  0  0999 V2000
   -8.0839    3.8727  -31.2179 C   0  0  0  0  0  0  0  0  0  0  0  0
   -8.8384    4.3167  -28.6351 S   0  0  0  0  0  0  0  0  0  0  0  0
   -7.8391    4.5152  -29.9481 C   0  0  0  0  0  0  0  0  0  0  0  0
   -8.3342    1.6581  -32.0064 O   0  0  0  0  0  0  0  0  0  0  0  0
   -6.2900    2.5046  -31.9393 O   0  0  0  0  0  0  0  0  0  0  0  0
   -7.5322    2.5745  -31.6992 C   0  0  0  0  0  0  0  0  0  0  0  0
  1  3  1  0
  1  6  1  0
  2  3  1  0
  4  6  2  0
  5  6  1  0
M  END
>  <ID>  (1) 
conformer_0

$$$$
