
     RDKit          3D

 17 18  0  0  0  0  0  0  0  0999 V2000
   -8.9341    1.0074  -32.3418 O   0  0  0  0  0  0  0  0  0  0  0  0
   -8.1059    4.5411  -28.1367 O   0  0  0  0  0  0  0  0  0  0  0  0
   -9.2141    5.3828  -27.4080 C   0  0  0  0  0  0  0  0  0  0  0  0
   -8.5906    6.7445  -27.8598 C   0  0  0  0  0  0  0  0  0  0  0  0
   -6.4543    3.6900  -30.3941 O   0  0  0  0  0  0  0  0  0  0  0  0
   -7.8305    3.5121  -30.3809 C   0  0  0  0  0  0  0  0  0  0  0  0
   -7.1778    3.4976  -33.6545 O   0  0  0  0  0  0  0  0  0  0  0  0
   -7.0408    2.4842  -32.8208 P   0  0  0  0  0  4  0  0  0  0  0  0
   -8.3758    2.0891  -32.2376 C   0  0  0  0  0  0  0  0  0  0  0  0
  -10.1306    3.1988  -30.7610 C   0  0  0  0  0  0  0  0  0  0  0  0
   -8.6205    5.7255  -30.3601 O   0  0  0  0  0  0  0  0  0  0  0  0
   -9.9764    4.0218  -29.4163 C   0  0  0  0  0  0  0  0  0  0  0  0
   -5.9500    1.9206  -32.3752 O   0  0  0  0  0  1  0  0  0  0  0  0
   -8.8367    3.2194  -31.5095 C   0  0  0  0  0  0  0  0  0  0  0  0
  -10.3421    4.4152  -27.8963 C   0  0  0  0  0  0  0  0  0  0  0  0
   -7.3596    6.8169  -27.1657 O   0  0  0  0  0  0  0  0  0  0  0  0
   -8.5368    4.5757  -29.5286 C   0  0  0  0  0  0  0  0  0  0  0  0
  1  9  2  0
  2  3  1  0
  2 17  1  0
  3  4  1  0
  3 15  1  0
  4 16  1  0
  5  6  1  0
  6 14  1  0
  6 17  1  0
  7  8  1  0
  8  9  1  0
  8 13  2  0
  9 14  1  0
 10 12  1  0
 10 14  1  0
 11 17  1  0
 12 15  1  0
 12 17  1  0
M  END
>  <ID>  (1) 
conformer_0

$$$$
