
     RDKit          3D

 21 22  0  0  0  0  0  0  0  0999 V2000
   -9.0849    5.3723  -28.2357 C   0  0  0  0  0  0  0  0  0  0  0  0
  -12.0423    2.1331  -30.9940 O   0  0  0  0  0  0  0  0  0  0  0  0
  -10.0991    4.6633  -27.4507 C   0  0  0  0  0  0  0  0  0  0  0  0
   -7.5702    3.3208  -31.2172 C   0  0  0  0  0  0  0  0  0  0  0  0
   -8.5922    6.5221  -27.6527 O   0  0  0  0  0  0  0  0  0  0  0  0
   -7.2423    3.2509  -33.4949 O   0  0  0  0  0  0  0  0  0  0  0  0
   -9.7740    2.3148  -31.8856 C   0  0  0  0  0  0  0  0  0  0  0  0
   -8.6199    4.9297  -29.6029 C   0  0  0  0  0  0  0  0  0  0  0  0
   -9.6296    4.0287  -30.2365 C   0  0  0  0  0  0  0  0  0  0  0  0
  -11.2232    2.2588  -32.2149 C   0  0  0  0  0  0  0  0  0  0  0  0
   -9.0311    3.5443  -31.5611 C   0  0  0  0  0  0  0  0  0  0  0  0
   -5.9459    1.9505  -32.2290 O   0  0  0  0  0  0  0  0  0  0  0  0
   -7.2932    4.1833  -29.8807 C   0  0  0  0  0  0  0  0  0  0  0  0
   -9.0865    1.1990  -32.2956 O   0  0  0  0  0  0  0  0  0  0  0  0
  -10.5123    3.3674  -28.0274 C   0  0  0  0  0  0  0  0  0  0  0  0
   -6.0286    4.4057  -29.4705 O   0  0  0  0  0  0  0  0  0  0  0  0
  -10.1770    3.0368  -29.4175 O   0  0  0  0  0  0  0  0  0  0  0  0
   -8.6497    6.0686  -30.5480 O   0  0  0  0  0  0  0  0  0  0  0  0
   -6.9674    2.6518  -32.4211 C   0  0  0  0  0  0  0  0  0  0  0  0
   -7.4888    2.7763  -29.9720 O   0  0  0  0  0  0  0  0  0  0  0  0
  -11.1338    5.4561  -26.9121 O   0  0  0  0  0  0  0  0  0  0  0  0
  1  3  1  0
  1  5  1  0
  1  8  1  0
  2 10  1  0
  3 15  1  0
  3 21  1  0
  4 11  1  0
  4 19  1  0
  4 20  1  0
  6 19  2  0
  7 10  1  0
  7 11  1  0
  7 14  1  0
  8  9  1  0
  8 13  1  0
  8 18  1  0
  9 11  1  0
  9 17  1  0
 12 19  1  0
 13 16  2  0
 13 20  1  0
 15 17  1  0
M  END
>  <ID>  (1) 
conformer_0

$$$$
