
     RDKit          3D

 29 29  0  0  0  0  0  0  0  0999 V2000
   -7.3150    2.7187  -30.9664 C   0  0  0  0  0  0  0  0  0  0  0  0
  -13.1266    2.3459  -31.7648 C   0  0  0  0  0  0  0  0  0  0  0  0
   -8.4796    6.9282  -26.3934 F   0  0  0  0  0  0  0  0  0  0  0  0
   -5.3612   -4.4848  -30.8744 O   0  0  0  0  0  0  0  0  0  0  0  0
   -3.6303   -3.3115  -30.1735 O   0  0  0  0  0  0  0  0  0  0  0  0
   -8.2497    6.7052  -28.7821 C   0  0  0  0  0  0  0  0  0  0  0  0
   -9.2491    4.9532  -27.4574 C   0  0  0  0  0  0  0  0  0  0  0  0
   -9.5145    3.9281  -31.1639 C   0  0  0  0  0  0  0  0  0  0  0  0
  -14.8198    1.1721  -33.1053 C   0  0  0  0  0  0  0  0  0  0  0  0
   -5.9819    0.0795  -29.8362 C   0  0  0  0  0  0  0  0  0  0  0  0
   -9.0509    1.7219  -32.2686 O   0  0  0  0  0  0  0  0  0  0  0  0
   -9.1689    4.7175  -29.8520 N   0  0  0  0  0  0  0  0  0  0  0  0
  -13.4468   -0.0016  -31.5151 O   0  0  0  0  0  0  0  0  0  0  0  0
   -6.5399    3.7630  -30.5618 O   0  0  0  0  0  0  0  0  0  0  0  0
   -5.0800   -1.0153  -29.9746 O   0  0  0  0  0  0  0  0  0  0  0  0
   -5.7056   -2.1256  -30.4934 C   0  0  0  0  0  0  0  0  0  0  0  0
   -4.8205   -3.4016  -30.4222 C   0  0  0  0  0  0  0  0  0  0  0  0
   -9.4791    4.2399  -28.6006 C   0  0  0  0  0  0  0  0  0  0  0  0
   -8.7676    4.6647  -32.1742 O   0  0  0  0  0  0  0  0  0  0  0  0
  -11.5626    2.2608  -31.9158 C   0  0  0  0  0  0  0  0  0  0  0  0
  -11.3976    3.0417  -29.8346 O   0  0  0  0  0  0  0  0  0  0  0  0
   -6.4689    1.6463  -31.6125 C   0  0  0  0  0  0  0  0  0  0  0  0
  -13.7549    1.0508  -32.1136 C   0  0  0  0  0  0  0  0  0  0  0  0
   -6.4009    1.7780  -32.9056 O   0  0  0  0  0  0  0  0  0  0  0  0
   -8.7796    2.5158  -31.1306 C   0  0  0  0  0  0  0  0  0  0  0  0
   -8.6604    6.2182  -27.5392 C   0  0  0  0  0  0  0  0  0  0  0  0
   -6.6169    0.3897  -31.0507 C   0  0  0  0  0  0  0  0  0  0  0  0
   -8.5207    5.9581  -29.9303 C   0  0  0  0  0  0  0  0  0  0  0  0
  -11.0099    3.5186  -31.1556 C   0  0  0  0  0  0  0  0  0  0  0  0
  1 14  1  0
  1 22  1  0
  1 25  1  0
  2 20  1  0
  2 23  1  0
  3 26  1  0
  4 17  2  0
  5 17  1  0
  6 26  1  0
  6 28  2  0
  7 18  1  0
  7 26  2  0
  8 12  1  0
  8 19  1  0
  8 25  1  0
  8 29  1  0
  9 23  1  0
 10 15  1  0
 10 27  1  0
 11 25  1  0
 12 18  1  0
 12 28  1  0
 13 23  2  0
 15 16  1  0
 16 17  1  0
 20 29  1  0
 21 29  1  0
 22 24  1  0
 22 27  1  0
M  END
>  <ID>  (1) 
conformer_0

$$$$
