
     RDKit          3D

 28 29  0  0  0  0  0  0  0  0999 V2000
   -7.8708    2.6678  -32.6229 C   0  0  0  0  0  0  0  0  0  0  0  0
  -11.3439    2.5650  -30.9584 C   0  0  0  0  0  0  0  0  0  0  0  0
  -10.9617    3.8648  -30.2767 C   0  0  0  0  0  0  0  0  0  0  0  0
   -9.6910    4.4436  -27.5895 C   0  0  0  0  0  0  0  0  0  0  0  0
   -6.1385    3.6975  -29.5551 O   0  0  0  0  0  0  0  0  0  0  0  0
  -11.2315    2.9358  -28.4626 O   0  0  0  0  0  0  0  0  0  0  0  0
  -10.5698    4.1318  -28.8228 C   0  0  0  0  0  0  0  0  0  0  0  0
   -8.3632    6.4900  -27.3260 C   0  0  0  0  0  0  0  0  0  0  0  0
   -7.5161    3.7056  -33.5310 O   0  0  0  0  0  0  0  0  0  0  0  0
  -12.7839    2.6035  -31.3243 N   0  0  0  0  0  0  0  0  0  0  0  0
  -13.0374    0.2584  -31.5816 O   0  0  0  0  0  0  0  0  0  0  0  0
  -10.1450    1.1582  -32.4565 O   0  0  0  0  0  0  0  0  0  0  0  0
   -8.5104    3.6673  -30.3750 O   0  0  0  0  0  0  0  0  0  0  0  0
   -7.0891    3.4710  -30.5166 C   0  0  0  0  0  0  0  0  0  0  0  0
  -14.7152    1.2838  -32.3561 C   0  0  0  0  0  0  0  0  0  0  0  0
   -5.6104    2.0021  -31.9828 O   0  0  0  0  0  0  0  0  0  0  0  0
   -7.8306    7.4907  -28.2174 O   0  0  0  0  0  0  0  0  0  0  0  0
   -6.7261    2.5644  -31.5963 C   0  0  0  0  0  0  0  0  0  0  0  0
  -10.9204    4.9626  -31.0904 O   0  0  0  0  0  0  0  0  0  0  0  0
  -14.5628   -0.1353  -31.8849 C   0  0  0  0  0  0  0  0  0  0  0  0
  -13.2211    1.5558  -32.1828 C   0  0  0  0  0  0  0  0  0  0  0  0
  -10.4387    2.5387  -32.2036 C   0  0  0  0  0  0  0  0  0  0  0  0
   -8.3607    4.9025  -29.6040 C   0  0  0  0  0  0  0  0  0  0  0  0
   -9.0719    3.2319  -31.7818 C   0  0  0  0  0  0  0  0  0  0  0  0
   -8.1158    5.9434  -30.4080 O   0  0  0  0  0  0  0  0  0  0  0  0
   -8.4295    5.1130  -28.0897 C   0  0  0  0  0  0  0  0  0  0  0  0
   -7.7256    1.4181  -33.3297 O   0  0  0  0  0  0  0  0  0  0  0  0
  -10.5319    5.2956  -26.6149 C   0  0  0  0  0  0  0  0  0  0  0  0
  1  9  1  0
  1 18  1  0
  1 24  1  0
  1 27  1  0
  2  3  1  0
  2 10  1  0
  2 22  1  0
  3  7  1  0
  3 19  1  0
  4  7  1  0
  4 26  1  0
  4 28  1  0
  5 14  2  0
  6  7  1  0
  8 17  1  0
  8 26  1  0
 10 21  1  0
 11 20  1  0
 11 21  1  0
 12 22  1  0
 13 14  1  0
 13 23  1  0
 14 18  1  0
 15 20  1  0
 15 21  1  0
 16 18  1  0
 22 24  1  0
 23 25  2  0
 23 26  1  0
M  END
>  <ID>  (1) 
conformer_0

$$$$
