
     RDKit          3D

 27 29  0  0  0  0  0  0  0  0999 V2000
   -8.2551    4.0836  -29.5559 C   0  0  0  0  0  0  0  0  0  0  0  0
   -7.3439    3.4944  -33.2104 O   0  0  0  0  0  0  0  0  0  0  0  0
   -9.2993    2.8969  -32.1776 C   0  0  0  0  0  0  0  0  0  0  0  0
   -8.9393    6.5941  -26.4223 C   0  0  0  0  0  0  0  0  0  0  0  0
   -7.8600    3.0795  -31.9192 C   0  0  0  0  0  0  0  0  0  0  0  0
   -9.7426    2.1922  -33.2240 O   0  0  0  0  0  0  0  0  0  0  0  0
   -8.0805    5.4969  -31.4027 O   0  0  0  0  0  0  0  0  0  0  0  0
  -10.1196    5.9311  -27.0085 O   0  0  0  0  0  0  0  0  0  0  0  0
   -5.8826    1.7683  -31.7333 O   0  0  0  0  0  0  0  0  0  0  0  0
   -8.3517    5.2603  -28.5081 C   0  0  0  0  0  0  0  0  0  0  0  0
  -11.5118    2.8197  -31.1447 O   0  0  0  0  0  0  0  0  0  0  0  0
  -11.6225    4.9636  -29.5331 O   0  0  0  0  0  0  0  0  0  0  0  0
   -8.0448    0.7215  -31.4456 O   0  0  0  0  0  0  0  0  0  0  0  0
   -7.9346    6.4707  -27.5861 C   0  0  0  0  0  0  0  0  0  0  0  0
   -7.9730    7.5971  -28.3079 O   0  0  0  0  0  0  0  0  0  0  0  0
   -6.7287    0.0512  -29.3350 C   0  0  0  0  0  0  0  0  0  0  0  0
   -9.5221    2.0414  -29.4792 C   0  0  0  0  0  0  0  0  0  0  0  0
   -9.7279    4.8857  -27.8888 C   0  0  0  0  0  0  0  0  0  0  0  0
   -9.6477    3.5268  -29.8216 C   0  0  0  0  0  0  0  0  0  0  0  0
   -9.4377    3.6666  -27.2082 O   0  0  0  0  0  0  0  0  0  0  0  0
   -6.0362   -0.6641  -30.1163 O   0  0  0  0  0  0  0  0  0  0  0  0
   -7.1893    1.7879  -31.1505 C   0  0  0  0  0  0  0  0  0  0  0  0
   -7.2395   -0.3205  -28.1355 C   0  0  0  0  0  0  0  0  0  0  0  0
   -7.6148    4.2025  -30.9504 C   0  0  0  0  0  0  0  0  0  0  0  0
  -10.2595    3.5503  -31.2519 C   0  0  0  0  0  0  0  0  0  0  0  0
   -6.9305    1.5911  -29.6230 C   0  0  0  0  0  0  0  0  0  0  0  0
  -10.4951    4.5483  -29.0422 C   0  0  0  0  0  0  0  0  0  0  0  0
  1 10  1  0
  1 19  1  0
  1 24  1  0
  2  5  1  0
  3  5  1  0
  3  6  1  0
  3 25  1  0
  4  8  1  0
  4 14  1  0
  5 22  1  0
  5 24  1  0
  7 24  1  0
  8 18  1  0
  9 22  1  0
 10 14  1  0
 10 18  1  0
 11 25  1  0
 12 27  1  0
 13 22  1  0
 14 15  1  0
 16 21  2  0
 16 23  1  0
 16 26  1  0
 17 19  1  0
 18 20  1  0
 18 27  1  0
 19 25  1  0
 19 27  1  0
 22 26  1  0
M  END
>  <ID>  (1) 
conformer_0

$$$$
