
     RDKit          3D

 22 23  0  0  0  0  0  0  0  0999 V2000
   -8.4515    4.1418  -30.9418 C   0  0  0  0  0  0  0  0  0  0  0  0
  -12.0942    3.2418  -30.8584 O   0  0  0  0  0  0  0  0  0  0  0  0
   -9.3109    7.1855  -26.1984 O   0  0  0  0  0  0  0  0  0  0  0  0
  -10.7702    3.4015  -30.4923 C   0  0  0  0  0  0  0  0  0  0  0  0
   -7.8647    6.1780  -30.1032 O   0  0  0  0  0  0  0  0  0  0  0  0
   -8.2247    1.8113  -32.3214 C   0  0  0  0  0  0  0  0  0  0  0  0
  -10.6045    3.7831  -29.0692 C   0  0  0  0  0  0  0  0  0  0  0  0
   -6.9766    2.7058  -32.1973 C   0  0  0  0  0  0  0  0  0  0  0  0
  -11.1119    2.8709  -28.2036 O   0  0  0  0  0  0  0  0  0  0  0  0
   -8.2737    0.6050  -31.8210 F   0  0  0  0  0  0  0  0  0  0  0  0
   -7.2056    3.4842  -30.8079 O   0  0  0  0  0  0  0  0  0  0  0  0
  -10.6684    1.8262  -32.6106 O   0  0  0  0  0  0  0  0  0  0  0  0
   -5.7963    1.9804  -32.1461 O   0  0  0  0  0  0  0  0  0  0  0  0
   -7.1393    3.5753  -33.3215 O   0  0  0  0  0  0  0  0  0  0  0  0
   -8.6382    6.4849  -27.3048 C   0  0  0  0  0  0  0  0  0  0  0  0
   -9.4736    2.5498  -32.4491 C   0  0  0  0  0  0  0  0  0  0  0  0
   -9.3400    4.4049  -28.7461 C   0  0  0  0  0  0  0  0  0  0  0  0
  -10.8161    5.2844  -27.0131 N   0  0  0  0  0  0  0  0  0  0  0  0
   -7.9051    7.4465  -27.9471 O   0  0  0  0  0  0  0  0  0  0  0  0
   -9.4733    5.2341  -27.5187 C   0  0  0  0  0  0  0  0  0  0  0  0
   -9.6575    3.5236  -31.3553 C   0  0  0  0  0  0  0  0  0  0  0  0
   -8.6422    5.1123  -29.8147 C   0  0  0  0  0  0  0  0  0  0  0  0
  1 11  1  0
  1 21  1  0
  1 22  1  0
  2  4  1  0
  3 15  2  0
  4  7  1  0
  4 21  1  0
  5 22  1  0
  6  8  1  0
  6 10  1  0
  6 16  1  0
  7  9  1  0
  7 17  1  0
  8 11  1  0
  8 13  1  0
  8 14  1  0
 12 16  1  0
 15 19  1  0
 15 20  1  0
 16 21  1  0
 17 20  1  0
 17 22  1  0
 18 20  1  0
M  END
>  <ID>  (1) 
conformer_0

$$$$
