
     RDKit          3D

 21 21  0  0  0  0  0  0  0  0999 V2000
  -10.5821    4.8298  -29.4319 O   0  0  0  0  0  0  0  0  0  0  0  0
   -5.9833    1.9042  -32.1340 O   0  0  0  0  0  0  0  0  0  0  0  0
   -8.4367    4.6457  -29.5487 C   0  0  0  0  0  0  0  0  0  0  0  0
  -10.8390    2.9418  -28.0742 O   0  0  0  0  0  0  0  0  0  0  0  0
   -7.8558    6.9085  -29.0486 O   0  0  0  0  0  0  0  0  0  0  0  0
  -11.2434    2.7910  -31.0285 O   0  0  0  0  0  0  0  0  0  0  0  0
   -9.1607    6.0171  -31.3175 O   0  0  0  0  0  0  0  0  0  0  0  0
  -10.3269    4.2435  -28.0864 C   0  0  0  0  0  0  0  0  0  0  0  0
   -9.8194    2.4868  -31.0280 C   0  0  0  0  0  0  0  0  0  0  0  0
   -7.2497    2.0210  -32.1516 C   0  0  0  0  0  0  0  0  0  0  0  0
   -9.1756    3.6761  -31.7410 C   0  0  0  0  0  0  0  0  0  0  0  0
   -9.5897    4.7777  -30.6035 C   0  0  0  0  0  0  0  0  0  0  0  0
  -11.0172    6.0934  -26.2959 O   0  0  0  0  0  0  0  0  0  0  0  0
   -8.4390    5.7992  -28.5804 C   0  0  0  0  0  0  0  0  0  0  0  0
   -8.6401    7.1949  -26.6079 O   0  0  0  0  0  0  0  0  0  0  0  0
   -7.6354    3.5963  -29.4726 O   0  0  0  0  0  0  0  0  0  0  0  0
   -8.7283    5.8827  -27.1000 C   0  0  0  0  0  0  0  0  0  0  0  0
   -8.1011    1.1297  -32.3781 O   0  0  0  0  0  0  0  0  0  0  0  0
  -10.1143    5.1085  -26.8777 C   0  0  0  0  0  0  0  0  0  0  0  0
   -7.4240    3.8418  -33.5569 O   0  0  0  0  0  0  0  0  0  0  0  0
   -7.7407    3.4696  -32.1748 C   0  0  0  0  0  0  0  0  0  0  0  0
  1  8  1  0
  1 12  1  0
  2 10  2  0
  3 12  1  0
  3 14  1  0
  3 16  1  0
  4  8  2  0
  5 14  1  0
  6  9  1  0
  7 12  1  0
  8 19  1  0
  9 11  1  0
 10 18  1  0
 10 21  1  0
 11 12  1  0
 11 21  1  0
 13 19  1  0
 14 17  1  0
 15 17  1  0
 17 19  1  0
 20 21  1  0
M  END
>  <ID>  (1) 
conformer_0

$$$$
