
     RDKit          3D

 30 29  0  0  0  0  0  0  0  0999 V2000
   -9.5679    5.2938  -31.1399 C   0  0  0  0  0  0  0  0  0  0  0  0
   -5.3247    1.5385  -31.8797 O   0  0  0  0  0  0  0  0  0  0  0  0
  -11.1139    2.6573  -30.1348 O   0  0  0  0  0  0  0  0  0  0  0  0
   -9.3297    2.2658  -32.8187 C   0  0  0  0  0  0  0  0  0  0  0  0
   -8.5797    4.5266  -30.3747 C   0  0  0  0  0  0  0  0  0  0  0  0
   -6.3119   -0.0322  -30.1231 C   0  0  0  0  0  0  0  0  0  0  0  0
   -8.3699    6.4610  -28.8271 C   0  0  0  0  0  0  0  0  0  0  0  0
   -5.1926   -1.0454  -30.2569 C   0  0  0  0  0  0  0  0  0  0  0  0
   -3.5057   -3.2039  -30.5580 O   0  0  0  0  0  0  0  0  0  0  0  0
   -5.7069   -2.3834  -30.1652 C   0  0  0  0  0  0  0  0  0  0  0  0
   -8.2143    5.0180  -28.9944 C   0  0  0  0  0  0  0  0  0  0  0  0
   -9.0665    6.4635  -31.6717 O   0  0  0  0  0  0  0  0  0  0  0  0
   -4.6790   -3.6987  -30.4167 C   0  0  0  0  0  0  0  0  0  0  0  0
   -6.8916    1.6989  -31.8549 C   0  0  0  0  0  0  0  0  0  0  0  0
   -7.9814    6.8333  -27.4693 C   0  0  0  0  0  0  0  0  0  0  0  0
   -8.1477    2.7787  -31.9076 C   0  0  0  0  0  0  0  0  0  0  0  0
   -7.6873    3.9529  -32.6064 O   0  0  0  0  0  0  0  0  0  0  0  0
   -9.4635    0.8958  -32.5063 O   0  0  0  0  0  0  0  0  0  0  0  0
  -10.2657    4.1099  -28.3650 C   0  0  0  0  0  0  0  0  0  0  0  0
   -4.6247   -4.7069  -29.4623 F   0  0  0  0  0  0  0  0  0  0  0  0
   -8.7870    3.0181  -30.5356 O   0  0  0  0  0  0  0  0  0  0  0  0
   -8.7521    7.4490  -26.4872 O   0  0  0  0  0  0  0  0  0  0  0  0
   -7.0210    1.2705  -30.3381 C   0  0  0  0  0  0  0  0  0  0  0  0
   -6.8918    1.3962  -33.3068 O   0  0  0  0  0  0  0  0  0  0  0  0
   -9.8474    2.9509  -29.4556 C   0  0  0  0  0  0  0  0  0  0  0  0
   -8.9065    4.4389  -27.7815 C   0  0  0  0  0  0  0  0  0  0  0  0
   -9.9397    5.2300  -27.3093 O   0  0  0  0  0  0  0  0  0  0  0  0
   -6.7734    2.1701  -29.3660 O   0  0  0  0  0  0  0  0  0  0  0  0
   -5.2211   -4.2874  -31.5192 F   0  0  0  0  0  0  0  0  0  0  0  0
  -10.8296    5.4602  -30.7288 O   0  0  0  0  0  0  0  0  0  0  0  0
  1  5  1  0
  1 12  2  0
  1 30  1  0
  2 14  1  0
  3 25  1  0
  4 16  1  0
  4 18  1  0
  5 11  1  0
  6  8  1  0
  6 23  1  0
  7 11  1  0
  7 15  1  0
  8 10  1  0
  9 13  1  0
 10 13  1  0
 11 26  1  0
 13 20  1  0
 13 29  1  0
 14 16  1  0
 14 23  1  0
 14 24  1  0
 15 22  1  0
 16 17  1  0
 16 21  1  0
 19 25  1  0
 19 26  1  0
 21 25  1  0
 23 28  1  0
 26 27  1  0
M  END
>  <ID>  (1) 
conformer_0

$$$$
