
     RDKit          3D

 32 35  0  0  0  0  0  0  0  0999 V2000
   -5.2022    1.8367  -32.3910 O   0  0  0  0  0  0  0  0  0  0  0  0
   -7.0508    3.4986  -33.8027 O   0  0  0  0  0  0  0  0  0  0  0  0
  -13.7580    4.7340  -31.4911 O   0  0  0  0  0  0  0  0  0  0  0  0
   -8.0146    6.7200  -27.9964 N   0  0  0  0  0  0  0  0  0  0  0  0
  -11.9198    3.3838  -30.8542 C   0  0  0  0  0  0  0  0  0  0  0  0
  -11.3398    3.1621  -28.2210 O   0  0  0  0  0  0  0  0  0  0  0  0
   -8.7551    6.6155  -26.8211 C   0  0  0  0  0  0  0  0  0  0  0  0
  -11.7298    1.3937  -32.3098 O   0  0  0  0  0  0  0  0  0  0  0  0
  -11.0177    4.2402  -28.9817 C   0  0  0  0  0  0  0  0  0  0  0  0
   -6.8694    1.0241  -31.0659 O   0  0  0  0  0  0  0  0  0  0  0  0
  -13.9296    2.1523  -32.1137 C   0  0  0  0  0  0  0  0  0  0  0  0
   -8.3578    3.6380  -27.2419 C   0  0  0  0  0  0  0  0  0  0  0  0
   -7.5259    2.5569  -32.8686 C   0  0  0  0  0  0  0  0  0  0  0  0
   -8.8184    7.6430  -25.9735 O   0  0  0  0  0  0  0  0  0  0  0  0
   -8.9070    3.5739  -29.7434 C   0  0  0  0  0  0  0  0  0  0  0  0
   -9.5559    0.9890  -32.8400 O   0  0  0  0  0  0  0  0  0  0  0  0
   -9.9751    5.7230  -26.9374 C   0  0  0  0  0  0  0  0  0  0  0  0
   -6.4429    2.1448  -31.8076 C   0  0  0  0  0  0  0  0  0  0  0  0
   -8.8345    2.0741  -29.5119 C   0  0  0  0  0  0  0  0  0  0  0  0
   -8.7233    4.4639  -28.5357 C   0  0  0  0  0  0  0  0  0  0  0  0
  -10.0794    5.1707  -28.3823 C   0  0  0  0  0  0  0  0  0  0  0  0
  -10.4202    3.7211  -30.3740 C   0  0  0  0  0  0  0  0  0  0  0  0
  -11.8042    5.8164  -30.9439 O   0  0  0  0  0  0  0  0  0  0  0  0
   -7.9535    3.9506  -30.9119 C   0  0  0  0  0  0  0  0  0  0  0  0
   -8.6079    3.3259  -32.1202 C   0  0  0  0  0  0  0  0  0  0  0  0
  -10.4395    1.8961  -32.3771 C   0  0  0  0  0  0  0  0  0  0  0  0
   -6.5237    3.5881  -30.8827 O   0  0  0  0  0  0  0  0  0  0  0  0
   -7.6976    5.5056  -28.7102 C   0  0  0  0  0  0  0  0  0  0  0  0
  -12.6258    4.6857  -30.7337 C   0  0  0  0  0  0  0  0  0  0  0  0
  -12.7673    1.3701  -30.1676 O   0  0  0  0  0  0  0  0  0  0  0  0
  -12.6095    2.2167  -31.3370 C   0  0  0  0  0  0  0  0  0  0  0  0
  -10.0406    3.1616  -31.8133 N   0  0  0  0  0  0  0  0  0  0  0  0
  1 18  1  0
  2 13  1  0
  3 29  1  0
  4  7  1  0
  4 28  1  0
  5 22  1  0
  5 29  1  0
  5 31  1  0
  6  9  1  0
  7 14  2  0
  7 17  1  0
  8 26  1  0
  8 31  1  0
  9 21  1  0
  9 22  1  0
 10 18  1  0
 11 31  1  0
 12 20  1  0
 13 18  1  0
 13 25  1  0
 15 19  1  0
 15 20  1  0
 15 22  1  0
 15 24  1  0
 16 26  2  0
 17 21  1  0
 20 21  1  0
 20 28  1  0
 22 32  1  0
 23 29  1  0
 24 25  1  0
 24 27  1  0
 25 32  1  0
 26 32  1  0
 30 31  1  0
M  END
>  <ID>  (1) 
conformer_0

$$$$
