
     RDKit          3D

 12 11  0  0  0  0  0  0  0  0999 V2000
   -9.6308    4.0838  -28.3278 C   0  0  0  0  0  0  0  0  0  0  0  0
   -7.5932    4.8284  -29.3217 C   0  0  0  0  0  0  0  0  0  0  0  0
   -7.3681    2.1177  -31.6715 C   0  0  0  0  0  0  0  0  0  0  0  0
   -6.3233    2.6277  -32.1630 O   0  0  0  0  0  0  0  0  0  0  0  0
   -7.2334    1.0513  -31.0518 O   0  0  0  0  0  0  0  0  0  0  0  0
  -10.7680    4.8210  -28.0422 O   0  0  0  0  0  0  0  0  0  0  0  0
   -9.0408    4.4748  -29.7164 C   0  0  0  0  0  0  0  0  0  0  0  0
   -8.6621    2.8759  -31.8563 C   0  0  0  0  0  0  0  0  0  0  0  0
   -7.7176    5.8442  -28.1396 O   0  0  0  0  0  0  0  0  0  0  0  0
   -9.5282    3.6102  -30.8617 C   0  0  0  0  0  0  0  0  0  0  0  0
   -9.2690    2.5810  -33.0690 O   0  0  0  0  0  0  0  0  0  0  0  0
  -10.6602    2.8423  -30.4529 O   0  0  0  0  0  0  0  0  0  0  0  0
  1  6  1  0
  1  7  1  0
  2  7  1  0
  2  9  1  0
  3  4  2  0
  3  5  1  0
  3  8  1  0
  7 10  1  0
  8 10  1  0
  8 11  1  0
 10 12  1  0
M  END
>  <ID>  (1) 
conformer_0

$$$$
