
     RDKit          3D

 22 22  0  0  0  0  0  0  0  0999 V2000
   -9.2384    2.8678  -30.4011 C   0  0  0  0  0  0  0  0  0  0  0  0
   -7.7101    5.6643  -27.7931 O   0  0  0  0  0  0  0  0  0  0  0  0
   -6.1674    3.9247  -29.0669 O   0  0  0  0  0  0  0  0  0  0  0  0
  -12.0237    4.8762  -29.5880 O   0  0  0  0  0  0  0  0  0  0  0  0
   -6.9235    2.4298  -31.3386 C   0  0  0  0  0  0  0  0  0  0  0  0
  -11.9558    2.0442  -30.1556 O   0  0  0  0  0  0  0  0  0  0  0  0
   -8.9187    7.2771  -26.4734 O   0  0  0  0  0  0  0  0  0  0  0  0
   -7.8840    3.2642  -30.5867 C   0  0  0  0  0  0  0  0  0  0  0  0
  -10.3592    3.7582  -30.7359 C   0  0  0  0  0  0  0  0  0  0  0  0
   -8.1208    6.9805  -27.5553 C   0  0  0  0  0  0  0  0  0  0  0  0
   -8.8808    1.5978  -32.9361 O   0  0  0  0  0  1  0  0  0  0  0  0
   -9.7409    4.5786  -28.4228 C   0  0  0  0  0  0  0  0  0  0  0  0
   -7.4014    4.1082  -29.5621 C   0  0  0  0  0  0  0  0  0  0  0  0
  -10.2022    5.1255  -27.2365 O   0  0  0  0  0  0  0  0  0  0  0  0
   -7.6085    3.6889  -33.4654 O   0  0  0  0  0  0  0  0  0  0  0  0
  -10.8640    4.2009  -29.3140 C   0  0  0  0  0  0  0  0  0  0  0  0
   -7.5479    2.3005  -32.9233 P   0  0  0  0  0  4  0  0  0  0  0  0
   -8.7206    5.9694  -30.0997 O   0  0  0  0  0  0  0  0  0  0  0  0
   -8.4468    5.1002  -29.0114 C   0  0  0  0  0  0  0  0  0  0  0  0
   -6.4973    1.5265  -33.6837 O   0  0  0  0  0  0  0  0  0  0  0  0
   -5.6545    2.8318  -31.4647 F   0  0  0  0  0  0  0  0  0  0  0  0
  -11.5554    2.8720  -31.2640 C   0  0  0  0  0  0  0  0  0  0  0  0
  1  8  1  0
  1  9  1  0
  2 10  1  0
  2 19  1  0
  3 13  1  0
  4 16  1  0
  5  8  1  0
  5 17  1  0
  5 21  1  0
  6 22  1  0
  7 10  1  0
  8 13  1  0
  9 16  1  0
  9 22  1  0
 11 17  2  0
 12 14  1  0
 12 16  1  0
 12 19  1  0
 13 19  1  0
 15 17  1  0
 17 20  1  0
 18 19  1  0
M  END
>  <ID>  (1) 
conformer_0

$$$$
