
     RDKit          3D

 21 21  0  0  0  0  0  0  0  0999 V2000
   -6.3255    1.3474  -31.7067 C   0  0  0  0  0  0  0  0  0  0  0  0
  -10.6127    2.5173  -31.8870 C   0  0  0  0  0  0  0  0  0  0  0  0
   -8.3201    4.9944  -28.6426 C   0  0  0  0  0  0  0  0  0  0  0  0
   -8.4648    1.8316  -32.9542 C   0  0  0  0  0  0  0  0  0  0  0  0
   -8.8488    6.2564  -31.3246 O   0  0  0  0  0  0  0  0  0  0  0  0
   -6.7049    3.2081  -33.0953 O   0  0  0  0  0  0  0  0  0  0  0  0
   -8.3934    7.0081  -27.3057 O   0  0  0  0  0  0  0  0  0  0  0  0
   -8.6194    5.2733  -30.1636 C   0  0  0  0  0  0  0  0  0  0  0  0
   -7.1153    2.2409  -32.2919 C   0  0  0  0  0  0  0  0  0  0  0  0
   -6.3093    4.3417  -30.5266 O   0  0  0  0  0  0  0  0  0  0  0  0
   -8.6477    3.5335  -28.5670 C   0  0  0  0  0  0  0  0  0  0  0  0
   -7.6385    4.2530  -30.8579 C   0  0  0  0  0  0  0  0  0  0  0  0
   -8.3135    2.9512  -30.9254 C   0  0  0  0  0  0  0  0  0  0  0  0
   -9.3034    3.0505  -29.8035 O   0  0  0  0  0  0  0  0  0  0  0  0
   -6.9708    5.0236  -28.0921 O   0  0  0  0  0  0  0  0  0  0  0  0
   -9.2262    2.9807  -32.1351 C   0  0  0  0  0  0  0  0  0  0  0  0
  -10.8196    4.1969  -27.5180 O   0  0  0  0  0  0  0  0  0  0  0  0
   -9.9135    4.4873  -30.2479 O   0  0  0  0  0  0  0  0  0  0  0  0
   -9.0952    5.8769  -27.7385 C   0  0  0  0  0  0  0  0  0  0  0  0
  -10.0803    5.2367  -26.8520 C   0  0  0  0  0  0  0  0  0  0  0  0
   -8.8794    0.6025  -32.5942 O   0  0  0  0  0  0  0  0  0  0  0  0
  1  9  2  0
  2 16  1  0
  3  8  1  0
  3 11  1  0
  3 15  1  0
  3 19  1  0
  4  9  1  0
  4 16  1  0
  4 21  1  0
  5  8  1  0
  6  9  1  0
  7 19  1  0
  8 12  1  0
  8 18  1  0
 10 12  1  0
 11 14  1  0
 12 13  1  0
 13 14  1  0
 13 16  1  0
 17 20  1  0
 19 20  1  0
M  END
>  <ID>  (1) 
conformer_0

$$$$
