
     RDKit          3D

 18 18  0  0  0  0  0  0  0  0999 V2000
  -10.7128    3.2417  -29.5416 O   0  0  0  0  0  0  0  0  0  0  0  0
   -8.9712    6.2808  -31.6195 O   0  0  0  0  0  0  0  0  0  0  0  0
   -8.9852    4.9462  -29.6480 C   0  0  0  0  0  0  0  0  0  0  0  0
   -6.7141    2.6620  -30.1846 O   0  0  0  0  0  0  0  0  0  0  0  0
   -6.7332    2.2874  -31.3883 C   0  0  0  0  0  0  0  0  0  0  0  0
   -8.5620    6.1715  -27.5762 C   0  0  0  0  0  0  0  0  0  0  0  0
   -7.6546    2.9546  -32.3414 C   0  0  0  0  0  0  0  0  0  0  0  0
   -8.8749    4.8342  -31.1372 C   0  0  0  0  0  0  0  0  0  0  0  0
   -8.9483    1.1067  -32.0601 O   0  0  0  0  0  0  0  0  0  0  0  0
   -9.7872    3.9142  -31.8244 O   0  0  0  0  0  0  0  0  0  0  0  0
   -9.6288    5.5725  -26.9568 C   0  0  0  0  0  0  0  0  0  0  0  0
   -7.8216    7.0686  -26.8775 F   0  0  0  0  0  0  0  0  0  0  0  0
   -8.1965    5.8273  -28.9015 C   0  0  0  0  0  0  0  0  0  0  0  0
  -10.4090    4.6128  -27.6533 C   0  0  0  0  0  0  0  0  0  0  0  0
   -5.7286    1.7783  -31.9880 O   0  0  0  0  0  0  0  0  0  0  0  0
   -9.1382    2.5824  -32.2352 C   0  0  0  0  0  0  0  0  0  0  0  0
  -10.0214    4.2960  -28.9782 C   0  0  0  0  0  0  0  0  0  0  0  0
   -7.2168    3.4755  -33.4569 O   0  0  0  0  0  0  0  0  0  0  0  0
  1 17  1  0
  2  8  1  0
  3  8  1  0
  3 13  2  0
  3 17  1  0
  4  5  2  0
  5  7  1  0
  5 15  1  0
  6 11  2  0
  6 12  1  0
  6 13  1  0
  7 16  1  0
  7 18  1  0
  8 10  1  0
  9 16  2  0
 10 16  1  0
 11 14  1  0
 14 17  2  0
M  END
>  <ID>  (1) 
conformer_0

$$$$
