
     RDKit          3D

 20 22  0  0  0  0  0  0  0  0999 V2000
  -10.8618    4.3614  -27.9866 N   0  0  0  0  0  0  0  0  0  0  0  0
   -7.3404    3.7715  -30.4401 C   0  0  0  0  0  0  0  0  0  0  0  0
   -7.9892    7.5566  -28.2170 O   0  0  0  0  0  0  0  0  0  0  0  0
   -7.5082    3.1289  -31.8391 C   0  0  0  0  0  0  0  0  0  0  0  0
   -8.9658    2.6783  -32.0365 C   0  0  0  0  0  0  0  0  0  0  0  0
   -7.2962    3.7356  -33.1734 O   0  0  0  0  0  0  0  0  0  0  0  0
   -6.6823    1.8089  -31.8014 C   0  0  0  0  0  0  0  0  0  0  0  0
   -9.2247    1.4820  -32.6063 O   0  0  0  0  0  0  0  0  0  0  0  0
   -8.4794    4.4022  -29.5227 C   0  0  0  0  0  0  0  0  0  0  0  0
  -10.0112    3.4408  -31.3816 C   0  0  0  0  0  0  0  0  0  0  0  0
   -9.8994    5.8880  -26.4263 S   0  0  0  0  0  0  0  0  0  0  0  0
  -11.2683    2.7244  -31.2151 C   0  0  0  0  0  0  0  0  0  0  0  0
   -8.7123    5.3216  -28.4242 C   0  0  0  0  0  0  0  0  0  0  0  0
   -5.5871    1.8267  -32.3875 O   0  0  0  0  0  0  0  0  0  0  0  0
  -11.9071    3.4198  -30.0259 C   0  0  0  0  0  0  0  0  0  0  0  0
   -9.6937    3.7797  -29.9535 C   0  0  0  0  0  0  0  0  0  0  0  0
   -6.9982    0.8744  -31.0211 O   0  0  0  0  0  0  0  0  0  0  0  0
   -7.7788    6.2710  -28.0598 N   0  0  0  0  0  0  0  0  0  0  0  0
  -10.8554    3.8637  -29.2306 C   0  0  0  0  0  0  0  0  0  0  0  0
   -9.8336    5.1124  -27.5896 C   0  0  0  0  0  0  0  0  0  0  0  0
  1 19  1  0
  1 20  1  0
  2  4  1  0
  2  9  1  0
  3 18  1  0
  4  5  1  0
  4  6  1  0
  4  7  1  0
  5  8  1  0
  5 10  1  0
  7 14  2  0
  7 17  1  0
  9 13  1  0
  9 16  1  0
 10 12  1  0
 10 16  1  0
 11 20  2  0
 12 15  1  0
 13 18  1  0
 13 20  1  0
 15 19  1  0
 16 19  2  0
M  END
>  <ID>  (1) 
conformer_0

$$$$
