
     RDKit          3D

 11 10  0  0  0  0  0  0  0  0999 V2000
   -8.9070    3.6334  -29.6821 C   0  0  0  0  0  0  0  0  0  0  0  0
  -10.1455    4.4330  -27.7884 O   0  0  0  0  0  0  0  0  0  0  0  0
   -8.3696    1.4662  -31.9774 O   0  0  0  0  0  1  0  0  0  0  0  0
   -7.4788    3.7308  -30.3665 C   0  0  0  0  0  0  0  0  0  0  0  0
   -7.3792    2.6489  -31.8756 P   0  0  0  0  0  4  0  0  0  0  0  0
  -10.0033    3.7382  -30.7607 C   0  0  0  0  0  0  0  0  0  0  0  0
   -7.3390    5.1534  -30.5984 O   0  0  0  0  0  0  0  0  0  0  0  0
   -9.0759    4.6613  -28.5706 C   0  0  0  0  0  0  0  0  0  0  0  0
   -5.9451    2.1085  -31.9313 O   0  0  0  0  0  0  0  0  0  0  0  0
   -7.5878    3.5817  -33.1182 O   0  0  0  0  0  0  0  0  0  0  0  0
   -8.3877    5.8135  -28.3145 O   0  0  0  0  0  0  0  0  0  0  0  0
  1  4  1  0
  1  6  1  0
  1  8  1  0
  2  8  2  0
  3  5  2  0
  4  5  1  0
  4  7  1  0
  5  9  1  0
  5 10  1  0
  8 11  1  0
M  END
>  <ID>  (1) 
conformer_0

$$$$
