
     RDKit          3D

 19 19  0  0  0  0  0  0  0  0999 V2000
   -7.3260    0.9320  -30.8581 O   0  0  0  0  0  0  0  0  0  0  0  0
  -11.1237    3.0272  -29.4371 O   0  0  0  0  0  0  0  0  0  0  0  0
  -10.1885    4.0345  -29.5559 C   0  0  0  0  0  0  0  0  0  0  0  0
   -9.5780    4.8053  -28.5023 C   0  0  0  0  0  0  0  0  0  0  0  0
   -7.5691    3.3944  -29.2187 O   0  0  0  0  0  0  0  0  0  0  0  0
  -10.0553    4.9478  -27.1163 C   0  0  0  0  0  0  0  0  0  0  0  0
  -11.0623    3.9250  -26.9457 O   0  0  0  0  0  0  0  0  0  0  0  0
   -9.4785    4.0168  -30.8576 C   0  0  0  0  0  0  0  0  0  0  0  0
   -8.5791    5.2178  -30.8891 C   0  0  0  0  0  0  0  0  0  0  0  0
   -7.5087    2.0837  -32.0867 P   0  0  0  0  0  5  0  0  0  0  0  0
   -9.2448    2.6008  -31.3628 C   0  0  0  0  0  0  0  0  0  0  0  0
   -8.0990    4.5418  -28.5838 C   0  0  0  0  0  0  0  0  0  0  0  0
   -7.7392    5.6504  -29.7162 C   0  0  0  0  0  0  0  0  0  0  0  0
   -8.0512    6.8271  -28.9615 O   0  0  0  0  0  0  0  0  0  0  0  0
  -10.2609    2.1380  -32.1637 O   0  0  0  0  0  0  0  0  0  0  0  0
   -7.9033    1.1012  -33.2562 O   0  0  0  0  0  0  0  0  0  0  0  0
   -5.8362    2.1437  -32.0915 O   0  0  0  0  0  0  0  0  0  0  0  0
   -9.1751    6.3642  -31.5272 O   0  0  0  0  0  0  0  0  0  0  0  0
   -7.5043    3.5499  -33.0117 O   0  0  0  0  0  0  0  0  0  0  0  0
  1 10  1  0
  2  3  1  0
  3  4  1  0
  3  8  1  0
  4  6  1  0
  4 12  1  0
  5 12  1  0
  6  7  1  0
  8  9  1  0
  8 11  1  0
  9 13  1  0
  9 18  1  0
 10 11  1  0
 10 16  1  0
 10 17  1  0
 10 19  1  0
 11 15  1  0
 12 13  1  0
 13 14  1  0
M  END
>  <ID>  (1) 
conformer_0

$$$$
