
     RDKit          3D

 16 16  0  0  0  0  0  0  0  0999 V2000
   -8.7250    6.0661  -28.1521 C   0  0  0  0  0  0  0  0  0  0  0  0
   -5.8575    1.8271  -32.1102 O   0  0  0  0  0  1  0  0  0  0  0  0
   -9.7777    4.0811  -29.1552 C   0  0  0  0  0  0  0  0  0  0  0  0
   -9.3402    5.7592  -26.9421 C   0  0  0  0  0  0  0  0  0  0  0  0
   -7.2828    2.3627  -32.2938 P   0  0  0  0  0  4  0  0  0  0  0  0
   -7.8511    3.2436  -30.8943 C   0  0  0  0  0  0  0  0  0  0  0  0
   -8.9494    5.2429  -29.3094 C   0  0  0  0  0  0  0  0  0  0  0  0
  -10.2253    3.2213  -30.3307 C   0  0  0  0  0  0  0  0  0  0  0  0
   -9.2663    3.6364  -31.4815 N   0  0  0  0  0  0  0  0  0  0  0  0
   -8.4379    5.8472  -30.4995 O   0  0  0  0  0  0  0  0  0  0  0  0
   -8.2817    1.2711  -32.5547 O   0  0  0  0  0  0  0  0  0  0  0  0
  -10.1746    4.6258  -26.8510 C   0  0  0  0  0  0  0  0  0  0  0  0
   -7.3055    3.3905  -33.4542 O   0  0  0  0  0  0  0  0  0  0  0  0
   -6.6936    3.7656  -30.0526 C   0  0  0  0  0  0  0  0  0  0  0  0
  -10.3652    3.7813  -27.9253 C   0  0  0  0  0  0  0  0  0  0  0  0
   -7.8735    7.1366  -28.2320 O   0  0  0  0  0  0  0  0  0  0  0  0
  1  4  2  0
  1  7  1  0
  1 16  1  0
  2  5  2  0
  3  7  2  0
  3  8  1  0
  3 15  1  0
  4 12  1  0
  5  6  1  0
  5 11  1  0
  5 13  1  0
  6  9  1  0
  6 14  1  0
  7 10  1  0
  8  9  1  0
 12 15  2  0
M  END
>  <ID>  (1) 
conformer_0

$$$$
