
     RDKit          3D

 13 13  0  0  0  0  0  0  0  0999 V2000
   -7.7363    5.6236  -30.1138 O   0  0  0  0  0  0  0  0  0  0  0  0
   -7.2529    1.8511  -31.4259 P   0  0  0  0  0  4  0  0  0  0  0  0
   -9.2634    4.3866  -31.3117 N   0  0  0  0  0  0  0  0  0  0  0  0
  -10.0607    3.8334  -30.1423 C   0  0  0  0  0  0  0  0  0  0  0  0
   -7.8777    4.4392  -30.8088 C   0  0  0  0  0  0  0  0  0  0  0  0
   -9.4408    4.3857  -28.8540 C   0  0  0  0  0  0  0  0  0  0  0  0
   -8.4480    1.6629  -32.3885 O   0  0  0  0  0  1  0  0  0  0  0  0
  -10.4011    4.3684  -27.7655 O   0  0  0  0  0  0  0  0  0  0  0  0
   -8.8769    5.6922  -29.0946 N   0  0  0  0  0  0  0  0  0  0  0  0
   -6.0016    2.2438  -32.2400 O   0  0  0  0  0  0  0  0  0  0  0  0
   -8.2368    6.4559  -27.9112 C   0  0  0  0  0  0  0  0  0  0  0  0
   -7.5069    3.0843  -30.2984 C   0  0  0  0  0  0  0  0  0  0  0  0
   -6.9297    0.4992  -30.7234 O   0  0  0  0  0  0  0  0  0  0  0  0
  1  5  1  0
  1  9  1  0
  2  7  2  0
  2 10  1  0
  2 12  1  0
  2 13  1  0
  3  4  1  0
  3  5  1  0
  4  6  1  0
  5 12  1  0
  6  8  1  0
  6  9  1  0
  9 11  1  0
M  END
>  <ID>  (1) 
conformer_0

$$$$
