
     RDKit          3D

 19 18  0  0  0  0  0  0  0  0999 V2000
   -7.2426    3.0184  -30.5919 C   0  0  0  0  0  0  0  0  0  0  0  0
  -10.8680    3.6273  -30.4495 C   0  0  0  0  0  0  0  0  0  0  0  0
   -8.4469    3.7855  -30.3574 O   0  0  0  0  0  0  0  0  0  0  0  0
   -5.7501    1.7909  -32.3025 O   0  0  0  0  0  1  0  0  0  0  0  0
   -8.1268    5.1052  -29.8715 C   0  0  0  0  0  0  0  0  0  0  0  0
   -7.8667    7.5084  -27.9617 O   0  0  0  0  0  0  0  0  0  0  0  0
   -8.4892    6.4744  -27.5469 C   0  0  0  0  0  0  0  0  0  0  0  0
   -6.1252    3.6711  -30.1848 O   0  0  0  0  0  0  0  0  0  0  0  0
   -8.4590    5.2351  -28.3886 C   0  0  0  0  0  0  0  0  0  0  0  0
   -7.1791    2.3389  -32.1957 P   0  0  0  0  0  4  0  0  0  0  0  0
  -11.9775    2.8750  -30.6311 O   0  0  0  0  0  0  0  0  0  0  0  0
   -9.6923    3.0801  -28.2435 O   0  0  0  0  0  0  0  0  0  0  0  0
   -7.3792    3.3827  -33.2839 O   0  0  0  0  0  0  0  0  0  0  0  0
  -10.6776    4.7557  -29.5406 C   0  0  0  0  0  0  0  0  0  0  0  0
   -8.6786    6.1373  -30.7057 O   0  0  0  0  0  0  0  0  0  0  0  0
   -9.6054    3.3039  -31.1686 C   0  0  0  0  0  0  0  0  0  0  0  0
   -9.5856    6.6149  -26.7795 N   0  0  0  0  0  0  0  0  0  0  0  0
   -8.1740    1.2354  -32.3890 O   0  0  0  0  0  0  0  0  0  0  0  0
   -9.8518    4.5324  -28.2756 C   0  0  0  0  0  0  0  0  0  0  0  0
  1  3  1  0
  1  8  1  0
  1 10  1  0
  2 11  1  0
  2 14  1  0
  2 16  1  0
  3  5  1  0
  4 10  2  0
  5  9  1  0
  5 15  1  0
  6  7  2  0
  7  9  1  0
  7 17  1  0
  9 19  1  0
 10 13  1  0
 10 18  1  0
 12 19  1  0
 14 19  1  0
M  END
>  <ID>  (1) 
conformer_0

$$$$
