
     RDKit          3D

 12 11  0  0  0  0  0  0  0  0999 V2000
   -8.6216    3.2982  -29.9898 C   0  0  0  0  0  0  0  0  0  0  0  0
   -7.4204    3.7295  -30.8168 C   0  0  0  0  0  0  0  0  0  0  0  0
  -10.2810    4.2222  -28.5595 O   0  0  0  0  0  0  0  0  0  0  0  0
   -7.4260    2.5889  -32.2049 P   0  0  0  0  0  4  0  0  0  0  0  0
   -8.6446    5.7400  -29.4436 C   0  0  0  0  0  0  0  0  0  0  0  0
   -8.5190    1.5167  -32.3121 O   0  0  0  0  0  1  0  0  0  0  0  0
   -7.4745    3.4812  -33.4146 O   0  0  0  0  0  0  0  0  0  0  0  0
   -8.7585    6.0192  -30.7297 O   0  0  0  0  0  0  0  0  0  0  0  0
   -6.0685    1.9155  -32.0493 O   0  0  0  0  0  0  0  0  0  0  0  0
   -8.0155    6.5341  -28.4983 O   0  0  0  0  0  0  0  0  0  0  0  0
   -6.4282    4.1111  -29.9537 O   0  0  0  0  0  0  0  0  0  0  0  0
   -8.9360    4.3389  -28.9217 C   0  0  0  0  0  0  0  0  0  0  0  0
  1  2  1  0
  1 12  1  0
  2  4  1  0
  2 11  1  0
  3 12  1  0
  4  6  2  0
  4  7  1  0
  4  9  1  0
  5  8  2  0
  5 10  1  0
  5 12  1  0
M  END
>  <ID>  (1) 
conformer_0

$$$$
