
     RDKit          3D

 28 28  0  0  0  0  0  0  0  0999 V2000
   -5.8096   -0.4595  -29.8914 C   0  0  0  0  0  0  0  0  0  0  0  0
  -10.2985    4.7210  -27.2638 C   0  0  0  0  0  0  0  0  0  0  0  0
   -7.6720    3.7001  -33.4782 O   0  0  0  0  0  1  0  0  0  0  0  0
   -3.8191   -3.4845  -30.1550 N   0  0  0  0  0  0  0  0  0  0  0  0
   -8.1950    2.5490  -32.5797 P   0  0  0  0  0  4  0  0  0  0  0  0
   -4.6153   -4.6141  -30.3777 C   0  0  0  0  0  0  0  0  0  0  0  0
   -9.8944    4.9095  -28.7452 C   0  0  0  0  0  0  0  0  0  0  0  0
   -7.7898    5.4365  -27.6511 C   0  0  0  0  0  0  0  0  0  0  0  0
  -11.1861    3.8510  -30.5558 F   0  0  0  0  0  0  0  0  0  0  0  0
   -7.2530    1.5893  -30.0928 C   0  0  0  0  0  0  0  0  0  0  0  0
   -8.4081    6.6946  -27.4112 O   0  0  0  0  0  0  0  0  0  0  0  0
   -7.9025    1.1666  -33.2179 O   0  0  0  0  0  0  0  0  0  0  0  0
   -9.7736    2.5934  -32.5037 O   0  0  0  0  0  0  0  0  0  0  0  0
   -6.7433    0.2807  -30.6561 C   0  0  0  0  0  0  0  0  0  0  0  0
   -7.0498    2.7084  -31.1543 C   0  0  0  0  0  0  0  0  0  0  0  0
  -10.9827    5.6370  -26.7194 O   0  0  0  0  0  0  0  0  0  0  0  0
   -9.1625    6.4473  -31.5913 O   0  0  0  0  0  0  0  0  0  0  0  0
   -6.8579    3.9620  -30.4749 O   0  0  0  0  0  0  0  0  0  0  0  0
   -9.0769    5.0226  -31.1526 C   0  0  0  0  0  0  0  0  0  0  0  0
   -5.8952   -4.4817  -30.9490 C   0  0  0  0  0  0  0  0  0  0  0  0
   -5.7852    2.3265  -31.7960 O   0  0  0  0  0  0  0  0  0  0  0  0
  -10.3168    4.9856  -30.2020 C   0  0  0  0  0  0  0  0  0  0  0  0
   -8.3979    4.6910  -28.7988 C   0  0  0  0  0  0  0  0  0  0  0  0
   -4.1859   -5.7370  -30.0894 O   0  0  0  0  0  0  0  0  0  0  0  0
   -5.5464   -1.8320  -30.3578 C   0  0  0  0  0  0  0  0  0  0  0  0
   -7.8890    4.9655  -30.1888 C   0  0  0  0  0  0  0  0  0  0  0  0
   -4.2165   -2.2202  -29.8928 C   0  0  0  0  0  0  0  0  0  0  0  0
   -9.5677    3.5841  -26.6101 C   0  0  0  0  0  0  0  0  0  0  0  0
  1 14  2  3
  1 25  1  0
  2  7  1  0
  2 16  2  0
  2 28  1  0
  3  5  2  0
  4  6  1  0
  4 27  1  0
  5 12  1  0
  5 13  1  0
  5 15  1  0
  6 20  1  0
  6 24  2  0
  7 22  1  0
  7 23  1  0
  8 11  1  0
  8 23  1  0
  9 22  1  0
 10 14  1  0
 10 15  1  0
 15 18  1  0
 15 21  1  0
 17 19  1  0
 18 26  1  0
 19 22  1  0
 19 26  1  0
 23 26  1  0
 25 27  1  0
M  END
>  <ID>  (1) 
conformer_0

$$$$
