
     RDKit          3D

 13 12  0  0  0  0  0  0  0  0999 V2000
   -7.1690    4.2786  -29.6785 C   0  0  0  0  0  0  0  0  0  0  0  0
   -8.0801    5.0926  -28.7794 C   0  0  0  0  0  0  0  0  0  0  0  0
   -9.7198    3.5798  -29.7000 C   0  0  0  0  0  0  0  0  0  0  0  0
   -5.9964    2.2677  -32.2430 O   0  0  0  0  0  1  0  0  0  0  0  0
  -10.8761    2.8920  -29.6612 O   0  0  0  0  0  0  0  0  0  0  0  0
   -7.6594    3.5981  -30.8593 O   0  0  0  0  0  0  0  0  0  0  0  0
   -9.1066    4.0548  -30.8970 O   0  0  0  0  0  0  0  0  0  0  0  0
   -7.6049    0.9757  -30.9972 O   0  0  0  0  0  0  0  0  0  0  0  0
   -7.4352    2.2285  -31.7577 P   0  0  0  0  0  4  0  0  0  0  0  0
   -9.3303    4.2321  -28.4018 C   0  0  0  0  0  0  0  0  0  0  0  0
   -8.4290    2.3266  -32.8743 O   0  0  0  0  0  0  0  0  0  0  0  0
   -8.4462    6.4052  -29.0488 O   0  0  0  0  0  0  0  0  0  0  0  0
  -10.3176    4.9422  -27.7437 O   0  0  0  0  0  0  0  0  0  0  0  0
  1  2  1  0
  1  6  1  0
  2 10  1  0
  2 12  1  0
  3  5  2  0
  3  7  1  0
  3 10  1  0
  4  9  2  0
  6  9  1  0
  8  9  1  0
  9 11  1  0
 10 13  1  0
M  END
>  <ID>  (1) 
conformer_0

$$$$
