
     RDKit          3D

 23 23  0  0  0  0  0  0  0  0999 V2000
  -11.6842    1.8886  -32.1096 O   0  0  0  0  0  0  0  0  0  0  0  0
   -6.0465    2.0647  -32.4151 O   0  0  0  0  0  0  0  0  0  0  0  0
   -8.0193    6.0276  -30.3526 O   0  0  0  0  0  0  0  0  0  0  0  0
   -8.2984    1.4909  -30.4067 C   0  0  0  0  0  0  0  0  0  0  0  0
   -7.7781    5.2326  -29.2399 C   0  0  0  0  0  0  0  0  0  0  0  0
   -6.0521    3.8108  -30.0796 O   0  0  0  0  0  0  0  0  0  0  0  0
  -11.6165    3.4284  -30.3417 C   0  0  0  0  0  0  0  0  0  0  0  0
   -7.3344    0.5540  -30.4134 O   0  0  0  0  0  0  0  0  0  0  0  0
  -10.8415    2.8700  -31.6173 C   0  0  0  0  0  0  0  0  0  0  0  0
   -7.3563    3.4976  -33.4984 O   0  0  0  0  0  0  0  0  0  0  0  0
   -8.0767    7.3524  -27.6091 O   0  0  0  0  0  0  0  0  0  0  0  0
   -9.6058    4.0696  -28.1968 C   0  0  0  0  0  0  0  0  0  0  0  0
   -8.1298    2.6154  -29.3845 C   0  0  0  0  0  0  0  0  0  0  0  0
   -9.1413    1.2355  -32.6287 O   0  0  0  0  0  0  0  0  0  0  0  0
   -9.2108    2.8111  -28.5664 O   0  0  0  0  0  0  0  0  0  0  0  0
   -8.8210    5.2413  -28.2661 C   0  0  0  0  0  0  0  0  0  0  0  0
  -11.5838    2.3850  -29.3450 O   0  0  0  0  0  0  0  0  0  0  0  0
   -9.3953    3.2591  -31.6360 C   0  0  0  0  0  0  0  0  0  0  0  0
   -9.0644    6.3509  -27.4847 N   0  0  0  0  0  0  0  0  0  0  0  0
   -8.4403    2.1439  -31.8312 C   0  0  0  0  0  0  0  0  0  0  0  0
   -7.2971    3.8571  -29.5889 C   0  0  0  0  0  0  0  0  0  0  0  0
  -10.6970    4.2253  -27.1338 C   0  0  0  0  0  0  0  0  0  0  0  0
   -7.2184    2.5847  -32.5947 C   0  0  0  0  0  0  0  0  0  0  0  0
  1  9  1  0
  2 23  2  0
  3  5  1  0
  4  8  1  0
  4 13  1  0
  4 20  1  0
  5 16  1  0
  5 21  1  0
  6 21  1  0
  7  9  1  0
  7 17  1  0
  9 18  1  0
 10 23  1  0
 11 19  1  0
 12 15  1  0
 12 16  1  0
 12 22  1  0
 13 15  1  0
 13 21  1  0
 14 20  1  0
 16 19  1  0
 18 20  1  0
 20 23  1  0
M  END
>  <ID>  (1) 
conformer_0

$$$$
