
     RDKit          3D

 24 24  0  0  0  0  0  0  0  0999 V2000
   -8.9818    3.9470  -28.9817 C   0  0  0  0  0  0  0  0  0  0  0  0
   -6.3873    3.9175  -29.7110 O   0  0  0  0  0  0  0  0  0  0  0  0
   -9.1323    6.6578  -31.6685 O   0  0  0  0  0  0  0  0  0  0  0  0
   -9.2104    5.5939  -29.2728 C   0  0  0  0  0  0  0  0  0  0  0  0
  -11.8457    2.3945  -31.3425 O   0  0  0  0  0  0  0  0  0  0  0  0
  -10.9279    5.6025  -30.9540 O   0  0  0  0  0  0  0  0  0  0  0  0
  -10.1829    3.3583  -29.7696 C   0  0  0  0  0  0  0  0  0  0  0  0
   -8.8107    7.6074  -26.2862 O   0  0  0  0  0  0  0  0  0  0  0  0
   -9.5357    5.4416  -30.8798 C   0  0  0  0  0  0  0  0  0  0  0  0
   -8.5172    5.8668  -27.8857 C   0  0  0  0  0  0  0  0  0  0  0  0
   -8.2894    3.0559  -31.2098 O   0  0  0  0  0  0  0  0  0  0  0  0
   -7.2997    5.0459  -27.8800 O   0  0  0  0  0  0  0  0  0  0  0  0
   -8.0993    7.2598  -27.5647 C   0  0  0  0  0  0  0  0  0  0  0  0
   -9.1812    3.4532  -27.6210 O   0  0  0  0  0  0  0  0  0  0  0  0
   -5.4981    1.8479  -32.2678 O   0  0  0  0  0  1  0  0  0  0  0  0
   -7.4623    4.1158  -28.9611 C   0  0  0  0  0  0  0  0  0  0  0  0
   -9.4974    2.5935  -31.9856 C   0  0  0  0  0  0  0  0  0  0  0  0
   -7.0213    2.1440  -32.0273 P   0  0  0  0  0  4  0  0  0  0  0  0
  -10.6447    3.1127  -31.1852 C   0  0  0  0  0  0  0  0  0  0  0  0
   -7.3520    0.8747  -31.2057 O   0  0  0  0  0  0  0  0  0  0  0  0
   -7.2478    2.9418  -33.3775 O   0  0  0  0  0  0  0  0  0  0  0  0
   -8.4848    4.4659  -31.2580 O   0  0  0  0  0  0  0  0  0  0  0  0
   -9.6119    1.4314  -32.6567 O   0  0  0  0  0  0  0  0  0  0  0  0
  -11.2634    3.1895  -28.9211 O   0  0  0  0  0  0  0  0  0  0  0  0
  1  4  1  0
  1  7  1  0
  1 14  1  0
  1 16  1  0
  2 16  2  0
  3  9  1  0
  4  9  1  0
  4 10  1  0
  5 19  1  0
  6  9  1  0
  7 19  1  0
  7 24  1  0
  8 13  1  0
  9 22  1  0
 10 12  1  0
 10 13  1  0
 11 17  1  0
 11 18  1  0
 12 16  1  0
 15 18  2  0
 17 19  1  0
 17 23  2  0
 18 20  1  0
 18 21  1  0
M  END
>  <ID>  (1) 
conformer_0

$$$$
