
     RDKit          3D

 30 32  0  0  0  0  0  0  0  0999 V2000
  -11.0107    4.1571  -28.1207 C   0  0  0  0  0  0  0  0  0  0  0  0
   -7.7254    3.6917  -33.5444 O   0  0  0  0  0  0  0  0  0  0  0  0
  -10.8228    3.1014  -32.2218 C   0  0  0  0  0  0  0  0  0  0  0  0
   -9.7736    2.2824  -32.9001 C   0  0  0  0  0  0  0  0  0  0  0  0
  -13.7596    0.0292  -32.2334 C   0  0  0  0  0  0  0  0  0  0  0  0
   -9.0996    4.6600  -31.2439 C   0  0  0  0  0  0  0  0  0  0  0  0
   -7.4713    4.1558  -30.9419 C   0  0  0  0  0  0  0  0  0  0  0  0
   -6.0331    4.0082  -30.5837 O   0  0  0  0  0  0  0  0  0  0  0  0
  -13.1270    2.2979  -31.9536 C   0  0  0  0  0  0  0  0  0  0  0  0
   -6.9274    0.6541  -30.7078 O   0  0  0  0  0  0  0  0  0  0  0  0
  -11.4145    3.8815  -26.6947 C   0  0  0  0  0  0  0  0  0  0  0  0
  -11.3646    5.3068  -26.1496 C   0  0  0  0  0  0  0  0  0  0  0  0
   -9.5148    0.8915  -32.6533 O   0  0  0  0  0  0  0  0  0  0  0  0
   -8.9578    6.1558  -31.4875 O   0  0  0  0  0  0  0  0  0  0  0  0
  -11.6703    2.2225  -31.2251 C   0  0  0  0  0  0  0  0  0  0  0  0
   -7.8495    6.0791  -27.4278 C   0  0  0  0  0  0  0  0  0  0  0  0
   -8.0926    7.3623  -27.8215 O   0  0  0  0  0  0  0  0  0  0  0  0
  -10.1240    6.1653  -26.5476 C   0  0  0  0  0  0  0  0  0  0  0  0
   -9.5001    4.3311  -28.0807 C   0  0  0  0  0  0  0  0  0  0  0  0
   -8.8626    3.0449  -27.8780 O   0  0  0  0  0  0  0  0  0  0  0  0
   -6.9976    5.3394  -28.4491 C   0  0  0  0  0  0  0  0  0  0  0  0
   -7.8634    2.7278  -31.3701 C   0  0  0  0  0  0  0  0  0  0  0  0
   -9.2548    4.7773  -29.5636 C   0  0  0  0  0  0  0  0  0  0  0  0
   -8.4215    2.9157  -32.7738 C   0  0  0  0  0  0  0  0  0  0  0  0
   -6.0189    1.7203  -32.4384 O   0  0  0  0  0  0  0  0  0  0  0  0
  -14.3308    0.4878  -33.4668 O   0  0  0  0  0  0  0  0  0  0  0  0
   -7.8168    4.9714  -29.6294 N   0  0  0  0  0  0  0  0  0  0  0  0
   -6.8471    1.6685  -31.4486 C   0  0  0  0  0  0  0  0  0  0  0  0
  -13.9267    1.1424  -31.3312 C   0  0  0  0  0  0  0  0  0  0  0  0
   -9.0013    5.3086  -26.9943 C   0  0  0  0  0  0  0  0  0  0  0  0
  1 11  1  0
  1 19  1  0
  2 24  1  0
  3  4  1  0
  3 15  1  0
  4 13  1  0
  4 24  1  0
  5 26  1  0
  5 29  1  0
  6  7  1  0
  6 14  1  0
  6 23  1  0
  7  8  1  0
  7 22  1  0
  7 27  1  0
  9 15  1  0
  9 29  1  0
 10 28  2  0
 11 12  1  0
 12 18  1  0
 16 17  1  0
 16 21  1  0
 16 30  1  0
 18 30  1  0
 19 20  1  0
 19 23  1  0
 19 30  1  0
 21 27  1  0
 22 24  1  0
 22 28  1  0
 23 27  1  0
 25 28  1  0
M  END
>  <ID>  (1) 
conformer_0

$$$$
