
     RDKit          3D

 22 22  0  0  0  0  0  0  0  0999 V2000
   -5.7847    1.9675  -32.2003 O   0  0  0  0  0  1  0  0  0  0  0  0
   -9.8389    3.2999  -30.2544 C   0  0  0  0  0  0  0  0  0  0  0  0
  -11.2318    2.9265  -29.6935 C   0  0  0  0  0  0  0  0  0  0  0  0
  -12.0579    1.9920  -29.7783 O   0  0  0  0  0  0  0  0  0  0  0  0
   -6.3869    3.9937  -29.2190 O   0  0  0  0  0  0  0  0  0  0  0  0
   -8.1275    1.4620  -31.6935 O   0  0  0  0  0  0  0  0  0  0  0  0
  -11.4754    5.8254  -26.3591 O   0  0  0  0  0  0  0  0  0  0  0  0
  -10.4876    4.3593  -27.9598 C   0  0  0  0  0  0  0  0  0  0  0  0
   -8.4524    5.3011  -29.3167 C   0  0  0  0  0  0  0  0  0  0  0  0
   -7.3054    4.4005  -30.0196 C   0  0  0  0  0  0  0  0  0  0  0  0
   -8.7163    6.2641  -28.0348 C   0  0  0  0  0  0  0  0  0  0  0  0
   -7.2655    3.3896  -33.5927 O   0  0  0  0  0  1  0  0  0  0  0  0
   -7.3880    3.8278  -31.2400 O   0  0  0  0  0  0  0  0  0  0  0  0
   -9.0727    5.8559  -26.6265 C   0  0  0  0  0  0  0  0  0  0  0  0
   -7.0717    2.6816  -32.2210 P   0  0  0  0  0  0  0  0  0  0  0  0
  -10.1621    2.7729  -31.7667 C   0  0  0  0  0  0  0  0  0  0  0  0
   -8.8735    6.0953  -30.4959 O   0  0  0  0  0  0  0  0  0  0  0  0
   -8.0741    7.4695  -28.1472 O   0  0  0  0  0  0  0  0  0  0  0  0
  -10.2881    4.9623  -26.6260 C   0  0  0  0  0  0  0  0  0  0  0  0
   -9.3916    4.1319  -28.9309 C   0  0  0  0  0  0  0  0  0  0  0  0
   -9.1752    1.9208  -32.5335 C   0  0  0  0  0  0  0  0  0  0  0  0
  -11.4430    2.1941  -32.1612 O   0  0  0  0  0  0  0  0  0  0  0  0
  1 15  1  0
  2  3  1  0
  2 16  1  0
  2 20  1  0
  3  4  2  0
  5 10  2  0
  6 21  1  0
  7 19  1  0
  8 19  1  0
  8 20  1  0
  9 10  1  0
  9 11  1  0
  9 17  1  0
  9 20  1  0
 10 13  1  0
 11 14  1  0
 11 18  1  0
 12 15  1  0
 13 15  1  0
 14 19  1  0
 16 21  1  0
 16 22  1  0
M  END
>  <ID>  (1) 
conformer_0

$$$$
