
     RDKit          3D

 23 23  0  0  0  0  0  0  0  0999 V2000
   -9.7470    6.1405  -27.4469 N   0  0  0  0  0  0  0  0  0  0  0  0
   -5.9068    2.0174  -32.3339 O   0  0  0  0  0  1  0  0  0  0  0  0
   -8.1862    1.3567  -33.0635 O   0  0  0  0  0  0  0  0  0  0  0  0
   -8.6069    6.2081  -28.3373 C   0  0  0  0  0  0  0  0  0  0  0  0
   -7.3544    2.4953  -32.5134 P   0  0  0  0  0  4  0  0  0  0  0  0
   -7.1611    4.1990  -29.3411 O   0  0  0  0  0  0  0  0  0  0  0  0
  -10.7889    3.4003  -30.1694 C   0  0  0  0  0  0  0  0  0  0  0  0
   -7.3734    3.6682  -33.4636 O   0  0  0  0  0  0  0  0  0  0  0  0
  -11.6186    4.4973  -30.5401 O   0  0  0  0  0  0  0  0  0  0  0  0
  -12.0782    2.0818  -31.9056 C   0  0  0  0  0  0  0  0  0  0  0  0
   -8.7108    6.3166  -29.8256 C   0  0  0  0  0  0  0  0  0  0  0  0
  -10.6532    2.6091  -31.5956 C   0  0  0  0  0  0  0  0  0  0  0  0
   -9.6727    4.0189  -29.2782 C   0  0  0  0  0  0  0  0  0  0  0  0
   -7.6540    7.1685  -27.8649 F   0  0  0  0  0  0  0  0  0  0  0  0
   -9.1915    6.4688  -26.0913 C   0  0  0  0  0  0  0  0  0  0  0  0
   -7.9820    2.7994  -30.9982 C   0  0  0  0  0  0  0  0  0  0  0  0
  -10.5168    4.9765  -27.1192 C   0  0  0  0  0  0  0  0  0  0  0  0
  -11.3901    2.4091  -29.3454 O   0  0  0  0  0  0  0  0  0  0  0  0
   -8.6820    5.2209  -30.8887 C   0  0  0  0  0  0  0  0  0  0  0  0
   -8.4009    3.9628  -30.0678 C   0  0  0  0  0  0  0  0  0  0  0  0
  -11.4011    5.1558  -26.2363 O   0  0  0  0  0  0  0  0  0  0  0  0
   -9.9143    3.7723  -27.7822 C   0  0  0  0  0  0  0  0  0  0  0  0
   -7.7319    1.6505  -30.2002 O   0  0  0  0  0  0  0  0  0  0  0  0
  1  4  1  0
  1 15  1  0
  1 17  1  0
  2  5  2  0
  3  5  1  0
  4 11  1  0
  4 14  1  0
  5  8  1  0
  5 16  1  0
  6 20  1  0
  7  9  1  0
  7 12  1  0
  7 13  1  0
  7 18  1  0
 10 12  1  0
 11 19  1  0
 13 20  1  0
 13 22  1  0
 16 20  1  0
 16 23  1  0
 17 21  2  0
 17 22  1  0
 19 20  1  0
M  END
>  <ID>  (1) 
conformer_0

$$$$
