
     RDKit          3D

 21 23  0  0  0  0  0  0  0  0999 V2000
   -8.0401    6.4193  -28.4583 C   0  0  0  0  0  0  0  0  0  0  0  0
   -8.4746    5.9531  -31.4260 O   0  0  0  0  0  0  0  0  0  0  0  0
   -6.2386    3.7052  -30.4873 O   0  0  0  0  0  0  0  0  0  0  0  0
   -5.3250    1.4943  -32.4399 O   0  0  0  0  0  0  0  0  0  0  0  0
   -6.4263    1.3546  -31.8336 C   0  0  0  0  0  0  0  0  0  0  0  0
   -6.6302    0.4961  -30.9416 O   0  0  0  0  0  0  0  0  0  0  0  0
   -7.4751    2.3719  -32.0660 C   0  0  0  0  0  0  0  0  0  0  0  0
  -10.6965    4.5585  -27.1969 O   0  0  0  0  0  0  0  0  0  0  0  0
   -8.4728    4.5415  -31.0902 C   0  0  0  0  0  0  0  0  0  0  0  0
   -9.8816    3.2498  -29.6334 C   0  0  0  0  0  0  0  0  0  0  0  0
   -8.7815    1.6775  -31.9137 C   0  0  0  0  0  0  0  0  0  0  0  0
   -8.9477    4.4053  -29.6619 C   0  0  0  0  0  0  0  0  0  0  0  0
   -9.3547    6.3993  -26.7156 N   0  0  0  0  0  0  0  0  0  0  0  0
   -8.8918    5.3995  -28.6399 C   0  0  0  0  0  0  0  0  0  0  0  0
   -9.7601    5.3406  -27.5200 C   0  0  0  0  0  0  0  0  0  0  0  0
   -9.6175    3.8978  -31.9013 C   0  0  0  0  0  0  0  0  0  0  0  0
   -9.4506    1.9318  -33.2842 F   0  0  0  0  0  0  0  0  0  0  0  0
   -8.2485    7.0438  -27.3106 C   0  0  0  0  0  0  0  0  0  0  0  0
   -9.6844    2.5357  -31.0108 C   0  0  0  0  0  0  0  0  0  0  0  0
  -11.2776    3.7327  -29.7246 O   0  0  0  0  0  0  0  0  0  0  0  0
   -7.3408    3.5925  -31.3451 C   0  0  0  0  0  0  0  0  0  0  0  0
  1 14  1  0
  1 18  1  0
  2  9  1  0
  3 21  1  0
  4  5  2  0
  5  6  1  0
  5  7  1  0
  7 11  1  0
  7 21  1  0
  8 15  2  0
  9 12  1  0
  9 16  1  0
  9 21  1  0
 10 12  1  0
 10 19  1  0
 10 20  1  0
 11 17  1  0
 11 19  1  0
 12 14  1  0
 13 15  1  0
 13 18  1  0
 14 15  1  0
 16 19  1  0
M  END
>  <ID>  (1) 
conformer_0

$$$$
