
     RDKit          3D

 24 25  0  0  0  0  0  0  0  0999 V2000
   -5.2719   -0.9816  -28.6997 O   0  0  0  0  0  0  0  0  0  0  0  0
   -9.6545    2.0599  -32.7377 O   0  0  0  0  0  0  0  0  0  0  0  0
   -8.6144    6.3422  -27.6921 C   0  0  0  0  0  0  0  0  0  0  0  0
   -9.9566    3.5454  -29.6641 C   0  0  0  0  0  0  0  0  0  0  0  0
   -8.4435    2.5509  -32.3557 C   0  0  0  0  0  0  0  0  0  0  0  0
   -7.1018    1.7636  -32.1099 C   0  0  0  0  0  0  0  0  0  0  0  0
   -6.1120    2.7559  -31.7956 O   0  0  0  0  0  0  0  0  0  0  0  0
   -8.1330    5.2810  -29.8320 C   0  0  0  0  0  0  0  0  0  0  0  0
   -7.7073    3.9581  -30.4340 C   0  0  0  0  0  0  0  0  0  0  0  0
   -9.3169    3.0655  -27.4042 O   0  0  0  0  0  0  0  0  0  0  0  0
   -5.7614   -0.9041  -29.8755 C   0  0  0  0  0  0  0  0  0  0  0  0
  -11.0961    2.6915  -29.5520 O   0  0  0  0  0  0  0  0  0  0  0  0
   -8.4599    5.0641  -28.4110 C   0  0  0  0  0  0  0  0  0  0  0  0
   -6.7037    1.2441  -33.3971 O   0  0  0  0  0  0  0  0  0  0  0  0
   -6.7248    3.4562  -29.4851 O   0  0  0  0  0  0  0  0  0  0  0  0
   -7.3134    0.3974  -31.3352 C   0  0  0  0  0  0  0  0  0  0  0  0
   -8.5868    3.8491  -31.6488 C   0  0  0  0  0  0  0  0  0  0  0  0
   -9.9140    4.0084  -31.0684 O   0  0  0  0  0  0  0  0  0  0  0  0
   -5.9533   -1.9403  -30.5547 O   0  0  0  0  0  0  0  0  0  0  0  0
   -6.3651    0.3333  -30.2354 C   0  0  0  0  0  0  0  0  0  0  0  0
   -9.6807    4.1738  -28.2864 C   0  0  0  0  0  0  0  0  0  0  0  0
  -10.5343    5.0014  -27.2732 C   0  0  0  0  0  0  0  0  0  0  0  0
   -9.8386    6.2069  -26.9452 N   0  0  0  0  0  0  0  0  0  0  0  0
   -8.4559    6.1752  -30.7280 O   0  0  0  0  0  0  0  0  0  0  0  0
  1 11  2  0
  2  5  1  0
  3 13  1  0
  3 23  1  0
  4 12  2  0
  4 18  1  0
  4 21  1  0
  5  6  1  0
  5 17  1  0
  6  7  1  0
  6 14  1  0
  6 16  1  0
  8  9  1  0
  8 13  1  0
  8 24  1  0
  9 15  1  0
  9 17  1  0
 10 21  1  0
 11 19  1  0
 11 20  1  0
 13 21  1  0
 16 20  1  0
 17 18  1  0
 21 22  1  0
 22 23  1  0
M  END
>  <ID>  (1) 
conformer_0

$$$$
