
     RDKit          3D

 27 28  0  0  0  0  0  0  0  0999 V2000
   -8.5499    7.0126  -27.1575 O   0  0  0  0  0  0  0  0  0  0  0  0
  -10.4189    3.6343  -28.1337 O   0  0  0  0  0  0  0  0  0  0  0  0
   -9.3389    4.4908  -30.1108 C   0  0  0  0  0  0  0  0  0  0  0  0
  -10.3294    5.2943  -31.0126 C   0  0  0  0  0  0  0  0  0  0  0  0
   -7.3376    1.7072  -31.9002 P   0  0  0  0  0  4  0  0  0  0  0  0
   -9.5428    6.3393  -31.7141 O   0  0  0  0  0  0  0  0  0  0  0  0
  -10.3602    3.4450  -29.5608 C   0  0  0  0  0  0  0  0  0  0  0  0
   -8.8471    5.4442  -29.0199 C   0  0  0  0  0  0  0  0  0  0  0  0
  -10.3984    4.8227  -27.2077 C   0  0  0  0  0  0  0  0  0  0  0  0
  -12.1704    2.3830  -31.1349 C   0  0  0  0  0  0  0  0  0  0  0  0
  -11.3985    2.0867  -32.0431 O   0  0  0  0  0  0  0  0  0  0  0  0
   -8.4340    0.9650  -32.6600 O   0  0  0  0  0  1  0  0  0  0  0  0
  -13.7091    0.3045  -30.7845 C   0  0  0  0  0  0  0  0  0  0  0  0
   -7.3825    3.6684  -33.5357 O   0  0  0  0  0  0  0  0  0  0  0  0
  -13.4400    1.6987  -31.2197 N   0  0  0  0  0  0  0  0  0  0  0  0
  -15.1794    0.6719  -32.5077 O   0  0  0  0  0  0  0  0  0  0  0  0
   -7.2069    0.8806  -30.6373 O   0  0  0  0  0  0  0  0  0  0  0  0
   -9.3161    5.7969  -27.6713 C   0  0  0  0  0  0  0  0  0  0  0  0
   -8.1886    4.8471  -27.8310 C   0  0  0  0  0  0  0  0  0  0  0  0
   -8.0031    3.4224  -30.0008 O   0  0  0  0  0  0  0  0  0  0  0  0
   -7.9178    6.3450  -29.5803 O   0  0  0  0  0  0  0  0  0  0  0  0
  -14.2213    1.7752  -32.5019 C   0  0  0  0  0  0  0  0  0  0  0  0
  -11.6426    3.3736  -30.2652 O   0  0  0  0  0  0  0  0  0  0  0  0
   -7.8706    3.3510  -32.3759 C   0  0  0  0  0  0  0  0  0  0  0  0
  -14.6262   -0.3381  -31.6593 O   0  0  0  0  0  0  0  0  0  0  0  0
   -5.8735    1.8422  -32.3051 O   0  0  0  0  0  0  0  0  0  0  0  0
   -8.1753    4.1734  -31.1566 C   0  0  0  0  0  0  0  0  0  0  0  0
  1 18  1  0
  2  7  1  0
  2  9  1  0
  3  4  1  0
  3  7  1  0
  3  8  1  0
  3 27  1  0
  4  6  1  0
  5 12  2  0
  5 17  1  0
  5 24  1  0
  5 26  1  0
  7 23  1  0
  8 18  1  0
  8 21  1  0
  9 18  1  0
 10 11  2  0
 10 15  1  0
 10 23  1  0
 13 15  1  0
 13 25  1  0
 14 24  1  0
 15 22  1  0
 16 22  1  0
 16 25  1  0
 18 19  1  0
 20 27  1  0
 24 27  1  0
M  END
>  <ID>  (1) 
conformer_0

$$$$
