
     RDKit          3D

 21 21  0  0  0  0  0  0  0  0999 V2000
  -10.2465    4.0867  -30.0361 C   0  0  0  0  0  0  0  0  0  0  0  0
   -8.0312    4.6741  -30.6529 C   0  0  0  0  0  0  0  0  0  0  0  0
   -8.1703    7.1113  -27.2865 C   0  0  0  0  0  0  0  0  0  0  0  0
  -11.5741    3.8463  -30.2115 O   0  0  0  0  0  0  0  0  0  0  0  0
   -7.9729    3.9861  -33.0978 O   0  0  0  0  0  0  0  0  0  0  0  0
   -9.8816    2.2474  -32.5975 O   0  0  0  0  0  0  0  0  0  0  0  0
   -6.6143    0.2569  -30.5826 O   0  0  0  0  0  0  0  0  0  0  0  0
   -9.6858    3.9963  -28.6454 C   0  0  0  0  0  0  0  0  0  0  0  0
   -8.3827    6.0833  -30.7761 O   0  0  0  0  0  0  0  0  0  0  0  0
   -7.3786    4.8897  -28.0185 O   0  0  0  0  0  0  0  0  0  0  0  0
   -7.3705    3.4010  -30.2930 C   0  0  0  0  0  0  0  0  0  0  0  0
   -7.5520    1.3848  -33.0102 O   0  0  0  0  0  0  0  0  0  0  0  0
   -8.6658    5.0252  -28.2439 C   0  0  0  0  0  0  0  0  0  0  0  0
  -10.7387    4.0450  -27.7036 O   0  0  0  0  0  0  0  0  0  0  0  0
   -6.3600    1.3403  -31.1675 C   0  0  0  0  0  0  0  0  0  0  0  0
   -9.1559    6.2534  -27.9401 N   0  0  0  0  0  0  0  0  0  0  0  0
   -6.0086    3.4833  -29.8436 O   0  0  0  0  0  0  0  0  0  0  0  0
   -8.8077    3.1526  -32.2609 C   0  0  0  0  0  0  0  0  0  0  0  0
   -9.3350    4.0559  -31.2115 C   0  0  0  0  0  0  0  0  0  0  0  0
   -7.6585    2.1966  -31.6039 C   0  0  0  0  0  0  0  0  0  0  0  0
   -5.3098    1.6026  -31.8878 O   0  0  0  0  0  0  0  0  0  0  0  0
  1  4  1  0
  1  8  1  0
  1 19  1  0
  2  9  1  0
  2 11  1  0
  2 19  1  0
  3 16  1  0
  5 18  1  0
  6 18  1  0
  7 15  2  0
  8 13  1  0
  8 14  1  0
 10 13  2  0
 11 17  1  0
 11 20  1  0
 12 20  1  0
 13 16  1  0
 15 20  1  0
 15 21  1  0
 18 19  1  0
 18 20  1  0
M  END
>  <ID>  (1) 
conformer_0

$$$$
