
     RDKit          3D

 21 23  0  0  0  0  0  0  0  0999 V2000
  -11.0444    4.1721  -27.4062 O   0  0  0  0  0  0  0  0  0  0  0  0
   -6.9286    2.1415  -32.3642 C   0  0  0  0  0  0  0  0  0  0  0  0
   -9.8363    4.3664  -28.0799 C   0  0  0  0  0  0  0  0  0  0  0  0
   -7.5109    4.7820  -29.2736 C   0  0  0  0  0  0  0  0  0  0  0  0
   -8.6972    4.5706  -30.2602 C   0  0  0  0  0  0  0  0  0  0  0  0
   -6.4637    3.9211  -29.9700 O   0  0  0  0  0  0  0  0  0  0  0  0
   -9.7946    6.4386  -26.7236 O   0  0  0  0  0  0  0  0  0  0  0  0
  -12.1082    3.9902  -30.6424 O   0  0  0  0  0  0  0  0  0  0  0  0
   -8.7212    5.8353  -30.9841 O   0  0  0  0  0  0  0  0  0  0  0  0
   -7.6685    7.3554  -27.6809 O   0  0  0  0  0  0  0  0  0  0  0  0
   -7.9388    1.1404  -32.4295 O   0  0  0  0  0  0  0  0  0  0  0  0
  -10.0085    4.4222  -29.5536 C   0  0  0  0  0  0  0  0  0  0  0  0
   -5.6022    1.7018  -32.3836 O   0  0  0  0  0  0  0  0  0  0  0  0
  -10.9534    2.2054  -32.3222 O   0  0  0  0  0  0  0  0  0  0  0  0
   -7.0778    2.8551  -30.8158 C   0  0  0  0  0  0  0  0  0  0  0  0
  -10.0311    3.1040  -31.6195 C   0  0  0  0  0  0  0  0  0  0  0  0
   -7.9805    6.0610  -28.3740 C   0  0  0  0  0  0  0  0  0  0  0  0
   -7.2078    3.2165  -33.2811 O   0  0  0  0  0  0  0  0  0  0  0  0
  -10.8555    3.4170  -30.2901 C   0  0  0  0  0  0  0  0  0  0  0  0
   -9.0811    5.4874  -27.4405 C   0  0  0  0  0  0  0  0  0  0  0  0
   -8.5974    3.1894  -30.8852 C   0  0  0  0  0  0  0  0  0  0  0  0
  1  3  1  0
  2 11  1  0
  2 13  1  0
  2 15  1  0
  2 18  1  0
  3 12  1  0
  3 20  1  0
  4  5  1  0
  4  6  1  0
  4 17  1  0
  5  9  1  0
  5 12  1  0
  5 21  1  0
  6 15  1  0
  7 20  1  0
  8 19  1  0
 10 17  1  0
 12 19  1  0
 14 16  1  0
 15 21  1  0
 16 19  1  0
 16 21  1  0
 17 20  1  0
M  END
>  <ID>  (1) 
conformer_0

$$$$
