
     RDKit          3D

 18 18  0  0  0  0  0  0  0  0999 V2000
   -6.0801    1.8915  -32.1134 O   0  0  0  0  0  1  0  0  0  0  0  0
   -9.4373    5.2875  -30.0710 C   0  0  0  0  0  0  0  0  0  0  0  0
  -11.2282    4.9983  -27.3436 O   0  0  0  0  0  0  0  0  0  0  0  0
   -7.4506    3.3734  -33.5038 O   0  0  0  0  0  0  0  0  0  0  0  0
   -9.9264    5.1868  -26.8951 C   0  0  0  0  0  0  0  0  0  0  0  0
   -7.8310    5.4219  -28.2182 C   0  0  0  0  0  0  0  0  0  0  0  0
  -10.1901    5.7350  -31.2062 O   0  0  0  0  0  0  0  0  0  0  0  0
  -10.7587    3.2805  -30.4643 C   0  0  0  0  0  0  0  0  0  0  0  0
   -9.2738    3.7057  -30.2435 C   0  0  0  0  0  0  0  0  0  0  0  0
   -8.9664    3.3552  -28.8282 O   0  0  0  0  0  0  0  0  0  0  0  0
   -8.0298    5.6228  -29.7179 C   0  0  0  0  0  0  0  0  0  0  0  0
   -8.0974    6.7976  -27.7655 O   0  0  0  0  0  0  0  0  0  0  0  0
   -7.5386    2.5277  -32.2513 P   0  0  0  0  0  4  0  0  0  0  0  0
   -6.5782    3.8217  -30.3889 O   0  0  0  0  0  0  0  0  0  0  0  0
   -8.5130    1.4230  -32.2927 O   0  0  0  0  0  0  0  0  0  0  0  0
  -11.2494    2.4897  -29.3622 O   0  0  0  0  0  0  0  0  0  0  0  0
   -7.8960    3.6391  -31.0001 C   0  0  0  0  0  0  0  0  0  0  0  0
   -8.9332    4.4100  -27.8142 C   0  0  0  0  0  0  0  0  0  0  0  0
  1 13  2  0
  2  7  1  0
  2  9  1  0
  2 11  1  0
  3  5  1  0
  4 13  1  0
  5 18  1  0
  6 11  1  0
  6 12  1  0
  6 18  1  0
  8  9  1  0
  8 16  1  0
  9 10  1  0
  9 17  1  0
 10 18  1  0
 13 15  1  0
 13 17  1  0
 14 17  1  0
M  END
>  <ID>  (1) 
conformer_0

$$$$
