
     RDKit          3D

 14 14  0  0  0  0  0  0  0  0999 V2000
   -8.4730    1.0519  -32.2697 O   0  0  0  0  0  1  0  0  0  0  0  0
  -10.1505    3.5783  -30.1187 C   0  0  0  0  0  0  0  0  0  0  0  0
   -7.9398    3.1050  -30.8820 C   0  0  0  0  0  0  0  0  0  0  0  0
   -9.2909    3.7156  -31.4022 C   0  0  0  0  0  0  0  0  0  0  0  0
   -8.4010    6.9807  -27.8732 O   0  0  0  0  0  0  0  0  0  0  0  0
   -7.7638    5.6861  -28.0013 C   0  0  0  0  0  0  0  0  0  0  0  0
   -8.2030    5.0512  -29.3362 C   0  0  0  0  0  0  0  0  0  0  0  0
   -7.3121    4.0748  -29.9690 C   0  0  0  0  0  0  0  0  0  0  0  0
   -5.9825    4.1899  -29.8140 O   0  0  0  0  0  0  0  0  0  0  0  0
   -6.0641    1.5752  -31.7461 O   0  0  0  0  0  0  0  0  0  0  0  0
   -7.4292    2.1061  -32.0853 P   0  0  0  0  0  4  0  0  0  0  0  0
  -10.2506    4.5658  -27.8279 C   0  0  0  0  0  0  0  0  0  0  0  0
   -9.6405    4.6273  -29.1941 C   0  0  0  0  0  0  0  0  0  0  0  0
   -7.2873    2.9429  -33.3391 O   0  0  0  0  0  0  0  0  0  0  0  0
  1 11  2  0
  2  4  1  0
  2 13  1  0
  3  4  1  0
  3  8  1  0
  3 11  1  0
  5  6  1  0
  6  7  1  0
  7  8  1  0
  7 13  1  0
  8  9  1  0
 10 11  1  0
 11 14  1  0
 12 13  1  0
M  END
>  <ID>  (1) 
conformer_0

$$$$
