
     RDKit          3D

 28 29  0  0  0  0  0  0  0  0999 V2000
   -9.9036    7.3654  -26.1538 N   0  0  0  0  0  0  0  0  0  0  0  0
  -15.2635   -0.7597  -30.7259 O   0  0  0  0  0  0  0  0  0  0  0  0
   -8.8384    3.1504  -29.3777 O   0  0  0  0  0  0  0  0  0  0  0  0
  -12.3686    4.2606  -30.9648 O   0  0  0  0  0  0  0  0  0  0  0  0
  -14.1226   -0.2897  -31.5511 S   0  0  0  0  0  4  0  0  0  0  0  0
  -13.6104    1.0114  -30.9537 N   0  0  0  0  0  0  0  0  0  0  0  0
   -8.4501    6.3546  -27.6821 C   0  0  0  0  0  0  0  0  0  0  0  0
  -11.5733    2.2649  -29.9488 O   0  0  0  0  0  0  0  0  0  0  0  0
   -8.5819    5.4489  -28.8433 C   0  0  0  0  0  0  0  0  0  0  0  0
  -10.6199    5.2438  -26.8667 N   0  0  0  0  0  0  0  0  0  0  0  0
   -7.1159    3.3915  -31.0541 C   0  0  0  0  0  0  0  0  0  0  0  0
   -9.4842    2.9113  -31.6536 C   0  0  0  0  0  0  0  0  0  0  0  0
  -10.8280    2.8752  -32.1791 N   0  0  0  0  0  0  0  0  0  0  0  0
  -10.4295    4.1043  -27.7193 C   0  0  0  0  0  0  0  0  0  0  0  0
  -12.9947   -1.2341  -31.4807 O   0  0  0  0  0  0  0  0  0  0  0  0
   -9.1723    4.1512  -28.4182 C   0  0  0  0  0  0  0  0  0  0  0  0
   -7.7845    7.4537  -27.7757 O   0  0  0  0  0  0  0  0  0  0  0  0
   -8.6504    1.8387  -32.3276 C   0  0  0  0  0  0  0  0  0  0  0  0
   -9.5120    6.1359  -26.6651 C   0  0  0  0  0  0  0  0  0  0  0  0
   -7.1442    2.5541  -32.4348 P   0  0  0  0  0  0  0  0  0  0  0  0
   -7.2382    3.4579  -33.5836 O   0  0  0  0  0  0  0  0  0  0  0  0
   -8.3712    5.2580  -30.2860 O   0  0  0  0  0  0  0  0  0  0  0  0
   -5.9565    1.7428  -32.4571 O   0  0  0  0  0  0  0  0  0  0  0  0
   -6.2066    3.8589  -30.2093 O   0  0  0  0  0  0  0  0  0  0  0  0
  -14.5005   -0.1126  -32.9229 O   0  0  0  0  0  0  0  0  0  0  0  0
  -11.9551    2.9095  -31.1067 C   0  0  0  0  0  0  0  0  0  0  0  0
  -13.1675    2.0598  -31.8571 C   0  0  0  0  0  0  0  0  0  0  0  0
   -8.5895    3.8074  -30.7051 C   0  0  0  0  0  0  0  0  0  0  0  0
  1 19  1  0
  2  5  1  0
  3 16  1  0
  3 28  1  0
  4 26  1  0
  5  6  1  0
  5 15  1  0
  5 25  1  0
  6 27  1  0
  7  9  1  0
  7 17  1  0
  7 19  1  0
  8 26  1  0
  9 16  1  0
  9 22  1  0
 10 14  1  0
 10 19  1  0
 11 20  1  0
 11 24  1  0
 11 28  1  0
 12 13  1  0
 12 18  1  0
 12 28  1  0
 13 26  1  0
 14 16  1  0
 20 21  1  0
 20 23  1  0
 22 28  1  0
 26 27  1  0
M  END
>  <ID>  (1) 
conformer_0

$$$$
