
     RDKit          3D

 15 15  0  0  0  0  0  0  0  0999 V2000
   -9.9783    4.1966  -27.9052 C   0  0  0  0  0  0  0  0  0  0  0  0
   -7.7396    4.4655  -28.9918 C   0  0  0  0  0  0  0  0  0  0  0  0
  -10.6510    3.2348  -28.7559 O   0  0  0  0  0  0  0  0  0  0  0  0
   -7.2576    2.2333  -32.1191 P   0  0  0  0  0  4  0  0  0  0  0  0
   -8.3399    1.2171  -32.3373 O   0  0  0  0  0  1  0  0  0  0  0  0
   -7.4258    3.3705  -33.1661 O   0  0  0  0  0  0  0  0  0  0  0  0
   -7.7668    3.8440  -30.3331 C   0  0  0  0  0  0  0  0  0  0  0  0
   -5.8199    1.7042  -32.3730 O   0  0  0  0  0  0  0  0  0  0  0  0
   -9.7348    5.2268  -30.1950 C   0  0  0  0  0  0  0  0  0  0  0  0
   -9.2428    3.8834  -30.8408 C   0  0  0  0  0  0  0  0  0  0  0  0
   -7.9659    7.2562  -28.1718 O   0  0  0  0  0  0  0  0  0  0  0  0
   -8.7020    6.2297  -27.5549 C   0  0  0  0  0  0  0  0  0  0  0  0
   -9.1151    5.1968  -28.7238 C   0  0  0  0  0  0  0  0  0  0  0  0
   -8.8333    6.2099  -30.9484 O   0  0  0  0  0  0  0  0  0  0  0  0
   -7.1976    2.5694  -30.5676 O   0  0  0  0  0  0  0  0  0  0  0  0
  1  3  1  0
  1 13  1  0
  2  7  1  0
  2 13  1  0
  4  5  2  0
  4  6  1  0
  4  8  1  0
  4 15  1  0
  7 10  1  0
  7 15  1  0
  9 10  1  0
  9 13  1  0
  9 14  1  0
 11 12  1  0
 12 13  1  0
M  END
>  <ID>  (1) 
conformer_0

$$$$
