
     RDKit          3D

 14 16  0  0  0  0  0  0  0  0999 V2000
   10.0852  -39.1968    2.1372 O   0  0  0  0  0  1  0  0  0  0  0  0
    9.0852  -39.3968    1.0372 S   0  0  0  0  0  4  0  0  0  0  0  0
    9.4852  -40.3968    0.0372 O   0  0  0  0  0  1  0  0  0  0  0  0
    8.0852  -38.4968    1.1372 N   0  0  0  0  0  0  0  0  0  0  0  0
    6.6852  -38.2968    1.1372 C   0  0  0  0  0  0  0  0  0  0  0  0
    6.0852  -36.9968    0.8372 C   0  0  0  0  0  0  0  0  0  0  0  0
    6.8852  -36.2968   -0.1628 C   0  0  0  0  0  0  0  0  0  0  0  0
    8.0852  -35.6968    0.4372 C   0  0  0  0  0  0  0  0  0  0  0  0
    8.5852  -36.8968    1.1372 C   0  0  0  0  0  0  0  0  0  0  0  0
    8.9852  -37.7968    0.0372 C   0  0  0  0  0  0  0  0  0  0  0  0
    6.8852  -36.8968   -1.4628 O   0  0  0  0  0  0  0  0  0  0  0  0
    6.1852  -38.1968   -1.3628 C   0  0  0  0  0  0  0  0  0  0  0  0
    4.9852  -38.5968   -0.6628 C   0  0  0  0  0  0  0  0  0  0  0  0
    4.6852  -37.4968    0.2372 O   0  0  0  0  0  0  0  0  0  0  0  0
  2  1  1  0
  3  2  1  0
  4  2  1  0
  5  4  1  0
  6  5  1  0
  7  6  1  0
  8  7  1  0
  9  4  1  0
  9  8  1  0
 10  2  1  0
 10  9  1  0
 11  7  1  0
 12 11  1  0
 13 12  1  0
 14  6  1  0
 14 13  1  0
M  END
>  <ID>  (1) 
conformer_0

$$$$
