
     RDKit          3D

 21 25  0  0  0  0  0  0  0  0999 V2000
   10.0852  -39.1968    2.1372 O   0  0  0  0  0  1  0  0  0  0  0  0
    9.0852  -39.3968    1.0372 S   0  0  0  0  0  4  0  0  0  0  0  0
    9.5852  -40.1968   -0.0628 O   0  0  0  0  0  1  0  0  0  0  0  0
    8.0852  -38.4968    1.0372 N   0  0  0  0  0  0  0  0  0  0  0  0
    7.6852  -37.1968    1.2372 C   0  0  0  0  0  0  0  0  0  0  0  0
    7.7852  -36.1968    0.1372 C   0  0  0  0  0  0  0  0  0  0  0  0
    7.0852  -36.6968   -0.9628 C   0  0  0  0  0  0  0  0  0  0  0  0
    6.6852  -38.1968    1.0372 C   0  0  0  0  0  0  0  0  0  0  0  0
    6.3852  -37.7968   -1.2628 C   0  0  0  0  0  0  0  0  0  0  0  0
    5.6852  -38.2968    0.0372 C   0  0  0  0  0  0  0  0  0  0  0  0
    8.2852  -40.4968    1.6372 N   0  0  0  0  0  0  0  0  0  0  0  0
    8.3852  -41.4968    2.5372 C   0  0  0  0  0  0  0  0  0  0  0  0
    8.3852  -41.8968    3.7372 C   0  0  0  0  0  0  0  0  0  0  0  0
    7.4852  -42.1968    4.7372 C   0  0  0  0  0  0  0  0  0  0  0  0
    6.3852  -41.2968    4.7372 C   0  0  0  0  0  0  0  0  0  0  0  0
    7.0852  -40.6968    2.3372 C   0  0  0  0  0  0  0  0  0  0  0  0
    6.1852  -40.7968    3.3372 C   0  0  0  0  0  0  0  0  0  0  0  0
    5.5852  -40.8968    5.7372 C   0  0  0  0  0  0  0  0  0  0  0  0
    5.1852  -40.3968    6.7372 N   0  0  0  0  0  0  0  0  0  0  0  0
    7.5852  -38.0968   -1.3628 O   0  0  0  0  0  0  0  0  0  0  0  0
    7.7852  -36.3968    2.4372 C   0  0  0  0  0  0  0  0  0  0  0  0
  2  1  1  0
  3  2  1  0
  4  2  1  0
  5  4  1  0
  6  5  1  0
  7  6  1  0
  8  4  1  0
  8  5  1  0
  9  7  1  0
 10  8  1  0
 10  9  1  0
 11  2  1  0
 12 11  1  0
 13 12  2  0
 14 13  1  0
 15 14  2  0
 16 11  1  0
 16 12  1  0
 17 15  1  0
 17 16  2  0
 18 15  1  0
 19 18  3  0
 20  7  1  0
 20  9  1  0
 21  5  1  0
M  END
>  <ID>  (1) 
conformer_0

$$$$
