
     RDKit          3D

 14 15  0  0  0  0  0  0  0  0999 V2000
   10.0852  -39.1968    2.1372 O   0  0  0  0  0  0  0  0  0  0  0  0
    9.0852  -39.0968    1.0372 S   0  0  0  0  0  3  0  0  0  0  0  0
    8.1852  -37.8968    1.0372 N   0  0  0  0  0  0  0  0  0  0  0  0
    7.7852  -37.0968   -0.0628 C   0  0  0  0  0  0  0  0  0  0  0  0
    9.3852  -40.1968    0.2372 O   0  0  0  0  0  1  0  0  0  0  0  0
    6.4852  -36.3968   -0.0628 C   0  0  0  0  0  0  0  0  0  0  0  0
    5.5852  -36.8968    0.9372 C   0  0  0  0  0  0  0  0  0  0  0  0
    7.3852  -38.4968    0.2372 C   0  0  0  0  0  0  0  0  0  0  0  0
    5.9852  -36.5968    2.3372 C   0  0  0  0  0  0  0  0  0  0  0  0
    5.7852  -37.9968    1.8372 O   0  0  0  0  0  0  0  0  0  0  0  0
    5.0852  -36.1968    3.3372 C   0  0  0  0  0  0  0  0  0  0  0  0
    3.6852  -36.4968    3.5372 O   0  0  0  0  0  0  0  0  0  0  0  0
    3.1852  -36.3968    4.8372 C   0  0  0  0  0  0  0  0  0  0  0  0
    1.8852  -35.7968    5.1372 C   0  0  0  0  0  0  0  0  0  0  0  0
  2  1  1  0
  3  2  1  0
  4  3  1  0
  5  2  2  0
  6  4  1  0
  7  6  1  0
  8  3  1  0
  8  4  1  0
  9  7  1  0
 10  7  1  0
 10  9  1  0
 11  9  1  0
 12 11  1  0
 13 12  1  0
 14 13  1  0
M  END
>  <ID>  (1) 
conformer_0

$$$$
