
     RDKit          3D

 21 23  0  0  0  0  0  0  0  0999 V2000
   10.0852  -39.1968    2.1372 O   0  0  0  0  0  1  0  0  0  0  0  0
    9.0852  -39.3968    1.0372 S   0  0  0  0  0  4  0  0  0  0  0  0
    9.5852  -40.1968   -0.0628 O   0  0  0  0  0  1  0  0  0  0  0  0
    8.2852  -38.1968    0.9372 N   0  0  0  0  0  0  0  0  0  0  0  0
    6.8852  -37.9968    1.0372 C   0  0  0  0  0  0  0  0  0  0  0  0
    6.0852  -37.1968    0.1372 C   0  0  0  0  0  0  0  0  0  0  0  0
    6.8852  -36.0968   -0.4628 C   0  0  0  0  0  0  0  0  0  0  0  0
    7.9852  -35.6968    0.4372 C   0  0  0  0  0  0  0  0  0  0  0  0
    8.8852  -36.7968    0.7372 C   0  0  0  0  0  0  0  0  0  0  0  0
    8.0852  -40.2968    1.6372 N   0  0  0  0  0  0  0  0  0  0  0  0
    8.2852  -41.5968    2.1372 C   0  0  0  0  0  0  0  0  0  0  0  0
    7.7852  -42.7968    1.9372 C   0  0  0  0  0  0  0  0  0  0  0  0
    8.0852  -43.8968    2.7372 C   0  0  0  0  0  0  0  0  0  0  0  0
    8.8852  -41.5968    3.4372 C   0  0  0  0  0  0  0  0  0  0  0  0
    8.2852  -42.1968    4.5372 C   0  0  0  0  0  0  0  0  0  0  0  0
    7.5852  -43.3968    4.1372 C   0  0  0  0  0  0  0  0  0  0  0  0
    6.0852  -43.3968    4.1372 C   0  0  0  0  0  0  0  0  0  0  0  0
    6.7852  -40.4968    0.9372 C   0  0  0  0  0  0  0  0  0  0  0  0
    6.0852  -39.1968    1.3372 C   0  0  0  0  0  0  0  0  0  0  0  0
    5.6852  -42.3968    5.0372 O   0  0  0  0  0  0  0  0  0  0  0  0
    6.1852  -41.4968    5.7372 C   0  0  0  0  0  0  0  0  0  0  0  0
  2  1  1  0
  3  2  1  0
  4  2  1  0
  5  4  1  0
  6  5  1  0
  7  6  1  0
  8  7  1  0
  9  4  1  0
  9  8  1  0
 10  2  1  0
 11 10  1  0
 12 11  2  0
 13 12  1  0
 14 11  1  0
 15 14  2  0
 16 13  2  0
 16 15  1  0
 17 16  1  0
 18 10  1  0
 19  5  1  0
 19 18  1  0
 20 17  1  0
 21 20  1  0
M  END
>  <ID>  (1) 
conformer_0

$$$$
