
     RDKit          3D

 23 27  0  0  0  0  0  0  0  0999 V2000
   10.0852  -39.1968    2.1372 O   0  0  0  0  0  1  0  0  0  0  0  0
    9.0852  -39.3968    1.0372 S   0  0  0  0  0  4  0  0  0  0  0  0
    9.5852  -40.1968   -0.0628 O   0  0  0  0  0  1  0  0  0  0  0  0
    8.0852  -38.4968    1.0372 N   0  0  0  0  0  0  0  0  0  0  0  0
    7.6852  -37.1968    1.2372 C   0  0  0  0  0  0  0  0  0  0  0  0
    7.7852  -36.1968    0.1372 C   0  0  0  0  0  0  0  0  0  0  0  0
    7.0852  -36.6968   -0.9628 C   0  0  0  0  0  0  0  0  0  0  0  0
    6.6852  -38.1968    1.0372 C   0  0  0  0  0  0  0  0  0  0  0  0
    6.3852  -37.7968   -1.2628 C   0  0  0  0  0  0  0  0  0  0  0  0
    5.6852  -38.2968    0.0372 C   0  0  0  0  0  0  0  0  0  0  0  0
    8.2852  -40.4968    1.6372 N   0  0  0  0  0  0  0  0  0  0  0  0
    8.3852  -41.4968    2.5372 C   0  0  0  0  0  0  0  0  0  0  0  0
    7.7852  -42.6968    2.8372 C   0  0  0  0  0  0  0  0  0  0  0  0
    8.1852  -43.9968    2.7372 C   0  0  0  0  0  0  0  0  0  0  0  0
    6.6852  -42.5968    3.8372 C   0  0  0  0  0  0  0  0  0  0  0  0
    6.9852  -41.6968    4.9372 C   0  0  0  0  0  0  0  0  0  0  0  0
    7.2852  -40.4968    2.6372 C   0  0  0  0  0  0  0  0  0  0  0  0
    5.7852  -43.6968    3.8372 C   0  0  0  0  0  0  0  0  0  0  0  0
    7.2852  -44.9968    2.3372 C   0  0  0  0  0  0  0  0  0  0  0  0
    5.8852  -44.5968    2.6372 C   0  0  0  0  0  0  0  0  0  0  0  0
    5.7852  -40.8968    5.3372 C   0  0  0  0  0  0  0  0  0  0  0  0
    5.3852  -40.1968    4.1372 C   0  0  0  0  0  0  0  0  0  0  0  0
    6.0852  -40.3968    3.0372 C   0  0  0  0  0  0  0  0  0  0  0  0
  2  1  1  0
  3  2  1  0
  4  2  1  0
  5  4  1  0
  6  5  1  0
  7  6  1  0
  8  4  1  0
  8  5  1  0
  9  7  1  0
 10  8  1  0
 10  9  1  0
 11  2  1  0
 12 11  1  0
 13 12  1  0
 14 13  2  0
 15 13  1  0
 16 15  1  0
 17 11  1  0
 17 12  1  0
 18 15  2  0
 19 14  1  0
 20 18  1  0
 20 19  2  0
 21 16  1  0
 22 21  2  0
 23 17  1  0
 23 22  1  0
M  END
>  <ID>  (1) 
conformer_0

$$$$
