
     RDKit          3D

 11 12  0  0  0  0  0  0  0  0999 V2000
   10.0852  -39.1968    2.1372 O   0  0  0  0  0  0  0  0  0  0  0  0
    9.0852  -39.3968    1.0372 S   0  0  0  0  0  3  0  0  0  0  0  0
    9.4852  -40.3968    0.0372 O   0  0  0  0  0  1  0  0  0  0  0  0
    8.0852  -38.4968    1.1372 N   0  0  0  0  0  0  0  0  0  0  0  0
    6.6852  -38.2968    1.1372 C   0  0  0  0  0  0  0  0  0  0  0  0
    5.9852  -37.5968    0.0372 C   0  0  0  0  0  0  0  0  0  0  0  0
    6.5852  -37.6968   -1.2628 C   0  0  0  0  0  0  0  0  0  0  0  0
    7.1852  -39.4968    0.5372 C   0  0  0  0  0  0  0  0  0  0  0  0
    4.9852  -36.6968    0.3372 O   0  0  0  0  0  0  0  0  0  0  0  0
    3.6852  -36.7968    0.8372 C   0  0  0  0  0  0  0  0  0  0  0  0
    5.4852  -38.5968   -1.0628 C   0  0  0  0  0  0  0  0  0  0  0  0
  2  1  1  0
  3  2  2  0
  4  2  1  0
  5  4  1  0
  6  5  1  0
  7  6  1  0
  8  4  1  0
  8  5  1  0
  9  6  1  0
 10  9  1  0
 11  6  1  0
 11  7  1  0
M  END
>  <ID>  (1) 
conformer_0

$$$$
