
     RDKit          3D

 15 17  0  0  0  0  0  0  0  0999 V2000
   10.0852  -39.1968    2.1372 O   0  0  0  0  0  0  0  0  0  0  0  0
    9.0852  -39.3968    1.0372 S   0  0  0  0  0  4  0  0  0  0  0  0
    9.4852  -40.3968    0.0372 O   0  0  0  0  0  0  0  0  0  0  0  0
    8.0852  -38.4968    1.1372 N   0  0  0  0  0  0  0  0  0  0  0  0
    6.8852  -37.8968    0.8372 C   0  0  0  0  0  0  0  0  0  0  0  0
    6.3852  -37.3968   -0.4628 C   0  0  0  0  0  0  0  0  0  0  0  0
    7.0852  -36.0968   -0.6628 C   0  0  0  0  0  0  0  0  0  0  0  0
    7.9852  -35.6968    0.4372 C   0  0  0  0  0  0  0  0  0  0  0  0
    8.1852  -36.9968    1.1372 C   0  0  0  0  0  0  0  0  0  0  0  0
    8.5852  -40.7968    1.0372 C   0  0  0  0  0  0  0  0  0  0  0  0
    8.5852  -41.6968    2.2372 C   0  0  0  0  0  0  0  0  0  0  0  0
    9.1852  -41.1968    3.4372 O   0  0  0  0  0  0  0  0  0  0  0  0
    8.7852  -42.0968    4.5372 C   0  0  0  0  0  0  0  0  0  0  0  0
    7.7852  -43.0968    4.0372 C   0  0  0  0  0  0  0  0  0  0  0  0
    7.4852  -42.6968    2.6372 C   0  0  0  0  0  0  0  0  0  0  0  0
  2  1  1  0
  4  2  1  0
  5  4  1  0
  6  5  1  0
  7  6  1  0
  8  7  1  0
  9  4  1  0
  9  5  1  0
  9  8  1  0
 10  2  1  0
 10  3  1  0
 11 10  1  0
 12 11  1  0
 13 12  1  0
 14 13  1  0
 15 11  1  0
 15 14  1  0
M  END
>  <ID>  (1) 
conformer_0

$$$$
