
     RDKit          3D

 11 10  0  0  0  0  0  0  0  0999 V2000
   10.0852  -39.1968    2.1372 O   0  0  0  0  0  0  0  0  0  0  0  0
    9.0852  -39.0968    1.0372 S   0  0  0  0  0  3  0  0  0  0  0  0
    8.1852  -37.8968    1.0372 N   0  0  0  0  0  0  0  0  0  0  0  0
    8.1852  -36.8968    0.0372 C   0  0  0  0  0  0  0  0  0  0  0  0
    6.7852  -36.4968   -0.2628 C   0  0  0  0  0  0  0  0  0  0  0  0
    5.9852  -36.5968    0.9372 C   0  0  0  0  0  0  0  0  0  0  0  0
    6.7852  -36.1968    2.0372 C   0  0  0  0  0  0  0  0  0  0  0  0
    9.5852  -40.0968    0.1372 O   0  0  0  0  0  1  0  0  0  0  0  0
    7.2852  -38.7968    0.9372 C   0  0  0  0  0  0  0  0  0  0  0  0
    5.8852  -36.1968    3.2372 C   0  0  0  0  0  0  0  0  0  0  0  0
    7.7852  -35.2968    1.9372 O   0  0  0  0  0  0  0  0  0  0  0  0
  2  1  1  0
  3  2  1  0
  4  3  1  0
  5  4  1  0
  6  5  1  0
  7  6  1  0
  8  2  2  0
  9  3  1  0
 10  7  1  0
 11  7  1  0
M  END
>  <ID>  (1) 
conformer_0

$$$$
