
     RDKit          3D

 18 19  0  0  0  0  0  0  0  0999 V2000
   10.0852  -39.1968    2.1372 O   0  0  0  0  0  1  0  0  0  0  0  0
    9.0852  -39.3968    1.0372 S   0  0  0  0  0  4  0  0  0  0  0  0
    9.5852  -40.1968   -0.0628 O   0  0  0  0  0  1  0  0  0  0  0  0
    8.2852  -38.1968    0.9372 N   0  0  0  0  0  0  0  0  0  0  0  0
    6.8852  -37.9968    1.0372 C   0  0  0  0  0  0  0  0  0  0  0  0
    6.0852  -37.1968    0.1372 C   0  0  0  0  0  0  0  0  0  0  0  0
    6.8852  -36.1968   -0.5628 C   0  0  0  0  0  0  0  0  0  0  0  0
    8.0852  -35.7968    0.1372 C   0  0  0  0  0  0  0  0  0  0  0  0
    8.9852  -36.7968    0.7372 C   0  0  0  0  0  0  0  0  0  0  0  0
    7.8852  -40.1968    1.4372 N   0  0  0  0  0  0  0  0  0  0  0  0
    8.2852  -41.3968    2.1372 C   0  0  0  0  0  0  0  0  0  0  0  0
    7.9852  -42.6968    2.0372 C   0  0  0  0  0  0  0  0  0  0  0  0
    8.2852  -43.7968    2.9372 C   0  0  0  0  0  0  0  0  0  0  0  0
    8.4852  -43.0968    4.2372 C   0  0  0  0  0  0  0  0  0  0  0  0
    7.4852  -41.9968    4.4372 C   0  0  0  0  0  0  0  0  0  0  0  0
    6.9852  -41.5968    5.5372 C   0  0  0  0  0  0  0  0  0  0  0  0
    6.5852  -39.5968    1.0372 C   0  0  0  0  0  0  0  0  0  0  0  0
    5.9852  -40.2968    0.2372 O   0  0  0  0  0  0  0  0  0  0  0  0
  2  1  1  0
  3  2  1  0
  4  2  1  0
  5  4  1  0
  6  5  1  0
  7  6  1  0
  8  7  1  0
  9  4  1  0
  9  8  1  0
 10  2  1  0
 11 10  1  0
 12 11  2  3
 13 12  1  0
 14 13  1  0
 15 14  1  0
 16 15  2  0
 17  5  1  0
 17 10  1  0
 18 17  2  0
M  END
>  <ID>  (1) 
conformer_0

$$$$
