
     RDKit          3D

 10 11  0  0  0  0  0  0  0  0999 V2000
   10.0852  -39.1968    2.1372 O   0  0  0  0  0  1  0  0  0  0  0  0
    9.0852  -39.3968    1.0372 S   0  0  0  0  0  4  0  0  0  0  0  0
    8.0852  -38.3968    0.9372 N   0  0  0  0  0  4  0  0  0  0  0  0
    6.7852  -38.1968    0.4372 C   0  0  0  0  0  0  0  0  0  0  0  0
    9.6852  -40.1968   -0.0628 O   0  0  0  0  0  1  0  0  0  0  0  0
    9.0852  -37.6968    0.1372 C   0  0  0  0  0  0  0  0  0  0  0  0
    6.5852  -37.0968   -0.5628 C   0  0  0  0  0  0  0  0  0  0  0  0
    7.3852  -35.8968   -0.2628 C   0  0  0  0  0  0  0  0  0  0  0  0
    8.6852  -36.2968    0.3372 C   0  0  0  0  0  0  0  0  0  0  0  0
    7.1852  -37.5968    1.6372 C   0  0  0  0  0  0  0  0  0  0  0  0
  2  1  1  0
  4  3  1  0
  5  2  1  0
  6  2  1  0
  6  3  1  0
  7  4  1  0
  8  7  1  0
  9  6  1  0
  9  8  1  0
 10  3  1  0
 10  4  1  0
M  END
>  <ID>  (1) 
conformer_0

$$$$
