
     RDKit          3D

 19 21  0  0  0  0  0  0  0  0999 V2000
   10.0852  -39.1968    2.1372 O   0  0  0  0  0  1  0  0  0  0  0  0
    9.0852  -39.3968    1.0372 S   0  0  0  0  0  4  0  0  0  0  0  0
    9.5852  -40.1968   -0.0628 O   0  0  0  0  0  1  0  0  0  0  0  0
    8.2852  -38.1968    0.9372 N   0  0  0  0  0  0  0  0  0  0  0  0
    6.8852  -37.9968    1.0372 C   0  0  0  0  0  0  0  0  0  0  0  0
    6.0852  -37.1968    0.1372 C   0  0  0  0  0  0  0  0  0  0  0  0
    6.7852  -35.9968   -0.3628 C   0  0  0  0  0  0  0  0  0  0  0  0
    7.9852  -35.7968    0.4372 C   0  0  0  0  0  0  0  0  0  0  0  0
    8.7852  -36.9968    0.1372 C   0  0  0  0  0  0  0  0  0  0  0  0
    7.9852  -40.1968    1.6372 N   0  0  0  0  0  0  0  0  0  0  0  0
    8.1852  -41.3968    2.3372 C   0  0  0  0  0  0  0  0  0  0  0  0
    7.7852  -41.7968    3.5372 C   0  0  0  0  0  0  0  0  0  0  0  0
    8.1852  -43.0968    4.0372 C   0  0  0  0  0  0  0  0  0  0  0  0
    8.3852  -43.8968    2.8372 C   0  0  0  0  0  0  0  0  0  0  0  0
    7.4852  -43.6968    1.7372 C   0  0  0  0  0  0  0  0  0  0  0  0
    6.9852  -44.6968    0.9372 O   0  0  0  0  0  0  0  0  0  0  0  0
    7.3852  -45.9968    1.5372 C   0  0  0  0  0  0  0  0  0  0  0  0
    7.1852  -42.2968    1.4372 C   0  0  0  0  0  0  0  0  0  0  0  0
    6.6852  -39.5968    1.2372 C   0  0  0  0  0  0  0  0  0  0  0  0
  2  1  1  0
  3  2  1  0
  4  2  1  0
  5  4  1  0
  6  5  1  0
  7  6  1  0
  8  7  1  0
  9  4  1  0
  9  8  1  0
 10  2  1  0
 11 10  1  0
 12 11  2  0
 13 12  1  0
 14 13  2  0
 15 14  1  0
 16 15  1  0
 17 16  1  0
 18 11  1  0
 18 15  2  0
 19  5  1  0
 19 10  1  0
M  END
>  <ID>  (1) 
conformer_0

$$$$
