
     RDKit          3D

 13 13  0  0  0  0  0  0  0  0999 V2000
   10.0852  -39.1968    2.1372 O   0  0  0  0  0  1  0  0  0  0  0  0
    9.0852  -39.0968    1.0372 S   0  0  0  0  0  4  0  0  0  0  0  0
    8.0852  -37.9968    0.9372 N   0  0  0  0  0  0  0  0  0  0  0  0
    7.5852  -37.3968   -0.2628 C   0  0  0  0  0  0  0  0  0  0  0  0
    7.3852  -35.9968   -0.3628 C   0  0  0  0  0  0  0  0  0  0  0  0
    9.2852  -40.1968    0.2372 O   0  0  0  0  0  1  0  0  0  0  0  0
    8.2852  -35.3968    0.6372 C   0  0  0  0  0  0  0  0  0  0  0  0
    8.9852  -37.6968   -0.2628 C   0  0  0  0  0  0  0  0  0  0  0  0
    7.6852  -35.4968    1.9372 O   0  0  0  0  0  0  0  0  0  0  0  0
    6.6852  -36.2968    2.2372 C   0  0  0  0  0  0  0  0  0  0  0  0
    5.7852  -36.2968    3.3372 C   0  0  0  0  0  0  0  0  0  0  0  0
    4.4852  -35.8968    2.9372 O   0  0  0  0  0  0  0  0  0  0  0  0
    3.5852  -36.8968    2.6372 C   0  0  0  0  0  0  0  0  0  0  0  0
  2  1  1  0
  4  3  1  0
  5  4  1  0
  6  2  1  0
  7  5  1  0
  8  2  1  0
  8  3  1  0
  8  4  1  0
  9  7  1  0
 10  9  1  0
 11 10  1  0
 12 11  1  0
 13 12  1  0
M  END
>  <ID>  (1) 
conformer_0

$$$$
