
     RDKit          3D

  7  8  0  0  0  0  0  0  0  0999 V2000
    8.0368  -37.8072    0.3661 N   0  0  0  0  0  0  0  0  0  0  0  0
    7.7368  -36.7072   -0.3339 C   0  0  0  0  0  0  0  0  0  0  0  0
    7.1368  -38.7072    0.8661 C   0  0  0  0  0  0  0  0  0  0  0  0
    6.9368  -37.1072   -1.5339 C   0  0  0  0  0  0  0  0  0  0  0  0
    6.0368  -38.2072   -1.2339 C   0  0  0  0  0  0  0  0  0  0  0  0
    8.0368  -39.1072   -0.2339 C   0  0  0  0  0  0  0  0  0  0  0  0
    5.7368  -38.4072    0.1661 C   0  0  0  0  0  0  0  0  0  0  0  0
  2  1  1  0
  3  1  1  0
  4  2  1  0
  5  4  1  0
  6  1  1  0
  6  3  1  0
  7  3  1  0
  7  5  1  0
M  END
>  <ID>  (1) 
conformer_0

$$$$
