
     RDKit          3D

 25 28  0  0  0  0  0  0  0  0999 V2000
   10.0852  -39.1968    2.1372 O   0  0  0  0  0  1  0  0  0  0  0  0
    9.0852  -39.3968    1.0372 S   0  0  0  0  0  4  0  0  0  0  0  0
    9.5852  -40.1968   -0.0628 O   0  0  0  0  0  1  0  0  0  0  0  0
    8.2852  -38.1968    0.9372 N   0  0  0  0  0  0  0  0  0  0  0  0
    6.8852  -37.9968    1.0372 C   0  0  0  0  0  0  0  0  0  0  0  0
    6.0852  -37.1968    0.1372 C   0  0  0  0  0  0  0  0  0  0  0  0
    6.8852  -36.0968   -0.4628 C   0  0  0  0  0  0  0  0  0  0  0  0
    7.9852  -35.6968    0.4372 C   0  0  0  0  0  0  0  0  0  0  0  0
    8.8852  -36.7968    0.8372 C   0  0  0  0  0  0  0  0  0  0  0  0
    8.0852  -40.3968    1.5372 N   0  0  0  0  0  0  0  0  0  0  0  0
    8.2852  -41.4968    2.3372 C   0  0  0  0  0  0  0  0  0  0  0  0
    7.9852  -42.7968    2.0372 C   0  0  0  0  0  0  0  0  0  0  0  0
    7.9852  -43.9968    2.5372 C   0  0  0  0  0  0  0  0  0  0  0  0
    8.9852  -41.4968    3.5372 C   0  0  0  0  0  0  0  0  0  0  0  0
    8.7852  -42.5968    4.3372 C   0  0  0  0  0  0  0  0  0  0  0  0
    7.3852  -42.8968    4.7372 C   0  0  0  0  0  0  0  0  0  0  0  0
    6.8852  -41.6968    5.4372 C   0  0  0  0  0  0  0  0  0  0  0  0
    6.0852  -38.8968    1.8372 C   0  0  0  0  0  0  0  0  0  0  0  0
    4.9852  -38.6968    2.7372 C   0  0  0  0  0  0  0  0  0  0  0  0
    8.2852  -45.0968    1.7372 O   0  0  0  0  0  0  0  0  0  0  0  0
    4.6852  -38.7968    1.3372 O   0  0  0  0  0  0  0  0  0  0  0  0
    4.9852  -38.7968    4.1372 C   0  0  0  0  0  0  0  0  0  0  0  0
    6.6852  -40.1968    1.2372 C   0  0  0  0  0  0  0  0  0  0  0  0
    6.2852  -43.6968    4.3372 C   0  0  0  0  0  0  0  0  0  0  0  0
    7.0852  -44.9968    2.2372 C   0  0  0  0  0  0  0  0  0  0  0  0
  2  1  1  0
  3  2  1  0
  4  2  1  0
  5  4  1  0
  6  5  1  0
  7  6  1  0
  8  7  1  0
  9  4  1  0
  9  8  1  0
 10  2  1  0
 11 10  1  0
 12 11  2  3
 13 12  1  0
 14 11  1  0
 15 14  1  0
 16 15  1  0
 17 16  1  0
 18  5  1  0
 19 18  1  0
 20 13  1  0
 21 18  1  0
 21 19  1  0
 22 19  1  0
 23 10  1  0
 23 18  1  0
 24 16  1  0
 25 13  1  0
 25 20  1  0
M  END
>  <ID>  (1) 
conformer_0

$$$$
