
     RDKit          3D

 12 12  0  0  0  0  0  0  0  0999 V2000
   10.0852  -39.1968    2.1372 O   0  0  0  0  0  1  0  0  0  0  0  0
    9.0852  -39.3968    1.0372 S   0  0  0  0  0  4  0  0  0  0  0  0
    9.5852  -40.1968   -0.0628 O   0  0  0  0  0  1  0  0  0  0  0  0
    8.2852  -38.1968    0.9372 N   0  0  0  0  0  0  0  0  0  0  0  0
    6.8852  -37.9968    1.0372 C   0  0  0  0  0  0  0  0  0  0  0  0
    5.7852  -37.7968    0.0372 C   0  0  0  0  0  0  0  0  0  0  0  0
    6.2852  -37.7968   -1.3628 C   0  0  0  0  0  0  0  0  0  0  0  0
    7.5852  -37.2968   -1.3628 C   0  0  0  0  0  0  0  0  0  0  0  0
    7.3852  -39.1968    0.3372 C   0  0  0  0  0  0  0  0  0  0  0  0
    7.6852  -36.1968   -0.4628 C   0  0  0  0  0  0  0  0  0  0  0  0
    7.7852  -35.5968    0.8372 C   0  0  0  0  0  0  0  0  0  0  0  0
    7.2852  -35.3968    2.1372 O   0  0  0  0  0  0  0  0  0  0  0  0
  2  1  1  0
  3  2  1  0
  5  4  1  0
  6  5  1  0
  7  6  1  0
  8  7  1  0
  9  2  1  0
  9  4  1  0
  9  5  1  0
 10  8  1  0
 11 10  1  0
 12 11  1  0
M  END
>  <ID>  (1) 
conformer_0

$$$$
