
     RDKit          3D

 15 17  0  0  0  0  0  0  0  0999 V2000
    7.9140  -37.8237    1.1628 N   0  0  0  0  0  0  0  0  0  0  0  0
    6.6140  -38.5237    1.1628 C   0  0  0  0  0  0  0  0  0  0  0  0
    8.4140  -37.1236    0.0628 C   0  0  0  0  0  0  0  0  0  0  0  0
    7.4140  -37.0237   -1.0372 C   0  0  0  0  0  0  0  0  0  0  0  0
    5.6140  -38.0237    0.2628 C   0  0  0  0  0  0  0  0  0  0  0  0
    6.1140  -37.8237   -1.1372 C   0  0  0  0  0  0  0  0  0  0  0  0
    7.7140  -39.0237    0.5628 C   0  0  0  0  0  0  0  0  0  0  0  0
    8.5140  -40.1236    1.1628 C   0  0  0  0  0  0  0  0  0  0  0  0
    9.3140  -40.6236    0.2628 O   0  0  0  0  0  0  0  0  0  0  0  0
    8.3140  -40.7236    2.3628 N   0  0  0  0  0  0  0  0  0  0  0  0
    8.2140  -42.1236    2.4628 C   0  0  0  0  0  0  0  0  0  0  0  0
    8.6140  -42.7236    3.7628 C   0  0  0  0  0  0  0  0  0  0  0  0
    7.7140  -42.3236    4.8628 C   0  0  0  0  0  0  0  0  0  0  0  0
    6.3140  -42.8236    4.7628 C   0  0  0  0  0  0  0  0  0  0  0  0
    6.5140  -41.5236    4.1628 C   0  0  0  0  0  0  0  0  0  0  0  0
  2  1  1  0
  3  1  1  0
  4  3  1  0
  5  2  1  0
  6  4  1  0
  6  5  1  0
  7  1  1  0
  7  2  1  0
  8  7  1  0
  9  8  2  0
 10  8  1  0
 11 10  1  0
 12 11  1  0
 13 12  1  0
 14 13  1  0
 15 13  1  0
 15 14  1  0
M  END
>  <ID>  (1) 
conformer_0

$$$$
