
     RDKit          3D

  8  9  0  0  0  0  0  0  0  0999 V2000
    5.4963  -38.5120   -1.5524 C   0  0  0  0  0  0  0  0  0  0  0  0
    6.6963  -37.7120   -1.1524 C   0  0  0  0  0  0  0  0  0  0  0  0
    7.6963  -38.5120   -0.4524 C   0  0  0  0  0  0  0  0  0  0  0  0
    7.6963  -38.0120    0.9476 N   0  0  0  0  0  0  0  0  0  0  0  0
    7.3963  -36.7120    1.2476 C   0  0  0  0  0  0  0  0  0  0  0  0
    6.2963  -37.7120    1.2476 C   0  0  0  0  0  0  0  0  0  0  0  0
    7.3963  -35.7120    0.2476 C   0  0  0  0  0  0  0  0  0  0  0  0
    6.7963  -36.4120   -0.9524 C   0  0  0  0  0  0  0  0  0  0  0  0
  2  1  1  0
  3  2  1  0
  4  3  1  0
  5  4  1  0
  6  4  1  0
  6  5  1  0
  7  5  1  0
  8  2  1  0
  8  7  1  0
M  END
>  <ID>  (1) 
conformer_0

$$$$
