
     RDKit          3D

 16 18  0  0  0  0  0  0  0  0999 V2000
   10.0852  -39.1968    2.1372 O   0  0  0  0  0  1  0  0  0  0  0  0
    9.0852  -39.3968    1.0372 S   0  0  0  0  0  4  0  0  0  0  0  0
    9.5852  -40.1968   -0.0628 O   0  0  0  0  0  1  0  0  0  0  0  0
    8.2852  -38.1968    0.9372 N   0  0  0  0  0  0  0  0  0  0  0  0
    6.8852  -37.9968    1.0372 C   0  0  0  0  0  0  0  0  0  0  0  0
    6.0852  -37.1968    0.1372 C   0  0  0  0  0  0  0  0  0  0  0  0
    6.8852  -36.0968   -0.4628 C   0  0  0  0  0  0  0  0  0  0  0  0
    7.9852  -35.6968    0.4372 C   0  0  0  0  0  0  0  0  0  0  0  0
    8.8852  -36.7968    0.7372 C   0  0  0  0  0  0  0  0  0  0  0  0
    8.0852  -40.2968    1.6372 N   0  0  0  0  0  0  0  0  0  0  0  0
    8.3852  -41.3968    2.3372 C   0  0  0  0  0  0  0  0  0  0  0  0
    8.2852  -41.7968    3.6372 C   0  0  0  0  0  0  0  0  0  0  0  0
    8.1852  -43.1968    3.8372 C   0  0  0  0  0  0  0  0  0  0  0  0
    8.2852  -43.8968    2.6372 C   0  0  0  0  0  0  0  0  0  0  0  0
    7.8852  -41.7968    1.3372 C   0  0  0  0  0  0  0  0  0  0  0  0
    7.3852  -43.2968    1.6372 C   0  0  0  0  0  0  0  0  0  0  0  0
  2  1  1  0
  3  2  1  0
  4  2  1  0
  5  4  1  0
  6  5  1  0
  7  6  1  0
  8  7  1  0
  9  4  1  0
  9  8  1  0
 10  2  1  0
 11 10  1  0
 12 11  2  0
 13 12  1  0
 14 13  2  0
 15 10  1  0
 15 11  1  0
 16 14  1  0
 16 15  2  0
M  END
>  <ID>  (1) 
conformer_0

$$$$
