
     RDKit          3D

 23 26  0  0  0  0  0  0  0  0999 V2000
   10.0852  -39.1968    2.1372 O   0  0  0  0  0  1  0  0  0  0  0  0
    9.0852  -39.3968    1.0372 S   0  0  0  0  0  4  0  0  0  0  0  0
    9.5852  -40.1968   -0.0628 O   0  0  0  0  0  1  0  0  0  0  0  0
    8.2852  -38.1968    0.9372 N   0  0  0  0  0  0  0  0  0  0  0  0
    6.8852  -37.9968    1.0372 C   0  0  0  0  0  0  0  0  0  0  0  0
    6.0852  -37.1968    0.1372 C   0  0  0  0  0  0  0  0  0  0  0  0
    6.8852  -36.0968   -0.4628 C   0  0  0  0  0  0  0  0  0  0  0  0
    7.9852  -35.6968    0.4372 C   0  0  0  0  0  0  0  0  0  0  0  0
    8.8852  -36.7968    0.8372 C   0  0  0  0  0  0  0  0  0  0  0  0
    8.0852  -40.3968    1.5372 N   0  0  0  0  0  0  0  0  0  0  0  0
    8.2852  -41.3968    2.5372 C   0  0  0  0  0  0  0  0  0  0  0  0
    8.0852  -42.6968    2.1372 C   0  0  0  0  0  0  0  0  0  0  0  0
    8.0852  -43.8968    2.8372 C   0  0  0  0  0  0  0  0  0  0  0  0
    6.7852  -40.5968    0.9372 C   0  0  0  0  0  0  0  0  0  0  0  0
    6.5852  -40.3968   -0.3628 O   0  0  0  0  0  0  0  0  0  0  0  0
    9.2852  -41.2968    3.5372 C   0  0  0  0  0  0  0  0  0  0  0  0
    8.8852  -42.1968    4.6372 C   0  0  0  0  0  0  0  0  0  0  0  0
    7.5852  -42.5968    4.8372 C   0  0  0  0  0  0  0  0  0  0  0  0
    6.4852  -41.7968    4.4372 C   0  0  0  0  0  0  0  0  0  0  0  0
    5.1852  -42.1968    4.5372 C   0  0  0  0  0  0  0  0  0  0  0  0
    6.1852  -39.1968    1.5372 C   0  0  0  0  0  0  0  0  0  0  0  0
    7.0852  -43.7968    3.9372 C   0  0  0  0  0  0  0  0  0  0  0  0
    5.5852  -41.1968    5.4372 N   0  0  0  0  0  0  0  0  0  0  0  0
  2  1  1  0
  3  2  1  0
  4  2  1  0
  5  4  1  0
  6  5  1  0
  7  6  1  0
  8  7  1  0
  9  4  1  0
  9  8  1  0
 10  2  1  0
 11 10  1  0
 12 11  2  0
 13 12  1  0
 14 10  1  0
 15 14  1  0
 16 11  1  0
 17 16  1  0
 18 17  2  0
 19 18  1  0
 20 19  1  0
 21  5  1  0
 21 14  1  0
 22 13  2  0
 22 18  1  0
 23 19  1  0
 23 20  1  0
M  END
>  <ID>  (1) 
conformer_0

$$$$
