
     RDKit          3D

 11 12  0  0  0  0  0  0  0  0999 V2000
    9.8859  -40.1481   -0.1305 O   0  0  0  0  0  1  0  0  0  0  0  0
    9.0859  -39.5481    0.9695 S   0  0  0  0  0  4  0  0  0  0  0  0
    9.9859  -39.1481    2.0695 O   0  0  0  0  0  1  0  0  0  0  0  0
    8.0859  -38.4481    0.9695 N   0  0  0  0  0  0  0  0  0  0  0  0
    6.6859  -38.4481    0.9695 C   0  0  0  0  0  0  0  0  0  0  0  0
    5.8859  -37.7481   -0.0305 C   0  0  0  0  0  0  0  0  0  0  0  0
    6.5859  -37.7481   -1.3305 C   0  0  0  0  0  0  0  0  0  0  0  0
    7.3859  -39.5481    0.2695 C   0  0  0  0  0  0  0  0  0  0  0  0
    5.1859  -36.5481    0.2695 O   0  0  0  0  0  0  0  0  0  0  0  0
    4.0859  -36.6481    1.1695 C   0  0  0  0  0  0  0  0  0  0  0  0
    5.3859  -38.5481   -1.2305 C   0  0  0  0  0  0  0  0  0  0  0  0
  2  1  1  0
  3  2  1  0
  5  4  1  0
  6  5  1  0
  7  6  1  0
  8  2  1  0
  8  4  1  0
  8  5  1  0
  9  6  1  0
 10  9  1  0
 11  6  1  0
 11  7  1  0
M  END
>  <ID>  (1) 
conformer_0

$$$$
