
     RDKit          3D

 17 18  0  0  0  0  0  0  0  0999 V2000
   10.0852  -39.1968    2.1372 O   0  0  0  0  0  1  0  0  0  0  0  0
    9.0852  -39.3968    1.0372 S   0  0  0  0  0  4  0  0  0  0  0  0
    9.5852  -40.1968   -0.0628 O   0  0  0  0  0  1  0  0  0  0  0  0
    8.2852  -38.1968    0.9372 N   0  0  0  0  0  0  0  0  0  0  0  0
    6.8852  -37.9968    1.0372 C   0  0  0  0  0  0  0  0  0  0  0  0
    6.0852  -37.1968    0.1372 C   0  0  0  0  0  0  0  0  0  0  0  0
    6.7852  -35.9968   -0.3628 C   0  0  0  0  0  0  0  0  0  0  0  0
    7.9852  -35.7968    0.3372 C   0  0  0  0  0  0  0  0  0  0  0  0
    8.9852  -36.7968    0.6372 C   0  0  0  0  0  0  0  0  0  0  0  0
    8.0852  -40.1968    1.7372 N   0  0  0  0  0  0  0  0  0  0  0  0
    8.5852  -41.3968    2.4372 C   0  0  0  0  0  0  0  0  0  0  0  0
    8.2852  -41.8968    3.7372 C   0  0  0  0  0  0  0  0  0  0  0  0
    7.8852  -43.1968    3.9372 C   0  0  0  0  0  0  0  0  0  0  0  0
    7.6852  -43.8968    2.6372 C   0  0  0  0  0  0  0  0  0  0  0  0
    6.2852  -44.2968    2.3372 C   0  0  0  0  0  0  0  0  0  0  0  0
    7.6852  -41.5968    1.4372 C   0  0  0  0  0  0  0  0  0  0  0  0
    6.6852  -43.2968    4.7372 C   0  0  0  0  0  0  0  0  0  0  0  0
  2  1  1  0
  3  2  1  0
  4  2  1  0
  5  4  1  0
  6  5  1  0
  7  6  1  0
  8  7  1  0
  9  4  1  0
  9  8  1  0
 10  2  1  0
 11 10  1  0
 12 11  1  0
 13 12  1  0
 14 13  1  0
 15 14  1  0
 16 10  1  0
 16 11  1  0
 17 13  1  0
M  END
>  <ID>  (1) 
conformer_0

$$$$
