
     RDKit          3D

  5  5  0  0  0  0  0  0  0  0999 V2000
    1.0767  -38.8909   -0.7590 C   0  0  0  0  0  0  0  0  0  0  0  0
    2.1767  -38.2909    0.0410 C   0  0  0  0  0  0  0  0  0  0  0  0
    2.5767  -39.2909    1.0410 C   0  0  0  0  0  0  0  0  0  0  0  0
    1.8767  -40.5909    0.9410 C   0  0  0  0  0  0  0  0  0  0  0  0
    0.8767  -40.3909   -0.1590 C   0  0  0  0  0  0  0  0  0  0  0  0
  2  1  2  0
  3  2  1  0
  4  3  2  0
  5  1  1  0
  5  4  1  0
M  END
>  <ID>  (1) 
conformer_0

$$$$
