
     RDKit          3D

  5  5  0  0  0  0  0  0  0  0999 V2000
    0.7417  -39.5292   -1.3065 C   0  0  0  0  0  0  0  0  0  0  0  0
    1.8417  -40.4292   -1.7065 C   0  0  0  0  0  0  0  0  0  0  0  0
    2.1417  -40.3292   -3.1065 C   0  0  0  0  0  0  0  0  0  0  0  0
    2.5417  -41.0292   -0.6065 C   0  0  0  0  0  0  0  0  0  0  0  0
    2.9417  -39.7292   -1.0065 O   0  0  0  0  0  0  0  0  0  0  0  0
  2  1  1  0
  3  2  1  0
  4  2  1  0
  5  2  1  0
  5  4  1  0
M  END
>  <ID>  (1) 
conformer_0

$$$$
