
     RDKit          3D

 15 16  0  0  0  0  0  0  0  0999 V2000
   10.0852  -39.1968    2.1372 O   0  0  0  0  0  1  0  0  0  0  0  0
    9.0852  -39.3968    1.0372 S   0  0  0  0  0  4  0  0  0  0  0  0
    9.5852  -40.1968   -0.0628 O   0  0  0  0  0  1  0  0  0  0  0  0
    8.0852  -38.4968    1.0372 N   0  0  0  0  0  4  0  0  0  0  0  0
    7.6852  -37.1968    1.2372 C   0  0  0  0  0  0  0  0  0  0  0  0
    7.7852  -36.1968    0.1372 C   0  0  0  0  0  0  0  0  0  0  0  0
    7.0852  -36.6968   -0.9628 C   0  0  0  0  0  0  0  0  0  0  0  0
    6.6852  -38.1968    0.9372 C   0  0  0  0  0  0  0  0  0  0  0  0
    6.0852  -37.6968   -0.4628 C   0  0  0  0  0  0  0  0  0  0  0  0
    5.7852  -38.7968   -1.3628 O   0  0  0  0  0  0  0  0  0  0  0  0
    4.5852  -39.4968   -1.5628 C   0  0  0  0  0  0  0  0  0  0  0  0
    7.9852  -40.1968    1.6372 C   0  0  0  0  0  0  0  0  0  0  0  0
    8.4852  -41.3968    2.3372 C   0  0  0  0  0  0  0  0  0  0  0  0
    8.2852  -42.1968    3.5372 C   0  0  0  0  0  0  0  0  0  0  0  0
    7.6852  -43.4968    3.3372 C   0  0  0  0  0  0  0  0  0  0  0  0
  2  1  1  0
  3  2  1  0
  5  4  1  0
  6  5  1  0
  7  6  1  0
  8  4  1  0
  8  5  1  0
  9  7  1  0
  9  8  1  0
 10  9  1  0
 11 10  1  0
 12  2  1  0
 12  4  1  0
 13 12  1  0
 14 13  1  0
 15 14  1  0
M  END
>  <ID>  (1) 
conformer_0

$$$$
