
     RDKit          3D

 24 26  0  0  0  0  0  0  0  0999 V2000
  -10.9695   13.5963   17.3653 N   0  0  0  0  0  0  0  0  0  0  0  0
   -8.2019   13.9240   17.1875 C   0  0  0  0  0  0  0  0  0  0  0  0
   -6.4967    9.8907   14.6013 N   0  0  0  0  0  0  0  0  0  0  0  0
   -9.4099   11.1719   15.1347 N   0  0  0  0  0  0  0  0  0  0  0  0
   -3.5115   13.7435   17.2194 O   0  0  0  0  0  0  0  0  0  0  0  0
   -9.0360   10.0872   14.3944 C   0  0  0  0  0  0  0  0  0  0  0  0
   -3.6204   10.7695   16.1611 C   0  0  0  0  0  0  0  0  0  0  0  0
   -7.7496    9.6258   14.3141 C   0  0  0  0  0  0  0  0  0  0  0  0
   -2.7746   11.1236   17.3366 C   0  0  0  0  0  0  0  0  0  0  0  0
   -3.4466   11.3694   18.5925 O   0  0  0  0  0  0  0  0  0  0  0  0
   -8.8814   12.9196   16.4966 C   0  0  0  0  0  0  0  0  0  0  0  0
   -8.9536   14.7148   17.9949 N   0  0  0  0  0  0  0  0  0  0  0  0
   -7.0692   11.7666   15.5376 N   0  0  0  0  0  0  0  0  0  0  0  0
   -2.2432    8.8361   18.0720 O   0  0  0  0  0  0  0  0  0  0  0  0
   -6.8323   14.1895   17.1210 C   0  0  0  0  0  0  0  0  0  0  0  0
  -10.2544   12.7931   16.5599 C   0  0  0  0  0  0  0  0  0  0  0  0
   -6.0018   11.0977   15.2444 C   0  0  0  0  0  0  0  0  0  0  0  0
  -10.3122   14.5454   18.0769 C   0  0  0  0  0  0  0  0  0  0  0  0
   -1.7024   10.0201   17.5852 C   0  0  0  0  0  0  0  0  0  0  0  0
   -8.3523   11.8919   15.6715 C   0  0  0  0  0  0  0  0  0  0  0  0
  -10.6973   11.7446   15.7009 C   0  0  0  0  0  0  0  0  0  0  0  0
   -4.5803   11.7524   15.5519 C   0  0  0  0  0  0  0  0  0  0  0  0
   -3.5490    9.5783   15.6291 O   0  0  0  0  0  0  0  0  0  0  0  0
   -3.9413   13.2147   15.9167 C   0  0  0  0  0  0  0  0  0  0  0  0
  1 16  2  0
  1 18  1  0
  2 11  1  0
  2 12  1  0
  2 15  1  0
  3  8  2  0
  3 17  1  0
  4  6  1  0
  4 20  1  0
  4 21  1  0
  5 24  1  0
  6  8  1  0
  7  9  1  0
  7 22  1  0
  7 23  1  0
  9 10  1  0
  9 19  1  0
 11 16  1  0
 11 20  2  0
 12 18  2  0
 13 17  2  0
 13 20  1  0
 14 19  1  0
 16 21  1  0
 17 22  1  0
 22 24  1  0
M  END
>  <ID>  (1) 
conformer_0

$$$$
