
     RDKit          3D

 27 30  0  0  0  0  0  0  0  0999 V2000
   -7.9320    9.4230   14.3298 C   0  0  0  0  0  0  0  0  0  0  0  0
   -3.3310   12.1576   16.0990 C   0  0  0  0  0  0  0  0  0  0  0  0
  -11.0575   12.4421   16.2519 N   0  0  0  0  0  0  0  0  0  0  0  0
  -10.7414   11.4564   15.4387 C   0  0  0  0  0  0  0  0  0  0  0  0
   -9.2047    9.8846   14.4780 C   0  0  0  0  0  0  0  0  0  0  0  0
  -10.0578   13.1699   16.8004 C   0  0  0  0  0  0  0  0  0  0  0  0
   -9.7974   15.0842   18.4503 C   0  0  0  0  0  0  0  0  0  0  0  0
   -7.7811   13.6867   17.0790 N   0  0  0  0  0  0  0  0  0  0  0  0
   -7.5033   14.5947   17.9301 N   0  0  0  0  0  0  0  0  0  0  0  0
   -4.4609   11.4810   15.3811 C   0  0  0  0  0  0  0  0  0  0  0  0
   -9.4429   11.0654   15.1967 C   0  0  0  0  0  0  0  0  0  0  0  0
   -8.4291   15.2966   18.5851 C   0  0  0  0  0  0  0  0  0  0  0  0
   -8.3777   11.8000   15.7167 C   0  0  0  0  0  0  0  0  0  0  0  0
   -2.1489    8.2873   18.5649 O   0  0  0  0  0  0  0  0  0  0  0  0
   -0.9971    8.6477   18.0345 C   0  0  0  0  0  0  0  0  0  0  0  0
   -1.4280   10.6709   16.7323 C   0  0  0  0  0  0  0  0  0  0  0  0
   -5.4071   13.3416   16.4046 C   0  0  0  0  0  0  0  0  0  0  0  0
   -7.0296   11.3849   15.4383 C   0  0  0  0  0  0  0  0  0  0  0  0
   -1.5157    9.9901   15.6216 O   0  0  0  0  0  0  0  0  0  0  0  0
   -6.8560   10.1576   14.7999 C   0  0  0  0  0  0  0  0  0  0  0  0
   -8.7166   12.9004   16.5238 C   0  0  0  0  0  0  0  0  0  0  0  0
   -3.9452   13.4479   16.5519 C   0  0  0  0  0  0  0  0  0  0  0  0
   -0.7483   10.0744   17.8544 O   0  0  0  0  0  0  0  0  0  0  0  0
   -5.7680   12.0979   15.7486 N   0  0  0  0  0  0  0  0  0  0  0  0
   -1.9243   12.0630   16.7552 C   0  0  0  0  0  0  0  0  0  0  0  0
  -10.4606   14.1973   17.7030 C   0  0  0  0  0  0  0  0  0  0  0  0
   -0.2295    7.8225   17.2736 N   0  0  0  0  0  0  0  0  0  0  0  0
  1  5  2  0
  1 20  1  0
  2 10  1  0
  2 22  1  0
  2 25  1  0
  3  4  2  0
  3  6  1  0
  4 11  1  0
  5 11  1  0
  6 21  1  0
  6 26  1  0
  7 12  1  0
  7 26  2  0
  8  9  1  0
  8 21  2  0
  9 12  2  0
 10 24  1  0
 11 13  2  0
 13 18  1  0
 13 21  1  0
 14 15  2  0
 15 23  1  0
 15 27  1  0
 16 19  2  0
 16 23  1  0
 16 25  1  0
 17 22  1  0
 17 24  1  0
 18 20  2  0
 18 24  1  0
M  END
>  <ID>  (1) 
conformer_0

$$$$
