
     RDKit          3D

 33 38  0  0  0  0  0  0  0  0999 V2000
   -6.5373   10.8822   15.6567 C   0  0  0  0  0  0  0  0  0  0  0  0
   -7.3834   16.6974   19.1244 C   0  0  0  0  0  0  0  0  0  0  0  0
   -1.8193   11.6824   16.7052 C   0  0  0  0  0  0  0  0  0  0  0  0
   -8.4264   14.8350   17.9446 C   0  0  0  0  0  0  0  0  0  0  0  0
   -8.9888   10.2157   14.7276 C   0  0  0  0  0  0  0  0  0  0  0  0
   -2.0797   13.0950   16.4035 C   0  0  0  0  0  0  0  0  0  0  0  0
   -8.4524   16.9256   19.9032 C   0  0  0  0  0  0  0  0  0  0  0  0
   -8.8529   11.4054   15.4436 C   0  0  0  0  0  0  0  0  0  0  0  0
   -9.9441   12.1831   15.8076 N   0  0  0  0  0  0  0  0  0  0  0  0
   -2.5472   10.6606   15.9370 C   0  0  0  0  0  0  0  0  0  0  0  0
   -2.1240   10.1063   14.8959 O   0  0  0  0  0  0  0  0  0  0  0  0
   -7.2975   15.6979   18.1546 C   0  0  0  0  0  0  0  0  0  0  0  0
  -11.0070   13.7878   17.0566 O   0  0  0  0  0  0  0  0  0  0  0  0
   -5.8283    8.4893   15.4069 C   0  0  0  0  0  0  0  0  0  0  0  0
   -5.4656   14.5748   16.9292 C   0  0  0  0  0  0  0  0  0  0  0  0
   -3.9922   14.5229   16.9085 C   0  0  0  0  0  0  0  0  0  0  0  0
   -9.5803   16.0907   19.7186 C   0  0  0  0  0  0  0  0  0  0  0  0
   -7.9492    9.3354   14.5923 N   0  0  0  0  0  0  0  0  0  0  0  0
   -2.7931    9.1099   17.8690 C   0  0  0  0  0  0  0  0  0  0  0  0
   -6.1259   13.4024   16.8961 O   0  0  0  0  0  0  0  0  0  0  0  0
   -6.0331   15.7171   17.4265 C   0  0  0  0  0  0  0  0  0  0  0  0
   -3.6006   13.2132   16.2374 C   0  0  0  0  0  0  0  0  0  0  0  0
   -7.4299   13.0025   16.5450 C   0  0  0  0  0  0  0  0  0  0  0  0
   -9.8559   13.2678   16.6331 C   0  0  0  0  0  0  0  0  0  0  0  0
   -7.5597   11.7713   15.8595 C   0  0  0  0  0  0  0  0  0  0  0  0
   -9.5599   15.1091   18.7742 C   0  0  0  0  0  0  0  0  0  0  0  0
   -6.7455    9.6154   15.2024 C   0  0  0  0  0  0  0  0  0  0  0  0
  -11.1344   11.7898   15.4693 O   0  0  0  0  0  0  0  0  0  0  0  0
   -3.6232    9.8908   16.7278 C   0  0  0  0  0  0  0  0  0  0  0  0
   -8.5308   13.7357   17.0063 C   0  0  0  0  0  0  0  0  0  0  0  0
   -0.6005   11.1574   17.4587 C   0  0  0  0  0  0  0  0  0  0  0  0
   -4.4357    9.0099   15.7654 N   0  0  0  0  0  0  0  0  0  0  0  0
   -1.2241    9.7460   18.1923 C   0  0  0  0  0  0  0  0  0  0  0  0
  1 25  2  0
  1 27  1  0
  2  7  2  0
  2 12  1  0
  3  6  1  0
  3 10  1  0
  3 31  1  0
  4 12  2  0
  4 26  1  0
  4 30  1  0
  5  8  2  0
  5 18  1  0
  6 22  1  0
  7 17  1  0
  8  9  1  0
  8 25  1  0
  9 24  1  0
  9 28  1  0
 10 11  2  0
 10 29  1  0
 12 21  1  0
 13 24  2  0
 14 27  1  0
 14 32  1  0
 15 16  1  0
 15 20  1  0
 15 21  1  0
 16 22  1  0
 17 26  2  0
 18 27  2  0
 19 29  1  0
 19 33  1  0
 20 23  1  0
 23 25  1  0
 23 30  2  0
 24 30  1  0
 29 32  1  0
 31 33  1  0
M  END
>  <ID>  (1) 
conformer_0

$$$$
