
     RDKit          3D

 27 29  0  0  0  0  0  0  0  0999 V2000
   -5.5917   15.8790   18.0272 C   0  0  0  0  0  0  0  0  0  0  0  0
   -4.4871   13.8565   16.6301 C   0  0  0  0  0  0  0  0  0  0  0  0
   -1.1720    8.4017   17.7987 O   0  0  0  0  0  0  0  0  0  0  0  0
   -4.2541    9.6506   16.5919 N   0  0  0  0  0  0  0  0  0  0  0  0
  -10.5253   13.1452   17.6241 O   0  0  0  0  0  0  0  0  0  0  0  0
  -11.6579   13.2300   15.7586 O   0  0  0  0  0  0  0  0  0  0  0  0
   -6.6439   12.7557   16.5109 C   0  0  0  0  0  0  0  0  0  0  0  0
   -9.6878    9.8472   14.2418 C   0  0  0  0  0  0  0  0  0  0  0  0
   -4.2152   15.8178   17.7417 C   0  0  0  0  0  0  0  0  0  0  0  0
   -5.8484   13.8805   16.9382 C   0  0  0  0  0  0  0  0  0  0  0  0
   -7.7642   10.6396   15.3206 C   0  0  0  0  0  0  0  0  0  0  0  0
   -5.4989    8.2786   15.3441 O   0  0  0  0  0  0  0  0  0  0  0  0
   -9.9406   11.7730   15.6781 C   0  0  0  0  0  0  0  0  0  0  0  0
   -0.0907    7.5547   17.3430 C   0  0  0  0  0  0  0  0  0  0  0  0
   -2.7483    9.8867   16.6204 C   0  0  0  0  0  0  0  0  0  0  0  0
   -6.3477   10.5606   15.6812 C   0  0  0  0  0  0  0  0  0  0  0  0
  -10.4871   10.8470   14.8248 C   0  0  0  0  0  0  0  0  0  0  0  0
   -1.2667    9.5748   17.0587 C   0  0  0  0  0  0  0  0  0  0  0  0
   -7.9846   12.7940   16.4954 O   0  0  0  0  0  0  0  0  0  0  0  0
  -10.7372   12.7578   16.3987 C   0  0  0  0  0  0  0  0  0  0  0  0
   -6.4163   14.8968   17.6444 C   0  0  0  0  0  0  0  0  0  0  0  0
   -3.6893   14.7891   17.0495 C   0  0  0  0  0  0  0  0  0  0  0  0
   -8.3700    9.7155   14.4769 C   0  0  0  0  0  0  0  0  0  0  0  0
   -5.9354   11.7204   16.1709 N   0  0  0  0  0  0  0  0  0  0  0  0
   -8.5342   11.7317   15.8491 C   0  0  0  0  0  0  0  0  0  0  0  0
   -2.5640   11.0451   15.5272 C   0  0  0  0  0  0  0  0  0  0  0  0
   -5.3855    9.4418   15.7525 C   0  0  0  0  0  0  0  0  0  0  0  0
  1  9  1  0
  1 21  2  0
  2 10  1  0
  2 22  2  0
  3 14  1  0
  3 18  1  0
  4 15  1  0
  4 27  1  0
  5 20  2  0
  6 20  1  0
  7 10  1  0
  7 19  1  0
  7 24  2  0
  8 17  1  0
  8 23  2  0
  9 22  1  0
 10 21  1  0
 11 16  1  0
 11 23  1  0
 11 25  1  0
 12 27  2  0
 13 17  1  0
 13 20  1  0
 13 25  2  0
 15 18  1  0
 15 26  1  0
 16 24  1  0
 16 27  1  0
 19 25  1  0
M  END
>  <ID>  (1) 
conformer_0

$$$$
