
     RDKit          3D

 21 23  0  0  0  0  0  0  0  0999 V2000
  -10.5859   12.6558   17.0451 C   0  0  0  0  0  0  0  0  0  0  0  0
   -8.2022    9.9036   14.0959 N   0  0  0  0  0  0  0  0  0  0  0  0
  -10.0934   11.1350   15.0892 C   0  0  0  0  0  0  0  0  0  0  0  0
   -3.7826   13.3185   17.7901 O   0  0  0  0  0  0  0  0  0  0  0  0
   -9.6387   12.0981   16.0054 C   0  0  0  0  0  0  0  0  0  0  0  0
   -2.2418   11.0175   16.9334 C   0  0  0  0  0  0  0  0  0  0  0  0
   -4.6878   10.7138   16.4902 C   0  0  0  0  0  0  0  0  0  0  0  0
   -1.2052    8.8638   17.4620 C   0  0  0  0  0  0  0  0  0  0  0  0
   -5.2435   13.0539   15.8345 C   0  0  0  0  0  0  0  0  0  0  0  0
   -3.1541   11.3870   14.7559 O   0  0  0  0  0  0  0  0  0  0  0  0
   -5.8855   11.6390   16.0576 C   0  0  0  0  0  0  0  0  0  0  0  0
   -8.2497   12.4863   16.0166 C   0  0  0  0  0  0  0  0  0  0  0  0
   -3.8372   12.9879   16.3933 C   0  0  0  0  0  0  0  0  0  0  0  0
   -9.1600   10.3646   14.4456 C   0  0  0  0  0  0  0  0  0  0  0  0
   -7.9568   13.5831   16.4846 O   0  0  0  0  0  0  0  0  0  0  0  0
   -7.3105   11.5832   15.5544 N   0  0  0  0  0  0  0  0  0  0  0  0
   -2.4571    9.5569   17.2699 C   0  0  0  0  0  0  0  0  0  0  0  0
   -3.4075   11.5293   16.1301 C   0  0  0  0  0  0  0  0  0  0  0  0
   -7.8310   10.6378   14.7153 C   0  0  0  0  0  0  0  0  0  0  0  0
  -11.3849   13.5624   16.3851 O   0  0  0  0  0  0  0  0  0  0  0  0
   -3.9371    9.4461   17.0244 O   0  0  0  0  0  0  0  0  0  0  0  0
  1  5  1  0
  1 20  1  0
  2 14  1  0
  2 19  1  0
  3  5  1  0
  3 14  1  0
  4 13  1  0
  5 12  1  0
  6 17  1  0
  6 18  1  0
  7 11  1  0
  7 18  1  0
  7 21  1  0
  8 17  1  0
  9 11  1  0
  9 13  1  0
 10 18  1  0
 11 16  1  0
 12 15  2  0
 12 16  1  0
 13 18  1  0
 16 19  1  0
 17 21  1  0
M  END
>  <ID>  (1) 
conformer_0

$$$$
