
     RDKit          3D

 26 30  0  0  0  0  0  0  0  0999 V2000
   -7.2051   10.3983   14.6849 C   0  0  0  0  0  0  0  0  0  0  0  0
   -5.2776    9.4449   15.8361 C   0  0  0  0  0  0  0  0  0  0  0  0
   -2.7653    9.3409   16.0646 N   0  0  0  0  0  0  0  0  0  0  0  0
   -4.0016   11.2955   16.4841 N   0  0  0  0  0  0  0  0  0  0  0  0
   -5.1374   14.1351   17.2855 C   0  0  0  0  0  0  0  0  0  0  0  0
   -3.6392   13.7053   17.4899 C   0  0  0  0  0  0  0  0  0  0  0  0
  -11.2689   13.8391   17.5232 N   0  0  0  0  0  0  0  0  0  0  0  0
   -9.9856   13.5805   17.3086 C   0  0  0  0  0  0  0  0  0  0  0  0
  -10.5608   12.0574   15.5295 O   0  0  0  0  0  0  0  0  0  0  0  0
   -8.2921   12.6255   15.9819 N   0  0  0  0  0  0  0  0  0  0  0  0
   -7.7532    9.1008   14.5281 C   0  0  0  0  0  0  0  0  0  0  0  0
   -3.9741    9.8370   16.3515 C   0  0  0  0  0  0  0  0  0  0  0  0
   -7.7149   11.3569   13.8760 O   0  0  0  0  0  0  0  0  0  0  0  0
   -5.0547   15.4388   16.5676 O   0  0  0  0  0  0  0  0  0  0  0  0
   -9.0053   14.1455   18.0706 C   0  0  0  0  0  0  0  0  0  0  0  0
   -5.8380   13.1009   16.4163 C   0  0  0  0  0  0  0  0  0  0  0  0
   -6.4152   14.4983   18.4470 C   0  0  0  0  0  0  0  0  0  0  0  0
   -6.0232   10.5855   15.5100 C   0  0  0  0  0  0  0  0  0  0  0  0
   -7.6464   13.9751   17.7707 C   0  0  0  0  0  0  0  0  0  0  0  0
   -5.8590    8.1613   15.6893 C   0  0  0  0  0  0  0  0  0  0  0  0
   -3.1073   12.3669   16.9160 C   0  0  0  0  0  0  0  0  0  0  0  0
   -1.5518   10.1585   16.1315 O   0  0  0  0  0  0  0  0  0  0  0  0
   -5.3192   11.7796   16.0576 C   0  0  0  0  0  0  0  0  0  0  0  0
   -9.6059   12.7402   16.2484 C   0  0  0  0  0  0  0  0  0  0  0  0
   -7.3191   13.1929   16.6767 C   0  0  0  0  0  0  0  0  0  0  0  0
   -7.0617    7.9846   15.0077 C   0  0  0  0  0  0  0  0  0  0  0  0
  1 11  2  0
  1 13  1  0
  1 18  1  0
  2 12  1  0
  2 18  1  0
  2 20  1  0
  3 12  2  3
  3 22  1  0
  4 12  1  0
  4 21  1  0
  4 23  1  0
  5  6  1  0
  5 14  1  0
  5 16  1  0
  5 17  1  0
  6 21  1  0
  7  8  2  0
  8 15  1  0
  8 24  1  0
  9 24  2  0
 10 24  1  0
 10 25  2  0
 11 26  1  0
 15 19  2  0
 16 23  1  0
 16 25  1  0
 17 19  1  0
 18 23  1  0
 19 25  1  0
 20 26  2  0
M  END
>  <ID>  (1) 
conformer_0

$$$$
