
     RDKit          3D

 29 33  0  0  0  0  0  0  0  0999 V2000
   -3.1029   11.4007   16.8768 C   0  0  0  0  0  0  0  0  0  0  0  0
   -1.0179    7.3902   18.0554 N   0  0  0  0  0  0  0  0  0  0  0  0
  -10.5266   11.2531   14.8937 N   0  0  0  0  0  0  0  0  0  0  0  0
  -11.0195   12.1724   15.7677 O   0  0  0  0  0  0  0  0  0  0  0  0
   -8.7247   13.1852   16.4373 C   0  0  0  0  0  0  0  0  0  0  0  0
   -2.7517    8.9635   17.8236 C   0  0  0  0  0  0  0  0  0  0  0  0
  -10.7354   13.9021   17.4685 C   0  0  0  0  0  0  0  0  0  0  0  0
   -8.5236   14.8289   18.0760 C   0  0  0  0  0  0  0  0  0  0  0  0
   -6.4042   14.0519   16.8616 C   0  0  0  0  0  0  0  0  0  0  0  0
   -9.9291   14.7850   18.2100 C   0  0  0  0  0  0  0  0  0  0  0  0
   -3.4700    9.9790   16.9389 C   0  0  0  0  0  0  0  0  0  0  0  0
   -9.2294    9.3352   14.2569 C   0  0  0  0  0  0  0  0  0  0  0  0
   -6.8327   10.2679   15.1955 C   0  0  0  0  0  0  0  0  0  0  0  0
   -4.0241   12.3850   16.5132 C   0  0  0  0  0  0  0  0  0  0  0  0
   -5.0056   14.6530   16.8054 C   0  0  0  0  0  0  0  0  0  0  0  0
   -8.1292    8.5496   14.2530 C   0  0  0  0  0  0  0  0  0  0  0  0
   -4.6831    9.6777   16.3262 C   0  0  0  0  0  0  0  0  0  0  0  0
   -0.6233    9.0994   16.6870 O   0  0  0  0  0  0  0  0  0  0  0  0
  -10.0786   13.0506   16.5295 C   0  0  0  0  0  0  0  0  0  0  0  0
   -7.9477   11.0522   15.0955 C   0  0  0  0  0  0  0  0  0  0  0  0
   -5.5858   10.6357   15.8423 C   0  0  0  0  0  0  0  0  0  0  0  0
   -3.8501   13.7930   16.5540 O   0  0  0  0  0  0  0  0  0  0  0  0
   -1.8337   11.8172   17.1198 O   0  0  0  0  0  0  0  0  0  0  0  0
   -5.2844   12.0139   16.0943 C   0  0  0  0  0  0  0  0  0  0  0  0
   -6.9285    8.9624   14.6999 N   0  0  0  0  0  0  0  0  0  0  0  0
   -9.2254   10.6490   14.7822 C   0  0  0  0  0  0  0  0  0  0  0  0
   -6.2350   12.9533   15.9326 O   0  0  0  0  0  0  0  0  0  0  0  0
   -1.3860    8.6065   17.5998 C   0  0  0  0  0  0  0  0  0  0  0  0
   -7.9239   14.0331   17.1457 C   0  0  0  0  0  0  0  0  0  0  0  0
  1 11  1  0
  1 14  1  0
  1 23  1  0
  2 28  1  0
  3  4  1  0
  3 26  1  0
  4 19  1  0
  5 19  1  0
  5 29  2  0
  6 11  1  0
  6 28  1  0
  7 10  1  0
  7 19  2  0
  8 10  2  0
  8 29  1  0
  9 15  1  0
  9 27  1  0
  9 29  1  0
 11 17  2  0
 12 16  1  0
 12 26  2  0
 13 20  2  0
 13 21  1  0
 13 25  1  0
 14 22  1  0
 14 24  2  0
 15 22  1  0
 16 25  2  0
 17 21  1  0
 18 28  2  0
 20 26  1  0
 21 24  1  0
 24 27  1  0
M  END
>  <ID>  (1) 
conformer_0

$$$$
