
     RDKit          3D

 25 28  0  0  0  0  0  0  0  0999 V2000
   -4.1880   10.5956   15.4893 C   0  0  0  0  0  0  0  0  0  0  0  0
   -6.7716   14.0163   17.3637 C   0  0  0  0  0  0  0  0  0  0  0  0
   -6.6687   11.1912   15.5160 C   0  0  0  0  0  0  0  0  0  0  0  0
   -1.7005    9.0943   16.2146 O   0  0  0  0  0  0  0  0  0  0  0  0
  -11.2856   12.0206   15.7294 N   0  0  0  0  0  0  0  0  0  0  0  0
   -5.0362   12.5741   16.6038 O   0  0  0  0  0  0  0  0  0  0  0  0
   -4.4886   15.1630   17.7799 C   0  0  0  0  0  0  0  0  0  0  0  0
   -5.3137   11.4191   15.9167 C   0  0  0  0  0  0  0  0  0  0  0  0
   -1.9247   10.2551   16.5310 C   0  0  0  0  0  0  0  0  0  0  0  0
   -3.8279   14.5969   16.5924 C   0  0  0  0  0  0  0  0  0  0  0  0
   -1.4397   10.7963   17.6661 N   0  0  0  0  0  0  0  0  0  0  0  0
   -5.2906   13.9709   17.0476 C   0  0  0  0  0  0  0  0  0  0  0  0
   -9.2902   10.6498   14.7006 C   0  0  0  0  0  0  0  0  0  0  0  0
   -8.2285    9.8261   14.2848 C   0  0  0  0  0  0  0  0  0  0  0  0
   -7.7285   13.1429   16.7797 C   0  0  0  0  0  0  0  0  0  0  0  0
   -6.9288   10.0912   14.6877 C   0  0  0  0  0  0  0  0  0  0  0  0
   -9.0275   11.6789   15.5601 C   0  0  0  0  0  0  0  0  0  0  0  0
   -7.1527   14.9742   18.2816 C   0  0  0  0  0  0  0  0  0  0  0  0
   -7.7041   12.0028   15.9432 C   0  0  0  0  0  0  0  0  0  0  0  0
  -10.1182   12.5312   16.2747 C   0  0  0  0  0  0  0  0  0  0  0  0
   -9.0983   13.4283   17.0600 C   0  0  0  0  0  0  0  0  0  0  0  0
   -9.4807   14.3703   17.9405 C   0  0  0  0  0  0  0  0  0  0  0  0
   -2.7503   11.2428   15.6615 C   0  0  0  0  0  0  0  0  0  0  0  0
   -8.4901   15.1732   18.6035 C   0  0  0  0  0  0  0  0  0  0  0  0
  -11.3553   12.9457   16.7621 O   0  0  0  0  0  0  0  0  0  0  0  0
  1  8  1  0
  1 23  1  0
  2 12  1  0
  2 15  1  0
  2 18  2  0
  3  8  2  0
  3 16  1  0
  3 19  1  0
  4  9  2  0
  5 20  1  0
  6  8  1  0
  6 12  1  0
  7 10  1  0
  7 12  1  0
  9 11  1  0
  9 23  1  0
 13 14  1  0
 13 17  2  0
 14 16  2  0
 15 19  2  0
 15 21  1  0
 17 19  1  0
 17 20  1  0
 18 24  1  0
 20 21  1  0
 20 25  1  0
 21 22  2  0
 22 24  1  0
M  END
>  <ID>  (1) 
conformer_0

$$$$
