
     RDKit          3D

 23 25  0  0  0  0  0  0  0  0999 V2000
   -8.4449   13.3410   17.1242 C   0  0  0  0  0  0  0  0  0  0  0  0
   -9.7648   13.6893   17.4967 C   0  0  0  0  0  0  0  0  0  0  0  0
   -8.2982   12.3536   16.1567 C   0  0  0  0  0  0  0  0  0  0  0  0
   -0.8127   10.5478   15.9203 O   0  0  0  0  0  1  0  0  0  0  0  0
   -9.3413   10.7538   14.6734 N   0  0  0  0  0  0  0  0  0  0  0  0
   -9.4511   11.7326   15.5810 C   0  0  0  0  0  0  0  0  0  0  0  0
   -7.0095   10.8636   14.8106 C   0  0  0  0  0  0  0  0  0  0  0  0
   -1.5548    8.5036   17.1103 O   0  0  0  0  0  0  0  0  0  0  0  0
   -1.8791    9.4951   16.0079 P   0  0  0  0  0  4  0  0  0  0  0  0
   -2.1903    8.8059   14.6823 O   0  0  0  0  0  0  0  0  0  0  0  0
   -5.9064   13.2346   17.3509 C   0  0  0  0  0  0  0  0  0  0  0  0
   -5.8538   12.6525   15.9553 C   0  0  0  0  0  0  0  0  0  0  0  0
   -3.8758   11.2526   15.5142 C   0  0  0  0  0  0  0  0  0  0  0  0
   -4.5023   12.4332   15.5654 O   0  0  0  0  0  0  0  0  0  0  0  0
   -4.1087   14.7822   16.4580 O   0  0  0  0  0  0  0  0  0  0  0  0
   -9.9668   14.6381   18.4137 N   0  0  0  0  0  0  0  0  0  0  0  0
   -7.1282   13.9523   17.6688 C   0  0  0  0  0  0  0  0  0  0  0  0
   -3.2862   10.3379   16.4785 O   0  0  0  0  0  0  0  0  0  0  0  0
   -8.1341   10.2795   14.3291 C   0  0  0  0  0  0  0  0  0  0  0  0
   -4.6032   13.9219   17.5980 C   0  0  0  0  0  0  0  0  0  0  0  0
  -10.7214   12.1479   15.9979 C   0  0  0  0  0  0  0  0  0  0  0  0
   -7.0906   11.9404   15.6464 N   0  0  0  0  0  0  0  0  0  0  0  0
  -10.8869   13.0795   16.9431 N   0  0  0  0  0  0  0  0  0  0  0  0
  1  2  1  0
  1  3  2  0
  1 17  1  0
  2 16  2  0
  2 23  1  0
  3  6  1  0
  3 22  1  0
  4  9  2  0
  5  6  2  0
  5 19  1  0
  6 21  1  0
  7 19  2  0
  7 22  1  0
  8  9  1  0
  9 10  1  0
  9 18  1  0
 11 12  1  0
 11 17  1  0
 11 20  1  0
 12 14  1  0
 12 22  1  0
 13 14  1  0
 13 18  1  0
 15 20  1  0
 21 23  2  0
M  END
>  <ID>  (1) 
conformer_0

$$$$
