
     RDKit          3D

 34 38  0  0  0  0  0  0  0  0999 V2000
   -6.6221   13.0656   16.2792 C   0  0  0  0  0  0  0  0  0  0  0  0
   -8.7892   16.1546   19.0682 C   0  0  0  0  0  0  0  0  0  0  0  0
   -9.8585   15.3858   18.6388 C   0  0  0  0  0  0  0  0  0  0  0  0
   -7.2996    7.3452   14.3466 C   0  0  0  0  0  0  0  0  0  0  0  0
   -8.4900   13.9104   17.2536 C   0  0  0  0  0  0  0  0  0  0  0  0
   -7.4903   10.8493   15.2540 C   0  0  0  0  0  0  0  0  0  0  0  0
   -1.5937   12.6317   16.9301 C   0  0  0  0  0  0  0  0  0  0  0  0
   -6.1463   14.0088   17.1313 C   0  0  0  0  0  0  0  0  0  0  0  0
   -3.8824    9.4855   15.8508 C   0  0  0  0  0  0  0  0  0  0  0  0
  -10.8359   12.1808   15.6248 N   0  0  0  0  0  0  0  0  0  0  0  0
   -9.7008   14.3602   17.7513 C   0  0  0  0  0  0  0  0  0  0  0  0
   -3.1702   10.8784   16.2741 C   0  0  0  0  0  0  0  0  0  0  0  0
  -11.2334   13.0375   16.4125 C   0  0  0  0  0  0  0  0  0  0  0  0
   -8.4809   11.7495   15.6178 C   0  0  0  0  0  0  0  0  0  0  0  0
   -4.8265   14.1670   17.2012 O   0  0  0  0  0  0  0  0  0  0  0  0
   -9.7973   11.4182   15.2623 C   0  0  0  0  0  0  0  0  0  0  0  0
   -8.0380   12.8953   16.3611 C   0  0  0  0  0  0  0  0  0  0  0  0
   -3.8911   13.1738   16.7548 C   0  0  0  0  0  0  0  0  0  0  0  0
   -0.7683   10.3182   17.0374 C   0  0  0  0  0  0  0  0  0  0  0  0
   -7.7666    9.6204   14.7773 C   0  0  0  0  0  0  0  0  0  0  0  0
  -10.0840   10.2841   14.5816 C   0  0  0  0  0  0  0  0  0  0  0  0
   -6.7503    8.6481   14.7695 O   0  0  0  0  0  0  0  0  0  0  0  0
   -0.8710    9.4693   17.9726 O   0  0  0  0  0  0  0  0  0  0  0  0
   -5.5395    8.9866   15.6371 C   0  0  0  0  0  0  0  0  0  0  0  0
  -10.6949   17.0796   20.4277 C   0  0  0  0  0  0  0  0  0  0  0  0
  -10.9367   13.8027   17.3438 N   0  0  0  0  0  0  0  0  0  0  0  0
   -7.3281   14.6141   17.7727 C   0  0  0  0  0  0  0  0  0  0  0  0
   -2.5970   13.5980   16.9604 C   0  0  0  0  0  0  0  0  0  0  0  0
   -9.2249   17.4449   19.8094 C   0  0  0  0  0  0  0  0  0  0  0  0
    0.3788   10.4749   16.4949 O   0  0  0  0  0  0  0  0  0  0  0  0
   -1.8600   11.2581   16.7196 C   0  0  0  0  0  0  0  0  0  0  0  0
   -7.4473   15.6258   18.6718 C   0  0  0  0  0  0  0  0  0  0  0  0
   -4.0856   11.8670   16.2711 C   0  0  0  0  0  0  0  0  0  0  0  0
   -9.0567    9.3638   14.3607 C   0  0  0  0  0  0  0  0  0  0  0  0
  1  8  1  0
  1 17  1  0
  2  3  1  0
  2 29  1  0
  2 32  2  0
  3 11  2  0
  4 22  1  0
  5 11  1  0
  5 17  2  0
  5 27  1  0
  6 14  1  0
  6 20  2  0
  7 28  2  0
  7 31  1  0
  8 15  1  0
  8 27  2  0
  9 12  1  0
  9 24  1  0
 10 13  2  0
 10 16  1  0
 11 26  1  0
 12 31  2  0
 12 33  1  0
 13 26  1  0
 14 16  1  0
 14 17  1  0
 15 18  1  0
 16 21  2  0
 18 28  1  0
 18 33  2  0
 19 23  2  0
 19 30  1  0
 19 31  1  0
 20 22  1  0
 20 34  1  0
 21 34  1  0
 25 29  1  0
 27 32  1  0
M  END
>  <ID>  (1) 
conformer_0

$$$$
