
     RDKit          3D

 34 38  0  0  0  0  0  0  0  0999 V2000
   -3.1813   13.9445   16.0450 C   0  0  0  0  0  0  0  0  0  0  0  0
   -2.2526    9.8572   18.4556 C   0  0  0  0  0  0  0  0  0  0  0  0
   -1.5806   10.7300   17.4401 N   0  0  0  0  0  0  0  0  0  0  0  0
   -2.8589   10.9791   19.4137 C   0  0  0  0  0  0  0  0  0  0  0  0
   -9.9945   13.2137   16.7545 C   0  0  0  0  0  0  0  0  0  0  0  0
   -7.7094   12.4769   16.2278 C   0  0  0  0  0  0  0  0  0  0  0  0
   -6.8907    9.1677   14.6747 N   0  0  0  0  0  0  0  0  0  0  0  0
   -8.9740   10.4976   14.7894 N   0  0  0  0  0  0  0  0  0  0  0  0
   -7.8327    8.0394   14.5493 C   0  0  0  0  0  0  0  0  0  0  0  0
   -9.0903   12.3665   16.1187 C   0  0  0  0  0  0  0  0  0  0  0  0
   -3.2779   12.0181   18.4108 C   0  0  0  0  0  0  0  0  0  0  0  0
  -11.0704   11.6973   15.5557 C   0  0  0  0  0  0  0  0  0  0  0  0
   -7.6406   10.4294   15.0531 C   0  0  0  0  0  0  0  0  0  0  0  0
   -3.8685   13.4120   18.4545 C   0  0  0  0  0  0  0  0  0  0  0  0
   -6.9528   11.4827   15.6389 C   0  0  0  0  0  0  0  0  0  0  0  0
   -9.7278   11.4350   15.3817 N   0  0  0  0  0  0  0  0  0  0  0  0
   -4.6315    9.5791   15.1938 O   0  0  0  0  0  0  0  0  0  0  0  0
   -2.1331   12.0646   17.3989 C   0  0  0  0  0  0  0  0  0  0  0  0
  -10.4143   15.0784   18.2063 O   0  0  0  0  0  0  0  0  0  0  0  0
   -5.5984   15.9082   16.8565 O   0  0  0  0  0  0  0  0  0  0  0  0
   -5.9043   13.5768   17.1456 O   0  0  0  0  0  0  0  0  0  0  0  0
   -7.2655   13.5288   16.9577 N   0  0  0  0  0  0  0  0  0  0  0  0
   -8.4646    7.8293   13.1562 C   0  0  0  0  0  0  0  0  0  0  0  0
   -2.4637   12.7246   16.1351 C   0  0  0  0  0  0  0  0  0  0  0  0
  -11.2315   12.7549   16.4548 N   0  0  0  0  0  0  0  0  0  0  0  0
   -5.2383   14.7237   17.0801 C   0  0  0  0  0  0  0  0  0  0  0  0
   -1.2905    8.8914   19.0263 C   0  0  0  0  0  0  0  0  0  0  0  0
   -5.4859    7.5176   15.5519 N   0  0  0  0  0  0  0  0  0  0  0  0
   -3.7750   14.4502   17.3266 C   0  0  0  0  0  0  0  0  0  0  0  0
   -5.6400    8.7727   15.2145 C   0  0  0  0  0  0  0  0  0  0  0  0
   -8.0988   14.3947   17.5989 C   0  0  0  0  0  0  0  0  0  0  0  0
   -9.5338   14.2614   17.5367 C   0  0  0  0  0  0  0  0  0  0  0  0
   -2.2752   11.9664   15.0652 O   0  0  0  0  0  0  0  0  0  0  0  0
   -3.4900    9.2111   17.9082 C   0  0  0  0  0  0  0  0  0  0  0  0
  1 24  1  0
  1 29  1  0
  2  3  1  0
  2  4  1  0
  2 27  1  0
  2 34  1  0
  3 18  1  0
  4 11  1  0
  5 10  1  0
  5 25  1  0
  5 32  2  0
  6 10  2  0
  6 15  1  0
  6 22  1  0
  7  9  1  0
  7 13  1  0
  7 30  1  0
  8 13  1  0
  8 16  1  0
  9 23  1  0
 10 16  1  0
 11 14  1  0
 11 18  1  0
 12 16  1  0
 12 25  1  0
 13 15  2  0
 14 29  1  0
 17 30  2  0
 18 24  1  0
 19 32  1  0
 20 26  2  0
 21 22  1  0
 21 26  1  0
 22 31  1  0
 24 33  1  0
 26 29  1  0
 28 30  1  0
 31 32  1  0
M  END
>  <ID>  (1) 
conformer_0

$$$$
