
     RDKit          3D

 30 35  0  0  0  0  0  0  0  0999 V2000
   -4.5785    8.6927   17.1058 O   0  0  0  0  0  0  0  0  0  0  0  0
   -5.0299   13.4204   17.0743 C   0  0  0  0  0  0  0  0  0  0  0  0
   -6.3691   15.3037   18.1447 C   0  0  0  0  0  0  0  0  0  0  0  0
   -8.5968   13.1002   16.4597 N   0  0  0  0  0  0  0  0  0  0  0  0
   -6.5190   16.5240   19.0607 C   0  0  0  0  0  0  0  0  0  0  0  0
   -2.7815   12.3642   16.7089 C   0  0  0  0  0  0  0  0  0  0  0  0
   -9.0112   14.7739   17.8999 N   0  0  0  0  0  0  0  0  0  0  0  0
   -5.0659   14.6998   17.7920 C   0  0  0  0  0  0  0  0  0  0  0  0
   -1.9747    8.8824   16.3196 O   0  0  0  0  0  0  0  0  0  0  0  0
   -7.5440   14.6955   17.6745 C   0  0  0  0  0  0  0  0  0  0  0  0
   -9.8917   10.3384   14.6370 C   0  0  0  0  0  0  0  0  0  0  0  0
   -7.5648   10.5100   14.1224 C   0  0  0  0  0  0  0  0  0  0  0  0
   -6.2302   13.1248   16.5026 C   0  0  0  0  0  0  0  0  0  0  0  0
   -4.7507   11.0113   17.0096 C   0  0  0  0  0  0  0  0  0  0  0  0
   -2.0620   11.2210   16.4931 C   0  0  0  0  0  0  0  0  0  0  0  0
   -9.8389   11.4524   15.4503 C   0  0  0  0  0  0  0  0  0  0  0  0
   -4.0093    9.8974   16.9056 C   0  0  0  0  0  0  0  0  0  0  0  0
   -8.7575    9.8342   14.0133 C   0  0  0  0  0  0  0  0  0  0  0  0
   -4.1212   12.2654   16.9228 C   0  0  0  0  0  0  0  0  0  0  0  0
   -2.6652    9.9930   16.5870 C   0  0  0  0  0  0  0  0  0  0  0  0
  -10.8746   13.1241   16.9621 N   0  0  0  0  0  0  0  0  0  0  0  0
   -7.3859   13.6203   16.8251 C   0  0  0  0  0  0  0  0  0  0  0  0
   -3.5854   16.1537   19.4401 C   0  0  0  0  0  0  0  0  0  0  0  0
   -2.5177   14.6780   17.7439 C   0  0  0  0  0  0  0  0  0  0  0  0
  -10.9332   12.0057   16.1602 C   0  0  0  0  0  0  0  0  0  0  0  0
   -7.5435   11.6487   14.8239 N   0  0  0  0  0  0  0  0  0  0  0  0
   -2.0648   13.6395   16.7923 C   0  0  0  0  0  0  0  0  0  0  0  0
   -3.7878   15.3836   18.1295 C   0  0  0  0  0  0  0  0  0  0  0  0
   -8.6098   12.0587   15.5640 C   0  0  0  0  0  0  0  0  0  0  0  0
   -9.6110   13.7221   17.1320 C   0  0  0  0  0  0  0  0  0  0  0  0
  1 17  1  0
  2  8  1  0
  2 13  1  0
  2 19  1  0
  3  5  1  0
  3  8  1  0
  3 10  2  0
  4 22  1  0
  4 29  1  0
  4 30  1  0
  6 15  2  0
  6 19  1  0
  6 27  1  0
  7 10  1  0
  7 30  1  0
  8 28  1  0
  9 20  1  0
 10 22  1  0
 11 16  1  0
 11 18  2  0
 12 18  1  0
 12 26  2  0
 13 22  2  0
 14 17  1  0
 14 19  2  0
 15 20  1  0
 16 25  1  0
 16 29  2  0
 17 20  2  0
 21 25  1  0
 21 30  2  0
 23 28  1  0
 24 27  1  0
 24 28  1  0
 26 29  1  0
M  END
>  <ID>  (1) 
conformer_0

$$$$
