
     RDKit          3D

 26 29  0  0  0  0  0  0  0  0999 V2000
   -2.0679   10.6986   18.2308 C   0  0  0  0  0  0  0  0  0  0  0  0
   -1.8632   10.2271   16.9428 C   0  0  0  0  0  0  0  0  0  0  0  0
   -0.2335    9.3702   18.3116 C   0  0  0  0  0  0  0  0  0  0  0  0
   -3.7222   12.5117   16.5557 C   0  0  0  0  0  0  0  0  0  0  0  0
   -3.8529   11.2301   16.0243 C   0  0  0  0  0  0  0  0  0  0  0  0
  -10.9896   11.1972   15.1763 C   0  0  0  0  0  0  0  0  0  0  0  0
  -10.3036   12.9397   16.5552 C   0  0  0  0  0  0  0  0  0  0  0  0
   -8.9719   12.7100   16.1877 C   0  0  0  0  0  0  0  0  0  0  0  0
   -6.9311    9.7763   14.9375 C   0  0  0  0  0  0  0  0  0  0  0  0
  -11.2476   12.1964   15.9873 N   0  0  0  0  0  0  0  0  0  0  0  0
   -6.0439   12.9704   16.1510 N   0  0  0  0  0  0  0  0  0  0  0  0
   -7.3599   11.0562   15.3441 C   0  0  0  0  0  0  0  0  0  0  0  0
   -9.7453   10.8628   14.9169 N   0  0  0  0  0  0  0  0  0  0  0  0
   -6.2194   11.7323   15.7470 C   0  0  0  0  0  0  0  0  0  0  0  0
   -2.7166   10.3861   15.7836 C   0  0  0  0  0  0  0  0  0  0  0  0
   -5.1237   10.8423   15.6632 N   0  0  0  0  0  0  0  0  0  0  0  0
   -4.8183   13.3911   16.5926 C   0  0  0  0  0  0  0  0  0  0  0  0
  -10.5050   15.4685   19.1499 N   0  0  0  0  0  0  0  0  0  0  0  0
   -5.5957    9.6048   15.1673 N   0  0  0  0  0  0  0  0  0  0  0  0
   -1.0663   10.1693   19.0862 N   0  0  0  0  0  0  0  0  0  0  0  0
  -10.7637   13.8550   17.4751 N   0  0  0  0  0  0  0  0  0  0  0  0
   -9.9462   14.7600   18.0980 C   0  0  0  0  0  0  0  0  0  0  0  0
   -0.7430    9.4300   16.9782 N   0  0  0  0  0  0  0  0  0  0  0  0
   -7.6576    8.8770   14.3646 O   0  0  0  0  0  0  0  0  0  0  0  0
   -8.7882   15.0752   17.7323 O   0  0  0  0  0  0  0  0  0  0  0  0
   -8.7043   11.5619   15.4286 C   0  0  0  0  0  0  0  0  0  0  0  0
  1  2  1  0
  1 20  1  0
  2 15  1  0
  2 23  1  0
  3 20  1  0
  3 23  1  0
  4  5  1  0
  4 17  2  0
  5 15  1  0
  5 16  1  0
  6 10  2  0
  6 13  1  0
  7  8  2  0
  7 10  1  0
  7 21  1  0
  8 26  1  0
  9 12  1  0
  9 19  1  0
  9 24  2  0
 11 14  2  0
 11 17  1  0
 12 14  1  0
 12 26  1  0
 13 26  2  0
 14 16  1  0
 16 19  1  0
 18 22  1  0
 21 22  1  0
 22 25  2  0
M  END
>  <ID>  (1) 
conformer_0

$$$$
