
     RDKit          3D

 34 40  0  0  0  0  0  0  0  0999 V2000
   -2.2411   11.3220   19.3707 O   0  0  0  0  0  0  0  0  0  0  0  0
   -1.4445    8.8364   16.8976 C   0  0  0  0  0  0  0  0  0  0  0  0
   -1.7321   11.9216   17.0713 C   0  0  0  0  0  0  0  0  0  0  0  0
  -11.0180   13.3104   16.9099 C   0  0  0  0  0  0  0  0  0  0  0  0
   -8.4886   11.7746   15.7507 C   0  0  0  0  0  0  0  0  0  0  0  0
   -3.2656   12.1252   16.8425 C   0  0  0  0  0  0  0  0  0  0  0  0
  -10.0959   10.3628   14.6505 C   0  0  0  0  0  0  0  0  0  0  0  0
   -1.5621   10.9492   15.8079 C   0  0  0  0  0  0  0  0  0  0  0  0
   -8.8169   13.9589   17.3964 C   0  0  0  0  0  0  0  0  0  0  0  0
   -9.0115    9.3596   14.3243 C   0  0  0  0  0  0  0  0  0  0  0  0
   -7.3912   11.7720   13.6687 O   0  0  0  0  0  0  0  0  0  0  0  0
   -5.4269   16.1836   18.3742 C   0  0  0  0  0  0  0  0  0  0  0  0
   -2.8675    8.9270   15.0196 O   0  0  0  0  0  0  0  0  0  0  0  0
   -5.4972   15.1723   17.4798 C   0  0  0  0  0  0  0  0  0  0  0  0
   -0.9485    9.6772   18.0094 C   0  0  0  0  0  0  0  0  0  0  0  0
   -3.7223   10.6414   16.6001 C   0  0  0  0  0  0  0  0  0  0  0  0
   -5.9613   11.2819   15.4700 C   0  0  0  0  0  0  0  0  0  0  0  0
   -6.6027   16.4745   19.1371 C   0  0  0  0  0  0  0  0  0  0  0  0
   -4.4619   14.9811   16.6296 Cl  0  0  0  0  0  0  0  0  0  0  0  0
   -9.8523   11.5220   15.4447 C   0  0  0  0  0  0  0  0  0  0  0  0
   -5.8894   12.1931   16.5607 C   0  0  0  0  0  0  0  0  0  0  0  0
   -8.1996   12.9024   16.5851 C   0  0  0  0  0  0  0  0  0  0  0  0
  -10.2273   14.1659   17.6836 C   0  0  0  0  0  0  0  0  0  0  0  0
   -7.6384    9.6384   14.7621 C   0  0  0  0  0  0  0  0  0  0  0  0
   -6.8228   13.1617   16.7110 N   0  0  0  0  0  0  0  0  0  0  0  0
   -0.1647    9.2242   18.8734 O   0  0  0  0  0  0  0  0  0  0  0  0
   -2.4758    9.7736   16.1535 C   0  0  0  0  0  0  0  0  0  0  0  0
   -4.6801   10.5676   15.3895 C   0  0  0  0  0  0  0  0  0  0  0  0
   -6.6178   14.4136   17.3705 N   0  0  0  0  0  0  0  0  0  0  0  0
   -1.6465   10.9369   18.2348 C   0  0  0  0  0  0  0  0  0  0  0  0
  -10.7756   12.2992   16.0361 N   0  0  0  0  0  0  0  0  0  0  0  0
   -7.8030   14.7904   17.9456 C   0  0  0  0  0  0  0  0  0  0  0  0
   -7.3819   11.1796   14.9103 C   0  0  0  0  0  0  0  0  0  0  0  0
   -7.7946   15.7787   18.8842 C   0  0  0  0  0  0  0  0  0  0  0  0
  1 30  1  0
  2 15  1  0
  2 27  1  0
  3  6  1  0
  3  8  1  0
  3 30  1  0
  4 23  1  0
  4 31  1  0
  5 20  1  0
  5 22  2  0
  5 33  1  0
  6 16  1  0
  7 10  2  0
  7 20  1  0
  8 27  1  0
  9 22  1  0
  9 23  1  0
  9 32  1  0
 10 24  1  0
 11 33  1  0
 12 14  2  0
 12 18  1  0
 13 27  1  0
 14 19  1  0
 14 29  1  0
 15 26  2  0
 15 30  1  0
 16 27  1  0
 16 28  1  0
 17 21  1  0
 17 28  1  0
 17 33  1  0
 18 34  1  0
 20 31  2  0
 21 25  1  0
 22 25  1  0
 24 33  1  0
 25 29  1  0
 29 32  1  0
 32 34  2  0
M  END
>  <ID>  (1) 
conformer_0

$$$$
