
     RDKit          3D

 31 37  0  0  0  0  0  0  0  0999 V2000
   -2.5061    9.9824   17.1420 N   0  0  0  0  0  0  0  0  0  0  0  0
   -1.1548    8.7157   18.5754 O   0  0  0  0  0  0  0  0  0  0  0  0
   -4.5543   14.5949   16.8319 C   0  0  0  0  0  0  0  0  0  0  0  0
   -4.0507   11.6626   15.9866 C   0  0  0  0  0  0  0  0  0  0  0  0
   -6.6969   14.2951   18.7331 C   0  0  0  0  0  0  0  0  0  0  0  0
   -7.6975   13.2817   16.9328 N   0  0  0  0  0  0  0  0  0  0  0  0
   -6.8771   10.9189   14.4335 C   0  0  0  0  0  0  0  0  0  0  0  0
  -11.2763   13.3333   17.0176 N   0  0  0  0  0  0  0  0  0  0  0  0
   -1.7320   12.2619   16.9656 C   0  0  0  0  0  0  0  0  0  0  0  0
   -6.5457   11.8668   15.4285 C   0  0  0  0  0  0  0  0  0  0  0  0
   -8.9193   13.3097   16.8966 C   0  0  0  0  0  0  0  0  0  0  0  0
  -11.2478   12.2620   16.1016 N   0  0  0  0  0  0  0  0  0  0  0  0
   -8.2118   10.5578   14.1606 C   0  0  0  0  0  0  0  0  0  0  0  0
   -4.1235   16.7022   19.8669 C   0  0  0  0  0  0  0  0  0  0  0  0
   -9.3628   11.1132   14.8205 C   0  0  0  0  0  0  0  0  0  0  0  0
   -1.3555   10.8575   17.5198 C   0  0  0  0  0  0  0  0  0  0  0  0
   -2.4774    8.8534   18.0999 C   0  0  0  0  0  0  0  0  0  0  0  0
   -5.4312   13.5482   16.7182 C   0  0  0  0  0  0  0  0  0  0  0  0
   -4.3380   15.5310   17.7358 C   0  0  0  0  0  0  0  0  0  0  0  0
   -4.8187   15.7832   18.9866 C   0  0  0  0  0  0  0  0  0  0  0  0
   -7.6937   12.3816   15.9790 C   0  0  0  0  0  0  0  0  0  0  0  0
   -6.6299   13.7099   17.4787 C   0  0  0  0  0  0  0  0  0  0  0  0
  -10.0537   13.8359   17.3274 C   0  0  0  0  0  0  0  0  0  0  0  0
   -5.3169   12.3679   15.9531 C   0  0  0  0  0  0  0  0  0  0  0  0
   -3.7020   10.3250   16.4008 C   0  0  0  0  0  0  0  0  0  0  0  0
   -2.8824   12.4964   16.0707 O   0  0  0  0  0  0  0  0  0  0  0  0
   -5.9497   15.1316   19.4317 C   0  0  0  0  0  0  0  0  0  0  0  0
   -0.3436    9.8186   18.1539 C   0  0  0  0  0  0  0  0  0  0  0  0
  -10.1057   11.7761   15.5601 C   0  0  0  0  0  0  0  0  0  0  0  0
   -4.6580    9.2140   16.3927 C   0  0  0  0  0  0  0  0  0  0  0  0
   -8.9832   12.1050   15.7516 C   0  0  0  0  0  0  0  0  0  0  0  0
  1 16  1  0
  1 17  1  0
  1 25  1  0
  2 17  1  0
  2 28  1  0
  3 18  1  0
  3 19  2  0
  4 24  1  0
  4 25  1  0
  4 26  1  0
  5 22  1  0
  5 27  2  0
  6 11  1  0
  6 21  1  0
  6 22  1  0
  7 10  1  0
  7 13  1  0
  8 12  1  0
  8 23  1  0
  9 16  1  0
  9 26  1  0
 10 21  2  0
 10 24  1  0
 11 23  1  0
 11 31  2  0
 12 29  1  0
 13 15  2  0
 14 20  1  0
 15 29  2  0
 16 28  1  0
 18 22  1  0
 18 24  1  0
 19 20  1  0
 20 27  1  0
 21 31  1  0
 25 30  1  0
 29 31  1  0
M  END
>  <ID>  (1) 
conformer_0

$$$$
