
     RDKit          3D

 29 33  0  0  0  0  0  0  0  0999 V2000
   -8.9801   12.1866   15.8062 C   0  0  0  0  0  0  0  0  0  0  0  0
   -2.7431   11.7614   14.5693 F   0  0  0  0  0  0  0  0  0  0  0  0
   -2.7839   10.9949   16.7595 C   0  0  0  0  0  0  0  0  0  0  0  0
  -11.3629   12.8665   16.0529 O   0  0  0  0  0  0  0  0  0  0  0  0
   -6.1560   11.3418   15.4040 C   0  0  0  0  0  0  0  0  0  0  0  0
   -9.6733   13.7893   17.3942 C   0  0  0  0  0  0  0  0  0  0  0  0
   -6.8457   10.0747   15.1321 C   0  0  0  0  0  0  0  0  0  0  0  0
   -9.1990   11.0843   14.9309 C   0  0  0  0  0  0  0  0  0  0  0  0
   -1.9503   11.2160   19.4094 C   0  0  0  0  0  0  0  0  0  0  0  0
   -8.7039    8.8222   14.3405 C   0  0  0  0  0  0  0  0  0  0  0  0
   -6.6154   12.5219   15.8435 N   0  0  0  0  0  0  0  0  0  0  0  0
   -7.5820   14.4926   18.3122 C   0  0  0  0  0  0  0  0  0  0  0  0
   -6.6487    7.7397   14.8021 C   0  0  0  0  0  0  0  0  0  0  0  0
   -2.3110    9.8766   17.4175 C   0  0  0  0  0  0  0  0  0  0  0  0
  -10.1561   12.8792   16.3974 C   0  0  0  0  0  0  0  0  0  0  0  0
   -4.7654   11.2425   15.3915 N   0  0  0  0  0  0  0  0  0  0  0  0
   -2.3725   12.3338   18.7111 C   0  0  0  0  0  0  0  0  0  0  0  0
   -9.6648   15.4201   19.1340 C   0  0  0  0  0  0  0  0  0  0  0  0
   -6.1172    8.9258   15.1884 N   0  0  0  0  0  0  0  0  0  0  0  0
   -7.9223    7.7036   14.3627 C   0  0  0  0  0  0  0  0  0  0  0  0
   -8.2702   13.7300   17.4319 C   0  0  0  0  0  0  0  0  0  0  0  0
   -8.2727   15.3403   19.1758 C   0  0  0  0  0  0  0  0  0  0  0  0
   -3.3832   10.8786   15.3721 C   0  0  0  0  0  0  0  0  0  0  0  0
   -3.2422    9.6428   14.9330 F   0  0  0  0  0  0  0  0  0  0  0  0
   -7.7544   12.7351   16.4956 C   0  0  0  0  0  0  0  0  0  0  0  0
   -8.2123    9.9950   14.8005 C   0  0  0  0  0  0  0  0  0  0  0  0
   -2.7550   12.2238   17.3957 C   0  0  0  0  0  0  0  0  0  0  0  0
   -1.8966    9.9548   18.7674 C   0  0  0  0  0  0  0  0  0  0  0  0
  -10.3793   14.6188   18.2240 C   0  0  0  0  0  0  0  0  0  0  0  0
  1  8  1  0
  1 15  1  0
  1 25  1  0
  2 23  1  0
  3 14  1  0
  3 23  1  0
  3 27  2  0
  4 15  2  0
  5  7  1  0
  5 11  2  0
  5 16  1  0
  6 15  1  0
  6 21  2  0
  6 29  1  0
  7 19  2  0
  7 26  1  0
  8 26  1  0
  9 17  2  0
  9 28  1  0
 10 20  1  0
 10 26  2  0
 11 25  1  0
 12 21  1  0
 12 22  2  0
 13 19  1  0
 13 20  2  0
 14 28  2  0
 16 23  1  0
 17 27  1  0
 18 22  1  0
 18 29  2  0
 21 25  1  0
 23 24  1  0
M  END
>  <ID>  (1) 
conformer_0

$$$$
