
     RDKit          3D

 28 35  0  0  0  0  0  0  0  0999 V2000
   -4.5235   13.1936   17.0479 C   0  0  0  0  0  0  0  0  0  0  0  0
   -8.7751   10.6459   14.9921 C   0  0  0  0  0  0  0  0  0  0  0  0
   -9.2433   14.3529   17.4889 C   0  0  0  0  0  0  0  0  0  0  0  0
   -6.8239   11.9873   16.0479 C   0  0  0  0  0  0  0  0  0  0  0  0
   -8.1106   11.6226   15.6904 C   0  0  0  0  0  0  0  0  0  0  0  0
  -10.4528   13.8095   17.2051 N   0  0  0  0  0  0  0  0  0  0  0  0
   -4.4803   11.9844   16.3845 C   0  0  0  0  0  0  0  0  0  0  0  0
   -5.7566   13.8626   17.1791 N   0  0  0  0  0  0  0  0  0  0  0  0
   -5.7880   15.1877   17.9491 C   0  0  0  0  0  0  0  0  0  0  0  0
  -10.2035   12.6794   16.3765 C   0  0  0  0  0  0  0  0  0  0  0  0
   -6.8599   13.2703   16.7504 C   0  0  0  0  0  0  0  0  0  0  0  0
   -8.0516    9.5009   14.4200 C   0  0  0  0  0  0  0  0  0  0  0  0
   -5.5855    9.8959   15.5826 C   0  0  0  0  0  0  0  0  0  0  0  0
   -5.6155   11.3167   15.9858 C   0  0  0  0  0  0  0  0  0  0  0  0
   -6.2889    7.8532   14.6927 C   0  0  0  0  0  0  0  0  0  0  0  0
   -3.2571   13.6636   17.7640 C   0  0  0  0  0  0  0  0  0  0  0  0
   -8.9391   15.5778   18.3321 C   0  0  0  0  0  0  0  0  0  0  0  0
   -3.4045   15.0197   18.5268 C   0  0  0  0  0  0  0  0  0  0  0  0
   -8.1982   13.6305   16.9124 N   0  0  0  0  0  0  0  0  0  0  0  0
   -4.6035    8.9000   15.9595 C   0  0  0  0  0  0  0  0  0  0  0  0
  -10.1653   10.7088   14.9473 C   0  0  0  0  0  0  0  0  0  0  0  0
   -5.1604   14.4653   20.3436 C   0  0  0  0  0  0  0  0  0  0  0  0
   -4.9542    7.7309   15.2002 O   0  0  0  0  0  0  0  0  0  0  0  0
   -8.8779   12.6190   16.2782 C   0  0  0  0  0  0  0  0  0  0  0  0
  -10.9007   11.7026   15.6933 C   0  0  0  0  0  0  0  0  0  0  0  0
   -6.6433    9.2747   14.9160 N   0  0  0  0  0  0  0  0  0  0  0  0
   -7.2079   15.7687   18.4876 C   0  0  0  0  0  0  0  0  0  0  0  0
   -4.7739   15.3033   19.0799 C   0  0  0  0  0  0  0  0  0  0  0  0
  1  7  1  0
  1  8  1  0
  1 16  1  0
  2  5  2  0
  2 12  1  0
  2 21  1  0
  3  6  2  0
  3 17  1  0
  3 19  1  0
  4  5  1  0
  4 11  2  0
  4 14  1  0
  5 24  1  0
  6 10  1  0
  7 14  2  0
  8  9  1  0
  8 11  1  0
  9 27  1  0
  9 28  1  0
 10 24  2  0
 10 25  1  0
 11 19  1  0
 12 26  1  0
 13 14  1  0
 13 20  1  0
 13 26  1  0
 15 23  1  0
 15 26  1  0
 16 18  1  0
 17 27  1  0
 18 28  1  0
 19 24  1  0
 20 23  1  0
 21 25  2  0
 22 28  1  0
M  END
>  <ID>  (1) 
conformer_0

$$$$
