
     RDKit          3D

 34 38  0  0  0  0  0  0  0  0999 V2000
   -8.1309   10.3784   14.8206 N   0  0  0  0  0  0  0  0  0  0  0  0
   -9.9355   11.9343   15.6550 C   0  0  0  0  0  0  0  0  0  0  0  0
  -10.1988   14.3311   17.5765 C   0  0  0  0  0  0  0  0  0  0  0  0
   -5.6400   13.4023   16.5767 C   0  0  0  0  0  0  0  0  0  0  0  0
   -0.7465   14.7290   17.8329 O   0  0  0  0  0  0  0  0  0  0  0  0
   -6.9178   13.6793   16.5620 N   0  0  0  0  0  0  0  0  0  0  0  0
   -5.4351   15.7035   17.3429 C   0  0  0  0  0  0  0  0  0  0  0  0
  -10.4006   11.0273   14.8096 O   0  0  0  0  0  0  0  0  0  0  0  0
  -11.2455   13.5306   17.0989 N   0  0  0  0  0  0  0  0  0  0  0  0
   -8.3069    9.2315   14.2836 C   0  0  0  0  0  0  0  0  0  0  0  0
  -10.3959   15.2752   18.4010 O   0  0  0  0  0  0  0  0  0  0  0  0
   -4.6590   14.4350   16.9521 C   0  0  0  0  0  0  0  0  0  0  0  0
   -3.2566   15.0221   18.9922 C   0  0  0  0  0  0  0  0  0  0  0  0
   -5.1917   12.0405   16.3134 C   0  0  0  0  0  0  0  0  0  0  0  0
   -1.1197   11.3217   17.0975 C   0  0  0  0  0  0  0  0  0  0  0  0
   -1.2164   13.7787   18.5829 C   0  0  0  0  0  0  0  0  0  0  0  0
   -3.4652   10.3832   16.5736 C   0  0  0  0  0  0  0  0  0  0  0  0
   -2.0223    9.9951   17.0721 C   0  0  0  0  0  0  0  0  0  0  0  0
   -1.0753   12.4430   18.1320 N   0  0  0  0  0  0  0  0  0  0  0  0
   -6.1454   11.1091   15.8363 C   0  0  0  0  0  0  0  0  0  0  0  0
   -3.9380   11.6309   16.5920 C   0  0  0  0  0  0  0  0  0  0  0  0
   -8.9656   14.1145   17.1748 C   0  0  0  0  0  0  0  0  0  0  0  0
   -1.3540    9.0636   18.0840 C   0  0  0  0  0  0  0  0  0  0  0  0
   -8.1429   13.3249   16.5418 C   0  0  0  0  0  0  0  0  0  0  0  0
   -3.4871   14.4579   17.6689 O   0  0  0  0  0  0  0  0  0  0  0  0
   -6.1911    8.7929   15.0489 N   0  0  0  0  0  0  0  0  0  0  0  0
  -10.9831   12.5633   16.2406 C   0  0  0  0  0  0  0  0  0  0  0  0
   -2.2032   14.0966   19.6822 C   0  0  0  0  0  0  0  0  0  0  0  0
   -7.5169   11.2498   15.5179 C   0  0  0  0  0  0  0  0  0  0  0  0
   -1.9568    7.7896   18.0123 O   0  0  0  0  0  0  0  0  0  0  0  0
   -8.5348   12.1296   15.8718 C   0  0  0  0  0  0  0  0  0  0  0  0
   -7.2315    8.3790   14.4118 C   0  0  0  0  0  0  0  0  0  0  0  0
   -5.5779    9.8071   15.6349 C   0  0  0  0  0  0  0  0  0  0  0  0
   -4.3310    9.4531   16.0702 N   0  0  0  0  0  0  0  0  0  0  0  0
  1 10  1  0
  1 29  1  0
  2  8  1  0
  2 27  1  0
  2 31  1  0
  3  9  1  0
  3 11  2  0
  3 22  1  0
  4  6  2  0
  4 12  1  0
  4 14  1  0
  5 16  2  0
  6 24  1  0
  7 12  1  0
  9 27  2  0
 10 32  1  0
 12 25  1  0
 13 25  1  0
 13 28  1  0
 14 20  1  0
 14 21  2  0
 15 18  1  0
 15 19  1  0
 16 19  1  0
 16 28  1  0
 17 18  1  0
 17 21  1  0
 17 34  2  0
 18 23  1  0
 20 29  1  0
 20 33  2  0
 22 24  2  0
 23 30  1  0
 24 31  1  0
 26 32  2  0
 26 33  1  0
 29 31  2  0
 33 34  1  0
M  END
>  <ID>  (1) 
conformer_0

$$$$
