
     RDKit          3D

 27 30  0  0  0  0  0  0  0  0999 V2000
   -8.1472   12.6420   16.1202 C   0  0  0  0  0  0  0  0  0  0  0  0
   -4.0802   11.3193   15.5911 C   0  0  0  0  0  0  0  0  0  0  0  0
   -8.9159   10.7655   14.8478 N   0  0  0  0  0  0  0  0  0  0  0  0
   -4.8742   15.7383   18.0742 C   0  0  0  0  0  0  0  0  0  0  0  0
   -2.4357    9.1333   18.2014 C   0  0  0  0  0  0  0  0  0  0  0  0
   -9.1942   11.8682   15.6182 C   0  0  0  0  0  0  0  0  0  0  0  0
  -11.4640   11.3951   15.4461 N   0  0  0  0  0  0  0  0  0  0  0  0
   -9.8013   14.0506   17.1717 C   0  0  0  0  0  0  0  0  0  0  0  0
  -10.8174   13.2645   16.7112 N   0  0  0  0  0  0  0  0  0  0  0  0
   -7.2341   15.4573   18.3847 C   0  0  0  0  0  0  0  0  0  0  0  0
   -5.1097    9.1172   15.5085 O   0  0  0  0  0  0  0  0  0  0  0  0
   -7.6189   10.3599   14.7222 C   0  0  0  0  0  0  0  0  0  0  0  0
   -6.0434   14.2484   16.7922 C   0  0  0  0  0  0  0  0  0  0  0  0
   -7.2708   14.4915   17.3503 C   0  0  0  0  0  0  0  0  0  0  0  0
   -6.5660   11.0277   15.3080 C   0  0  0  0  0  0  0  0  0  0  0  0
   -6.0454   16.0234   18.7271 N   0  0  0  0  0  0  0  0  0  0  0  0
   -1.1877    9.0991   16.4368 C   0  0  0  0  0  0  0  0  0  0  0  0
   -8.4820   13.7757   16.9109 C   0  0  0  0  0  0  0  0  0  0  0  0
   -6.8583   12.2264   15.8466 C   0  0  0  0  0  0  0  0  0  0  0  0
   -2.9708   10.9562   16.4752 C   0  0  0  0  0  0  0  0  0  0  0  0
   -8.4472   15.8905   19.1518 C   0  0  0  0  0  0  0  0  0  0  0  0
   -4.8700   14.8254   17.0411 C   0  0  0  0  0  0  0  0  0  0  0  0
   -2.6491    9.5924   16.7044 N   0  0  0  0  0  0  0  0  0  0  0  0
   -1.0403    8.4571   17.8527 C   0  0  0  0  0  0  0  0  0  0  0  0
   -5.2333   10.3864   15.4452 C   0  0  0  0  0  0  0  0  0  0  0  0
  -10.5209   12.2061   15.9345 C   0  0  0  0  0  0  0  0  0  0  0  0
   -2.1946   12.1224   17.1084 C   0  0  0  0  0  0  0  0  0  0  0  0
  1  6  1  0
  1 18  1  0
  1 19  2  0
  2 20  1  0
  2 25  1  0
  3  6  2  0
  3 12  1  0
  4 16  1  0
  4 22  1  0
  5 23  1  0
  5 24  1  0
  6 26  1  0
  7 26  2  0
  8  9  2  0
  8 18  1  0
  9 26  1  0
 10 14  1  0
 10 16  2  0
 10 21  1  0
 11 25  2  0
 12 15  2  0
 13 14  1  0
 13 22  2  0
 14 18  2  3
 15 19  1  0
 15 25  1  0
 17 23  1  0
 17 24  1  0
 20 23  1  0
 20 27  1  0
M  END
>  <ID>  (1) 
conformer_0

$$$$
