
     RDKit          3D

 38 44  0  0  0  0  0  0  0  0999 V2000
   -9.8812   14.5284   17.9457 C   0  0  0  0  0  0  0  0  0  0  0  0
   -7.7850    8.9830   14.4903 N   0  0  0  0  0  0  0  0  0  0  0  0
   -3.3342   15.6869   18.5954 C   0  0  0  0  0  0  0  0  0  0  0  0
   -4.6038   17.0129   20.1368 C   0  0  0  0  0  0  0  0  0  0  0  0
   -5.0175    8.7833   15.7786 C   0  0  0  0  0  0  0  0  0  0  0  0
   -8.9277   13.9050   17.1592 C   0  0  0  0  0  0  0  0  0  0  0  0
   -8.1614   15.7046   19.0622 C   0  0  0  0  0  0  0  0  0  0  0  0
   -9.2809   12.9889   16.2114 N   0  0  0  0  0  0  0  0  0  0  0  0
   -3.8525    9.2058   16.3738 O   0  0  0  0  0  0  0  0  0  0  0  0
   -1.3282    8.5657   17.8650 O   0  0  0  0  0  0  0  0  0  0  0  0
   -3.4930   11.2667   17.9683 C   0  0  0  0  0  0  0  0  0  0  0  0
   -2.4431    9.3718   19.6894 O   0  0  0  0  0  0  0  0  0  0  0  0
   -4.4853   14.6472   16.6381 C   0  0  0  0  0  0  0  0  0  0  0  0
  -10.4260   12.4130   15.8377 C   0  0  0  0  0  0  0  0  0  0  0  0
   -2.0005   10.8593   17.9838 C   0  0  0  0  0  0  0  0  0  0  0  0
   -9.4941   15.4846   18.9221 C   0  0  0  0  0  0  0  0  0  0  0  0
   -0.4711   10.7862   16.0556 C   0  0  0  0  0  0  0  0  0  0  0  0
   -9.0753    9.4131   14.2997 C   0  0  0  0  0  0  0  0  0  0  0  0
   -2.2660   12.7671   16.5433 C   0  0  0  0  0  0  0  0  0  0  0  0
   -5.7431    9.8675   15.4042 C   0  0  0  0  0  0  0  0  0  0  0  0
   -4.5122   15.2819   18.0019 C   0  0  0  0  0  0  0  0  0  0  0  0
   -7.5964   14.2350   17.3442 C   0  0  0  0  0  0  0  0  0  0  0  0
  -11.5308   12.7870   16.2467 O   0  0  0  0  0  0  0  0  0  0  0  0
   -5.1937   10.9303   16.1274 C   0  0  0  0  0  0  0  0  0  0  0  0
   -7.7939   11.1369   14.8732 O   0  0  0  0  0  0  0  0  0  0  0  0
   -5.3938   12.3643   15.8585 C   0  0  0  0  0  0  0  0  0  0  0  0
   -5.7737   15.6036   18.5680 C   0  0  0  0  0  0  0  0  0  0  0  0
   -1.9167    9.4406   18.5099 C   0  0  0  0  0  0  0  0  0  0  0  0
   -7.0436   10.0243   14.8188 C   0  0  0  0  0  0  0  0  0  0  0  0
  -10.2534   11.3796   14.9738 N   0  0  0  0  0  0  0  0  0  0  0  0
   -9.0724   10.8099   14.6567 C   0  0  0  0  0  0  0  0  0  0  0  0
   -3.3575   16.5652   19.6529 C   0  0  0  0  0  0  0  0  0  0  0  0
   -5.7255   16.5308   19.6057 C   0  0  0  0  0  0  0  0  0  0  0  0
   -1.4381   11.6123   16.8303 C   0  0  0  0  0  0  0  0  0  0  0  0
   -4.0229   10.5059   16.7886 C   0  0  0  0  0  0  0  0  0  0  0  0
   -4.6777   13.1792   16.8296 C   0  0  0  0  0  0  0  0  0  0  0  0
   -7.1562   15.1346   18.2674 C   0  0  0  0  0  0  0  0  0  0  0  0
   -3.4785   12.6676   17.4834 C   0  0  0  0  0  0  0  0  0  0  0  0
  1  6  1  0
  1 16  1  0
  2 18  1  0
  2 29  1  0
  3 21  1  0
  3 32  2  0
  4 32  1  0
  4 33  2  0
  5  9  1  0
  5 20  1  0
  6  8  2  0
  6 22  1  0
  7 16  2  0
  7 37  1  0
  8 14  1  0
  9 35  1  0
 10 28  2  0
 11 15  1  0
 11 35  1  0
 11 38  1  0
 12 28  1  0
 13 21  1  0
 13 36  1  0
 14 23  2  0
 14 30  1  0
 15 28  1  0
 15 34  1  0
 17 34  1  0
 18 31  1  0
 19 34  1  0
 19 38  1  0
 20 24  1  0
 20 29  1  0
 21 27  1  0
 22 37  2  0
 24 26  1  0
 24 35  1  0
 25 29  1  0
 25 31  1  0
 26 36  1  0
 27 33  1  0
 27 37  1  0
 30 31  1  0
 36 38  1  0
M  END
>  <ID>  (1) 
conformer_0

$$$$
