
     RDKit          3D

 21 23  0  0  0  0  0  0  0  0999 V2000
   -4.5829   11.0327   17.9151 O   0  0  0  0  0  0  0  0  0  0  0  0
   -8.1370   13.4248   16.9615 C   0  0  0  0  0  0  0  0  0  0  0  0
   -7.6090   11.7763   15.2950 C   0  0  0  0  0  0  0  0  0  0  0  0
   -5.8743   12.9962   16.2582 C   0  0  0  0  0  0  0  0  0  0  0  0
  -10.4717   13.8823   17.3136 C   0  0  0  0  0  0  0  0  0  0  0  0
   -8.5852   12.4571   16.0509 C   0  0  0  0  0  0  0  0  0  0  0  0
   -9.1540   14.0632   17.6601 C   0  0  0  0  0  0  0  0  0  0  0  0
   -9.3558   10.5000   14.3545 C   0  0  0  0  0  0  0  0  0  0  0  0
   -9.9296   12.1915   15.8867 C   0  0  0  0  0  0  0  0  0  0  0  0
   -4.2994   13.1453   16.4581 C   0  0  0  0  0  0  0  0  0  0  0  0
   -2.7495    9.7885   16.4000 C   0  0  0  0  0  0  0  0  0  0  0  0
  -10.2537   11.2293   15.0129 N   0  0  0  0  0  0  0  0  0  0  0  0
   -1.8043   11.8982   15.5964 O   0  0  0  0  0  0  0  0  0  0  0  0
   -3.7333   11.9403   17.2324 C   0  0  0  0  0  0  0  0  0  0  0  0
  -10.8783   12.8794   16.5487 N   0  0  0  0  0  0  0  0  0  0  0  0
   -2.5705    9.0843   17.4729 O   0  0  0  0  0  0  0  0  0  0  0  0
   -6.3067   12.1385   15.3358 N   0  0  0  0  0  0  0  0  0  0  0  0
   -2.5460   11.2982   16.5740 C   0  0  0  0  0  0  0  0  0  0  0  0
   -6.7606   13.5723   17.1140 N   0  0  0  0  0  0  0  0  0  0  0  0
   -3.3771    9.4230   15.3499 O   0  0  0  0  0  0  0  0  0  0  0  0
   -8.0305   10.7172   14.5025 C   0  0  0  0  0  0  0  0  0  0  0  0
  1 14  1  0
  2  6  2  0
  2  7  1  0
  2 19  1  0
  3  6  1  0
  3 17  1  0
  3 21  2  0
  4 10  1  0
  4 17  2  0
  4 19  1  0
  5  7  2  0
  5 15  1  0
  6  9  1  0
  8 12  2  0
  8 21  1  0
  9 12  1  0
  9 15  2  0
 10 14  1  0
 11 16  2  0
 11 18  1  0
 11 20  1  0
 13 18  1  0
 14 18  1  0
M  END
>  <ID>  (1) 
conformer_0

$$$$
