
     RDKit          3D

 37 41  0  0  0  0  0  0  0  0999 V2000
  -10.8509   16.7140   20.4326 C   0  0  0  0  0  0  0  0  0  0  0  0
  -10.3557   12.5032   16.1713 C   0  0  0  0  0  0  0  0  0  0  0  0
   -6.5188   16.6657   20.5630 C   0  0  0  0  0  0  0  0  0  0  0  0
   -8.3321   11.4572   15.4746 C   0  0  0  0  0  0  0  0  0  0  0  0
  -10.6389   11.2855   15.4438 C   0  0  0  0  0  0  0  0  0  0  0  0
   -5.1851   13.5693   16.4023 O   0  0  0  0  0  0  0  0  0  0  0  0
  -10.4129   14.1839   17.8037 C   0  0  0  0  0  0  0  0  0  0  0  0
   -9.0941    9.4447   14.5067 C   0  0  0  0  0  0  0  0  0  0  0  0
   -8.9148   12.6262   16.0777 C   0  0  0  0  0  0  0  0  0  0  0  0
    0.4484    8.3160   17.9025 C   0  0  0  0  0  0  0  0  0  0  0  0
   -3.1411   11.4872   16.8384 N   0  0  0  0  0  0  0  0  0  0  0  0
   -6.7282    9.8367   14.7544 C   0  0  0  0  0  0  0  0  0  0  0  0
  -11.0009   13.2718   17.0054 N   0  0  0  0  0  0  0  0  0  0  0  0
    0.2393   10.9154   18.5086 C   0  0  0  0  0  0  0  0  0  0  0  0
   -8.9706   14.2718   17.6338 C   0  0  0  0  0  0  0  0  0  0  0  0
   -8.7030   15.8683   19.3698 C   0  0  0  0  0  0  0  0  0  0  0  0
   -3.2565    9.8271   15.2333 C   0  0  0  0  0  0  0  0  0  0  0  0
   -1.2910   11.1131   18.4334 C   0  0  0  0  0  0  0  0  0  0  0  0
  -10.1677   15.8241   19.4312 C   0  0  0  0  0  0  0  0  0  0  0  0
   -3.7636   12.2748   17.9236 C   0  0  0  0  0  0  0  0  0  0  0  0
    0.6516    9.4778   18.7641 C   0  0  0  0  0  0  0  0  0  0  0  0
    1.4608    9.2421   19.7425 O   0  0  0  0  0  0  0  0  0  0  0  0
  -10.9478   15.0068   18.7190 N   0  0  0  0  0  0  0  0  0  0  0  0
   -3.6729   11.2510   15.5138 C   0  0  0  0  0  0  0  0  0  0  0  0
   -7.7692    9.0323   14.3570 C   0  0  0  0  0  0  0  0  0  0  0  0
   -5.6386   14.8112   19.1558 C   0  0  0  0  0  0  0  0  0  0  0  0
   -1.9033   10.7149   17.0437 C   0  0  0  0  0  0  0  0  0  0  0  0
   -8.3786   13.5940   16.6732 N   0  0  0  0  0  0  0  0  0  0  0  0
   -6.0275   16.2829   19.1833 C   0  0  0  0  0  0  0  0  0  0  0  0
   -7.4864    7.8471   13.8230 O   0  0  0  0  0  0  0  0  0  0  0  0
   -4.4725   14.5809   18.3084 N   0  0  0  0  0  0  0  0  0  0  0  0
   -4.5158   13.4844   17.4776 C   0  0  0  0  0  0  0  0  0  0  0  0
   -8.0199   16.6086   20.5013 C   0  0  0  0  0  0  0  0  0  0  0  0
   -7.0627   11.0508   15.2977 C   0  0  0  0  0  0  0  0  0  0  0  0
   -9.3843   10.6465   15.0724 C   0  0  0  0  0  0  0  0  0  0  0  0
   -2.1575    9.4957   16.1687 C   0  0  0  0  0  0  0  0  0  0  0  0
   -8.1882   14.9554   18.4892 N   0  0  0  0  0  0  0  0  0  0  0  0
  1 19  1  0
  2  5  1  0
  2  9  1  0
  2 13  2  0
  3 29  1  0
  3 33  1  0
  4  9  2  0
  4 34  1  0
  4 35  1  0
  5 35  1  0
  6 32  2  0
  7 13  1  0
  7 15  2  0
  7 23  1  0
  8 25  1  0
  8 35  2  0
  9 28  1  0
 10 21  1  0
 11 20  1  0
 11 24  1  0
 11 27  1  0
 12 25  2  0
 12 34  1  0
 14 18  1  0
 14 21  1  0
 15 28  1  0
 15 37  1  0
 16 19  1  0
 16 33  1  0
 16 37  2  0
 17 24  1  0
 17 36  1  0
 18 27  1  0
 19 23  2  0
 20 32  1  0
 21 22  1  0
 25 30  1  0
 26 29  1  0
 26 31  1  0
 27 36  1  0
 31 32  1  0
M  END
>  <ID>  (1) 
conformer_0

$$$$
