
     RDKit          3D

 49 55  0  0  0  0  0  0  0  0999 V2000
   -3.1999   10.5198   15.6610 O   0  0  0  0  0  0  0  0  0  0  0  0
   -6.4752   12.2682   14.1560 O   0  0  0  0  0  0  0  0  0  0  0  0
   -8.9664   12.6631   16.1073 C   0  0  0  0  0  0  0  0  0  0  0  0
   -6.9737    9.6585   14.7589 C   0  0  0  0  0  0  0  0  0  0  0  0
   -8.0006    6.0808   13.7550 C   0  0  0  0  0  0  0  0  0  0  0  0
  -10.3912   15.2928   19.1694 N   0  0  0  0  0  0  0  0  0  0  0  0
   -2.0987   12.9671   15.2627 O   0  0  0  0  0  0  0  0  0  0  0  0
   -7.9061   15.5268   20.2514 C   0  0  0  0  0  0  0  0  0  0  0  0
   -4.4815    9.9417   15.4659 C   0  0  0  0  0  0  0  0  0  0  0  0
   -0.8878    8.6688   17.4513 C   0  0  0  0  0  0  0  0  0  0  0  0
   -8.6902   14.1029   18.0398 C   0  0  0  0  0  0  0  0  0  0  0  0
   -9.3335   10.5140   14.9791 C   0  0  0  0  0  0  0  0  0  0  0  0
  -10.2016   16.6697   20.2910 C   0  0  0  0  0  0  0  0  0  0  0  0
   -6.5774   15.2426   19.5728 C   0  0  0  0  0  0  0  0  0  0  0  0
   -0.0423    8.8695   16.1584 C   0  0  0  0  0  0  0  0  0  0  0  0
   -8.1491   13.5998   16.8272 C   0  0  0  0  0  0  0  0  0  0  0  0
    0.4731    8.1217   19.4163 C   0  0  0  0  0  0  0  0  0  0  0  0
   -4.9872   13.5886   18.4671 C   0  0  0  0  0  0  0  0  0  0  0  0
   -2.5831   12.7049   16.4106 C   0  0  0  0  0  0  0  0  0  0  0  0
   -6.0294   13.9841   19.2052 C   0  0  0  0  0  0  0  0  0  0  0  0
   -2.8284   11.2833   16.7260 C   0  0  0  0  0  0  0  0  0  0  0  0
   -6.3544    8.3317   14.7334 O   0  0  0  0  0  0  0  0  0  0  0  0
   -8.5007    9.3772   14.5916 C   0  0  0  0  0  0  0  0  0  0  0  0
   -2.4896   10.6356   17.9642 C   0  0  0  0  0  0  0  0  0  0  0  0
  -10.5693   10.8912   14.9974 N   0  0  0  0  0  0  0  0  0  0  0  0
   -7.2580    7.2899   14.3088 C   0  0  0  0  0  0  0  0  0  0  0  0
   -3.9120   14.2991   17.8773 C   0  0  0  0  0  0  0  0  0  0  0  0
   -9.2584   15.8746   19.7527 C   0  0  0  0  0  0  0  0  0  0  0  0
   -4.7486   16.4979   18.6352 C   0  0  0  0  0  0  0  0  0  0  0  0
  -10.0642   14.3895   18.1070 C   0  0  0  0  0  0  0  0  0  0  0  0
   -1.5606   14.2445   17.8962 C   0  0  0  0  0  0  0  0  0  0  0  0
   -2.7791   13.7411   17.3231 O   0  0  0  0  0  0  0  0  0  0  0  0
  -11.1316   11.8945   15.6584 C   0  0  0  0  0  0  0  0  0  0  0  0
   -8.4407   17.7457   21.4419 C   0  0  0  0  0  0  0  0  0  0  0  0
   -7.5864   16.5436   21.3738 C   0  0  0  0  0  0  0  0  0  0  0  0
   -0.3121    7.5014   18.2736 C   0  0  0  0  0  0  0  0  0  0  0  0
  -10.3249   12.8059   16.3748 C   0  0  0  0  0  0  0  0  0  0  0  0
   -5.8742   16.3792   19.3189 C   0  0  0  0  0  0  0  0  0  0  0  0
   -6.9277   11.1951   14.8867 C   0  0  0  0  0  0  0  0  0  0  0  0
  -10.4733    9.6650   14.6090 C   0  0  0  0  0  0  0  0  0  0  0  0
   -8.5668    7.9882   14.5655 C   0  0  0  0  0  0  0  0  0  0  0  0
   -3.1432   10.9941   19.1362 N   0  0  0  0  0  0  0  0  0  0  0  0
   -8.3553   11.5599   15.4103 C   0  0  0  0  0  0  0  0  0  0  0  0
   -1.5218    9.6936   18.1042 N   0  0  0  0  0  0  0  0  0  0  0  0
  -10.8537   13.6872   17.2657 N   0  0  0  0  0  0  0  0  0  0  0  0
   -9.8992   17.5211   21.3898 C   0  0  0  0  0  0  0  0  0  0  0  0
   -3.9650   15.6420   18.0525 C   0  0  0  0  0  0  0  0  0  0  0  0
   -5.7803   10.5035   15.1762 N   0  0  0  0  0  0  0  0  0  0  0  0
   -9.3901    7.0486   13.8823 C   0  0  0  0  0  0  0  0  0  0  0  0
  1  9  1  0
  1 21  1  0
  2 39  1  0
  3 16  1  0
  3 37  1  0
  3 43  1  0
  4 22  1  0
  4 23  1  0
  4 39  1  0
  5 26  1  0
  5 49  1  0
  6 28  1  0
  6 30  1  0
  7 19  2  0
  8 14  1  0
  8 28  1  0
  8 35  1  0
  9 48  1  0
 10 15  1  0
 10 36  1  0
 10 44  1  0
 11 16  1  0
 11 30  1  0
 12 23  1  0
 12 25  1  0
 12 43  1  0
 13 28  2  0
 13 46  1  0
 14 20  1  0
 14 38  2  0
 17 36  1  0
 18 20  2  0
 18 27  1  0
 19 21  1  0
 21 24  1  0
 22 26  1  0
 23 41  1  0
 24 42  2  0
 24 44  1  0
 25 33  1  0
 25 40  1  0
 26 41  1  0
 27 32  1  0
 27 47  1  0
 29 38  1  0
 29 47  2  0
 30 45  2  0
 31 32  1  0
 33 37  2  0
 34 35  1  0
 34 46  1  0
 37 45  1  0
 39 43  1  0
 39 48  1  0
 41 49  1  0
M  END
>  <ID>  (1) 
conformer_0

$$$$
