
     RDKit          3D

 30 33  0  0  0  0  0  0  0  0999 V2000
   -2.4433    9.8305   15.0633 C   0  0  0  0  0  0  0  0  0  0  0  0
  -11.0300   12.3845   15.8559 C   0  0  0  0  0  0  0  0  0  0  0  0
   -8.9127   10.8449   15.0467 C   0  0  0  0  0  0  0  0  0  0  0  0
   -8.1199   14.5091   18.0749 C   0  0  0  0  0  0  0  0  0  0  0  0
   -5.8822   14.6046   19.2817 C   0  0  0  0  0  0  0  0  0  0  0  0
   -2.4591   14.1065   16.8608 O   0  0  0  0  0  0  0  0  0  0  0  0
   -8.1412    8.6872   14.3852 C   0  0  0  0  0  0  0  0  0  0  0  0
   -3.9945   13.0757   18.5213 C   0  0  0  0  0  0  0  0  0  0  0  0
   -4.6131   15.4818   19.1941 C   0  0  0  0  0  0  0  0  0  0  0  0
   -6.8639    8.9468   14.7818 C   0  0  0  0  0  0  0  0  0  0  0  0
   -9.1448    9.5981   14.4699 C   0  0  0  0  0  0  0  0  0  0  0  0
   -6.5719   10.2063   15.2803 C   0  0  0  0  0  0  0  0  0  0  0  0
  -10.5247   14.1351   17.6603 C   0  0  0  0  0  0  0  0  0  0  0  0
   -5.0908   10.6152   15.7116 C   0  0  0  0  0  0  0  0  0  0  0  0
  -10.1641   13.1220   16.7776 C   0  0  0  0  0  0  0  0  0  0  0  0
   -8.8655   12.8594   16.7291 C   0  0  0  0  0  0  0  0  0  0  0  0
   -4.0176   11.0997   16.8154 C   0  0  0  0  0  0  0  0  0  0  0  0
   -9.4751   14.8229   18.3224 C   0  0  0  0  0  0  0  0  0  0  0  0
   -3.6536   14.0596   17.4570 C   0  0  0  0  0  0  0  0  0  0  0  0
  -10.2486   11.5412   14.9724 C   0  0  0  0  0  0  0  0  0  0  0  0
   -6.9408   16.5232   18.2676 O   0  0  0  0  0  0  0  0  0  0  0  0
   -6.9980   15.2704   18.5945 C   0  0  0  0  0  0  0  0  0  0  0  0
   -1.9894    9.4434   17.3371 C   0  0  0  0  0  0  0  0  0  0  0  0
   -4.2159   15.4466   17.6426 C   0  0  0  0  0  0  0  0  0  0  0  0
   -2.8802   10.0683   16.4740 N   0  0  0  0  0  0  0  0  0  0  0  0
   -1.6130    9.3685   18.5225 O   0  0  0  0  0  0  0  0  0  0  0  0
   -7.8801   13.4465   17.2623 C   0  0  0  0  0  0  0  0  0  0  0  0
   -3.5206   11.6309   18.2708 C   0  0  0  0  0  0  0  0  0  0  0  0
   -7.5570   11.1208   15.3789 C   0  0  0  0  0  0  0  0  0  0  0  0
   -5.5036   13.1316   18.8939 C   0  0  0  0  0  0  0  0  0  0  0  0
  1 25  1  0
  2 15  1  0
  2 20  1  0
  3 11  1  0
  3 20  1  0
  3 29  1  0
  4 18  2  0
  4 22  1  0
  4 27  1  0
  5  9  1  0
  5 22  1  0
  5 30  1  0
  6 19  1  0
  7 10  1  0
  7 11  2  0
  8 19  1  0
  8 28  1  0
  8 30  1  0
  9 24  1  0
 10 12  1  0
 12 14  1  0
 12 29  2  0
 13 15  2  0
 13 18  1  0
 14 17  1  0
 15 16  1  0
 16 27  2  0
 17 25  1  0
 17 28  1  0
 19 24  1  0
 21 22  1  0
 23 25  1  0
 23 26  2  0
M  END
>  <ID>  (1) 
conformer_0

$$$$
