
     RDKit          3D

 43 50  0  0  0  0  0  0  0  0999 V2000
   -8.9385   14.4512   17.7639 C   0  0  0  0  0  0  0  0  0  0  0  0
   -1.7189   18.8191   20.7029 O   0  0  0  0  0  0  0  0  0  0  0  0
   -3.7721   16.4096   19.3300 C   0  0  0  0  0  0  0  0  0  0  0  0
   -8.9255   12.4819   16.2116 C   0  0  0  0  0  0  0  0  0  0  0  0
   -4.7778   14.8073   17.5675 C   0  0  0  0  0  0  0  0  0  0  0  0
   -7.8647   10.2336   15.1978 C   0  0  0  0  0  0  0  0  0  0  0  0
  -10.3508   12.3149   15.9666 C   0  0  0  0  0  0  0  0  0  0  0  0
   -6.8175   13.5857   16.9138 C   0  0  0  0  0  0  0  0  0  0  0  0
   -4.0027   14.1827   16.7836 N   0  0  0  0  0  0  0  0  0  0  0  0
   -6.6837    9.4193   15.0869 C   0  0  0  0  0  0  0  0  0  0  0  0
   -1.7234    9.9829   18.6554 C   0  0  0  0  0  0  0  0  0  0  0  0
   -3.7110   12.9421   16.5054 C   0  0  0  0  0  0  0  0  0  0  0  0
   -3.4441   10.0582   16.7174 N   0  0  0  0  0  0  0  0  0  0  0  0
   -9.0347    9.5268   14.6876 C   0  0  0  0  0  0  0  0  0  0  0  0
   -6.1971   14.6384   17.5869 C   0  0  0  0  0  0  0  0  0  0  0  0
   -8.2624   13.5155   16.9231 C   0  0  0  0  0  0  0  0  0  0  0  0
  -10.2440   10.1573   14.7253 C   0  0  0  0  0  0  0  0  0  0  0  0
   -7.7808    7.5802   14.1720 C   0  0  0  0  0  0  0  0  0  0  0  0
   -2.5143   17.0202   19.3375 C   0  0  0  0  0  0  0  0  0  0  0  0
   -8.9463    8.2655   14.2217 C   0  0  0  0  0  0  0  0  0  0  0  0
   -5.4266    9.8437   15.5055 N   0  0  0  0  0  0  0  0  0  0  0  0
   -4.1681   15.7198   18.3682 C   0  0  0  0  0  0  0  0  0  0  0  0
   -4.5528   16.7811   20.3946 C   0  0  0  0  0  0  0  0  0  0  0  0
   -6.8839   11.6754   15.8177 C   0  0  0  0  0  0  0  0  0  0  0  0
   -6.6712    8.1739   14.6001 N   0  0  0  0  0  0  0  0  0  0  0  0
  -10.7795   11.2336   15.2503 C   0  0  0  0  0  0  0  0  0  0  0  0
   -6.0533   12.5497   16.3554 N   0  0  0  0  0  0  0  0  0  0  0  0
    0.0789    7.9626   18.5678 O   0  0  0  0  0  0  0  0  0  0  0  0
    1.2605    9.0331   20.0844 O   0  0  0  0  0  0  0  0  0  0  0  0
  -11.3042   13.0663   16.3451 O   0  0  0  0  0  0  0  0  0  0  0  0
   -0.1741   10.3120   18.7296 C   0  0  0  0  0  0  0  0  0  0  0  0
   -2.3263   10.5265   17.3854 C   0  0  0  0  0  0  0  0  0  0  0  0
   -8.2584   15.4667   18.4196 C   0  0  0  0  0  0  0  0  0  0  0  0
    0.4842    8.9734   19.1710 C   0  0  0  0  0  0  0  0  0  0  0  0
   -6.9220   15.5419   18.3040 C   0  0  0  0  0  0  0  0  0  0  0  0
   -3.8336   17.7720   21.1273 C   0  0  0  0  0  0  0  0  0  0  0  0
   -4.5387   10.6625   16.1458 C   0  0  0  0  0  0  0  0  0  0  0  0
   -1.6641   11.6595   16.8967 C   0  0  0  0  0  0  0  0  0  0  0  0
   -2.3616   12.6856   16.3823 C   0  0  0  0  0  0  0  0  0  0  0  0
   -4.7530   12.0491   16.3136 C   0  0  0  0  0  0  0  0  0  0  0  0
   -2.6029   17.9575   20.4638 C   0  0  0  0  0  0  0  0  0  0  0  0
  -10.2280   14.4410   18.1036 O   0  0  0  0  0  0  0  0  0  0  0  0
   -8.0915   11.4607   15.7012 C   0  0  0  0  0  0  0  0  0  0  0  0
  1 16  2  0
  1 33  1  0
  1 42  1  0
  2 41  2  0
  3 19  1  0
  3 22  2  0
  3 23  1  0
  4  7  1  0
  4 16  1  0
  4 43  1  0
  5  9  1  0
  5 15  1  0
  5 22  2  0
  6 10  2  0
  6 14  1  0
  6 43  1  0
  7 26  1  0
  7 30  2  0
  8 15  2  0
  8 16  1  0
  8 27  1  0
  9 12  1  0
 10 21  1  0
 10 25  1  0
 11 31  1  0
 11 32  1  0
 12 39  1  0
 12 40  2  0
 13 32  1  0
 13 37  2  0
 14 17  1  0
 14 20  2  0
 15 35  1  0
 17 26  2  0
 18 20  1  0
 18 25  2  0
 19 41  1  0
 21 37  1  0
 23 36  1  0
 24 27  1  0
 24 43  2  0
 27 40  1  0
 28 34  2  0
 29 34  1  0
 31 34  1  0
 32 38  1  0
 33 35  2  0
 36 41  1  0
 37 40  1  0
 38 39  1  0
M  END
>  <ID>  (1) 
conformer_0

$$$$
