
     RDKit          3D

 26 31  0  0  0  0  0  0  0  0999 V2000
   -8.1994   10.3208   14.9124 C   0  0  0  0  0  0  0  0  0  0  0  0
   -4.8471    9.2816   15.7812 C   0  0  0  0  0  0  0  0  0  0  0  0
   -2.5964    8.7841   17.4985 N   0  0  0  0  0  0  0  0  0  0  0  0
  -10.4588   11.1105   14.9877 C   0  0  0  0  0  0  0  0  0  0  0  0
   -6.0572   13.6755   17.2119 C   0  0  0  0  0  0  0  0  0  0  0  0
   -7.1927    9.3452   14.6867 N   0  0  0  0  0  0  0  0  0  0  0  0
   -5.3670   15.9181   17.0956 O   0  0  0  0  0  0  0  0  0  0  0  0
   -7.7155   11.3772   15.7122 C   0  0  0  0  0  0  0  0  0  0  0  0
   -7.5467   14.1273   17.3557 N   0  0  0  0  0  0  0  0  0  0  0  0
   -8.6957   12.3177   16.1611 C   0  0  0  0  0  0  0  0  0  0  0  0
   -5.1118   11.4690   16.4204 N   0  0  0  0  0  0  0  0  0  0  0  0
   -2.9749   14.2229   16.4250 O   0  0  0  0  0  0  0  0  0  0  0  0
   -4.2478   10.3324   16.5551 C   0  0  0  0  0  0  0  0  0  0  0  0
   -4.8658   12.8996   16.6776 C   0  0  0  0  0  0  0  0  0  0  0  0
   -3.0654    9.9790   17.3174 C   0  0  0  0  0  0  0  0  0  0  0  0
   -6.3303   11.1032   15.8987 C   0  0  0  0  0  0  0  0  0  0  0  0
   -2.8728   12.4264   18.1596 C   0  0  0  0  0  0  0  0  0  0  0  0
   -9.4957   10.2110   14.4619 C   0  0  0  0  0  0  0  0  0  0  0  0
   -9.9509   13.8618   17.2574 N   0  0  0  0  0  0  0  0  0  0  0  0
  -10.8740   12.9880   16.5570 N   0  0  0  0  0  0  0  0  0  0  0  0
   -3.5937   13.3464   17.2061 C   0  0  0  0  0  0  0  0  0  0  0  0
   -8.6793   13.4870   16.9833 C   0  0  0  0  0  0  0  0  0  0  0  0
   -6.0764    9.7676   15.3795 C   0  0  0  0  0  0  0  0  0  0  0  0
  -10.0504   12.1035   15.8626 C   0  0  0  0  0  0  0  0  0  0  0  0
   -2.4176   10.9773   18.0488 N   0  0  0  0  0  0  0  0  0  0  0  0
   -5.4488   14.8420   18.0775 C   0  0  0  0  0  0  0  0  0  0  0  0
  1  6  1  0
  1  8  1  0
  1 18  2  0
  2 13  1  0
  2 23  1  0
  3 15  2  0
  4 18  1  0
  4 24  2  0
  5  9  1  0
  5 14  1  0
  5 26  1  0
  6 23  1  0
  7 26  1  0
  8 10  1  0
  8 16  2  0
  9 22  2  0
 10 22  1  0
 10 24  1  0
 11 13  1  0
 11 14  1  0
 11 16  1  0
 12 21  1  0
 13 15  1  0
 14 21  1  0
 15 25  1  0
 16 23  1  0
 17 21  1  0
 17 25  1  0
 19 20  1  0
 19 22  1  0
 20 24  1  0
M  END
>  <ID>  (1) 
conformer_0

$$$$
