
     RDKit          3D

 34 39  0  0  0  0  0  0  0  0999 V2000
   -4.6794   11.6392   16.0758 C   0  0  0  0  0  0  0  0  0  0  0  0
  -11.2289   13.1294   16.8982 N   0  0  0  0  0  0  0  0  0  0  0  0
   -2.6118    9.9264   15.8635 C   0  0  0  0  0  0  0  0  0  0  0  0
   -8.6081   15.3139   18.5477 C   0  0  0  0  0  0  0  0  0  0  0  0
   -9.5213   11.1346   15.1043 C   0  0  0  0  0  0  0  0  0  0  0  0
   -4.1726   14.4277   17.1189 C   0  0  0  0  0  0  0  0  0  0  0  0
   -7.5609   16.0708   19.1979 C   0  0  0  0  0  0  0  0  0  0  0  0
   -8.9335   13.0958   16.4284 C   0  0  0  0  0  0  0  0  0  0  0  0
   -6.7732    8.5803   14.9517 C   0  0  0  0  0  0  0  0  0  0  0  0
   -5.1747   16.4061   19.2986 C   0  0  0  0  0  0  0  0  0  0  0  0
   -6.2343    9.8546   15.3392 C   0  0  0  0  0  0  0  0  0  0  0  0
  -10.8670   11.2517   15.3708 C   0  0  0  0  0  0  0  0  0  0  0  0
   -6.1082   14.9660   17.7258 C   0  0  0  0  0  0  0  0  0  0  0  0
   -9.7533   14.6196   18.1790 N   0  0  0  0  0  0  0  0  0  0  0  0
   -8.7483   12.2390   15.4953 C   0  0  0  0  0  0  0  0  0  0  0  0
   -6.8761   11.0265   14.7536 C   0  0  0  0  0  0  0  0  0  0  0  0
   -7.4095   15.2490   18.2254 C   0  0  0  0  0  0  0  0  0  0  0  0
   -9.8326   15.4965   18.9385 C   0  0  0  0  0  0  0  0  0  0  0  0
   -6.2024    7.5062   14.9897 O   0  0  0  0  0  0  0  0  0  0  0  0
   -8.1035    8.7047   14.3029 C   0  0  0  0  0  0  0  0  0  0  0  0
   -3.4558   12.1908   16.2750 C   0  0  0  0  0  0  0  0  0  0  0  0
   -3.1339   13.5994   16.6255 C   0  0  0  0  0  0  0  0  0  0  0  0
   -5.5545   14.1641   16.6952 O   0  0  0  0  0  0  0  0  0  0  0  0
   -9.0744    9.8315   14.4569 C   0  0  0  0  0  0  0  0  0  0  0  0
   -7.4244   12.3641   14.7225 C   0  0  0  0  0  0  0  0  0  0  0  0
   -9.9361   13.6377   17.1602 C   0  0  0  0  0  0  0  0  0  0  0  0
   -6.4648   16.6988   19.7929 C   0  0  0  0  0  0  0  0  0  0  0  0
   -4.8994   10.3206   15.7360 C   0  0  0  0  0  0  0  0  0  0  0  0
   -8.3699    7.6445   13.2660 C   0  0  0  0  0  0  0  0  0  0  0  0
   -2.4154   11.2738   16.1257 C   0  0  0  0  0  0  0  0  0  0  0  0
   -5.0846   15.4877   18.2381 C   0  0  0  0  0  0  0  0  0  0  0  0
   -3.8595    9.4512   15.6826 C   0  0  0  0  0  0  0  0  0  0  0  0
  -11.4193   12.1595   16.1097 N   0  0  0  0  0  0  0  0  0  0  0  0
   -1.1928   11.7479   16.2462 O   0  0  0  0  0  0  0  0  0  0  0  0
  1 21  2  0
  1 28  1  0
  2 26  1  0
  2 33  1  0
  3 30  2  0
  3 32  1  0
  4 17  1  0
  4 18  1  0
  5 12  1  0
  5 15  1  0
  5 24  1  0
  6 22  1  0
  6 23  1  0
  6 31  1  0
  7 17  2  0
  7 27  1  0
  8 15  1  0
  8 26  2  0
  9 11  1  0
  9 19  2  0
  9 20  1  0
 10 27  2  0
 10 31  1  0
 11 16  1  0
 11 28  1  0
 12 33  2  0
 13 17  1  0
 13 23  1  0
 13 31  2  0
 14 18  1  0
 14 26  1  0
 15 25  1  0
 16 25  1  0
 20 24  2  0
 20 29  1  0
 21 22  1  0
 21 30  1  0
 28 32  2  0
 30 34  1  0
M  END
>  <ID>  (1) 
conformer_0

$$$$
