
     RDKit          3D

 35 40  0  0  0  0  0  0  0  0999 V2000
   -3.2957    9.6980   15.7158 N   0  0  0  0  0  0  0  0  0  0  0  0
   -3.6730   14.8249   17.8803 N   0  0  0  0  0  0  0  0  0  0  0  0
   -6.9042    9.3828   15.0241 N   0  0  0  0  0  0  0  0  0  0  0  0
   -5.6270    9.0096   15.5607 C   0  0  0  0  0  0  0  0  0  0  0  0
  -10.3035   14.8445   18.4800 N   0  0  0  0  0  0  0  0  0  0  0  0
   -7.1873   15.1020   18.9301 N   0  0  0  0  0  0  0  0  0  0  0  0
   -4.8869   13.5629   16.5687 N   0  0  0  0  0  0  0  0  0  0  0  0
   -5.0010   14.9104   18.2318 C   0  0  0  0  0  0  0  0  0  0  0  0
   -7.6861    8.4434   14.4463 N   0  0  0  0  0  0  0  0  0  0  0  0
   -1.1119   10.3157   18.7747 C   0  0  0  0  0  0  0  0  0  0  0  0
   -0.4402   12.6001   18.3419 O   0  0  0  0  0  0  0  0  0  0  0  0
   -8.3514   12.6369   16.3176 C   0  0  0  0  0  0  0  0  0  0  0  0
   -0.3161   10.3617   19.7935 O   0  0  0  0  0  0  0  0  0  0  0  0
  -11.2417   11.1208   14.9474 N   0  0  0  0  0  0  0  0  0  0  0  0
   -8.9546   10.2545   14.9287 C   0  0  0  0  0  0  0  0  0  0  0  0
  -10.0602   15.8809   19.4159 C   0  0  0  0  0  0  0  0  0  0  0  0
   -9.7355   14.0211   17.5054 C   0  0  0  0  0  0  0  0  0  0  0  0
   -1.1195   11.4477   17.8125 C   0  0  0  0  0  0  0  0  0  0  0  0
   -7.1809   14.3208   17.8021 C   0  0  0  0  0  0  0  0  0  0  0  0
   -3.5644   13.8331   16.9503 C   0  0  0  0  0  0  0  0  0  0  0  0
   -2.2689   13.2134   16.5442 C   0  0  0  0  0  0  0  0  0  0  0  0
   -7.3121   11.8046   15.7683 C   0  0  0  0  0  0  0  0  0  0  0  0
   -5.8067   14.1459   17.3890 C   0  0  0  0  0  0  0  0  0  0  0  0
   -2.4907   10.8748   15.5835 C   0  0  0  0  0  0  0  0  0  0  0  0
   -2.1411   11.6905   16.7035 N   0  0  0  0  0  0  0  0  0  0  0  0
   -5.8323   15.4689   19.2232 C   0  0  0  0  0  0  0  0  0  0  0  0
   -2.4090   11.2737   14.3989 O   0  0  0  0  0  0  0  0  0  0  0  0
   -9.9854   11.2156   15.2828 C   0  0  0  0  0  0  0  0  0  0  0  0
   -8.9402    8.9912   14.3544 C   0  0  0  0  0  0  0  0  0  0  0  0
   -8.3310   13.7612   17.2346 C   0  0  0  0  0  0  0  0  0  0  0  0
  -10.5560   13.2158   16.7447 N   0  0  0  0  0  0  0  0  0  0  0  0
   -9.6902   12.3539   16.0588 C   0  0  0  0  0  0  0  0  0  0  0  0
   -1.6769    9.2103   18.4310 O   0  0  0  0  0  0  0  0  0  0  0  0
   -7.6255   10.5237   15.2407 C   0  0  0  0  0  0  0  0  0  0  0  0
   -4.7039   10.2122   15.4959 C   0  0  0  0  0  0  0  0  0  0  0  0
  1 24  1  0
  1 35  1  0
  2  8  1  0
  2 20  2  0
  3  4  1  0
  3  9  1  0
  3 34  1  0
  4 35  1  0
  5 16  1  0
  5 17  2  3
  6 19  1  0
  6 26  1  0
  7 20  1  0
  7 23  1  0
  8 23  2  0
  8 26  1  0
  9 29  1  0
 10 13  2  0
 10 18  1  0
 10 33  1  0
 11 18  2  0
 12 22  1  0
 12 30  1  0
 12 32  2  0
 14 28  2  0
 15 28  1  0
 15 29  1  0
 15 34  2  0
 17 30  1  0
 17 31  1  0
 18 25  1  0
 19 23  1  0
 19 30  1  0
 20 21  1  0
 21 25  1  0
 22 34  1  0
 24 25  1  0
 24 27  2  0
 28 32  1  0
 31 32  1  0
M  END
>  <ID>  (1) 
conformer_0

$$$$
