
     RDKit          3D

 23 26  0  0  0  0  0  0  0  0999 V2000
   -7.3486    9.8690   14.3078 O   0  0  0  0  0  0  0  0  0  0  0  0
   -6.3753   12.5715   16.3956 C   0  0  0  0  0  0  0  0  0  0  0  0
   -7.2455   10.8427   15.0579 C   0  0  0  0  0  0  0  0  0  0  0  0
   -3.1642    9.6881   17.1968 C   0  0  0  0  0  0  0  0  0  0  0  0
   -8.3053   11.6605   15.5558 C   0  0  0  0  0  0  0  0  0  0  0  0
  -10.9025   14.1108   17.5261 O   0  0  0  0  0  0  0  0  0  0  0  0
   -1.2916   10.1022   18.6349 C   0  0  0  0  0  0  0  0  0  0  0  0
   -8.5523   14.7370   17.7293 C   0  0  0  0  0  0  0  0  0  0  0  0
   -9.9436   15.0182   18.3067 C   0  0  0  0  0  0  0  0  0  0  0  0
   -5.1096    9.0848   15.4989 O   0  0  0  0  0  0  0  0  0  0  0  0
   -1.6863   11.4788   16.6747 C   0  0  0  0  0  0  0  0  0  0  0  0
   -9.6610   11.5430   15.3079 C   0  0  0  0  0  0  0  0  0  0  0  0
   -6.0664   11.2908   15.5841 N   0  0  0  0  0  0  0  0  0  0  0  0
   -2.8102   10.7451   16.3755 C   0  0  0  0  0  0  0  0  0  0  0  0
  -10.5511   12.3146   15.9756 N   0  0  0  0  0  0  0  0  0  0  0  0
   -2.4240    9.3432   18.3147 C   0  0  0  0  0  0  0  0  0  0  0  0
  -10.0966   13.2761   16.7932 C   0  0  0  0  0  0  0  0  0  0  0  0
   -8.7509   13.5327   16.9404 C   0  0  0  0  0  0  0  0  0  0  0  0
  -10.1150   10.6823   14.3891 N   0  0  0  0  0  0  0  0  0  0  0  0
   -7.8110   12.6895   16.3643 C   0  0  0  0  0  0  0  0  0  0  0  0
   -4.9440   10.4192   15.3605 C   0  0  0  0  0  0  0  0  0  0  0  0
   -0.9328   11.1492   17.7973 C   0  0  0  0  0  0  0  0  0  0  0  0
   -3.6618   11.1239   15.1935 C   0  0  0  0  0  0  0  0  0  0  0  0
  1  3  2  0
  2 13  1  0
  2 20  1  0
  3  5  1  0
  3 13  1  0
  4 14  2  0
  4 16  1  0
  5 12  1  0
  5 20  1  0
  6  9  1  0
  6 17  1  0
  7 16  2  0
  7 22  1  0
  8  9  1  0
  8 18  1  0
 10 21  2  0
 11 14  1  0
 11 22  2  0
 12 15  1  0
 12 19  2  0
 13 21  1  0
 14 23  1  0
 15 17  2  0
 17 18  1  0
 18 20  2  0
 21 23  1  0
M  END
>  <ID>  (1) 
conformer_0

$$$$
