
     RDKit          3D

 31 35  0  0  0  0  0  0  0  0999 V2000
   -3.7539   11.8067   15.7875 N   0  0  0  0  0  0  0  0  0  0  0  0
  -10.8541   13.3854   16.7162 N   0  0  0  0  0  0  0  0  0  0  0  0
  -10.3551   10.3689   14.8387 C   0  0  0  0  0  0  0  0  0  0  0  0
   -3.3866    9.5545   16.5118 C   0  0  0  0  0  0  0  0  0  0  0  0
   -6.1459   13.8127   17.3679 C   0  0  0  0  0  0  0  0  0  0  0  0
    1.2230   10.9458   18.8384 C   0  0  0  0  0  0  0  0  0  0  0  0
   -0.7242   11.2217   17.5167 C   0  0  0  0  0  0  0  0  0  0  0  0
   -3.9519   13.4608   17.7024 O   0  0  0  0  0  0  0  0  0  0  0  0
  -10.2978   12.3580   16.0106 C   0  0  0  0  0  0  0  0  0  0  0  0
   -8.2469   11.3578   15.2889 C   0  0  0  0  0  0  0  0  0  0  0  0
   -4.4085   12.7684   16.5481 C   0  0  0  0  0  0  0  0  0  0  0  0
   -8.3947    9.0611   14.2294 C   0  0  0  0  0  0  0  0  0  0  0  0
    0.9584    9.6199   16.8104 C   0  0  0  0  0  0  0  0  0  0  0  0
   -5.6704   13.1421   16.3248 C   0  0  0  0  0  0  0  0  0  0  0  0
   -7.1242    8.6796   14.4707 N   0  0  0  0  0  0  0  0  0  0  0  0
  -10.0323   15.3666   17.9710 C   0  0  0  0  0  0  0  0  0  0  0  0
   -8.5149   13.6523   16.6230 C   0  0  0  0  0  0  0  0  0  0  0  0
   -8.9069   12.4151   15.9428 C   0  0  0  0  0  0  0  0  0  0  0  0
   -4.7418    9.4104   15.7718 C   0  0  0  0  0  0  0  0  0  0  0  0
   -7.4988   14.1329   17.6161 C   0  0  0  0  0  0  0  0  0  0  0  0
   -0.2864   10.2458   16.6109 C   0  0  0  0  0  0  0  0  0  0  0  0
   -5.0855   14.1050   18.2435 C   0  0  0  0  0  0  0  0  0  0  0  0
    0.0010   11.5505   18.6457 C   0  0  0  0  0  0  0  0  0  0  0  0
   -3.5945    9.0955   18.0584 C   0  0  0  0  0  0  0  0  0  0  0  0
    1.7053    9.9820   17.9303 C   0  0  0  0  0  0  0  0  0  0  0  0
  -11.0400   11.3814   15.4359 C   0  0  0  0  0  0  0  0  0  0  0  0
   -9.8537   14.2371   17.0468 C   0  0  0  0  0  0  0  0  0  0  0  0
   -2.9164   10.9668   16.5067 N   0  0  0  0  0  0  0  0  0  0  0  0
   -6.3105    9.1650   15.4784 C   0  0  0  0  0  0  0  0  0  0  0  0
   -8.9623   10.2872   14.7999 C   0  0  0  0  0  0  0  0  0  0  0  0
   -1.9565   11.9469   17.2567 C   0  0  0  0  0  0  0  0  0  0  0  0
  1 11  1  0
  1 28  1  0
  2  9  1  0
  2 27  1  0
  3 26  2  0
  3 30  1  0
  4 19  1  0
  4 24  1  0
  4 28  1  0
  5 14  1  0
  5 20  2  0
  5 22  1  0
  6 23  2  0
  6 25  1  0
  7 21  2  0
  7 23  1  0
  7 31  1  0
  8 11  1  0
  8 22  1  0
  9 18  2  0
  9 26  1  0
 10 18  1  0
 10 30  2  0
 11 14  1  0
 12 15  1  0
 12 30  1  0
 13 21  1  0
 13 25  2  0
 15 29  1  0
 16 27  1  0
 17 18  1  0
 17 20  1  0
 17 27  1  0
 19 29  1  0
 28 31  1  0
M  END
>  <ID>  (1) 
conformer_0

$$$$
