
     RDKit          3D

 35 37  0  0  0  0  0  0  0  0999 V2000
   -7.4538   11.0710   15.2887 C   0  0  0  0  0  0  0  0  0  0  0  0
   -7.0536   16.0353   18.4925 C   0  0  0  0  0  0  0  0  0  0  0  0
   -3.0087    8.8997   18.0515 C   0  0  0  0  0  0  0  0  0  0  0  0
   -8.5212   11.9283   15.7696 C   0  0  0  0  0  0  0  0  0  0  0  0
   -2.2529   14.1363   16.7417 O   0  0  0  0  0  0  0  0  0  0  0  0
   -3.6460   10.2396   15.9109 C   0  0  0  0  0  0  0  0  0  0  0  0
   -0.6705   12.3606   18.6332 C   0  0  0  0  0  0  0  0  0  0  0  0
   -2.6093   14.0036   19.1797 O   0  0  0  0  0  0  0  0  0  0  0  0
   -6.0082   11.3302   15.4658 C   0  0  0  0  0  0  0  0  0  0  0  0
   -7.7882    9.8809   14.6043 C   0  0  0  0  0  0  0  0  0  0  0  0
   -9.2500   14.7466   18.1365 C   0  0  0  0  0  0  0  0  0  0  0  0
   -4.8091   14.8673   18.6744 C   0  0  0  0  0  0  0  0  0  0  0  0
   -4.9570   14.6264   17.2969 O   0  0  0  0  0  0  0  0  0  0  0  0
   -9.8799   11.6431   15.4753 C   0  0  0  0  0  0  0  0  0  0  0  0
   -9.1191    9.8143   14.0404 C   0  0  0  0  0  0  0  0  0  0  0  0
   -7.0099    8.8856   14.4120 O   0  0  0  0  0  0  0  0  0  0  0  0
   -7.2605   13.7309   19.1236 O   0  0  0  0  0  0  0  0  0  0  0  0
   -1.8977   12.0153   17.8242 C   0  0  0  0  0  0  0  0  0  0  0  0
   -5.7216   15.9424   19.1681 C   0  0  0  0  0  0  0  0  0  0  0  0
   -1.5449   10.7517   17.0878 C   0  0  0  0  0  0  0  0  0  0  0  0
  -10.9113   12.3736   15.9579 N   0  0  0  0  0  0  0  0  0  0  0  0
   -7.8330   14.8002   18.5111 C   0  0  0  0  0  0  0  0  0  0  0  0
   -5.1457   10.1419   15.7302 C   0  0  0  0  0  0  0  0  0  0  0  0
   -0.2864   11.0340   19.1943 O   0  0  0  0  0  0  0  0  0  0  0  0
  -10.1241   10.6237   14.5390 C   0  0  0  0  0  0  0  0  0  0  0  0
   -5.4438   16.3100   20.4492 O   0  0  0  0  0  0  0  0  0  0  0  0
   -2.9703   10.5166   14.7350 O   0  0  0  0  0  0  0  0  0  0  0  0
  -10.8537   13.3387   16.8664 C   0  0  0  0  0  0  0  0  0  0  0  0
   -2.6477   13.5509   17.8617 C   0  0  0  0  0  0  0  0  0  0  0  0
   -4.3072   11.7605   18.4434 O   0  0  0  0  0  0  0  0  0  0  0  0
   -3.8841   14.3977   19.7903 C   0  0  0  0  0  0  0  0  0  0  0  0
   -8.4106   13.0817   16.5852 C   0  0  0  0  0  0  0  0  0  0  0  0
   -2.6697    9.7932   16.9348 C   0  0  0  0  0  0  0  0  0  0  0  0
   -3.3320   12.2856   17.6736 C   0  0  0  0  0  0  0  0  0  0  0  0
   -9.5206   13.5891   17.2893 C   0  0  0  0  0  0  0  0  0  0  0  0
  1  4  2  0
  1  9  1  0
  1 10  1  0
  2 19  1  0
  2 22  1  0
  3 33  1  0
  4 14  1  0
  4 32  1  0
  5 29  2  0
  6 23  1  0
  6 27  1  0
  6 33  1  0
  7 18  1  0
  7 24  1  0
  8 29  1  0
  8 31  1  0
  9 23  2  0
 10 15  1  0
 10 16  2  0
 11 22  1  0
 11 35  1  0
 12 13  1  0
 12 19  1  0
 12 31  1  0
 14 21  2  0
 14 25  1  0
 15 25  2  0
 17 22  1  0
 18 20  1  0
 18 34  1  0
 19 26  1  0
 20 33  1  0
 21 28  1  0
 28 35  1  0
 29 34  1  0
 30 34  1  0
 32 35  1  0
M  END
>  <ID>  (1) 
conformer_0

$$$$
