
     RDKit          3D

 25 29  0  0  0  0  0  0  0  0999 V2000
   -1.5690    9.0459   17.3513 C   0  0  0  0  0  0  0  0  0  0  0  0
   -3.7126    8.7207   15.3857 N   0  0  0  0  0  0  0  0  0  0  0  0
   -6.3989   12.9098   16.5846 C   0  0  0  0  0  0  0  0  0  0  0  0
  -10.6053   14.3943   17.8927 C   0  0  0  0  0  0  0  0  0  0  0  0
   -8.8967   12.0758   15.8003 C   0  0  0  0  0  0  0  0  0  0  0  0
  -10.1654   11.7307   15.5439 N   0  0  0  0  0  0  0  0  0  0  0  0
   -7.8673   11.4159   15.2027 C   0  0  0  0  0  0  0  0  0  0  0  0
   -1.5366   11.4247   16.3766 C   0  0  0  0  0  0  0  0  0  0  0  0
   -7.5366   13.5910   17.1075 C   0  0  0  0  0  0  0  0  0  0  0  0
  -10.0968   13.3934   17.0208 C   0  0  0  0  0  0  0  0  0  0  0  0
   -9.7889   15.2726   18.5984 C   0  0  0  0  0  0  0  0  0  0  0  0
   -8.7950   13.0865   16.7092 C   0  0  0  0  0  0  0  0  0  0  0  0
   -8.4996   10.4627   14.3024 C   0  0  0  0  0  0  0  0  0  0  0  0
   -8.4551   15.3228   18.5727 C   0  0  0  0  0  0  0  0  0  0  0  0
  -10.0240   10.6658   14.5770 C   0  0  0  0  0  0  0  0  0  0  0  0
  -10.9615   12.5616   16.3526 N   0  0  0  0  0  0  0  0  0  0  0  0
   -2.1193   10.0711   16.5177 C   0  0  0  0  0  0  0  0  0  0  0  0
   -3.8080   12.3254   16.0190 C   0  0  0  0  0  0  0  0  0  0  0  0
   -2.0215   13.7955   16.3550 O   0  0  0  0  0  0  0  0  0  0  0  0
   -4.2358   10.9688   15.7074 C   0  0  0  0  0  0  0  0  0  0  0  0
   -5.5976   10.6545   15.3490 C   0  0  0  0  0  0  0  0  0  0  0  0
   -6.5315   11.7335   15.7588 C   0  0  0  0  0  0  0  0  0  0  0  0
   -2.4090   12.5302   16.2707 C   0  0  0  0  0  0  0  0  0  0  0  0
   -3.3973    9.8559   15.9846 C   0  0  0  0  0  0  0  0  0  0  0  0
   -7.4838   14.6502   17.9780 C   0  0  0  0  0  0  0  0  0  0  0  0
  1 17  1  0
  2 24  2  0
  3  9  2  0
  3 22  1  0
  4 10  1  0
  4 11  2  0
  5  6  1  0
  5  7  1  0
  5 12  2  0
  6 15  1  0
  6 16  1  0
  7 13  1  0
  7 22  1  0
  8 17  1  0
  8 23  2  0
  9 12  1  0
  9 25  1  0
 10 12  1  0
 10 16  1  0
 11 14  1  0
 13 15  1  0
 14 25  2  0
 17 24  1  0
 18 20  1  0
 18 23  1  0
 19 23  1  0
 20 21  1  0
 20 24  1  0
 21 22  1  0
M  END
>  <ID>  (1) 
conformer_0

$$$$
