
     RDKit          3D

 43 49  0  0  0  0  0  0  0  0999 V2000
   -7.7780   11.5738   14.8896 C   0  0  0  0  0  0  0  0  0  0  0  0
   -5.3506   17.0328   21.7758 C   0  0  0  0  0  0  0  0  0  0  0  0
   -2.0083   11.9974   18.1881 C   0  0  0  0  0  0  0  0  0  0  0  0
   -7.7777    8.7413   14.1513 C   0  0  0  0  0  0  0  0  0  0  0  0
   -6.6297    9.2732   14.9435 C   0  0  0  0  0  0  0  0  0  0  0  0
   -6.2068   13.3464   18.3261 O   0  0  0  0  0  0  0  0  0  0  0  0
   -7.6005   15.1399   18.8730 C   0  0  0  0  0  0  0  0  0  0  0  0
    0.1436   11.9693   20.2454 C   0  0  0  0  0  0  0  0  0  0  0  0
   -5.7160    8.3038   15.1774 O   0  0  0  0  0  0  0  0  0  0  0  0
   -9.8808   15.4941   18.3119 C   0  0  0  0  0  0  0  0  0  0  0  0
  -11.0917   12.7138   16.4783 N   0  0  0  0  0  0  0  0  0  0  0  0
   -7.3939   16.4188   20.7213 C   0  0  0  0  0  0  0  0  0  0  0  0
   -0.6112    9.9809   19.2211 N   0  0  0  0  0  0  0  0  0  0  0  0
   -4.1361   12.6409   16.7680 N   0  0  0  0  0  0  0  0  0  0  0  0
   -3.3301   10.4793   16.6003 C   0  0  0  0  0  0  0  0  0  0  0  0
   -9.1702    9.4030   14.2489 C   0  0  0  0  0  0  0  0  0  0  0  0
   -9.8375   12.5917   16.1137 C   0  0  0  0  0  0  0  0  0  0  0  0
    0.4748   10.5564   19.9147 C   0  0  0  0  0  0  0  0  0  0  0  0
   -8.9242   15.4530   19.2964 C   0  0  0  0  0  0  0  0  0  0  0  0
   -1.1440   10.6801   18.0487 C   0  0  0  0  0  0  0  0  0  0  0  0
   -4.6457   16.3914   20.7799 C   0  0  0  0  0  0  0  0  0  0  0  0
   -2.8770   11.9005   16.8524 C   0  0  0  0  0  0  0  0  0  0  0  0
  -11.2576   13.7105   17.3557 N   0  0  0  0  0  0  0  0  0  0  0  0
   -6.7046   15.7477   19.7657 C   0  0  0  0  0  0  0  0  0  0  0  0
   -6.6381   10.7203   15.3158 C   0  0  0  0  0  0  0  0  0  0  0  0
   -5.1815   11.9059   15.9011 C   0  0  0  0  0  0  0  0  0  0  0  0
   -0.4542    8.4794   19.1444 C   0  0  0  0  0  0  0  0  0  0  0  0
  -10.0390   10.5529   14.8532 C   0  0  0  0  0  0  0  0  0  0  0  0
   -4.6385   15.0203   16.5410 O   0  0  0  0  0  0  0  0  0  0  0  0
   -8.8510   16.3159   20.4598 C   0  0  0  0  0  0  0  0  0  0  0  0
   -2.0217   12.3098   15.8528 O   0  0  0  0  0  0  0  0  0  0  0  0
   -3.8654   13.9737   16.3592 C   0  0  0  0  0  0  0  0  0  0  0  0
   -5.3468   15.7777   19.7987 C   0  0  0  0  0  0  0  0  0  0  0  0
   -6.7402   17.0300   21.7662 C   0  0  0  0  0  0  0  0  0  0  0  0
   -7.1807   14.1416   17.9454 C   0  0  0  0  0  0  0  0  0  0  0  0
   -9.1321   13.5380   16.8633 C   0  0  0  0  0  0  0  0  0  0  0  0
  -10.0831   14.2453   17.6162 C   0  0  0  0  0  0  0  0  0  0  0  0
   -1.1206   12.5371   19.4574 C   0  0  0  0  0  0  0  0  0  0  0  0
   -7.8652   13.8844   16.7985 N   0  0  0  0  0  0  0  0  0  0  0  0
   -4.5109   10.5658   15.6085 C   0  0  0  0  0  0  0  0  0  0  0  0
   -9.1418   11.5607   15.4237 C   0  0  0  0  0  0  0  0  0  0  0  0
   -7.5811   12.3266   13.8635 O   0  0  0  0  0  0  0  0  0  0  0  0
    1.5573    9.9236   20.0283 O   0  0  0  0  0  0  0  0  0  0  0  0
  1 25  1  0
  1 41  1  0
  1 42  1  0
  2 21  2  0
  2 34  1  0
  3 20  1  0
  3 22  1  0
  3 38  1  0
  4  5  1  0
  4 16  2  0
  5  9  1  0
  5 25  1  0
  6 35  2  0
  7 19  1  0
  7 24  1  0
  7 35  1  0
  8 18  1  0
  8 38  1  0
 10 19  1  0
 10 37  1  0
 11 17  1  0
 11 23  1  0
 12 24  1  0
 12 30  1  0
 12 34  2  0
 13 18  1  0
 13 20  1  0
 13 27  1  0
 14 22  1  0
 14 26  1  0
 14 32  1  0
 15 22  1  0
 15 40  1  0
 16 28  1  0
 17 36  1  0
 17 41  1  0
 18 43  2  0
 19 30  1  0
 21 33  1  0
 22 31  1  0
 23 37  1  0
 24 33  2  0
 25 26  1  0
 26 40  1  0
 28 41  1  0
 29 32  1  0
 35 39  1  0
 36 37  2  0
 36 39  1  0
M  END
>  <ID>  (1) 
conformer_0

$$$$
