
     RDKit          3D

 31 36  0  0  0  0  0  0  0  0999 V2000
   -7.7070   10.1218   15.0463 C   0  0  0  0  0  0  0  0  0  0  0  0
   -8.8666    9.6910   14.4147 C   0  0  0  0  0  0  0  0  0  0  0  0
   -9.9314   12.2187   15.8505 C   0  0  0  0  0  0  0  0  0  0  0  0
   -9.5229   16.2691   19.6287 C   0  0  0  0  0  0  0  0  0  0  0  0
   -8.6156   12.1959   16.0497 C   0  0  0  0  0  0  0  0  0  0  0  0
  -11.0400   13.9254   17.2245 N   0  0  0  0  0  0  0  0  0  0  0  0
   -2.6724   11.1639   15.6653 C   0  0  0  0  0  0  0  0  0  0  0  0
  -10.9463   13.0594   16.3149 C   0  0  0  0  0  0  0  0  0  0  0  0
   -0.8809    9.5859   16.7202 C   0  0  0  0  0  0  0  0  0  0  0  0
  -10.4750   11.2437   15.0635 C   0  0  0  0  0  0  0  0  0  0  0  0
   -0.1537    8.8874   15.6977 O   0  0  0  0  0  0  0  0  0  0  0  0
    0.3383    7.6599   16.2761 C   0  0  0  0  0  0  0  0  0  0  0  0
   -1.5347   10.9460   16.6326 C   0  0  0  0  0  0  0  0  0  0  0  0
   -6.1960   12.9671   18.5105 C   0  0  0  0  0  0  0  0  0  0  0  0
   -5.2292   10.7276   15.8645 N   0  0  0  0  0  0  0  0  0  0  0  0
   -5.4867    9.5259   15.2598 C   0  0  0  0  0  0  0  0  0  0  0  0
   -6.2730   11.4822   16.3071 C   0  0  0  0  0  0  0  0  0  0  0  0
  -10.4660   15.6146   18.8358 C   0  0  0  0  0  0  0  0  0  0  0  0
  -10.0019   14.5561   18.0486 C   0  0  0  0  0  0  0  0  0  0  0  0
   -0.0587    7.6474   17.6054 C   0  0  0  0  0  0  0  0  0  0  0  0
   -8.1884   15.8447   19.6776 C   0  0  0  0  0  0  0  0  0  0  0  0
   -7.7624   14.7810   18.9467 C   0  0  0  0  0  0  0  0  0  0  0  0
  -10.0565   10.2400   14.4501 C   0  0  0  0  0  0  0  0  0  0  0  0
   -8.7063   14.1944   18.1174 C   0  0  0  0  0  0  0  0  0  0  0  0
   -6.4183   14.2694   19.0498 N   0  0  0  0  0  0  0  0  0  0  0  0
   -0.8360    8.8170   17.8724 N   0  0  0  0  0  0  0  0  0  0  0  0
   -6.6954    9.2508   14.8276 N   0  0  0  0  0  0  0  0  0  0  0  0
   -5.7378   12.3358   17.2508 C   0  0  0  0  0  0  0  0  0  0  0  0
   -4.0360   11.3355   16.2159 C   0  0  0  0  0  0  0  0  0  0  0  0
   -7.5806   11.2799   15.8224 C   0  0  0  0  0  0  0  0  0  0  0  0
   -4.3162   12.3122   17.1165 N   0  0  0  0  0  0  0  0  0  0  0  0
  1  2  2  0
  1 27  1  0
  1 30  1  0
  2 23  1  0
  3  5  2  0
  3  8  1  0
  3 10  1  0
  4 18  1  0
  4 21  2  0
  5 30  1  0
  6  8  2  0
  6 19  1  0
  7 13  1  0
  7 29  1  0
  9 11  1  0
  9 13  1  0
  9 26  1  0
 10 23  2  0
 11 12  1  0
 12 20  1  0
 14 25  1  0
 14 28  1  0
 15 16  1  0
 15 17  1  0
 15 29  1  0
 16 27  2  0
 17 28  1  0
 17 30  2  0
 18 19  2  0
 19 24  1  0
 20 26  1  0
 21 22  1  0
 22 24  2  0
 22 25  1  0
 28 31  1  0
 29 31  2  0
M  END
>  <ID>  (1) 
conformer_0

$$$$
