
     RDKit          3D

 28 31  0  0  0  0  0  0  0  0999 V2000
   -9.3111   13.4170   16.9535 C   0  0  0  0  0  0  0  0  0  0  0  0
   -5.7330   12.8199   16.3056 C   0  0  0  0  0  0  0  0  0  0  0  0
   -3.2375    9.4681   15.7757 C   0  0  0  0  0  0  0  0  0  0  0  0
   -6.2706   11.6515   15.6511 N   0  0  0  0  0  0  0  0  0  0  0  0
   -9.8787   10.9992   14.8004 C   0  0  0  0  0  0  0  0  0  0  0  0
   -3.4719   12.0822   15.8540 C   0  0  0  0  0  0  0  0  0  0  0  0
   -7.7772   11.9656   15.6882 C   0  0  0  0  0  0  0  0  0  0  0  0
   -5.7505    9.2735   15.3447 O   0  0  0  0  0  0  0  0  0  0  0  0
   -9.4440   14.5077   17.7386 O   0  0  0  0  0  0  0  0  0  0  0  0
   -4.0052   10.7522   15.6858 N   0  0  0  0  0  0  0  0  0  0  0  0
   -2.0151    9.5932   16.5656 C   0  0  0  0  0  0  0  0  0  0  0  0
   -5.0250   15.1706   17.5315 C   0  0  0  0  0  0  0  0  0  0  0  0
   -5.3753   10.5345   15.4535 C   0  0  0  0  0  0  0  0  0  0  0  0
    0.0285    7.6211   17.7906 C   0  0  0  0  0  0  0  0  0  0  0  0
   -0.4571    8.9593   18.3810 C   0  0  0  0  0  0  0  0  0  0  0  0
   -8.4891   11.1669   14.7842 C   0  0  0  0  0  0  0  0  0  0  0  0
   -6.3823   14.7996   17.4988 C   0  0  0  0  0  0  0  0  0  0  0  0
  -10.4595   12.7062   16.5433 C   0  0  0  0  0  0  0  0  0  0  0  0
   -7.8049   10.5510   13.9046 O   0  0  0  0  0  0  0  0  0  0  0  0
   -4.3806   13.1129   16.3863 C   0  0  0  0  0  0  0  0  0  0  0  0
   -2.2798   12.3909   15.6666 O   0  0  0  0  0  0  0  0  0  0  0  0
   -6.7714   13.6421   16.8507 C   0  0  0  0  0  0  0  0  0  0  0  0
   -4.0290   14.3321   16.9992 C   0  0  0  0  0  0  0  0  0  0  0  0
  -10.6745   11.7156   15.6759 C   0  0  0  0  0  0  0  0  0  0  0  0
   -1.9436    9.1753   17.9993 C   0  0  0  0  0  0  0  0  0  0  0  0
  -11.5400   13.1653   17.1581 O   0  0  0  0  0  0  0  0  0  0  0  0
   -8.0371   13.0524   16.5333 C   0  0  0  0  0  0  0  0  0  0  0  0
   -0.8041    9.5919   15.8514 N   0  0  0  0  0  0  0  0  0  0  0  0
  1  9  1  0
  1 18  1  0
  1 27  2  0
  2  4  1  0
  2 20  2  0
  2 22  1  0
  3 10  1  0
  3 11  1  0
  4  7  1  0
  4 13  1  0
  5 16  1  0
  5 24  1  0
  6 10  1  0
  6 20  1  0
  6 21  2  0
  7 16  1  0
  7 27  1  0
  8 13  2  0
 10 13  1  0
 11 25  1  0
 11 28  1  0
 12 17  1  0
 12 23  2  0
 14 15  1  0
 15 25  1  0
 16 19  2  0
 17 22  2  0
 18 24  2  0
 18 26  1  0
 20 23  1  0
 22 27  1  0
M  END
>  <ID>  (1) 
conformer_0

$$$$
