
     RDKit          3D

 27 32  0  0  0  0  0  0  0  0999 V2000
   -6.7029   11.7733   15.9582 C   0  0  0  0  0  0  0  0  0  0  0  0
   -2.5260    9.5068   17.3354 C   0  0  0  0  0  0  0  0  0  0  0  0
   -6.1930    9.4543   15.1842 C   0  0  0  0  0  0  0  0  0  0  0  0
   -7.9643   14.3015   17.5202 N   0  0  0  0  0  0  0  0  0  0  0  0
   -4.4196   10.6448   16.1345 C   0  0  0  0  0  0  0  0  0  0  0  0
   -2.1334   12.9349   15.5025 Cl  0  0  0  0  0  0  0  0  0  0  0  0
  -10.3138   11.6837   15.4024 C   0  0  0  0  0  0  0  0  0  0  0  0
   -1.1670    9.7843   17.6261 C   0  0  0  0  0  0  0  0  0  0  0  0
   -5.2414   11.8354   16.2086 C   0  0  0  0  0  0  0  0  0  0  0  0
   -8.9886   11.4791   15.4313 N   0  0  0  0  0  0  0  0  0  0  0  0
   -0.3204    9.0085   18.3001 O   0  0  0  0  0  0  0  0  0  0  0  0
  -10.9300   12.5974   16.1768 C   0  0  0  0  0  0  0  0  0  0  0  0
   -4.9164    9.4213   15.6193 C   0  0  0  0  0  0  0  0  0  0  0  0
   -8.0843   12.3559   16.1191 C   0  0  0  0  0  0  0  0  0  0  0  0
   -0.8492   11.0629   17.0323 C   0  0  0  0  0  0  0  0  0  0  0  0
   -8.3615    9.1436   14.4052 C   0  0  0  0  0  0  0  0  0  0  0  0
  -10.5547   16.0452   19.4083 O   0  0  0  0  0  0  0  0  0  0  0  0
   -7.0066    8.5373   14.5351 N   0  0  0  0  0  0  0  0  0  0  0  0
   -8.7030   13.3691   16.8463 C   0  0  0  0  0  0  0  0  0  0  0  0
  -10.1079   13.4601   16.9455 C   0  0  0  0  0  0  0  0  0  0  0  0
   -9.9285   15.2302   18.5398 C   0  0  0  0  0  0  0  0  0  0  0  0
   -6.9332   10.5543   15.3896 C   0  0  0  0  0  0  0  0  0  0  0  0
  -10.6912   14.3571   17.8065 N   0  0  0  0  0  0  0  0  0  0  0  0
   -2.0334   11.4875   16.4378 C   0  0  0  0  0  0  0  0  0  0  0  0
   -3.0559   10.5760   16.5980 C   0  0  0  0  0  0  0  0  0  0  0  0
   -8.5416   15.1871   18.3403 C   0  0  0  0  0  0  0  0  0  0  0  0
   -8.2829   10.3568   14.9794 C   0  0  0  0  0  0  0  0  0  0  0  0
  1  9  1  0
  1 14  2  0
  1 22  1  0
  2  8  1  0
  2 25  1  0
  3 13  1  0
  3 18  1  0
  3 22  2  0
  4 19  1  0
  4 26  2  0
  5  9  1  0
  5 13  2  0
  5 25  1  0
  6 24  1  0
  7 10  1  0
  7 12  2  0
  8 11  1  0
  8 15  1  0
 10 14  1  0
 10 27  1  0
 12 20  1  0
 14 19  1  0
 15 24  1  0
 16 18  1  0
 16 27  1  0
 17 21  2  0
 19 20  2  0
 20 23  1  0
 21 23  1  0
 21 26  1  0
 22 27  1  0
 24 25  2  0
M  END
>  <ID>  (1) 
conformer_0

$$$$
