
     RDKit          3D

 37 44  0  0  0  0  0  0  0  0999 V2000
   -9.9427   12.4149   16.0923 N   0  0  0  0  0  0  0  0  0  0  0  0
   -4.5501   13.8971   18.2224 C   0  0  0  0  0  0  0  0  0  0  0  0
   -9.6913   13.9980   17.6158 C   0  0  0  0  0  0  0  0  0  0  0  0
  -11.1607   12.8057   16.5497 C   0  0  0  0  0  0  0  0  0  0  0  0
   -1.9397   11.7574   18.9718 N   0  0  0  0  0  0  0  0  0  0  0  0
   -9.9495   15.9767   19.2580 C   0  0  0  0  0  0  0  0  0  0  0  0
  -11.0401   13.7382   17.4795 N   0  0  0  0  0  0  0  0  0  0  0  0
   -5.5663   11.4003   15.6865 C   0  0  0  0  0  0  0  0  0  0  0  0
   -2.3244    9.3339   17.5136 C   0  0  0  0  0  0  0  0  0  0  0  0
   -6.5674    9.4164   14.8487 N   0  0  0  0  0  0  0  0  0  0  0  0
   -6.6522   14.6518   18.2215 C   0  0  0  0  0  0  0  0  0  0  0  0
   -8.9672   16.8723   19.9419 C   0  0  0  0  0  0  0  0  0  0  0  0
   -9.0592   13.1333   16.8105 N   0  0  0  0  0  0  0  0  0  0  0  0
   -2.9189   14.1450   20.0539 N   0  0  0  0  0  0  0  0  0  0  0  0
   -8.2611   11.3736   14.5858 C   0  0  0  0  0  0  0  0  0  0  0  0
   -6.4204   14.0331   16.9917 C   0  0  0  0  0  0  0  0  0  0  0  0
   -0.4085    8.4587   18.6582 C   0  0  0  0  0  0  0  0  0  0  0  0
   -0.8524   10.8390   19.0308 C   0  0  0  0  0  0  0  0  0  0  0  0
  -10.1283   10.1881   14.8243 C   0  0  0  0  0  0  0  0  0  0  0  0
   -4.8120   12.0836   16.5607 C   0  0  0  0  0  0  0  0  0  0  0  0
   -5.4836   10.0477   15.5147 C   0  0  0  0  0  0  0  0  0  0  0  0
   -8.9369    9.2426   14.4268 N   0  0  0  0  0  0  0  0  0  0  0  0
   -9.5914   11.4251   15.1417 C   0  0  0  0  0  0  0  0  0  0  0  0
   -9.2046   15.0668   18.5144 C   0  0  0  0  0  0  0  0  0  0  0  0
   -1.7898   13.1400   18.4991 C   0  0  0  0  0  0  0  0  0  0  0  0
   -3.4863   10.0600   16.8000 C   0  0  0  0  0  0  0  0  0  0  0  0
   -4.3894    9.3618   15.9901 N   0  0  0  0  0  0  0  0  0  0  0  0
   -5.4505   14.5422   18.9837 C   0  0  0  0  0  0  0  0  0  0  0  0
   -3.7063   11.4036   16.9436 C   0  0  0  0  0  0  0  0  0  0  0  0
   -5.2061   13.3362   17.1047 N   0  0  0  0  0  0  0  0  0  0  0  0
   -7.7773   10.0082   14.5279 C   0  0  0  0  0  0  0  0  0  0  0  0
   -7.7826   12.4092   13.9640 O   0  0  0  0  0  0  0  0  0  0  0  0
   -7.7827   15.3498   18.7442 C   0  0  0  0  0  0  0  0  0  0  0  0
   -1.5808   13.6632   20.1696 C   0  0  0  0  0  0  0  0  0  0  0  0
   -3.0994   13.9431   18.5323 C   0  0  0  0  0  0  0  0  0  0  0  0
   -7.6852   16.4234   19.6267 C   0  0  0  0  0  0  0  0  0  0  0  0
   -1.0495    9.6925   18.1307 N   0  0  0  0  0  0  0  0  0  0  0  0
  1  4  1  0
  1 13  1  0
  1 23  1  0
  2 28  1  0
  2 30  1  0
  2 35  1  0
  3  7  1  0
  3 13  1  0
  3 24  2  0
  4  7  1  0
  5 18  1  0
  5 25  1  0
  6 12  1  0
  6 24  1  0
  8 20  1  0
  8 21  1  0
  9 26  1  0
  9 37  1  0
 10 21  1  0
 10 31  2  0
 11 16  1  0
 11 28  1  0
 11 33  1  0
 12 36  1  0
 14 34  1  0
 14 35  1  0
 15 23  1  0
 15 31  1  0
 15 32  1  0
 16 30  1  0
 17 37  1  0
 18 37  1  0
 19 22  1  0
 19 23  1  0
 20 29  1  0
 20 30  1  0
 21 27  2  0
 22 31  1  0
 24 33  1  0
 25 34  1  0
 25 35  1  0
 26 27  1  0
 26 29  2  0
 33 36  1  0
M  END
>  <ID>  (1) 
conformer_0

$$$$
