
     RDKit          3D

 26 29  0  0  0  0  0  0  0  0999 V2000
   -9.7036   12.6180   16.2722 C   0  0  0  0  0  0  0  0  0  0  0  0
   -1.8042   13.2407   17.2572 C   0  0  0  0  0  0  0  0  0  0  0  0
   -7.9114    8.4626   14.3855 C   0  0  0  0  0  0  0  0  0  0  0  0
   -8.7024   14.3665   17.7035 C   0  0  0  0  0  0  0  0  0  0  0  0
  -10.9708   13.0156   16.7228 C   0  0  0  0  0  0  0  0  0  0  0  0
   -3.3870   11.7208   16.3497 C   0  0  0  0  0  0  0  0  0  0  0  0
   -9.6664   11.5515   15.3491 C   0  0  0  0  0  0  0  0  0  0  0  0
  -10.8550   11.1884   14.7585 N   0  0  0  0  0  0  0  0  0  0  0  0
   -2.0814    8.9298   18.0893 N   0  0  0  0  0  0  0  0  0  0  0  0
  -11.0780   14.0401   17.6457 C   0  0  0  0  0  0  0  0  0  0  0  0
   -6.2793    9.8536   15.4033 C   0  0  0  0  0  0  0  0  0  0  0  0
   -1.2555   10.8871   16.9625 O   0  0  0  0  0  0  0  0  0  0  0  0
   -6.6517    8.6321   14.9339 C   0  0  0  0  0  0  0  0  0  0  0  0
   -5.4997   12.4228   15.8326 N   0  0  0  0  0  0  0  0  0  0  0  0
   -8.5616   10.6762   15.0687 C   0  0  0  0  0  0  0  0  0  0  0  0
   -8.5890   13.3283   16.7887 C   0  0  0  0  0  0  0  0  0  0  0  0
   -7.2276   10.9041   15.4616 C   0  0  0  0  0  0  0  0  0  0  0  0
   -9.9362   14.7325   18.1467 C   0  0  0  0  0  0  0  0  0  0  0  0
   -8.8343    9.4609   14.4136 C   0  0  0  0  0  0  0  0  0  0  0  0
   -7.3612   13.0769   16.4126 N   0  0  0  0  0  0  0  0  0  0  0  0
   -6.7304   12.1623   15.8886 C   0  0  0  0  0  0  0  0  0  0  0  0
   -2.7686   14.2557   17.1993 C   0  0  0  0  0  0  0  0  0  0  0  0
   -1.7614    9.5561   16.8285 C   0  0  0  0  0  0  0  0  0  0  0  0
   -4.3279   12.7050   16.2924 C   0  0  0  0  0  0  0  0  0  0  0  0
   -4.0216   13.9888   16.6997 C   0  0  0  0  0  0  0  0  0  0  0  0
   -2.1343   11.9429   16.8472 C   0  0  0  0  0  0  0  0  0  0  0  0
  1  5  2  0
  1  7  1  0
  1 16  1  0
  2 22  2  0
  2 26  1  0
  3 13  1  0
  3 19  2  0
  4 16  2  0
  4 18  1  0
  5 10  1  0
  6 24  1  0
  6 26  2  0
  7  8  1  0
  7 15  2  0
  9 23  1  0
 10 18  2  0
 11 13  2  0
 11 17  1  0
 12 23  1  0
 12 26  1  0
 14 21  1  0
 14 24  1  0
 15 17  1  0
 15 19  1  0
 16 20  1  0
 17 21  1  0
 20 21  2  0
 22 25  1  0
 24 25  2  0
M  END
>  <ID>  (1) 
conformer_0

$$$$
