
     RDKit          3D

 26 28  0  0  0  0  0  0  0  0999 V2000
   -8.6694   17.4839   19.3872 C   0  0  0  0  0  0  0  0  0  0  0  0
   -7.7531   12.6502   16.6569 C   0  0  0  0  0  0  0  0  0  0  0  0
   -8.8511   14.2316   17.8327 N   0  0  0  0  0  0  0  0  0  0  0  0
   -2.6122    9.7958   16.2149 C   0  0  0  0  0  0  0  0  0  0  0  0
   -5.4821   13.1418   17.6792 C   0  0  0  0  0  0  0  0  0  0  0  0
   -1.7912    9.3487   18.3785 C   0  0  0  0  0  0  0  0  0  0  0  0
   -6.7983    8.9273   14.7650 O   0  0  0  0  0  0  0  0  0  0  0  0
   -6.7912   13.3600   17.4674 C   0  0  0  0  0  0  0  0  0  0  0  0
   -7.8138    9.6002   14.4408 C   0  0  0  0  0  0  0  0  0  0  0  0
   -2.7064   10.3987   17.6533 C   0  0  0  0  0  0  0  0  0  0  0  0
   -9.6133   11.0444   15.0875 C   0  0  0  0  0  0  0  0  0  0  0  0
   -8.5829    9.2011   13.5574 O   0  0  0  0  0  0  0  0  0  0  0  0
  -10.3069   12.8742   16.4961 C   0  0  0  0  0  0  0  0  0  0  0  0
  -10.5424   11.8107   15.6203 C   0  0  0  0  0  0  0  0  0  0  0  0
   -4.5029   12.2337   17.2340 C   0  0  0  0  0  0  0  0  0  0  0  0
   -8.2764   10.8094   15.1287 C   0  0  0  0  0  0  0  0  0  0  0  0
   -8.9933   13.1882   16.9331 C   0  0  0  0  0  0  0  0  0  0  0  0
   -7.1585   15.4669   19.1474 C   0  0  0  0  0  0  0  0  0  0  0  0
   -8.4096   16.0871   19.8133 C   0  0  0  0  0  0  0  0  0  0  0  0
   -6.0220   11.3624   15.5305 C   0  0  0  0  0  0  0  0  0  0  0  0
   -7.5455   14.3895   18.1862 C   0  0  0  0  0  0  0  0  0  0  0  0
  -11.3028   13.5707   16.9254 O   0  0  0  0  0  0  0  0  0  0  0  0
   -4.7958   11.5248   16.0340 C   0  0  0  0  0  0  0  0  0  0  0  0
   -7.3455   11.6163   15.7718 C   0  0  0  0  0  0  0  0  0  0  0  0
   -9.7230   15.4896   20.0937 O   0  0  0  0  0  0  0  0  0  0  0  0
   -3.2613   11.8537   18.0268 C   0  0  0  0  0  0  0  0  0  0  0  0
  1 19  1  0
  2  8  1  0
  2 17  1  0
  2 24  2  0
  3 17  1  0
  3 21  1  0
  4 10  1  0
  5  8  2  0
  5 15  1  0
  6 10  1  0
  7  9  2  0
  8 21  1  0
  9 12  1  0
  9 16  1  0
 10 26  1  0
 11 14  1  0
 11 16  2  0
 13 14  2  0
 13 17  1  0
 13 22  1  0
 15 23  1  0
 15 26  1  0
 16 24  1  0
 18 19  1  0
 18 21  1  0
 19 25  1  0
 20 23  2  0
 20 24  1  0
M  END
>  <ID>  (1) 
conformer_0

$$$$
