
     RDKit          3D

 40 44  0  0  0  0  0  0  0  0999 V2000
   -2.0216   13.7156   19.4690 N   0  0  0  0  0  0  0  0  0  0  0  0
  -10.8199   12.6706   16.2455 N   0  0  0  0  0  0  0  0  0  0  0  0
   -1.9889    8.5125   14.6142 O   0  0  0  0  0  0  0  0  0  0  0  0
   -8.0382    8.4926   13.9991 C   0  0  0  0  0  0  0  0  0  0  0  0
   -2.2629    9.6639   15.0546 C   0  0  0  0  0  0  0  0  0  0  0  0
   -8.2560   14.2572   17.9293 C   0  0  0  0  0  0  0  0  0  0  0  0
   -1.6159   15.8728   20.6174 C   0  0  0  0  0  0  0  0  0  0  0  0
   -4.1917    9.8058   16.5130 O   0  0  0  0  0  0  0  0  0  0  0  0
   -8.2805   12.6423   16.2002 C   0  0  0  0  0  0  0  0  0  0  0  0
   -5.9561   11.3920   16.0837 C   0  0  0  0  0  0  0  0  0  0  0  0
  -10.2354   15.5908   18.2937 F   0  0  0  0  0  0  0  0  0  0  0  0
   -7.3594    9.4727   14.8010 C   0  0  0  0  0  0  0  0  0  0  0  0
   -2.9817   13.1270   18.5511 C   0  0  0  0  0  0  0  0  0  0  0  0
    0.3986    9.3152   16.1048 O   0  0  0  0  0  0  0  0  0  0  0  0
   -1.5970    9.6228   17.5112 C   0  0  0  0  0  0  0  0  0  0  0  0
   -9.6060   12.1987   15.8254 C   0  0  0  0  0  0  0  0  0  0  0  0
    0.4564    7.8002   18.9385 C   0  0  0  0  0  0  0  0  0  0  0  0
   -7.6023   13.7822   16.7095 C   0  0  0  0  0  0  0  0  0  0  0  0
   -2.6780   11.6259   18.5043 C   0  0  0  0  0  0  0  0  0  0  0  0
   -0.5363    8.7835   16.9083 C   0  0  0  0  0  0  0  0  0  0  0  0
   -2.2200    8.9243   18.6949 C   0  0  0  0  0  0  0  0  0  0  0  0
   -6.0552    9.2332   15.1653 N   0  0  0  0  0  0  0  0  0  0  0  0
   -1.8084   15.1517   19.3591 C   0  0  0  0  0  0  0  0  0  0  0  0
   -3.6069   14.3642   17.8532 C   0  0  0  0  0  0  0  0  0  0  0  0
   -9.4661   11.0139   15.0711 C   0  0  0  0  0  0  0  0  0  0  0  0
   -9.7673   14.3788   17.6751 C   0  0  0  0  0  0  0  0  0  0  0  0
   -5.3854   10.1495   15.8916 C   0  0  0  0  0  0  0  0  0  0  0  0
  -10.8937   13.6311   17.1847 N   0  0  0  0  0  0  0  0  0  0  0  0
   -8.0533   10.6503   15.2090 C   0  0  0  0  0  0  0  0  0  0  0  0
   -2.4824   10.6402   14.2495 O   0  0  0  0  0  0  0  0  0  0  0  0
   -7.3367   11.6087   15.8421 C   0  0  0  0  0  0  0  0  0  0  0  0
   -1.4195   11.4384   19.4132 C   0  0  0  0  0  0  0  0  0  0  0  0
   -2.2070   10.9957   17.1756 C   0  0  0  0  0  0  0  0  0  0  0  0
   -1.6096   11.9352   16.3972 O   0  0  0  0  0  0  0  0  0  0  0  0
   -2.7724    9.7996   16.4519 C   0  0  0  0  0  0  0  0  0  0  0  0
   -3.0122   15.5466   18.5440 O   0  0  0  0  0  0  0  0  0  0  0  0
   -1.0466   12.7762   19.9056 C   0  0  0  0  0  0  0  0  0  0  0  0
   -6.5513   14.2771   16.2197 O   0  0  0  0  0  0  0  0  0  0  0  0
   -0.5244   15.3646   18.5234 C   0  0  0  0  0  0  0  0  0  0  0  0
   -0.1688    7.4969   17.5730 C   0  0  0  0  0  0  0  0  0  0  0  0
  1 13  1  0
  1 23  1  0
  1 37  1  0
  2 16  2  0
  2 28  1  0
  3  5  2  0
  4 12  1  0
  5 30  1  0
  5 35  1  0
  6 18  1  0
  6 26  1  0
  7 23  1  0
  8 27  1  0
  8 35  1  0
  9 16  1  0
  9 18  1  0
  9 31  1  0
 10 27  1  0
 10 31  1  0
 11 26  1  0
 12 22  1  0
 12 29  1  0
 13 19  1  0
 13 24  1  0
 14 20  1  0
 15 20  1  0
 15 21  1  0
 15 33  1  0
 16 25  1  0
 17 40  1  0
 18 38  2  0
 19 32  1  0
 19 33  1  0
 20 40  1  0
 22 27  2  0
 23 36  1  0
 23 39  1  0
 24 36  1  0
 25 29  1  0
 26 28  1  0
 29 31  2  0
 32 37  1  0
 33 34  1  0
 33 35  1  0
M  END
>  <ID>  (1) 
conformer_0

$$$$
