
     RDKit          3D

 28 30  0  0  0  0  0  0  0  0999 V2000
   -4.7303   12.5955   18.7590 O   0  0  0  0  0  0  0  0  0  0  0  0
   -8.9906   12.2077   15.9766 C   0  0  0  0  0  0  0  0  0  0  0  0
   -3.5698   13.8069   17.0621 C   0  0  0  0  0  0  0  0  0  0  0  0
   -6.6287   10.1030   14.6603 O   0  0  0  0  0  0  0  0  0  0  0  0
   -4.7503   15.4124   18.4276 O   0  0  0  0  0  0  0  0  0  0  0  0
   -2.8376    9.8858   17.5070 C   0  0  0  0  0  0  0  0  0  0  0  0
   -7.2587   11.0341   15.1300 C   0  0  0  0  0  0  0  0  0  0  0  0
   -8.6604   11.0970   15.1288 N   0  0  0  0  0  0  0  0  0  0  0  0
   -9.0738   14.4856   17.7173 C   0  0  0  0  0  0  0  0  0  0  0  0
   -4.4503   14.4395   16.2072 O   0  0  0  0  0  0  0  0  0  0  0  0
   -1.1565    8.5664   16.2324 N   0  0  0  0  0  0  0  0  0  0  0  0
   -9.8871   10.5781   14.6468 C   0  0  0  0  0  0  0  0  0  0  0  0
   -0.9779    8.4006   18.5153 C   0  0  0  0  0  0  0  0  0  0  0  0
   -4.3962   11.6185   16.5140 C   0  0  0  0  0  0  0  0  0  0  0  0
  -11.1051   13.1934   16.8621 N   0  0  0  0  0  0  0  0  0  0  0  0
   -2.7428   10.5073   18.7480 O   0  0  0  0  0  0  0  0  0  0  0  0
   -5.3558   12.3280   15.7373 O   0  0  0  0  0  0  0  0  0  0  0  0
   -6.7395   12.1400   15.7963 N   0  0  0  0  0  0  0  0  0  0  0  0
  -10.4834   14.1669   17.5677 N   0  0  0  0  0  0  0  0  0  0  0  0
   -3.9274   12.4937   17.6450 C   0  0  0  0  0  0  0  0  0  0  0  0
   -1.7889    8.8111   17.3879 C   0  0  0  0  0  0  0  0  0  0  0  0
   -7.8642   13.9902   17.2206 C   0  0  0  0  0  0  0  0  0  0  0  0
   -7.8239   12.8392   16.3704 C   0  0  0  0  0  0  0  0  0  0  0  0
   -3.7879    9.6016   15.3310 O   0  0  0  0  0  0  0  0  0  0  0  0
   -4.2733   14.9527   17.4050 C   0  0  0  0  0  0  0  0  0  0  0  0
  -10.3595   12.3191   16.0947 C   0  0  0  0  0  0  0  0  0  0  0  0
   -3.9646   10.2244   16.5489 C   0  0  0  0  0  0  0  0  0  0  0  0
  -10.9308   11.3517   15.3147 N   0  0  0  0  0  0  0  0  0  0  0  0
  1 20  1  0
  2  8  1  0
  2 23  2  0
  2 26  1  0
  3 20  1  0
  3 25  1  0
  4  7  2  0
  5 25  2  0
  6 16  1  0
  6 21  1  0
  6 27  1  0
  7  8  1  0
  7 18  1  0
  8 12  1  0
  9 19  2  0
  9 22  1  0
 10 25  1  0
 11 21  1  0
 12 28  1  0
 13 21  1  0
 14 17  1  0
 14 20  1  0
 14 27  1  0
 15 19  1  0
 15 26  2  0
 17 18  1  0
 18 23  1  0
 22 23  1  0
 24 27  1  0
 26 28  1  0
M  END
>  <ID>  (1) 
conformer_0

$$$$
