
     RDKit          3D

 37 43  0  0  0  0  0  0  0  0999 V2000
   -2.7010   11.6059   16.4190 N   0  0  0  0  0  0  0  0  0  0  0  0
   -4.1311   14.6055   18.0674 C   0  0  0  0  0  0  0  0  0  0  0  0
   -4.6032   10.7980   14.8755 O   0  0  0  0  0  0  0  0  0  0  0  0
   -4.6089    9.5754   15.5999 C   0  0  0  0  0  0  0  0  0  0  0  0
   -7.9899   13.1226   15.2892 C   0  0  0  0  0  0  0  0  0  0  0  0
   -8.7769   11.9243   15.4283 C   0  0  0  0  0  0  0  0  0  0  0  0
   -9.3877   16.8349   19.7235 C   0  0  0  0  0  0  0  0  0  0  0  0
  -10.6493   10.0005   15.1643 C   0  0  0  0  0  0  0  0  0  0  0  0
   -9.0756   13.8328   17.2974 C   0  0  0  0  0  0  0  0  0  0  0  0
   -3.4866    9.2009   16.4037 C   0  0  0  0  0  0  0  0  0  0  0  0
   -2.9261   12.8726   16.9364 C   0  0  0  0  0  0  0  0  0  0  0  0
   -5.5156    7.3573   15.2625 C   0  0  0  0  0  0  0  0  0  0  0  0
   -9.3129    9.7019   14.8785 C   0  0  0  0  0  0  0  0  0  0  0  0
   -1.7705   13.5131   17.2711 C   0  0  0  0  0  0  0  0  0  0  0  0
   -1.7746   14.6466   18.0295 C   0  0  0  0  0  0  0  0  0  0  0  0
   -5.4496   13.1181   16.7855 C   0  0  0  0  0  0  0  0  0  0  0  0
   -7.9051   16.3427   19.7441 C   0  0  0  0  0  0  0  0  0  0  0  0
   -5.3187   15.1294   18.5849 C   0  0  0  0  0  0  0  0  0  0  0  0
   -3.8479    8.7614   17.7325 O   0  0  0  0  0  0  0  0  0  0  0  0
   -4.1756   13.4940   17.2267 C   0  0  0  0  0  0  0  0  0  0  0  0
   -5.7754    8.7731   15.2430 C   0  0  0  0  0  0  0  0  0  0  0  0
   -6.5795   14.7316   18.1988 C   0  0  0  0  0  0  0  0  0  0  0  0
   -7.0211    9.5014   14.8659 C   0  0  0  0  0  0  0  0  0  0  0  0
   -6.3464    6.8142   14.2781 N   0  0  0  0  0  0  0  0  0  0  0  0
   -2.9491   15.1885   18.4189 C   0  0  0  0  0  0  0  0  0  0  0  0
   -8.0233    8.4661   14.4212 N   0  0  0  0  0  0  0  0  0  0  0  0
   -7.8936   13.6174   16.5988 C   0  0  0  0  0  0  0  0  0  0  0  0
   -6.6248   13.7852   17.1478 C   0  0  0  0  0  0  0  0  0  0  0  0
   -2.3587   10.2000   16.6210 C   0  0  0  0  0  0  0  0  0  0  0  0
   -7.8129   14.0460   14.2388 F   0  0  0  0  0  0  0  0  0  0  0  0
   -8.3556   10.5869   15.0644 C   0  0  0  0  0  0  0  0  0  0  0  0
   -9.0191   14.6764   18.3675 N   0  0  0  0  0  0  0  0  0  0  0  0
   -7.7990   15.2245   18.7629 C   0  0  0  0  0  0  0  0  0  0  0  0
  -10.1883   13.1662   16.9025 N   0  0  0  0  0  0  0  0  0  0  0  0
   -9.9924   12.1180   16.0427 C   0  0  0  0  0  0  0  0  0  0  0  0
   -7.5217    7.3537   13.8717 C   0  0  0  0  0  0  0  0  0  0  0  0
  -10.9650   11.1961   15.8170 C   0  0  0  0  0  0  0  0  0  0  0  0
  1 11  1  0
  1 29  1  0
  2 18  1  0
  2 20  2  0
  2 25  1  0
  3  4  1  0
  4 10  1  0
  4 21  1  0
  5  6  1  0
  5 27  1  0
  5 30  1  0
  6 31  1  0
  6 35  1  0
  7 17  1  0
  8 13  1  0
  8 37  1  0
  9 27  1  0
  9 32  1  0
  9 34  2  0
 10 19  1  0
 10 29  1  0
 11 14  2  0
 11 20  1  0
 12 21  1  0
 12 24  1  0
 13 31  2  0
 14 15  1  0
 15 25  2  0
 16 20  1  0
 16 28  2  0
 17 33  1  0
 18 22  2  0
 21 23  1  0
 22 28  1  0
 22 33  1  0
 23 26  1  0
 23 31  1  0
 24 36  2  0
 26 36  1  0
 27 28  1  0
 32 33  2  0
 34 35  1  0
 35 37  2  0
M  END
>  <ID>  (1) 
conformer_0

$$$$
