
     RDKit          3D

 30 35  0  0  0  0  0  0  0  0999 V2000
   -6.7496   13.2344   16.7957 C   0  0  0  0  0  0  0  0  0  0  0  0
   -8.1091   15.5180   18.3112 C   0  0  0  0  0  0  0  0  0  0  0  0
  -10.1986   14.2223   17.4925 N   0  0  0  0  0  0  0  0  0  0  0  0
   -5.0822    9.9830   15.8702 C   0  0  0  0  0  0  0  0  0  0  0  0
   -8.1714   10.3660   14.9963 C   0  0  0  0  0  0  0  0  0  0  0  0
   -9.5505   10.3574   14.5440 C   0  0  0  0  0  0  0  0  0  0  0  0
  -10.1805   11.4350   15.1045 N   0  0  0  0  0  0  0  0  0  0  0  0
   -1.9815    9.4300   14.6995 C   0  0  0  0  0  0  0  0  0  0  0  0
   -5.9598    9.0906   15.2588 C   0  0  0  0  0  0  0  0  0  0  0  0
   -3.0410   14.0429   17.1633 C   0  0  0  0  0  0  0  0  0  0  0  0
  -10.4053   13.1513   16.6538 N   0  0  0  0  0  0  0  0  0  0  0  0
   -7.9664   11.5134   15.7140 C   0  0  0  0  0  0  0  0  0  0  0  0
   -8.7892   16.5018   18.7070 O   0  0  0  0  0  0  0  0  0  0  0  0
   -6.6920   11.9322   16.1222 C   0  0  0  0  0  0  0  0  0  0  0  0
   -2.3496    8.7858   18.3054 C   0  0  0  0  0  0  0  0  0  0  0  0
   -5.5144   13.8540   17.1629 C   0  0  0  0  0  0  0  0  0  0  0  0
   -4.2300   13.5315   16.7054 C   0  0  0  0  0  0  0  0  0  0  0  0
   -5.5597   11.2300   16.0660 C   0  0  0  0  0  0  0  0  0  0  0  0
   -6.7233   15.5310   18.4528 N   0  0  0  0  0  0  0  0  0  0  0  0
   -3.1109   15.0511   18.1169 C   0  0  0  0  0  0  0  0  0  0  0  0
   -5.5556   14.9635   18.0547 C   0  0  0  0  0  0  0  0  0  0  0  0
   -2.6424   10.3750   15.7562 C   0  0  0  0  0  0  0  0  0  0  0  0
   -4.3517   15.4971   18.5161 C   0  0  0  0  0  0  0  0  0  0  0  0
   -8.1288   13.5196   16.9279 C   0  0  0  0  0  0  0  0  0  0  0  0
   -3.7726    9.6489   16.3940 N   0  0  0  0  0  0  0  0  0  0  0  0
   -9.1273   12.4100   16.0981 C   0  0  0  0  0  0  0  0  0  0  0  0
   -7.2490    9.2772   14.8158 C   0  0  0  0  0  0  0  0  0  0  0  0
   -7.6522    8.2468   14.0974 O   0  0  0  0  0  0  0  0  0  0  0  0
   -3.5836    9.6034   17.8683 C   0  0  0  0  0  0  0  0  0  0  0  0
   -8.8202   14.4246   17.5895 C   0  0  0  0  0  0  0  0  0  0  0  0
  1 14  1  0
  1 16  1  0
  1 24  1  0
  2 13  2  0
  2 19  1  0
  2 30  1  0
  3 11  1  0
  3 30  1  0
  4  9  1  0
  4 18  1  0
  4 25  1  0
  5  6  1  0
  5 12  1  0
  5 27  1  0
  6  7  1  0
  7 26  1  0
  8 22  1  0
  9 27  2  0
 10 17  2  0
 10 20  1  0
 11 26  1  0
 12 14  2  0
 12 26  1  0
 14 18  1  0
 15 29  1  0
 16 17  1  0
 16 21  1  0
 19 21  2  0
 20 23  2  0
 21 23  1  0
 22 25  1  0
 24 26  1  0
 24 30  2  0
 25 29  1  0
 27 28  1  0
M  END
>  <ID>  (1) 
conformer_0

$$$$
