
     RDKit          3D

 31 35  0  0  0  0  0  0  0  0999 V2000
   -1.3667    8.4796   14.4386 O   0  0  0  0  0  0  0  0  0  0  0  0
   -9.0746   13.8994   16.9993 C   0  0  0  0  0  0  0  0  0  0  0  0
   -6.7347   15.9240   19.5901 C   0  0  0  0  0  0  0  0  0  0  0  0
   -4.7196   14.4414   19.7585 C   0  0  0  0  0  0  0  0  0  0  0  0
   -3.7764   12.5627   16.9756 C   0  0  0  0  0  0  0  0  0  0  0  0
   -8.9390   15.6804   18.7311 C   0  0  0  0  0  0  0  0  0  0  0  0
   -4.1266   13.6057   19.9346 N   0  0  0  0  0  0  0  0  0  0  0  0
  -10.8749   12.3237   15.9927 N   0  0  0  0  0  0  0  0  0  0  0  0
   -4.1579   14.0525   18.8601 C   0  0  0  0  0  0  0  0  0  0  0  0
   -2.0192    9.4792   15.0783 C   0  0  0  0  0  0  0  0  0  0  0  0
  -10.2235   14.0510   17.4796 C   0  0  0  0  0  0  0  0  0  0  0  0
   -8.2146   13.4086   16.2591 C   0  0  0  0  0  0  0  0  0  0  0  0
   -7.5748   15.4073   18.5595 O   0  0  0  0  0  0  0  0  0  0  0  0
   -5.5422   15.4022   20.1474 N   0  0  0  0  0  0  0  0  0  0  0  0
   -3.3142    9.5210   15.1704 N   0  0  0  0  0  0  0  0  0  0  0  0
   -9.0356   16.6061   19.9214 C   0  0  0  0  0  0  0  0  0  0  0  0
   -3.7126   13.7251   17.6340 C   0  0  0  0  0  0  0  0  0  0  0  0
   -3.9955   10.5373   15.6795 C   0  0  0  0  0  0  0  0  0  0  0  0
   -1.8795   11.4490   16.2596 C   0  0  0  0  0  0  0  0  0  0  0  0
   -8.4738   12.2213   15.6211 N   0  0  0  0  0  0  0  0  0  0  0  0
   -7.3913   11.7019   15.1573 C   0  0  0  0  0  0  0  0  0  0  0  0
   -8.4092    9.9523   14.4046 N   0  0  0  0  0  0  0  0  0  0  0  0
  -10.2303   15.0086   18.4889 N   0  0  0  0  0  0  0  0  0  0  0  0
   -9.7043   11.7212   15.4664 C   0  0  0  0  0  0  0  0  0  0  0  0
   -7.1722   10.4196   14.9305 C   0  0  0  0  0  0  0  0  0  0  0  0
   -9.6176   10.5524   14.6328 C   0  0  0  0  0  0  0  0  0  0  0  0
  -11.1810   13.2681   16.9149 N   0  0  0  0  0  0  0  0  0  0  0  0
   -1.2179   10.4511   15.6837 N   0  0  0  0  0  0  0  0  0  0  0  0
   -7.6671   16.6153   20.5477 C   0  0  0  0  0  0  0  0  0  0  0  0
   -3.2108   11.5702   16.3353 C   0  0  0  0  0  0  0  0  0  0  0  0
   -5.4844   10.4627   15.5130 C   0  0  0  0  0  0  0  0  0  0  0  0
  1 10  2  0
  2 11  2  0
  2 12  2  0
  3 13  1  0
  3 14  1  0
  3 29  1  0
  4  7  1  0
  4  9  2  0
  4 14  1  0
  5 17  1  0
  5 30  2  0
  6 13  1  0
  6 16  1  0
  6 23  1  0
  8 24  1  0
  8 27  2  0
  9 17  2  0
 10 15  1  0
 10 28  1  0
 11 23  1  0
 11 27  1  0
 12 20  1  0
 15 18  1  0
 16 29  1  0
 18 30  1  0
 18 31  2  0
 19 28  2  0
 19 30  1  0
 20 21  1  0
 20 24  1  0
 21 25  1  0
 22 25  1  0
 22 26  2  0
 24 26  1  0
 25 31  2  0
M  END
>  <ID>  (1) 
conformer_0

$$$$
