
     RDKit          3D

 31 35  0  0  0  0  0  0  0  0999 V2000
  -11.1994   13.0127   16.6970 O   0  0  0  0  0  0  0  0  0  0  0  0
   -6.4222   17.0303   18.3951 C   0  0  0  0  0  0  0  0  0  0  0  0
   -8.0237    8.5337   14.2995 C   0  0  0  0  0  0  0  0  0  0  0  0
   -7.8435   15.7253   19.7733 C   0  0  0  0  0  0  0  0  0  0  0  0
  -10.7797   10.8958   15.2999 N   0  0  0  0  0  0  0  0  0  0  0  0
   -8.5880   11.1711   15.3053 C   0  0  0  0  0  0  0  0  0  0  0  0
   -6.4571   14.6759   18.1326 C   0  0  0  0  0  0  0  0  0  0  0  0
   -4.7476   13.7509   16.7941 C   0  0  0  0  0  0  0  0  0  0  0  0
   -2.9431   10.0616   16.3545 C   0  0  0  0  0  0  0  0  0  0  0  0
   -7.9233    7.0550   14.0413 C   0  0  0  0  0  0  0  0  0  0  0  0
   -2.1364   11.1980   16.4135 C   0  0  0  0  0  0  0  0  0  0  0  0
   -9.5529   10.2752   14.9070 C   0  0  0  0  0  0  0  0  0  0  0  0
   -7.3685   16.9534   19.3852 C   0  0  0  0  0  0  0  0  0  0  0  0
   -7.0558    9.4222   14.7435 N   0  0  0  0  0  0  0  0  0  0  0  0
   -7.3783   14.5653   19.1829 C   0  0  0  0  0  0  0  0  0  0  0  0
   -7.2247   10.7227   15.1989 C   0  0  0  0  0  0  0  0  0  0  0  0
   -2.7071   12.4330   16.4578 C   0  0  0  0  0  0  0  0  0  0  0  0
   -4.0880   12.5474   16.4457 C   0  0  0  0  0  0  0  0  0  0  0  0
   -8.9276   13.6329   16.2904 C   0  0  0  0  0  0  0  0  0  0  0  0
   -4.2940   10.1942   16.1781 C   0  0  0  0  0  0  0  0  0  0  0  0
   -6.5288    6.6499   14.2162 O   0  0  0  0  0  0  0  0  0  0  0  0
   -4.8939   11.4202   16.1330 C   0  0  0  0  0  0  0  0  0  0  0  0
   -6.2503   11.5254   15.7404 O   0  0  0  0  0  0  0  0  0  0  0  0
  -10.5415   12.0791   15.9571 C   0  0  0  0  0  0  0  0  0  0  0  0
   -8.0405   14.3024   15.7206 O   0  0  0  0  0  0  0  0  0  0  0  0
   -2.3923    8.8784   16.5009 N   0  0  0  0  0  0  0  0  0  0  0  0
  -10.0985   14.0549   17.0864 C   0  0  0  0  0  0  0  0  0  0  0  0
   -9.3272    9.0747   14.3164 N   0  0  0  0  0  0  0  0  0  0  0  0
   -5.9563   15.9097   17.7547 C   0  0  0  0  0  0  0  0  0  0  0  0
   -6.0567   13.5098   17.4463 N   0  0  0  0  0  0  0  0  0  0  0  0
   -9.1821   12.3068   15.8405 C   0  0  0  0  0  0  0  0  0  0  0  0
  1 24  1  0
  1 27  1  0
  2 13  2  0
  2 29  1  0
  3 10  1  0
  3 14  1  0
  3 28  1  0
  4 13  1  0
  4 15  2  0
  5 12  1  0
  5 24  1  0
  6 12  1  0
  6 16  1  0
  6 31  1  0
  7 15  1  0
  7 29  2  0
  7 30  1  0
  8 18  1  0
  8 30  1  0
  9 11  1  0
  9 20  1  0
  9 26  2  0
 10 21  1  0
 11 17  2  0
 12 28  2  0
 14 16  2  0
 16 23  1  0
 17 18  1  0
 18 22  1  0
 19 25  2  0
 19 27  1  0
 19 31  1  0
 20 22  2  0
 22 23  1  0
 24 31  2  0
M  END
>  <ID>  (1) 
conformer_0

$$$$
