
     RDKit          3D

 35 40  0  0  0  0  0  0  0  0999 V2000
   -4.2704    8.1079   18.1869 O   0  0  0  0  0  0  0  0  0  0  0  0
  -10.3873   14.8461   18.3950 N   0  0  0  0  0  0  0  0  0  0  0  0
   -8.0164   11.6851   15.2205 C   0  0  0  0  0  0  0  0  0  0  0  0
   -8.5757   13.6799   16.9248 C   0  0  0  0  0  0  0  0  0  0  0  0
   -5.3081   11.3630   15.4136 C   0  0  0  0  0  0  0  0  0  0  0  0
   -8.0532    9.4873   13.7990 C   0  0  0  0  0  0  0  0  0  0  0  0
   -7.1659    8.5855   14.6337 C   0  0  0  0  0  0  0  0  0  0  0  0
  -10.1470   12.3916   16.0343 N   0  0  0  0  0  0  0  0  0  0  0  0
   -8.7662   12.5910   16.0229 N   0  0  0  0  0  0  0  0  0  0  0  0
   -1.9029   14.5021   16.7670 N   0  0  0  0  0  0  0  0  0  0  0  0
   -3.3778   12.7488   16.3288 C   0  0  0  0  0  0  0  0  0  0  0  0
   -9.8837   13.9903   17.4428 C   0  0  0  0  0  0  0  0  0  0  0  0
   -3.3709    8.8078   17.7260 C   0  0  0  0  0  0  0  0  0  0  0  0
   -9.7882   15.7241   19.2727 C   0  0  0  0  0  0  0  0  0  0  0  0
  -10.7001   16.5131   20.2317 C   0  0  0  0  0  0  0  0  0  0  0  0
   -4.9037   10.0469   15.9071 C   0  0  0  0  0  0  0  0  0  0  0  0
   -6.1538   14.7230   16.5503 C   0  0  0  0  0  0  0  0  0  0  0  0
   -8.6868   10.6188   14.5735 C   0  0  0  0  0  0  0  0  0  0  0  0
   -1.8518   14.2071   18.0931 C   0  0  0  0  0  0  0  0  0  0  0  0
   -2.5290   13.0884   18.5591 C   0  0  0  0  0  0  0  0  0  0  0  0
   -8.4336   15.8166   19.2710 C   0  0  0  0  0  0  0  0  0  0  0  0
   -4.1411   11.1275   18.0486 C   0  0  0  0  0  0  0  0  0  0  0  0
   -2.1614    8.7413   18.0056 O   0  0  0  0  0  0  0  0  0  0  0  0
   -1.1386   15.0721   19.0101 C   0  0  0  0  0  0  0  0  0  0  0  0
   -3.7627   10.0507   16.9125 C   0  0  0  0  0  0  0  0  0  0  0  0
   -7.4812   14.4530   17.4103 C   0  0  0  0  0  0  0  0  0  0  0  0
   -6.5702   11.8150   15.0483 O   0  0  0  0  0  0  0  0  0  0  0  0
   -4.2537   12.2016   15.3304 O   0  0  0  0  0  0  0  0  0  0  0  0
  -10.0679   10.5292   14.6628 C   0  0  0  0  0  0  0  0  0  0  0  0
   -3.3237   12.3547   17.6673 C   0  0  0  0  0  0  0  0  0  0  0  0
   -5.7478    8.8738   15.4194 C   0  0  0  0  0  0  0  0  0  0  0  0
  -10.8008   11.4086   15.3793 C   0  0  0  0  0  0  0  0  0  0  0  0
   -7.4845   15.2482   18.5431 C   0  0  0  0  0  0  0  0  0  0  0  0
  -10.8560   13.2032   16.8473 N   0  0  0  0  0  0  0  0  0  0  0  0
   -2.6151   13.7946   15.8945 C   0  0  0  0  0  0  0  0  0  0  0  0
  1 13  2  0
  2 12  1  0
  2 14  2  0
  3  9  1  0
  3 18  2  0
  3 27  1  0
  4  9  1  0
  4 12  2  0
  4 26  1  0
  5 16  1  0
  5 27  1  0
  5 28  1  0
  6  7  1  0
  6 18  1  0
  7 31  1  0
  8  9  1  0
  8 32  1  0
  8 34  1  0
 10 19  1  0
 10 35  2  0
 11 28  1  0
 11 30  2  0
 11 35  1  0
 12 34  1  0
 13 23  1  0
 13 25  1  0
 14 15  1  0
 14 21  1  0
 16 25  1  0
 16 31  2  0
 17 26  1  0
 18 29  1  0
 19 20  2  0
 19 24  1  0
 20 30  1  0
 21 33  2  0
 22 25  1  0
 22 30  1  0
 26 33  1  0
 29 32  2  0
M  END
>  <ID>  (1) 
conformer_0

$$$$
