
     RDKit          3D

 38 44  0  0  0  0  0  0  0  0999 V2000
   -2.1374   10.3031   15.3501 C   0  0  0  0  0  0  0  0  0  0  0  0
   -5.8535   10.4723   15.4606 N   0  0  0  0  0  0  0  0  0  0  0  0
   -6.2043   13.7157   18.2679 C   0  0  0  0  0  0  0  0  0  0  0  0
   -8.8045    7.3060   14.1394 C   0  0  0  0  0  0  0  0  0  0  0  0
   -5.2992   16.0897   18.8226 C   0  0  0  0  0  0  0  0  0  0  0  0
   -9.8204   14.8214   18.2616 C   0  0  0  0  0  0  0  0  0  0  0  0
   -9.1557    9.5562   14.7500 C   0  0  0  0  0  0  0  0  0  0  0  0
   -3.4481   12.6639   15.5136 O   0  0  0  0  0  0  0  0  0  0  0  0
   -9.6493    8.3867   14.2888 C   0  0  0  0  0  0  0  0  0  0  0  0
   -5.1079   14.1139   17.3026 C   0  0  0  0  0  0  0  0  0  0  0  0
   -3.5370   10.1195   14.9546 O   0  0  0  0  0  0  0  0  0  0  0  0
   -7.3938   13.1570   15.8833 C   0  0  0  0  0  0  0  0  0  0  0  0
   -1.9367   13.3409   17.0429 C   0  0  0  0  0  0  0  0  0  0  0  0
   -7.7971    9.5803   15.0000 C   0  0  0  0  0  0  0  0  0  0  0  0
   -0.7055    8.3238   17.8881 O   0  0  0  0  0  0  0  0  0  0  0  0
   -7.2825   14.7184   18.4131 C   0  0  0  0  0  0  0  0  0  0  0  0
   -2.7496   12.2552   16.5094 C   0  0  0  0  0  0  0  0  0  0  0  0
   -7.1585   10.7281   15.3539 C   0  0  0  0  0  0  0  0  0  0  0  0
   -7.4433    7.3635   14.4382 C   0  0  0  0  0  0  0  0  0  0  0  0
   -1.0285    9.4099   18.6435 C   0  0  0  0  0  0  0  0  0  0  0  0
   -8.5266   14.4790   17.7370 C   0  0  0  0  0  0  0  0  0  0  0  0
   -4.5990   15.4715   17.6841 C   0  0  0  0  0  0  0  0  0  0  0  0
   -3.4357    9.7171   17.1891 C   0  0  0  0  0  0  0  0  0  0  0  0
   -9.7041   13.0530   16.0437 C   0  0  0  0  0  0  0  0  0  0  0  0
   -5.5667    9.0063   15.2985 C   0  0  0  0  0  0  0  0  0  0  0  0
   -1.2004   10.6691   17.8129 C   0  0  0  0  0  0  0  0  0  0  0  0
   -8.5437   13.8256   16.4930 C   0  0  0  0  0  0  0  0  0  0  0  0
  -10.8958   13.1027   16.7124 C   0  0  0  0  0  0  0  0  0  0  0  0
   -9.8982   10.7013   14.9825 C   0  0  0  0  0  0  0  0  0  0  0  0
   -4.0959    9.1360   15.9240 C   0  0  0  0  0  0  0  0  0  0  0  0
   -6.9198    8.5434   14.8913 C   0  0  0  0  0  0  0  0  0  0  0  0
   -6.8494   16.1198   18.5882 S   0  0  0  0  0  0  0  0  0  0  0  0
  -10.9013   14.2753   17.4919 O   0  0  0  0  0  0  0  0  0  0  0  0
   -2.3481   10.7669   16.7961 C   0  0  0  0  0  0  0  0  0  0  0  0
   -0.3301    9.6057   19.9240 C   0  0  0  0  0  0  0  0  0  0  0  0
   -9.2800   11.8437   15.4688 C   0  0  0  0  0  0  0  0  0  0  0  0
   -0.3529   11.6635   18.2243 O   0  0  0  0  0  0  0  0  0  0  0  0
   -7.9102   11.8744   15.5307 C   0  0  0  0  0  0  0  0  0  0  0  0
  1 11  1  0
  1 34  1  0
  2 18  1  0
  2 25  1  0
  3 10  1  0
  3 16  1  0
  4  9  1  0
  4 19  1  0
  5 22  1  0
  5 32  1  0
  6 21  1  0
  6 33  1  0
  7  9  2  0
  7 14  1  0
  7 29  1  0
  8 17  2  0
 10 22  1  0
 11 30  1  0
 12 27  1  0
 12 38  1  0
 13 17  1  0
 14 18  2  0
 14 31  1  0
 15 20  1  0
 16 21  1  0
 16 32  1  0
 17 34  1  0
 18 38  1  0
 19 31  2  0
 20 26  1  0
 20 35  1  0
 21 27  1  0
 23 30  1  0
 23 34  1  0
 24 27  1  0
 24 28  1  0
 24 36  1  0
 25 30  1  0
 25 31  1  0
 26 34  1  0
 26 37  1  0
 28 33  1  0
 29 36  1  0
 36 38  2  0
M  END
>  <ID>  (1) 
conformer_0

$$$$
