
     RDKit          3D

 24 28  0  0  0  0  0  0  0  0999 V2000
   -9.2078   13.2476   16.8003 C   0  0  0  0  0  0  0  0  0  0  0  0
   -9.5855   14.8633   18.3597 C   0  0  0  0  0  0  0  0  0  0  0  0
   -9.8269   11.3565   15.2526 C   0  0  0  0  0  0  0  0  0  0  0  0
   -9.2537   10.3320   14.4643 C   0  0  0  0  0  0  0  0  0  0  0  0
   -5.4870   12.5521   16.2318 C   0  0  0  0  0  0  0  0  0  0  0  0
   -7.8819   13.8081   17.1919 C   0  0  0  0  0  0  0  0  0  0  0  0
  -11.1238   11.6127   15.4188 C   0  0  0  0  0  0  0  0  0  0  0  0
   -5.4798   11.2424   15.6805 C   0  0  0  0  0  0  0  0  0  0  0  0
  -10.2254   15.6367   19.2595 N   0  0  0  0  0  0  0  0  0  0  0  0
   -4.7803    9.0175   15.4592 O   0  0  0  0  0  0  0  0  0  0  0  0
   -4.3615   13.3032   16.4580 C   0  0  0  0  0  0  0  0  0  0  0  0
   -4.4736   10.2645   15.7568 C   0  0  0  0  0  0  0  0  0  0  0  0
   -3.0616   12.9387   16.5092 C   0  0  0  0  0  0  0  0  0  0  0  0
   -2.5098   11.6646   16.4359 C   0  0  0  0  0  0  0  0  0  0  0  0
  -10.2223   13.9405   17.5072 N   0  0  0  0  0  0  0  0  0  0  0  0
   -8.2155   14.8051   18.1154 N   0  0  0  0  0  0  0  0  0  0  0  0
   -7.8839   10.0954   14.4240 C   0  0  0  0  0  0  0  0  0  0  0  0
   -6.8351   12.9941   16.4858 C   0  0  0  0  0  0  0  0  0  0  0  0
   -1.3269    8.9485   17.1285 C   0  0  0  0  0  0  0  0  0  0  0  0
   -2.4527    9.2852   16.3608 N   0  0  0  0  0  0  0  0  0  0  0  0
   -8.9579   12.1613   15.9201 C   0  0  0  0  0  0  0  0  0  0  0  0
   -3.1011   10.4662   16.2151 C   0  0  0  0  0  0  0  0  0  0  0  0
   -7.6003   11.9614   15.7826 C   0  0  0  0  0  0  0  0  0  0  0  0
   -6.8991   10.9472   15.1955 N   0  0  0  0  0  0  0  0  0  0  0  0
  1  6  2  0
  1 15  1  0
  1 21  1  0
  2  9  2  0
  2 15  1  0
  2 16  1  0
  3  4  1  0
  3  7  2  0
  3 21  1  0
  4 17  2  0
  5  8  1  0
  5 11  1  0
  5 18  1  0
  6 16  1  0
  6 18  1  0
  8 12  2  0
  8 24  1  0
 10 12  1  0
 11 13  2  0
 12 22  1  0
 13 14  1  0
 14 22  2  0
 17 24  1  0
 18 23  1  0
 19 20  1  0
 20 22  1  0
 21 23  2  0
 23 24  1  0
M  END
>  <ID>  (1) 
conformer_0

$$$$
