
     RDKit          3D

 28 31  0  0  0  0  0  0  0  0999 V2000
   -5.6300   10.9062   15.6522 N   0  0  0  0  0  0  0  0  0  0  0  0
   -9.1690   13.6403   17.1345 C   0  0  0  0  0  0  0  0  0  0  0  0
   -4.4874   11.1537   16.3195 C   0  0  0  0  0  0  0  0  0  0  0  0
  -10.3688   10.9821   14.9844 N   0  0  0  0  0  0  0  0  0  0  0  0
  -11.7464   12.3985   16.2177 N   0  0  0  0  0  0  0  0  0  0  0  0
   -1.5723   12.1007   16.8646 N   0  0  0  0  0  0  0  0  0  0  0  0
   -2.3082    8.6653   18.0687 F   0  0  0  0  0  0  0  0  0  0  0  0
   -7.8312    8.5449   14.2107 C   0  0  0  0  0  0  0  0  0  0  0  0
   -2.5083    9.8646   17.3671 C   0  0  0  0  0  0  0  0  0  0  0  0
   -1.4885   10.7914   17.3390 C   0  0  0  0  0  0  0  0  0  0  0  0
   -4.9193   14.6973   17.3843 C   0  0  0  0  0  0  0  0  0  0  0  0
   -9.0124   10.7101   14.9024 C   0  0  0  0  0  0  0  0  0  0  0  0
   -7.3186   15.0817   17.8641 C   0  0  0  0  0  0  0  0  0  0  0  0
   -3.7964    9.9509   16.7482 C   0  0  0  0  0  0  0  0  0  0  0  0
   -6.6012    8.7280   14.7748 N   0  0  0  0  0  0  0  0  0  0  0  0
   -4.3996    8.7619   16.6373 O   0  0  0  0  0  0  0  0  0  0  0  0
   -2.6995   12.8014   16.5567 C   0  0  0  0  0  0  0  0  0  0  0  0
   -9.2839   12.5291   16.2343 C   0  0  0  0  0  0  0  0  0  0  0  0
   -5.1753   13.4226   16.8474 C   0  0  0  0  0  0  0  0  0  0  0  0
  -10.3445   14.2337   17.6018 O   0  0  0  0  0  0  0  0  0  0  0  0
   -7.6359   13.9156   17.2408 C   0  0  0  0  0  0  0  0  0  0  0  0
   -8.3873   11.7157   15.5651 N   0  0  0  0  0  0  0  0  0  0  0  0
   -6.5512   13.1768   16.7966 C   0  0  0  0  0  0  0  0  0  0  0  0
   -4.0744   12.5072   16.5403 C   0  0  0  0  0  0  0  0  0  0  0  0
   -6.1844    9.8883   15.2571 C   0  0  0  0  0  0  0  0  0  0  0  0
   -5.9478   15.5079   17.8947 C   0  0  0  0  0  0  0  0  0  0  0  0
   -8.7555    9.4771   14.2521 C   0  0  0  0  0  0  0  0  0  0  0  0
  -10.5434   12.0171   15.8406 C   0  0  0  0  0  0  0  0  0  0  0  0
  1  3  1  0
  1 25  1  0
  2 18  2  0
  2 20  1  0
  2 21  1  0
  3 14  2  0
  3 24  1  0
  4 12  2  0
  4 28  1  0
  5 28  2  0
  6 10  1  0
  6 17  2  0
  7  9  1  0
  8 15  1  0
  8 27  2  0
  9 10  2  0
  9 14  1  0
 11 19  1  0
 11 26  2  0
 12 22  1  0
 12 27  1  0
 13 21  2  0
 13 26  1  0
 14 16  1  0
 15 25  1  0
 17 24  1  0
 18 22  1  0
 18 28  1  0
 19 23  2  0
 19 24  1  0
 21 23  1  0
M  END
>  <ID>  (1) 
conformer_0

$$$$
