
     RDKit          3D

 31 35  0  0  0  0  0  0  0  0999 V2000
   -4.2972    9.6153   16.6437 C   0  0  0  0  0  0  0  0  0  0  0  0
   -6.9307   12.8912   16.0231 N   0  0  0  0  0  0  0  0  0  0  0  0
   -3.3905   10.7747   16.5518 O   0  0  0  0  0  0  0  0  0  0  0  0
   -8.9034   13.4147   16.8731 C   0  0  0  0  0  0  0  0  0  0  0  0
  -11.0306   12.3822   16.1477 N   0  0  0  0  0  0  0  0  0  0  0  0
   -3.8231   16.2962   18.8778 C   0  0  0  0  0  0  0  0  0  0  0  0
   -9.6839   10.7417   14.8869 C   0  0  0  0  0  0  0  0  0  0  0  0
   -5.1082    9.5749   15.3515 C   0  0  0  0  0  0  0  0  0  0  0  0
   -0.5012    7.0049   18.0836 C   0  0  0  0  0  0  0  0  0  0  0  0
   -5.8256   10.8111   15.1917 C   0  0  0  0  0  0  0  0  0  0  0  0
   -2.4937   10.5678   15.3859 C   0  0  0  0  0  0  0  0  0  0  0  0
   -6.8248   14.4311   17.5703 C   0  0  0  0  0  0  0  0  0  0  0  0
   -6.1795   13.6647   16.6411 C   0  0  0  0  0  0  0  0  0  0  0  0
   -8.5041   11.2777   15.3610 C   0  0  0  0  0  0  0  0  0  0  0  0
   -4.8067   13.7722   16.3900 C   0  0  0  0  0  0  0  0  0  0  0  0
   -1.6351    8.9334   17.0642 N   0  0  0  0  0  0  0  0  0  0  0  0
  -11.0713   14.1713   17.5821 N   0  0  0  0  0  0  0  0  0  0  0  0
  -10.9290   11.3330   15.2587 C   0  0  0  0  0  0  0  0  0  0  0  0
   -8.1893   12.5126   16.0731 C   0  0  0  0  0  0  0  0  0  0  0  0
   -4.6383   15.3629   18.1253 C   0  0  0  0  0  0  0  0  0  0  0  0
   -1.2369   10.0082   16.1243 C   0  0  0  0  0  0  0  0  0  0  0  0
   -7.2679   10.5448   15.0807 C   0  0  0  0  0  0  0  0  0  0  0  0
   -7.3242    9.1553   14.8770 C   0  0  0  0  0  0  0  0  0  0  0  0
   -8.4371    8.6991   14.1956 C   0  0  0  0  0  0  0  0  0  0  0  0
   -0.5662    8.5318   17.9021 C   0  0  0  0  0  0  0  0  0  0  0  0
   -9.6259    9.4589   14.3087 C   0  0  0  0  0  0  0  0  0  0  0  0
   -4.0413   14.5971   17.1351 C   0  0  0  0  0  0  0  0  0  0  0  0
   -8.1904   14.2995   17.6138 N   0  0  0  0  0  0  0  0  0  0  0  0
   -6.0860    8.6176   15.1597 N   0  0  0  0  0  0  0  0  0  0  0  0
  -10.3925   13.3425   16.8728 C   0  0  0  0  0  0  0  0  0  0  0  0
   -6.0228   15.2725   18.3838 C   0  0  0  0  0  0  0  0  0  0  0  0
  1  3  1  0
  1  8  1  0
  2 13  2  0
  2 19  1  0
  3 11  1  0
  4 19  2  0
  4 28  1  0
  4 30  1  0
  5 18  2  0
  5 30  1  0
  6 20  1  0
  7 14  2  0
  7 18  1  0
  7 26  1  0
  8 10  1  0
  8 29  1  0
  9 25  1  0
 10 22  1  0
 11 21  1  0
 12 13  1  0
 12 28  2  0
 12 31  1  0
 13 15  1  0
 14 19  1  0
 14 22  1  0
 15 27  2  0
 16 21  1  0
 16 25  1  0
 17 30  2  0
 20 27  1  0
 20 31  2  0
 22 23  1  0
 23 24  1  0
 23 29  1  0
 24 26  2  0
M  END
>  <ID>  (1) 
conformer_0

$$$$
