
     RDKit          3D

 22 25  0  0  0  0  0  0  0  0999 V2000
   -6.5288   10.4908   15.2260 C   0  0  0  0  0  0  0  0  0  0  0  0
   -6.4782   11.7971   15.7320 C   0  0  0  0  0  0  0  0  0  0  0  0
   -9.9113   12.7273   16.3669 C   0  0  0  0  0  0  0  0  0  0  0  0
  -10.1844   10.2481   14.4669 C   0  0  0  0  0  0  0  0  0  0  0  0
   -7.6631   12.4199   16.0428 C   0  0  0  0  0  0  0  0  0  0  0  0
   -7.7371   10.0523   14.7068 N   0  0  0  0  0  0  0  0  0  0  0  0
   -3.1946    8.9581   18.6568 C   0  0  0  0  0  0  0  0  0  0  0  0
   -4.4235    9.6887   16.6053 C   0  0  0  0  0  0  0  0  0  0  0  0
   -9.2093   13.8330   17.0066 N   0  0  0  0  0  0  0  0  0  0  0  0
   -5.3240   13.7123   16.5136 C   0  0  0  0  0  0  0  0  0  0  0  0
   -6.4604   15.6018   17.4929 C   0  0  0  0  0  0  0  0  0  0  0  0
   -2.9213   11.0010   15.2168 C   0  0  0  0  0  0  0  0  0  0  0  0
   -5.2842   12.4714   15.9168 C   0  0  0  0  0  0  0  0  0  0  0  0
   -4.1723    9.9562   18.0982 O   0  0  0  0  0  0  0  0  0  0  0  0
   -6.5065   14.2867   16.8808 C   0  0  0  0  0  0  0  0  0  0  0  0
   -3.8978   12.0348   15.5049 C   0  0  0  0  0  0  0  0  0  0  0  0
  -11.1443   12.5167   16.3650 O   0  0  0  0  0  0  0  0  0  0  0  0
   -5.2925    9.6494   15.3121 C   0  0  0  0  0  0  0  0  0  0  0  0
   -8.9105   11.8736   15.7542 C   0  0  0  0  0  0  0  0  0  0  0  0
   -2.9207    9.6969   16.1047 C   0  0  0  0  0  0  0  0  0  0  0  0
   -7.7420   13.6268   16.6817 C   0  0  0  0  0  0  0  0  0  0  0  0
   -8.8735   10.7054   14.9652 C   0  0  0  0  0  0  0  0  0  0  0  0
  1  2  1  0
  1  6  1  0
  1 18  1  0
  2  5  1  0
  2 13  2  0
  3  9  1  0
  3 17  2  0
  3 19  1  0
  4 22  1  0
  5 19  1  0
  5 21  2  0
  6 22  2  0
  7 14  1  0
  8 14  1  0
  8 18  1  0
  8 20  1  0
  9 21  1  0
 10 13  1  0
 10 15  2  0
 11 15  1  0
 12 16  1  0
 12 20  1  0
 13 16  1  0
 15 21  1  0
 19 22  1  0
M  END
>  <ID>  (1) 
conformer_0

$$$$
