
     RDKit          3D

 27 32  0  0  0  0  0  0  0  0999 V2000
   -5.4151    9.8879   15.4918 C   0  0  0  0  0  0  0  0  0  0  0  0
   -2.0395   10.9315   18.8382 N   0  0  0  0  0  0  0  0  0  0  0  0
   -8.9226   13.0266   16.5832 C   0  0  0  0  0  0  0  0  0  0  0  0
  -10.1997   13.4200   16.9713 C   0  0  0  0  0  0  0  0  0  0  0  0
   -2.4856   13.0555   16.4232 C   0  0  0  0  0  0  0  0  0  0  0  0
  -10.4230   11.7948   15.5914 C   0  0  0  0  0  0  0  0  0  0  0  0
  -11.0143   10.9722   14.7098 N   0  0  0  0  0  0  0  0  0  0  0  0
   -1.9036   13.2135   17.8769 C   0  0  0  0  0  0  0  0  0  0  0  0
   -4.4214   12.0717   15.4519 O   0  0  0  0  0  0  0  0  0  0  0  0
  -11.1445   12.6219   16.3470 N   0  0  0  0  0  0  0  0  0  0  0  0
   -9.0686   11.9199   15.7702 N   0  0  0  0  0  0  0  0  0  0  0  0
   -6.7205   11.8812   15.8310 C   0  0  0  0  0  0  0  0  0  0  0  0
   -5.4930   11.2516   15.5710 C   0  0  0  0  0  0  0  0  0  0  0  0
   -4.0194    9.4402   15.9845 C   0  0  0  0  0  0  0  0  0  0  0  0
   -2.7121   12.3182   18.9044 C   0  0  0  0  0  0  0  0  0  0  0  0
   -6.6543   13.1318   16.4231 N   0  0  0  0  0  0  0  0  0  0  0  0
   -1.5452    8.9574   17.7306 O   0  0  0  0  0  0  0  0  0  0  0  0
   -6.6234    9.1766   15.0901 C   0  0  0  0  0  0  0  0  0  0  0  0
  -10.3439   14.4660   17.8486 C   0  0  0  0  0  0  0  0  0  0  0  0
   -2.0864   10.0771   17.6866 C   0  0  0  0  0  0  0  0  0  0  0  0
   -2.9883   10.4734   16.5729 C   0  0  0  0  0  0  0  0  0  0  0  0
   -3.4518   11.8927   16.4005 C   0  0  0  0  0  0  0  0  0  0  0  0
   -7.7691   13.6220   16.9388 C   0  0  0  0  0  0  0  0  0  0  0  0
   -7.8979   11.2190   15.5432 C   0  0  0  0  0  0  0  0  0  0  0  0
   -9.1324   15.1150   18.2735 C   0  0  0  0  0  0  0  0  0  0  0  0
   -7.8627   14.6952   17.8157 C   0  0  0  0  0  0  0  0  0  0  0  0
   -7.8670    9.8883   15.0833 C   0  0  0  0  0  0  0  0  0  0  0  0
  1 13  1  0
  1 14  1  0
  1 18  2  0
  2 15  1  0
  2 20  1  0
  3  4  2  0
  3 11  1  0
  3 23  1  0
  4 10  1  0
  4 19  1  0
  5  8  1  0
  5 22  1  0
  6  7  2  0
  6 10  1  0
  6 11  1  0
  8 15  1  0
  9 13  1  0
  9 22  1  0
 11 24  1  0
 12 13  1  0
 12 16  1  0
 12 24  2  0
 14 21  1  0
 16 23  2  0
 17 20  2  0
 18 27  1  0
 19 25  2  0
 20 21  1  0
 21 22  1  0
 23 26  1  0
 24 27  1  0
 25 26  1  0
M  END
>  <ID>  (1) 
conformer_0

$$$$
