
     RDKit          3D

 23 26  0  0  0  0  0  0  0  0999 V2000
   -9.3664   11.8765   15.5725 C   0  0  0  0  0  0  0  0  0  0  0  0
   -5.3714   11.1368   15.8034 N   0  0  0  0  0  0  0  0  0  0  0  0
  -11.2765   12.8837   16.5527 O   0  0  0  0  0  0  0  0  0  0  0  0
   -7.6243   10.7638   14.5952 C   0  0  0  0  0  0  0  0  0  0  0  0
   -7.7717   13.7433   16.9582 C   0  0  0  0  0  0  0  0  0  0  0  0
   -9.1749   13.7442   17.1415 C   0  0  0  0  0  0  0  0  0  0  0  0
   -5.8248   15.1421   17.3350 C   0  0  0  0  0  0  0  0  0  0  0  0
   -4.2577   10.4492   15.9133 C   0  0  0  0  0  0  0  0  0  0  0  0
   -1.9087   10.1378   16.6863 C   0  0  0  0  0  0  0  0  0  0  0  0
   -7.9595   11.7888   15.5058 C   0  0  0  0  0  0  0  0  0  0  0  0
   -5.7297   12.4079   16.2112 C   0  0  0  0  0  0  0  0  0  0  0  0
   -7.1433   12.6986   16.2397 C   0  0  0  0  0  0  0  0  0  0  0  0
   -8.8191   10.2131   14.0978 C   0  0  0  0  0  0  0  0  0  0  0  0
   -3.0973   11.1478   16.3986 C   0  0  0  0  0  0  0  0  0  0  0  0
   -4.6186   13.2152   16.5689 C   0  0  0  0  0  0  0  0  0  0  0  0
   -4.2566    9.1819   15.6149 O   0  0  0  0  0  0  0  0  0  0  0  0
   -4.7296   14.5342   16.9502 N   0  0  0  0  0  0  0  0  0  0  0  0
   -2.0935    9.2642   17.9281 C   0  0  0  0  0  0  0  0  0  0  0  0
   -9.9822   12.8289   16.4225 C   0  0  0  0  0  0  0  0  0  0  0  0
   -1.3450    7.9978   17.7896 N   0  0  0  0  0  0  0  0  0  0  0  0
   -9.9365   10.9155   14.7024 C   0  0  0  0  0  0  0  0  0  0  0  0
   -3.2594   12.6218   16.5845 C   0  0  0  0  0  0  0  0  0  0  0  0
   -7.0523   14.7968   17.4571 N   0  0  0  0  0  0  0  0  0  0  0  0
  1 10  2  0
  1 19  1  0
  1 21  1  0
  2  8  1  0
  2 11  1  0
  3 19  1  0
  4 10  1  0
  4 13  1  0
  5  6  1  0
  5 12  1  0
  5 23  2  0
  6 19  2  0
  7 17  2  0
  7 23  1  0
  8 14  1  0
  8 16  2  0
  9 14  1  0
  9 18  1  0
 10 12  1  0
 11 12  1  0
 11 15  2  0
 13 21  1  0
 14 22  2  0
 15 17  1  0
 15 22  1  0
 18 20  1  0
M  END
>  <ID>  (1) 
conformer_0

$$$$
