
     RDKit          3D

 25 29  0  0  0  0  0  0  0  0999 V2000
   -4.4925   10.5369   15.9808 C   0  0  0  0  0  0  0  0  0  0  0  0
   -7.5708   12.6432   16.3222 C   0  0  0  0  0  0  0  0  0  0  0  0
   -5.2282   13.5017   16.8264 C   0  0  0  0  0  0  0  0  0  0  0  0
   -6.9562   15.0614   17.7010 C   0  0  0  0  0  0  0  0  0  0  0  0
   -9.2684   15.5105   18.2439 C   0  0  0  0  0  0  0  0  0  0  0  0
   -1.4255    9.9828   18.0146 C   0  0  0  0  0  0  0  0  0  0  0  0
   -6.8970   10.6452   15.3083 C   0  0  0  0  0  0  0  0  0  0  0  0
   -7.1657    9.4952   14.6386 N   0  0  0  0  0  0  0  0  0  0  0  0
   -6.1243   12.5563   16.3837 C   0  0  0  0  0  0  0  0  0  0  0  0
   -8.4520    9.2695   14.2540 C   0  0  0  0  0  0  0  0  0  0  0  0
   -8.2539   14.6668   17.5550 C   0  0  0  0  0  0  0  0  0  0  0  0
   -3.8669   13.4355   16.8269 N   0  0  0  0  0  0  0  0  0  0  0  0
   -9.4822   10.0862   14.5064 N   0  0  0  0  0  0  0  0  0  0  0  0
   -8.6071   13.4811   16.8129 C   0  0  0  0  0  0  0  0  0  0  0  0
   -5.7361   14.6838   17.4004 C   0  0  0  0  0  0  0  0  0  0  0  0
   -5.7003   11.2557   15.8703 N   0  0  0  0  0  0  0  0  0  0  0  0
  -11.0717   13.7805   17.0503 O   0  0  0  0  0  0  0  0  0  0  0  0
   -3.0067   12.3752   16.8939 C   0  0  0  0  0  0  0  0  0  0  0  0
   -2.5489    9.9847   17.2392 O   0  0  0  0  0  0  0  0  0  0  0  0
   -4.3634    9.3180   15.5291 O   0  0  0  0  0  0  0  0  0  0  0  0
   -9.2856   11.2136   15.2657 C   0  0  0  0  0  0  0  0  0  0  0  0
   -3.2988   10.9989   16.7029 C   0  0  0  0  0  0  0  0  0  0  0  0
  -10.0331   13.1185   16.5420 C   0  0  0  0  0  0  0  0  0  0  0  0
  -10.3301   12.0230   15.7271 C   0  0  0  0  0  0  0  0  0  0  0  0
   -7.9891   11.4847   15.6165 C   0  0  0  0  0  0  0  0  0  0  0  0
  1 16  1  0
  1 20  2  0
  1 22  1  0
  2  9  1  0
  2 14  1  0
  2 25  1  0
  3  9  2  0
  3 12  1  0
  3 15  1  0
  4 11  1  0
  4 15  2  0
  5 11  1  0
  6 19  1  0
  7  8  1  0
  7 16  1  0
  7 25  2  0
  8 10  2  0
  9 16  1  0
 10 13  1  0
 11 14  2  0
 12 18  2  0
 13 21  2  0
 14 23  1  0
 17 23  1  0
 18 22  1  0
 19 22  1  0
 21 24  1  0
 21 25  1  0
 23 24  2  0
M  END
>  <ID>  (1) 
conformer_0

$$$$
