
     RDKit          3D

 27 29  0  0  0  0  0  0  0  0999 V2000
   -9.0793   10.1980   14.6887 C   0  0  0  0  0  0  0  0  0  0  0  0
   -5.8133   14.6480   17.8244 C   0  0  0  0  0  0  0  0  0  0  0  0
   -4.6824   10.1041   15.9222 C   0  0  0  0  0  0  0  0  0  0  0  0
   -5.4700   12.2943   16.3904 N   0  0  0  0  0  0  0  0  0  0  0  0
  -10.6665   14.4480   17.8313 N   0  0  0  0  0  0  0  0  0  0  0  0
  -10.1865   13.5081   17.0105 C   0  0  0  0  0  0  0  0  0  0  0  0
   -4.4276   15.0235   17.5277 N   0  0  0  0  0  0  0  0  0  0  0  0
   -3.4306   10.4991   16.5855 C   0  0  0  0  0  0  0  0  0  0  0  0
   -7.7845   13.1819   16.4967 C   0  0  0  0  0  0  0  0  0  0  0  0
   -5.7673   11.1209   15.8937 C   0  0  0  0  0  0  0  0  0  0  0  0
   -4.6120    8.9717   15.3703 O   0  0  0  0  0  0  0  0  0  0  0  0
   -7.1399    8.9625   14.3201 O   0  0  0  0  0  0  0  0  0  0  0  0
   -2.6269    9.3644   17.0739 C   0  0  0  0  0  0  0  0  0  0  0  0
   -0.8630   10.2248   18.5865 C   0  0  0  0  0  0  0  0  0  0  0  0
   -9.3551   11.4296   15.4901 C   0  0  0  0  0  0  0  0  0  0  0  0
   -6.6939   14.0527   16.7760 C   0  0  0  0  0  0  0  0  0  0  0  0
   -8.1247   12.0252   15.9445 C   0  0  0  0  0  0  0  0  0  0  0  0
   -3.3994   15.3050   18.5438 C   0  0  0  0  0  0  0  0  0  0  0  0
   -4.2912   12.7526   17.0339 C   0  0  0  0  0  0  0  0  0  0  0  0
   -7.6986    9.9963   14.7777 C   0  0  0  0  0  0  0  0  0  0  0  0
   -1.2989    9.3765   17.5240 C   0  0  0  0  0  0  0  0  0  0  0  0
   -7.0587   11.0248   15.5142 C   0  0  0  0  0  0  0  0  0  0  0  0
  -11.1587   12.6853   16.4712 N   0  0  0  0  0  0  0  0  0  0  0  0
  -10.6341   11.7490   15.7185 C   0  0  0  0  0  0  0  0  0  0  0  0
   -3.8468   14.1216   16.5550 C   0  0  0  0  0  0  0  0  0  0  0  0
   -0.6691    8.1310   17.4562 N   0  0  0  0  0  0  0  0  0  0  0  0
   -8.9033   13.4033   16.7703 N   0  0  0  0  0  0  0  0  0  0  0  0
  1 15  1  0
  1 20  1  0
  2  7  1  0
  2 16  1  0
  3  8  1  0
  3 10  1  0
  3 11  2  0
  4 10  2  0
  4 19  1  0
  5  6  2  0
  6 23  1  0
  6 27  1  0
  7 18  1  0
  7 25  1  0
  8 13  1  0
  9 16  1  0
  9 17  1  0
  9 27  1  0
 10 22  1  0
 12 20  2  0
 13 21  1  0
 14 21  1  0
 15 17  1  0
 15 24  2  0
 17 22  2  0
 19 25  1  0
 20 22  1  0
 21 26  1  0
 23 24  1  0
M  END
>  <ID>  (1) 
conformer_0

$$$$
