
     RDKit          3D

 34 37  0  0  0  0  0  0  0  0999 V2000
   -7.7494   11.3468   15.2680 C   0  0  0  0  0  0  0  0  0  0  0  0
   -9.8564   10.3637   14.6057 C   0  0  0  0  0  0  0  0  0  0  0  0
   -8.4760   10.3102   14.6392 C   0  0  0  0  0  0  0  0  0  0  0  0
   -6.6686   13.1408   19.4140 C   0  0  0  0  0  0  0  0  0  0  0  0
   -2.8487    9.6679   17.7268 C   0  0  0  0  0  0  0  0  0  0  0  0
   -8.7368   14.0211   18.5738 C   0  0  0  0  0  0  0  0  0  0  0  0
   -2.7370   15.2323   18.5389 O   0  0  0  0  0  0  0  0  0  0  0  0
  -10.5152   11.3655   15.2932 C   0  0  0  0  0  0  0  0  0  0  0  0
   -3.8568    8.9351   15.5829 O   0  0  0  0  0  0  0  0  0  0  0  0
   -6.4934   14.2276   20.2252 C   0  0  0  0  0  0  0  0  0  0  0  0
   -7.4454   15.2134   20.2141 C   0  0  0  0  0  0  0  0  0  0  0  0
  -10.5277   13.2883   16.8087 C   0  0  0  0  0  0  0  0  0  0  0  0
   -8.4476   12.2960   15.9071 N   0  0  0  0  0  0  0  0  0  0  0  0
   -0.8741   11.2442   17.8623 C   0  0  0  0  0  0  0  0  0  0  0  0
   -4.3868   10.0875   15.8733 C   0  0  0  0  0  0  0  0  0  0  0  0
   -7.7500   13.0567   18.6080 C   0  0  0  0  0  0  0  0  0  0  0  0
   -5.6895   12.5267   15.6986 O   0  0  0  0  0  0  0  0  0  0  0  0
   -2.6774   14.4082   17.5777 C   0  0  0  0  0  0  0  0  0  0  0  0
   -8.5873   15.1255   19.3822 C   0  0  0  0  0  0  0  0  0  0  0  0
   -9.8073   12.3101   16.0098 C   0  0  0  0  0  0  0  0  0  0  0  0
   -4.3954   13.1827   16.0236 C   0  0  0  0  0  0  0  0  0  0  0  0
   -7.8400    9.2769   14.1080 O   0  0  0  0  0  0  0  0  0  0  0  0
   -0.7658    8.4405   17.9755 C   0  0  0  0  0  0  0  0  0  0  0  0
   -3.7235   10.8346   17.1106 C   0  0  0  0  0  0  0  0  0  0  0  0
   -9.9688   13.9290   17.8518 N   0  0  0  0  0  0  0  0  0  0  0  0
   -3.4766   12.0799   18.1401 C   0  0  0  0  0  0  0  0  0  0  0  0
   -1.6988   14.2992   16.8255 O   0  0  0  0  0  0  0  0  0  0  0  0
   -5.5442   10.3252   15.1167 N   0  0  0  0  0  0  0  0  0  0  0  0
   -1.9476   12.1568   18.5852 C   0  0  0  0  0  0  0  0  0  0  0  0
  -11.7535   13.5583   16.5835 N   0  0  0  0  0  0  0  0  0  0  0  0
   -1.3650    9.7911   17.7254 C   0  0  0  0  0  0  0  0  0  0  0  0
   -3.8886   13.4589   17.4455 C   0  0  0  0  0  0  0  0  0  0  0  0
    0.4905   11.1071   18.3772 O   0  0  0  0  0  0  0  0  0  0  0  0
   -6.2976   11.4080   15.2213 C   0  0  0  0  0  0  0  0  0  0  0  0
  1  3  1  0
  1 13  2  0
  1 34  1  0
  2  3  2  0
  2  8  1  0
  3 22  1  0
  4 10  2  0
  4 16  1  0
  5 24  1  0
  5 31  1  0
  6 16  2  0
  6 19  1  0
  6 25  1  0
  7 18  2  0
  8 20  2  0
  9 15  2  0
 10 11  1  0
 11 19  2  0
 12 20  1  0
 12 25  1  0
 12 30  2  0
 13 20  1  0
 14 29  1  0
 14 31  1  0
 14 33  1  0
 15 24  1  0
 15 28  1  0
 17 21  1  0
 17 34  1  0
 18 27  1  0
 18 32  1  0
 21 32  1  0
 23 31  1  0
 24 26  1  0
 26 29  1  0
 26 32  1  0
 28 34  1  0
M  END
>  <ID>  (1) 
conformer_0

$$$$
