
     RDKit          3D

 27 30  0  0  0  0  0  0  0  0999 V2000
   -6.7053   13.3414   16.6538 C   0  0  0  0  0  0  0  0  0  0  0  0
   -1.6925    9.6166   17.6049 C   0  0  0  0  0  0  0  0  0  0  0  0
   -9.1800   14.3815   19.4698 F   0  0  0  0  0  0  0  0  0  0  0  0
   -9.2632   13.7778   17.2238 C   0  0  0  0  0  0  0  0  0  0  0  0
   -4.2043   12.8555   16.5366 C   0  0  0  0  0  0  0  0  0  0  0  0
   -7.8209   10.8610   15.2707 C   0  0  0  0  0  0  0  0  0  0  0  0
   -6.3223   14.6432   16.9087 C   0  0  0  0  0  0  0  0  0  0  0  0
   -3.9667   10.1265   17.6142 O   0  0  0  0  0  0  0  0  0  0  0  0
  -10.5753   13.4013   16.8745 N   0  0  0  0  0  0  0  0  0  0  0  0
   -8.8725    9.9783   14.6951 C   0  0  0  0  0  0  0  0  0  0  0  0
   -8.5749   11.9437   15.8271 N   0  0  0  0  0  0  0  0  0  0  0  0
  -10.8483   15.1782   18.4271 F   0  0  0  0  0  0  0  0  0  0  0  0
   -2.7125   10.6345   17.1453 C   0  0  0  0  0  0  0  0  0  0  0  0
  -10.9550   12.4390   16.0612 C   0  0  0  0  0  0  0  0  0  0  0  0
   -5.0260   15.0727   16.9346 C   0  0  0  0  0  0  0  0  0  0  0  0
   -8.9341   15.9900   18.1141 F   0  0  0  0  0  0  0  0  0  0  0  0
   -5.5998   12.5090   16.4535 C   0  0  0  0  0  0  0  0  0  0  0  0
   -6.5865   10.1339   14.9305 C   0  0  0  0  0  0  0  0  0  0  0  0
  -10.0749   10.5661   14.7962 N   0  0  0  0  0  0  0  0  0  0  0  0
   -3.9444   14.2106   16.7368 C   0  0  0  0  0  0  0  0  0  0  0  0
   -6.9346    8.8290   14.3655 N   0  0  0  0  0  0  0  0  0  0  0  0
   -5.3562   10.4043   14.8284 O   0  0  0  0  0  0  0  0  0  0  0  0
   -9.5084   14.8934   18.3093 C   0  0  0  0  0  0  0  0  0  0  0  0
   -2.8715   11.9776   16.4443 C   0  0  0  0  0  0  0  0  0  0  0  0
   -8.3596    8.7961   14.2423 C   0  0  0  0  0  0  0  0  0  0  0  0
   -8.1875   13.0359   16.6140 C   0  0  0  0  0  0  0  0  0  0  0  0
   -9.9377   11.7295   15.5673 C   0  0  0  0  0  0  0  0  0  0  0  0
  1  7  2  0
  1 17  1  0
  1 26  1  0
  2 13  1  0
  3 23  1  0
  4  9  2  0
  4 23  1  0
  4 26  1  0
  5 17  2  0
  5 20  1  0
  5 24  1  0
  6 10  2  0
  6 11  1  0
  6 18  1  0
  7 15  1  0
  8 13  1  0
  9 14  1  0
 10 19  1  0
 10 25  1  0
 11 26  1  0
 11 27  1  0
 12 23  1  0
 13 24  2  3
 14 27  1  0
 15 20  2  0
 16 23  1  0
 18 21  1  0
 18 22  2  0
 19 27  2  0
 21 25  1  0
M  END
>  <ID>  (1) 
conformer_0

$$$$
