
     RDKit          3D

 27 32  0  0  0  0  0  0  0  0999 V2000
  -10.7646   13.3185   17.0297 N   0  0  0  0  0  0  0  0  0  0  0  0
   -6.0773   14.4633   17.1923 N   0  0  0  0  0  0  0  0  0  0  0  0
   -8.4932   13.7635   17.1142 C   0  0  0  0  0  0  0  0  0  0  0  0
   -2.9865    8.8702   16.8473 O   0  0  0  0  0  0  0  0  0  0  0  0
   -8.8453   15.9270   18.9478 C   0  0  0  0  0  0  0  0  0  0  0  0
   -6.8730    9.4798   14.9106 N   0  0  0  0  0  0  0  0  0  0  0  0
   -9.7566   14.1368   17.5995 C   0  0  0  0  0  0  0  0  0  0  0  0
   -3.6109   10.0360   16.4854 C   0  0  0  0  0  0  0  0  0  0  0  0
  -10.5523   11.5364   15.2749 N   0  0  0  0  0  0  0  0  0  0  0  0
   -2.0386    8.8059   17.9810 C   0  0  0  0  0  0  0  0  0  0  0  0
   -4.8672   10.0066   15.9060 C   0  0  0  0  0  0  0  0  0  0  0  0
   -7.6075   15.5537   18.4981 C   0  0  0  0  0  0  0  0  0  0  0  0
   -8.1916   11.4948   15.3509 C   0  0  0  0  0  0  0  0  0  0  0  0
   -5.6349    8.9710   15.3346 O   0  0  0  0  0  0  0  0  0  0  0  0
   -9.9855   15.1833   18.4748 C   0  0  0  0  0  0  0  0  0  0  0  0
   -3.9476   12.4226   16.9107 C   0  0  0  0  0  0  0  0  0  0  0  0
   -3.0763   11.3273   16.7790 C   0  0  0  0  0  0  0  0  0  0  0  0
   -4.8090   14.5337   17.8780 C   0  0  0  0  0  0  0  0  0  0  0  0
   -3.6888   13.5106   17.9369 C   0  0  0  0  0  0  0  0  0  0  0  0
   -5.6780   11.1497   15.8218 C   0  0  0  0  0  0  0  0  0  0  0  0
   -8.7234   12.5807   16.2118 C   0  0  0  0  0  0  0  0  0  0  0  0
   -6.9650   10.8058   15.3142 C   0  0  0  0  0  0  0  0  0  0  0  0
   -5.1624   12.3434   16.2611 C   0  0  0  0  0  0  0  0  0  0  0  0
   -9.3396   10.9210   14.5924 C   0  0  0  0  0  0  0  0  0  0  0  0
   -1.7392   11.4795   16.8402 O   0  0  0  0  0  0  0  0  0  0  0  0
   -7.4242   14.5730   17.6105 N   0  0  0  0  0  0  0  0  0  0  0  0
  -10.1503   12.4837   16.1872 C   0  0  0  0  0  0  0  0  0  0  0  0
  1  7  1  0
  1 27  1  0
  2 18  1  0
  2 26  1  0
  3  7  1  0
  3 21  1  0
  3 26  1  0
  4  8  1  0
  4 10  1  0
  5 12  2  0
  5 15  1  0
  6 14  1  0
  6 22  1  0
  7 15  2  0
  8 11  2  0
  8 17  1  0
  9 24  1  0
  9 27  1  0
 11 14  1  0
 11 20  1  0
 12 26  1  0
 13 21  1  0
 13 22  1  0
 13 24  1  0
 16 17  1  0
 16 19  1  0
 16 23  1  0
 17 25  1  0
 18 19  1  0
 20 22  1  0
 20 23  2  0
 21 27  2  0
M  END
>  <ID>  (1) 
conformer_0

$$$$
