
     RDKit          3D

 36 41  0  0  0  0  0  0  0  0999 V2000
   -8.5799   13.7996   16.9292 C   0  0  0  0  0  0  0  0  0  0  0  0
  -10.7927   14.2051   17.6818 N   0  0  0  0  0  0  0  0  0  0  0  0
   -4.2050   14.1286   19.7001 C   0  0  0  0  0  0  0  0  0  0  0  0
   -5.7667   10.6162   15.3424 C   0  0  0  0  0  0  0  0  0  0  0  0
   -9.0871   16.4827   19.2810 C   0  0  0  0  0  0  0  0  0  0  0  0
   -1.5458    9.2858   16.6037 N   0  0  0  0  0  0  0  0  0  0  0  0
   -0.3170    9.6524   17.2343 C   0  0  0  0  0  0  0  0  0  0  0  0
   -8.9529   12.6783   16.2203 C   0  0  0  0  0  0  0  0  0  0  0  0
   -0.3482   11.1710   17.4218 C   0  0  0  0  0  0  0  0  0  0  0  0
   -2.6564   15.7926   18.8933 F   0  0  0  0  0  0  0  0  0  0  0  0
   -6.4528   14.5001   20.6043 C   0  0  0  0  0  0  0  0  0  0  0  0
  -10.7663   11.4927   15.4182 C   0  0  0  0  0  0  0  0  0  0  0  0
   -3.5189   10.7708   16.1201 C   0  0  0  0  0  0  0  0  0  0  0  0
   -8.1305   10.6718   14.9691 C   0  0  0  0  0  0  0  0  0  0  0  0
   -6.8103   16.5769   18.3974 C   0  0  0  0  0  0  0  0  0  0  0  0
   -3.6962   12.1142   16.2949 N   0  0  0  0  0  0  0  0  0  0  0  0
   -9.4396   14.4762   17.7465 C   0  0  0  0  0  0  0  0  0  0  0  0
   -9.2662   10.1436   14.3868 C   0  0  0  0  0  0  0  0  0  0  0  0
  -10.4085   12.4960   16.2134 C   0  0  0  0  0  0  0  0  0  0  0  0
   -5.4284   16.0512   18.6766 C   0  0  0  0  0  0  0  0  0  0  0  0
   -6.8833    9.8565   14.8134 C   0  0  0  0  0  0  0  0  0  0  0  0
   -2.4490   13.9312   17.4993 C   0  0  0  0  0  0  0  0  0  0  0  0
   -4.6631   15.2687   17.6304 C   0  0  0  0  0  0  0  0  0  0  0  0
   -2.2750   10.4074   16.5041 C   0  0  0  0  0  0  0  0  0  0  0  0
   -1.6888   11.5730   16.9564 N   0  0  0  0  0  0  0  0  0  0  0  0
  -11.2030   13.2525   16.8959 N   0  0  0  0  0  0  0  0  0  0  0  0
  -10.4646   10.6041   14.6416 N   0  0  0  0  0  0  0  0  0  0  0  0
   -2.6136   12.6099   16.8982 C   0  0  0  0  0  0  0  0  0  0  0  0
   -4.6237    9.8485   15.7013 C   0  0  0  0  0  0  0  0  0  0  0  0
   -3.4374   14.6776   18.3982 C   0  0  0  0  0  0  0  0  0  0  0  0
    0.1069    8.5245   18.0792 C   0  0  0  0  0  0  0  0  0  0  0  0
   -8.9972   15.2436   18.7610 N   0  0  0  0  0  0  0  0  0  0  0  0
   -8.0909   11.8272   15.5970 N   0  0  0  0  0  0  0  0  0  0  0  0
   -4.7341   16.2350   21.0908 C   0  0  0  0  0  0  0  0  0  0  0  0
   -7.6517   16.9386   19.6337 C   0  0  0  0  0  0  0  0  0  0  0  0
   -5.2488   15.2913   20.0153 C   0  0  0  0  0  0  0  0  0  0  0  0
  1  8  1  0
  1 17  1  0
  2 17  2  0
  2 26  1  0
  3 30  1  0
  3 36  1  0
  4 21  1  0
  4 29  1  0
  5 32  1  0
  5 35  1  0
  6  7  1  0
  6 24  1  0
  7  9  1  0
  7 31  1  0
  8 19  1  0
  8 33  2  0
  9 25  1  0
 10 30  1  0
 11 36  1  0
 12 19  1  0
 12 27  2  0
 13 16  1  0
 13 24  2  0
 13 29  1  0
 14 18  2  0
 14 21  1  0
 14 33  1  0
 15 20  1  0
 15 35  1  0
 16 28  2  0
 17 32  1  0
 18 27  1  0
 19 26  2  0
 20 23  1  0
 20 36  1  0
 22 28  1  0
 22 30  1  0
 23 30  1  0
 24 25  1  0
 25 28  1  0
 34 36  1  0
M  END
>  <ID>  (1) 
conformer_0

$$$$
