
     RDKit          3D

 35 39  0  0  0  0  0  0  0  0999 V2000
   -7.6642   15.5383   18.8539 C   0  0  0  0  0  0  0  0  0  0  0  0
   -8.5772   10.1283   14.5912 C   0  0  0  0  0  0  0  0  0  0  0  0
   -7.7282    6.7242   13.7827 O   0  0  0  0  0  0  0  0  0  0  0  0
   -5.7282   12.3464   15.5096 C   0  0  0  0  0  0  0  0  0  0  0  0
   -3.8327   10.7786   15.5898 C   0  0  0  0  0  0  0  0  0  0  0  0
  -10.5422   12.0190   16.3252 C   0  0  0  0  0  0  0  0  0  0  0  0
   -4.4720   11.9696   15.8805 C   0  0  0  0  0  0  0  0  0  0  0  0
   -6.9434   14.3191   16.8472 C   0  0  0  0  0  0  0  0  0  0  0  0
   -9.8341   13.8748   16.3397 C   0  0  0  0  0  0  0  0  0  0  0  0
   -6.4107    8.3316   14.7850 N   0  0  0  0  0  0  0  0  0  0  0  0
   -5.5678   14.7797   17.1162 C   0  0  0  0  0  0  0  0  0  0  0  0
   -0.8452   10.8544   17.8537 C   0  0  0  0  0  0  0  0  0  0  0  0
   -8.6205   16.0530   19.7344 C   0  0  0  0  0  0  0  0  0  0  0  0
  -10.3486   14.9806   18.4737 C   0  0  0  0  0  0  0  0  0  0  0  0
   -0.5397    9.3771   17.8751 C   0  0  0  0  0  0  0  0  0  0  0  0
   -8.6696    8.8271   14.2089 C   0  0  0  0  0  0  0  0  0  0  0  0
   -7.5969    7.9602   14.2555 C   0  0  0  0  0  0  0  0  0  0  0  0
   -9.2525   12.6458   16.0226 N   0  0  0  0  0  0  0  0  0  0  0  0
   -9.7358   10.8554   14.4725 N   0  0  0  0  0  0  0  0  0  0  0  0
   -2.0238   11.3100   17.0393 C   0  0  0  0  0  0  0  0  0  0  0  0
   -6.2995    9.6094   15.0836 C   0  0  0  0  0  0  0  0  0  0  0  0
   -5.3452   16.0023   17.4205 O   0  0  0  0  0  0  0  0  0  0  0  0
   -2.5740   12.6081   17.1677 C   0  0  0  0  0  0  0  0  0  0  0  0
   -9.3817   14.5117   17.5740 C   0  0  0  0  0  0  0  0  0  0  0  0
    0.5242    8.7662   18.7549 C   0  0  0  0  0  0  0  0  0  0  0  0
  -10.8257   11.0577   15.2898 C   0  0  0  0  0  0  0  0  0  0  0  0
   -3.7696   12.9266   16.6427 C   0  0  0  0  0  0  0  0  0  0  0  0
   -8.0024   14.7801   17.7637 C   0  0  0  0  0  0  0  0  0  0  0  0
  -11.2058   13.1664   16.6221 O   0  0  0  0  0  0  0  0  0  0  0  0
   -1.7051    8.5138   18.0380 N   0  0  0  0  0  0  0  0  0  0  0  0
   -2.6576   10.4391   16.1466 C   0  0  0  0  0  0  0  0  0  0  0  0
   -9.9706   15.7484   19.5502 C   0  0  0  0  0  0  0  0  0  0  0  0
   -7.2929   10.5802   14.9633 C   0  0  0  0  0  0  0  0  0  0  0  0
   -4.3874   14.1058   16.8417 N   0  0  0  0  0  0  0  0  0  0  0  0
   -6.8728   11.9103   15.1533 C   0  0  0  0  0  0  0  0  0  0  0  0
  1 13  1  0
  1 28  2  0
  2 16  2  0
  2 19  1  0
  2 33  1  0
  3 17  2  0
  4  7  1  0
  4 35  2  0
  5  7  1  0
  5 31  2  0
  6 18  1  0
  6 26  1  0
  6 29  1  0
  7 27  1  0
  8 11  1  0
  8 28  1  0
  9 18  1  0
  9 24  1  0
  9 29  1  0
 10 17  1  0
 10 21  2  0
 11 22  2  0
 11 34  1  0
 12 15  1  0
 12 20  2  3
 13 32  1  0
 14 24  1  0
 14 32  2  0
 15 25  1  0
 15 30  1  0
 16 17  1  0
 19 26  1  0
 20 23  1  0
 20 31  1  0
 21 33  1  0
 23 27  2  0
 24 28  1  0
 27 34  1  0
 33 35  1  0
M  END
>  <ID>  (1) 
conformer_0

$$$$
