
     RDKit          3D

 24 28  0  0  0  0  0  0  0  0999 V2000
   -6.5499   13.0157   16.2913 C   0  0  0  0  0  0  0  0  0  0  0  0
   -4.8521    8.9777   15.8506 N   0  0  0  0  0  0  0  0  0  0  0  0
   -8.3335   11.6979   15.6240 C   0  0  0  0  0  0  0  0  0  0  0  0
  -10.6770   12.1829   15.9475 N   0  0  0  0  0  0  0  0  0  0  0  0
   -3.3495    8.5503   18.1301 N   0  0  0  0  0  0  0  0  0  0  0  0
   -1.8852   10.3982   17.6731 C   0  0  0  0  0  0  0  0  0  0  0  0
  -11.1266   13.9821   17.5238 N   0  0  0  0  0  0  0  0  0  0  0  0
  -10.3192   13.2145   16.7641 C   0  0  0  0  0  0  0  0  0  0  0  0
  -10.2742   14.8549   18.1588 C   0  0  0  0  0  0  0  0  0  0  0  0
   -4.2947   13.7480   16.4979 C   0  0  0  0  0  0  0  0  0  0  0  0
   -5.6791   14.0196   16.4925 C   0  0  0  0  0  0  0  0  0  0  0  0
   -4.2373   10.0785   16.4505 C   0  0  0  0  0  0  0  0  0  0  0  0
   -6.0290   11.7126   15.9622 C   0  0  0  0  0  0  0  0  0  0  0  0
   -7.9846   12.9479   16.3174 C   0  0  0  0  0  0  0  0  0  0  0  0
   -7.0925   10.9383   15.4570 C   0  0  0  0  0  0  0  0  0  0  0  0
   -4.7042   11.4151   16.2583 C   0  0  0  0  0  0  0  0  0  0  0  0
   -3.1274    9.7413   17.3572 C   0  0  0  0  0  0  0  0  0  0  0  0
  -10.1194   10.3283   14.4131 C   0  0  0  0  0  0  0  0  0  0  0  0
   -9.6959   11.4676   15.3618 C   0  0  0  0  0  0  0  0  0  0  0  0
   -9.0023   13.6123   16.9326 C   0  0  0  0  0  0  0  0  0  0  0  0
   -5.9878    8.9234   15.2203 C   0  0  0  0  0  0  0  0  0  0  0  0
   -8.9858   14.6202   17.7736 N   0  0  0  0  0  0  0  0  0  0  0  0
   -6.9741    9.7176   14.9593 N   0  0  0  0  0  0  0  0  0  0  0  0
   -3.8588   12.4740   16.4300 N   0  0  0  0  0  0  0  0  0  0  0  0
  1 11  2  0
  1 13  1  0
  1 14  1  0
  2 12  2  0
  2 21  1  0
  3 14  1  0
  3 15  1  0
  3 19  1  0
  4  8  1  0
  4 19  2  0
  5 17  1  0
  6 17  1  0
  7  8  2  0
  7  9  1  0
  8 20  1  0
  9 22  1  0
 10 11  1  0
 10 24  2  0
 12 16  1  0
 12 17  1  0
 13 15  2  0
 13 16  1  0
 14 20  2  0
 15 23  1  0
 16 24  1  0
 18 19  1  0
 20 22  1  0
 21 23  2  0
M  END
>  <ID>  (1) 
conformer_0

$$$$
