
     RDKit          3D

 26 28  0  0  0  0  0  0  0  0999 V2000
   -8.6874   15.7054   18.2900 O   0  0  0  0  0  0  0  0  0  0  0  0
   -2.5162    8.5261   17.9779 O   0  0  0  0  0  1  0  0  0  0  0  0
   -0.3009    8.9132   17.0209 O   0  0  0  0  0  1  0  0  0  0  0  0
   -4.9580   14.1627   16.9418 C   0  0  0  0  0  0  0  0  0  0  0  0
   -9.6091   15.5322   19.4443 C   0  0  0  0  0  0  0  0  0  0  0  0
   -9.7783   13.8726   17.1861 C   0  0  0  0  0  0  0  0  0  0  0  0
  -10.9817   12.2138   15.8871 C   0  0  0  0  0  0  0  0  0  0  0  0
   -3.7766   12.2758   16.2428 O   0  0  0  0  0  0  0  0  0  0  0  0
   -8.5660   10.9985   15.1538 C   0  0  0  0  0  0  0  0  0  0  0  0
   -6.1100   12.3231   16.0487 N   0  0  0  0  0  0  0  0  0  0  0  0
   -7.4620   10.2369   14.8999 O   0  0  0  0  0  0  0  0  0  0  0  0
   -4.9463   12.8894   16.3773 C   0  0  0  0  0  0  0  0  0  0  0  0
   -1.5676    9.6274   17.4281 S   0  0  0  0  0  4  0  0  0  0  0  0
   -7.7409    8.9104   14.3527 C   0  0  0  0  0  0  0  0  0  0  0  0
   -4.3347    9.7538   15.9892 C   0  0  0  0  0  0  0  0  0  0  0  0
   -6.1844   14.7062   17.2599 C   0  0  0  0  0  0  0  0  0  0  0  0
   -8.5542   12.1869   15.9268 C   0  0  0  0  0  0  0  0  0  0  0  0
   -9.8001   10.5224   14.6889 C   0  0  0  0  0  0  0  0  0  0  0  0
   -9.7606   12.7578   16.3172 C   0  0  0  0  0  0  0  0  0  0  0  0
   -1.9431   10.7044   15.9322 C   0  0  0  0  0  0  0  0  0  0  0  0
  -10.9795   11.1149   15.0599 C   0  0  0  0  0  0  0  0  0  0  0  0
   -3.5208   11.0146   15.7567 C   0  0  0  0  0  0  0  0  0  0  0  0
   -7.3349   12.8148   16.3149 C   0  0  0  0  0  0  0  0  0  0  0  0
   -8.6078   14.5506   17.5206 C   0  0  0  0  0  0  0  0  0  0  0  0
   -1.5877   10.8255   18.7541 C   0  0  0  0  0  0  0  0  0  0  0  0
   -7.3820   14.0510   17.0382 C   0  0  0  0  0  0  0  0  0  0  0  0
  1  5  1  0
  1 24  1  0
  2 13  1  0
  3 13  1  0
  4 12  2  0
  4 16  1  0
  6 19  1  0
  6 24  2  0
  7 19  2  0
  7 21  1  0
  8 12  1  0
  8 22  1  0
  9 11  1  0
  9 17  2  0
  9 18  1  0
 10 12  1  0
 10 23  2  0
 11 14  1  0
 13 20  1  0
 13 25  1  0
 15 22  1  0
 16 26  2  0
 17 19  1  0
 17 23  1  0
 18 21  2  0
 20 22  1  0
 23 26  1  0
 24 26  1  0
M  END
>  <ID>  (1) 
conformer_0

$$$$
