
     RDKit          3D

 27 30  0  0  0  0  0  0  0  0999 V2000
   -1.7508   12.5621   16.8713 C   0  0  0  0  0  0  0  0  0  0  0  0
   -4.4233    8.6084   15.4252 O   0  0  0  0  0  0  0  0  0  0  0  0
  -10.0493   14.9280   18.4368 N   0  0  0  0  0  0  0  0  0  0  0  0
   -9.8666   10.7672   14.7571 C   0  0  0  0  0  0  0  0  0  0  0  0
  -11.2345   12.4913   16.1423 C   0  0  0  0  0  0  0  0  0  0  0  0
   -1.1405   11.2946   17.3335 C   0  0  0  0  0  0  0  0  0  0  0  0
   -6.8607   12.2985   15.7651 N   0  0  0  0  0  0  0  0  0  0  0  0
   -7.9889    9.2728   14.5301 C   0  0  0  0  0  0  0  0  0  0  0  0
   -6.7698    8.7108   15.1694 C   0  0  0  0  0  0  0  0  0  0  0  0
  -11.2223   13.4396   17.0387 N   0  0  0  0  0  0  0  0  0  0  0  0
   -6.5382    7.3704   14.6379 O   0  0  0  0  0  0  0  0  0  0  0  0
  -10.0443   13.9710   17.4718 C   0  0  0  0  0  0  0  0  0  0  0  0
   -2.0960   10.4112   17.9751 C   0  0  0  0  0  0  0  0  0  0  0  0
   -6.6409   13.2811   16.5990 C   0  0  0  0  0  0  0  0  0  0  0  0
   -3.7626   11.1887   16.3696 C   0  0  0  0  0  0  0  0  0  0  0  0
   -8.4987   10.6202   14.8387 N   0  0  0  0  0  0  0  0  0  0  0  0
   -3.6620   13.6599   16.0886 O   0  0  0  0  0  0  0  0  0  0  0  0
   -3.2837   10.2021   17.2775 N   0  0  0  0  0  0  0  0  0  0  0  0
   -5.5147    9.5003   15.4658 C   0  0  0  0  0  0  0  0  0  0  0  0
   -3.1227   12.4676   16.4745 C   0  0  0  0  0  0  0  0  0  0  0  0
   -8.9657   12.3727   16.0448 C   0  0  0  0  0  0  0  0  0  0  0  0
   -1.6653    9.5912   18.8518 O   0  0  0  0  0  0  0  0  0  0  0  0
   -7.9490   11.6931   15.5210 C   0  0  0  0  0  0  0  0  0  0  0  0
   -7.5903   13.9356   17.2137 N   0  0  0  0  0  0  0  0  0  0  0  0
   -4.8255   10.8686   15.3682 C   0  0  0  0  0  0  0  0  0  0  0  0
  -10.1666   11.8508   15.6081 N   0  0  0  0  0  0  0  0  0  0  0  0
   -8.8193   13.4360   16.9197 C   0  0  0  0  0  0  0  0  0  0  0  0
  1  6  1  0
  1 20  2  0
  2 19  1  0
  3 12  2  0
  4 16  1  0
  4 26  1  0
  5 10  2  0
  5 26  1  0
  6 13  1  0
  7 14  1  0
  7 23  2  0
  8  9  1  0
  8 16  1  0
  9 11  1  0
  9 19  1  0
 10 12  1  0
 12 27  1  0
 13 18  1  0
 13 22  2  0
 14 24  1  0
 15 18  2  0
 15 20  1  0
 15 25  1  0
 16 23  1  0
 17 20  1  0
 19 25  1  0
 21 23  1  0
 21 26  1  0
 21 27  2  0
 24 27  1  0
M  END
>  <ID>  (1) 
conformer_0

$$$$
