
     RDKit          3D

 30 33  0  0  0  0  0  0  0  0999 V2000
   -5.1219    8.9602   15.7445 C   0  0  0  0  0  0  0  0  0  0  0  0
   -3.9294   11.1060   20.2034 C   0  0  0  0  0  0  0  0  0  0  0  0
   -7.4308   11.5828   14.9697 N   0  0  0  0  0  0  0  0  0  0  0  0
  -10.8492   13.2255   16.6115 N   0  0  0  0  0  0  0  0  0  0  0  0
   -5.3552   14.9540   16.8471 O   0  0  0  0  0  0  0  0  0  0  0  0
   -4.2287   14.1626   17.1519 C   0  0  0  0  0  0  0  0  0  0  0  0
   -5.9824   15.7518   17.9491 C   0  0  0  0  0  0  0  0  0  0  0  0
   -3.5005    9.8197   19.7864 C   0  0  0  0  0  0  0  0  0  0  0  0
   -4.2846   12.8231   16.8609 N   0  0  0  0  0  0  0  0  0  0  0  0
   -4.1207   10.9838   13.7272 O   0  0  0  0  0  0  0  0  0  0  0  0
   -3.1309   14.6373   17.4290 O   0  0  0  0  0  0  0  0  0  0  0  0
   -6.9895   15.1502   18.7882 C   0  0  0  0  0  0  0  0  0  0  0  0
  -10.9475   12.1641   15.8994 N   0  0  0  0  0  0  0  0  0  0  0  0
   -4.2061   11.7806   17.8760 C   0  0  0  0  0  0  0  0  0  0  0  0
   -8.8262    9.7879   14.1903 C   0  0  0  0  0  0  0  0  0  0  0  0
   -4.7328   11.3689   15.0146 C   0  0  0  0  0  0  0  0  0  0  0  0
   -9.9467   10.3980   14.6638 C   0  0  0  0  0  0  0  0  0  0  0  0
   -3.8880   12.6880   15.4217 C   0  0  0  0  0  0  0  0  0  0  0  0
   -8.4682   13.2900   16.3090 N   0  0  0  0  0  0  0  0  0  0  0  0
   -9.6224   13.8376   16.8425 C   0  0  0  0  0  0  0  0  0  0  0  0
   -8.5350   12.1882   15.5818 C   0  0  0  0  0  0  0  0  0  0  0  0
   -3.9666   10.4559   17.4487 C   0  0  0  0  0  0  0  0  0  0  0  0
   -6.1039   12.2177   14.8014 C   0  0  0  0  0  0  0  0  0  0  0  0
   -7.6086   10.3529   14.3713 C   0  0  0  0  0  0  0  0  0  0  0  0
   -9.8142   11.5770   15.3738 C   0  0  0  0  0  0  0  0  0  0  0  0
   -3.5648    9.5102   18.3903 C   0  0  0  0  0  0  0  0  0  0  0  0
   -4.2988   12.0393   19.2302 C   0  0  0  0  0  0  0  0  0  0  0  0
   -6.6967   13.9998   19.8088 C   0  0  0  0  0  0  0  0  0  0  0  0
   -4.1754   10.1694   16.0001 C   0  0  0  0  0  0  0  0  0  0  0  0
   -9.5161   14.8893   17.5780 O   0  0  0  0  0  0  0  0  0  0  0  0
  1 29  1  0
  2  8  2  0
  2 27  1  0
  3 21  1  0
  3 23  1  0
  3 24  1  0
  4 13  2  0
  4 20  1  0
  5  6  1  0
  5  7  1  0
  6  9  1  0
  6 11  2  0
  7 12  1  0
  8 26  1  0
  9 14  1  0
  9 18  1  0
 10 16  1  0
 12 28  1  0
 13 25  1  0
 14 22  1  0
 14 27  2  0
 15 17  1  0
 15 24  2  0
 16 18  1  0
 16 23  1  0
 16 29  1  0
 17 25  2  0
 19 20  1  0
 19 21  2  0
 20 30  2  0
 21 25  1  0
 22 26  2  0
 22 29  1  0
M  END
>  <ID>  (1) 
conformer_0

$$$$
