
     RDKit          3D

 31 34  0  0  0  0  0  0  0  0999 V2000
   -8.4782   14.9528   20.1244 C   0  0  0  0  0  0  0  0  0  0  0  0
   -8.8051   11.1239   15.2813 C   0  0  0  0  0  0  0  0  0  0  0  0
  -10.2264   14.1417   17.7743 C   0  0  0  0  0  0  0  0  0  0  0  0
   -8.6658   12.9042   16.8276 C   0  0  0  0  0  0  0  0  0  0  0  0
   -9.0011   13.7420   17.6241 N   0  0  0  0  0  0  0  0  0  0  0  0
   -6.7105   10.0160   15.0936 N   0  0  0  0  0  0  0  0  0  0  0  0
   -4.4721   12.9112   15.7587 C   0  0  0  0  0  0  0  0  0  0  0  0
  -11.1975   13.5245   17.0257 N   0  0  0  0  0  0  0  0  0  0  0  0
   -1.0180   10.3301   16.4448 O   0  0  0  0  0  0  0  0  0  0  0  0
   -8.4685   17.2754   19.6977 C   0  0  0  0  0  0  0  0  0  0  0  0
   -8.6658    8.9529   14.2877 C   0  0  0  0  0  0  0  0  0  0  0  0
   -4.0671   10.4575   15.7432 C   0  0  0  0  0  0  0  0  0  0  0  0
   -6.4083   15.8153   19.0066 C   0  0  0  0  0  0  0  0  0  0  0  0
   -3.4470    9.4326   16.7234 C   0  0  0  0  0  0  0  0  0  0  0  0
   -6.2757   15.0941   17.6980 C   0  0  0  0  0  0  0  0  0  0  0  0
   -9.2926   16.0291   19.2920 C   0  0  0  0  0  0  0  0  0  0  0  0
   -4.2939   13.8667   16.8692 C   0  0  0  0  0  0  0  0  0  0  0  0
   -3.3872   11.8112   15.8720 C   0  0  0  0  0  0  0  0  0  0  0  0
   -6.6299    7.7052   14.5897 O   0  0  0  0  0  0  0  0  0  0  0  0
   -7.0110   14.9739   20.0607 N   0  0  0  0  0  0  0  0  0  0  0  0
   -7.4383   11.1067   15.4152 C   0  0  0  0  0  0  0  0  0  0  0  0
  -10.5065   15.1995   18.6661 N   0  0  0  0  0  0  0  0  0  0  0  0
   -1.4120    8.6640   18.1064 C   0  0  0  0  0  0  0  0  0  0  0  0
   -4.9715   15.1324   16.9824 C   0  0  0  0  0  0  0  0  0  0  0  0
  -10.8257   12.5929   16.1367 C   0  0  0  0  0  0  0  0  0  0  0  0
   -9.4166   10.1253   14.6001 C   0  0  0  0  0  0  0  0  0  0  0  0
   -1.9787    9.5406   17.0004 C   0  0  0  0  0  0  0  0  0  0  0  0
   -9.5234   12.1920   16.0038 C   0  0  0  0  0  0  0  0  0  0  0  0
   -7.0647   17.1998   19.1444 C   0  0  0  0  0  0  0  0  0  0  0  0
   -5.2956   10.0781   15.2714 N   0  0  0  0  0  0  0  0  0  0  0  0
   -7.3254    8.8563   14.6202 C   0  0  0  0  0  0  0  0  0  0  0  0
  1 16  1  0
  1 20  2  0
  2 21  2  0
  2 26  1  0
  2 28  1  0
  3  5  2  0
  3  8  1  0
  3 22  1  0
  4  5  1  0
  4 28  2  0
  6 21  1  0
  6 30  1  0
  6 31  1  0
  7 17  1  0
  7 18  1  0
  8 25  2  0
  9 27  1  0
 10 16  1  0
 10 29  1  0
 11 26  2  0
 11 31  1  0
 12 14  1  0
 12 18  1  0
 12 30  1  0
 13 15  1  0
 13 20  1  0
 13 29  1  0
 14 27  2  3
 15 24  1  0
 16 22  1  0
 17 24  1  0
 19 31  2  0
 23 27  1  0
 25 28  1  0
M  END
>  <ID>  (1) 
conformer_0

$$$$
