
     RDKit          3D

 34 37  0  0  0  0  0  0  0  0999 V2000
   -7.5673   14.8082   17.7614 C   0  0  0  0  0  0  0  0  0  0  0  0
   -2.1386    9.2610   18.5153 C   0  0  0  0  0  0  0  0  0  0  0  0
   -5.3691    8.6587   15.3323 O   0  0  0  0  0  0  0  0  0  0  0  0
   -3.3888    8.9549   17.9674 C   0  0  0  0  0  0  0  0  0  0  0  0
   -5.2819   13.1899   18.2007 C   0  0  0  0  0  0  0  0  0  0  0  0
  -10.0733   10.7013   14.6264 N   0  0  0  0  0  0  0  0  0  0  0  0
   -6.8429   12.1193   15.4868 C   0  0  0  0  0  0  0  0  0  0  0  0
   -8.9516   16.2555   19.5642 C   0  0  0  0  0  0  0  0  0  0  0  0
   -4.2831   10.5225   16.0863 C   0  0  0  0  0  0  0  0  0  0  0  0
   -1.8137   11.3402   17.2815 C   0  0  0  0  0  0  0  0  0  0  0  0
   -9.5642   13.8354   16.7977 C   0  0  0  0  0  0  0  0  0  0  0  0
   -2.4746   12.0718   16.3600 C   0  0  0  0  0  0  0  0  0  0  0  0
   -6.5236   10.7847   15.2273 C   0  0  0  0  0  0  0  0  0  0  0  0
   -8.2357   12.2445   15.3824 C   0  0  0  0  0  0  0  0  0  0  0  0
   -3.8676    9.6960   17.0354 C   0  0  0  0  0  0  0  0  0  0  0  0
   -5.3923    9.9831   15.4233 C   0  0  0  0  0  0  0  0  0  0  0  0
   -1.3841    8.2392   19.2456 C   0  0  0  0  0  0  0  0  0  0  0  0
   -1.5347   10.4349   18.1420 C   0  0  0  0  0  0  0  0  0  0  0  0
  -10.5767   12.8927   17.1642 N   0  0  0  0  0  0  0  0  0  0  0  0
   -8.8497   13.4115   15.7037 O   0  0  0  0  0  0  0  0  0  0  0  0
   -9.6400   15.3546   18.7164 C   0  0  0  0  0  0  0  0  0  0  0  0
   -1.9785   13.3111   16.0309 F   0  0  0  0  0  0  0  0  0  0  0  0
  -11.1065   11.3692   15.1085 N   0  0  0  0  0  0  0  0  0  0  0  0
   -6.8622   15.5889   18.5663 C   0  0  0  0  0  0  0  0  0  0  0  0
   -7.6991   10.1251   14.7586 C   0  0  0  0  0  0  0  0  0  0  0  0
   -4.9814   14.5283   17.6524 C   0  0  0  0  0  0  0  0  0  0  0  0
   -4.5779   14.8194   16.4597 O   0  0  0  0  0  0  0  0  0  0  0  0
   -8.8056   11.0251   14.9027 C   0  0  0  0  0  0  0  0  0  0  0  0
   -7.8045    8.9532   14.2543 O   0  0  0  0  0  0  0  0  0  0  0  0
  -11.2213   12.3372   16.0901 C   0  0  0  0  0  0  0  0  0  0  0  0
   -3.6649   11.7139   15.7061 C   0  0  0  0  0  0  0  0  0  0  0  0
   -8.9060   14.6458   17.7683 C   0  0  0  0  0  0  0  0  0  0  0  0
   -7.5622   16.3664   19.4742 C   0  0  0  0  0  0  0  0  0  0  0  0
   -5.4548   15.5723   18.4510 N   0  0  0  0  0  0  0  0  0  0  0  0
  1 24  2  0
  1 32  1  0
  2  4  1  0
  2 17  1  0
  2 18  1  0
  3 16  1  0
  4 15  2  0
  5 26  1  0
  6 23  2  0
  6 28  1  0
  7 13  1  0
  7 14  1  0
  8 21  1  0
  8 33  2  0
  9 15  2  0
  9 16  1  0
  9 31  1  0
 10 12  2  0
 10 18  2  0
 11 19  1  0
 11 20  1  0
 11 32  1  0
 12 22  1  0
 12 31  1  0
 13 16  2  3
 13 25  1  0
 14 20  1  0
 14 28  2  0
 19 30  1  0
 21 32  2  0
 23 30  1  0
 24 33  1  0
 24 34  1  0
 25 28  1  0
 25 29  2  0
 26 27  2  0
 26 34  1  0
M  END
>  <ID>  (1) 
conformer_0

$$$$
