
     RDKit          3D

 30 35  0  0  0  0  0  0  0  0999 V2000
   -5.3193   14.4002   18.3338 N   0  0  0  0  0  0  0  0  0  0  0  0
   -8.6107   13.3493   16.9907 C   0  0  0  0  0  0  0  0  0  0  0  0
  -11.3791   13.1596   16.7504 N   0  0  0  0  0  0  0  0  0  0  0  0
   -1.4246    9.3886   17.2720 O   0  0  0  0  0  0  0  0  0  0  0  0
   -9.8167   10.6999   14.7016 N   0  0  0  0  0  0  0  0  0  0  0  0
   -2.2699   10.1847   15.1049 O   0  0  0  0  0  0  0  0  0  0  0  0
   -5.3091   10.6275   15.2923 N   0  0  0  0  0  0  0  0  0  0  0  0
   -0.0148    8.9280   16.6067 P   0  0  0  0  0  4  0  0  0  0  0  0
   -2.3818   10.0515   16.4280 C   0  0  0  0  0  0  0  0  0  0  0  0
   -4.3671   11.4364   16.1278 C   0  0  0  0  0  0  0  0  0  0  0  0
   -6.4455   12.5921   16.6095 C   0  0  0  0  0  0  0  0  0  0  0  0
  -11.0294   12.2461   15.9233 C   0  0  0  0  0  0  0  0  0  0  0  0
   -9.8064   11.7446   15.5674 C   0  0  0  0  0  0  0  0  0  0  0  0
   -4.5640   13.4497   17.6632 C   0  0  0  0  0  0  0  0  0  0  0  0
   -6.6862   14.4385   18.1398 C   0  0  0  0  0  0  0  0  0  0  0  0
   -7.5838   15.3080   18.8120 C   0  0  0  0  0  0  0  0  0  0  0  0
   -9.4298   14.1853   17.6809 C   0  0  0  0  0  0  0  0  0  0  0  0
   -8.9396   15.1253   18.5670 N   0  0  0  0  0  0  0  0  0  0  0  0
   -5.1348   12.4972   16.7655 C   0  0  0  0  0  0  0  0  0  0  0  0
   -8.8778    9.8891   14.2682 C   0  0  0  0  0  0  0  0  0  0  0  0
   -7.5202    9.8241   14.4467 C   0  0  0  0  0  0  0  0  0  0  0  0
   -6.7953   10.7775   15.1907 C   0  0  0  0  0  0  0  0  0  0  0  0
    0.6007    7.9089   17.5484 O   0  0  0  0  0  1  0  0  0  0  0  0
   -7.2197   13.5600   17.2966 C   0  0  0  0  0  0  0  0  0  0  0  0
    0.8106   10.1584   16.4150 O   0  0  0  0  0  0  0  0  0  0  0  0
   -0.2853    8.1975   15.2439 O   0  0  0  0  0  0  0  0  0  0  0  0
   -3.1562   11.1840   17.0364 C   0  0  0  0  0  0  0  0  0  0  0  0
   -8.6565   12.2702   16.1023 C   0  0  0  0  0  0  0  0  0  0  0  0
   -7.3635   11.8006   15.8684 C   0  0  0  0  0  0  0  0  0  0  0  0
  -10.8244   14.0857   17.5442 C   0  0  0  0  0  0  0  0  0  0  0  0
  1 14  2  0
  1 15  1  0
  2 17  1  0
  2 24  1  0
  2 28  1  0
  3 12  2  0
  3 30  1  0
  4  8  1  0
  4  9  1  0
  5 13  1  0
  5 20  2  0
  6  9  2  0
  7 10  1  0
  7 22  1  0
  8 23  2  0
  8 25  1  0
  8 26  1  0
  9 27  1  0
 10 19  1  0
 10 27  1  0
 11 19  2  0
 11 24  1  0
 11 29  1  0
 12 13  1  0
 13 28  2  0
 14 19  1  0
 15 16  1  0
 15 24  2  0
 16 18  2  0
 17 18  1  0
 17 30  2  0
 20 21  1  0
 21 22  1  0
 22 29  2  0
 28 29  1  0
M  END
>  <ID>  (1) 
conformer_0

$$$$
