
     RDKit          3D

 25 28  0  0  0  0  0  0  0  0999 V2000
   -7.5346   10.9009   15.2223 C   0  0  0  0  0  0  0  0  0  0  0  0
  -10.2758   10.8503   14.8811 C   0  0  0  0  0  0  0  0  0  0  0  0
   -3.0708   12.6024   16.5202 C   0  0  0  0  0  0  0  0  0  0  0  0
   -9.6010   14.0816   17.9301 C   0  0  0  0  0  0  0  0  0  0  0  0
   -5.3423   13.0504   16.4076 C   0  0  0  0  0  0  0  0  0  0  0  0
   -5.5923    9.5793   15.1109 O   0  0  0  0  0  0  0  0  0  0  0  0
   -6.0860   10.7209   15.4008 C   0  0  0  0  0  0  0  0  0  0  0  0
   -3.8924   14.8633   17.2439 O   0  0  0  0  0  0  0  0  0  0  0  0
   -8.1210    9.8895   14.5178 C   0  0  0  0  0  0  0  0  0  0  0  0
   -5.1582   11.7096   15.9127 C   0  0  0  0  0  0  0  0  0  0  0  0
   -9.4700    9.8933   14.3025 C   0  0  0  0  0  0  0  0  0  0  0  0
   -3.1529   10.2482   15.6488 N   0  0  0  0  0  0  0  0  0  0  0  0
  -11.0108   13.6959   17.3314 C   0  0  0  0  0  0  0  0  0  0  0  0
   -9.7096   15.4512   18.6790 C   0  0  0  0  0  0  0  0  0  0  0  0
   -9.7443   11.8218   15.6721 C   0  0  0  0  0  0  0  0  0  0  0  0
   -1.9461    9.6174   15.8405 C   0  0  0  0  0  0  0  0  0  0  0  0
   -6.5931   13.5774   16.5015 C   0  0  0  0  0  0  0  0  0  0  0  0
   -1.6970    9.2123   17.3553 C   0  0  0  0  0  0  0  0  0  0  0  0
   -5.0579   15.6884   17.4285 C   0  0  0  0  0  0  0  0  0  0  0  0
   -3.7557   11.4139   16.0020 C   0  0  0  0  0  0  0  0  0  0  0  0
   -7.8250   13.1784   16.3584 C   0  0  0  0  0  0  0  0  0  0  0  0
  -10.8470   12.5559   16.4343 C   0  0  0  0  0  0  0  0  0  0  0  0
   -8.6685   14.0865   16.8663 N   0  0  0  0  0  0  0  0  0  0  0  0
   -8.3250   11.9483   15.7430 N   0  0  0  0  0  0  0  0  0  0  0  0
   -4.0900   13.6148   16.7670 C   0  0  0  0  0  0  0  0  0  0  0  0
  1  7  1  0
  1  9  1  0
  1 24  1  0
  2 11  1  0
  2 15  2  0
  3 20  1  0
  3 25  1  0
  4 13  1  0
  4 14  1  0
  4 23  1  0
  5 10  1  0
  5 17  1  0
  5 25  2  0
  6  7  2  0
  7 10  1  0
  8 19  1  0
  8 25  1  0
  9 11  2  0
 10 20  2  0
 12 16  1  0
 12 20  1  0
 13 22  1  0
 15 22  1  0
 15 24  1  0
 16 18  1  0
 17 21  2  0
 21 23  1  0
 21 24  1  0
M  END
>  <ID>  (1) 
conformer_0

$$$$
