
     RDKit          3D

 27 30  0  0  0  0  0  0  0  0999 V2000
   -8.6127   12.6518   16.0377 C   0  0  0  0  0  0  0  0  0  0  0  0
   -9.9617   12.8658   16.3336 C   0  0  0  0  0  0  0  0  0  0  0  0
   -3.2840   14.6238   17.2902 C   0  0  0  0  0  0  0  0  0  0  0  0
   -8.4769   14.4475   18.7662 C   0  0  0  0  0  0  0  0  0  0  0  0
   -3.5907   15.7251   18.0309 C   0  0  0  0  0  0  0  0  0  0  0  0
  -10.5028   10.8670   15.1300 C   0  0  0  0  0  0  0  0  0  0  0  0
   -4.0784   10.1605   15.7798 C   0  0  0  0  0  0  0  0  0  0  0  0
   -5.0722    9.1520   15.5155 C   0  0  0  0  0  0  0  0  0  0  0  0
   -9.8614   14.7399   18.1527 C   0  0  0  0  0  0  0  0  0  0  0  0
   -5.9334   15.0885   18.1590 C   0  0  0  0  0  0  0  0  0  0  0  0
   -4.8916   15.9691   18.4762 C   0  0  0  0  0  0  0  0  0  0  0  0
  -10.8999   11.9818   15.8259 C   0  0  0  0  0  0  0  0  0  0  0  0
   -7.3661   15.4681   18.6031 C   0  0  0  0  0  0  0  0  0  0  0  0
   -8.1878   11.4258   15.4860 N   0  0  0  0  0  0  0  0  0  0  0  0
   -2.6465    9.8827   15.9007 C   0  0  0  0  0  0  0  0  0  0  0  0
   -3.7534   12.6120   16.2682 N   0  0  0  0  0  0  0  0  0  0  0  0
   -6.8304   10.9038   15.4634 C   0  0  0  0  0  0  0  0  0  0  0  0
   -5.5713   13.9817   17.4071 C   0  0  0  0  0  0  0  0  0  0  0  0
   -6.3856    9.5320   15.2807 C   0  0  0  0  0  0  0  0  0  0  0  0
   -5.8501   11.7735   15.7192 N   0  0  0  0  0  0  0  0  0  0  0  0
  -10.4738   13.8838   17.1967 N   0  0  0  0  0  0  0  0  0  0  0  0
   -4.2800   13.6983   16.9629 C   0  0  0  0  0  0  0  0  0  0  0  0
   -2.2007    8.9051   16.6495 N   0  0  0  0  0  0  0  0  0  0  0  0
   -4.5613   11.5183   15.9102 C   0  0  0  0  0  0  0  0  0  0  0  0
   -1.7814   10.6857   15.3891 O   0  0  0  0  0  0  0  0  0  0  0  0
   -8.8389    9.4044   14.4261 O   0  0  0  0  0  0  0  0  0  0  0  0
   -9.1680   10.5433   15.0017 C   0  0  0  0  0  0  0  0  0  0  0  0
  1  2  2  0
  1 14  1  0
  2 12  1  0
  2 21  1  0
  3  5  2  0
  3 22  1  0
  4  9  1  0
  4 13  1  0
  5 11  1  0
  6 12  2  0
  6 27  1  0
  7  8  2  0
  7 15  1  0
  7 24  1  0
  8 19  1  0
  9 21  1  0
 10 11  1  0
 10 13  1  0
 10 18  2  0
 14 17  1  0
 14 27  1  0
 15 23  1  0
 15 25  2  0
 16 22  2  0
 16 24  1  0
 17 19  2  0
 17 20  1  0
 18 22  1  0
 20 24  2  0
 26 27  2  0
M  END
>  <ID>  (1) 
conformer_0

$$$$
