
     RDKit          3D

 24 27  0  0  0  0  0  0  0  0999 V2000
   -4.4505   11.0851   16.3502 N   0  0  0  0  0  0  0  0  0  0  0  0
   -2.7243   11.5242   18.0330 C   0  0  0  0  0  0  0  0  0  0  0  0
   -6.7392   11.5858   15.8708 N   0  0  0  0  0  0  0  0  0  0  0  0
   -3.4137    9.9670   16.3100 C   0  0  0  0  0  0  0  0  0  0  0  0
   -8.1031    9.3954   14.6212 C   0  0  0  0  0  0  0  0  0  0  0  0
   -5.7891    9.5293   15.2856 N   0  0  0  0  0  0  0  0  0  0  0  0
  -10.3175   12.4624   16.1760 N   0  0  0  0  0  0  0  0  0  0  0  0
   -3.6799   12.1891   16.9951 C   0  0  0  0  0  0  0  0  0  0  0  0
   -8.6278   13.6692   17.0650 C   0  0  0  0  0  0  0  0  0  0  0  0
  -10.0643   10.6569   14.7127 N   0  0  0  0  0  0  0  0  0  0  0  0
   -7.4036   14.4044   17.3196 C   0  0  0  0  0  0  0  0  0  0  0  0
  -10.9762   13.4525   17.0510 N   0  0  0  0  0  0  0  0  0  0  0  0
   -8.9516   12.5683   16.2899 C   0  0  0  0  0  0  0  0  0  0  0  0
  -10.8740   11.5449   15.3163 C   0  0  0  0  0  0  0  0  0  0  0  0
   -4.4928   14.5669   16.4297 C   0  0  0  0  0  0  0  0  0  0  0  0
   -8.0833   11.5760   15.7488 C   0  0  0  0  0  0  0  0  0  0  0  0
   -4.3844   13.4375   17.5919 C   0  0  0  0  0  0  0  0  0  0  0  0
  -10.0430   15.1771   18.5245 N   0  0  0  0  0  0  0  0  0  0  0  0
   -5.7398   10.7566   15.8166 C   0  0  0  0  0  0  0  0  0  0  0  0
   -2.6264   10.0831   17.5314 C   0  0  0  0  0  0  0  0  0  0  0  0
   -8.7622   10.5600   15.0232 C   0  0  0  0  0  0  0  0  0  0  0  0
   -9.9170   14.1644   17.5901 C   0  0  0  0  0  0  0  0  0  0  0  0
   -6.8767    8.9497   14.8173 C   0  0  0  0  0  0  0  0  0  0  0  0
   -1.8508    9.0673   18.1408 C   0  0  0  0  0  0  0  0  0  0  0  0
  1  4  1  0
  1  8  1  0
  1 19  1  0
  2  8  1  0
  2 20  1  0
  3 16  1  0
  3 19  1  0
  4 20  1  0
  5 21  1  0
  5 23  2  0
  6 19  2  0
  6 23  1  0
  7 12  1  0
  7 13  1  0
  7 14  1  0
  8 17  1  0
  9 11  1  0
  9 13  1  0
  9 22  1  0
 10 14  2  0
 10 21  1  0
 12 22  1  0
 13 16  1  0
 15 17  1  0
 16 21  2  0
 18 22  2  0
 20 24  1  0
M  END
>  <ID>  (1) 
conformer_0

$$$$
