
     RDKit          3D

 26 29  0  0  0  0  0  0  0  0999 V2000
   -3.0454   13.5293   17.2491 C   0  0  0  0  0  0  0  0  0  0  0  0
   -3.0480   11.3788   16.1027 O   0  0  0  0  0  0  0  0  0  0  0  0
   -5.1269   12.7339   16.3182 C   0  0  0  0  0  0  0  0  0  0  0  0
   -6.2077   10.0155   15.1818 C   0  0  0  0  0  0  0  0  0  0  0  0
   -6.8722    9.0275   14.5187 N   0  0  0  0  0  0  0  0  0  0  0  0
   -6.8310   11.1621   15.5794 C   0  0  0  0  0  0  0  0  0  0  0  0
   -6.3546   12.3209   16.2286 C   0  0  0  0  0  0  0  0  0  0  0  0
  -10.2694   13.9017   17.0556 C   0  0  0  0  0  0  0  0  0  0  0  0
   -1.3179   10.8268   17.3163 C   0  0  0  0  0  0  0  0  0  0  0  0
   -2.0685    8.6191   18.0006 O   0  0  0  0  0  0  0  0  0  0  0  0
  -11.3697   14.0753   17.4273 O   0  0  0  0  0  0  0  0  0  0  0  0
   -4.6187   13.5604   17.2356 C   0  0  0  0  0  0  0  0  0  0  0  0
  -10.9915   11.9975   15.8164 N   0  0  0  0  0  0  0  0  0  0  0  0
   -7.4401   13.0957   16.7734 C   0  0  0  0  0  0  0  0  0  0  0  0
   -8.6492   12.5287   16.1193 C   0  0  0  0  0  0  0  0  0  0  0  0
   -8.8595   10.3986   14.6562 C   0  0  0  0  0  0  0  0  0  0  0  0
   -2.4333    9.8653   17.8118 C   0  0  0  0  0  0  0  0  0  0  0  0
   -8.2059   11.3298   15.4079 C   0  0  0  0  0  0  0  0  0  0  0  0
   -9.9800   12.8563   15.9958 C   0  0  0  0  0  0  0  0  0  0  0  0
   -6.9481   14.0215   17.7405 C   0  0  0  0  0  0  0  0  0  0  0  0
   -9.2382   15.5379   18.4340 C   0  0  0  0  0  0  0  0  0  0  0  0
   -5.5690   14.2365   18.0463 C   0  0  0  0  0  0  0  0  0  0  0  0
   -3.5479   10.2452   16.8970 C   0  0  0  0  0  0  0  0  0  0  0  0
   -2.1471   12.1514   16.9329 C   0  0  0  0  0  0  0  0  0  0  0  0
   -8.1964    9.2559   14.2577 C   0  0  0  0  0  0  0  0  0  0  0  0
   -9.2011   14.4870   17.5156 N   0  0  0  0  0  0  0  0  0  0  0  0
  1 12  1  0
  1 24  1  0
  2 23  1  0
  2 24  1  0
  3  7  1  0
  3 12  2  0
  4  5  2  0
  4  6  1  0
  5 25  1  0
  6  7  1  0
  6 18  1  0
  7 14  1  0
  8 11  2  0
  8 19  1  0
  8 26  1  0
  9 17  1  0
  9 24  1  0
 10 17  1  0
 12 22  1  0
 13 19  1  0
 14 15  1  0
 14 20  1  0
 15 18  1  0
 15 19  1  0
 16 18  2  0
 16 25  1  0
 17 23  1  0
 20 22  2  0
 21 26  1  0
M  END
>  <ID>  (1) 
conformer_0

$$$$
