
     RDKit          3D

 33 37  0  0  0  0  0  0  0  0999 V2000
   -7.3940   17.5554   19.3629 C   0  0  0  0  0  0  0  0  0  0  0  0
   -3.0232    9.8443   15.8412 C   0  0  0  0  0  0  0  0  0  0  0  0
   -2.2093   10.5324   16.8688 N   0  0  0  0  0  0  0  0  0  0  0  0
   -8.4754   17.9249   20.5933 C   0  0  0  0  0  0  0  0  0  0  0  0
   -2.9680   11.6285   17.6016 C   0  0  0  0  0  0  0  0  0  0  0  0
   -8.1337   16.4363   19.0765 C   0  0  0  0  0  0  0  0  0  0  0  0
  -10.2719   14.0205   17.4506 C   0  0  0  0  0  0  0  0  0  0  0  0
   -9.3264   16.9602   19.9435 C   0  0  0  0  0  0  0  0  0  0  0  0
   -8.0875   13.6143   16.5469 C   0  0  0  0  0  0  0  0  0  0  0  0
   -8.6749    9.3523   14.5205 C   0  0  0  0  0  0  0  0  0  0  0  0
  -11.0326   11.8037   15.7714 N   0  0  0  0  0  0  0  0  0  0  0  0
   -1.0427    9.6665   17.2936 C   0  0  0  0  0  0  0  0  0  0  0  0
   -5.1158   12.6604   16.4062 C   0  0  0  0  0  0  0  0  0  0  0  0
   -7.4813   12.7804   15.5910 C   0  0  0  0  0  0  0  0  0  0  0  0
   -3.7810   12.7154   17.0149 C   0  0  0  0  0  0  0  0  0  0  0  0
   -1.2250    9.3567   18.5892 F   0  0  0  0  0  0  0  0  0  0  0  0
   -6.3708    9.3349   15.0229 C   0  0  0  0  0  0  0  0  0  0  0  0
   -8.7780   10.6709   14.9777 C   0  0  0  0  0  0  0  0  0  0  0  0
  -11.5056   13.7723   17.4219 O   0  0  0  0  0  0  0  0  0  0  0  0
    0.0849   10.3372   17.1582 F   0  0  0  0  0  0  0  0  0  0  0  0
   -7.4844    8.6931   14.5944 C   0  0  0  0  0  0  0  0  0  0  0  0
   -9.8086   14.9903   18.2727 C   0  0  0  0  0  0  0  0  0  0  0  0
   -6.4073   10.6522   15.3583 C   0  0  0  0  0  0  0  0  0  0  0  0
  -10.1112   11.2504   15.0857 C   0  0  0  0  0  0  0  0  0  0  0  0
  -10.0478   12.3733   15.8090 C   0  0  0  0  0  0  0  0  0  0  0  0
   -0.9346    8.5019   16.6063 F   0  0  0  0  0  0  0  0  0  0  0  0
   -4.0936   10.7522   15.3966 C   0  0  0  0  0  0  0  0  0  0  0  0
   -5.2987   11.3653   15.7740 N   0  0  0  0  0  0  0  0  0  0  0  0
   -8.4844   15.3407   18.2325 C   0  0  0  0  0  0  0  0  0  0  0  0
   -7.6322   11.4067   15.3385 C   0  0  0  0  0  0  0  0  0  0  0  0
   -9.4275   13.2705   16.5703 C   0  0  0  0  0  0  0  0  0  0  0  0
   -7.6053   14.6693   17.4011 C   0  0  0  0  0  0  0  0  0  0  0  0
   -3.0086   13.9253   16.4874 C   0  0  0  0  0  0  0  0  0  0  0  0
  1  4  1  0
  1  6  1  0
  2  3  1  0
  2 27  1  0
  3  5  1  0
  3 12  1  0
  4  8  1  0
  5 15  1  0
  6  8  1  0
  6 29  1  0
  7 19  2  0
  7 22  1  0
  7 31  1  0
  9 14  1  0
  9 31  2  0
  9 32  1  0
 10 18  1  0
 10 21  2  0
 11 24  1  0
 11 25  1  0
 12 16  1  0
 12 20  1  0
 12 26  1  0
 13 15  1  0
 13 28  1  0
 14 30  1  0
 15 33  1  0
 17 21  1  0
 17 23  2  0
 18 24  1  0
 18 30  2  0
 22 29  2  0
 23 28  1  0
 23 30  1  0
 25 31  1  0
 27 28  1  0
 29 32  1  0
M  END
>  <ID>  (1) 
conformer_0

$$$$
