
     RDKit          3D

 27 31  0  0  0  0  0  0  0  0999 V2000
   -3.4264   10.8897   16.5428 C   0  0  0  0  0  0  0  0  0  0  0  0
   -6.2419   13.6228   16.5354 N   0  0  0  0  0  0  0  0  0  0  0  0
   -6.6547    9.1464   14.7917 C   0  0  0  0  0  0  0  0  0  0  0  0
  -10.7955   13.0874   16.6394 N   0  0  0  0  0  0  0  0  0  0  0  0
   -2.2058    9.9448   16.7170 C   0  0  0  0  0  0  0  0  0  0  0  0
   -4.7710   13.9837   16.9700 S   0  0  0  0  0  4  0  0  0  0  0  0
  -10.6835   13.9882   17.6058 C   0  0  0  0  0  0  0  0  0  0  0  0
   -1.6918    8.7499   18.7078 C   0  0  0  0  0  0  0  0  0  0  0  0
   -7.8135   11.2041   15.5442 C   0  0  0  0  0  0  0  0  0  0  0  0
   -8.9676    9.4680   14.2544 C   0  0  0  0  0  0  0  0  0  0  0  0
   -8.2138   14.2053   17.7849 C   0  0  0  0  0  0  0  0  0  0  0  0
   -3.7184   14.0078   15.9871 O   0  0  0  0  0  1  0  0  0  0  0  0
   -9.7365   12.4114   16.0651 C   0  0  0  0  0  0  0  0  0  0  0  0
   -8.9729   10.6605   14.9376 C   0  0  0  0  0  0  0  0  0  0  0  0
   -5.0389   10.7407   15.8435 C   0  0  0  0  0  0  0  0  0  0  0  0
   -6.6177   10.4078   15.3840 C   0  0  0  0  0  0  0  0  0  0  0  0
   -7.8211    8.7007   14.2214 C   0  0  0  0  0  0  0  0  0  0  0  0
   -1.7966   10.0845   18.0866 N   0  0  0  0  0  0  0  0  0  0  0  0
   -5.1543   12.3587   19.2170 C   0  0  0  0  0  0  0  0  0  0  0  0
   -9.4628   14.4243   18.1070 C   0  0  0  0  0  0  0  0  0  0  0  0
   -3.1699   11.9418   17.6797 C   0  0  0  0  0  0  0  0  0  0  0  0
  -10.0984   11.4137   15.1770 N   0  0  0  0  0  0  0  0  0  0  0  0
   -7.5514   13.3962   16.8446 C   0  0  0  0  0  0  0  0  0  0  0  0
   -4.8313   15.2816   17.6004 O   0  0  0  0  0  1  0  0  0  0  0  0
   -8.3103   12.3875   16.2004 C   0  0  0  0  0  0  0  0  0  0  0  0
   -4.2770   12.8803   18.0757 N   0  0  0  0  0  0  0  0  0  0  0  0
   -2.4153   11.2017   18.7616 C   0  0  0  0  0  0  0  0  0  0  0  0
  1  5  1  0
  1 15  2  0
  1 21  1  0
  2  6  1  0
  2 23  1  0
  3 16  1  0
  3 17  2  0
  4  7  2  0
  4 13  1  0
  5 18  1  0
  6 12  1  0
  6 24  1  0
  6 26  1  0
  7 20  1  0
  8 18  1  0
  9 14  1  0
  9 16  1  0
  9 25  2  0
 10 14  2  0
 10 17  1  0
 11 20  2  0
 11 23  1  0
 13 22  2  0
 13 25  1  0
 14 22  1  0
 15 16  2  0
 18 27  1  0
 19 26  1  0
 21 26  1  0
 21 27  1  0
 23 25  1  0
M  END
>  <ID>  (1) 
conformer_0

$$$$
