
     RDKit          3D

 33 35  0  0  0  0  0  0  0  0999 V2000
   -9.0503   15.9124   19.9984 O   0  0  0  0  0  0  0  0  0  0  0  0
   -4.3870   15.3548   18.1277 C   0  0  0  0  0  0  0  0  0  0  0  0
   -1.7296    9.3772   16.3185 C   0  0  0  0  0  0  0  0  0  0  0  0
   -3.3867    9.1560   18.2975 C   0  0  0  0  0  0  0  0  0  0  0  0
   -9.0445   12.3879   16.1216 C   0  0  0  0  0  0  0  0  0  0  0  0
  -11.3747   12.8595   16.4351 O   0  0  0  0  0  0  0  0  0  0  0  0
   -3.9423   10.4061   16.1780 C   0  0  0  0  0  0  0  0  0  0  0  0
   -3.8162   14.7043   16.9575 O   0  0  0  0  0  0  0  0  0  0  0  0
   -8.1303   10.5614   14.6763 C   0  0  0  0  0  0  0  0  0  0  0  0
   -4.0203   11.9967   16.1798 C   0  0  0  0  0  0  0  0  0  0  0  0
   -7.5531   13.8351   17.3188 C   0  0  0  0  0  0  0  0  0  0  0  0
   -3.5994   15.9031   18.8307 O   0  0  0  0  0  0  0  0  0  0  0  0
   -2.5829   13.9453   17.0760 C   0  0  0  0  0  0  0  0  0  0  0  0
   -5.8692   15.1886   18.3054 C   0  0  0  0  0  0  0  0  0  0  0  0
   -9.2059   11.3080   15.1830 C   0  0  0  0  0  0  0  0  0  0  0  0
   -6.7124   12.1049   15.8261 C   0  0  0  0  0  0  0  0  0  0  0  0
   -4.1038   12.2938   17.6572 N   0  0  0  0  0  0  0  0  0  0  0  0
   -6.8894   11.0271   15.0061 C   0  0  0  0  0  0  0  0  0  0  0  0
  -10.2555   16.5740   19.9576 C   0  0  0  0  0  0  0  0  0  0  0  0
   -6.3502   14.3228   17.4965 C   0  0  0  0  0  0  0  0  0  0  0  0
   -0.9506    8.5073   16.7939 O   0  0  0  0  0  0  0  0  0  0  0  0
   -1.8864    9.4199   14.8543 C   0  0  0  0  0  0  0  0  0  0  0  0
   -6.8726   15.8087   19.1483 C   0  0  0  0  0  0  0  0  0  0  0  0
   -7.7573   12.7587   16.4149 C   0  0  0  0  0  0  0  0  0  0  0  0
   -9.9048   14.0473   17.7138 N   0  0  0  0  0  0  0  0  0  0  0  0
   -8.2376   15.3918   19.0464 C   0  0  0  0  0  0  0  0  0  0  0  0
   -8.6092   14.4378   18.0571 C   0  0  0  0  0  0  0  0  0  0  0  0
   -2.8977   12.8954   18.1634 C   0  0  0  0  0  0  0  0  0  0  0  0
  -10.4031   10.9609   14.7573 O   0  0  0  0  0  0  0  0  0  0  0  0
   -7.8186    8.1905   14.2502 C   0  0  0  0  0  0  0  0  0  0  0  0
  -10.1564   13.1285   16.7662 C   0  0  0  0  0  0  0  0  0  0  0  0
   -8.3232    9.5144   13.8725 O   0  0  0  0  0  0  0  0  0  0  0  0
   -2.7620   10.0544   17.1893 C   0  0  0  0  0  0  0  0  0  0  0  0
  1 19  1  0
  1 26  1  0
  2  8  1  0
  2 12  2  0
  2 14  1  0
  3 21  2  0
  3 22  1  0
  3 33  1  0
  4 33  1  0
  5 15  1  0
  5 24  2  0
  5 31  1  0
  6 31  2  0
  7 10  1  0
  7 33  1  0
  8 13  1  0
  9 15  2  0
  9 18  1  0
  9 32  1  0
 10 17  1  0
 11 20  2  0
 11 24  1  0
 11 27  1  0
 13 28  1  0
 14 20  1  0
 14 23  2  0
 15 29  1  0
 16 18  2  0
 16 24  1  0
 17 28  1  0
 23 26  1  0
 25 27  1  0
 25 31  1  0
 26 27  2  0
 30 32  1  0
M  END
>  <ID>  (1) 
conformer_0

$$$$
