
     RDKit          3D

 19 21  0  0  0  0  0  0  0  0999 V2000
   -9.2206   14.6396   18.0430 C   0  0  0  0  0  0  0  0  0  0  0  0
   -8.0220   12.0117   15.6743 C   0  0  0  0  0  0  0  0  0  0  0  0
   -5.8933   12.0929   16.9134 C   0  0  0  0  0  0  0  0  0  0  0  0
   -8.9881   11.2435   14.9386 C   0  0  0  0  0  0  0  0  0  0  0  0
   -4.6346   11.5065   17.0781 C   0  0  0  0  0  0  0  0  0  0  0  0
   -4.1169   10.6577   16.1004 C   0  0  0  0  0  0  0  0  0  0  0  0
   -6.0343   11.1514   14.7465 C   0  0  0  0  0  0  0  0  0  0  0  0
  -11.0359   13.3270   17.0451 N   0  0  0  0  0  0  0  0  0  0  0  0
  -10.0937   12.6361   16.3384 C   0  0  0  0  0  0  0  0  0  0  0  0
   -2.4460    9.6501   17.4177 O   0  0  0  0  0  0  0  0  0  0  0  0
   -8.7439   12.8900   16.5058 C   0  0  0  0  0  0  0  0  0  0  0  0
   -8.3166   13.8857   17.3268 C   0  0  0  0  0  0  0  0  0  0  0  0
   -4.7955   10.5910   14.8847 C   0  0  0  0  0  0  0  0  0  0  0  0
   -2.9495    9.8075   16.2752 C   0  0  0  0  0  0  0  0  0  0  0  0
   -2.5355    9.1130   15.2666 O   0  0  0  0  0  0  0  0  0  0  0  0
   -8.7958   10.3418   14.1192 O   0  0  0  0  0  0  0  0  0  0  0  0
  -10.2898   11.6418   15.4129 N   0  0  0  0  0  0  0  0  0  0  0  0
  -10.5891   14.3140   17.8792 C   0  0  0  0  0  0  0  0  0  0  0  0
   -6.6641   11.7850   15.7915 C   0  0  0  0  0  0  0  0  0  0  0  0
  1 12  2  0
  1 18  1  0
  2  4  1  0
  2 11  1  0
  2 19  1  0
  3  5  2  0
  3 19  1  0
  4 16  2  0
  4 17  1  0
  5  6  1  0
  6 13  2  0
  6 14  1  0
  7 13  1  0
  7 19  2  0
  8  9  1  0
  8 18  2  0
  9 11  2  0
  9 17  1  0
 10 14  2  0
 11 12  1  0
 14 15  1  0
M  END
>  <ID>  (1) 
conformer_0

$$$$
