
     RDKit          3D

 32 36  0  0  0  0  0  0  0  0999 V2000
   -2.4197   12.3935   16.6314 C   0  0  0  0  0  0  0  0  0  0  0  0
   -6.1733   15.0868   17.9411 C   0  0  0  0  0  0  0  0  0  0  0  0
   -8.5647   15.5994   18.5860 C   0  0  0  0  0  0  0  0  0  0  0  0
   -3.9376   14.2444   16.8967 N   0  0  0  0  0  0  0  0  0  0  0  0
   -5.0147   13.3904   16.7955 C   0  0  0  0  0  0  0  0  0  0  0  0
   -3.0005    8.5024   18.1338 O   0  0  0  0  0  0  0  0  0  0  0  0
  -11.4152   11.3116   15.2824 O   0  0  0  0  0  0  0  0  0  0  0  0
   -3.4970   11.5853   16.5038 C   0  0  0  0  0  0  0  0  0  0  0  0
   -5.5616   11.1091   15.8167 N   0  0  0  0  0  0  0  0  0  0  0  0
   -9.2308   14.5781   17.6702 C   0  0  0  0  0  0  0  0  0  0  0  0
   -6.2361   13.8288   17.2818 O   0  0  0  0  0  0  0  0  0  0  0  0
   -4.8679    9.8044   15.8423 C   0  0  0  0  0  0  0  0  0  0  0  0
   -9.3711   16.0937   19.6647 N   0  0  0  0  0  0  0  0  0  0  0  0
   -7.6914    8.6194   14.6644 C   0  0  0  0  0  0  0  0  0  0  0  0
   -3.5809   10.0490   16.4009 C   0  0  0  0  0  0  0  0  0  0  0  0
   -8.8597   13.6878   16.5679 C   0  0  0  0  0  0  0  0  0  0  0  0
  -11.0177   13.2626   16.9869 N   0  0  0  0  0  0  0  0  0  0  0  0
   -6.7293   15.7134   20.2020 O   0  0  0  0  0  0  0  0  0  0  0  0
   -8.9384    9.2832   14.5681 C   0  0  0  0  0  0  0  0  0  0  0  0
   -2.6418   13.7587   16.8375 C   0  0  0  0  0  0  0  0  0  0  0  0
   -6.6442    9.2816   15.0581 N   0  0  0  0  0  0  0  0  0  0  0  0
  -10.6614   14.2630   17.9089 C   0  0  0  0  0  0  0  0  0  0  0  0
   -6.7174   10.6540   15.3023 C   0  0  0  0  0  0  0  0  0  0  0  0
   -9.9424   12.7975   16.2415 C   0  0  0  0  0  0  0  0  0  0  0  0
   -2.6025    9.3699   17.2363 C   0  0  0  0  0  0  0  0  0  0  0  0
   -1.4053    9.9926   17.4583 N   0  0  0  0  0  0  0  0  0  0  0  0
  -10.2353   11.5623   15.4358 C   0  0  0  0  0  0  0  0  0  0  0  0
   -0.4292    9.3020   18.3316 C   0  0  0  0  0  0  0  0  0  0  0  0
   -7.8589   11.2831   15.0249 C   0  0  0  0  0  0  0  0  0  0  0  0
   -7.1501   15.3663   18.9859 C   0  0  0  0  0  0  0  0  0  0  0  0
   -9.0536   10.6821   14.9473 C   0  0  0  0  0  0  0  0  0  0  0  0
   -4.7848   12.0932   16.3446 C   0  0  0  0  0  0  0  0  0  0  0  0
  1  8  2  0
  1 20  1  0
  2 11  1  0
  2 30  1  0
  3 10  1  0
  3 13  1  0
  3 30  1  0
  4  5  1  0
  4 20  2  0
  5 11  1  0
  5 32  1  0
  6 25  2  0
  7 27  2  0
  8 15  1  0
  8 32  1  0
  9 12  1  0
  9 23  1  0
  9 32  1  0
 10 16  1  0
 10 22  1  0
 12 15  1  0
 14 19  1  0
 14 21  2  0
 15 25  1  0
 16 24  1  0
 17 22  1  0
 17 24  1  0
 18 30  1  0
 19 31  1  0
 21 23  1  0
 23 29  1  0
 24 27  1  0
 25 26  1  0
 26 28  1  0
 27 31  1  0
 29 31  1  0
M  END
>  <ID>  (1) 
conformer_0

$$$$
