
     RDKit          3D

 36 43  0  0  0  0  0  0  0  0999 V2000
  -10.6183   14.3430   18.0286 C   0  0  0  0  0  0  0  0  0  0  0  0
   -3.2539   11.4876   17.2412 C   0  0  0  0  0  0  0  0  0  0  0  0
   -2.9998    9.7980   15.4855 C   0  0  0  0  0  0  0  0  0  0  0  0
   -2.3347   10.3869   16.7159 C   0  0  0  0  0  0  0  0  0  0  0  0
   -8.9492   13.0253   16.6749 N   0  0  0  0  0  0  0  0  0  0  0  0
   -8.1704   11.7572   15.7591 C   0  0  0  0  0  0  0  0  0  0  0  0
   -7.4772   15.7830   19.1776 C   0  0  0  0  0  0  0  0  0  0  0  0
   -4.4012   13.9423   17.9890 C   0  0  0  0  0  0  0  0  0  0  0  0
  -10.9913   15.1549   18.9556 N   0  0  0  0  0  0  0  0  0  0  0  0
   -9.1454   14.2805   17.8584 C   0  0  0  0  0  0  0  0  0  0  0  0
   -5.1331   15.6383   19.6191 C   0  0  0  0  0  0  0  0  0  0  0  0
   -4.7235   13.3449   16.7930 C   0  0  0  0  0  0  0  0  0  0  0  0
   -9.9360   15.7085   19.6001 C   0  0  0  0  0  0  0  0  0  0  0  0
  -10.2756   12.7420   16.4687 C   0  0  0  0  0  0  0  0  0  0  0  0
   -5.5137    9.1882   14.7680 N   0  0  0  0  0  0  0  0  0  0  0  0
   -4.8197   15.4110   18.2407 C   0  0  0  0  0  0  0  0  0  0  0  0
   -4.3383   12.0672   16.5116 C   0  0  0  0  0  0  0  0  0  0  0  0
  -10.4711   11.6743   15.6211 N   0  0  0  0  0  0  0  0  0  0  0  0
   -0.9715   11.1547   16.4392 C   0  0  0  0  0  0  0  0  0  0  0  0
   -3.4265   15.9845   18.2210 F   0  0  0  0  0  0  0  0  0  0  0  0
   -1.8718    9.1929   17.6260 C   0  0  0  0  0  0  0  0  0  0  0  0
   -8.7522   15.1655   18.9750 N   0  0  0  0  0  0  0  0  0  0  0  0
   -9.1690    9.8863   14.5619 C   0  0  0  0  0  0  0  0  0  0  0  0
  -11.2337   13.4560   17.1962 N   0  0  0  0  0  0  0  0  0  0  0  0
   -6.7785    9.8721   14.8331 C   0  0  0  0  0  0  0  0  0  0  0  0
   -7.0614   16.3261   17.9872 C   0  0  0  0  0  0  0  0  0  0  0  0
   -6.7454   11.1528   15.4277 C   0  0  0  0  0  0  0  0  0  0  0  0
   -6.2374   15.4131   18.7297 N   0  0  0  0  0  0  0  0  0  0  0  0
   -3.0631   12.0106   18.5123 C   0  0  0  0  0  0  0  0  0  0  0  0
   -4.4742    9.9799   15.2178 C   0  0  0  0  0  0  0  0  0  0  0  0
   -7.4216   16.3359   20.5189 C   0  0  0  0  0  0  0  0  0  0  0  0
   -3.6650   13.2234   18.9187 C   0  0  0  0  0  0  0  0  0  0  0  0
   -7.8979    9.2708   14.3865 C   0  0  0  0  0  0  0  0  0  0  0  0
   -4.9826   15.8888   16.8647 F   0  0  0  0  0  0  0  0  0  0  0  0
   -5.1486   11.3090   15.5240 C   0  0  0  0  0  0  0  0  0  0  0  0
   -9.2746   11.0903   15.2730 C   0  0  0  0  0  0  0  0  0  0  0  0
  1  9  1  0
  1 10  2  0
  1 24  1  0
  2  4  1  0
  2 17  1  0
  2 29  1  0
  3  4  1  0
  3 30  1  0
  4 19  1  0
  4 21  1  0
  5  6  1  0
  5 10  1  0
  5 14  1  0
  6 27  1  0
  6 36  2  0
  7 22  1  0
  7 26  1  0
  7 28  1  0
  7 31  1  0
  8 12  2  0
  8 16  1  0
  8 32  1  0
  9 13  1  0
 10 22  1  0
 11 16  1  0
 11 28  1  0
 12 17  1  0
 13 22  1  0
 14 18  2  0
 14 24  1  0
 15 25  1  0
 15 30  1  0
 16 20  1  0
 16 34  1  0
 17 35  1  0
 18 36  1  0
 23 33  1  0
 23 36  1  0
 25 27  1  0
 25 33  2  0
 27 35  1  0
 29 32  2  0
 30 35  1  0
M  END
>  <ID>  (1) 
conformer_0

$$$$
