
     RDKit          3D

 34 40  0  0  0  0  0  0  0  0999 V2000
   -1.5933   12.4085   18.5909 C   0  0  0  0  0  0  0  0  0  0  0  0
   -2.5879   11.7007   16.4185 C   0  0  0  0  0  0  0  0  0  0  0  0
   -0.9525   11.0011   18.5590 C   0  0  0  0  0  0  0  0  0  0  0  0
   -1.9286   15.0350   18.7530 C   0  0  0  0  0  0  0  0  0  0  0  0
   -3.3351   15.3663   18.5295 C   0  0  0  0  0  0  0  0  0  0  0  0
   -5.3543   16.3247   18.5284 N   0  0  0  0  0  0  0  0  0  0  0  0
   -0.0488    9.1871   17.1926 C   0  0  0  0  0  0  0  0  0  0  0  0
   -6.2095    9.9440   15.2309 C   0  0  0  0  0  0  0  0  0  0  0  0
   -6.6725   11.1599   15.6547 C   0  0  0  0  0  0  0  0  0  0  0  0
   -7.7734   14.1288   17.8057 C   0  0  0  0  0  0  0  0  0  0  0  0
   -0.3619    8.7433   18.5625 C   0  0  0  0  0  0  0  0  0  0  0  0
   -1.6467   10.7129   16.2921 O   0  0  0  0  0  0  0  0  0  0  0  0
   -9.0281   14.6192   18.1024 C   0  0  0  0  0  0  0  0  0  0  0  0
   -7.5825   13.4980   16.6761 N   0  0  0  0  0  0  0  0  0  0  0  0
  -11.0223   12.3085   16.3572 N   0  0  0  0  0  0  0  0  0  0  0  0
   -8.4001    9.3844   14.4958 C   0  0  0  0  0  0  0  0  0  0  0  0
  -10.0457   13.8483   17.6626 N   0  0  0  0  0  0  0  0  0  0  0  0
   -9.8750   12.9268   16.7267 C   0  0  0  0  0  0  0  0  0  0  0  0
   -8.5690   12.6550   16.2390 C   0  0  0  0  0  0  0  0  0  0  0  0
   -6.5633   14.3010   18.5752 C   0  0  0  0  0  0  0  0  0  0  0  0
   -1.3935   13.7259   19.3291 C   0  0  0  0  0  0  0  0  0  0  0  0
   -0.3047   10.0030   19.3100 O   0  0  0  0  0  0  0  0  0  0  0  0
   -8.8836   10.5805   14.9508 C   0  0  0  0  0  0  0  0  0  0  0  0
   -7.0750    9.0641   14.6539 C   0  0  0  0  0  0  0  0  0  0  0  0
  -11.0619   11.6380   15.2322 C   0  0  0  0  0  0  0  0  0  0  0  0
   -7.9952   11.4657   15.6032 C   0  0  0  0  0  0  0  0  0  0  0  0
   -0.5002   10.6555   17.1477 C   0  0  0  0  0  0  0  0  0  0  0  0
   -5.5563   15.0858   17.8801 C   0  0  0  0  0  0  0  0  0  0  0  0
   -3.9052   13.0801   17.9406 C   0  0  0  0  0  0  0  0  0  0  0  0
  -10.1796   10.8558   14.7370 N   0  0  0  0  0  0  0  0  0  0  0  0
   -4.1176   16.3189   19.1833 C   0  0  0  0  0  0  0  0  0  0  0  0
   -4.2335   14.5047   17.7897 C   0  0  0  0  0  0  0  0  0  0  0  0
   -2.6080   12.5566   17.5466 N   0  0  0  0  0  0  0  0  0  0  0  0
   -3.3244   11.9903   15.4602 O   0  0  0  0  0  0  0  0  0  0  0  0
  1  3  1  0
  1 21  1  0
  1 33  1  0
  2 12  1  0
  2 33  1  0
  2 34  2  0
  3 22  1  0
  3 27  1  0
  4  5  1  0
  4 21  1  0
  5 31  1  0
  5 32  1  0
  6 28  1  0
  6 31  1  0
  7 11  1  0
  7 27  1  0
  8  9  2  0
  8 24  1  0
  9 26  1  0
 10 13  1  0
 10 14  1  0
 10 20  1  0
 11 22  1  0
 12 27  1  0
 13 17  1  0
 14 19  1  0
 15 18  1  0
 15 25  1  0
 16 23  1  0
 16 24  2  0
 17 18  2  0
 18 19  1  0
 19 26  1  0
 20 28  1  0
 23 26  2  0
 23 30  1  0
 25 30  2  0
 28 32  1  0
 29 32  1  0
 29 33  1  0
M  END
>  <ID>  (1) 
conformer_0

$$$$
