
     RDKit          3D

 24 26  0  0  0  0  0  0  0  0999 V2000
   -4.6817   11.5343   15.7770 N   0  0  0  0  0  0  0  0  0  0  0  0
   -2.1171    9.9363   17.3223 O   0  0  0  0  0  0  0  0  0  0  0  0
   -6.6513   10.5042   14.9765 C   0  0  0  0  0  0  0  0  0  0  0  0
   -6.8407   14.2526   16.9177 N   0  0  0  0  0  0  0  0  0  0  0  0
   -5.3683   12.6671   15.9849 C   0  0  0  0  0  0  0  0  0  0  0  0
   -6.6644   13.0436   16.3489 C   0  0  0  0  0  0  0  0  0  0  0  0
   -3.2018   11.5318   15.8894 C   0  0  0  0  0  0  0  0  0  0  0  0
   -9.1717   12.9207   16.4098 C   0  0  0  0  0  0  0  0  0  0  0  0
   -7.9121   11.1944   15.2559 C   0  0  0  0  0  0  0  0  0  0  0  0
   -9.1422   10.6775   14.8382 C   0  0  0  0  0  0  0  0  0  0  0  0
   -2.6660   10.1253   16.1538 C   0  0  0  0  0  0  0  0  0  0  0  0
   -9.6284   14.5302   18.6034 C   0  0  0  0  0  0  0  0  0  0  0  0
   -9.1068    9.6200   14.0827 O   0  0  0  0  0  0  0  0  0  0  0  0
   -8.1617   16.1073   19.5807 C   0  0  0  0  0  0  0  0  0  0  0  0
   -6.9083   16.5995   19.4680 C   0  0  0  0  0  0  0  0  0  0  0  0
   -8.3022   15.1487   18.6529 N   0  0  0  0  0  0  0  0  0  0  0  0
   -2.6802    9.2335   15.2735 O   0  0  0  0  0  0  0  0  0  0  0  0
  -10.3603   12.3608   16.0563 C   0  0  0  0  0  0  0  0  0  0  0  0
  -10.3830   11.2376   15.2224 O   0  0  0  0  0  0  0  0  0  0  0  0
   -7.9597   12.3805   15.9972 C   0  0  0  0  0  0  0  0  0  0  0  0
   -7.0946   15.0253   17.9158 C   0  0  0  0  0  0  0  0  0  0  0  0
  -11.4579   12.9143   16.5235 O   0  0  0  0  0  0  0  0  0  0  0  0
   -6.2699   15.9425   18.4194 C   0  0  0  0  0  0  0  0  0  0  0  0
   -5.2462   10.3387   15.2799 C   0  0  0  0  0  0  0  0  0  0  0  0
  1  5  1  0
  1  7  1  0
  1 24  1  0
  2 11  2  0
  3  9  1  0
  3 24  1  0
  4  6  1  0
  4 21  2  3
  5  6  1  0
  6 20  2  0
  7 11  1  0
  8 18  1  0
  8 20  1  0
  9 10  1  0
  9 20  1  0
 10 13  2  0
 10 19  1  0
 11 17  1  0
 12 16  1  0
 14 15  1  0
 14 16  1  0
 15 23  1  0
 16 21  1  0
 18 19  1  0
 18 22  2  0
 21 23  1  0
M  END
>  <ID>  (1) 
conformer_0

$$$$
