
     RDKit          3D

 22 24  0  0  0  0  0  0  0  0999 V2000
   -8.1188    9.7194   14.4646 C   0  0  0  0  0  0  0  0  0  0  0  0
   -9.6154   14.4686   17.8105 C   0  0  0  0  0  0  0  0  0  0  0  0
   -6.8625    9.4160   14.7359 N   0  0  0  0  0  0  0  0  0  0  0  0
   -1.7512    9.8785   17.3762 C   0  0  0  0  0  0  0  0  0  0  0  0
  -10.5975   12.9203   16.5306 C   0  0  0  0  0  0  0  0  0  0  0  0
  -10.8733   13.9112   17.4471 N   0  0  0  0  0  0  0  0  0  0  0  0
   -5.8792   10.1907   15.3353 C   0  0  0  0  0  0  0  0  0  0  0  0
   -2.8864   12.9987   15.9970 O   0  0  0  0  0  0  0  0  0  0  0  0
   -2.7949    9.1359   18.1954 Cl  0  0  0  0  0  0  0  0  0  0  0  0
   -4.6028    9.6731   15.6975 C   0  0  0  0  0  0  0  0  0  0  0  0
   -6.1778   11.5578   15.6732 C   0  0  0  0  0  0  0  0  0  0  0  0
   -9.4573   15.6014   18.8315 C   0  0  0  0  0  0  0  0  0  0  0  0
   -9.2206   12.7980   16.3072 C   0  0  0  0  0  0  0  0  0  0  0  0
   -8.9673   10.7350   14.7873 C   0  0  0  0  0  0  0  0  0  0  0  0
   -8.6569   13.7918   17.0880 N   0  0  0  0  0  0  0  0  0  0  0  0
  -11.5533   12.1942   15.9698 N   0  0  0  0  0  0  0  0  0  0  0  0
   -3.9100   12.1335   16.0198 C   0  0  0  0  0  0  0  0  0  0  0  0
   -3.6822   10.7778   16.0817 N   0  0  0  0  0  0  0  0  0  0  0  0
   -2.2795   10.2632   15.9682 C   0  0  0  0  0  0  0  0  0  0  0  0
   -8.6086   11.8265   15.5586 C   0  0  0  0  0  0  0  0  0  0  0  0
   -5.2397   12.5973   16.0111 C   0  0  0  0  0  0  0  0  0  0  0  0
   -7.4137   11.9163   15.6695 C   0  0  0  0  0  0  0  0  0  0  0  0
  1  3  2  0
  1 14  1  0
  2  6  2  0
  2 12  1  0
  2 15  1  0
  3  7  1  0
  4  9  1  0
  4 19  1  0
  5  6  1  0
  5 13  1  0
  5 16  2  0
  7 10  1  0
  7 11  1  0
  8 17  2  0
 10 18  1  0
 11 21  1  0
 11 22  2  0
 13 15  1  0
 13 20  1  0
 14 20  1  0
 17 18  1  0
 17 21  1  0
 18 19  1  0
 20 22  2  0
M  END
>  <ID>  (1) 
conformer_0

$$$$
