
     RDKit          3D

 29 33  0  0  0  0  0  0  0  0999 V2000
   -9.7847   16.0494   19.4790 C   0  0  0  0  0  0  0  0  0  0  0  0
   -7.5229    9.4744   14.6120 C   0  0  0  0  0  0  0  0  0  0  0  0
   -1.7781   12.1184   16.0252 O   0  0  0  0  0  1  0  0  0  0  0  0
   -7.5193   16.7487   20.0478 C   0  0  0  0  0  0  0  0  0  0  0  0
   -4.1909   10.4701   15.9988 C   0  0  0  0  0  0  0  0  0  0  0  0
   -5.2546    9.6892   15.5647 C   0  0  0  0  0  0  0  0  0  0  0  0
   -2.8480   14.2245   16.5708 N   0  0  0  0  0  0  0  0  0  0  0  0
   -9.2617   15.1156   18.5775 C   0  0  0  0  0  0  0  0  0  0  0  0
   -7.0459   15.8357   19.1627 C   0  0  0  0  0  0  0  0  0  0  0  0
   -9.2167   11.1926   15.2798 C   0  0  0  0  0  0  0  0  0  0  0  0
   -9.9030   13.2727   16.9360 C   0  0  0  0  0  0  0  0  0  0  0  0
   -5.9968   13.5871   17.2662 C   0  0  0  0  0  0  0  0  0  0  0  0
  -10.9238   12.5460   16.3718 N   0  0  0  0  0  0  0  0  0  0  0  0
   -5.7393   12.3053   16.4793 C   0  0  0  0  0  0  0  0  0  0  0  0
   -8.2124   11.9306   15.9367 C   0  0  0  0  0  0  0  0  0  0  0  0
   -4.4249   11.7931   16.3988 C   0  0  0  0  0  0  0  0  0  0  0  0
   -3.7887   15.0710   17.4003 C   0  0  0  0  0  0  0  0  0  0  0  0
   -2.6945   12.4025   18.3486 O   0  0  0  0  0  1  0  0  0  0  0  0
  -10.5265   11.5580   15.5307 C   0  0  0  0  0  0  0  0  0  0  0  0
   -7.9207   15.0815   18.4523 C   0  0  0  0  0  0  0  0  0  0  0  0
   -5.1170    8.3740   15.3759 O   0  0  0  0  0  0  0  0  0  0  0  0
   -6.5407   10.2540   15.3596 C   0  0  0  0  0  0  0  0  0  0  0  0
  -10.2111   14.2794   17.8764 N   0  0  0  0  0  0  0  0  0  0  0  0
   -8.6553   12.9868   16.6277 N   0  0  0  0  0  0  0  0  0  0  0  0
   -8.8780   10.0332   14.4144 C   0  0  0  0  0  0  0  0  0  0  0  0
   -6.8015   11.5456   15.9130 C   0  0  0  0  0  0  0  0  0  0  0  0
   -5.2015   14.8212   16.7867 C   0  0  0  0  0  0  0  0  0  0  0  0
   -8.8888   16.8662   20.2148 N   0  0  0  0  0  0  0  0  0  0  0  0
   -2.8926   12.6207   16.8460 S   0  0  0  0  0  4  0  0  0  0  0  0
  1  8  2  0
  1 28  1  0
  2 22  2  0
  2 25  1  0
  3 29  1  0
  4  9  1  0
  4 28  2  0
  5  6  2  0
  5 16  1  0
  6 21  1  0
  6 22  1  0
  7 17  1  0
  7 29  1  0
  8 20  1  0
  8 23  1  0
  9 20  2  0
 10 15  1  0
 10 19  1  0
 10 25  2  0
 11 13  1  0
 11 23  1  0
 11 24  2  0
 12 14  1  0
 12 27  1  0
 13 19  1  0
 14 16  2  0
 14 26  1  0
 15 24  1  0
 15 26  2  0
 16 29  1  0
 17 27  1  0
 18 29  1  0
 22 26  1  0
M  END
>  <ID>  (1) 
conformer_0

$$$$
