
     RDKit          3D

 36 43  0  0  0  0  0  0  0  0999 V2000
   -7.2437   16.4190   19.2532 C   0  0  0  0  0  0  0  0  0  0  0  0
   -1.8629   11.0946   16.8395 C   0  0  0  0  0  0  0  0  0  0  0  0
   -7.1129    9.7503   14.9108 C   0  0  0  0  0  0  0  0  0  0  0  0
   -5.9596   13.7752   16.5484 C   0  0  0  0  0  0  0  0  0  0  0  0
   -8.2668   12.8886   16.0253 C   0  0  0  0  0  0  0  0  0  0  0  0
   -3.9835   12.0239   15.7826 C   0  0  0  0  0  0  0  0  0  0  0  0
  -10.2777   11.6020   15.5105 C   0  0  0  0  0  0  0  0  0  0  0  0
   -8.5482   16.5477   19.7340 C   0  0  0  0  0  0  0  0  0  0  0  0
   -7.5621    8.5340   14.5093 C   0  0  0  0  0  0  0  0  0  0  0  0
   -6.9690   15.5138   18.2648 C   0  0  0  0  0  0  0  0  0  0  0  0
   -1.4638   12.5570   16.5298 C   0  0  0  0  0  0  0  0  0  0  0  0
   -1.3561    9.7281   17.2339 C   0  0  0  0  0  0  0  0  0  0  0  0
   -9.6743   12.7853   16.0074 C   0  0  0  0  0  0  0  0  0  0  0  0
   -5.7547   10.2516   15.1233 C   0  0  0  0  0  0  0  0  0  0  0  0
   -9.8238    9.3571   14.7066 C   0  0  0  0  0  0  0  0  0  0  0  0
   -9.1779   14.7884   18.2884 C   0  0  0  0  0  0  0  0  0  0  0  0
   -4.8958    9.2363   15.7486 C   0  0  0  0  0  0  0  0  0  0  0  0
   -7.4358   13.7681   16.7291 C   0  0  0  0  0  0  0  0  0  0  0  0
   -7.4802   11.8833   15.5240 N   0  0  0  0  0  0  0  0  0  0  0  0
   -7.9310   14.6720   17.7632 C   0  0  0  0  0  0  0  0  0  0  0  0
   -8.0719   10.7021   15.1942 C   0  0  0  0  0  0  0  0  0  0  0  0
   -5.2865   12.6283   15.9259 N   0  0  0  0  0  0  0  0  0  0  0  0
   -5.4354   15.2918   17.4869 S   0  0  0  0  0  0  0  0  0  0  0  0
   -1.1661    7.2486   18.2734 O   0  0  0  0  0  0  0  0  0  0  0  0
   -2.4610   10.5174   14.6200 O   0  0  0  0  0  0  0  0  0  0  0  0
   -3.6207    9.5162   16.3846 C   0  0  0  0  0  0  0  0  0  0  0  0
   -3.0458   10.7986   15.8367 C   0  0  0  0  0  0  0  0  0  0  0  0
  -10.6907   13.6504   16.4702 F   0  0  0  0  0  0  0  0  0  0  0  0
   -8.9156    8.3652   14.4073 C   0  0  0  0  0  0  0  0  0  0  0  0
   -9.4207   10.5607   15.1455 C   0  0  0  0  0  0  0  0  0  0  0  0
   -0.5048    8.2776   18.9611 C   0  0  0  0  0  0  0  0  0  0  0  0
  -11.5003   11.4847   15.7043 N   0  0  0  0  0  0  0  0  0  0  0  0
   -0.7470    9.7141   18.5859 C   0  0  0  0  0  0  0  0  0  0  0  0
   -2.6333    8.8746   17.2924 C   0  0  0  0  0  0  0  0  0  0  0  0
   -6.0686   11.6736   15.5225 C   0  0  0  0  0  0  0  0  0  0  0  0
   -9.5542   15.7201   19.2344 N   0  0  0  0  0  0  0  0  0  0  0  0
  1  8  2  0
  1 10  1  0
  2 11  1  0
  2 12  1  0
  2 27  1  0
  3  9  1  0
  3 14  1  0
  3 21  2  0
  4 18  1  0
  4 22  1  0
  4 23  1  0
  5 13  2  0
  5 18  1  0
  5 19  1  0
  6 22  1  0
  6 27  1  0
  7 13  1  0
  7 30  1  0
  7 32  2  0
  8 36  1  0
  9 29  2  0
 10 20  2  0
 10 23  1  0
 12 33  1  0
 12 34  1  0
 13 28  1  0
 14 17  1  0
 14 35  1  0
 15 29  1  0
 15 30  2  0
 16 20  1  0
 16 36  2  0
 17 26  1  0
 18 20  1  0
 19 21  1  0
 19 35  1  0
 21 30  1  0
 22 35  1  0
 24 31  1  0
 25 27  1  0
 26 27  1  0
 26 34  1  0
 31 33  1  0
M  END
>  <ID>  (1) 
conformer_0

$$$$
