
     RDKit          3D

 43 48  0  0  0  0  0  0  0  0999 V2000
   -3.6478   11.0947   17.9086 O   0  0  0  0  0  0  0  0  0  0  0  0
   -3.9453   15.9942   19.0407 C   0  0  0  0  0  0  0  0  0  0  0  0
   -2.6347    9.1252   17.0039 C   0  0  0  0  0  0  0  0  0  0  0  0
   -7.7081   15.1611   18.8393 C   0  0  0  0  0  0  0  0  0  0  0  0
   -2.3150    8.9159   18.4598 C   0  0  0  0  0  0  0  0  0  0  0  0
  -10.3530   12.4825   16.2573 C   0  0  0  0  0  0  0  0  0  0  0  0
   -0.6897    7.3782   18.7430 O   0  0  0  0  0  0  0  0  0  0  0  0
  -10.8397   10.6837   14.7710 C   0  0  0  0  0  0  0  0  0  0  0  0
   -4.9646   11.9041   15.5908 C   0  0  0  0  0  0  0  0  0  0  0  0
   -2.1530   13.6981   15.6529 O   0  0  0  0  0  0  0  0  0  0  0  0
   -1.0023    8.6359   18.9818 C   0  0  0  0  0  0  0  0  0  0  0  0
   -2.3348    8.5500   15.8166 O   0  0  0  0  0  0  0  0  0  0  0  0
   -8.9345    9.2739   13.9572 O   0  0  0  0  0  0  0  0  0  0  0  0
   -5.3892    9.5167   15.5118 C   0  0  0  0  0  0  0  0  0  0  0  0
   -6.2555   15.0246   18.9043 C   0  0  0  0  0  0  0  0  0  0  0  0
   -4.2685   12.9598   16.1597 O   0  0  0  0  0  0  0  0  0  0  0  0
  -10.7154   13.4319   17.1835 N   0  0  0  0  0  0  0  0  0  0  0  0
   -9.7387   16.1609   19.5811 C   0  0  0  0  0  0  0  0  0  0  0  0
   -8.4785   14.2633   18.0761 C   0  0  0  0  0  0  0  0  0  0  0  0
   -9.0516   12.3218   15.8249 C   0  0  0  0  0  0  0  0  0  0  0  0
   -8.3500   16.1284   19.5966 C   0  0  0  0  0  0  0  0  0  0  0  0
   -2.9916   15.3337   18.4217 C   0  0  0  0  0  0  0  0  0  0  0  0
   -4.3560   10.5668   15.6844 C   0  0  0  0  0  0  0  0  0  0  0  0
   -8.5590   11.2824   15.0619 N   0  0  0  0  0  0  0  0  0  0  0  0
   -0.7888   11.4758   17.1777 C   0  0  0  0  0  0  0  0  0  0  0  0
    0.0054    9.6981   18.8759 C   0  0  0  0  0  0  0  0  0  0  0  0
   -5.1589    8.1909   15.6885 O   0  0  0  0  0  0  0  0  0  0  0  0
    0.1061   10.2752   17.4921 C   0  0  0  0  0  0  0  0  0  0  0  0
   -7.1710   11.0537   14.8473 C   0  0  0  0  0  0  0  0  0  0  0  0
  -10.4910   15.2562   18.8326 C   0  0  0  0  0  0  0  0  0  0  0  0
   -9.4611   10.3568   14.6133 C   0  0  0  0  0  0  0  0  0  0  0  0
   -3.1785   10.6118   16.6935 C   0  0  0  0  0  0  0  0  0  0  0  0
   -7.6846    8.7865   14.3574 C   0  0  0  0  0  0  0  0  0  0  0  0
  -11.2850   11.6528   15.7084 C   0  0  0  0  0  0  0  0  0  0  0  0
   -6.5286   13.4019   14.6881 O   0  0  0  0  0  0  0  0  0  0  0  0
   -3.0404   13.5832   16.5553 C   0  0  0  0  0  0  0  0  0  0  0  0
   -6.7055    9.7159   14.8557 C   0  0  0  0  0  0  0  0  0  0  0  0
   -5.2368   15.9257   19.1729 C   0  0  0  0  0  0  0  0  0  0  0  0
   -9.8419   14.2923   18.0108 C   0  0  0  0  0  0  0  0  0  0  0  0
   -1.9343   11.2519   16.2733 O   0  0  0  0  0  0  0  0  0  0  0  0
   -6.2491   12.1581   15.0118 C   0  0  0  0  0  0  0  0  0  0  0  0
   -2.8152   14.3319   17.6599 C   0  0  0  0  0  0  0  0  0  0  0  0
   -5.8295   13.8242   18.6363 C   0  0  0  0  0  0  0  0  0  0  0  0
  1 32  1  0
  2 22  2  0
  2 38  1  0
  3  5  1  0
  3 12  1  0
  3 32  1  0
  4 15  1  0
  4 19  1  0
  4 21  2  0
  5 11  1  0
  6 17  2  0
  6 20  1  0
  6 34  1  0
  7 11  1  0
  8 31  1  0
  8 34  2  0
  9 16  1  0
  9 23  1  0
  9 41  1  0
 10 36  2  0
 11 26  1  0
 13 31  1  0
 13 33  1  0
 14 23  1  0
 14 27  1  0
 14 37  1  0
 15 38  2  0
 15 43  1  0
 16 36  1  0
 17 39  1  0
 18 21  1  0
 18 30  2  0
 19 39  2  0
 20 24  1  0
 22 42  1  0
 23 32  1  0
 24 29  1  0
 24 31  1  0
 25 28  1  0
 25 40  1  0
 26 28  1  0
 29 37  1  0
 29 41  1  0
 30 39  1  0
 32 40  1  0
 33 37  2  0
 35 41  1  0
 36 42  1  0
M  END
>  <ID>  (1) 
conformer_0

$$$$
