
     RDKit          3D

 23 26  0  0  0  0  0  0  0  0999 V2000
  -10.6051   11.0559   14.8101 C   0  0  0  0  0  0  0  0  0  0  0  0
   -3.2336    9.1867   18.4095 C   0  0  0  0  0  0  0  0  0  0  0  0
   -7.2758   12.8938   16.6841 C   0  0  0  0  0  0  0  0  0  0  0  0
   -3.1798    9.9690   17.1776 C   0  0  0  0  0  0  0  0  0  0  0  0
   -1.9249   10.4710   16.5981 C   0  0  0  0  0  0  0  0  0  0  0  0
   -4.4653   10.2849   16.5654 C   0  0  0  0  0  0  0  0  0  0  0  0
   -9.6647   12.9909   16.7275 C   0  0  0  0  0  0  0  0  0  0  0  0
   -8.6105   12.3569   16.1484 C   0  0  0  0  0  0  0  0  0  0  0  0
   -8.3216   11.3872   15.2406 C   0  0  0  0  0  0  0  0  0  0  0  0
   -9.8745   14.7855   18.3758 N   0  0  0  0  0  0  0  0  0  0  0  0
   -9.1142   13.9696   17.6104 C   0  0  0  0  0  0  0  0  0  0  0  0
  -11.2053   11.8224   15.5937 N   0  0  0  0  0  0  0  0  0  0  0  0
  -10.9994   12.7479   16.5329 N   0  0  0  0  0  0  0  0  0  0  0  0
   -2.1655   11.5792   15.5135 C   0  0  0  0  0  0  0  0  0  0  0  0
   -6.4727   10.2122   14.5084 O   0  0  0  0  0  0  0  0  0  0  0  0
   -6.9333   11.1122   15.1307 C   0  0  0  0  0  0  0  0  0  0  0  0
   -3.4592   12.6036   15.9017 S   0  0  0  0  0  0  0  0  0  0  0  0
   -9.3002   10.7392   14.5222 C   0  0  0  0  0  0  0  0  0  0  0  0
   -4.8451   11.6423   15.9981 C   0  0  0  0  0  0  0  0  0  0  0  0
   -6.2189   12.0396   15.9810 N   0  0  0  0  0  0  0  0  0  0  0  0
   -1.2951    7.9404   17.7265 N   0  0  0  0  0  0  0  0  0  0  0  0
   -1.8077    8.7278   18.7664 C   0  0  0  0  0  0  0  0  0  0  0  0
   -7.7438   13.9343   17.5713 N   0  0  0  0  0  0  0  0  0  0  0  0
  1 12  2  0
  1 18  1  0
  2  4  1  0
  2 22  1  0
  3  8  1  0
  3 20  1  0
  3 23  2  0
  4  5  1  0
  4  6  1  0
  5 14  1  0
  6 19  1  0
  7  8  1  0
  7 11  1  0
  7 13  1  0
  8  9  2  0
  9 16  1  0
  9 18  1  0
 10 11  2  0
 11 23  1  0
 12 13  1  0
 14 17  1  0
 15 16  2  0
 16 20  1  0
 17 19  1  0
 19 20  1  0
 21 22  1  0
M  END
>  <ID>  (1) 
conformer_0

$$$$
