
     RDKit          3D

 27 33  0  0  0  0  0  0  0  0999 V2000
   -6.0414    9.7453   15.2805 C   0  0  0  0  0  0  0  0  0  0  0  0
   -8.5700   15.7504   19.4635 C   0  0  0  0  0  0  0  0  0  0  0  0
   -0.6283    8.6792   17.9189 C   0  0  0  0  0  0  0  0  0  0  0  0
  -11.0671   11.1306   15.1136 N   0  0  0  0  0  0  0  0  0  0  0  0
   -7.4145   11.7338   15.5708 C   0  0  0  0  0  0  0  0  0  0  0  0
   -3.5640   12.6920   16.0334 C   0  0  0  0  0  0  0  0  0  0  0  0
   -0.3877   10.1073   17.6505 C   0  0  0  0  0  0  0  0  0  0  0  0
   -4.0274   10.2635   16.4056 C   0  0  0  0  0  0  0  0  0  0  0  0
   -4.8423   11.6413   15.9794 C   0  0  0  0  0  0  0  0  0  0  0  0
   -1.7486   10.8436   17.5327 C   0  0  0  0  0  0  0  0  0  0  0  0
   -8.6000   13.3912   16.5743 C   0  0  0  0  0  0  0  0  0  0  0  0
   -7.1165    9.0917   14.7191 N   0  0  0  0  0  0  0  0  0  0  0  0
   -7.7623   15.2065   18.2685 C   0  0  0  0  0  0  0  0  0  0  0  0
   -8.7000   14.3953   17.5049 C   0  0  0  0  0  0  0  0  0  0  0  0
   -6.1544   11.0910   15.5586 C   0  0  0  0  0  0  0  0  0  0  0  0
   -4.8100    9.2522   15.7094 N   0  0  0  0  0  0  0  0  0  0  0  0
   -9.8255   12.7986   16.3180 N   0  0  0  0  0  0  0  0  0  0  0  0
  -10.0869   15.3585   19.2161 C   0  0  0  0  0  0  0  0  0  0  0  0
   -2.7275    9.6716   17.1096 C   0  0  0  0  0  0  0  0  0  0  0  0
   -2.1166    8.5817   18.0793 C   0  0  0  0  0  0  0  0  0  0  0  0
  -10.0685   14.4577   17.9451 C   0  0  0  0  0  0  0  0  0  0  0  0
   -8.3584    9.7284   14.6714 C   0  0  0  0  0  0  0  0  0  0  0  0
   -9.8673   11.6637   15.5095 C   0  0  0  0  0  0  0  0  0  0  0  0
   -7.4905   12.9873   16.0152 N   0  0  0  0  0  0  0  0  0  0  0  0
  -10.8219   13.5356   17.1789 N   0  0  0  0  0  0  0  0  0  0  0  0
   -2.0320   12.0695   16.5012 C   0  0  0  0  0  0  0  0  0  0  0  0
   -8.5831   11.0243   15.1989 C   0  0  0  0  0  0  0  0  0  0  0  0
  1 12  2  0
  1 15  1  0
  1 16  1  0
  2 13  1  0
  2 18  1  0
  3  7  1  0
  3 20  1  0
  4 23  2  0
  5 15  1  0
  5 24  1  0
  5 27  2  0
  6  9  1  0
  6 26  1  0
  7 10  1  0
  8  9  1  0
  8 16  1  0
  8 19  1  0
  9 15  1  0
 10 19  1  0
 10 26  1  0
 11 14  2  0
 11 17  1  0
 11 24  1  0
 12 22  1  0
 13 14  1  0
 14 21  1  0
 17 23  1  0
 17 25  1  0
 18 21  1  0
 19 20  1  0
 21 25  1  0
 22 27  1  0
 23 27  1  0
M  END
>  <ID>  (1) 
conformer_0

$$$$
