
     RDKit          3D

 35 42  0  0  0  0  0  0  0  0999 V2000
   -7.1265    9.9348   15.1744 C   0  0  0  0  0  0  0  0  0  0  0  0
   -2.3956   15.3485   19.0840 C   0  0  0  0  0  0  0  0  0  0  0  0
  -10.4874   11.5432   15.3160 N   0  0  0  0  0  0  0  0  0  0  0  0
   -5.0647   11.3676   15.8497 C   0  0  0  0  0  0  0  0  0  0  0  0
   -4.6251   12.6759   16.3394 C   0  0  0  0  0  0  0  0  0  0  0  0
   -4.6289   14.5710   17.8800 C   0  0  0  0  0  0  0  0  0  0  0  0
   -9.1374   11.3312   15.4103 C   0  0  0  0  0  0  0  0  0  0  0  0
   -1.3170   10.9079   16.5351 C   0  0  0  0  0  0  0  0  0  0  0  0
   -9.1998    9.1564   14.2694 C   0  0  0  0  0  0  0  0  0  0  0  0
   -4.7964   15.6979   17.4036 O   0  0  0  0  0  0  0  0  0  0  0  0
   -5.3807   13.4395   17.4587 C   0  0  0  0  0  0  0  0  0  0  0  0
   -5.9492   14.1677   18.5533 N   0  0  0  0  0  0  0  0  0  0  0  0
  -10.3078   13.2672   16.9515 C   0  0  0  0  0  0  0  0  0  0  0  0
   -6.5793    8.6715   14.9417 C   0  0  0  0  0  0  0  0  0  0  0  0
   -8.6048    7.9278   14.0380 C   0  0  0  0  0  0  0  0  0  0  0  0
   -9.2935   15.9513   19.1437 C   0  0  0  0  0  0  0  0  0  0  0  0
   -7.2574   13.5513   18.9877 C   0  0  0  0  0  0  0  0  0  0  0  0
   -7.3299    7.6705   14.4200 C   0  0  0  0  0  0  0  0  0  0  0  0
   -5.2694    8.4320   15.2090 C   0  0  0  0  0  0  0  0  0  0  0  0
   -0.9674   13.1044   18.1868 C   0  0  0  0  0  0  0  0  0  0  0  0
   -0.5198   11.6835   17.6528 C   0  0  0  0  0  0  0  0  0  0  0  0
   -9.4165   14.6632   18.4501 N   0  0  0  0  0  0  0  0  0  0  0  0
   -2.3459   13.4066   17.5896 C   0  0  0  0  0  0  0  0  0  0  0  0
   -3.1527   12.5299   16.7215 C   0  0  0  0  0  0  0  0  0  0  0  0
   -8.4276   13.8143   18.1347 C   0  0  0  0  0  0  0  0  0  0  0  0
   -8.4248   12.2144   16.1534 C   0  0  0  0  0  0  0  0  0  0  0  0
   -4.0162   10.4976   15.8318 N   0  0  0  0  0  0  0  0  0  0  0  0
  -11.0504   12.4849   16.1140 N   0  0  0  0  0  0  0  0  0  0  0  0
   -8.9456   13.0485   17.0488 C   0  0  0  0  0  0  0  0  0  0  0  0
  -10.6349   14.3257   17.8423 C   0  0  0  0  0  0  0  0  0  0  0  0
   -4.2398    9.1768   15.5825 N   0  0  0  0  0  0  0  0  0  0  0  0
   -2.7919   11.1586   16.2454 C   0  0  0  0  0  0  0  0  0  0  0  0
   -6.2923   10.9357   15.5675 C   0  0  0  0  0  0  0  0  0  0  0  0
   -3.1963   14.3782   18.2270 N   0  0  0  0  0  0  0  0  0  0  0  0
   -8.5011   10.1360   14.8986 C   0  0  0  0  0  0  0  0  0  0  0  0
  1 14  1  0
  1 33  1  0
  1 35  2  0
  2 34  1  0
  3  7  2  0
  3 28  1  0
  4  5  1  0
  4 27  1  0
  4 33  2  0
  5 11  1  0
  5 24  1  0
  6 10  2  0
  6 11  1  0
  6 34  1  0
  7 26  1  0
  7 35  1  0
  8 21  1  0
  8 32  1  0
  9 15  2  0
  9 35  1  0
 11 12  1  0
 12 17  1  0
 13 28  1  0
 13 29  2  0
 13 30  1  0
 14 18  2  0
 14 19  1  0
 15 18  1  0
 16 22  1  0
 17 25  1  0
 19 31  2  0
 20 21  1  0
 20 23  1  0
 22 25  1  0
 22 30  1  0
 23 24  1  0
 23 34  1  0
 24 32  2  0
 25 29  1  0
 26 29  1  0
 27 31  1  0
 27 32  1  0
M  END
>  <ID>  (1) 
conformer_0

$$$$
