
     RDKit          3D

 34 39  0  0  0  0  0  0  0  0999 V2000
   -2.3311    9.1462   17.0430 C   0  0  0  0  0  0  0  0  0  0  0  0
   -7.2761   14.6737   20.1573 O   0  0  0  0  0  0  0  0  0  0  0  0
   -7.1916   15.0631   18.9973 C   0  0  0  0  0  0  0  0  0  0  0  0
   -2.0210   10.0697   18.0313 C   0  0  0  0  0  0  0  0  0  0  0  0
   -9.9958   14.3616   18.1894 C   0  0  0  0  0  0  0  0  0  0  0  0
   -2.9402   10.9912   18.4385 C   0  0  0  0  0  0  0  0  0  0  0  0
   -3.9794   13.7596   16.6671 C   0  0  0  0  0  0  0  0  0  0  0  0
   -6.0020   15.7341   18.5651 N   0  0  0  0  0  0  0  0  0  0  0  0
   -6.5272    8.9335   14.8109 N   0  0  0  0  0  0  0  0  0  0  0  0
   -7.8445   13.8173   16.9139 C   0  0  0  0  0  0  0  0  0  0  0  0
   -8.7491   11.8006   15.7073 C   0  0  0  0  0  0  0  0  0  0  0  0
  -10.0293   10.2236   14.6318 C   0  0  0  0  0  0  0  0  0  0  0  0
   -5.3767   11.6999   18.4449 C   0  0  0  0  0  0  0  0  0  0  0  0
   -0.8771   15.0987   18.0644 O   0  0  0  0  0  0  0  0  0  0  0  0
   -5.1750   13.0629   18.8420 N   0  0  0  0  0  0  0  0  0  0  0  0
   -2.1657   14.9819   17.8409 C   0  0  0  0  0  0  0  0  0  0  0  0
  -10.0806   13.2836   16.9234 C   0  0  0  0  0  0  0  0  0  0  0  0
   -7.8581    8.6641   14.3534 C   0  0  0  0  0  0  0  0  0  0  0  0
   -2.4841   14.1901   16.6455 C   0  0  0  0  0  0  0  0  0  0  0  0
   -7.8244   10.7880   15.2897 C   0  0  0  0  0  0  0  0  0  0  0  0
  -10.9986   12.3503   16.1974 N   0  0  0  0  0  0  0  0  0  0  0  0
   -4.4716   13.9629   18.0405 C   0  0  0  0  0  0  0  0  0  0  0  0
   -5.3608   10.7617   15.7589 O   0  0  0  0  0  0  0  0  0  0  0  0
   -4.5833   15.4288   18.3623 C   0  0  0  0  0  0  0  0  0  0  0  0
   -6.5046   10.2269   15.3257 C   0  0  0  0  0  0  0  0  0  0  0  0
   -8.6223    9.7477   14.6566 C   0  0  0  0  0  0  0  0  0  0  0  0
   -3.5256    9.2640   16.3360 C   0  0  0  0  0  0  0  0  0  0  0  0
   -4.1521   11.0348   17.8264 C   0  0  0  0  0  0  0  0  0  0  0  0
   -3.1538   15.9605   18.3662 C   0  0  0  0  0  0  0  0  0  0  0  0
   -0.7906   10.0579   18.5992 F   0  0  0  0  0  0  0  0  0  0  0  0
   -4.3492   10.2986   16.6193 C   0  0  0  0  0  0  0  0  0  0  0  0
   -8.1552   14.5104   18.0248 C   0  0  0  0  0  0  0  0  0  0  0  0
  -10.0966   11.4264   15.4052 C   0  0  0  0  0  0  0  0  0  0  0  0
   -8.7653   12.9752   16.4258 C   0  0  0  0  0  0  0  0  0  0  0  0
  1  4  1  0
  1 27  2  0
  2  3  2  0
  3  8  1  0
  3 32  1  0
  4  6  2  0
  4 30  1  0
  5 17  1  0
  6 28  1  0
  7 19  1  0
  7 22  1  0
  8 24  1  0
  9 18  1  0
  9 25  1  0
 10 32  1  0
 10 34  1  0
 11 20  1  0
 11 33  2  0
 11 34  1  0
 12 26  1  0
 12 33  1  0
 13 15  1  0
 13 28  1  0
 14 16  1  0
 15 22  2  0
 16 19  1  0
 16 29  1  0
 17 21  1  0
 17 34  2  0
 18 26  1  0
 20 25  2  0
 20 26  1  0
 21 33  1  0
 22 24  1  0
 23 25  1  0
 23 31  1  0
 24 29  1  0
 27 31  1  0
 28 31  1  0
M  END
>  <ID>  (1) 
conformer_0

$$$$
