
     RDKit          3D

 29 33  0  0  0  0  0  0  0  0999 V2000
   -1.8978   10.1887   17.1088 C   0  0  0  0  0  0  0  0  0  0  0  0
   -9.3796   10.2201   14.1888 O   0  0  0  0  0  0  0  0  0  0  0  0
   -6.1115   12.7853   16.3770 C   0  0  0  0  0  0  0  0  0  0  0  0
   -4.4575   14.7587   16.7771 C   0  0  0  0  0  0  0  0  0  0  0  0
   -3.1284    9.6047   16.6924 N   0  0  0  0  0  0  0  0  0  0  0  0
   -6.3565   11.5325   15.8711 C   0  0  0  0  0  0  0  0  0  0  0  0
   -2.1577   11.6289   17.4402 C   0  0  0  0  0  0  0  0  0  0  0  0
  -10.0943   11.9661   15.6638 C   0  0  0  0  0  0  0  0  0  0  0  0
   -8.1099   10.2323   14.5957 C   0  0  0  0  0  0  0  0  0  0  0  0
   -2.4857   14.9086   18.9298 C   0  0  0  0  0  0  0  0  0  0  0  0
   -7.7005   11.3217   15.4428 C   0  0  0  0  0  0  0  0  0  0  0  0
   -4.7341   15.7053   17.9779 C   0  0  0  0  0  0  0  0  0  0  0  0
   -8.3994   13.4186   16.6064 C   0  0  0  0  0  0  0  0  0  0  0  0
   -8.7170   12.2332   15.8849 C   0  0  0  0  0  0  0  0  0  0  0  0
   -5.2133    9.2716   15.3177 O   0  0  0  0  0  0  0  0  0  0  0  0
   -4.2140   10.5433   16.8874 C   0  0  0  0  0  0  0  0  0  0  0  0
   -3.4843   16.0187   18.7750 C   0  0  0  0  0  0  0  0  0  0  0  0
   -5.3086   10.4216   15.8904 C   0  0  0  0  0  0  0  0  0  0  0  0
   -9.4210   14.2449   17.1901 C   0  0  0  0  0  0  0  0  0  0  0  0
   -7.4887    9.1523   14.1605 N   0  0  0  0  0  0  0  0  0  0  0  0
  -11.0526   12.6772   16.3533 N   0  0  0  0  0  0  0  0  0  0  0  0
   -7.0498   13.7354   16.7500 C   0  0  0  0  0  0  0  0  0  0  0  0
   -0.8156    8.1583   17.9319 C   0  0  0  0  0  0  0  0  0  0  0  0
   -2.3944   14.1201   17.6438 C   0  0  0  0  0  0  0  0  0  0  0  0
   -3.6279   11.9798   17.1180 C   0  0  0  0  0  0  0  0  0  0  0  0
  -10.4078   10.9101   14.8031 C   0  0  0  0  0  0  0  0  0  0  0  0
  -10.7558   13.7347   17.2002 O   0  0  0  0  0  0  0  0  0  0  0  0
   -3.7175   13.5425   17.3291 N   0  0  0  0  0  0  0  0  0  0  0  0
   -1.1764    9.5433   18.0879 O   0  0  0  0  0  0  0  0  0  0  0  0
  1  5  1  0
  1  7  1  0
  1 29  1  0
  2  9  1  0
  2 26  1  0
  3  6  2  0
  3 22  1  0
  4 12  1  0
  4 28  1  0
  5 16  1  0
  6 11  1  0
  6 18  1  0
  7 25  1  0
  8 14  1  0
  8 21  2  0
  8 26  1  0
  9 11  1  0
  9 20  2  0
 10 17  1  0
 10 24  1  0
 11 14  2  0
 12 17  1  0
 13 14  1  0
 13 19  1  0
 13 22  2  0
 15 18  1  0
 16 18  1  0
 16 25  1  0
 19 27  1  0
 21 27  1  0
 23 29  1  0
 24 28  1  0
 25 28  1  0
M  END
>  <ID>  (1) 
conformer_0

$$$$
