
     RDKit          3D

 27 30  0  0  0  0  0  0  0  0999 V2000
   -1.8146   11.2677   17.0887 C   0  0  0  0  0  0  0  0  0  0  0  0
   -4.7705   10.3544   15.4182 C   0  0  0  0  0  0  0  0  0  0  0  0
   -0.6849    9.0132   17.7782 S   0  0  0  0  0  4  0  0  0  0  0  0
   -8.6530   14.9743   18.3212 C   0  0  0  0  0  0  0  0  0  0  0  0
  -10.8458   13.0917   16.5945 N   0  0  0  0  0  0  0  0  0  0  0  0
   -8.6006   14.0739   17.2264 C   0  0  0  0  0  0  0  0  0  0  0  0
   -0.0444    9.7977   18.8926 O   0  0  0  0  0  1  0  0  0  0  0  0
   -5.2869    9.0510   15.3802 O   0  0  0  0  0  0  0  0  0  0  0  0
   -8.2957   11.2601   15.2727 C   0  0  0  0  0  0  0  0  0  0  0  0
    0.1151    8.9165   16.5080 O   0  0  0  0  0  1  0  0  0  0  0  0
   -9.4342   10.6359   14.7367 C   0  0  0  0  0  0  0  0  0  0  0  0
   -2.1099    9.7938   17.3064 N   0  0  0  0  0  0  0  0  0  0  0  0
   -6.9810   10.5847   15.2347 C   0  0  0  0  0  0  0  0  0  0  0  0
   -3.2970   13.3576   16.2481 S   0  0  0  0  0  0  0  0  0  0  0  0
   -2.6824   11.7479   16.0235 C   0  0  0  0  0  0  0  0  0  0  0  0
  -10.6306   11.2287   15.0888 N   0  0  0  0  0  0  0  0  0  0  0  0
   -6.3205   14.1770   18.7247 C   0  0  0  0  0  0  0  0  0  0  0  0
   -5.8231   11.1362   15.3639 N   0  0  0  0  0  0  0  0  0  0  0  0
   -8.5094   12.5069   15.9376 C   0  0  0  0  0  0  0  0  0  0  0  0
   -6.7172    9.2616   15.1339 N   0  0  0  0  0  0  0  0  0  0  0  0
  -11.3389   12.0656   15.8732 N   0  0  0  0  0  0  0  0  0  0  0  0
   -6.2827   14.2687   17.2257 C   0  0  0  0  0  0  0  0  0  0  0  0
   -9.5181   13.2155   16.5276 C   0  0  0  0  0  0  0  0  0  0  0  0
   -7.4130   13.5215   16.6856 N   0  0  0  0  0  0  0  0  0  0  0  0
   -0.9232    7.3650   18.4340 C   0  0  0  0  0  0  0  0  0  0  0  0
   -7.5200   14.9099   19.2567 C   0  0  0  0  0  0  0  0  0  0  0  0
   -3.3515   10.7876   15.2624 C   0  0  0  0  0  0  0  0  0  0  0  0
  1 12  1  0
  1 15  1  0
  2  8  1  0
  2 18  1  0
  2 27  1  0
  3  7  1  0
  3 10  1  0
  3 12  1  0
  3 25  1  0
  4  6  1  0
  4 26  1  0
  5 21  1  0
  5 23  1  0
  6 23  1  0
  6 24  1  0
  8 20  1  0
  9 11  1  0
  9 13  1  0
  9 19  1  0
 11 16  1  0
 13 18  2  0
 13 20  1  0
 14 15  1  0
 15 27  1  0
 16 21  1  0
 17 22  1  0
 17 26  1  0
 19 23  2  0
 19 24  1  0
 22 24  1  0
M  END
>  <ID>  (1) 
conformer_0

$$$$
