
     RDKit          3D

 28 31  0  0  0  0  0  0  0  0999 V2000
  -10.5743   11.8560   15.4917 N   0  0  0  0  0  0  0  0  0  0  0  0
   -4.6184   13.2428   16.2895 C   0  0  0  0  0  0  0  0  0  0  0  0
   -4.9455    9.5851   15.4807 O   0  0  0  0  0  0  0  0  0  0  0  0
   -2.1211   11.9668   18.9727 C   0  0  0  0  0  0  0  0  0  0  0  0
   -8.5706   13.8438   17.1220 C   0  0  0  0  0  0  0  0  0  0  0  0
   -3.3377   13.2443   16.9340 N   0  0  0  0  0  0  0  0  0  0  0  0
   -9.4373   15.2615   18.6686 C   0  0  0  0  0  0  0  0  0  0  0  0
   -1.6581   13.0682   19.5161 O   0  0  0  0  0  0  0  0  0  0  0  0
   -7.0804   10.6860   14.9938 C   0  0  0  0  0  0  0  0  0  0  0  0
  -10.8123   12.7872   16.4344 C   0  0  0  0  0  0  0  0  0  0  0  0
   -6.3542   11.9231   14.9961 O   0  0  0  0  0  0  0  0  0  0  0  0
   -6.9327    8.2487   14.8251 C   0  0  0  0  0  0  0  0  0  0  0  0
   -5.4488   14.0808   16.8437 O   0  0  0  0  0  0  0  0  0  0  0  0
   -6.3237    9.5023   15.1226 C   0  0  0  0  0  0  0  0  0  0  0  0
   -9.9304   13.6201   17.1451 C   0  0  0  0  0  0  0  0  0  0  0  0
   -6.1807    7.1856   14.9446 O   0  0  0  0  0  0  0  0  0  0  0  0
   -3.3610   10.7711   16.9563 C   0  0  0  0  0  0  0  0  0  0  0  0
   -9.4903   11.4884   14.9723 C   0  0  0  0  0  0  0  0  0  0  0  0
   -2.8297   12.0722   17.6385 C   0  0  0  0  0  0  0  0  0  0  0  0
   -4.2556   10.8137   15.7135 C   0  0  0  0  0  0  0  0  0  0  0  0
   -8.5357   10.5653   14.8112 C   0  0  0  0  0  0  0  0  0  0  0  0
   -9.0124    9.3272   14.4357 C   0  0  0  0  0  0  0  0  0  0  0  0
  -10.5312   14.4875   18.1344 C   0  0  0  0  0  0  0  0  0  0  0  0
   -8.2595   14.8227   18.0271 C   0  0  0  0  0  0  0  0  0  0  0  0
   -1.5910   10.8013   19.2988 O   0  0  0  0  0  0  0  0  0  0  0  0
   -5.0836   12.0272   15.5603 C   0  0  0  0  0  0  0  0  0  0  0  0
   -4.1409   10.0882   17.9753 O   0  0  0  0  0  0  0  0  0  0  0  0
   -8.2498    8.1850   14.4301 C   0  0  0  0  0  0  0  0  0  0  0  0
  1 10  2  3
  1 18  1  0
  2  6  1  0
  2 13  2  0
  2 26  1  0
  3 14  1  0
  3 20  1  0
  4  8  2  0
  4 19  1  0
  4 25  1  0
  5 15  1  0
  5 24  1  0
  6 19  1  0
  7 23  1  0
  7 24  1  0
  9 11  1  0
  9 14  2  0
  9 21  1  0
 10 15  1  0
 11 26  1  0
 12 14  1  0
 12 16  1  0
 12 28  2  0
 15 23  1  0
 17 19  1  0
 17 20  1  0
 17 27  1  0
 18 21  1  0
 20 26  1  0
 21 22  2  0
 22 28  1  0
M  END
>  <ID>  (1) 
conformer_0

$$$$
