
     RDKit          3D

 34 37  0  0  0  0  0  0  0  0999 V2000
   -5.5393   10.8020   16.0205 N   0  0  0  0  0  0  0  0  0  0  0  0
   -7.9536   14.7871   17.9860 N   0  0  0  0  0  0  0  0  0  0  0  0
   -6.5558   13.5095   16.3693 C   0  0  0  0  0  0  0  0  0  0  0  0
   -0.9962   10.9942   18.1847 C   0  0  0  0  0  0  0  0  0  0  0  0
   -3.4496   11.4834   17.1167 C   0  0  0  0  0  0  0  0  0  0  0  0
   -3.3238   11.6624   18.5349 O   0  0  0  0  0  0  0  0  0  0  0  0
   -5.6048   14.4277   16.9235 C   0  0  0  0  0  0  0  0  0  0  0  0
  -11.3890   13.1130   16.6346 F   0  0  0  0  0  0  0  0  0  0  0  0
   -2.7924   13.9838   16.0158 C   0  0  0  0  0  0  0  0  0  0  0  0
   -6.5561    7.6830   15.0589 N   0  0  0  0  0  0  0  0  0  0  0  0
  -10.3476   14.5916   18.1228 C   0  0  0  0  0  0  0  0  0  0  0  0
   -1.9697   11.8399   19.0462 C   0  0  0  0  0  0  0  0  0  0  0  0
    0.2786   10.9180   18.7154 O   0  0  0  0  0  0  0  0  0  0  0  0
   -9.1322   15.2009   18.5717 C   0  0  0  0  0  0  0  0  0  0  0  0
   -9.0317   12.1985   15.6480 N   0  0  0  0  0  0  0  0  0  0  0  0
   -6.3523    9.8326   15.4924 C   0  0  0  0  0  0  0  0  0  0  0  0
   -9.0670   13.2070   16.5555 C   0  0  0  0  0  0  0  0  0  0  0  0
   -9.7802   10.5603   14.1470 O   0  0  0  0  0  1  0  0  0  0  0  0
   -5.2134   13.1960   16.6546 N   0  0  0  0  0  0  0  0  0  0  0  0
   -7.5954    9.7141   14.8360 C   0  0  0  0  0  0  0  0  0  0  0  0
   -7.8645   13.8688   17.0129 C   0  0  0  0  0  0  0  0  0  0  0  0
   -0.7005    8.5685   18.6817 C   0  0  0  0  0  0  0  0  0  0  0  0
    0.4534    8.2014   18.1639 O   0  0  0  0  0  0  0  0  0  0  0  0
   -1.5080    9.5901   17.9788 C   0  0  0  0  0  0  0  0  0  0  0  0
   -3.8238   12.7756   16.4740 C   0  0  0  0  0  0  0  0  0  0  0  0
   -5.4194   15.5141   16.1620 F   0  0  0  0  0  0  0  0  0  0  0  0
   -5.7288    8.6452   15.6891 C   0  0  0  0  0  0  0  0  0  0  0  0
   -4.3631   10.2937   16.6747 C   0  0  0  0  0  0  0  0  0  0  0  0
   -5.3611   14.8937   18.1933 F   0  0  0  0  0  0  0  0  0  0  0  0
   -8.5462   11.1193   14.5378 S   0  0  0  0  0  4  0  0  0  0  0  0
   -7.7186   11.9005   13.7236 O   0  0  0  0  0  1  0  0  0  0  0  0
   -7.7563    8.3747   14.5510 C   0  0  0  0  0  0  0  0  0  0  0  0
  -10.2939   13.6613   17.1287 C   0  0  0  0  0  0  0  0  0  0  0  0
   -4.5664    8.7885   16.3791 N   0  0  0  0  0  0  0  0  0  0  0  0
  1 16  1  0
  1 28  2  0
  2 14  1  0
  2 21  2  0
  3  7  1  0
  3 21  1  0
  4 12  1  0
  4 13  1  0
  4 24  1  0
  5  6  1  0
  5 25  1  0
  5 28  1  0
  6 12  1  0
  7 19  1  0
  7 26  1  0
  7 29  1  0
  8 33  1  0
  9 25  1  0
 10 27  1  0
 10 32  1  0
 11 14  1  0
 11 33  2  0
 15 17  1  0
 15 30  1  0
 16 20  1  0
 16 27  2  0
 17 21  1  0
 17 33  1  0
 18 30  1  0
 19 25  1  0
 20 30  1  0
 20 32  1  0
 22 23  1  0
 22 24  1  0
 27 34  1  0
 28 34  1  0
 30 31  1  0
M  END
>  <ID>  (1) 
conformer_0

$$$$
