
     RDKit          3D

 35 39  0  0  0  0  0  0  0  0999 V2000
   -6.6327   12.5363   15.7919 C   0  0  0  0  0  0  0  0  0  0  0  0
   -7.0690    7.9901   14.6495 C   0  0  0  0  0  0  0  0  0  0  0  0
   -2.1340   16.9410   20.1457 C   0  0  0  0  0  0  0  0  0  0  0  0
   -2.1975    9.1026   17.6498 C   0  0  0  0  0  0  0  0  0  0  0  0
   -8.8322   13.2587   16.6342 C   0  0  0  0  0  0  0  0  0  0  0  0
   -5.9613    8.9327   15.0512 O   0  0  0  0  0  0  0  0  0  0  0  0
   -6.5091   10.2101   15.0981 C   0  0  0  0  0  0  0  0  0  0  0  0
   -1.6603   11.2349   16.3528 C   0  0  0  0  0  0  0  0  0  0  0  0
   -1.1939    9.0820   15.3953 O   0  0  0  0  0  0  0  0  0  0  0  0
  -10.7603   12.0985   15.7974 C   0  0  0  0  0  0  0  0  0  0  0  0
   -2.4668   15.1140   18.4534 C   0  0  0  0  0  0  0  0  0  0  0  0
   -9.9394   11.2892   15.1483 N   0  0  0  0  0  0  0  0  0  0  0  0
   -8.3332    8.9051   14.4602 C   0  0  0  0  0  0  0  0  0  0  0  0
  -10.4539   14.6891   18.2152 N   0  0  0  0  0  0  0  0  0  0  0  0
   -4.3090   16.4582   19.1689 C   0  0  0  0  0  0  0  0  0  0  0  0
   -3.2950   14.4286   17.5583 C   0  0  0  0  0  0  0  0  0  0  0  0
   -4.6611   14.7796   17.5022 C   0  0  0  0  0  0  0  0  0  0  0  0
   -7.8799   10.1684   14.9254 C   0  0  0  0  0  0  0  0  0  0  0  0
  -11.0100   13.7768   17.4474 N   0  0  0  0  0  0  0  0  0  0  0  0
   -3.1737   11.3973   15.9203 O   0  0  0  0  0  0  0  0  0  0  0  0
   -2.7079   12.0580   16.9949 C   0  0  0  0  0  0  0  0  0  0  0  0
  -10.1906   13.0444   16.6211 C   0  0  0  0  0  0  0  0  0  0  0  0
   -8.3167   14.2663   17.3881 C   0  0  0  0  0  0  0  0  0  0  0  0
   -5.8992   11.4084   15.3807 C   0  0  0  0  0  0  0  0  0  0  0  0
   -7.9906   12.3951   15.9037 C   0  0  0  0  0  0  0  0  0  0  0  0
   -3.0308   11.8125   18.3214 O   0  0  0  0  0  0  0  0  0  0  0  0
   -2.9782   16.1485   19.2249 C   0  0  0  0  0  0  0  0  0  0  0  0
   -2.6975   13.4754   16.7350 O   0  0  0  0  0  0  0  0  0  0  0  0
   -9.1289   14.9857   18.2005 C   0  0  0  0  0  0  0  0  0  0  0  0
   -7.4193   16.4764   19.1663 C   0  0  0  0  0  0  0  0  0  0  0  0
   -6.4314   16.0377   18.4818 N   0  0  0  0  0  0  0  0  0  0  0  0
   -8.6894   16.0483   19.0511 C   0  0  0  0  0  0  0  0  0  0  0  0
   -1.6277    9.7089   16.5160 C   0  0  0  0  0  0  0  0  0  0  0  0
   -5.1410   15.7557   18.3662 C   0  0  0  0  0  0  0  0  0  0  0  0
   -8.6161   11.3055   15.3274 C   0  0  0  0  0  0  0  0  0  0  0  0
  1 24  2  0
  1 25  1  0
  2  6  1  0
  2 13  1  0
  3 27  1  0
  4 33  1  0
  5 22  2  0
  5 23  1  0
  5 25  1  0
  6  7  1  0
  7 18  1  0
  7 24  1  0
  8 21  1  0
  8 33  1  0
  9 33  1  0
 10 12  2  0
 10 22  1  0
 11 16  2  0
 11 27  1  0
 12 35  1  0
 13 18  1  0
 14 19  2  0
 14 29  1  0
 15 27  2  0
 15 34  1  0
 16 17  1  0
 16 28  1  0
 17 34  2  0
 18 35  2  0
 19 22  1  0
 20 21  1  0
 21 26  1  0
 21 28  1  0
 23 29  2  0
 25 35  1  0
 29 32  1  0
 30 31  1  0
 30 32  2  3
 31 34  1  0
M  END
>  <ID>  (1) 
conformer_0

$$$$
