
     RDKit          3D

 21 23  0  0  0  0  0  0  0  0999 V2000
   -9.0245   12.9464   16.3611 C   0  0  0  0  0  0  0  0  0  0  0  0
   -1.2585    9.0780   18.3406 C   0  0  0  0  0  0  0  0  0  0  0  0
   -8.1764   11.9638   15.7637 C   0  0  0  0  0  0  0  0  0  0  0  0
   -5.9259   11.2764   15.4925 C   0  0  0  0  0  0  0  0  0  0  0  0
   -7.7499    9.9640   14.6391 C   0  0  0  0  0  0  0  0  0  0  0  0
   -4.5762   11.4016   15.7557 N   0  0  0  0  0  0  0  0  0  0  0  0
   -3.6181   10.3988   15.4964 C   0  0  0  0  0  0  0  0  0  0  0  0
   -1.2709    9.0712   14.9373 C   0  0  0  0  0  0  0  0  0  0  0  0
   -6.8319   12.2543   15.9094 C   0  0  0  0  0  0  0  0  0  0  0  0
   -8.6890   10.8756   15.1042 C   0  0  0  0  0  0  0  0  0  0  0  0
   -8.1848   13.9164   16.8530 N   0  0  0  0  0  0  0  0  0  0  0  0
   -6.8717   13.5537   16.5528 C   0  0  0  0  0  0  0  0  0  0  0  0
   -2.6368    9.6074   17.9433 C   0  0  0  0  0  0  0  0  0  0  0  0
  -10.4059   12.7816   16.3447 C   0  0  0  0  0  0  0  0  0  0  0  0
   -6.3992   10.1662   14.8356 N   0  0  0  0  0  0  0  0  0  0  0  0
   -5.8303   14.3045   16.8032 N   0  0  0  0  0  0  0  0  0  0  0  0
   -2.5936   10.2693   16.5786 C   0  0  0  0  0  0  0  0  0  0  0  0
  -10.0471   10.7927   14.9785 C   0  0  0  0  0  0  0  0  0  0  0  0
   -1.3137   10.0720   15.9864 O   0  0  0  0  0  0  0  0  0  0  0  0
  -10.9188   11.6797   15.6459 C   0  0  0  0  0  0  0  0  0  0  0  0
  -11.2280   13.6022   16.9654 O   0  0  0  0  0  0  0  0  0  0  0  0
  1  3  1  0
  1 11  1  0
  1 14  2  0
  2 13  1  0
  3  9  2  0
  3 10  1  0
  4  6  1  0
  4  9  1  0
  4 15  2  0
  5 10  1  0
  5 15  1  0
  6  7  1  0
  7 17  1  0
  8 19  1  0
  9 12  1  0
 10 18  2  0
 11 12  1  0
 12 16  2  0
 13 17  1  0
 14 20  1  0
 14 21  1  0
 17 19  1  0
 18 20  1  0
M  END
>  <ID>  (1) 
conformer_0

$$$$
