
     RDKit          3D

 34 39  0  0  0  0  0  0  0  0999 V2000
   -4.8038   11.6415   16.0716 O   0  0  0  0  0  0  0  0  0  0  0  0
   -3.6228    9.2035   17.4883 C   0  0  0  0  0  0  0  0  0  0  0  0
   -9.2504   14.8575   18.2418 C   0  0  0  0  0  0  0  0  0  0  0  0
   -7.9995   11.2845   15.1639 N   0  0  0  0  0  0  0  0  0  0  0  0
   -2.2759   12.9063   19.7810 C   0  0  0  0  0  0  0  0  0  0  0  0
   -8.5908   13.2089   16.6883 C   0  0  0  0  0  0  0  0  0  0  0  0
   -4.9780   13.1370   16.3898 C   0  0  0  0  0  0  0  0  0  0  0  0
  -11.1878   12.3676   16.1581 N   0  0  0  0  0  0  0  0  0  0  0  0
   -3.7012    9.2718   15.9650 C   0  0  0  0  0  0  0  0  0  0  0  0
   -0.7864   14.4947   18.7333 C   0  0  0  0  0  0  0  0  0  0  0  0
   -0.2892   13.6047   20.8697 F   0  0  0  0  0  0  0  0  0  0  0  0
   -9.7243   13.8430   17.2806 C   0  0  0  0  0  0  0  0  0  0  0  0
   -7.4571    7.7683   14.6611 C   0  0  0  0  0  0  0  0  0  0  0  0
  -10.1814   11.6484   15.5968 C   0  0  0  0  0  0  0  0  0  0  0  0
   -2.3774    9.4649   15.3784 C   0  0  0  0  0  0  0  0  0  0  0  0
  -10.0262   10.4451   14.7916 C   0  0  0  0  0  0  0  0  0  0  0  0
   -6.6520   15.4695   18.6670 N   0  0  0  0  0  0  0  0  0  0  0  0
   -3.0665   12.9659   18.6674 C   0  0  0  0  0  0  0  0  0  0  0  0
   -5.9993   13.9331   17.1759 C   0  0  0  0  0  0  0  0  0  0  0  0
   -4.7760   10.2439   15.6122 C   0  0  0  0  0  0  0  0  0  0  0  0
   -7.3938   13.8561   17.1920 C   0  0  0  0  0  0  0  0  0  0  0  0
   -5.9176    9.5981   15.0032 N   0  0  0  0  0  0  0  0  0  0  0  0
   -6.1757    8.2170   15.3599 C   0  0  0  0  0  0  0  0  0  0  0  0
  -10.9565   13.4046   16.9481 N   0  0  0  0  0  0  0  0  0  0  0  0
   -8.8642   12.1235   15.8060 C   0  0  0  0  0  0  0  0  0  0  0  0
   -8.2695    8.8116   14.0001 C   0  0  0  0  0  0  0  0  0  0  0  0
   -7.7712   14.8010   18.1046 N   0  0  0  0  0  0  0  0  0  0  0  0
   -8.5967   10.1572   14.6515 C   0  0  0  0  0  0  0  0  0  0  0  0
   -1.6070   14.6017   17.6422 C   0  0  0  0  0  0  0  0  0  0  0  0
   -5.6532   14.9467   17.9961 C   0  0  0  0  0  0  0  0  0  0  0  0
   -3.6288   13.8159   16.2790 C   0  0  0  0  0  0  0  0  0  0  0  0
   -2.7656   13.7983   17.5670 C   0  0  0  0  0  0  0  0  0  0  0  0
   -2.2061   10.7673   14.5376 C   0  0  0  0  0  0  0  0  0  0  0  0
   -1.1071   13.6796   19.7963 C   0  0  0  0  0  0  0  0  0  0  0  0
  1  7  1  0
  1 20  1  0
  2  9  1  0
  3 12  1  0
  3 27  1  0
  4 25  1  0
  4 28  1  0
  5 18  2  0
  5 34  1  0
  6 12  2  0
  6 21  1  0
  6 25  1  0
  7 19  1  0
  7 31  1  0
  8 14  1  0
  8 24  2  0
  9 15  1  0
  9 20  1  0
 10 29  1  0
 10 34  2  0
 11 34  1  0
 12 24  1  0
 13 23  1  0
 13 26  1  0
 14 16  1  0
 14 25  2  0
 15 33  1  0
 16 28  1  0
 17 27  1  0
 17 30  1  0
 18 32  1  0
 19 21  2  0
 19 30  1  0
 20 22  1  0
 21 27  1  0
 22 23  1  0
 26 28  1  0
 29 32  2  0
 31 32  1  0
M  END
>  <ID>  (1) 
conformer_0

$$$$
