
     RDKit          3D

 24 26  0  0  0  0  0  0  0  0999 V2000
   -5.1068   12.8130   16.3473 C   0  0  0  0  0  0  0  0  0  0  0  0
   -5.2451    9.2628   15.8220 C   0  0  0  0  0  0  0  0  0  0  0  0
  -10.1044   10.9989   14.9562 C   0  0  0  0  0  0  0  0  0  0  0  0
   -8.3928   12.3863   16.1803 C   0  0  0  0  0  0  0  0  0  0  0  0
   -9.6466    9.9590   14.2911 N   0  0  0  0  0  0  0  0  0  0  0  0
   -1.3753   11.0206   16.1049 C   0  0  0  0  0  0  0  0  0  0  0  0
   -2.1955    9.2314   17.6551 C   0  0  0  0  0  0  0  0  0  0  0  0
   -3.7983   11.0760   16.4807 N   0  0  0  0  0  0  0  0  0  0  0  0
   -5.4510   14.2556   16.4209 C   0  0  0  0  0  0  0  0  0  0  0  0
  -10.7605   12.7571   16.3834 C   0  0  0  0  0  0  0  0  0  0  0  0
   -9.7051   12.0187   15.8137 C   0  0  0  0  0  0  0  0  0  0  0  0
   -5.0045   10.5990   16.0859 C   0  0  0  0  0  0  0  0  0  0  0  0
   -9.0228   15.1810   18.7182 N   0  0  0  0  0  0  0  0  0  0  0  0
   -7.2868   11.5373   15.6785 C   0  0  0  0  0  0  0  0  0  0  0  0
  -10.5690   13.7317   17.2909 N   0  0  0  0  0  0  0  0  0  0  0  0
   -7.4972   10.4752   14.9001 O   0  0  0  0  0  0  0  0  0  0  0  0
   -3.8772   12.4559   16.6377 N   0  0  0  0  0  0  0  0  0  0  0  0
   -7.8438    8.5602   13.8345 O   0  0  0  0  0  0  0  0  0  0  0  0
   -9.2840   14.0763   17.6032 C   0  0  0  0  0  0  0  0  0  0  0  0
   -5.9043   11.7053   16.0272 C   0  0  0  0  0  0  0  0  0  0  0  0
   -8.2240   13.4497   16.9948 N   0  0  0  0  0  0  0  0  0  0  0  0
   -2.5686   10.2677   16.6278 C   0  0  0  0  0  0  0  0  0  0  0  0
   -8.2969    9.5984   14.3095 C   0  0  0  0  0  0  0  0  0  0  0  0
   -3.3956    9.0002   18.6296 C   0  0  0  0  0  0  0  0  0  0  0  0
  1  9  1  0
  1 17  1  0
  1 20  2  0
  2 12  1  0
  3  5  2  0
  3 11  1  0
  4 11  1  0
  4 14  2  0
  4 21  1  0
  5 23  1  0
  6 22  1  0
  7 22  1  0
  7 24  1  0
  8 12  1  0
  8 17  1  0
  8 22  1  0
 10 11  1  0
 10 15  2  0
 12 20  1  0
 13 19  2  0
 14 16  1  0
 14 20  1  0
 15 19  1  0
 16 23  1  0
 18 23  2  0
 19 21  1  0
M  END
>  <ID>  (1) 
conformer_0

$$$$
