
     RDKit          3D

 30 34  0  0  0  0  0  0  0  0999 V2000
   -5.7170   16.2709   18.9314 C   0  0  0  0  0  0  0  0  0  0  0  0
   -0.7018    9.2300   16.5990 C   0  0  0  0  0  0  0  0  0  0  0  0
   -5.2130   12.0116   15.9523 C   0  0  0  0  0  0  0  0  0  0  0  0
   -3.9030   12.1892   16.0925 N   0  0  0  0  0  0  0  0  0  0  0  0
   -1.7319    8.7890   17.5327 N   0  0  0  0  0  0  0  0  0  0  0  0
   -7.2588    9.2910   14.7325 C   0  0  0  0  0  0  0  0  0  0  0  0
  -10.1791   11.6076   15.5274 C   0  0  0  0  0  0  0  0  0  0  0  0
   -7.7987   13.0459   16.4609 C   0  0  0  0  0  0  0  0  0  0  0  0
   -3.2063    8.9209   17.6605 C   0  0  0  0  0  0  0  0  0  0  0  0
   -6.1813    9.9331   15.3797 C   0  0  0  0  0  0  0  0  0  0  0  0
   -4.9700    9.3549   15.7953 N   0  0  0  0  0  0  0  0  0  0  0  0
  -10.1753   14.5474   17.9196 C   0  0  0  0  0  0  0  0  0  0  0  0
   -4.5120   15.8776   18.3048 C   0  0  0  0  0  0  0  0  0  0  0  0
   -3.8988    9.8307   16.5355 C   0  0  0  0  0  0  0  0  0  0  0  0
  -11.0446   10.9400   14.8409 N   0  0  0  0  0  0  0  0  0  0  0  0
   -9.0007   13.2391   16.6722 C   0  0  0  0  0  0  0  0  0  0  0  0
   -3.0501   11.0813   16.4348 C   0  0  0  0  0  0  0  0  0  0  0  0
   -8.7765   11.1434   15.3088 C   0  0  0  0  0  0  0  0  0  0  0  0
   -6.3394   11.2938   15.7115 C   0  0  0  0  0  0  0  0  0  0  0  0
   -6.8552   15.8158   18.6556 C   0  0  0  0  0  0  0  0  0  0  0  0
  -10.9538   12.5729   16.3575 O   0  0  0  0  0  0  0  0  0  0  0  0
   -7.6312   11.8406   15.7813 C   0  0  0  0  0  0  0  0  0  0  0  0
   -4.5929   14.8579   17.3588 C   0  0  0  0  0  0  0  0  0  0  0  0
   -7.5465   14.9255   17.9542 C   0  0  0  0  0  0  0  0  0  0  0  0
   -6.8977   13.9558   17.0517 C   0  0  0  0  0  0  0  0  0  0  0  0
   -8.5330    9.9046   14.6744 C   0  0  0  0  0  0  0  0  0  0  0  0
   -0.9377    7.8177   18.3585 C   0  0  0  0  0  0  0  0  0  0  0  0
   -5.5995   14.1933   16.9619 C   0  0  0  0  0  0  0  0  0  0  0  0
  -10.1476   13.4662   16.9810 C   0  0  0  0  0  0  0  0  0  0  0  0
   -8.8691   15.0616   18.2547 C   0  0  0  0  0  0  0  0  0  0  0  0
  1 13  1  0
  1 20  2  0
  2  5  1  0
  3  4  1  0
  3 19  1  0
  4 17  1  0
  5  9  1  0
  5 27  1  0
  6 10  1  0
  6 26  2  0
  7 15  2  0
  7 18  1  0
  7 21  1  0
  8 16  2  0
  8 22  1  0
  8 25  1  0
  9 14  1  0
 10 11  2  0
 10 19  1  0
 11 14  1  0
 12 29  1  0
 12 30  1  0
 13 23  1  0
 14 17  1  0
 16 29  2  0
 18 22  2  0
 18 26  1  0
 19 22  1  0
 20 24  1  0
 21 29  1  0
 23 28  2  0
 24 25  2  0
 24 30  1  0
 25 28  1  0
M  END
>  <ID>  (1) 
conformer_0

$$$$
