
     RDKit          3D

 25 24  0  0  0  0  0  0  0  0999 V2000
   24.9507   34.1547  103.6130 C   0  0  0  0  0  0  0  0  0  0  0  0
   20.5650   34.3839  106.3052 C   0  0  0  0  0  0  0  0  0  0  0  0
   27.9225   34.8224  103.7542 C   0  0  0  0  0  0  0  0  0  0  0  0
   31.2462   33.9602  103.3461 C   0  0  0  0  0  0  0  0  0  0  0  0
   30.7734   32.7011  103.0808 C   0  0  0  0  0  0  0  0  0  0  0  0
   30.0797   34.9767  103.7928 C   0  0  0  0  0  0  0  0  0  0  0  0
   18.5864   34.5503  105.3082 C   0  0  0  0  0  0  0  0  0  0  0  0
   21.2584   33.2698  106.9175 C   0  0  0  0  0  0  0  0  0  0  0  0
   26.9000   33.2903  107.5283 O   0  0  0  0  0  0  0  0  0  0  0  0
   25.2583   34.7070  108.1592 O   0  0  0  0  0  0  0  0  0  0  0  0
   29.3868   36.5436  103.9294 O   0  0  0  0  0  0  0  0  0  0  0  0
   32.2330   34.2434  101.8257 O   0  0  0  0  0  0  0  0  0  0  0  0
   23.5322   32.2822  106.1794 O   0  0  0  0  0  0  0  0  0  0  0  0
   25.8191   34.7644  102.9669 C   0  0  0  0  0  0  0  0  0  0  0  0
   22.9469   34.0572  106.0126 N   0  0  0  0  0  0  0  0  0  0  0  0
   16.4558   36.1581  103.3927 N   0  0  0  0  0  0  0  0  0  0  0  0
   27.8364   34.6438  104.6205 O   0  0  0  0  0  0  0  0  0  0  0  0
   25.9168   34.2777  106.9480 C   0  0  0  0  0  0  0  0  0  0  0  0
   17.7737   36.8748  104.5965 O   0  0  0  0  0  0  0  0  0  0  0  0
   17.4721   34.6585  104.8000 N   0  0  0  0  0  0  0  0  0  0  0  0
   23.8010   33.6317  105.9887 C   0  0  0  0  0  0  0  0  0  0  0  0
   16.9537   36.3015  103.9211 C   0  0  0  0  0  0  0  0  0  0  0  0
   19.4160   34.2870  105.6646 C   0  0  0  0  0  0  0  0  0  0  0  0
   17.0015   34.1075  103.8850 C   0  0  0  0  0  0  0  0  0  0  0  0
   26.1184   34.7255  105.1216 C   0  0  0  0  0  0  0  0  0  0  0  0
  5  4  1  0
  6  3  1  0
  6  4  1  0
  8  2  1  0
 11  6  1  0
 12  4  1  0
 14  1  1  0
 17  3  1  0
 18  9  1  0
 18 10  1  0
 20  7  1  0
 21  8  1  0
 21 13  1  0
 21 15  1  0
 21 18  1  0
 22 16  1  0
 22 19  2  0
 22 20  1  0
 23  2  1  0
 23  7  3  0
 24 20  1  0
 25  1  1  0
 25 17  1  0
 25 18  1  0
M  END
>  <ID>  (1) 
conformer_0

$$$$
