
     RDKit          3D

 20 19  0  0  0  0  0  0  0  0999 V2000
   27.5835   34.8465  103.9903 C   0  0  0  0  0  0  0  0  0  0  0  0
   31.2578   33.8928  103.4672 C   0  0  0  0  0  0  0  0  0  0  0  0
   24.9978   34.6391  103.5952 C   0  0  0  0  0  0  0  0  0  0  0  0
   20.1459   34.3525  106.2327 C   0  0  0  0  0  0  0  0  0  0  0  0
   17.2874   36.0819  104.3563 C   0  0  0  0  0  0  0  0  0  0  0  0
   29.6479   34.4430  103.4356 C   0  0  0  0  0  0  0  0  0  0  0  0
   25.3903   34.5489  108.1439 O   0  0  0  0  0  0  0  0  0  0  0  0
   27.1633   33.5813  107.3769 O   0  0  0  0  0  0  0  0  0  0  0  0
   22.1898   33.8647  106.2228 C   0  0  0  0  0  0  0  0  0  0  0  0
   29.8540   32.6991  102.7659 C   0  0  0  0  0  0  0  0  0  0  0  0
   29.4703   36.4212  104.0276 O   0  0  0  0  0  0  0  0  0  0  0  0
   23.3660   32.8454  106.2238 O   0  0  0  0  0  0  0  0  0  0  0  0
   25.6704   34.5019  106.7243 C   0  0  0  0  0  0  0  0  0  0  0  0
   18.7639   34.2978  105.6575 C   0  0  0  0  0  0  0  0  0  0  0  0
   23.0880   34.5413  105.9979 N   0  0  0  0  0  0  0  0  0  0  0  0
   17.7469   34.4578  104.8439 N   0  0  0  0  0  0  0  0  0  0  0  0
   29.0036   34.5320  103.8028 N   0  0  0  0  0  0  0  0  0  0  0  0
   26.6800   35.0423  102.6124 C   0  0  0  0  0  0  0  0  0  0  0  0
   25.3544   34.6017  105.1018 C   0  0  0  0  0  0  0  0  0  0  0  0
   16.5946   34.1805  103.9909 C   0  0  0  0  0  0  0  0  0  0  0  0
  6  2  1  0
  9  4  1  0
 10  6  1  0
 12  9  1  0
 13  7  1  0
 13  8  1  0
 13  9  1  0
 14  4  1  0
 15  9  1  0
 16  5  1  0
 16 14  1  0
 17  1  1  0
 17  6  1  0
 17 11  1  0
 18  1  1  0
 18  3  1  0
 19  3  1  0
 19 13  1  0
 20 16  1  0
M  END
>  <ID>  (1) 
conformer_0

$$$$
