
     RDKit          3D

 25 26  0  0  0  0  0  0  0  0999 V2000
   19.2222   33.7089  105.9566 C   0  0  0  0  0  0  0  0  0  0  0  0
   31.5694   34.0451  104.0690 C   0  0  0  0  0  0  0  0  0  0  0  0
   27.3822   34.9325  103.7236 C   0  0  1  0  0  0  0  0  0  0  0  0
   24.8344   34.4945  103.6874 C   0  0  0  0  0  0  0  0  0  0  0  0
   17.1724   33.7960  104.8832 C   0  0  0  0  0  0  0  0  0  0  0  0
   30.3606   33.4404  102.9868 C   0  0  0  0  0  0  0  0  0  0  0  0
   27.3076   33.3653  107.5012 O   0  0  0  0  0  0  0  0  0  0  0  0
   21.3762   33.7519  106.3779 C   0  0  2  0  0  0  0  0  0  0  0  0
   29.5834   36.4792  103.8885 O   0  0  0  0  0  0  0  0  0  0  0  0
   22.4432   34.4232  105.9227 N   0  0  0  0  0  0  0  0  0  0  0  0
   25.8672   34.1343  107.1514 C   0  0  0  0  0  0  0  0  0  0  0  0
   25.7594   34.7334  107.7124 O   0  0  0  0  0  0  0  0  0  0  0  0
   22.7478   32.8031  106.4464 O   0  0  0  0  0  0  0  0  0  0  0  0
   17.2486   34.8008  104.7740 N   0  0  0  0  0  0  0  0  0  0  0  0
   32.1565   33.9194  101.9074 O   0  0  0  0  0  0  0  0  0  0  0  0
   26.2116   35.3883  102.5623 C   0  0  0  0  0  0  0  0  0  0  0  0
   28.2783   34.8117  103.9579 N   0  0  0  0  0  0  0  0  0  0  0  0
   19.5437   34.5236  105.6647 C   0  0  0  0  0  0  0  0  0  0  0  0
   26.0314   34.9561  105.0342 C   0  0  1  0  0  0  0  0  0  0  0  0
   31.3035   32.7803  103.5844 C   0  0  0  0  0  0  0  0  0  0  0  0
   16.4999   36.0055  103.7717 C   0  0  0  0  0  0  0  0  0  0  0  0
   17.9077   37.0227  104.4265 O   0  0  0  0  0  0  0  0  0  0  0  0
   24.2347   34.2071  105.4761 C   0  0  0  0  0  0  0  0  0  0  0  0
   18.1634   35.7038  104.9912 C   0  0  1  0  0  0  0  0  0  0  0  0
   29.3220   34.9685  103.9053 C   0  0  0  0  0  0  0  0  0  0  0  0
  6  2  1  0
 11  7  1  0
 12 11  1  0
 13  8  1  0
 13 10  1  0
 14  5  1  0
 15  6  1  0
  3 16  1  1
 17  3  1  0
 18  1  2  3
 18  8  1  0
 19  3  1  0
 19  4  1  6
 19 11  1  0
 20  2  1  0
 20  6  1  0
 21 14  1  0
 22 21  1  0
 23  4  1  0
  8 23  1  6
 24 14  1  0
 24 18  1  0
 24 22  1  6
 25  6  1  0
 25  9  2  0
 25 17  1  0
M  END
>  <ID>  (1) 
conformer_0

$$$$
