
     RDKit          3D

 23 22  0  0  0  0  0  0  0  0999 V2000
   31.2731   33.7708  103.3801 C   0  0  1  0  0  0  0  0  0  0  0  0
   25.2690   34.5864  103.0313 C   0  0  0  0  0  0  0  0  0  0  0  0
   28.3956   34.9070  103.7114 C   0  0  0  0  0  0  0  0  0  0  0  0
   19.3371   34.4326  106.1428 C   0  0  0  0  0  0  0  0  0  0  0  0
   30.4985   34.9518  103.8238 C   0  0  2  0  0  0  0  0  0  0  0  0
   18.0159   34.1446  106.0043 C   0  0  0  0  0  0  0  0  0  0  0  0
   26.9683   33.3390  107.5370 O   0  0  0  0  0  0  0  0  0  0  0  0
   25.3615   34.6526  108.0685 O   0  0  0  0  0  0  0  0  0  0  0  0
   30.1622   32.7739  102.9557 C   0  0  0  0  0  0  0  0  0  0  0  0
   26.0042   34.6620  104.4688 C   0  0  2  0  0  0  0  0  0  0  0  0
   29.3609   36.5324  103.8187 O   0  0  0  0  0  0  0  0  0  0  0  0
   25.5013   34.1100  107.0999 C   0  0  0  0  0  0  0  0  0  0  0  0
   32.2024   34.1258  101.8166 O   0  0  0  0  0  0  0  0  0  0  0  0
   16.8497   35.1188  104.8035 N   0  0  0  0  0  0  0  0  0  0  0  0
   27.3090   34.8050  104.8459 O   0  0  0  0  0  0  0  0  0  0  0  0
   24.2585   34.0819  105.5536 C   0  0  2  0  0  0  0  0  0  0  0  0
   25.8657   35.4977  102.1180 C   0  0  0  0  0  0  0  0  0  0  0  0
   16.8553   35.5342  104.5233 C   0  0  0  0  0  0  0  0  0  0  0  0
   31.7973   34.4171  105.2195 O   0  0  0  0  0  0  0  0  0  0  0  0
   21.2682   34.2171  106.3745 C   0  0  0  0  0  0  0  0  0  0  0  0
   23.0508   32.5678  105.8159 O   0  0  0  0  0  0  0  0  0  0  0  0
   21.9052   33.4256  106.5991 C   0  0  0  0  0  0  0  0  0  0  0  0
   18.6791   33.3158  107.4671 N   0  0  0  0  0  0  0  0  0  0  0  0
  5  1  1  0
  6  4  2  0
  1  9  1  6
 10  2  1  6
 11  3  1  0
 11  5  1  0
 12  7  1  0
 12  8  2  0
 13  1  1  0
 14  6  1  0
 15  3  1  0
 15 10  1  0
 16 10  1  0
 16 12  1  0
 17  2  1  0
 18 14  2  3
  5 19  1  6
 20  4  2  0
 16 21  1  6
 22 20  1  0
 22 21  1  0
 23  6  1  0
M  END
>  <ID>  (1) 
conformer_0

$$$$
