
     RDKit          3D

 25 25  0  0  0  0  0  0  0  0999 V2000
   26.2405   35.2601  102.5644 C   0  0  0  0  0  0  0  0  0  0  0  0
   28.0423   35.0350  103.6460 C   0  0  0  0  0  0  0  0  0  0  0  0
   20.6946   34.2772  106.2352 C   0  0  0  0  0  0  0  0  0  0  0  0
   31.4231   33.7810  103.2668 C   0  0  0  0  0  0  0  0  0  0  0  0
   18.7483   34.6473  105.3428 C   0  0  0  0  0  0  0  0  0  0  0  0
   29.8274   34.1603  103.3018 C   0  0  0  0  0  0  0  0  0  0  0  0
   24.9674   34.4854  105.3334 C   0  0  0  0  0  0  0  0  0  0  0  0
   30.0352   32.4827  102.8238 C   0  0  0  0  0  0  0  0  0  0  0  0
   24.9891   34.5999  108.2897 O   0  0  0  0  0  0  0  0  0  0  0  0
   26.7385   33.3922  107.4177 O   0  0  0  0  0  0  0  0  0  0  0  0
   25.8800   34.3660  107.1343 C   0  0  0  0  0  0  0  0  0  0  0  0
   29.8346   36.0734  104.0451 O   0  0  0  0  0  0  0  0  0  0  0  0
   22.8207   32.6234  106.0572 O   0  0  0  0  0  0  0  0  0  0  0  0
   23.2786   34.3990  105.8165 N   0  0  0  0  0  0  0  0  0  0  0  0
   17.0284   36.5295  103.5414 C   0  0  0  0  0  0  0  0  0  0  0  0
   25.1817   34.3776  103.0625 C   0  0  0  0  0  0  0  0  0  0  0  0
   32.2584   33.9507  101.8664 O   0  0  0  0  0  0  0  0  0  0  0  0
   28.8794   34.5582  103.5734 N   0  0  0  0  0  0  0  0  0  0  0  0
   26.3280   35.0260  104.7505 C   0  0  0  0  0  0  0  0  0  0  0  0
   17.1411   36.5708  104.1413 O   0  0  0  0  0  0  0  0  0  0  0  0
   22.5833   33.7356  106.1024 C   0  0  0  0  0  0  0  0  0  0  0  0
   19.6120   34.0184  106.4430 C   0  0  0  0  0  0  0  0  0  0  0  0
   17.9078   34.7686  104.6137 N   0  0  0  0  0  0  0  0  0  0  0  0
   17.1171   34.6322  104.3432 C   0  0  0  0  0  0  0  0  0  0  0  0
   20.9992   32.9939  107.6273 C   0  0  0  0  0  0  0  0  0  0  0  0
  2  1  1  0
  6  4  1  0
  8  4  1  0
  8  6  1  0
 11  7  1  0
 11  9  2  0
 11 10  1  0
 14  7  1  0
 16  1  1  0
 17  4  1  0
 18  2  1  0
 18  6  1  0
 18 12  1  0
 19  2  1  0
 19  7  1  0
 20 15  1  0
 21  3  1  0
 21 13  2  0
 21 14  1  0
 22  3  1  0
 22  5  1  0
 23  5  1  0
 24 20  1  0
 24 23  1  0
 25  3  1  0
M  END
>  <ID>  (1) 
conformer_0

$$$$
