
     RDKit          3D

 23 23  0  0  0  0  0  0  0  0999 V2000
   31.2262   33.6675  103.4428 C   0  0  0  0  0  0  0  0  0  0  0  0
   24.6325   34.0627  103.7656 C   0  0  0  0  0  0  0  0  0  0  0  0
   18.7099   33.9804  106.1456 C   0  0  0  0  0  0  0  0  0  0  0  0
   28.3568   34.6307  103.7715 C   0  0  0  0  0  0  0  0  0  0  0  0
   17.9970   34.6370  105.3470 C   0  0  0  0  0  0  0  0  0  0  0  0
   30.4016   34.7007  103.9507 C   0  0  0  0  0  0  0  0  0  0  0  0
   27.1410   33.3207  107.5007 O   0  0  0  0  0  0  0  0  0  0  0  0
   29.6868   36.5164  103.9678 O   0  0  0  0  0  0  0  0  0  0  0  0
   26.1231   34.2358  106.9201 C   0  0  0  0  0  0  0  0  0  0  0  0
   26.2628   34.7034  104.6263 C   0  0  0  0  0  0  0  0  0  0  0  0
   25.3544   34.7067  107.6916 O   0  0  0  0  0  0  0  0  0  0  0  0
   23.3793   32.7319  106.3336 O   0  0  0  0  0  0  0  0  0  0  0  0
   21.3849   33.6122  106.2338 C   0  0  0  0  0  0  0  0  0  0  0  0
   22.0410   33.8857  105.5558 N   0  0  0  0  0  0  0  0  0  0  0  0
   32.1021   34.0684  101.9295 O   0  0  0  0  0  0  0  0  0  0  0  0
   28.4323   34.5251  103.9584 N   0  0  0  0  0  0  0  0  0  0  0  0
   25.9063   34.6934  102.9528 C   0  0  0  0  0  0  0  0  0  0  0  0
   31.9168   34.3351  105.0118 O   0  0  0  0  0  0  0  0  0  0  0  0
   17.1826   36.3242  104.3322 C   0  0  0  0  0  0  0  0  0  0  0  0
   17.5085   34.9421  104.9129 N   0  0  0  0  0  0  0  0  0  0  0  0
   30.2383   32.7650  102.8982 C   0  0  0  0  0  0  0  0  0  0  0  0
   24.1276   33.8491  105.4357 C   0  0  0  0  0  0  0  0  0  0  0  0
   20.0930   34.3330  106.0707 C   0  0  0  0  0  0  0  0  0  0  0  0
  5  3  1  0
  6  1  1  0
  8  6  2  0
  9  7  1  0
 10  2  1  0
 10  4  1  0
 11  9  1  0
 14 12  1  0
 14 13  1  0
 15  1  1  0
 16  4  1  0
 16  6  1  0
 17  2  1  0
 17 10  1  0
 18  1  1  0
 20  5  1  0
 20 19  1  0
 21  1  1  0
 22  2  1  0
 22  9  1  0
 22 12  1  0
 23  3  1  0
 23 13  1  0
M  END
>  <ID>  (1) 
conformer_0

$$$$
