
     RDKit          3D

 21 20  0  0  0  0  0  0  0  0999 V2000
   24.9104   34.3694  103.4724 C   0  0  0  0  0  0  0  0  0  0  0  0
   27.4144   35.0154  104.1833 C   0  0  0  0  0  0  0  0  0  0  0  0
   31.3883   33.7763  103.3508 C   0  0  0  0  0  0  0  0  0  0  0  0
   20.1167   34.1855  106.0217 C   0  0  0  0  0  0  0  0  0  0  0  0
   18.3833   34.5772  105.3326 C   0  0  0  0  0  0  0  0  0  0  0  0
   29.8232   34.5835  103.6639 C   0  0  0  0  0  0  0  0  0  0  0  0
   32.3078   34.0602  101.7132 O   0  0  0  0  0  0  0  0  0  0  0  0
   26.7943   33.2897  107.5758 O   0  0  0  0  0  0  0  0  0  0  0  0
   25.8431   34.3695  106.9266 C   0  0  0  0  0  0  0  0  0  0  0  0
   25.4754   35.0211  108.0722 O   0  0  0  0  0  0  0  0  0  0  0  0
   25.2202   34.4182  105.1817 C   0  0  0  0  0  0  0  0  0  0  0  0
   22.8646   32.4104  106.3264 O   0  0  0  0  0  0  0  0  0  0  0  0
   26.2313   35.2438  102.7668 C   0  0  0  0  0  0  0  0  0  0  0  0
   22.7660   34.1284  105.4895 N   0  0  0  0  0  0  0  0  0  0  0  0
   29.5448   36.2087  104.0389 O   0  0  0  0  0  0  0  0  0  0  0  0
   17.4152   35.2365  104.8379 N   0  0  0  0  0  0  0  0  0  0  0  0
   16.9781   36.0457  104.5314 C   0  0  0  0  0  0  0  0  0  0  0  0
   30.2807   32.6341  102.8820 C   0  0  0  0  0  0  0  0  0  0  0  0
   22.3353   33.6042  105.9720 C   0  0  0  0  0  0  0  0  0  0  0  0
   28.7359   34.6379  103.8400 N   0  0  0  0  0  0  0  0  0  0  0  0
   16.9929   37.1066  104.0917 N   0  0  0  0  0  0  0  0  0  0  0  0
  5  4  3  0
  6  3  1  0
  7  3  1  0
  9  8  1  0
 10  9  2  0
 11  1  1  0
 11  9  1  0
 13  1  1  0
 13  2  1  0
 15  6  2  0
 16  5  1  0
 17 16  1  0
 18  3  1  0
 19  1  1  0
 19  4  1  0
 19 12  1  0
 19 14  1  0
 20  2  1  0
 20  6  1  0
 21 17  1  0
M  END
>  <ID>  (1) 
conformer_0

$$$$
