
     RDKit          3D

 22 22  0  0  0  0  0  0  0  0999 V2000
   26.2616   34.8522  102.8817 C   0  0  0  0  0  0  0  0  0  0  0  0
   19.5910   34.2676  105.8792 C   0  0  0  0  0  0  0  0  0  0  0  0
   26.9886   34.8334  104.2609 C   0  0  0  0  0  0  0  0  0  0  0  0
   31.1482   33.8686  103.2637 C   0  0  0  0  0  0  0  0  0  0  0  0
   16.5010   34.6333  104.2356 C   0  0  0  0  0  0  0  0  0  0  0  0
   30.0374   32.6837  102.9544 C   0  0  0  0  0  0  0  0  0  0  0  0
   29.3175   34.7658  103.5409 C   0  0  0  0  0  0  0  0  0  0  0  0
   26.9817   33.3410  107.5536 O   0  0  0  0  0  0  0  0  0  0  0  0
   23.0222   34.2848  105.6356 N   0  0  0  0  0  0  0  0  0  0  0  0
   32.1632   34.1404  101.8158 O   0  0  0  0  0  0  0  0  0  0  0  0
   25.0088   34.3050  105.3332 C   0  0  0  0  0  0  0  0  0  0  0  0
   25.8467   34.2141  106.8452 C   0  0  0  0  0  0  0  0  0  0  0  0
   29.1350   36.4723  103.9319 O   0  0  0  0  0  0  0  0  0  0  0  0
   23.1753   32.8589  106.7958 O   0  0  0  0  0  0  0  0  0  0  0  0
   25.1864   34.4365  108.0069 O   0  0  0  0  0  0  0  0  0  0  0  0
   18.6124   34.6503  105.2411 C   0  0  0  0  0  0  0  0  0  0  0  0
   17.8431   35.0757  104.8266 N   0  0  0  0  0  0  0  0  0  0  0  0
   27.5459   34.9742  104.6959 O   0  0  0  0  0  0  0  0  0  0  0  0
   22.4676   33.8154  106.1953 C   0  0  0  0  0  0  0  0  0  0  0  0
   25.0446   34.4650  103.4007 C   0  0  0  0  0  0  0  0  0  0  0  0
   16.9473   36.5352  104.2706 C   0  0  0  0  0  0  0  0  0  0  0  0
   20.7915   34.3097  106.0807 C   0  0  0  0  0  0  0  0  0  0  0  0
  3  1  1  0
  6  4  1  0
  7  4  1  0
 10  4  1  0
 12  8  1  0
 12 11  1  0
 13  7  1  0
 15 12  2  0
 16  2  1  0
 17  5  1  0
 17 16  1  0
 18  3  1  0
 18  7  1  0
 19  9  1  0
 19 11  1  0
 19 14  1  0
 20  1  1  0
 20 11  1  0
 21  5  1  0
 21 17  1  0
 22  2  1  0
 22 19  1  0
M  END
>  <ID>  (1) 
conformer_0

$$$$
