
     RDKit          3D

 23 22  0  0  0  0  0  0  0  0999 V2000
   25.3480   34.3433  103.0483 C   0  0  0  0  0  0  0  0  0  0  0  0
   31.2956   33.5254  103.3599 C   0  0  0  0  0  0  0  0  0  0  0  0
   28.2388   34.7511  103.7864 C   0  0  0  0  0  0  0  0  0  0  0  0
   19.4961   34.3111  105.9978 C   0  0  0  0  0  0  0  0  0  0  0  0
   30.3573   34.3369  103.7805 C   0  0  0  0  0  0  0  0  0  0  0  0
   17.2940   34.3223  104.4196 C   0  0  0  0  0  0  0  0  0  0  0  0
   25.0148   34.5486  108.1714 O   0  0  0  0  0  0  0  0  0  0  0  0
   29.6911   36.4083  103.8232 O   0  0  0  0  0  0  0  0  0  0  0  0
   24.6056   34.3071  105.1828 C   0  0  0  0  0  0  0  0  0  0  0  0
   25.6884   34.3740  106.8916 C   0  0  0  0  0  0  0  0  0  0  0  0
   26.9339   33.5450  107.4216 O   0  0  0  0  0  0  0  0  0  0  0  0
   32.1281   34.0704  101.9201 O   0  0  0  0  0  0  0  0  0  0  0  0
   17.5806   34.8792  105.0016 N   0  0  0  0  0  0  0  0  0  0  0  0
   23.0847   34.4862  105.7832 N   0  0  0  0  0  0  0  0  0  0  0  0
   23.1846   32.6313  105.7022 O   0  0  0  0  0  0  0  0  0  0  0  0
   26.0275   35.2705  102.3245 C   0  0  0  0  0  0  0  0  0  0  0  0
   17.1309   36.3194  104.3609 C   0  0  0  0  0  0  0  0  0  0  0  0
   28.6901   34.5553  103.8720 N   0  0  0  0  0  0  0  0  0  0  0  0
   26.4101   34.7436  104.6395 C   0  0  0  0  0  0  0  0  0  0  0  0
   32.4492   34.0050  104.8206 O   0  0  0  0  0  0  0  0  0  0  0  0
   18.9901   34.1362  105.7279 C   0  0  0  0  0  0  0  0  0  0  0  0
   22.1674   33.9279  106.1978 C   0  0  0  0  0  0  0  0  0  0  0  0
   20.9796   34.5438  106.3556 C   0  0  0  0  0  0  0  0  0  0  0  0
  5  2  1  0
 10  7  2  0
 10  9  1  0
 11 10  1  0
 12  2  1  0
 13  6  1  0
 14  9  1  0
 16  1  1  0
 17 13  1  0
 18  3  1  0
 18  5  1  0
 18  8  1  0
 19  1  1  0
 19  3  1  0
 19  9  1  0
 20  2  1  0
 21  4  2  0
 21 13  1  0
 22 14  1  0
 22 15  2  0
 23  4  2  0
 23 22  1  0
M  END
>  <ID>  (1) 
conformer_0

$$$$
