
     RDKit          3D

 21 20  0  0  0  0  0  0  0  0999 V2000
   19.5328   34.2184  106.0146 C   0  0  0  0  0  0  0  0  0  0  0  0
   24.8684   34.4307  103.6768 C   0  0  0  0  0  0  0  0  0  0  0  0
   27.3056   34.9183  104.1374 C   0  0  0  0  0  0  0  0  0  0  0  0
   31.0432   33.9600  103.3172 C   0  0  0  0  0  0  0  0  0  0  0  0
   18.0566   35.1617  105.0710 C   0  0  0  0  0  0  0  0  0  0  0  0
   29.4493   34.9328  103.6288 C   0  0  0  0  0  0  0  0  0  0  0  0
   30.6473   32.7623  102.9451 C   0  0  0  0  0  0  0  0  0  0  0  0
   21.8470   33.8465  106.3354 C   0  0  1  0  0  0  0  0  0  0  0  0
   26.8559   33.2931  107.4990 O   0  0  0  0  0  0  0  0  0  0  0  0
   29.4098   36.7679  103.7087 O   0  0  0  0  0  0  0  0  0  0  0  0
   25.3609   34.5595  108.1221 O   0  0  0  0  0  0  0  0  0  0  0  0
   17.0461   34.7870  104.6728 N   0  0  0  0  0  0  0  0  0  0  0  0
   22.8218   34.4845  105.9190 N   0  0  0  0  0  0  0  0  0  0  0  0
   22.5752   32.5401  106.3345 O   0  0  0  0  0  0  0  0  0  0  0  0
   25.1719   34.5730  105.2258 C   0  0  1  0  0  0  0  0  0  0  0  0
   28.9895   34.6369  103.7811 N   0  0  0  0  0  0  0  0  0  0  0  0
   25.7964   34.2882  106.8731 C   0  0  0  0  0  0  0  0  0  0  0  0
   18.0787   36.6476  104.7614 O   0  0  0  0  0  0  0  0  0  0  0  0
   16.7057   34.1777  104.0322 C   0  0  0  0  0  0  0  0  0  0  0  0
   26.1785   35.0657  102.8611 C   0  0  0  0  0  0  0  0  0  0  0  0
   27.4487   34.3903  105.1200 O   0  0  0  0  0  0  0  0  0  0  0  0
  5  1  1  0
  6  4  1  0
  7  4  1  0
  8  1  1  0
 10  6  2  0
 12  5  1  0
  8 13  1  6
 14  8  1  0
 15  2  1  6
 15  8  1  0
 16  3  1  0
 16  6  1  0
 17  9  1  0
 17 11  2  0
 17 15  1  0
 18  5  2  0
 19 12  2  3
 20  2  1  0
 20  3  1  0
 21  3  2  0
M  END
>  <ID>  (1) 
conformer_0

$$$$
