
     RDKit          3D

 24 24  0  0  0  0  0  0  0  0999 V2000
   31.5733   33.7845  103.4894 C   0  0  0  0  0  0  0  0  0  0  0  0
   18.8037   34.5508  105.8728 C   0  0  0  0  0  0  0  0  0  0  0  0
   26.1666   34.7257  104.9086 C   0  0  2  0  0  0  0  0  0  0  0  0
   26.2572   35.4593  102.4026 C   0  0  0  0  0  0  0  0  0  0  0  0
   27.4027   34.3926  103.4343 C   0  0  1  0  0  0  0  0  0  0  0  0
   17.8671   34.3580  105.3481 C   0  0  0  0  0  0  0  0  0  0  0  0
   25.1823   34.6320  108.1731 O   0  0  0  0  0  0  0  0  0  0  0  0
   29.4280   36.5085  104.0581 O   0  0  0  0  0  0  0  0  0  0  0  0
   32.1960   34.0943  101.9421 O   0  0  0  0  0  0  0  0  0  0  0  0
   21.4492   34.0105  106.3290 C   0  0  0  0  0  0  0  0  0  0  0  0
   23.0647   32.8862  105.6100 O   0  0  0  0  0  0  0  0  0  0  0  0
   25.8871   34.4151  106.8863 C   0  0  0  0  0  0  0  0  0  0  0  0
   26.6961   33.5651  107.3047 O   0  0  0  0  0  0  0  0  0  0  0  0
   24.1408   34.1734  105.2866 C   0  0  2  0  0  0  0  0  0  0  0  0
   28.3272   34.4461  103.8349 N   0  0  0  0  0  0  0  0  0  0  0  0
   30.1256   32.4380  102.8137 C   0  0  0  0  0  0  0  0  0  0  0  0
   22.6676   34.6591  105.8419 N   0  0  0  0  0  0  0  0  0  0  0  0
   20.1145   34.0236  106.5439 C   0  0  0  0  0  0  0  0  0  0  0  0
   16.5800   34.3609  104.2301 O   0  0  0  0  0  0  0  0  0  0  0  0
   25.0621   34.4831  103.5026 C   0  0  2  0  0  0  0  0  0  0  0  0
   29.4902   35.2175  103.8883 C   0  0  0  0  0  0  0  0  0  0  0  0
   16.6426   36.6010  103.7286 N   0  0  0  0  0  0  0  0  0  0  0  0
   17.2949   36.0642  104.4232 C   0  0  0  0  0  0  0  0  0  0  0  0
   30.0632   33.5968  103.0387 C   0  0  0  0  0  0  0  0  0  0  0  0
  5  3  1  0
  5  4  1  0
  6  2  1  0
  9  1  1  0
  3 12  1  1
 12  7  2  0
 13 12  1  0
 14 11  1  6
  5 15  1  1
 17 10  1  0
 17 14  1  0
 18  2  1  0
 18 10  1  0
 19  6  1  0
 20  3  1  0
 20  4  1  1
 20 14  1  0
 21  8  2  0
 21 15  1  0
 23 19  1  0
 23 22  1  0
 24  1  1  0
 24 16  2  3
 24 21  1  0
M  END
>  <ID>  (1) 
conformer_0

$$$$
