
     RDKit          3D

 26 26  0  0  0  0  0  0  0  0999 V2000
   27.9722   34.0392  103.5550 C   0  0  0  0  0  0  0  0  0  0  0  0
   31.5222   33.9475  103.1453 C   0  0  0  0  0  0  0  0  0  0  0  0
   25.0333   34.3084  103.3230 C   0  0  2  0  0  0  0  0  0  0  0  0
   19.9243   34.1552  106.2187 C   0  0  0  0  0  0  0  0  0  0  0  0
   18.6166   34.3955  105.5184 C   0  0  0  0  0  0  0  0  0  0  0  0
   30.1819   33.5506  103.1089 C   0  0  0  0  0  0  0  0  0  0  0  0
   32.1099   34.2126  101.8987 O   0  0  0  0  0  0  0  0  0  0  0  0
   29.1036   36.4581  103.8158 O   0  0  0  0  0  0  0  0  0  0  0  0
   26.6893   33.2484  107.5861 O   0  0  0  0  0  0  0  0  0  0  0  0
   24.4719   34.5233  108.5826 O   0  0  0  0  0  0  0  0  0  0  0  0
   25.6470   34.2236  107.3568 C   0  0  0  0  0  0  0  0  0  0  0  0
   17.2806   36.3682  104.3261 C   0  0  0  0  0  0  0  0  0  0  0  0
   21.5610   33.7496  106.2103 C   0  0  0  0  0  0  0  0  0  0  0  0
   22.6653   32.6862  105.8541 O   0  0  0  0  0  0  0  0  0  0  0  0
   22.6748   34.4571  105.8151 N   0  0  0  0  0  0  0  0  0  0  0  0
   29.4277   34.3143  103.4539 N   0  0  0  0  0  0  0  0  0  0  0  0
   17.9471   34.6339  105.1301 N   0  0  0  0  0  0  0  0  0  0  0  0
   30.3187   32.4318  102.9678 C   0  0  0  0  0  0  0  0  0  0  0  0
   16.9075   34.1250  104.0682 C   0  0  0  0  0  0  0  0  0  0  0  0
   26.4797   35.1386  104.1386 C   0  0  1  0  0  0  0  0  0  0  0  0
   26.1034   35.2909  102.6004 C   0  0  0  0  0  0  0  0  0  0  0  0
   25.9924   34.7663  105.6598 C   0  0  0  0  0  0  0  0  0  0  0  0
   24.2819   33.9581  105.0788 C   0  0  0  0  0  0  0  0  0  0  0  0
   27.2749   34.5932  104.2381 N   0  0  0  0  0  0  0  0  0  0  0  0
   29.3220   35.3800  103.8827 C   0  0  0  0  0  0  0  0  0  0  0  0
   25.9663   35.1662  107.7411 O   0  0  0  0  0  0  0  0  0  0  0  0
  5  4  1  0
  6  2  1  0
  7  2  1  0
 11  9  1  0
 11 10  1  0
 13  4  1  0
 14 13  2  0
 15 13  1  0
 16  1  1  0
 16  6  1  0
 17  5  1  0
 17 12  1  0
 18  6  2  3
 19 17  1  0
 20  3  1  0
 21  3  1  0
 21 20  1  0
 22 11  1  0
 20 22  1  1
  3 23  1  1
 23 15  1  0
 24  1  1  0
 24 20  1  0
 25  8  2  0
 25 16  1  0
 26 11  1  0
M  END
>  <ID>  (1) 
conformer_0

$$$$
