
     RDKit          3D

 21 20  0  0  0  0  0  0  0  0999 V2000
   24.9788   34.7783  103.4428 C   0  0  0  0  0  0  0  0  0  0  0  0
   27.5296   35.1747  103.9753 C   0  0  0  0  0  0  0  0  0  0  0  0
   31.1814   33.7708  103.4549 C   0  0  0  0  0  0  0  0  0  0  0  0
   20.2594   34.3182  106.0647 C   0  0  0  0  0  0  0  0  0  0  0  0
   29.3952   34.2785  103.5440 C   0  0  0  0  0  0  0  0  0  0  0  0
   19.3677   33.9193  105.8632 C   0  0  0  0  0  0  0  0  0  0  0  0
   26.8596   33.2815  107.4811 O   0  0  0  0  0  0  0  0  0  0  0  0
   25.2016   34.6566  108.1653 O   0  0  0  0  0  0  0  0  0  0  0  0
   25.7298   34.3781  106.7733 C   0  0  0  0  0  0  0  0  0  0  0  0
   22.7034   33.9406  105.9363 C   0  0  0  0  0  0  0  0  0  0  0  0
   29.4321   36.4225  103.8252 O   0  0  0  0  0  0  0  0  0  0  0  0
   17.1495   36.0123  104.3501 C   0  0  0  0  0  0  0  0  0  0  0  0
   32.1313   33.9784  101.9353 O   0  0  0  0  0  0  0  0  0  0  0  0
   23.2628   32.8748  105.8366 O   0  0  0  0  0  0  0  0  0  0  0  0
   28.5453   34.6431  103.8565 N   0  0  0  0  0  0  0  0  0  0  0  0
   30.2942   32.4427  102.8745 C   0  0  0  0  0  0  0  0  0  0  0  0
   23.2238   34.4102  105.7462 N   0  0  0  0  0  0  0  0  0  0  0  0
   17.7482   34.4942  104.9063 N   0  0  0  0  0  0  0  0  0  0  0  0
   25.5367   34.8096  105.0247 C   0  0  0  0  0  0  0  0  0  0  0  0
   25.9985   35.1725  102.5991 C   0  0  0  0  0  0  0  0  0  0  0  0
   17.4961   33.9596  104.7561 C   0  0  0  0  0  0  0  0  0  0  0  0
  5  3  1  0
  6  4  1  0
  9  7  1  0
  9  8  1  0
 10  4  1  0
 10  9  1  0
 13  3  1  0
 14 10  1  0
 15  2  1  0
 15  5  1  0
 15 11  1  0
 16  3  1  0
 17 10  1  0
 18  6  1  0
 18 12  1  0
 19  1  1  0
 19  9  1  0
 20  1  1  0
 20  2  1  0
 21 18  1  0
M  END
>  <ID>  (1) 
conformer_0

$$$$
