
     RDKit          3D

 23 22  0  0  0  0  0  0  0  0999 V2000
   25.8568   34.8085  102.9174 C   0  0  0  0  0  0  0  0  0  0  0  0
   31.3229   33.8141  103.5167 C   0  0  0  0  0  0  0  0  0  0  0  0
   27.8322   35.0649  103.9208 C   0  0  0  0  0  0  0  0  0  0  0  0
   20.3690   34.2658  106.1897 C   0  0  0  0  0  0  0  0  0  0  0  0
   30.1431   34.5529  103.7051 C   0  0  0  0  0  0  0  0  0  0  0  0
   19.0971   34.3529  105.7567 C   0  0  0  0  0  0  0  0  0  0  0  0
   29.8516   32.6973  102.8548 C   0  0  0  0  0  0  0  0  0  0  0  0
   29.3655   36.4305  103.9748 O   0  0  0  0  0  0  0  0  0  0  0  0
   25.3309   34.8168  107.8213 O   0  0  0  0  0  0  0  0  0  0  0  0
   22.6498   34.2889  106.0662 N   0  0  0  0  0  0  0  0  0  0  0  0
   26.5209   33.4492  107.2004 O   0  0  0  0  0  0  0  0  0  0  0  0
   25.9908   34.9118  105.2157 C   0  0  0  0  0  0  0  0  0  0  0  0
   23.0293   32.3893  106.2332 O   0  0  0  0  0  0  0  0  0  0  0  0
   17.6861   34.8746  104.9702 N   0  0  0  0  0  0  0  0  0  0  0  0
   24.8549   34.3000  106.2301 C   0  0  2  0  0  0  0  0  0  0  0  0
   32.5043   34.0132  104.8605 O   0  0  0  0  0  0  0  0  0  0  0  0
   24.8157   34.4267  103.7759 C   0  0  0  0  0  0  0  0  0  0  0  0
   32.3010   34.0095  101.9498 O   0  0  0  0  0  0  0  0  0  0  0  0
   17.5560   36.1005  104.5226 C   0  0  0  0  0  0  0  0  0  0  0  0
   28.8573   34.6403  103.7447 N   0  0  0  0  0  0  0  0  0  0  0  0
   22.3590   33.7541  106.2974 C   0  0  2  0  0  0  0  0  0  0  0  0
   18.8677   33.6427  106.4866 C   0  0  0  0  0  0  0  0  0  0  0  0
   17.1164   33.9392  104.8752 C   0  0  0  0  0  0  0  0  0  0  0  0
  3  1  1  0
  5  2  1  0
  6  4  1  0
  7  2  1  0
 11  9  1  0
 14  6  1  0
 15  9  1  0
 15 12  1  6
 16  2  1  0
 17  1  1  0
 17 12  1  0
 18  2  1  0
 19 14  1  0
 20  3  1  0
 20  5  1  0
 20  8  1  0
 21  4  1  0
 21 10  1  6
 21 13  1  0
 21 15  1  0
 22  6  2  3
 23 14  1  0
M  END
>  <ID>  (1) 
conformer_0

$$$$
