
     RDKit          3D

 24 23  0  0  0  0  0  0  0  0999 V2000
   25.0774   34.5503  103.5166 C   0  0  0  0  0  0  0  0  0  0  0  0
   19.1136   34.3055  105.9575 C   0  0  0  0  0  0  0  0  0  0  0  0
   31.0066   33.6559  102.8527 C   0  0  0  0  0  0  0  0  0  0  0  0
   28.7839   34.6683  103.7169 C   0  0  0  0  0  0  0  0  0  0  0  0
   18.2504   34.6531  105.3718 C   0  0  0  0  0  0  0  0  0  0  0  0
   31.2701   34.3273  104.1656 C   0  0  0  0  0  0  0  0  0  0  0  0
   21.9431   33.9579  106.0634 C   0  0  0  0  0  0  0  0  0  0  0  0
   32.3234   34.0568  101.8287 O   0  0  0  0  0  0  0  0  0  0  0  0
   26.9414   33.3909  107.4926 O   0  0  0  0  0  0  0  0  0  0  0  0
   25.4323   34.8769  108.1323 O   0  0  0  0  0  0  0  0  0  0  0  0
   30.4935   32.5299  103.0006 C   0  0  0  0  0  0  0  0  0  0  0  0
   23.1453   32.9604  105.8556 O   0  0  0  0  0  0  0  0  0  0  0  0
   25.9515   34.3934  106.9333 C   0  0  0  0  0  0  0  0  0  0  0  0
   26.1264   35.0493  102.7971 C   0  0  0  0  0  0  0  0  0  0  0  0
   29.5371   36.2947  103.8530 O   0  0  0  0  0  0  0  0  0  0  0  0
   17.2576   34.7660  104.6717 N   0  0  0  0  0  0  0  0  0  0  0  0
   22.7178   34.6123  105.6729 N   0  0  0  0  0  0  0  0  0  0  0  0
   24.5660   34.5623  105.3025 C   0  0  0  0  0  0  0  0  0  0  0  0
   20.3436   34.1389  106.1400 C   0  0  0  0  0  0  0  0  0  0  0  0
   17.0270   36.1998  103.9596 C   0  0  0  0  0  0  0  0  0  0  0  0
   29.1438   34.3013  103.6779 N   0  0  0  0  0  0  0  0  0  0  0  0
   26.6838   34.9648  104.6400 C   0  0  0  0  0  0  0  0  0  0  0  0
   16.6469   34.1591  103.9312 C   0  0  0  0  0  0  0  0  0  0  0  0
   27.9068   35.0899  104.7887 O   0  0  0  0  0  0  0  0  0  0  0  0
  5  2  1  0
  6  3  1  0
  8  3  1  0
 11  3  1  0
 12  7  1  0
 13  9  1  0
 13 10  2  0
 14  1  1  0
 15  4  1  0
 16  5  1  0
 17  7  1  0
 18  1  1  0
 18  7  1  0
 18 13  1  0
 19  2  1  0
 19  7  1  0
 20 16  1  0
 21  3  1  0
 21  4  1  0
 22 14  1  0
 23 16  1  0
 24  4  1  0
 24 22  1  0
M  END
>  <ID>  (1) 
conformer_0

$$$$
