
     RDKit          3D

 25 25  0  0  0  0  0  0  0  0999 V2000
   31.5156   34.2845  104.5842 C   0  0  0  0  0  0  0  0  0  0  0  0
   19.5490   34.0726  106.0847 C   0  0  0  0  0  0  0  0  0  0  0  0
   24.9880   34.5313  103.6910 C   0  0  0  0  0  0  0  0  0  0  0  0
   29.0378   33.7422  103.2760 C   0  0  0  0  0  0  0  0  0  0  0  0
   31.2668   33.7930  102.9287 C   0  0  0  0  0  0  0  0  0  0  0  0
   18.4154   34.4246  105.6400 C   0  0  0  0  0  0  0  0  0  0  0  0
   32.0603   34.1617  101.9310 O   0  0  0  0  0  0  0  0  0  0  0  0
   25.3953   34.7643  108.0762 O   0  0  0  0  0  0  0  0  0  0  0  0
   25.9676   34.9465  105.2543 C   0  0  0  0  0  0  0  0  0  0  0  0
   26.6842   33.4868  107.2844 O   0  0  0  0  0  0  0  0  0  0  0  0
   21.9226   33.8335  106.4032 C   0  0  0  0  0  0  0  0  0  0  0  0
   22.8473   32.6304  106.0798 O   0  0  0  0  0  0  0  0  0  0  0  0
   23.0314   34.4433  105.9562 N   0  0  0  0  0  0  0  0  0  0  0  0
   29.0219   36.4267  103.9938 O   0  0  0  0  0  0  0  0  0  0  0  0
   28.6068   34.6687  103.6520 N   0  0  0  0  0  0  0  0  0  0  0  0
   17.5373   34.8789  104.9050 N   0  0  0  0  0  0  0  0  0  0  0  0
   30.6045   32.6502  103.1100 C   0  0  0  0  0  0  0  0  0  0  0  0
   20.6528   34.6199  106.5184 C   0  0  0  0  0  0  0  0  0  0  0  0
   25.4749   34.2034  107.1695 C   0  0  0  0  0  0  0  0  0  0  0  0
   26.1670   35.1186  102.6251 C   0  0  0  0  0  0  0  0  0  0  0  0
   17.4974   36.1700  104.2679 C   0  0  0  0  0  0  0  0  0  0  0  0
   24.2822   34.1180  105.3701 C   0  0  0  0  0  0  0  0  0  0  0  0
   16.4642   34.2906  104.4786 C   0  0  0  0  0  0  0  0  0  0  0  0
   29.6035   35.4423  103.7848 C   0  0  0  0  0  0  0  0  0  0  0  0
   27.1087   34.9879  103.6306 C   0  0  0  0  0  0  0  0  0  0  0  0
  5  1  1  0
  6  2  1  0
  7  5  1  0
  9  3  1  0
 12 11  2  0
 13 11  1  0
 15  4  1  0
 16  6  1  0
 17  4  1  0
 17  5  1  0
 18  2  1  0
 18 11  1  0
 19  8  1  0
 19  9  1  0
 19 10  1  0
 20  3  1  0
 21 16  1  0
 22  3  1  0
 22  9  1  0
 22 13  1  0
 23 16  1  0
 24 14  1  0
 24 15  1  0
 25 15  1  0
 25 20  1  0
M  END
>  <ID>  (1) 
conformer_0

$$$$
