
     RDKit          3D

 24 23  0  0  0  0  0  0  0  0999 V2000
   24.9746   34.3614  103.7041 C   0  0  1  0  0  0  0  0  0  0  0  0
   18.7795   33.5987  106.2862 C   0  0  0  0  0  0  0  0  0  0  0  0
   31.3149   33.6936  103.1996 C   0  0  0  0  0  0  0  0  0  0  0  0
   23.7769   33.9836  105.5231 C   0  0  2  0  0  0  0  0  0  0  0  0
   28.7987   33.6847  103.2068 C   0  0  0  0  0  0  0  0  0  0  0  0
   18.0275   34.3246  105.2224 C   0  0  0  0  0  0  0  0  0  0  0  0
   21.1585   33.7538  106.2314 C   0  0  0  0  0  0  0  0  0  0  0  0
   29.8737   36.4033  104.0610 O   0  0  0  0  0  0  0  0  0  0  0  0
   26.7633   33.5867  107.2711 O   0  0  0  0  0  0  0  0  0  0  0  0
   32.1708   34.0990  101.8377 O   0  0  0  0  0  0  0  0  0  0  0  0
   22.7804   32.7647  106.2185 O   0  0  0  0  0  0  0  0  0  0  0  0
   25.3780   34.6180  107.6593 O   0  0  0  0  0  0  0  0  0  0  0  0
   27.7824   34.6714  104.1347 N   0  0  0  0  0  0  0  0  0  0  0  0
   22.5908   34.3070  105.7117 N   0  0  0  0  0  0  0  0  0  0  0  0
   25.9386   35.0035  102.9160 C   0  0  0  0  0  0  0  0  0  0  0  0
   31.4133   33.4463  103.8591 C   0  0  0  0  0  0  0  0  0  0  0  0
   26.1033   34.8027  104.8603 C   0  0  0  0  0  0  0  0  0  0  0  0
   20.2195   34.5524  106.3610 C   0  0  0  0  0  0  0  0  0  0  0  0
   17.5372   36.1474  104.5743 O   0  0  0  0  0  0  0  0  0  0  0  0
   25.6031   34.2916  106.9923 C   0  0  0  0  0  0  0  0  0  0  0  0
   17.1595   35.9253  104.2223 C   0  0  0  0  0  0  0  0  0  0  0  0
   30.4328   35.1234  104.0868 C   0  0  0  0  0  0  0  0  0  0  0  0
   27.8160   35.3169  103.9418 C   0  0  0  0  0  0  0  0  0  0  0  0
   29.8760   34.4647  103.5858 N   0  0  0  0  0  0  0  0  0  0  0  0
  4  1  1  0
  6  2  1  0
 10  3  1  0
  4 11  1  6
 13  5  1  0
 14  4  1  0
 14  7  1  0
  1 15  1  6
 16  3  2  3
 17  1  1  0
 17 13  1  0
 18  2  1  0
 18  7  1  0
 20  4  1  0
 20  9  1  0
 20 12  2  0
 21  6  1  0
 21 19  1  0
 22  8  1  0
 23 13  1  0
 24  3  1  0
 24  5  1  0
 24 22  1  0
M  END
>  <ID>  (1) 
conformer_0

$$$$
