
     RDKit          3D

 23 23  0  0  0  0  0  0  0  0999 V2000
   24.6716   34.2290  105.3393 C   0  0  0  0  0  0  0  0  0  0  0  0
   25.0684   34.6496  103.2973 C   0  0  0  0  0  0  0  0  0  0  0  0
   31.0562   33.8868  103.5189 C   0  0  1  0  0  0  0  0  0  0  0  0
   19.6876   34.3176  106.0765 C   0  0  0  0  0  0  0  0  0  0  0  0
   29.0050   34.6649  103.6599 C   0  0  0  0  0  0  0  0  0  0  0  0
   17.5397   35.4066  104.6954 C   0  0  1  0  0  0  0  0  0  0  0  0
   25.2092   34.7231  107.9830 O   0  0  0  0  0  0  0  0  0  0  0  0
   30.0926   32.6292  102.8784 C   0  0  0  0  0  0  0  0  0  0  0  0
   21.9194   33.5246  106.1824 C   0  0  2  0  0  0  0  0  0  0  0  0
   27.0880   33.6116  107.4786 O   0  0  0  0  0  0  0  0  0  0  0  0
   29.6167   36.4809  103.8509 O   0  0  0  0  0  0  0  0  0  0  0  0
   22.5127   34.0818  105.7136 N   0  0  0  0  0  0  0  0  0  0  0  0
   26.7838   34.9524  104.4843 C   0  0  0  0  0  0  0  0  0  0  0  0
   23.2661   32.3262  106.0106 O   0  0  0  0  0  0  0  0  0  0  0  0
   17.9707   36.9986  104.5417 O   0  0  0  0  0  0  0  0  0  0  0  0
   32.0772   34.1652  102.0681 N   0  0  0  0  0  0  0  0  0  0  0  0
   17.4578   34.8107  104.9219 N   0  0  0  0  0  0  0  0  0  0  0  0
   26.1288   35.2920  102.5665 C   0  0  0  0  0  0  0  0  0  0  0  0
   28.3664   34.6288  103.9542 N   0  0  0  0  0  0  0  0  0  0  0  0
   18.9703   33.7090  106.4782 C   0  0  0  0  0  0  0  0  0  0  0  0
   25.9950   34.4493  106.6300 C   0  0  0  0  0  0  0  0  0  0  0  0
   16.5459   36.3510  103.6846 N   0  0  0  0  0  0  0  0  0  0  0  0
   19.1777   33.0772  107.9109 N   0  0  0  0  0  0  0  0  0  0  0  0
  2  1  2  3
  5  3  1  0
  3  8  1  6
  9  1  1  0
  9  4  1  0
 11  5  2  0
  9 12  1  6
 14  9  1  0
 15  6  1  0
 16  3  1  0
  6 17  1  1
 18  2  1  0
 18 13  1  0
 19  5  1  0
 19 13  1  0
 20  4  1  0
 20 17  1  0
 21  1  1  0
 21  7  1  0
 21 10  1  0
 22  6  1  0
 22 15  1  0
 23 20  2  3
M  END
>  <ID>  (1) 
conformer_0

$$$$
