
     RDKit          3D

 21 20  0  0  0  0  0  0  0  0999 V2000
   24.9383   34.4236  103.4588 C   0  0  0  0  0  0  0  0  0  0  0  0
   19.2426   34.0238  106.2278 C   0  0  0  0  0  0  0  0  0  0  0  0
   18.1252   34.4725  105.2899 C   0  0  0  0  0  0  0  0  0  0  0  0
   27.2599   34.8958  104.0267 C   0  0  0  0  0  0  0  0  0  0  0  0
   31.1071   33.8501  103.4848 C   0  0  0  0  0  0  0  0  0  0  0  0
   30.6489   32.8270  102.9239 C   0  0  0  0  0  0  0  0  0  0  0  0
   29.4242   34.9561  103.5731 C   0  0  0  0  0  0  0  0  0  0  0  0
   26.7203   33.2845  107.4160 O   0  0  0  0  0  0  0  0  0  0  0  0
   21.9815   33.6283  106.3143 C   0  0  0  0  0  0  0  0  0  0  0  0
   25.0772   34.5315  108.0331 O   0  0  0  0  0  0  0  0  0  0  0  0
   29.4824   36.4946  103.9033 O   0  0  0  0  0  0  0  0  0  0  0  0
   23.1138   34.2920  105.6949 N   0  0  0  0  0  0  0  0  0  0  0  0
   22.5706   32.5516  106.3450 O   0  0  0  0  0  0  0  0  0  0  0  0
   18.0286   36.7932  104.4114 O   0  0  0  0  0  0  0  0  0  0  0  0
   25.9351   34.2574  106.9483 C   0  0  0  0  0  0  0  0  0  0  0  0
   26.1483   34.9603  102.7486 C   0  0  0  0  0  0  0  0  0  0  0  0
   17.1111   35.4163  104.2030 C   0  0  0  0  0  0  0  0  0  0  0  0
   28.6763   34.5169  103.6950 N   0  0  0  0  0  0  0  0  0  0  0  0
   20.7429   34.5789  106.2069 C   0  0  0  0  0  0  0  0  0  0  0  0
   25.0857   34.5129  105.1550 C   0  0  0  0  0  0  0  0  0  0  0  0
   17.7915   34.7906  104.7880 N   0  0  0  0  0  0  0  0  0  0  0  0
  3  2  1  0
  6  5  1  0
  7  5  1  0
 11  7  2  0
 12  9  1  0
 13  9  1  0
 15  8  1  0
 15 10  2  0
 16  1  1  0
 16  4  1  0
 17 14  1  0
 18  4  1  0
 18  7  1  0
 19  2  1  0
 19  9  1  0
 20  1  1  0
 20  9  1  0
 20 15  1  0
 21  3  1  0
 21 17  1  0
M  END
>  <ID>  (1) 
conformer_0

$$$$
