
     RDKit          3D

 28 28  0  0  0  0  0  0  0  0999 V2000
   25.8941   34.7299  104.8695 C   0  0  0  0  0  0  0  0  0  0  0  0
   30.7258   33.7504  103.0091 C   0  0  0  0  0  0  0  0  0  0  0  0
   29.3727   32.7195  102.7924 C   0  0  0  0  0  0  0  0  0  0  0  0
   19.3077   34.4859  106.0295 C   0  0  0  0  0  0  0  0  0  0  0  0
   16.7319   36.8089  103.7842 C   0  0  0  0  0  0  0  0  0  0  0  0
   26.9339   35.1362  102.4548 C   0  0  0  0  0  0  0  0  0  0  0  0
   27.5650   34.7296  103.6242 C   0  0  0  0  0  0  0  0  0  0  0  0
   25.2319   34.6365  108.1454 O   0  0  0  0  0  0  0  0  0  0  0  0
   27.0914   33.5391  107.4206 O   0  0  0  0  0  0  0  0  0  0  0  0
   28.9972   36.5951  103.8923 O   0  0  0  0  0  0  0  0  0  0  0  0
   21.9854   33.7393  106.3043 C   0  0  0  0  0  0  0  0  0  0  0  0
   18.2795   36.0627  104.9517 C   0  0  0  0  0  0  0  0  0  0  0  0
   25.7451   34.2320  107.0830 C   0  0  0  0  0  0  0  0  0  0  0  0
   22.9581   34.3985  106.0780 N   0  0  0  0  0  0  0  0  0  0  0  0
   23.4964   32.6282  105.8075 O   0  0  0  0  0  0  0  0  0  0  0  0
   17.7432   35.0085  104.8972 N   0  0  0  0  0  0  0  0  0  0  0  0
   27.3504   34.6706  104.6195 O   0  0  0  0  0  0  0  0  0  0  0  0
   24.4231   34.2123  105.6314 C   0  0  0  0  0  0  0  0  0  0  0  0
   18.9684   33.6426  106.5551 C   0  0  0  0  0  0  0  0  0  0  0  0
   29.4421   34.4924  103.6104 N   0  0  0  0  0  0  0  0  0  0  0  0
   25.2507   34.4960  103.4235 C   0  0  0  0  0  0  0  0  0  0  0  0
   32.1817   33.9639  101.8684 O   0  0  0  0  0  0  0  0  0  0  0  0
   18.4004   33.2145  107.5540 N   0  0  0  0  0  0  0  0  0  0  0  0
   20.8500   34.1001  106.4822 C   0  0  0  0  0  0  0  0  0  0  0  0
   30.8524   32.4545  102.9480 C   0  0  0  0  0  0  0  0  0  0  0  0
   31.6833   34.1126  104.3969 C   0  0  0  0  0  0  0  0  0  0  0  0
   29.4785   35.3167  103.7954 C   0  0  0  0  0  0  0  0  0  0  0  0
   17.2058   34.4809  104.8981 C   0  0  0  0  0  0  0  0  0  0  0  0
  3  2  1  0
  7  6  1  0
 12  5  1  0
 13  8  2  0
 13  9  1  0
 14 11  1  0
 16  4  1  0
 16 12  1  0
 17  1  1  0
 17  7  1  0
 18  1  1  0
 18 13  1  0
 18 14  1  0
 18 15  1  0
 19  4  1  0
 20  2  1  0
 20  7  1  0
 21  1  1  0
 22  2  1  0
 23 19  1  0
 24  4  2  0
 24 11  2  0
 25  2  1  0
 25  3  1  0
 26 25  1  0
 27 10  1  0
 27 20  1  0
 28 16  1  0
M  END
>  <ID>  (1) 
conformer_0

$$$$
