
     RDKit          3D

 25 25  0  0  0  0  0  0  0  0999 V2000
   30.6218   33.4489  102.9605 C   0  0  2  0  0  0  0  0  0  0  0  0
   26.2529   35.0301  104.9839 C   0  0  1  0  0  0  0  0  0  0  0  0
   25.1299   34.4947  103.3120 C   0  0  0  0  0  0  0  0  0  0  0  0
   27.7596   34.8320  103.6211 C   0  0  2  0  0  0  0  0  0  0  0  0
   19.7741   33.9682  106.1168 C   0  0  0  0  0  0  0  0  0  0  0  0
   19.3961   33.9586  106.2901 C   0  0  0  0  0  0  0  0  0  0  0  0
   32.1108   34.1238  101.9873 O   0  0  0  0  0  0  0  0  0  0  0  0
   25.1459   34.5726  107.9520 O   0  0  0  0  0  0  0  0  0  0  0  0
   26.8151   33.5156  107.2580 O   0  0  0  0  0  0  0  0  0  0  0  0
   24.4465   34.2654  105.0342 C   0  0  2  0  0  0  0  0  0  0  0  0
   22.5795   34.3527  105.7351 N   0  0  0  0  0  0  0  0  0  0  0  0
   22.1585   33.7823  106.1842 C   0  0  0  0  0  0  0  0  0  0  0  0
   23.3947   32.4933  106.0100 O   0  0  0  0  0  0  0  0  0  0  0  0
   25.6496   34.5236  106.7182 C   0  0  0  0  0  0  0  0  0  0  0  0
   29.5113   36.4347  103.9295 O   0  0  0  0  0  0  0  0  0  0  0  0
   29.4764   34.5825  103.7177 N   0  0  0  0  0  0  0  0  0  0  0  0
   18.0854   36.9908  104.6578 O   0  0  0  0  0  0  0  0  0  0  0  0
   17.6545   34.6518  104.9056 N   0  0  0  0  0  0  0  0  0  0  0  0
   17.4302   36.1646  104.5421 C   0  0  0  0  0  0  0  0  0  0  0  0
   31.7261   33.9994  104.2202 C   0  0  0  0  0  0  0  0  0  0  0  0
   19.3203   33.2508  107.7275 N   0  0  0  0  0  0  0  0  0  0  0  0
   26.3087   35.2765  102.7004 C   0  0  0  0  0  0  0  0  0  0  0  0
   27.0594   34.8068  104.5383 N   0  0  0  0  0  0  0  0  0  0  0  0
   29.7062   34.9751  103.7753 C   0  0  0  0  0  0  0  0  0  0  0  0
   17.5650   34.1725  104.7247 C   0  0  0  0  0  0  0  0  0  0  0  0
  6  5  1  0
  7  1  1  0
 10  2  1  0
 10  3  1  0
 10 11  1  6
 12  5  1  0
 12 11  1  0
 13 12  2  0
  2 14  1  1
 14  8  2  0
 14  9  1  0
 16  1  1  0
  4 16  1  1
 18  6  1  0
 19 17  2  0
 19 18  1  0
  1 20  1  1
 21  6  2  3
 22  3  1  0
 22  4  1  0
 23  2  1  0
 23  4  1  0
 24 15  1  0
 24 16  1  0
 25 18  1  0
M  END
>  <ID>  (1) 
conformer_0

$$$$
