
     RDKit          3D

 24 23  0  0  0  0  0  0  0  0999 V2000
   18.7399   34.4636  106.1415 C   0  0  0  0  0  0  0  0  0  0  0  0
   31.6488   34.2327  104.4792 C   0  0  0  0  0  0  0  0  0  0  0  0
   25.3724   34.4590  103.3853 C   0  0  0  0  0  0  0  0  0  0  0  0
   25.6690   34.6413  104.8730 C   0  0  2  0  0  0  0  0  0  0  0  0
   16.6245   35.5666  103.8047 C   0  0  0  0  0  0  0  0  0  0  0  0
   29.5605   34.8964  103.7634 C   0  0  0  0  0  0  0  0  0  0  0  0
   30.3867   32.6846  102.9560 C   0  0  0  0  0  0  0  0  0  0  0  0
   26.8424   33.2504  107.4568 O   0  0  0  0  0  0  0  0  0  0  0  0
   21.0430   33.6190  106.6345 C   0  0  0  0  0  0  0  0  0  0  0  0
   25.5377   34.7338  108.0681 O   0  0  0  0  0  0  0  0  0  0  0  0
   32.3168   34.0442  101.8010 O   0  0  0  0  0  0  0  0  0  0  0  0
   17.8722   37.0727  104.2306 O   0  0  0  0  0  0  0  0  0  0  0  0
   29.5857   36.4697  103.9966 O   0  0  0  0  0  0  0  0  0  0  0  0
   17.1333   34.8899  104.4268 N   0  0  0  0  0  0  0  0  0  0  0  0
   27.5035   34.5752  103.8217 C   0  0  0  0  0  0  0  0  0  0  0  0
   22.8469   34.2958  106.3348 N   0  0  0  0  0  0  0  0  0  0  0  0
   22.9135   32.6364  106.1471 O   0  0  0  0  0  0  0  0  0  0  0  0
   27.6032   34.7505  104.9409 O   0  0  0  0  0  0  0  0  0  0  0  0
   17.9542   34.7104  105.0072 C   0  0  0  0  0  0  0  0  0  0  0  0
   29.2575   34.4521  103.7782 N   0  0  0  0  0  0  0  0  0  0  0  0
   25.7653   34.1014  107.0908 C   0  0  0  0  0  0  0  0  0  0  0  0
   20.2695   34.2158  106.3174 C   0  0  0  0  0  0  0  0  0  0  0  0
   31.0666   33.7942  102.7947 C   0  0  0  0  0  0  0  0  0  0  0  0
   23.6099   33.8474  106.2510 C   0  0  2  0  0  0  0  0  0  0  0  0
  4  3  1  6
 12  5  1  0
 13  6  2  0
 14  5  1  0
 18  4  1  0
 18 15  1  0
 19  1  1  0
 19 14  1  0
 20  6  1  0
 20 15  1  0
 21  4  1  0
 21  8  1  0
 21 10  1  0
 22  1  1  0
 22  9  2  3
 23  2  1  0
 23  6  1  0
 23  7  1  0
 23 11  1  0
 24  9  1  0
 24 16  1  6
 24 17  1  0
 24 21  1  0
M  END
>  <ID>  (1) 
conformer_0

$$$$
