
     RDKit          3D

 25 24  0  0  0  0  0  0  0  0999 V2000
   25.4054   34.6839  103.1487 C   0  0  0  0  0  0  0  0  0  0  0  0
   26.6978   34.7808  104.4721 C   0  0  2  0  0  0  0  0  0  0  0  0
   31.5806   33.9160  103.7414 C   0  0  1  0  0  0  0  0  0  0  0  0
   20.2053   33.7457  106.3473 C   0  0  0  0  0  0  0  0  0  0  0  0
   18.1800   35.5802  105.2019 C   0  0  2  0  0  0  0  0  0  0  0  0
   28.7999   35.1380  103.6987 C   0  0  0  0  0  0  0  0  0  0  0  0
   22.4228   33.7024  106.0327 C   0  0  0  0  0  0  0  0  0  0  0  0
   29.4774   36.7312  103.8748 O   0  0  0  0  0  0  0  0  0  0  0  0
   25.0346   34.1848  108.0009 O   0  0  0  0  0  0  0  0  0  0  0  0
   32.1971   34.0314  101.8795 O   0  0  0  0  0  0  0  0  0  0  0  0
   22.9781   33.9858  105.8085 N   0  0  0  0  0  0  0  0  0  0  0  0
   25.8450   34.3065  106.9446 C   0  0  0  0  0  0  0  0  0  0  0  0
   16.7627   36.1606  103.7317 O   0  0  0  0  0  0  0  0  0  0  0  0
   17.8088   34.4729  105.2182 N   0  0  0  0  0  0  0  0  0  0  0  0
   26.5329   35.3977  102.4891 C   0  0  0  0  0  0  0  0  0  0  0  0
   20.0720   33.6355  106.1691 C   0  0  0  0  0  0  0  0  0  0  0  0
   30.0210   32.5494  102.9119 C   0  0  0  0  0  0  0  0  0  0  0  0
   31.3500   35.0017  104.2852 N   0  0  0  0  0  0  0  0  0  0  0  0
   25.0805   34.4030  105.4877 C   0  0  0  0  0  0  0  0  0  0  0  0
   28.7753   34.4854  103.7720 N   0  0  0  0  0  0  0  0  0  0  0  0
   17.5770   33.7092  105.1112 C   0  0  0  0  0  3  0  0  0  0  0  0
   16.5814   35.4914  103.8278 C   0  0  0  0  0  0  0  0  0  0  0  0
   28.0731   34.9557  104.8003 O   0  0  0  0  0  0  0  0  0  0  0  0
   30.2627   33.7416  103.0640 C   0  0  1  0  0  0  0  0  0  0  0  0
   19.7627   34.8112  105.5444 C   0  0  0  0  0  0  0  0  0  0  0  0
  2  1  1  6
  6  2  1  0
  7  4  1  0
  8  6  1  0
 10  3  1  0
 11  7  1  0
 12  9  1  0
 14  5  1  0
 15  1  1  0
 16  4  1  0
  3 18  1  1
 19  2  1  0
 19 11  2  3
 19 12  1  0
 20  6  1  0
 21 14  2  3
  5 22  1  6
 22 13  1  0
 23  6  1  0
 24  3  1  0
 24 17  1  1
 24 20  1  0
 25  5  1  0
 25 16  1  0
M  RAD  1  21   2
M  END
>  <ID>  (1) 
conformer_0

$$$$
