
     RDKit          3D

 22 22  0  0  0  0  0  0  0  0999 V2000
   26.0979   34.8458  102.9580 C   0  0  0  0  0  0  0  0  0  0  0  0
   27.0551   35.1875  104.5262 C   0  0  0  0  0  0  0  0  0  0  0  0
   31.1757   33.4865  102.7501 C   0  0  0  0  0  0  0  0  0  0  0  0
   19.1466   34.4921  105.8935 C   0  0  0  0  0  0  0  0  0  0  0  0
   28.8740   34.9806  103.7589 C   0  0  0  0  0  0  0  0  0  0  0  0
   18.1838   34.1722  105.2006 C   0  0  0  0  0  0  0  0  0  0  0  0
   26.9512   33.3810  107.3974 O   0  0  0  0  0  0  0  0  0  0  0  0
   32.3789   33.9759  101.7557 O   0  0  0  0  0  0  0  0  0  0  0  0
   29.9864   32.7560  102.9015 C   0  0  0  0  0  0  0  0  0  0  0  0
   23.3827   34.2252  105.8528 C   0  0  0  0  0  0  0  0  0  0  0  0
   24.8266   34.6891  107.8680 O   0  0  0  0  0  0  0  0  0  0  0  0
   29.6742   36.2077  103.9757 O   0  0  0  0  0  0  0  0  0  0  0  0
   25.8810   34.2153  107.0420 C   0  0  0  0  0  0  0  0  0  0  0  0
   24.8149   34.4674  103.7545 C   0  0  0  0  0  0  0  0  0  0  0  0
   25.4755   34.6847  105.2189 C   0  0  0  0  0  0  0  0  0  0  0  0
   17.4403   36.2563  104.3000 N   0  0  0  0  0  0  0  0  0  0  0  0
   16.9536   36.0129  104.1828 C   0  0  0  0  0  0  0  0  0  0  0  0
   22.4661   34.0031  106.1860 N   0  0  0  0  0  0  0  0  0  0  0  0
   28.1593   34.7774  104.1801 N   0  0  0  0  0  0  0  0  0  0  0  0
   20.7504   33.8472  106.5786 C   0  0  0  0  0  0  0  0  0  0  0  0
   31.0531   34.3194  104.0339 C   0  0  0  0  0  0  0  0  0  0  0  0
   20.6317   34.6998  106.2009 C   0  0  0  0  0  0  0  0  0  0  0  0
  2  1  1  0
  6  4  1  0
  8  3  1  0
  9  3  1  0
 12  5  1  0
 13  7  1  0
 13 11  2  0
 14  1  1  0
 15  2  1  0
 15 10  1  0
 15 13  1  0
 15 14  1  0
 17  6  1  0
 17 16  1  0
 18 10  1  0
 19  2  1  0
 19  5  1  0
 20 18  1  0
 21  3  1  0
 21  5  1  0
 22  4  1  0
 22 20  1  0
M  END
>  <ID>  (1) 
conformer_0

$$$$
