
     RDKit          3D

 24 23  0  0  0  0  0  0  0  0999 V2000
   25.0412   34.5822  103.7245 C   0  0  0  0  0  0  0  0  0  0  0  0
   19.0208   34.4450  105.7264 C   0  0  0  0  0  0  0  0  0  0  0  0
   31.6579   33.8313  103.6290 C   0  0  0  0  0  0  0  0  0  0  0  0
   27.3755   34.7094  103.5684 C   0  0  2  0  0  0  0  0  0  0  0  0
   29.9453   33.5128  103.0522 C   0  0  1  0  0  0  0  0  0  0  0  0
   17.8837   34.8098  105.0847 C   0  0  0  0  0  0  0  0  0  0  0  0
   21.4442   33.8999  106.3345 C   0  0  0  0  0  0  0  0  0  0  0  0
   27.1176   33.2985  107.4241 O   0  0  0  0  0  0  0  0  0  0  0  0
   25.5016   34.7583  107.9688 O   0  0  0  0  0  0  0  0  0  0  0  0
   29.2922   36.5188  103.8358 O   0  0  0  0  0  0  0  0  0  0  0  0
   22.7499   32.6889  106.4667 O   0  0  0  0  0  0  0  0  0  0  0  0
   30.4543   32.5123  103.0975 C   0  0  0  0  0  0  0  0  0  0  0  0
   22.7369   34.4443  105.7788 N   0  0  0  0  0  0  0  0  0  0  0  0
   17.4761   35.5205  104.4984 N   0  0  0  0  0  0  0  0  0  0  0  0
   25.8625   34.0406  107.1685 C   0  0  0  0  0  0  0  0  0  0  0  0
   28.5529   34.6023  103.7412 N   0  0  0  0  0  0  0  0  0  0  0  0
   31.9758   34.1414  101.9533 O   0  0  0  0  0  0  0  0  0  0  0  0
   26.0647   34.8429  102.7118 C   0  0  0  0  0  0  0  0  0  0  0  0
   25.9392   34.9039  105.1140 C   0  0  0  0  0  0  0  0  0  0  0  0
   20.2010   34.0320  106.1105 C   0  0  0  0  0  0  0  0  0  0  0  0
   16.9605   36.2103  104.1503 C   0  0  0  0  0  3  0  0  0  0  0  0
   24.0438   34.2003  105.7234 C   0  0  0  0  0  0  0  0  0  0  0  0
   27.0575   35.0208  105.2348 O   0  0  0  0  0  0  0  0  0  0  0  0
   29.1595   35.1511  103.7397 C   0  0  0  0  0  0  0  0  0  0  0  0
  5  3  1  0
  6  2  1  0
 11  7  2  0
  5 12  1  1
 13  7  1  0
 14  6  1  0
 15  1  1  0
 15  8  1  0
 15  9  2  0
 16  4  1  0
 17  3  1  0
 18  1  1  0
  4 18  1  6
 20  2  3  0
 20  7  1  0
 21 14  2  3
 22 13  1  0
 22 19  1  0
 23  4  1  0
 23 19  1  0
 24  5  1  0
 24 10  2  0
 24 16  1  0
M  RAD  1  21   2
M  END
>  <ID>  (1) 
conformer_0

$$$$
