
     RDKit          3D

 23 22  0  0  0  0  0  0  0  0999 V2000
   24.9939   34.2753  103.5430 C   0  0  0  0  0  0  0  0  0  0  0  0
   31.4859   34.1171  103.3984 C   0  0  0  0  0  0  0  0  0  0  0  0
   26.6228   35.0609  104.5397 C   0  0  0  0  0  0  0  0  0  0  0  0
   19.4184   33.8824  105.7809 C   0  0  0  0  0  0  0  0  0  0  0  0
   18.3405   34.7548  105.4618 C   0  0  0  0  0  0  0  0  0  0  0  0
   28.6790   35.3286  103.7485 C   0  0  0  0  0  0  0  0  0  0  0  0
   24.9686   34.4896  108.2296 O   0  0  0  0  0  0  0  0  0  0  0  0
   29.5945   36.5366  103.8611 O   0  0  0  0  0  0  0  0  0  0  0  0
   21.8856   33.6074  106.5543 C   0  0  1  0  0  0  0  0  0  0  0  0
   25.2876   34.1615  107.1560 C   0  0  0  0  0  0  0  0  0  0  0  0
   32.2089   33.9186  101.7620 O   0  0  0  0  0  0  0  0  0  0  0  0
   26.7403   33.5145  107.3814 O   0  0  0  0  0  0  0  0  0  0  0  0
   22.9440   34.1249  106.0646 N   0  0  0  0  0  0  0  0  0  0  0  0
   18.0586   34.9163  105.4676 N   0  0  0  0  0  0  0  0  0  0  0  0
   16.9905   35.6827  104.1769 C   0  0  0  0  0  0  0  0  0  0  0  0
   28.9853   34.5999  103.6474 N   0  0  0  0  0  0  0  0  0  0  0  0
   29.9799   32.5306  102.8848 C   0  0  0  0  0  0  0  0  0  0  0  0
   24.7947   34.4382  105.2974 C   0  0  0  0  0  0  0  0  0  0  0  0
   22.6415   32.5966  106.8896 O   0  0  0  0  0  0  0  0  0  0  0  0
   26.1357   34.8981  102.9264 C   0  0  0  0  0  0  0  0  0  0  0  0
   17.4756   36.8091  104.3157 O   0  0  0  0  0  0  0  0  0  0  0  0
   30.0395   33.8077  103.1748 C   0  0  0  0  0  0  0  0  0  0  0  0
   20.7045   34.1273  106.3708 C   0  0  0  0  0  0  0  0  0  0  0  0
  5  4  1  0
  6  3  1  0
  8  6  2  0
 10  7  1  0
 10  9  1  0
 11  2  1  0
 12 10  1  0
 14  5  1  0
 15 14  1  0
 16  6  1  0
 18  1  1  0
 18 10  1  0
  9 19  1  1
 19 13  1  0
 20  1  1  0
 20  3  1  0
 21 15  1  0
 22  2  1  0
 22 16  1  0
 22 17  2  3
 23  4  2  3
 23  9  1  0
M  END
>  <ID>  (1) 
conformer_0

$$$$
