
     RDKit          3D

 24 24  0  0  0  0  0  0  0  0999 V2000
   27.4000   34.9387  103.9962 C   0  0  0  0  0  0  0  0  0  0  0  0
   31.3876   33.7860  103.5916 C   0  0  0  0  0  0  0  0  0  0  0  0
   25.1519   34.5528  103.2290 C   0  0  0  0  0  0  0  0  0  0  0  0
   20.8026   34.4176  106.1165 C   0  0  0  0  0  0  0  0  0  0  0  0
   29.6956   34.4336  103.6202 C   0  0  0  0  0  0  0  0  0  0  0  0
   16.8183   36.2763  103.8393 C   0  0  0  0  0  0  0  0  0  0  0  0
   22.7387   33.6654  105.6632 C   0  0  0  0  0  0  0  0  0  0  0  0
   25.8833   34.4579  106.6482 C   0  0  0  0  0  0  0  0  0  0  0  0
   25.5563   34.8397  107.9943 O   0  0  0  0  0  0  0  0  0  0  0  0
   29.5579   36.4171  103.7493 O   0  0  0  0  0  0  0  0  0  0  0  0
   26.6728   33.2839  107.5008 O   0  0  0  0  0  0  0  0  0  0  0  0
   30.3492   32.5137  102.8962 C   0  0  0  0  0  0  0  0  0  0  0  0
   18.0294   37.2075  104.2714 O   0  0  0  0  0  0  0  0  0  0  0  0
   32.1549   34.0071  101.9179 O   0  0  0  0  0  0  0  0  0  0  0  0
   17.7332   34.5134  104.9958 C   0  0  0  0  0  0  0  0  0  0  0  0
   22.9352   32.3619  105.7581 O   0  0  0  0  0  0  0  0  0  0  0  0
   23.0456   34.0909  105.5180 N   0  0  0  0  0  0  0  0  0  0  0  0
   25.3101   34.7051  104.8512 C   0  0  0  0  0  0  0  0  0  0  0  0
   16.9408   35.7488  104.2079 N   0  0  0  0  0  0  0  0  0  0  0  0
   27.8554   34.8080  104.1520 N   0  0  0  0  0  0  0  0  0  0  0  0
   19.8738   33.5167  106.3675 C   0  0  0  0  0  0  0  0  0  0  0  0
   28.2421   34.2250  105.2344 O   0  0  0  0  0  0  0  0  0  0  0  0
   26.3664   35.3819  102.4885 C   0  0  0  0  0  0  0  0  0  0  0  0
   19.3170   34.7379  105.6890 C   0  0  0  0  0  0  0  0  0  0  0  0
  5  2  1  0
  7  4  1  0
  8  7  1  0
  9  8  1  0
 10  5  2  0
 11  8  1  0
 12  2  1  0
 13  6  1  0
 14  2  1  0
 16  7  1  0
 17  7  1  0
 18  3  1  0
 18  8  1  0
 19  6  1  0
 19 15  1  0
 20  1  1  0
 20  5  1  0
 21  4  1  0
 22 20  1  0
 23  1  1  0
 23  3  1  0
 24  4  1  0
 24 15  1  0
 24 21  1  0
M  END
>  <ID>  (1) 
conformer_0

$$$$
