
     RDKit          3D

 22 21  0  0  0  0  0  0  0  0999 V2000
   31.7758   34.1184  104.4070 C   0  0  0  0  0  0  0  0  0  0  0  0
   24.9679   34.4781  103.3675 C   0  0  0  0  0  0  0  0  0  0  0  0
   27.9237   34.2642  103.5508 C   0  0  1  0  0  0  0  0  0  0  0  0
   16.4118   36.5169  103.5675 C   0  0  0  0  0  0  0  0  0  0  0  0
   20.0958   34.4296  106.1470 C   0  0  0  0  0  0  0  0  0  0  0  0
   30.7674   33.2742  102.7154 C   0  0  0  0  0  0  0  0  0  0  0  0
   19.0123   34.1896  105.4462 C   0  0  0  0  0  0  0  0  0  0  0  0
   25.0964   34.6229  108.1972 O   0  0  0  0  0  0  0  0  0  0  0  0
   17.1804   34.8693  104.4528 C   0  0  0  0  0  0  0  0  0  0  0  0
   27.2909   33.3656  107.5376 O   0  0  0  0  0  0  0  0  0  0  0  0
   32.1851   34.1661  101.8508 O   0  0  0  0  0  0  0  0  0  0  0  0
   22.9633   34.3047  105.7511 N   0  0  0  0  0  0  0  0  0  0  0  0
   26.0531   34.2350  107.2087 C   0  0  0  0  0  0  0  0  0  0  0  0
   29.6692   36.2374  104.0275 O   0  0  0  0  0  0  0  0  0  0  0  0
   23.0196   32.4884  106.0818 O   0  0  0  0  0  0  0  0  0  0  0  0
   26.2647   34.6630  105.1033 C   0  0  0  0  0  0  0  0  0  0  0  0
   26.0917   34.6965  102.6708 C   0  0  0  0  0  0  0  0  0  0  0  0
   29.2273   34.1946  103.5722 N   0  0  0  0  0  0  0  0  0  0  0  0
   27.6633   35.0862  104.7650 O   0  0  0  0  0  0  0  0  0  0  0  0
   24.2631   34.0586  105.4342 C   0  0  0  0  0  0  0  0  0  0  0  0
   21.5456   33.5711  106.1809 C   0  0  0  0  0  0  0  0  0  0  0  0
   30.0880   34.6195  103.6548 C   0  0  2  0  0  0  0  0  0  0  0  0
  7  5  1  0
  9  4  1  0
  9  7  1  0
 11  6  1  0
 13  8  2  0
 13 10  1  0
 16 13  1  0
 17  2  2  3
 17  3  1  0
  3 18  1  6
 19  3  1  0
 19 16  1  0
 20 12  1  0
 20 16  1  0
 21  5  1  0
 21 12  1  0
 21 15  2  0
 22  1  1  1
 22  6  1  0
 22 14  1  0
 22 18  1  0
M  END
>  <ID>  (1) 
conformer_0

$$$$
