
     RDKit          3D

 22 21  0  0  0  0  0  0  0  0999 V2000
   26.4582   34.9712  102.6298 C   0  0  0  0  0  0  0  0  0  0  0  0
   26.5445   34.8668  104.9761 C   0  0  0  0  0  0  0  0  0  0  0  0
   19.4504   33.9754  105.8275 C   0  0  0  0  0  0  0  0  0  0  0  0
   30.9655   33.7216  103.4158 C   0  0  0  0  0  0  0  0  0  0  0  0
   17.1029   36.2961  104.3273 C   0  0  0  0  0  0  0  0  0  0  0  0
   28.0541   34.6352  103.8575 C   0  0  0  0  0  0  0  0  0  0  0  0
   31.0802   33.0454  103.0714 C   0  0  0  0  0  0  0  0  0  0  0  0
   22.0361   33.8404  106.1300 C   0  0  0  0  0  0  0  0  0  0  0  0
   23.4245   34.2631  105.6609 N   0  0  0  0  0  0  0  0  0  0  0  0
   27.0680   33.3546  107.4346 O   0  0  0  0  0  0  0  0  0  0  0  0
   29.6672   36.6098  103.9028 O   0  0  0  0  0  0  0  0  0  0  0  0
   25.0683   34.5643  107.9894 O   0  0  0  0  0  0  0  0  0  0  0  0
   22.5420   32.5304  106.0612 O   0  0  0  0  0  0  0  0  0  0  0  0
   17.8486   35.0751  104.9137 N   0  0  0  0  0  0  0  0  0  0  0  0
   25.4204   34.4082  103.2819 C   0  0  0  0  0  0  0  0  0  0  0  0
   25.9859   34.2794  107.0034 C   0  0  0  0  0  0  0  0  0  0  0  0
   19.1904   34.4701  105.5771 C   0  0  0  0  0  0  0  0  0  0  0  0
   28.8000   34.5848  104.0253 N   0  0  0  0  0  0  0  0  0  0  0  0
   24.7025   34.1595  105.3164 C   0  0  0  0  0  0  0  0  0  0  0  0
   21.1973   34.8065  106.1023 C   0  0  0  0  0  0  0  0  0  0  0  0
   17.2629   34.4423  104.7769 C   0  0  0  0  0  0  0  0  0  0  0  0
   30.1020   35.1659  104.0447 C   0  0  0  0  0  0  0  0  0  0  0  0
  6  1  1  0
  6  2  1  0
  7  4  3  0
  9  8  1  0
 13  8  2  0
 14  5  1  0
 15  1  1  0
 16 10  1  0
 16 12  1  0
 17  3  1  0
 17 14  1  0
 18  6  1  0
 19  2  1  0
 19  9  1  0
 19 16  1  0
 20  3  1  0
 20  8  1  0
 21 14  1  0
 22  4  1  0
 22 11  1  0
 22 18  1  0
M  END
>  <ID>  (1) 
conformer_0

$$$$
