
     RDKit          3D

 26 26  0  0  0  0  0  0  0  0999 V2000
   25.9984   35.1782  102.4915 C   0  0  0  0  0  0  0  0  0  0  0  0
   27.4114   34.8484  103.7548 C   0  0  2  0  0  0  0  0  0  0  0  0
   31.6331   34.3329  104.3223 C   0  0  0  0  0  0  0  0  0  0  0  0
   19.1363   33.9083  106.3153 C   0  0  0  0  0  0  0  0  0  0  0  0
   30.4558   32.7131  102.9243 C   0  0  0  0  0  0  0  0  0  0  0  0
   17.3910   36.1130  104.4775 C   0  0  0  0  0  0  0  0  0  0  0  0
   30.4340   33.7391  102.9288 C   0  0  0  0  0  0  0  0  0  0  0  0
   21.4475   33.4798  106.4222 C   0  0  1  0  0  0  0  0  0  0  0  0
   29.7135   36.5978  104.0121 O   0  0  0  0  0  0  0  0  0  0  0  0
   25.4227   34.7778  107.8950 O   0  0  0  0  0  0  0  0  0  0  0  0
   26.9785   33.4484  107.4786 O   0  0  0  0  0  0  0  0  0  0  0  0
   25.9700   35.0828  104.7868 C   0  0  0  0  0  0  0  0  0  0  0  0
   22.9165   34.1927  105.4988 N   0  0  0  0  0  0  0  0  0  0  0  0
   17.5856   34.8210  104.8832 N   0  0  0  0  0  0  0  0  0  0  0  0
   28.9033   34.6799  103.6701 N   0  0  0  0  0  0  0  0  0  0  0  0
   25.9529   34.3726  106.9733 C   0  0  0  0  0  0  0  0  0  0  0  0
   22.5262   32.4746  106.4898 O   0  0  0  0  0  0  0  0  0  0  0  0
   18.8122   34.0985  105.6672 C   0  0  0  0  0  0  0  0  0  0  0  0
   32.2190   34.1444  101.7902 O   0  0  0  0  0  0  0  0  0  0  0  0
   17.1529   37.0412  103.8436 N   0  0  0  0  0  0  0  0  0  0  0  0
   24.8920   34.4226  103.3566 C   0  0  1  0  0  0  0  0  0  0  0  0
   24.1106   34.0445  105.1949 C   0  0  0  0  0  0  0  0  0  0  0  0
   20.8658   34.6881  106.5075 C   0  0  0  0  0  0  0  0  0  0  0  0
   27.6631   34.5072  105.0641 O   0  0  0  0  0  0  0  0  0  0  0  0
   29.3931   35.3651  103.8544 C   0  0  0  0  0  0  0  0  0  0  0  0
   16.9190   34.3425  104.0752 C   0  0  0  0  0  0  0  0  0  0  0  0
  2  1  1  0
  7  3  1  0
  7  5  1  0
 12  2  1  0
 13  8  1  0
 14  6  1  0
 15  2  1  0
 15  7  1  0
 16 10  1  0
 16 11  1  0
  8 17  1  1
 18  4  1  0
 18 14  1  0
 19  7  1  0
 20  6  1  0
 21  1  1  6
 21 12  1  0
 22 13  2  3
 22 16  1  0
 22 21  1  0
 23  4  1  0
 23  8  1  0
  2 24  1  6
 25  9  1  0
 25 15  1  0
 26 14  1  0
M  END
>  <ID>  (1) 
conformer_0

$$$$
