
     RDKit          3D

 20 19  0  0  0  0  0  0  0  0999 V2000
   25.1601   34.6686  103.1744 C   0  0  0  0  0  0  0  0  0  0  0  0
   27.0366   34.8613  104.1982 C   0  0  0  0  0  0  0  0  0  0  0  0
   31.2210   33.9011  103.4292 C   0  0  0  0  0  0  0  0  0  0  0  0
   29.2769   34.5924  103.5328 C   0  0  0  0  0  0  0  0  0  0  0  0
   16.9651   35.5203  104.2043 C   0  0  0  0  0  0  0  0  0  0  0  0
   20.0401   34.2864  106.1896 C   0  0  0  0  0  0  0  0  0  0  0  0
   26.6200   33.4075  107.6021 O   0  0  0  0  0  0  0  0  0  0  0  0
   22.0854   33.9863  106.2638 C   0  0  0  0  0  0  0  0  0  0  0  0
   29.2203   36.4209  103.7302 O   0  0  0  0  0  0  0  0  0  0  0  0
   30.6526   32.6747  102.9854 C   0  0  0  0  0  0  0  0  0  0  0  0
   25.2663   34.1665  106.9627 C   0  0  0  0  0  0  0  0  0  0  0  0
   23.8900   32.6224  106.2523 O   0  0  0  0  0  0  0  0  0  0  0  0
   22.9175   34.2802  105.8321 N   0  0  0  0  0  0  0  0  0  0  0  0
   18.3099   34.3187  105.5451 C   0  0  0  0  0  0  0  0  0  0  0  0
   26.0884   35.1295  102.4559 C   0  0  0  0  0  0  0  0  0  0  0  0
   24.7597   34.4788  108.3523 O   0  0  0  0  0  0  0  0  0  0  0  0
   32.2404   34.0200  101.9211 O   0  0  0  0  0  0  0  0  0  0  0  0
   25.0180   34.4414  105.2646 C   0  0  0  0  0  0  0  0  0  0  0  0
   27.6607   34.3574  104.9374 O   0  0  0  0  0  0  0  0  0  0  0  0
   28.9084   34.4947  103.5947 N   0  0  0  0  0  0  0  0  0  0  0  0
  4  3  1  0
  8  6  2  0
  9  4  2  0
 10  3  1  0
 11  7  1  0
 12 11  1  0
 13  8  1  0
 13 12  1  0
 14  5  1  0
 14  6  2  0
 15  1  1  0
 15  2  1  0
 16 11  1  0
 17  3  1  0
 18  1  1  0
 18 11  1  0
 19  2  1  0
 20  4  1  0
 20 19  1  0
M  END
>  <ID>  (1) 
conformer_0

$$$$
