
     RDKit          3D

 26 25  0  0  0  0  0  0  0  0999 V2000
   24.9726   34.3227  103.5486 C   0  0  0  0  0  0  0  0  0  0  0  0
   24.3563   34.0527  105.7949 C   0  0  2  0  0  0  0  0  0  0  0  0
   20.5042   34.2761  106.3217 C   0  0  0  0  0  0  0  0  0  0  0  0
   31.6582   33.8413  103.8590 C   0  0  0  0  0  0  0  0  0  0  0  0
   17.2592   36.1091  104.3401 C   0  0  0  0  0  0  0  0  0  0  0  0
   25.9421   34.9812  105.0951 C   0  0  0  0  0  0  0  0  0  0  0  0
   26.9755   33.4333  107.4245 O   0  0  0  0  0  0  0  0  0  0  0  0
   22.8460   34.0739  105.6935 N   0  0  0  0  0  0  0  0  0  0  0  0
   24.8871   34.4847  107.9959 O   0  0  0  0  0  0  0  0  0  0  0  0
   28.9638   36.4247  104.1602 O   0  0  0  0  0  0  0  0  0  0  0  0
   21.6901   33.3608  106.3152 C   0  0  0  0  0  0  0  0  0  0  0  0
   17.3798   36.9658  104.4402 O   0  0  0  0  0  0  0  0  0  0  0  0
   25.8375   34.2314  107.1568 C   0  0  0  0  0  0  0  0  0  0  0  0
   22.2503   32.3591  106.6029 O   0  0  0  0  0  0  0  0  0  0  0  0
   30.2720   32.7704  102.8080 C   0  0  0  0  0  0  0  0  0  0  0  0
   17.3963   34.8109  104.5734 N   0  0  0  0  0  0  0  0  0  0  0  0
   28.7553   34.5302  103.7150 N   0  0  0  0  0  0  0  0  0  0  0  0
   32.1209   33.9095  101.9485 O   0  0  0  0  0  0  0  0  0  0  0  0
   26.0615   35.1091  102.8078 C   0  0  0  0  0  0  0  0  0  0  0  0
   18.5537   34.0711  105.1774 C   0  0  0  0  0  0  0  0  0  0  0  0
   29.4604   33.5070  103.1281 C   0  0  0  0  0  0  0  0  0  0  0  0
   27.4863   35.0664  103.7613 C   0  0  0  0  0  0  0  0  0  0  0  0
   19.3065   34.4667  105.5065 C   0  0  0  0  0  0  0  0  0  0  0  0
   31.8405   34.0802  104.5577 C   0  0  0  0  0  0  0  0  0  0  0  0
   16.5967   34.3505  103.7759 C   0  0  0  0  0  0  0  0  0  0  0  0
   30.0578   35.2704  104.0884 C   0  0  0  0  0  0  0  0  0  0  0  0
  6  1  1  0
  2  6  1  6
  8  2  1  0
 11  3  1  0
 11  8  1  0
 12  5  1  0
 13  2  1  0
 13  7  1  0
 13  9  1  0
 14 11  2  0
 15  4  1  0
 16  5  1  0
 18  4  1  0
 19  1  1  0
 20 16  1  0
 21 15  1  0
 21 17  1  0
 22 17  1  0
 22 19  1  0
 23  3  1  0
 23 20  2  3
 24  4  2  3
 25 16  1  0
 26 10  1  0
 26 17  1  0
M  END
>  <ID>  (1) 
conformer_0

$$$$
