
     RDKit          3D

 25 24  0  0  0  0  0  0  0  0999 V2000
   19.7516   34.2206  106.1109 C   0  0  0  0  0  0  0  0  0  0  0  0
   25.1247   34.3643  103.3788 C   0  0  0  0  0  0  0  0  0  0  0  0
   31.5211   34.0546  104.1219 C   0  0  0  0  0  0  0  0  0  0  0  0
   26.8660   34.6948  104.2754 C   0  0  0  0  0  0  0  0  0  0  0  0
   17.3461   35.8611  104.3098 C   0  0  0  0  0  0  0  0  0  0  0  0
   30.2687   33.7540  103.1112 C   0  0  0  0  0  0  0  0  0  0  0  0
   25.1647   34.7107  108.1770 O   0  0  0  0  0  0  0  0  0  0  0  0
   27.0429   33.6434  107.5114 O   0  0  0  0  0  0  0  0  0  0  0  0
   31.9258   34.2048  102.0769 O   0  0  0  0  0  0  0  0  0  0  0  0
   29.9619   36.5340  103.8445 O   0  0  0  0  0  0  0  0  0  0  0  0
   25.5875   34.3295  107.0251 C   0  0  0  0  0  0  0  0  0  0  0  0
   22.7675   32.7991  106.4152 O   0  0  0  0  0  0  0  0  0  0  0  0
   22.3549   33.8206  106.2924 C   0  0  0  0  0  0  0  0  0  0  0  0
   30.4084   32.1943  102.9348 C   0  0  0  0  0  0  0  0  0  0  0  0
   17.6842   34.0733  105.4498 N   0  0  0  0  0  0  0  0  0  0  0  0
   26.5110   35.3981  102.6490 C   0  0  0  0  0  0  0  0  0  0  0  0
   23.6065   34.6333  105.7852 N   0  0  0  0  0  0  0  0  0  0  0  0
   18.5339   34.1083  105.7333 C   0  0  0  0  0  0  0  0  0  0  0  0
   29.9557   34.3621  103.5732 N   0  0  0  0  0  0  0  0  0  0  0  0
   21.1363   34.6148  106.2766 C   0  0  0  0  0  0  0  0  0  0  0  0
   25.0136   34.6399  105.1615 C   0  0  0  0  0  0  0  0  0  0  0  0
   16.6259   36.8521  103.1259 C   0  0  0  0  0  0  0  0  0  0  0  0
   16.7750   34.0595  104.2673 C   0  0  0  0  0  0  0  0  0  0  0  0
   28.9802   34.9713  103.6356 C   0  0  0  0  0  0  0  0  0  0  0  0
   27.7394   34.6746  104.1584 N   0  0  0  0  0  0  0  0  0  0  0  0
  6  3  1  0
  9  6  1  0
 11  7  2  0
 11  8  1  0
 13 12  2  0
 14  6  1  0
 16  2  1  0
 16  4  1  0
 17 13  1  0
 18  1  3  0
 18 15  1  0
 19  6  1  0
 20  1  1  0
 20 13  1  0
 21  2  1  0
 21 11  1  0
 21 17  2  3
 22  5  1  0
 23  5  1  0
 23 15  1  0
 24 10  2  0
 24 19  1  0
 25  4  1  0
 25 24  1  0
M  END
>  <ID>  (1) 
conformer_0

$$$$
