
     RDKit          3D

 27 28  0  0  0  0  0  0  0  0999 V2000
   25.0217   34.1777  103.4855 C   0  0  0  0  0  0  0  0  0  0  0  0
   31.2392   34.5057  104.3238 C   0  0  0  0  0  0  0  0  0  0  0  0
   18.9280   34.4960  105.4776 C   0  0  0  0  0  0  0  0  0  0  0  0
   25.3846   34.6039  105.4605 C   0  0  0  0  0  0  0  0  0  0  0  0
   31.4132   33.4555  102.9209 C   0  0  0  0  0  0  0  0  0  0  0  0
   19.7139   33.5852  106.5766 C   0  0  0  0  0  0  0  0  0  0  0  0
   23.9206   33.5871  105.5703 C   0  0  0  0  0  0  0  0  0  0  0  0
   26.8675   33.4355  107.5063 O   0  0  0  0  0  0  0  0  0  0  0  0
   32.2253   33.9292  101.9699 O   0  0  0  0  0  0  0  0  0  0  0  0
   25.2215   34.7070  107.9550 O   0  0  0  0  0  0  0  0  0  0  0  0
   29.7045   36.4378  103.9283 O   0  0  0  0  0  0  0  0  0  0  0  0
   22.0662   33.4496  106.5965 C   0  0  0  0  0  0  0  0  0  0  0  0
   29.9615   32.6095  103.0047 C   0  0  0  0  0  0  0  0  0  0  0  0
   22.4534   33.9139  105.6608 N   0  0  0  0  0  0  0  0  0  0  0  0
   26.5572   35.2967  105.5235 O   0  0  0  0  0  0  0  0  0  0  0  0
   23.5928   32.7006  106.6450 O   0  0  0  0  0  0  0  0  0  0  0  0
   25.5904   34.0105  107.3431 C   0  0  0  0  0  0  0  0  0  0  0  0
   18.1488   36.3359  104.1861 O   0  0  0  0  0  0  0  0  0  0  0  0
   17.8255   33.5792  106.7681 N   0  0  0  0  0  0  0  0  0  0  0  0
   28.7401   34.7779  103.6609 N   0  0  0  0  0  0  0  0  0  0  0  0
   26.0472   35.1181  102.8082 C   0  0  0  0  0  0  0  0  0  0  0  0
   17.3959   36.2263  104.2773 C   0  0  0  0  0  0  0  0  0  0  0  0
   26.7011   34.9914  104.0832 C   0  0  0  0  0  0  0  0  0  0  0  0
   28.5721   35.7593  103.8046 C   0  0  0  0  0  0  0  0  0  0  0  0
   20.2954   34.5008  106.0327 C   0  0  0  0  0  0  0  0  0  0  0  0
   29.3526   33.9379  103.2790 C   0  0  0  0  0  0  0  0  0  0  0  0
   17.7012   34.3727  104.9136 C   0  0  0  0  0  0  0  0  0  0  0  0
  5  2  1  0
  6  3  1  0
  7  4  1  0
  9  5  1  0
 13  5  1  0
 14  7  1  0
 14 12  1  0
 15  4  1  0
 16  7  1  0
 16 12  1  0
 17  4  1  0
 17  8  1  0
 17 10  1  0
 19  6  1  0
 21  1  1  0
 22 18  1  0
 23  1  1  0
 23 15  1  0
 24 11  2  0
 24 20  1  0
 24 21  1  0
 25  3  1  0
 25  6  1  0
 25 12  1  0
 26 13  1  0
 26 20  1  0
 27  3  1  0
 27 22  1  0
M  END
>  <ID>  (1) 
conformer_0

$$$$
