
     RDKit          3D

 24 24  0  0  0  0  0  0  0  0999 V2000
   30.4156   33.7830  103.0538 C   0  0  0  0  0  0  0  0  0  0  0  0
   27.3282   34.9137  103.5948 C   0  0  0  0  0  0  0  0  0  0  0  0
   24.9021   34.4097  103.6205 C   0  0  0  0  0  0  0  0  0  0  0  0
   19.1484   33.8550  105.9608 C   0  0  0  0  0  0  0  0  0  0  0  0
   29.2251   35.0797  104.0341 C   0  0  0  0  0  0  0  0  0  0  0  0
   17.3021   34.3455  104.5949 C   0  0  0  0  0  0  0  0  0  0  0  0
   31.9585   34.1353  102.1660 O   0  0  0  0  0  0  0  0  0  0  0  0
   26.7298   33.3351  107.5252 O   0  0  0  0  0  0  0  0  0  0  0  0
   25.4190   34.6016  107.9280 O   0  0  0  0  0  0  0  0  0  0  0  0
   24.7266   34.4199  105.3997 C   0  0  0  0  0  0  0  0  0  0  0  0
   26.5100   35.0384  105.3236 C   0  0  0  0  0  0  0  0  0  0  0  0
   28.2077   34.8029  103.9270 N   0  0  0  0  0  0  0  0  0  0  0  0
   17.6930   34.7419  104.7287 N   0  0  0  0  0  0  0  0  0  0  0  0
   30.2241   32.6724  103.0018 C   0  0  0  0  0  0  0  0  0  0  0  0
   19.1004   32.9531  107.9683 N   0  0  0  0  0  0  0  0  0  0  0  0
   17.5817   36.2934  104.5421 C   0  0  0  0  0  0  0  0  0  0  0  0
   22.7308   34.2028  106.0135 N   0  0  0  0  0  0  0  0  0  0  0  0
   23.5953   32.8730  106.2576 O   0  0  0  0  0  0  0  0  0  0  0  0
   22.1553   33.6497  106.3397 C   0  0  0  0  0  0  0  0  0  0  0  0
   25.8022   35.1359  102.6283 C   0  0  0  0  0  0  0  0  0  0  0  0
   25.5562   34.2224  107.1231 C   0  0  0  0  0  0  0  0  0  0  0  0
   19.1738   33.8865  105.9767 C   0  0  0  0  0  0  0  0  0  0  0  0
   20.7727   34.1502  106.0412 C   0  0  0  0  0  0  0  0  0  0  0  0
   31.3642   34.1723  104.2065 C   0  0  0  0  0  0  0  0  0  0  0  0
  5  1  1  0
  7  1  1  0
 10  3  1  0
 11  2  1  0
 11 10  1  0
 12  2  1  0
 12  5  1  0
 13  4  1  0
 13  6  1  0
 14  1  1  0
 16 13  1  0
 19 17  1  0
 19 18  1  0
 20  2  1  0
 20  3  1  0
 21  8  1  0
 21  9  1  0
 21 10  1  0
 21 19  1  0
 22  4  1  0
 22 15  1  0
 23 19  1  0
 23 22  1  0
 24  1  1  0
M  END
>  <ID>  (1) 
conformer_0

$$$$
