
     RDKit          3D

 21 20  0  0  0  0  0  0  0  0999 V2000
   26.2672   34.8411  104.4969 C   0  0  0  0  0  0  0  0  0  0  0  0
   25.0413   34.4031  103.2463 C   0  0  0  0  0  0  0  0  0  0  0  0
   30.3594   32.6978  103.0253 C   0  0  0  0  0  0  0  0  0  0  0  0
   30.8987   34.0412  103.3597 C   0  0  0  0  0  0  0  0  0  0  0  0
   20.9126   34.7271  105.8866 C   0  0  0  0  0  0  0  0  0  0  0  0
   18.2944   33.9569  105.2611 C   0  0  0  0  0  0  0  0  0  0  0  0
   28.7831   35.0843  103.7612 C   0  0  0  0  0  0  0  0  0  0  0  0
   25.1910   34.6473  108.1401 O   0  0  0  0  0  0  0  0  0  0  0  0
   26.8252   33.3289  107.4219 O   0  0  0  0  0  0  0  0  0  0  0  0
   29.2625   36.5380  103.9391 O   0  0  0  0  0  0  0  0  0  0  0  0
   17.5023   35.8847  104.5828 C   0  0  0  0  0  0  0  0  0  0  0  0
   23.4388   32.7825  106.1966 O   0  0  0  0  0  0  0  0  0  0  0  0
   17.7681   37.0945  104.9469 O   0  0  0  0  0  0  0  0  0  0  0  0
   25.7761   34.3731  106.5881 C   0  0  0  0  0  0  0  0  0  0  0  0
   18.0607   34.6344  105.1712 N   0  0  0  0  0  0  0  0  0  0  0  0
   24.1473   34.0665  105.6333 C   0  0  0  0  0  0  0  0  0  0  0  0
   18.5563   33.1484  106.3884 C   0  0  0  0  0  0  0  0  0  0  0  0
   32.0970   33.9608  101.8865 O   0  0  0  0  0  0  0  0  0  0  0  0
   20.7117   33.9256  106.4284 C   0  0  0  0  0  0  0  0  0  0  0  0
   26.2335   35.1996  102.4117 C   0  0  0  0  0  0  0  0  0  0  0  0
   23.0147   34.3074  105.8361 N   0  0  0  0  0  0  0  0  0  0  0  0
  2  1  1  0
  4  3  1  0
  7  4  1  0
 10  7  1  0
 13 11  1  0
 14  1  1  0
 14  8  1  0
 14  9  1  0
 15  6  1  0
 15 11  1  0
 16  5  1  0
 16 12  1  0
 16 14  1  0
 17  6  1  0
 18  4  1  0
 19  5  1  0
 19 17  1  0
 20  2  1  0
 20  7  1  0
 21 16  1  0
M  END
>  <ID>  (1) 
conformer_0

$$$$
