
     RDKit          3D

 28 29  0  0  0  0  0  0  0  0999 V2000
   24.6966   34.5460  103.6005 C   0  0  0  0  0  0  0  0  0  0  0  0
   19.0157   34.0855  105.8239 C   0  0  0  0  0  0  0  0  0  0  0  0
   25.9077   34.8461  104.8221 C   0  0  0  0  0  0  0  0  0  0  0  0
   31.6627   34.2005  103.9741 C   0  0  0  0  0  0  0  0  0  0  0  0
   18.4696   33.7588  105.0395 C   0  0  0  0  0  0  0  0  0  0  0  0
   27.6748   34.6545  103.6866 C   0  0  0  0  0  0  0  0  0  0  0  0
   21.6309   33.8718  106.6667 C   0  0  0  0  0  0  0  0  0  0  0  0
   30.0923   32.5104  102.6732 C   0  0  0  0  0  0  0  0  0  0  0  0
   22.9325   34.4079  105.7977 N   0  0  0  0  0  0  0  0  0  0  0  0
   26.5537   33.4594  107.3585 O   0  0  0  0  0  0  0  0  0  0  0  0
   16.8932   35.1983  104.6238 N   0  0  0  0  0  0  0  0  0  0  0  0
   21.8375   32.6493  106.8565 O   0  0  0  0  0  0  0  0  0  0  0  0
   25.0016   34.6862  107.8092 O   0  0  0  0  0  0  0  0  0  0  0  0
   25.7834   34.0102  103.0284 C   0  0  0  0  0  0  0  0  0  0  0  0
   29.5269   36.3382  103.9031 O   0  0  0  0  0  0  0  0  0  0  0  0
   23.8890   34.4046  105.7834 C   0  0  0  0  0  0  0  0  0  0  0  0
   30.0105   34.4600  103.3064 N   0  0  0  0  0  0  0  0  0  0  0  0
   25.9306   34.4884  106.6336 C   0  0  0  0  0  0  0  0  0  0  0  0
   17.6546   35.9778  104.7910 C   0  0  0  0  0  0  0  0  0  0  0  0
   17.9778   36.8791  104.8667 O   0  0  0  0  0  0  0  0  0  0  0  0
   27.9808   34.6923  105.2114 O   0  0  0  0  0  0  0  0  0  0  0  0
   20.3752   34.3129  106.2777 C   0  0  0  0  0  0  0  0  0  0  0  0
   16.4271   34.3085  104.3124 C   0  0  0  0  0  0  0  0  0  0  0  0
   30.2848   33.6368  102.8668 C   0  0  0  0  0  0  0  0  0  0  0  0
   27.4948   34.8004  104.0905 N   0  0  0  0  0  0  0  0  0  0  0  0
   29.4851   35.5074  103.7356 C   0  0  0  0  0  0  0  0  0  0  0  0
   26.4788   35.3980  102.4055 C   0  0  0  0  0  0  0  0  0  0  0  0
   31.8468   33.1504  103.6806 C   0  0  0  0  0  0  0  0  0  0  0  0
  3  1  1  0
  5  2  1  0
  9  7  1  0
 12  7  1  0
 14  1  1  0
 16  9  1  0
 17  4  1  0
 18  3  1  0
 18 10  1  0
 18 13  1  0
 18 16  1  0
 19 11  2  0
 20 19  2  0
 22  2  1  0
 22  7  1  0
 23  5  1  0
 23 11  1  0
 24  8  1  0
 24 17  1  0
 25  3  1  0
 25  6  1  0
 25 21  1  0
 26  6  1  0
 26 15  2  0
 26 17  1  0
 27  6  1  0
 27 14  1  0
 28  4  1  0
 28 24  1  0
M  END
>  <ID>  (1) 
conformer_0

$$$$
