
     RDKit          3D

 25 24  0  0  0  0  0  0  0  0999 V2000
   24.9388   34.2835  105.1285 C   0  0  0  0  0  0  0  0  0  0  0  0
   24.9481   34.1337  103.5547 C   0  0  0  0  0  0  0  0  0  0  0  0
   31.6534   34.3419  104.4219 C   0  0  0  0  0  0  0  0  0  0  0  0
   19.8257   34.3896  106.2313 C   0  0  0  0  0  0  0  0  0  0  0  0
   17.3835   36.3284  104.3946 C   0  0  0  0  0  0  0  0  0  0  0  0
   28.1646   34.0155  103.2006 C   0  0  0  0  0  0  0  0  0  0  0  0
   20.7923   33.3118  106.6636 C   0  0  0  0  0  0  0  0  0  0  0  0
   29.6617   36.3806  103.9672 O   0  0  0  0  0  0  0  0  0  0  0  0
   30.4761   32.6249  103.0196 C   0  0  0  0  0  0  0  0  0  0  0  0
   21.8938   32.1675  106.6186 O   0  0  0  0  0  0  0  0  0  0  0  0
   24.7985   34.5780  108.1467 O   0  0  0  0  0  0  0  0  0  0  0  0
   26.2147   33.2814  107.5166 O   0  0  0  0  0  0  0  0  0  0  0  0
   22.9193   34.0044  105.9347 N   0  0  0  0  0  0  0  0  0  0  0  0
   32.1086   34.2395  101.9204 O   0  0  0  0  0  0  0  0  0  0  0  0
   25.5303   34.3321  107.0294 C   0  0  0  0  0  0  0  0  0  0  0  0
   18.2791   34.0581  105.6474 C   0  0  0  0  0  0  0  0  0  0  0  0
   28.7017   34.4649  103.6613 N   0  0  0  0  0  0  0  0  0  0  0  0
   16.8963   36.7207  104.3440 O   0  0  0  0  0  0  0  0  0  0  0  0
   23.0877   33.6393  106.3884 C   0  0  0  0  0  0  0  0  0  0  0  0
   27.4488   35.2133  104.9252 O   0  0  0  0  0  0  0  0  0  0  0  0
   30.8446   33.6252  102.8519 C   0  0  0  0  0  0  0  0  0  0  0  0
   26.0891   34.9448  102.7607 C   0  0  0  0  0  0  0  0  0  0  0  0
   16.7218   34.4624  104.0294 C   0  0  0  0  0  0  0  0  0  0  0  0
   29.5467   35.3250  103.9134 C   0  0  0  0  0  0  0  0  0  0  0  0
   26.6269   35.0104  104.3244 C   0  0  0  0  0  0  0  0  0  0  0  0
  2  1  1  0
  7  4  1  0
 10  7  1  0
 13  1  1  0
 15  1  1  0
 15 11  1  0
 15 12  1  0
 16  4  1  0
 17  6  1  0
 18  5  1  0
 19 10  1  0
 19 13  1  0
 20 17  1  0
 21  3  1  0
 21  9  1  0
 21 14  1  0
 22  2  1  0
 23  5  1  0
 23 16  1  0
 24  3  1  0
 24  8  2  0
 24 17  1  0
 25 20  1  0
 25 22  1  0
M  END
>  <ID>  (1) 
conformer_0

$$$$
