
     RDKit          3D

 23 22  0  0  0  0  0  0  0  0999 V2000
   25.8425   34.8829  102.7363 C   0  0  0  0  0  0  0  0  0  0  0  0
   26.6341   34.9378  104.7402 C   0  0  0  0  0  0  0  0  0  0  0  0
   31.1425   33.5918  103.0095 C   0  0  0  0  0  0  0  0  0  0  0  0
   19.7154   34.3211  106.3445 C   0  0  0  0  0  0  0  0  0  0  0  0
   28.3271   34.6213  103.6988 C   0  0  2  0  0  0  0  0  0  0  0  0
   30.2941   32.5130  102.9500 C   0  0  0  0  0  0  0  0  0  0  0  0
   19.0874   34.4869  105.7013 C   0  0  0  0  0  0  0  0  0  0  0  0
   28.9153   36.3260  104.0568 O   0  0  0  0  0  0  0  0  0  0  0  0
   25.5926   34.8403  108.0260 O   0  0  0  0  0  0  0  0  0  0  0  0
   21.8862   33.7636  106.3293 C   0  0  2  0  0  0  0  0  0  0  0  0
   26.6225   33.3303  107.5057 O   0  0  0  0  0  0  0  0  0  0  0  0
   22.5376   32.6405  106.2424 O   0  0  0  0  0  0  0  0  0  0  0  0
   22.7571   34.4126  105.7253 N   0  0  0  0  0  0  0  0  0  0  0  0
   25.9657   34.4199  106.7731 C   0  0  0  0  0  0  0  0  0  0  0  0
   18.0315   36.8755  104.6129 O   0  0  0  0  0  0  0  0  0  0  0  0
   32.2335   34.0716  101.9296 O   0  0  0  0  0  0  0  0  0  0  0  0
   17.3686   36.1990  104.2906 C   0  0  0  0  0  0  0  0  0  0  0  0
   24.9346   34.4520  103.4505 C   0  0  0  0  0  0  0  0  0  0  0  0
   24.8210   34.2471  105.5074 C   0  0  2  0  0  0  0  0  0  0  0  0
   17.5593   34.8360  104.9038 N   0  0  0  0  0  0  0  0  0  0  0  0
   28.1471   34.3732  104.0815 N   0  0  0  0  0  0  0  0  0  0  0  0
   16.9077   34.2353  104.9160 C   0  0  0  0  0  0  0  0  0  0  0  0
   30.5511   34.5731  104.1630 C   0  0  0  0  0  0  0  0  0  0  0  0
  6  3  2  3
  7  4  1  0
  5  8  1  1
 10  4  1  0
 12 10  1  0
 10 13  1  6
 14  9  1  0
 14 11  1  0
 16  3  1  0
 17 15  1  0
 18  1  2  3
 19  2  1  1
 19 10  1  0
 19 14  1  0
 19 18  1  0
 20  7  1  0
 20 17  1  0
 21  2  1  0
 21  5  1  0
 22 20  1  0
 23  3  1  0
 23  5  1  0
M  END
>  <ID>  (1) 
conformer_0

$$$$
