
     RDKit          3D

 26 26  0  0  0  0  0  0  0  0999 V2000
   26.6982   34.9025  102.6713 C   0  0  0  0  0  0  0  0  0  0  0  0
   25.3783   34.2106  107.3261 C   0  0  0  0  0  0  0  0  0  0  0  0
   19.6508   34.2563  106.1888 C   0  0  0  0  0  0  0  0  0  0  0  0
   31.5070   34.2864  104.2175 C   0  0  0  0  0  0  0  0  0  0  0  0
   26.7784   34.8243  104.1724 C   0  0  0  0  0  0  0  0  0  0  0  0
   18.8183   34.1868  105.8364 C   0  0  0  0  0  0  0  0  0  0  0  0
   29.7082   36.4668  103.8916 O   0  0  0  0  0  0  0  0  0  0  0  0
   25.3115   34.3324  105.4846 C   0  0  0  0  0  0  0  0  0  0  0  0
   22.6034   33.7594  106.6722 C   0  0  0  0  0  0  0  0  0  0  0  0
   29.5518   32.8765  102.7582 C   0  0  0  0  0  0  0  0  0  0  0  0
   26.5919   33.5044  107.6112 O   0  0  0  0  0  0  0  0  0  0  0  0
   24.6205   34.4301  108.4704 O   0  0  0  0  0  0  0  0  0  0  0  0
   23.0284   32.7652  106.3570 O   0  0  0  0  0  0  0  0  0  0  0  0
   17.2188   36.2815  103.9201 C   0  0  0  0  0  0  0  0  0  0  0  0
   23.6519   34.4964  106.0436 N   0  0  0  0  0  0  0  0  0  0  0  0
   32.2063   34.0075  101.9521 O   0  0  0  0  0  0  0  0  0  0  0  0
   17.7538   34.6534  104.9067 N   0  0  0  0  0  0  0  0  0  0  0  0
   28.9296   34.5624  103.8318 N   0  0  0  0  0  0  0  0  0  0  0  0
   21.2193   34.5361  106.5031 C   0  0  0  0  0  0  0  0  0  0  0  0
   18.1173   36.5518  104.4477 O   0  0  0  0  0  0  0  0  0  0  0  0
   25.3298   34.6950  103.0322 C   0  0  0  0  0  0  0  0  0  0  0  0
   16.7755   36.4101  103.2169 N   0  0  0  0  0  0  0  0  0  0  0  0
   28.8160   35.1219  103.7631 C   0  0  0  0  0  0  0  0  0  0  0  0
   30.5725   33.6955  103.0955 C   0  0  0  0  0  0  0  0  0  0  0  0
   17.1687   34.2934  104.3033 C   0  0  0  0  0  0  0  0  0  0  0  0
   27.1731   34.6601  105.1665 O   0  0  0  0  0  0  0  0  0  0  0  0
  5  1  1  0
  6  3  2  0
  8  2  1  0
 11  2  1  0
 12  2  2  0
 13  9  1  0
 15  8  1  0
 15  9  1  0
 17  6  1  0
 19  3  2  0
 19  9  1  0
 20 14  2  0
 21  1  1  0
 21  5  1  0
 22 14  1  0
 23  1  1  0
 23  7  2  0
 23 18  1  0
 24  4  1  0
 24 10  1  0
 24 16  1  0
 24 18  1  0
 25 14  1  0
 25 17  1  0
 26  5  1  0
 26  8  1  0
M  END
>  <ID>  (1) 
conformer_0

$$$$
