
     RDKit          3D

 21 20  0  0  0  0  0  0  0  0999 V2000
   25.1904   34.7563  103.4434 C   0  0  0  0  0  0  0  0  0  0  0  0
   28.0168   35.2369  103.8082 C   0  0  0  0  0  0  0  0  0  0  0  0
   31.5560   33.9222  103.7962 C   0  0  0  0  0  0  0  0  0  0  0  0
   29.8780   34.2113  103.3078 C   0  0  0  0  0  0  0  0  0  0  0  0
   18.9520   33.0759  106.4518 C   0  0  0  0  0  0  0  0  0  0  0  0
   17.8974   33.9948  105.4152 C   0  0  0  0  0  0  0  0  0  0  0  0
   30.0772   32.6000  102.9534 C   0  0  0  0  0  0  0  0  0  0  0  0
   25.1496   34.6407  108.1937 O   0  0  0  0  0  0  0  0  0  0  0  0
   32.2290   34.0317  101.7873 O   0  0  0  0  0  0  0  0  0  0  0  0
   26.8910   33.6448  107.3672 O   0  0  0  0  0  0  0  0  0  0  0  0
   20.9189   33.8013  106.0402 C   0  0  0  0  0  0  0  0  0  0  0  0
   29.5828   36.4613  103.9690 O   0  0  0  0  0  0  0  0  0  0  0  0
   23.0690   32.6948  105.9474 O   0  0  0  0  0  0  0  0  0  0  0  0
   26.0517   34.8970  104.7529 C   0  0  0  0  0  0  0  0  0  0  0  0
   22.5818   34.3949  105.8362 N   0  0  0  0  0  0  0  0  0  0  0  0
   25.5147   34.2758  107.0335 C   0  0  0  0  0  0  0  0  0  0  0  0
   28.8820   34.6465  103.6799 N   0  0  0  0  0  0  0  0  0  0  0  0
   17.3816   35.7140  104.6997 C   0  0  0  0  0  0  0  0  0  0  0  0
   26.5479   34.9520  102.6889 C   0  0  0  0  0  0  0  0  0  0  0  0
   23.9066   34.0516  105.5171 C   0  0  0  0  0  0  0  0  0  0  0  0
   20.0823   34.4918  106.2356 C   0  0  0  0  0  0  0  0  0  0  0  0
  4  3  1  0
  6  5  1  0
  7  4  1  0
  9  3  1  0
 12  2  1  0
 14  1  1  0
 15 11  1  0
 16  8  1  0
 16 10  1  0
 16 14  1  0
 17  2  1  0
 17  4  1  0
 18  6  1  0
 19  1  1  0
 19  2  1  0
 20 13  1  0
 20 15  1  0
 20 16  1  0
 21  5  1  0
 21 11  1  0
M  END
>  <ID>  (1) 
conformer_0

$$$$
