
     RDKit          3D

 24 23  0  0  0  0  0  0  0  0999 V2000
   26.9520   34.6214  104.0987 C   0  0  0  0  0  0  0  0  0  0  0  0
   25.0617   34.3183  103.3246 C   0  0  0  0  0  0  0  0  0  0  0  0
   31.3792   33.8697  103.9329 C   0  0  0  0  0  0  0  0  0  0  0  0
   19.4593   34.6356  105.3373 C   0  0  0  0  0  0  0  0  0  0  0  0
   17.0598   35.6530  104.2875 C   0  0  0  0  0  0  0  0  0  0  0  0
   30.2654   33.4566  103.1042 C   0  0  0  0  0  0  0  0  0  0  0  0
   25.7868   34.3119  107.1338 C   0  0  0  0  0  0  0  0  0  0  0  0
   31.8717   33.9952  102.0671 O   0  0  0  0  0  0  0  0  0  0  0  0
   26.2820   34.8396  105.7548 C   0  0  0  0  0  0  0  0  0  0  0  0
   29.7986   36.2833  103.9048 O   0  0  0  0  0  0  0  0  0  0  0  0
   23.0267   32.6354  105.7730 O   0  0  0  0  0  0  0  0  0  0  0  0
   21.7466   33.8474  106.0816 C   0  0  0  0  0  0  0  0  0  0  0  0
   27.1389   33.5418  107.3930 O   0  0  0  0  0  0  0  0  0  0  0  0
   22.7554   34.4118  105.4601 N   0  0  0  0  0  0  0  0  0  0  0  0
   24.9193   34.8231  107.8905 O   0  0  0  0  0  0  0  0  0  0  0  0
   17.3932   36.8484  104.2453 O   0  0  0  0  0  0  0  0  0  0  0  0
   28.5228   34.4134  103.9271 N   0  0  0  0  0  0  0  0  0  0  0  0
   26.2696   35.1014  102.6533 C   0  0  0  0  0  0  0  0  0  0  0  0
   31.9529   34.2223  105.0692 O   0  0  0  0  0  0  0  0  0  0  0  0
   17.6684   34.7476  105.3940 N   0  0  0  0  0  0  0  0  0  0  0  0
   18.4394   34.5504  105.1873 C   0  0  0  0  0  0  0  0  0  0  0  0
   24.3764   34.1680  105.0291 C   0  0  0  0  0  0  0  0  0  0  0  0
   20.5931   34.5188  106.2494 C   0  0  0  0  0  0  0  0  0  0  0  0
   29.0267   34.6601  103.8768 C   0  0  0  0  0  0  0  0  0  0  0  0
  6  3  1  0
  8  3  1  0
  9  1  1  0
  9  7  1  0
 12 11  2  0
 13  7  1  0
 14 12  1  0
 15  7  2  0
 16  5  2  0
 17  1  1  0
 18  1  1  0
 18  2  1  0
 19  3  1  0
 20  5  1  0
 21  4  1  0
 21 20  1  0
 22  2  1  0
 22 14  1  0
 23  4  1  0
 23 12  1  0
 24  6  1  0
 24 10  2  0
 24 17  1  0
M  END
>  <ID>  (1) 
conformer_0

$$$$
