
     RDKit          3D

 24 24  0  0  0  0  0  0  0  0999 V2000
   25.2775   34.3624  103.2597 C   0  0  1  0  0  0  0  0  0  0  0  0
   26.6291   34.8748  104.2498 C   0  0  1  0  0  0  0  0  0  0  0  0
   30.8388   33.7411  102.8998 C   0  0  0  0  0  0  0  0  0  0  0  0
   20.3906   34.4994  106.0701 C   0  0  0  0  0  0  0  0  0  0  0  0
   28.7403   34.8326  103.5228 C   0  0  1  0  0  0  0  0  0  0  0  0
   18.5094   34.0895  105.5871 C   0  0  2  0  0  0  0  0  0  0  0  0
   25.2736   34.5878  108.1728 O   0  0  0  0  0  0  0  0  0  0  0  0
   27.1705   33.4512  107.4605 O   0  0  0  0  0  0  0  0  0  0  0  0
   30.3817   32.7100  102.9868 C   0  0  0  0  0  0  0  0  0  0  0  0
   32.2937   34.1535  101.8543 O   0  0  0  0  0  0  0  0  0  0  0  0
   25.9122   34.3670  106.9497 C   0  0  0  0  0  0  0  0  0  0  0  0
   29.4805   36.2903  104.0461 O   0  0  0  0  0  0  0  0  0  0  0  0
   24.5271   34.3659  105.5391 C   0  0  0  0  0  0  0  0  0  0  0  0
   22.7573   32.6244  106.3805 O   0  0  0  0  0  0  0  0  0  0  0  0
   17.2113   35.8334  104.4260 C   0  0  0  0  0  0  0  0  0  0  0  0
   22.8816   34.3878  105.7037 N   0  0  0  0  0  0  0  0  0  0  0  0
   26.1704   35.0955  102.5871 C   0  0  0  0  0  0  0  0  0  0  0  0
   16.4101   34.9469  103.9492 O   0  0  0  0  0  0  0  0  0  0  0  0
   21.7610   33.8445  106.1723 C   0  0  0  0  0  0  0  0  0  0  0  0
   17.8842   34.5773  105.2656 N   0  0  0  0  0  0  0  0  0  0  0  0
   28.9069   34.5120  103.6771 N   0  0  0  0  0  0  0  0  0  0  0  0
   27.2138   35.3685  104.8540 O   0  0  0  0  0  0  0  0  0  0  0  0
   18.8527   33.3236  106.8344 C   0  0  0  0  0  0  0  0  0  0  0  0
   31.4106   34.2522  104.3441 C   0  0  0  0  0  0  0  0  0  0  0  0
  2  1  1  0
  6  4  1  0
  9  3  1  0
 10  3  1  0
 11  7  2  0
 11  8  1  0
  5 12  1  1
 13  1  1  0
 13 11  1  0
 16 13  2  3
  1 17  1  6
 17  2  1  0
 18 15  1  0
 19  4  1  0
 19 14  2  0
 19 16  1  0
 20  6  1  0
 20 15  1  0
 21  3  1  0
 21  5  1  0
  2 22  1  1
 22  5  1  0
  6 23  1  1
 24  3  1  0
M  END
>  <ID>  (1) 
conformer_0

$$$$
