
     RDKit          3D

 22 21  0  0  0  0  0  0  0  0999 V2000
   27.0564   34.8987  104.0510 C   0  0  0  0  0  0  0  0  0  0  0  0
   26.0480   35.3396  102.5700 C   0  0  0  0  0  0  0  0  0  0  0  0
   19.8929   34.2808  105.9017 C   0  0  0  0  0  0  0  0  0  0  0  0
   31.2259   34.0639  103.6940 C   0  0  0  0  0  0  0  0  0  0  0  0
   29.4374   34.8926  103.6995 C   0  0  0  0  0  0  0  0  0  0  0  0
   18.1436   34.4253  104.9643 C   0  0  0  0  0  0  0  0  0  0  0  0
   26.9726   33.3384  107.4624 O   0  0  0  0  0  0  0  0  0  0  0  0
   25.3383   34.7269  108.0393 O   0  0  0  0  0  0  0  0  0  0  0  0
   22.2297   33.5882  106.1030 C   0  0  0  0  0  0  0  0  0  0  0  0
   25.8200   34.3891  106.5563 C   0  0  0  0  0  0  0  0  0  0  0  0
   29.3430   36.6652  103.8370 O   0  0  0  0  0  0  0  0  0  0  0  0
   30.8463   32.7170  103.2102 C   0  0  0  0  0  0  0  0  0  0  0  0
   22.7317   34.1112  105.6961 N   0  0  0  0  0  0  0  0  0  0  0  0
   22.9573   32.3268  106.1492 O   0  0  0  0  0  0  0  0  0  0  0  0
   32.0546   34.1190  101.9215 O   0  0  0  0  0  0  0  0  0  0  0  0
   29.0592   34.6434  103.8320 N   0  0  0  0  0  0  0  0  0  0  0  0
   25.0564   34.3649  103.4918 C   0  0  0  0  0  0  0  0  0  0  0  0
   24.8734   34.3904  105.2085 C   0  0  0  0  0  0  0  0  0  0  0  0
   27.2076   34.8754  105.0770 O   0  0  0  0  0  0  0  0  0  0  0  0
   16.9243   37.1085  103.7620 N   0  0  0  0  0  0  0  0  0  0  0  0
   16.8123   35.7450  104.0215 C   0  0  0  0  0  0  0  0  0  0  0  0
   17.5098   34.3661  104.4316 N   0  0  0  0  0  0  0  0  0  0  0  0
  2  1  1  0
  5  4  1  0
  6  3  1  0
  9  3  1  0
 10  7  1  0
 10  8  2  0
 11  5  2  0
 12  4  1  0
 13  9  1  0
 14  9  1  0
 15  4  1  0
 16  1  1  0
 16  5  1  0
 17  2  1  0
 18  9  1  0
 18 10  1  0
 18 17  1  0
 19  1  2  0
 21 20  1  0
 22  6  1  0
 22 21  1  0
M  END
>  <ID>  (1) 
conformer_0

$$$$
