
     RDKit          3D

 23 22  0  0  0  0  0  0  0  0999 V2000
   25.1231   34.4229  103.6531 C   0  0  0  0  0  0  0  0  0  0  0  0
   20.2005   34.0959  106.4658 C   0  0  0  0  0  0  0  0  0  0  0  0
   24.1948   33.9449  105.7917 C   0  0  0  0  0  0  0  0  0  0  0  0
   30.9868   33.4536  102.8758 C   0  0  2  0  0  0  0  0  0  0  0  0
   17.0785   36.2603  104.2497 C   0  0  0  0  0  0  0  0  0  0  0  0
   30.6970   34.7984  103.8116 C   0  0  1  0  0  0  0  0  0  0  0  0
   29.7920   36.4854  103.6997 O   0  0  0  0  0  0  0  0  0  0  0  0
   21.6542   33.4591  106.3616 C   0  0  0  0  0  0  0  0  0  0  0  0
   22.6264   34.1955  105.7840 N   0  0  0  0  0  0  0  0  0  0  0  0
   32.3256   33.8601  101.9034 O   0  0  0  0  0  0  0  0  0  0  0  0
   26.8953   33.4697  107.2118 O   0  0  0  0  0  0  0  0  0  0  0  0
   22.5750   32.2336  106.5054 O   0  0  0  0  0  0  0  0  0  0  0  0
   26.0559   35.1924  102.7306 C   0  0  0  0  0  0  0  0  0  0  0  0
   29.9134   32.4980  102.7623 C   0  0  0  0  0  0  0  0  0  0  0  0
   28.4601   34.8568  103.6035 C   0  0  0  0  0  0  0  0  0  0  0  0
   29.0536   34.4994  103.5751 N   0  0  0  0  0  0  0  0  0  0  0  0
   16.5228   35.8266  104.7178 O   0  0  0  0  0  0  0  0  0  0  0  0
   19.1364   34.7416  105.8490 C   0  0  0  0  0  0  0  0  0  0  0  0
   31.8248   33.8756  104.7970 C   0  0  0  0  0  0  0  0  0  0  0  0
   25.8588   34.2312  106.7649 C   0  0  0  0  0  0  0  0  0  0  0  0
   26.4379   34.8001  104.7310 C   0  0  2  0  0  0  0  0  0  0  0  0
   25.5528   35.1031  107.0776 O   0  0  0  0  0  0  0  0  0  0  0  0
   17.8657   34.6576  105.2051 C   0  0  0  0  0  0  0  0  0  0  0  0
  6  4  1  0
  7  6  1  0
  8  2  1  0
  9  3  1  0
  9  8  1  0
 10  4  1  0
 12  8  2  0
 13  1  1  0
  4 14  1  6
 16  6  1  0
 16 15  1  0
 17  5  1  0
 18  2  1  0
  6 19  1  1
 20  3  1  0
 20 11  1  0
 21  1  1  6
 21 15  1  0
 21 20  1  0
 22 20  1  0
 23 17  1  0
 23 18  2  3
M  END
>  <ID>  (1) 
conformer_0

$$$$
