
     RDKit          3D

 21 20  0  0  0  0  0  0  0  0999 V2000
   24.9927   34.1456  103.3547 C   0  0  0  0  0  0  0  0  0  0  0  0
   19.9895   34.2349  105.9644 C   0  0  0  0  0  0  0  0  0  0  0  0
   27.1591   34.7493  104.3514 C   0  0  0  0  0  0  0  0  0  0  0  0
   31.2776   33.9694  103.3326 C   0  0  0  0  0  0  0  0  0  0  0  0
   18.1994   34.6750  105.3296 C   0  0  0  0  0  0  0  0  0  0  0  0
   29.6039   34.5381  103.6984 C   0  0  0  0  0  0  0  0  0  0  0  0
   22.0547   33.7173  106.4210 C   0  0  0  0  0  0  0  0  0  0  0  0
   29.7018   36.2573  103.9398 O   0  0  0  0  0  0  0  0  0  0  0  0
   27.0429   33.5026  107.5618 O   0  0  0  0  0  0  0  0  0  0  0  0
   30.0114   32.7631  102.8262 C   0  0  0  0  0  0  0  0  0  0  0  0
   16.1706   36.7402  103.2617 C   0  0  0  0  0  0  0  0  0  0  0  0
   23.1361   32.6826  106.3187 O   0  0  0  0  0  0  0  0  0  0  0  0
   23.0156   34.3381  105.7759 N   0  0  0  0  0  0  0  0  0  0  0  0
   25.2567   34.5834  108.0967 O   0  0  0  0  0  0  0  0  0  0  0  0
   26.1308   34.3534  106.9069 C   0  0  0  0  0  0  0  0  0  0  0  0
   32.3341   33.9092  101.8689 O   0  0  0  0  0  0  0  0  0  0  0  0
   32.1431   33.7604  104.7491 C   0  0  0  0  0  0  0  0  0  0  0  0
   26.0663   34.9976  102.7913 C   0  0  0  0  0  0  0  0  0  0  0  0
   17.0776   36.1624  104.1938 C   0  0  0  0  0  0  0  0  0  0  0  0
   25.1061   34.2398  105.3823 C   0  0  0  0  0  0  0  0  0  0  0  0
   28.5615   34.3701  103.9089 N   0  0  0  0  0  0  0  0  0  0  0  0
  5  2  1  0
  6  4  1  0
  7  2  1  0
  8  6  2  0
 10  4  1  0
 12  7  1  0
 13 12  1  0
 15  9  1  0
 15 14  1  0
 16  4  1  0
 17  4  1  0
 18  1  1  0
 18  3  1  0
 19  5  1  0
 19 11  1  0
 20  1  1  0
 20  7  1  0
 20 15  1  0
 21  3  1  0
 21  6  1  0
M  END
>  <ID>  (1) 
conformer_0

$$$$
