
     RDKit          3D

 26 26  0  0  0  0  0  0  0  0999 V2000
   26.1147   34.7746  105.5830 C   0  0  0  0  0  0  0  0  0  0  0  0
   24.9413   34.2662  103.6542 C   0  0  0  0  0  0  0  0  0  0  0  0
   31.0492   33.7046  102.8351 C   0  0  0  0  0  0  0  0  0  0  0  0
   26.6044   35.0349  103.9797 C   0  0  0  0  0  0  0  0  0  0  0  0
   20.2375   34.2118  106.2566 C   0  0  0  0  0  0  0  0  0  0  0  0
   19.3279   34.1774  105.9403 C   0  0  0  0  0  0  0  0  0  0  0  0
   21.8795   33.5278  106.2016 C   0  0  0  0  0  0  0  0  0  0  0  0
   26.3521   34.3005  107.2526 C   0  0  0  0  0  0  0  0  0  0  0  0
   30.1823   32.5869  102.8683 C   0  0  0  0  0  0  0  0  0  0  0  0
   25.4419   34.7995  107.8498 O   0  0  0  0  0  0  0  0  0  0  0  0
   27.2269   33.3725  107.4950 O   0  0  0  0  0  0  0  0  0  0  0  0
   22.4068   32.2579  106.1979 O   0  0  0  0  0  0  0  0  0  0  0  0
   29.5493   36.4061  103.9110 O   0  0  0  0  0  0  0  0  0  0  0  0
   22.7701   34.0354  105.5598 N   0  0  0  0  0  0  0  0  0  0  0  0
   17.0683   36.6219  103.9600 N   0  0  0  0  0  0  0  0  0  0  0  0
   27.6322   34.7600  103.8941 N   0  0  0  0  0  0  0  0  0  0  0  0
   24.1503   34.2628  105.2507 C   0  0  0  0  0  0  0  0  0  0  0  0
   17.6377   34.8407  105.0383 N   0  0  0  0  0  0  0  0  0  0  0  0
   17.4173   36.2166  104.5496 C   0  0  0  0  0  0  0  0  0  0  0  0
   25.7033   35.1713  102.4882 C   0  0  0  0  0  0  0  0  0  0  0  0
   32.2206   34.0132  101.8258 O   0  0  0  0  0  0  0  0  0  0  0  0
   31.6749   34.0199  104.4512 C   0  0  0  0  0  0  0  0  0  0  0  0
   29.9803   34.3765  103.5113 N   0  0  0  0  0  0  0  0  0  0  0  0
   29.3591   35.3908  103.8539 C   0  0  0  0  0  0  0  0  0  0  0  0
   17.3991   34.1089  104.5552 C   0  0  0  0  0  0  0  0  0  0  0  0
   28.5468   33.8319  103.4251 C   0  0  0  0  0  0  0  0  0  0  0  0
  4  1  1  0
  4  2  1  0
  6  5  1  0
  7  5  1  0
  8  1  1  0
  9  3  1  0
 10  8  2  0
 11  8  1  0
 12  7  2  0
 14  7  1  0
 16  4  1  0
 17  2  1  0
 17 14  1  0
 18  6  1  0
 19 15  1  0
 19 18  1  0
 20  2  1  0
 20  4  1  0
 21  3  1  0
 22  3  1  0
 23  3  1  0
 24 13  2  0
 24 23  1  0
 25 18  1  0
 26 16  1  0
 26 23  1  0
M  END
>  <ID>  (1) 
conformer_0

$$$$
