
     RDKit          3D

 26 25  0  0  0  0  0  0  0  0999 V2000
   26.0668   35.3328  102.6621 C   0  0  0  0  0  0  0  0  0  0  0  0
   25.9025   34.7676  105.2147 C   0  0  2  0  0  0  0  0  0  0  0  0
   19.3099   34.2069  105.8282 C   0  0  0  0  0  0  0  0  0  0  0  0
   31.6588   33.8021  103.7626 C   0  0  0  0  0  0  0  0  0  0  0  0
   27.1135   34.9030  104.1906 C   0  0  1  0  0  0  0  0  0  0  0  0
   18.6248   34.6192  105.8407 C   0  0  0  0  0  0  0  0  0  0  0  0
   21.7333   33.6767  106.5125 C   0  0  2  0  0  0  0  0  0  0  0  0
   25.5065   34.7053  107.9823 O   0  0  0  0  0  0  0  0  0  0  0  0
   27.1016   33.2715  107.4296 O   0  0  0  0  0  0  0  0  0  0  0  0
   29.7865   32.7502  102.7312 C   0  0  0  0  0  0  0  0  0  0  0  0
   29.5108   36.3851  103.7354 O   0  0  0  0  0  0  0  0  0  0  0  0
   23.0442   34.2904  105.7383 N   0  0  0  0  0  0  0  0  0  0  0  0
   32.2787   33.7638  101.9027 O   0  0  0  0  0  0  0  0  0  0  0  0
   26.1194   34.1811  107.0574 C   0  0  0  0  0  0  0  0  0  0  0  0
   17.4251   34.9972  104.9643 N   0  0  0  0  0  0  0  0  0  0  0  0
   22.6072   32.4981  106.3438 O   0  0  0  0  0  0  0  0  0  0  0  0
   16.5029   36.6019  103.6260 N   0  0  0  0  0  0  0  0  0  0  0  0
   17.9886   37.0875  104.6031 O   0  0  0  0  0  0  0  0  0  0  0  0
   24.2334   34.1303  105.4869 C   0  0  0  0  0  0  0  0  0  0  0  0
   25.0966   34.4203  103.3592 C   0  0  0  0  0  0  0  0  0  0  0  0
   17.2089   36.4204  104.4661 C   0  0  0  0  0  0  0  0  0  0  0  0
   28.1329   34.7511  104.1323 N   0  0  0  0  0  0  0  0  0  0  0  0
   20.6239   34.3670  106.1815 C   0  0  0  0  0  0  0  0  0  0  0  0
   29.0205   35.2684  103.9690 C   0  0  0  0  0  0  0  0  0  0  0  0
   30.3446   33.5485  103.0449 C   0  0  0  0  0  0  0  0  0  0  0  0
   16.9067   34.3422  104.4480 C   0  0  0  0  0  0  0  0  0  0  0  0
  5  1  1  6
  5  2  1  0
  6  3  1  0
 12  7  1  0
 13  4  1  0
 14  2  1  0
 14  8  2  0
 14  9  1  0
 15  6  1  0
  7 16  1  6
  2 19  1  6
 19 12  1  0
 20  1  1  0
 21 15  1  0
 21 17  1  0
 21 18  2  0
 22  5  1  0
 23  3  1  0
 23  7  1  0
 24 11  2  0
 24 22  1  0
 25  4  1  0
 25 10  2  3
 25 24  1  0
 26 15  1  0
M  END
>  <ID>  (1) 
conformer_0

$$$$
