
     RDKit          3D

 23 24  0  0  0  0  0  0  0  0999 V2000
   24.7796   34.1903  103.7585 C   0  0  0  0  0  0  0  0  0  0  0  0
   28.2047   34.7089  103.7083 C   0  0  0  0  0  0  0  0  0  0  0  0
   20.3032   34.3256  106.3895 C   0  0  0  0  0  0  0  0  0  0  0  0
   31.3056   33.6902  103.2449 C   0  0  0  0  0  0  0  0  0  0  0  0
   30.5223   34.8580  103.7897 C   0  0  0  0  0  0  0  0  0  0  0  0
   18.0567   34.3870  105.1344 C   0  0  0  0  0  0  0  0  0  0  0  0
   32.3271   34.0314  101.8896 O   0  0  0  0  0  0  0  0  0  0  0  0
   25.3118   34.5917  108.0459 O   0  0  0  0  0  0  0  0  0  0  0  0
   25.8077   34.4630  106.6487 C   0  0  0  0  0  0  0  0  0  0  0  0
   29.3464   36.4804  103.8136 O   0  0  0  0  0  0  0  0  0  0  0  0
   26.4893   33.3522  107.2222 O   0  0  0  0  0  0  0  0  0  0  0  0
   21.5562   33.6457  106.3218 C   0  0  0  0  0  0  0  0  0  0  0  0
   22.5163   34.2550  105.7817 N   0  0  0  0  0  0  0  0  0  0  0  0
   17.8187   36.8865  104.7141 O   0  0  0  0  0  0  0  0  0  0  0  0
   22.9771   32.5371  105.8371 O   0  0  0  0  0  0  0  0  0  0  0  0
   24.1923   34.0907  105.3174 C   0  0  0  0  0  0  0  0  0  0  0  0
   30.2523   34.5661  103.5563 N   0  0  0  0  0  0  0  0  0  0  0  0
   25.6774   35.0495  102.9232 C   0  0  0  0  0  0  0  0  0  0  0  0
   19.2692   34.2884  105.8299 C   0  0  0  0  0  0  0  0  0  0  0  0
   30.3589   32.7418  103.1798 C   0  0  0  0  0  0  0  0  0  0  0  0
   26.2434   34.8441  104.7807 C   0  0  0  0  0  0  0  0  0  0  0  0
   27.7011   34.7310  104.1042 N   0  0  0  0  0  0  0  0  0  0  0  0
   17.1489   36.0490  104.3343 C   0  0  0  0  0  0  0  0  0  0  0  0
  7  4  1  0
  9  8  2  0
 10  2  1  0
 10  5  1  0
 11  9  1  0
 12  3  1  0
 13 12  1  0
 15 12  2  0
 16  1  1  0
 16 13  1  0
 17  4  1  0
 17  5  1  0
 18  1  1  0
 19  3  2  0
 19  6  2  0
 20  4  1  0
 20 17  1  0
 21  1  1  0
 21  9  1  0
 21 18  1  0
 22  2  1  0
 22 21  1  0
 23  6  1  0
 23 14  1  0
M  END
>  <ID>  (1) 
conformer_0

$$$$
