
     RDKit          3D

 21 20  0  0  0  0  0  0  0  0999 V2000
   19.0533   34.7356  105.3440 C   0  0  0  0  0  0  0  0  0  0  0  0
   25.1943   34.5323  103.5114 C   0  0  0  0  0  0  0  0  0  0  0  0
   24.3260   34.3053  105.7403 C   0  0  0  0  0  0  0  0  0  0  0  0
   28.6771   34.9580  103.8876 C   0  0  0  0  0  0  0  0  0  0  0  0
   30.5756   33.8580  103.0153 C   0  0  0  0  0  0  0  0  0  0  0  0
   17.7905   34.5043  104.9765 C   0  0  0  0  0  0  0  0  0  0  0  0
   21.5862   33.8584  106.3486 C   0  0  0  0  0  0  0  0  0  0  0  0
   25.4582   34.4399  107.4916 O   0  0  0  0  0  0  0  0  0  0  0  0
   28.8377   36.2406  104.0911 O   0  0  0  0  0  0  0  0  0  0  0  0
   30.6294   32.7363  103.0003 C   0  0  0  0  0  0  0  0  0  0  0  0
   21.0565   32.7045  107.2608 O   0  0  0  0  0  0  0  0  0  0  0  0
   16.6267   34.7756  104.5039 O   0  0  0  0  0  0  0  0  0  0  0  0
   19.4150   33.9782  106.2705 C   0  0  0  0  0  0  0  0  0  0  0  0
   23.3615   34.3709  105.6894 N   0  0  0  0  0  0  0  0  0  0  0  0
   29.4235   34.4601  103.7680 N   0  0  0  0  0  0  0  0  0  0  0  0
   26.7469   34.8578  104.0497 C   0  0  0  0  0  0  0  0  0  0  0  0
   25.7637   35.2891  102.3737 C   0  0  0  0  0  0  0  0  0  0  0  0
   31.7002   34.3072  104.4160 C   0  0  0  0  0  0  0  0  0  0  0  0
   26.0734   34.5683  105.9573 C   0  0  0  0  0  0  0  0  0  0  0  0
   17.2313   36.2551  104.1405 C   0  0  0  0  0  0  0  0  0  0  0  0
   21.5257   34.7515  106.2623 C   0  0  0  0  0  0  0  0  0  0  0  0
  6  1  1  0
  9  4  2  0
 10  5  1  0
 11  7  1  0
 12  6  1  0
 13  1  1  0
 13  7  1  0
 14  3  1  0
 15  4  1  0
 15  5  1  0
 16  2  1  0
 16  4  1  0
 17  2  1  0
 18  5  1  0
 19  3  1  0
 19  8  1  0
 19 16  1  0
 20 12  1  0
 21  7  1  0
 21 14  1  0
M  END
>  <ID>  (1) 
conformer_0

$$$$
