
     RDKit          3D

 23 23  0  0  0  0  0  0  0  0999 V2000
   26.3958   34.9743  104.9745 C   0  0  0  0  0  0  0  0  0  0  0  0
   24.9295   34.5072  103.6463 C   0  0  0  0  0  0  0  0  0  0  0  0
   30.1028   34.3107  103.5509 C   0  0  1  0  0  0  0  0  0  0  0  0
   20.2046   34.3191  105.9869 C   0  0  0  0  0  3  0  0  0  0  0  0
   18.8310   34.2972  105.4617 C   0  0  0  0  0  0  0  0  0  0  0  0
   28.0462   34.8622  103.7880 C   0  0  0  0  0  0  0  0  0  0  0  0
   24.9076   34.6416  108.2649 O   0  0  0  0  0  0  0  0  0  0  0  0
   26.6324   33.4133  107.4861 O   0  0  0  0  0  0  0  0  0  0  0  0
   29.5627   36.3091  103.9432 O   0  0  0  0  0  0  0  0  0  0  0  0
   21.9813   33.7682  106.3477 C   0  0  0  0  0  0  0  0  0  0  0  0
   25.5216   34.2701  107.1176 C   0  0  0  0  0  0  0  0  0  0  0  0
   23.0164   34.2342  105.8779 N   0  0  0  0  0  0  0  0  0  0  0  0
   22.4229   32.7848  106.7326 O   0  0  0  0  0  0  0  0  0  0  0  0
   17.6370   34.9187  104.9537 N   0  0  0  0  0  0  0  0  0  0  0  0
   30.1953   32.8672  102.9230 C   0  0  0  0  0  0  0  0  0  0  0  0
   16.9009   36.3243  104.4319 C   0  0  0  0  0  0  0  0  0  0  0  0
   32.2460   34.1282  101.8459 N   0  0  0  0  0  0  0  0  0  0  0  0
   26.3382   34.7490  102.7752 C   0  0  0  0  0  0  0  0  0  0  0  0
   28.8648   34.5599  103.7946 N   0  0  0  0  0  0  0  0  0  0  0  0
   24.6305   34.5829  105.4218 C   0  0  1  0  0  0  0  0  0  0  0  0
   32.4356   33.8549  101.8597 O   0  0  0  0  0  0  0  0  0  0  0  0
   17.0126   34.3580  104.4020 C   0  0  0  0  0  0  0  0  0  0  0  0
   31.5043   33.7532  103.5640 C   0  0  1  0  0  0  0  0  0  0  0  0
  5  4  2  3
 10  4  1  0
 11  7  2  0
 11  8  1  0
 12 10  1  0
 13 10  2  0
 14  5  1  0
 15  3  1  0
 16 14  1  0
 18  2  2  3
 18  6  1  0
  3 19  1  1
 19  6  1  0
 19  9  1  0
 20  1  1  1
 20  2  1  0
 20 11  1  0
 20 12  1  0
 21 17  1  0
 22 14  1  0
 23  3  1  0
 23 15  1  0
 23 17  1  6
M  RAD  1   4   2
M  END
>  <ID>  (1) 
conformer_0

$$$$
