
     RDKit          3D

 20 19  0  0  0  0  0  0  0  0999 V2000
   25.6333   34.9646  102.6938 C   0  0  0  0  0  0  0  0  0  0  0  0
   19.2868   33.7034  106.6505 C   0  0  0  0  0  0  0  0  0  0  0  0
   26.1964   34.5484  106.6569 C   0  0  0  0  0  0  0  0  0  0  0  0
   30.9816   33.8519  103.4406 C   0  0  0  0  0  0  0  0  0  0  0  0
   17.9400   34.5831  104.9846 C   0  0  0  0  0  0  0  0  0  0  0  0
   28.8870   34.4630  103.4114 C   0  0  0  0  0  0  0  0  0  0  0  0
   22.5789   32.4018  106.1579 O   0  0  0  0  0  0  0  0  0  0  0  0
   21.6995   33.5794  106.0791 C   0  0  0  0  0  0  0  0  0  0  0  0
   25.8623   34.8090  107.9288 O   0  0  0  0  0  0  0  0  0  0  0  0
   29.4679   36.1217  103.9560 O   0  0  0  0  0  0  0  0  0  0  0  0
   24.8909   34.3727  103.7367 C   0  0  0  0  0  0  0  0  0  0  0  0
   22.2503   34.3267  105.7987 N   0  0  0  0  0  0  0  0  0  0  0  0
   30.3947   32.7273  102.8948 C   0  0  0  0  0  0  0  0  0  0  0  0
   26.9662   33.3076  107.5233 O   0  0  0  0  0  0  0  0  0  0  0  0
   19.3182   34.5458  105.7549 C   0  0  0  0  0  0  0  0  0  0  0  0
   24.5051   34.2617  105.5802 C   0  0  0  0  0  0  0  0  0  0  0  0
   17.2943   34.9774  104.8790 N   0  0  0  0  0  0  0  0  0  0  0  0
   27.6978   34.8622  105.1925 O   0  0  0  0  0  0  0  0  0  0  0  0
   26.8499   34.9608  104.4031 C   0  0  0  0  0  0  0  0  0  0  0  0
   17.0425   36.0508  104.0844 C   0  0  0  0  0  0  0  0  0  0  0  0
  6  4  1  0
  8  2  1  0
  8  7  1  0
  9  3  1  0
 10  6  1  0
 11  1  1  0
 12  8  1  0
 13  4  1  0
 14  3  1  0
 15  2  1  0
 15  5  1  0
 16  3  1  0
 16  8  1  0
 16 11  1  0
 17  5  1  0
 19  1  1  0
 19  6  1  0
 19 18  1  0
 20 17  1  0
M  END
>  <ID>  (1) 
conformer_0

$$$$
