
     RDKit          3D

 23 22  0  0  0  0  0  0  0  0999 V2000
   19.7351   33.6762  106.5233 C   0  0  0  0  0  0  0  0  0  0  0  0
   24.8710   33.9588  103.6892 C   0  0  0  0  0  0  0  0  0  0  0  0
   31.2366   33.7659  103.3484 C   0  0  0  0  0  0  0  0  0  0  0  0
   26.5218   34.5891  104.5702 C   0  0  0  0  0  0  0  0  0  0  0  0
   17.1449   36.5300  103.9921 C   0  0  0  0  0  0  0  0  0  0  0  0
   30.6765   32.6460  103.0796 C   0  0  0  0  0  0  0  0  0  0  0  0
   30.3746   35.2290  103.8393 C   0  0  0  0  0  0  0  0  0  0  0  0
   27.1397   33.3645  107.5100 O   0  0  0  0  0  0  0  0  0  0  0  0
   21.6947   33.8067  106.3683 C   0  0  0  0  0  0  0  0  0  0  0  0
   22.4824   34.2649  105.5610 N   0  0  0  0  0  0  0  0  0  0  0  0
   29.4205   36.5555  104.0399 O   0  0  0  0  0  0  0  0  0  0  0  0
   25.4139   34.5906  107.7269 O   0  0  0  0  0  0  0  0  0  0  0  0
   26.1542   34.2327  107.0016 C   0  0  0  0  0  0  0  0  0  0  0  0
   23.1058   32.7967  106.3947 O   0  0  0  0  0  0  0  0  0  0  0  0
   19.3688   34.4548  105.7571 C   0  0  0  0  0  0  0  0  0  0  0  0
   32.1571   34.2172  101.8375 O   0  0  0  0  0  0  0  0  0  0  0  0
   24.2960   33.9449  105.3168 C   0  0  0  0  0  0  0  0  0  0  0  0
   28.6701   34.3742  103.8175 N   0  0  0  0  0  0  0  0  0  0  0  0
   26.0039   34.7541  103.1047 C   0  0  0  0  0  0  0  0  0  0  0  0
   27.1383   35.1025  105.2623 O   0  0  0  0  0  0  0  0  0  0  0  0
   18.3119   34.7678  104.9515 C   0  0  0  0  0  0  0  0  0  0  0  0
   16.5199   34.4965  103.4970 C   0  0  0  0  0  0  0  0  0  0  0  0
   28.5070   34.4904  103.6612 C   0  0  0  0  0  0  0  0  0  0  0  0
  6  3  1  0
  7  3  1  0
  9  1  1  0
 10  9  1  0
 11  7  1  0
 13  8  1  0
 13 12  2  0
 14  9  2  0
 15  1  1  0
 16  3  1  0
 17  2  1  0
 17 10  1  0
 18  7  1  0
 19  2  1  0
 19  4  1  0
 20  4  1  0
 20 13  1  0
 21  5  1  0
 21 15  1  0
 22  5  1  0
 23  4  1  0
 23 18  1  0
M  END
>  <ID>  (1) 
conformer_0

$$$$
