
     RDKit          3D

 21 20  0  0  0  0  0  0  0  0999 V2000
   24.9923   34.1415  103.7171 C   0  0  0  0  0  0  0  0  0  0  0  0
   27.3554   34.8973  104.0900 C   0  0  0  0  0  0  0  0  0  0  0  0
   31.1878   33.8557  103.3119 C   0  0  0  0  0  0  0  0  0  0  0  0
   20.4306   34.5599  106.2203 C   0  0  0  0  0  0  0  0  0  0  0  0
   17.0852   35.7544  104.4889 C   0  0  0  0  0  0  0  0  0  0  0  0
   29.5955   34.8401  103.5688 C   0  0  0  0  0  0  0  0  0  0  0  0
   29.8838   32.6533  102.8937 C   0  0  0  0  0  0  0  0  0  0  0  0
   27.2520   33.4368  107.5862 O   0  0  0  0  0  0  0  0  0  0  0  0
   21.8430   33.7544  106.2444 C   0  0  2  0  0  0  0  0  0  0  0  0
   29.2469   36.6301  103.7576 O   0  0  0  0  0  0  0  0  0  0  0  0
   23.1007   34.3162  105.6974 N   0  0  0  0  0  0  0  0  0  0  0  0
   18.4598   34.4582  105.4749 C   0  0  0  0  0  0  0  0  0  0  0  0
   25.9133   34.1104  106.9747 C   0  0  0  0  0  0  0  0  0  0  0  0
   22.4163   32.6595  106.4307 O   0  0  0  0  0  0  0  0  0  0  0  0
   17.6730   34.9099  105.3270 N   0  0  0  0  0  0  0  0  0  0  0  0
   28.3855   34.6106  103.7913 N   0  0  0  0  0  0  0  0  0  0  0  0
   26.0669   34.6086  102.8764 C   0  0  0  0  0  0  0  0  0  0  0  0
   31.3791   35.0035  103.3687 N   0  0  0  0  0  0  0  0  0  0  0  0
   25.4440   34.4432  105.2285 C   0  0  1  0  0  0  0  0  0  0  0  0
   25.1655   34.2987  107.4330 O   0  0  0  0  0  0  0  0  0  0  0  0
   31.7449   33.7443  104.8369 C   0  0  0  0  0  0  0  0  0  0  0  0
  7  3  1  0
  9  4  1  0
 10  6  2  0
  9 11  1  6
 12  4  2  3
 13  8  1  0
 14  9  1  0
 15  5  2  3
 15 12  1  0
 16  2  1  0
 16  6  1  0
 17  1  1  0
 17  2  1  0
 18  3  1  0
 18  6  1  0
 19  1  1  6
 19  9  1  0
 19 13  1  0
 20 13  2  0
 21  3  1  0
M  END
>  <ID>  (1) 
conformer_0

$$$$
