
     RDKit          3D

 25 24  0  0  0  0  0  0  0  0999 V2000
   25.1561   34.3008  103.3318 C   0  0  0  0  0  0  0  0  0  0  0  0
   20.8526   34.5436  106.2132 C   0  0  0  0  0  0  0  0  0  0  0  0
   24.5775   34.0737  105.5368 C   0  0  0  0  0  0  0  0  0  0  0  0
   31.7453   33.9304  103.8790 C   0  0  0  0  0  0  0  0  0  0  0  0
   18.5409   34.3717  105.1090 C   0  0  0  0  0  0  0  0  0  0  0  0
   27.6320   34.7461  103.6929 C   0  0  0  0  0  0  0  0  0  0  0  0
   21.9796   33.8310  106.5024 C   0  0  0  0  0  0  0  0  0  0  0  0
   30.0254   32.6135  102.8821 C   0  0  0  0  0  0  0  0  0  0  0  0
   23.3252   34.3712  105.8074 N   0  0  0  0  0  0  0  0  0  0  0  0
   25.1473   34.4325  108.0093 O   0  0  0  0  0  0  0  0  0  0  0  0
   22.3031   32.6341  106.7152 O   0  0  0  0  0  0  0  0  0  0  0  0
   29.8505   36.7775  103.8465 O   0  0  0  0  0  0  0  0  0  0  0  0
   27.0342   33.5717  107.3289 O   0  0  0  0  0  0  0  0  0  0  0  0
   16.8409   34.1161  103.9932 O   0  0  0  0  0  0  0  0  0  0  0  0
   25.6007   34.1904  107.2193 C   0  0  0  0  0  0  0  0  0  0  0  0
   16.6681   36.2660  104.1256 N   0  0  0  0  0  0  0  0  0  0  0  0
   26.0262   35.0125  102.8027 C   0  0  0  0  0  0  0  0  0  0  0  0
   18.2416   36.9094  104.5923 O   0  0  0  0  0  0  0  0  0  0  0  0
   31.0381   34.8707  104.2235 N   0  0  0  0  0  0  0  0  0  0  0  0
   26.0983   35.0249  105.0342 C   0  0  0  0  0  0  0  0  0  0  0  0
   19.4607   34.3793  105.7651 C   0  0  0  0  0  0  0  0  0  0  0  0
   17.1220   35.6558  104.3604 C   0  0  0  0  0  0  0  0  0  0  0  0
   30.3680   33.6605  102.7869 C   0  0  0  0  0  0  0  0  0  0  0  0
   28.1651   35.7182  104.2376 O   0  0  0  0  0  0  0  0  0  0  0  0
   29.7102   35.4333  103.7272 C   0  0  0  0  0  0  0  0  0  0  0  0
  7  2  1  0
  9  3  1  0
  9  7  1  0
 11  7  2  0
 15  3  1  0
 15 10  2  0
 15 13  1  0
 17  1  1  0
 17  6  1  0
 19  4  1  0
 20  3  1  0
 20  6  1  0
 21  2  2  0
 21  5  2  0
 22  5  1  0
 22 14  1  0
 22 16  1  0
 22 18  1  0
 23  4  1  0
 23  8  1  0
 24  6  1  0
 25 12  1  0
 25 19  1  0
 25 24  1  0
M  END
>  <ID>  (1) 
conformer_0

$$$$
