
     RDKit          3D

 18 17  0  0  0  0  0  0  0  0999 V2000
   25.1322   34.5372  103.5110 C   0  0  0  0  0  0  0  0  0  0  0  0
   24.3961   34.0729  105.7464 C   0  0  0  0  0  0  0  0  0  0  0  0
   31.0698   33.7721  103.4260 C   0  0  0  0  0  0  0  0  0  0  0  0
   19.8342   34.2015  106.0749 C   0  0  0  0  0  0  0  0  0  0  0  0
   17.8257   34.9282  104.6931 C   0  0  0  0  0  0  0  0  0  0  0  0
   29.3401   34.9316  103.7349 C   0  0  0  0  0  0  0  0  0  0  0  0
   26.8371   33.3475  107.5592 O   0  0  0  0  0  0  0  0  0  0  0  0
   25.2714   34.6290  108.0695 O   0  0  0  0  0  0  0  0  0  0  0  0
   21.2780   33.7664  106.6787 C   0  0  0  0  0  0  0  0  0  0  0  0
   25.9293   35.0751  102.7196 C   0  0  0  0  0  0  0  0  0  0  0  0
   22.8202   34.3414  106.1284 N   0  0  0  0  0  0  0  0  0  0  0  0
   29.4053   36.3252  103.9999 O   0  0  0  0  0  0  0  0  0  0  0  0
   23.4284   32.5225  106.5150 O   0  0  0  0  0  0  0  0  0  0  0  0
   30.2734   32.3926  102.9803 C   0  0  0  0  0  0  0  0  0  0  0  0
   26.8442   35.0962  104.4539 C   0  0  0  0  0  0  0  0  0  0  0  0
   29.5641   34.4573  103.6458 N   0  0  0  0  0  0  0  0  0  0  0  0
   25.6811   34.3787  106.7045 C   0  0  0  0  0  0  0  0  0  0  0  0
   17.8342   36.3691  104.6385 O   0  0  0  0  0  0  0  0  0  0  0  0
  2  1  1  0
  5  4  1  0
  9  4  1  0
 10  1  1  0
 11  2  1  0
 11  9  1  0
 12  6  2  0
 13  2  1  0
 14  3  1  0
 15  6  1  0
 15 10  1  0
 16  3  1  0
 16  6  1  0
 17  2  1  0
 17  7  1  0
 17  8  1  0
 18  5  1  0
M  END
>  <ID>  (1) 
conformer_0

$$$$
