
     RDKit          3D

 23 23  0  0  0  0  0  0  0  0999 V2000
   31.5303   33.8273  103.4806 C   0  0  0  0  0  0  0  0  0  0  0  0
   19.0542   33.9586  105.9641 C   0  0  0  0  0  0  0  0  0  0  0  0
   24.9023   34.3214  103.4146 C   0  0  0  0  0  0  0  0  0  0  0  0
   27.2552   34.7185  103.6787 C   0  0  0  0  0  0  0  0  0  0  0  0
   29.3705   35.2175  103.9630 C   0  0  0  0  0  0  0  0  0  0  0  0
   17.9499   34.3338  105.3196 C   0  0  0  0  0  0  0  0  0  0  0  0
   25.7723   34.3087  107.2061 C   0  0  0  0  0  0  0  0  0  0  0  0
   32.0973   34.1326  101.8538 O   0  0  0  0  0  0  0  0  0  0  0  0
   26.8458   33.4894  107.5459 O   0  0  0  0  0  0  0  0  0  0  0  0
   29.6475   36.7169  103.8464 O   0  0  0  0  0  0  0  0  0  0  0  0
   22.5320   32.6745  106.1693 O   0  0  0  0  0  0  0  0  0  0  0  0
   26.1490   34.8538  105.2304 C   0  0  0  0  0  0  0  0  0  0  0  0
   29.4915   34.6052  103.7731 N   0  0  0  0  0  0  0  0  0  0  0  0
   21.8079   33.8608  106.1926 C   0  0  0  0  0  0  0  0  0  0  0  0
   22.7716   34.5138  105.8520 N   0  0  0  0  0  0  0  0  0  0  0  0
   17.5199   36.5728  104.4384 O   0  0  0  0  0  0  0  0  0  0  0  0
   25.2681   34.6162  107.9805 O   0  0  0  0  0  0  0  0  0  0  0  0
   20.3533   34.4094  105.9243 C   0  0  0  0  0  0  0  0  0  0  0  0
   27.0595   34.8089  104.3896 N   0  0  0  0  0  0  0  0  0  0  0  0
   26.0173   35.2603  102.5451 C   0  0  0  0  0  0  0  0  0  0  0  0
   30.0922   33.4684  103.1227 C   0  0  0  0  0  0  0  0  0  0  0  0
   24.3121   34.3092  105.0758 C   0  0  0  0  0  0  0  0  0  0  0  0
   17.0341   35.7637  104.3795 C   0  0  0  0  0  0  0  0  0  0  0  0
  5  4  1  0
  6  2  1  0
  8  1  1  0
  9  7  1  0
 10  5  2  0
 12  7  1  0
 13  5  1  0
 14 11  2  0
 15 14  1  0
 17  7  2  0
 18  2  1  0
 18 14  1  0
 19  4  1  0
 19 12  1  0
 20  3  1  0
 20  4  1  0
 21  1  1  0
 21 13  1  0
 22  3  1  0
 22 12  1  0
 22 15  1  0
 23  6  1  0
 23 16  1  0
M  END
>  <ID>  (1) 
conformer_0

$$$$
