
     RDKit          3D

 23 23  0  0  0  0  0  0  0  0999 V2000
   25.0599   34.5501  103.5304 C   0  0  2  0  0  0  0  0  0  0  0  0
   20.1916   33.6788  106.2192 C   0  0  0  0  0  0  0  0  0  0  0  0
   26.5293   34.9221  104.6692 C   0  0  0  0  0  0  0  0  0  0  0  0
   31.4407   34.0414  103.8351 C   0  0  2  0  0  0  0  0  0  0  0  0
   18.1301   34.7832  105.1285 C   0  0  0  0  0  0  0  0  0  0  0  0
   28.4711   35.2514  103.8469 C   0  0  0  0  0  0  0  0  0  0  0  0
   26.8377   33.2685  107.4527 O   0  0  0  0  0  0  0  0  0  0  0  0
   25.3881   34.7628  107.9457 O   0  0  0  0  0  0  0  0  0  0  0  0
   29.2063   36.6170  103.9692 O   0  0  0  0  0  0  0  0  0  0  0  0
   25.5980   34.1912  106.9472 C   0  0  0  0  0  0  0  0  0  0  0  0
   25.7476   35.0792  102.7777 C   0  0  0  0  0  0  0  0  0  0  0  0
   22.6296   34.3204  105.6336 N   0  0  0  0  0  0  0  0  0  0  0  0
   21.6639   33.8569  106.2093 C   0  0  0  0  0  0  0  0  0  0  0  0
   22.9173   32.6709  106.5024 O   0  0  0  0  0  0  0  0  0  0  0  0
   28.5577   34.6671  103.7896 N   0  0  0  0  0  0  0  0  0  0  0  0
   17.3276   36.8744  104.6862 O   0  0  0  0  0  0  0  0  0  0  0  0
   30.7573   32.7453  103.2111 C   0  0  0  0  0  0  0  0  0  0  0  0
   24.3725   34.2628  105.4794 C   0  0  0  0  0  0  0  0  0  0  0  0
   19.1546   34.5221  105.7430 C   0  0  0  0  0  0  0  0  0  0  0  0
   19.6039   33.1661  107.8293 N   0  0  0  0  0  0  0  0  0  0  0  0
   17.0540   35.9116  104.0873 C   0  0  0  0  0  0  0  0  0  0  0  0
   29.8636   33.7508  103.1532 C   0  0  2  0  0  0  0  0  0  0  0  0
   32.2133   34.1723  102.0874 N   0  0  0  0  0  0  0  0  0  0  0  0
  3  1  1  0
  6  3  1  0
  9  6  2  0
 10  7  1  0
 10  8  2  0
  1 11  1  1
 13  2  1  0
 13 12  1  0
 14 13  2  0
 15  6  1  0
 17  4  1  0
 18  1  1  0
 18 10  1  0
 18 12  2  3
 19  2  2  0
 19  5  2  0
 20  2  1  0
 21  5  1  0
 21 16  1  0
 22  4  1  0
 22 15  1  1
 22 17  1  0
  4 23  1  6
M  END
>  <ID>  (1) 
conformer_0

$$$$
