
     RDKit          3D

 24 23  0  0  0  0  0  0  0  0999 V2000
   26.3542   34.8680  102.6109 C   0  0  0  0  0  0  0  0  0  0  0  0
   25.1158   34.7099  105.0659 C   0  0  0  0  0  0  0  0  0  0  0  0
   30.7846   33.4042  103.0167 C   0  0  2  0  0  0  0  0  0  0  0  0
   18.5280   34.5456  105.2174 C   0  0  0  0  0  0  0  0  0  0  0  0
   27.0141   34.8673  104.1359 C   0  0  0  0  0  0  0  0  0  0  0  0
   20.0619   34.4010  106.2611 C   0  0  0  0  0  0  0  0  0  0  0  0
   27.1137   33.3167  107.4920 O   0  0  0  0  0  0  0  0  0  0  0  0
   20.4888   33.6307  106.6751 C   0  0  0  0  0  0  0  0  0  0  0  0
   29.4844   36.3912  103.8446 O   0  0  0  0  0  0  0  0  0  0  0  0
   25.3292   34.6716  107.6426 O   0  0  0  0  0  0  0  0  0  0  0  0
   16.9510   36.3501  103.8963 C   0  0  0  0  0  0  0  0  0  0  0  0
   22.9143   34.1227  105.9074 C   0  0  0  0  0  0  0  0  0  0  0  0
   22.5704   32.9798  106.4049 O   0  0  0  0  0  0  0  0  0  0  0  0
   22.8348   34.5842  105.7520 N   0  0  0  0  0  0  0  0  0  0  0  0
   31.7597   34.2073  105.4035 C   0  0  0  0  0  0  0  0  0  0  0  0
   25.7636   34.2003  106.7697 C   0  0  0  0  0  0  0  0  0  0  0  0
   29.4331   34.4095  103.5705 N   0  0  0  0  0  0  0  0  0  0  0  0
   17.8332   34.9722  104.6721 N   0  0  0  0  0  0  0  0  0  0  0  0
   16.8722   34.1525  103.9570 C   0  0  0  0  0  0  0  0  0  0  0  0
   27.0945   35.0711  105.2853 O   0  0  0  0  0  0  0  0  0  0  0  0
   25.1468   34.5786  103.3513 C   0  0  0  0  0  0  0  0  0  0  0  0
   30.2790   32.5497  102.9548 C   0  0  0  0  0  0  0  0  0  0  0  0
   28.9111   34.7244  103.5475 C   0  0  0  0  0  0  0  0  0  0  0  0
   31.3412   34.5617  104.2140 C   0  0  0  0  0  0  0  0  0  0  0  0
  5  1  1  0
  6  4  1  0
  8  6  1  0
 12  8  1  0
 13 12  1  0
 14 12  1  0
 16  2  1  0
 16  7  1  0
 16 10  1  0
 16 12  1  0
 17  3  1  0
 18  4  1  0
 18 11  1  0
 19 18  1  0
 20  5  2  0
 21  1  1  0
 21  2  1  0
  3 22  1  1
 23  5  1  0
 23  9  2  0
 23 17  1  0
 24  3  1  0
 24 15  2  3
M  END
>  <ID>  (1) 
conformer_0

$$$$
