
     RDKit          3D

 22 21  0  0  0  0  0  0  0  0999 V2000
   31.5785   33.9706  104.0326 C   0  0  0  0  0  0  0  0  0  0  0  0
   25.0109   34.4149  103.5679 C   0  0  0  0  0  0  0  0  0  0  0  0
   18.9135   33.8461  106.0605 C   0  0  0  0  0  0  0  0  0  0  0  0
   29.2651   34.9333  103.6641 C   0  0  0  0  0  0  0  0  0  0  0  0
   30.6747   33.6368  102.9023 C   0  0  0  0  0  0  0  0  0  0  0  0
   22.5042   33.4136  105.9650 C   0  0  0  0  0  0  0  0  0  0  0  0
   20.0393   33.6603  106.0683 C   0  0  0  0  0  0  0  0  0  0  0  0
   29.4523   36.5478  104.0048 O   0  0  0  0  0  0  0  0  0  0  0  0
   32.2371   34.1393  101.9862 O   0  0  0  0  0  0  0  0  0  0  0  0
   21.8487   32.4850  106.2759 O   0  0  0  0  0  0  0  0  0  0  0  0
   25.1381   34.5722  107.9143 O   0  0  0  0  0  0  0  0  0  0  0  0
   26.6034   33.2785  107.4575 O   0  0  0  0  0  0  0  0  0  0  0  0
   27.3288   34.9506  103.9386 C   0  0  0  0  0  0  0  0  0  0  0  0
   23.3217   34.0206  105.5938 N   0  0  0  0  0  0  0  0  0  0  0  0
   28.3912   34.7080  103.8670 N   0  0  0  0  0  0  0  0  0  0  0  0
   16.9974   36.4658  103.6087 N   0  0  0  0  0  0  0  0  0  0  0  0
   17.5201   36.3274  105.1550 O   0  0  0  0  0  0  0  0  0  0  0  0
   25.5425   34.2718  106.8209 C   0  0  0  0  0  0  0  0  0  0  0  0
   25.9865   35.2646  102.6067 C   0  0  0  0  0  0  0  0  0  0  0  0
   17.7643   35.1973  104.8882 C   0  0  0  0  0  0  0  0  0  0  0  0
   25.4275   34.4596  104.8288 C   0  0  0  0  0  0  0  0  0  0  0  0
   20.5786   34.6083  105.9902 C   0  0  0  0  0  0  0  0  0  0  0  0
  5  1  1  0
  5  4  1  0
  7  3  1  0
  8  4  2  0
  9  5  1  0
 10  6  2  0
 14  6  1  0
 15  4  1  0
 15 13  1  0
 17 16  1  0
 18 11  2  0
 18 12  1  0
 19  2  1  0
 19 13  1  0
 20  3  1  0
 20 17  1  0
 21  2  1  0
 21 14  1  0
 21 18  1  0
 22  6  1  0
 22  7  1  0
M  END
>  <ID>  (1) 
conformer_0

$$$$
