
     RDKit          3D

 16 15  0  0  0  0  0  0  0  0999 V2000
   25.4600   34.6964  103.2029 C   0  0  0  0  0  0  0  0  0  0  0  0
   30.9492   34.1649  103.2114 C   0  0  0  0  0  0  0  0  0  0  0  0
   26.3228   34.6825  104.4898 C   0  0  0  0  0  0  0  0  0  0  0  0
   20.3830   34.2256  106.1147 C   0  0  0  0  0  0  0  0  0  0  0  0
   17.1619   35.5050  104.3291 C   0  0  0  0  0  0  0  0  0  0  0  0
   28.8959   34.7047  103.6174 C   0  0  0  0  0  0  0  0  0  0  0  0
   21.8087   33.9837  106.4208 C   0  0  0  0  0  0  0  0  0  0  0  0
   26.7954   33.4544  107.4404 O   0  0  0  0  0  0  0  0  0  0  0  0
   30.2971   32.8648  102.8589 C   0  0  0  0  0  0  0  0  0  0  0  0
   29.3730   36.3858  103.9265 O   0  0  0  0  0  0  0  0  0  0  0  0
   26.8291   35.2066  105.1558 O   0  0  0  0  0  0  0  0  0  0  0  0
   25.0792   34.5508  108.0057 O   0  0  0  0  0  0  0  0  0  0  0  0
   25.3408   34.3905  106.5645 C   0  0  0  0  0  0  0  0  0  0  0  0
   23.3514   34.5738  105.8857 N   0  0  0  0  0  0  0  0  0  0  0  0
   22.6066   33.1532  106.5615 O   0  0  0  0  0  0  0  0  0  0  0  0
   18.7943   34.6404  105.3773 C   0  0  0  0  0  0  0  0  0  0  0  0
  3  1  1  0
  6  2  1  0
  6  3  1  0
  7  4  1  0
  9  2  1  0
 10  6  1  0
 11  3  1  0
 13  7  1  0
 13  8  1  0
 13 11  1  0
 13 12  1  0
 14  7  1  0
 15  7  1  0
 16  4  3  0
 16  5  1  0
M  END
>  <ID>  (1) 
conformer_0

$$$$
