
     RDKit          3D

 22 21  0  0  0  0  0  0  0  0999 V2000
   24.9564   34.1267  103.6145 C   0  0  0  0  0  0  0  0  0  0  0  0
   30.9320   33.9454  103.3869 C   0  0  0  0  0  0  0  0  0  0  0  0
   27.0857   35.1439  104.3203 C   0  0  0  0  0  0  0  0  0  0  0  0
   16.9689   36.3386  104.0349 C   0  0  0  0  0  0  0  0  0  0  0  0
   29.3985   34.6560  103.6057 C   0  0  0  0  0  0  0  0  0  0  0  0
   31.9894   34.1452  101.9944 O   0  0  0  0  0  0  0  0  0  0  0  0
   20.3895   34.3090  106.2610 C   0  0  0  0  0  0  0  0  0  0  0  0
   26.9617   33.3638  107.5752 O   0  0  0  0  0  0  0  0  0  0  0  0
   18.9295   34.1416  105.6300 C   0  0  0  0  0  0  0  0  0  0  0  0
   25.0968   34.6735  108.0405 O   0  0  0  0  0  0  0  0  0  0  0  0
   24.8481   34.2045  105.5174 C   0  0  1  0  0  0  0  0  0  0  0  0
   22.8201   34.0912  105.6518 N   0  0  0  0  0  0  0  0  0  0  0  0
   26.0353   34.8168  102.8588 C   0  0  0  0  0  0  0  0  0  0  0  0
   28.5155   35.6520  104.5958 O   0  0  0  0  0  0  0  0  0  0  0  0
   21.9817   33.4314  106.2100 C   0  0  2  0  0  0  0  0  0  0  0  0
   23.2211   32.4636  106.2808 O   0  0  0  0  0  0  0  0  0  0  0  0
   26.1713   34.5165  106.7466 C   0  0  0  0  0  0  0  0  0  0  0  0
   29.8866   32.5353  102.8875 C   0  0  0  0  0  0  0  0  0  0  0  0
   28.8218   34.4166  103.5234 N   0  0  0  0  0  0  0  0  0  0  0  0
   18.3559   35.1460  104.9181 N   0  0  0  0  0  0  0  0  0  0  0  0
   16.8206   34.4503  103.9201 C   0  0  0  0  0  0  0  0  0  0  0  0
   32.0032   33.8821  104.6504 C   0  0  0  0  0  0  0  0  0  0  0  0
  5  2  1  0
  6  2  1  0
  9  7  1  0
 11  1  1  6
 13  1  1  0
 13  3  1  0
 14  3  1  0
 14  5  1  0
 15  7  1  0
 15 11  1  0
 15 12  1  6
 16 15  1  0
 17  8  1  0
 17 10  1  0
 17 11  1  0
 18  2  1  0
 19  5  2  3
 20  9  1  0
 21  4  1  0
 21 20  1  0
 22  2  1  0
M  END
>  <ID>  (1) 
conformer_0

$$$$
