
     RDKit          3D

 24 24  0  0  0  0  0  0  0  0999 V2000
   26.1148   35.0990  102.6636 C   0  0  0  0  0  0  0  0  0  0  0  0
   20.5701   34.5437  106.1331 C   0  0  0  0  0  0  0  0  0  0  0  0
   31.3885   34.3362  104.4153 C   0  0  0  0  0  0  0  0  0  0  0  0
   24.7775   34.3100  105.6041 C   0  0  0  0  0  0  0  0  0  0  0  0
   16.9203   36.5523  103.8562 C   0  0  0  0  0  0  0  0  0  0  0  0
   29.0047   34.9044  103.7798 C   0  0  0  0  0  0  0  0  0  0  0  0
   32.0627   34.1558  101.9239 O   0  0  0  0  0  0  0  0  0  0  0  0
   26.8307   33.2963  107.4916 O   0  0  0  0  0  0  0  0  0  0  0  0
   22.1146   33.9109  106.5349 C   0  0  0  0  0  0  0  0  0  0  0  0
   25.6365   34.1662  107.2254 C   0  0  0  0  0  0  0  0  0  0  0  0
   30.0712   32.6633  102.9321 C   0  0  0  0  0  0  0  0  0  0  0  0
   29.1982   36.4934  103.9743 O   0  0  0  0  0  0  0  0  0  0  0  0
   23.0217   34.3322  105.8085 N   0  0  0  0  0  0  0  0  0  0  0  0
   18.5040   34.7294  105.0744 C   0  0  0  0  0  0  0  0  0  0  0  0
   25.0423   34.4450  103.3077 C   0  0  0  0  0  0  0  0  0  0  0  0
   23.1223   32.6276  106.4026 O   0  0  0  0  0  0  0  0  0  0  0  0
   24.7067   34.6962  108.1106 O   0  0  0  0  0  0  0  0  0  0  0  0
   19.5238   33.8408  106.4398 C   0  0  0  0  0  0  0  0  0  0  0  0
   26.6094   34.9840  104.5798 C   0  0  0  0  0  0  0  0  0  0  0  0
   16.7030   34.4004  103.7193 C   0  0  0  0  0  0  0  0  0  0  0  0
   27.2756   35.3676  104.8125 O   0  0  0  0  0  0  0  0  0  0  0  0
   17.9579   34.8854  104.9934 N   0  0  0  0  0  0  0  0  0  0  0  0
   30.8845   33.7529  103.0468 C   0  0  0  0  0  0  0  0  0  0  0  0
   29.5949   34.6335  103.8087 N   0  0  0  0  0  0  0  0  0  0  0  0
  9  2  1  0
 10  4  1  0
 10  8  1  0
 12  6  1  0
 13  4  1  0
 13  9  1  0
 15  1  1  0
 16  9  1  0
 17 10  2  0
 18  2  1  0
 18 14  1  0
 19  1  1  0
 19  4  1  0
 20  5  1  0
 21  6  1  0
 21 19  1  0
 22 14  1  0
 22 20  1  0
 23  3  1  0
 23  7  1  0
 23 11  1  0
 24  3  1  0
 24  6  1  0
 24 23  1  0
M  END
>  <ID>  (1) 
conformer_0

$$$$
