
     RDKit          3D

 22 21  0  0  0  0  0  0  0  0999 V2000
   26.1969   34.7730  103.0279 C   0  0  0  0  0  0  0  0  0  0  0  0
   26.6924   35.2045  104.5272 C   0  0  0  0  0  0  0  0  0  0  0  0
   29.5395   32.7578  102.8213 C   0  0  0  0  0  0  0  0  0  0  0  0
   30.8573   34.0331  103.3946 C   0  0  0  0  0  0  0  0  0  0  0  0
   16.8296   35.5196  104.1102 C   0  0  0  0  0  0  0  0  0  0  0  0
   19.9688   34.5007  106.2484 C   0  0  0  0  0  0  0  0  0  0  0  0
   28.9720   35.1792  103.9398 C   0  0  0  0  0  0  0  0  0  0  0  0
   29.3376   36.4725  103.7971 O   0  0  0  0  0  0  0  0  0  0  0  0
   21.4148   33.5557  106.4994 C   0  0  0  0  0  0  0  0  0  0  0  0
   27.2619   33.2132  107.5427 O   0  0  0  0  0  0  0  0  0  0  0  0
   23.9490   32.6710  106.1820 O   0  0  0  0  0  0  0  0  0  0  0  0
   25.7663   34.6601  107.8269 O   0  0  0  0  0  0  0  0  0  0  0  0
   22.7573   34.1053  105.8267 N   0  0  0  0  0  0  0  0  0  0  0  0
   26.1747   34.1727  106.9660 C   0  0  0  0  0  0  0  0  0  0  0  0
   32.0155   34.0155  101.8718 O   0  0  0  0  0  0  0  0  0  0  0  0
   24.4950   34.0406  105.3831 C   0  0  0  0  0  0  0  0  0  0  0  0
   16.1249   36.3401  103.0980 O   0  0  0  0  0  0  0  0  0  0  0  0
   18.1892   34.5440  105.1959 C   0  0  0  0  0  0  0  0  0  0  0  0
   24.8044   33.9042  103.8473 C   0  0  0  0  0  0  0  0  0  0  0  0
   31.2640   33.4849  103.9292 C   0  0  0  0  0  0  0  0  0  0  0  0
   32.1626   34.2118  101.9614 N   0  0  0  0  0  0  0  0  0  0  0  0
   26.9377   34.6462  105.6618 O   0  0  0  0  0  0  0  0  0  0  0  0
  2  1  1  0
  4  3  1  0
  7  2  1  0
  7  4  1  0
  8  7  1  0
  9  6  1  0
 13  9  1  0
 14 10  1  0
 14 12  1  0
 16 11  1  0
 16 13  1  0
 17  5  1  0
 18  5  1  0
 18  6  1  0
 19  1  1  0
 19 16  1  0
 20  4  1  0
 21  4  1  0
 21 15  1  0
 22  2  1  0
 22 14  1  0
M  END
>  <ID>  (1) 
conformer_0

$$$$
