
     RDKit          3D

 21 21  0  0  0  0  0  0  0  0999 V2000
   27.0593   35.1197  104.2031 C   0  0  2  0  0  0  0  0  0  0  0  0
   30.9311   33.7552  103.1683 C   0  0  2  0  0  0  0  0  0  0  0  0
   26.2291   35.2954  102.4678 C   0  0  0  0  0  0  0  0  0  0  0  0
   19.9278   34.1410  106.0747 C   0  0  0  0  0  0  0  0  0  0  0  0
   17.0127   35.4954  104.3463 C   0  0  0  0  0  0  0  0  0  0  0  0
   29.1971   34.9303  103.6051 C   0  0  0  0  0  0  0  0  0  0  0  0
   25.2254   34.5141  108.1220 O   0  0  0  0  0  0  0  0  0  0  0  0
   27.0785   33.2969  107.5553 O   0  0  0  0  0  0  0  0  0  0  0  0
   21.8603   33.4664  106.2972 C   0  0  0  0  0  0  0  0  0  0  0  0
   29.7856   36.5806  103.7688 O   0  0  0  0  0  0  0  0  0  0  0  0
   16.3527   34.5125  103.9331 O   0  0  0  0  0  0  0  0  0  0  0  0
   25.9969   34.4299  106.7989 C   0  0  0  0  0  0  0  0  0  0  0  0
   32.1756   34.0398  101.9726 O   0  0  0  0  0  0  0  0  0  0  0  0
   30.1987   32.5646  102.7574 C   0  0  0  0  0  0  0  0  0  0  0  0
   28.6586   34.7901  103.7322 N   0  0  0  0  0  0  0  0  0  0  0  0
   23.0486   33.8618  105.8436 N   0  0  0  0  0  0  0  0  0  0  0  0
   24.9152   34.4818  105.2691 C   0  0  0  0  0  0  0  0  0  0  0  0
   24.9784   34.2808  103.5735 C   0  0  0  0  0  0  0  0  0  0  0  0
   16.8303   36.7920  103.7763 N   0  0  0  0  0  0  0  0  0  0  0  0
   18.1884   34.5438  105.5976 C   0  0  0  0  0  0  0  0  0  0  0  0
   28.1593   33.8895  104.7024 O   0  0  0  0  0  0  0  0  0  0  0  0
  1  3  1  6
  6  2  1  0
  9  4  2  0
 10  6  2  0
 11  5  2  0
 12  7  1  0
 12  8  1  0
 13  2  1  0
  2 14  1  6
 15  1  1  0
 15  6  1  0
 16  9  1  0
 17 12  1  0
 17 16  2  3
 18  3  1  0
 18 17  1  0
 19  5  1  0
 20  4  2  0
 20  5  1  0
 21  1  1  0
 21 15  1  0
M  END
>  <ID>  (1) 
conformer_0

$$$$
