
     RDKit          3D

 21 20  0  0  0  0  0  0  0  0999 V2000
   25.0574   34.2725  103.5660 C   0  0  0  0  0  0  0  0  0  0  0  0
   31.1379   33.8848  103.3665 C   0  0  0  0  0  0  0  0  0  0  0  0
   27.0357   34.8988  104.3008 C   0  0  0  0  0  0  0  0  0  0  0  0
   19.8063   34.2320  106.1535 C   0  0  0  0  0  0  0  0  0  0  0  0
   18.2859   34.6358  105.3791 C   0  0  0  0  0  0  0  0  0  0  0  0
   29.8835   32.6881  102.9086 C   0  0  0  0  0  0  0  0  0  0  0  0
   29.3414   34.5195  103.4952 C   0  0  0  0  0  0  0  0  0  0  0  0
   21.5744   33.7582  106.2608 C   0  0  0  0  0  0  0  0  0  0  0  0
   29.4946   36.1689  103.8498 O   0  0  0  0  0  0  0  0  0  0  0  0
   17.6701   36.9136  104.5680 O   0  0  0  0  0  0  0  0  0  0  0  0
   25.5528   34.8589  108.0694 O   0  0  0  0  0  0  0  0  0  0  0  0
   26.9017   33.3938  107.5937 O   0  0  0  0  0  0  0  0  0  0  0  0
   22.6863   34.2076  105.6683 N   0  0  0  0  0  0  0  0  0  0  0  0
   26.1139   34.9028  102.7207 C   0  0  0  0  0  0  0  0  0  0  0  0
   26.0103   34.4253  106.7961 C   0  0  0  0  0  0  0  0  0  0  0  0
   32.1938   33.9346  101.9205 O   0  0  0  0  0  0  0  0  0  0  0  0
   24.5717   34.3595  105.3261 C   0  0  0  0  0  0  0  0  0  0  0  0
   16.9001   35.8088  104.1554 C   0  0  0  0  0  0  0  0  0  0  0  0
   22.7917   32.6386  106.1393 O   0  0  0  0  0  0  0  0  0  0  0  0
   17.3190   34.9657  105.2230 N   0  0  0  0  0  0  0  0  0  0  0  0
   28.5274   34.5539  103.6420 N   0  0  0  0  0  0  0  0  0  0  0  0
  5  4  3  0
  6  2  1  0
  7  2  1  0
  8  4  1  0
  9  7  2  0
 14  1  1  0
 14  3  1  0
 15 11  1  0
 15 12  1  0
 16  2  1  0
 17  1  1  0
 17  8  1  0
 17 15  1  0
 18 10  1  0
 19  8  1  0
 19 13  1  0
 20  5  1  0
 20 18  1  0
 21  3  1  0
 21  7  1  0
M  END
>  <ID>  (1) 
conformer_0

$$$$
