
     RDKit          3D

 25 25  0  0  0  0  0  0  0  0999 V2000
   25.2473   34.2692  103.3969 C   0  0  0  0  0  0  0  0  0  0  0  0
   31.5069   33.8567  103.5417 C   0  0  0  0  0  0  0  0  0  0  0  0
   23.2619   33.9464  106.1754 C   0  0  0  0  0  0  0  0  0  0  0  0
   17.0465   35.2905  104.4877 C   0  0  0  0  0  0  0  0  0  0  0  0
   29.4900   35.4429  103.8679 C   0  0  0  0  0  0  0  0  0  0  0  0
   19.0774   34.2861  105.9889 C   0  0  0  0  0  0  0  0  0  0  0  0
   25.3666   34.7285  108.0585 O   0  0  0  0  0  0  0  0  0  0  0  0
   20.9067   33.9985  106.2563 C   0  0  0  0  0  0  0  0  0  0  0  0
   27.1037   33.3124  107.4747 O   0  0  0  0  0  0  0  0  0  0  0  0
   23.6820   34.4370  105.9610 N   0  0  0  0  0  0  0  0  0  0  0  0
   29.6524   36.4232  103.9271 O   0  0  0  0  0  0  0  0  0  0  0  0
   22.6242   32.6740  105.8530 O   0  0  0  0  0  0  0  0  0  0  0  0
   30.1724   32.4278  102.8637 C   0  0  0  0  0  0  0  0  0  0  0  0
   17.4122   34.8934  105.0669 N   0  0  0  0  0  0  0  0  0  0  0  0
   27.4338   34.7713  103.8316 C   0  0  0  0  0  0  0  0  0  0  0  0
   26.2263   34.8874  102.7728 C   0  0  0  0  0  0  0  0  0  0  0  0
   28.8006   34.5376  103.7740 N   0  0  0  0  0  0  0  0  0  0  0  0
   18.6024   34.4717  105.3358 C   0  0  0  0  0  0  0  0  0  0  0  0
   26.8297   35.0033  105.3452 O   0  0  0  0  0  0  0  0  0  0  0  0
   31.9275   34.3212  102.3188 N   0  0  0  0  0  0  0  0  0  0  0  0
   16.8321   36.4442  103.8659 N   0  0  0  0  0  0  0  0  0  0  0  0
   25.6738   34.0699  107.1832 C   0  0  0  0  0  0  0  0  0  0  0  0
   25.6723   34.5111  105.1411 C   0  0  2  0  0  0  0  0  0  0  0  0
   29.6908   33.6430  103.1238 C   0  0  0  0  0  0  0  0  0  0  0  0
   20.9796   34.4705  106.4835 C   0  0  0  0  0  0  0  0  0  0  0  0
  8  6  1  0
 10  3  1  0
 11  5  2  0
 12  3  1  0
 12  8  1  0
 14  4  1  0
 16  1  1  0
 16 15  1  0
 17  5  1  0
 17 15  1  0
 18  6  2  3
 18 14  1  0
 19 15  1  0
 20  2  1  0
 21  4  1  0
 22  7  2  0
 22  9  1  0
 23  1  1  0
 23 10  1  1
 23 19  1  0
 23 22  1  0
 24  2  1  0
 24 13  2  3
 24 17  1  0
 25  8  2  3
M  END
>  <ID>  (1) 
conformer_0

$$$$
