
     RDKit          3D

 21 20  0  0  0  0  0  0  0  0999 V2000
   20.8721   34.3384  106.0544 C   0  0  0  0  0  0  0  0  0  0  0  0
   25.1028   34.3797  103.4018 C   0  0  0  0  0  0  0  0  0  0  0  0
   25.8726   34.4369  106.7367 C   0  0  0  0  0  0  0  0  0  0  0  0
   31.2432   33.7191  103.4184 C   0  0  0  0  0  0  0  0  0  0  0  0
   17.9251   34.2646  104.8707 C   0  0  0  0  0  0  0  0  0  0  0  0
   29.5064   34.4421  103.5777 C   0  0  0  0  0  0  0  0  0  0  0  0
   25.0879   34.5590  108.0685 O   0  0  0  0  0  0  0  0  0  0  0  0
   26.9376   33.4892  107.3947 O   0  0  0  0  0  0  0  0  0  0  0  0
   27.2758   34.9201  104.1734 C   0  0  0  0  0  0  0  0  0  0  0  0
   29.1633   36.4054  103.9630 O   0  0  0  0  0  0  0  0  0  0  0  0
   32.2642   33.9784  101.8833 O   0  0  0  0  0  0  0  0  0  0  0  0
   25.1794   34.5570  105.2466 C   0  0  0  0  0  0  0  0  0  0  0  0
   22.9848   33.0528  105.9979 O   0  0  0  0  0  0  0  0  0  0  0  0
   26.1618   35.0689  102.6879 C   0  0  0  0  0  0  0  0  0  0  0  0
   22.6685   33.8745  106.0155 C   0  0  0  0  0  0  0  0  0  0  0  0
   19.5175   34.3861  105.8022 C   0  0  0  0  0  0  0  0  0  0  0  0
   30.4225   32.5013  102.9922 C   0  0  0  0  0  0  0  0  0  0  0  0
   29.4604   34.4224  103.6021 N   0  0  0  0  0  0  0  0  0  0  0  0
   17.5077   36.0267  104.5121 C   0  0  0  0  0  0  0  0  0  0  0  0
   23.1592   34.5140  105.6667 N   0  0  0  0  0  0  0  0  0  0  0  0
   27.4025   35.2318  104.7515 O   0  0  0  0  0  0  0  0  0  0  0  0
  6  4  1  0
  7  3  2  0
  8  3  1  0
  9  6  1  0
 10  6  1  0
 11  4  1  0
 12  2  1  0
 12  3  1  0
 14  2  1  0
 14  9  1  0
 15  1  1  0
 15 12  1  0
 15 13  1  0
 16  1  3  0
 16  5  1  0
 17  4  1  0
 18  6  1  0
 19  5  1  0
 20 15  1  0
 21  9  2  0
M  END
>  <ID>  (1) 
conformer_0

$$$$
