
     RDKit          3D

 21 20  0  0  0  0  0  0  0  0999 V2000
   19.6542   34.1665  105.9711 C   0  0  0  0  0  0  0  0  0  0  0  0
   27.3581   34.9872  103.9018 C   0  0  0  0  0  0  0  0  0  0  0  0
   31.1976   33.8355  103.2269 C   0  0  2  0  0  0  0  0  0  0  0  0
   25.3275   34.6887  103.2263 C   0  0  0  0  0  0  0  0  0  0  0  0
   16.8115   33.6574  103.9489 C   0  0  0  0  0  0  0  0  0  0  0  0
   29.4605   34.8224  103.4637 C   0  0  0  0  0  0  0  0  0  0  0  0
   25.3677   34.6803  107.9792 O   0  0  0  0  0  0  0  0  0  0  0  0
   22.3143   33.7973  106.0884 C   0  0  0  0  0  0  0  0  0  0  0  0
   32.2452   34.1718  101.8452 O   0  0  0  0  0  0  0  0  0  0  0  0
   23.3825   34.3600  105.6694 N   0  0  0  0  0  0  0  0  0  0  0  0
   22.4185   32.4979  106.0166 O   0  0  0  0  0  0  0  0  0  0  0  0
   25.7578   34.4077  106.5834 C   0  0  0  0  0  0  0  0  0  0  0  0
   28.8119   36.4292  104.1377 O   0  0  0  0  0  0  0  0  0  0  0  0
   26.9341   33.5753  107.3975 O   0  0  0  0  0  0  0  0  0  0  0  0
   30.3028   32.6237  102.9427 C   0  0  0  0  0  0  0  0  0  0  0  0
   16.3178   34.9190  104.0726 O   0  0  0  0  0  0  0  0  0  0  0  0
   18.7573   34.4708  105.4019 C   0  0  0  0  0  0  0  0  0  0  0  0
   28.3131   34.6412  103.7994 N   0  0  0  0  0  0  0  0  0  0  0  0
   21.1488   34.6121  106.3224 C   0  0  0  0  0  0  0  0  0  0  0  0
   25.4043   34.4769  104.9230 C   0  0  0  0  0  0  0  0  0  0  0  0
   17.1942   35.7128  104.1275 C   0  0  0  0  0  0  0  0  0  0  0  0
  4  2  1  0
  6  3  1  0
  9  3  1  0
 10  8  1  0
 11  8  2  0
 12  7  2  0
 13  6  2  0
 14 12  1  0
  3 15  1  6
 16  5  1  0
 17  1  1  0
 18  2  1  0
 18  6  1  0
 19  1  1  0
 19  8  1  0
 20  4  1  0
 20 10  2  3
 20 12  1  0
 21 16  1  0
 21 17  1  0
M  END
>  <ID>  (1) 
conformer_0

$$$$
