
     RDKit          3D

 25 25  0  0  0  0  0  0  0  0999 V2000
   19.1216   33.9981  106.2796 C   0  0  0  0  0  0  0  0  0  0  0  0
   24.8119   34.2756  103.8581 C   0  0  0  0  0  0  0  0  0  0  0  0
   25.8517   34.3750  106.7211 C   0  0  0  0  0  0  0  0  0  0  0  0
   31.5306   34.3349  104.3589 C   0  0  0  0  0  0  0  0  0  0  0  0
   18.2901   34.3659  105.0890 C   0  0  0  0  0  0  0  0  0  0  0  0
   27.6722   34.5993  103.7014 C   0  0  0  0  0  0  0  0  0  0  0  0
   29.5510   36.5357  103.9323 O   0  0  0  0  0  0  0  0  0  0  0  0
   21.3172   33.5608  106.7548 C   0  0  0  0  0  0  0  0  0  0  0  0
   30.1558   32.7094  102.9033 C   0  0  0  0  0  0  0  0  0  0  0  0
   22.6052   34.2509  105.6851 N   0  0  0  0  0  0  0  0  0  0  0  0
   25.4935   34.5055  107.5267 O   0  0  0  0  0  0  0  0  0  0  0  0
   22.4028   32.6985  106.5723 O   0  0  0  0  0  0  0  0  0  0  0  0
   29.7733   34.4028  103.5497 N   0  0  0  0  0  0  0  0  0  0  0  0
   17.3575   35.0335  104.5482 N   0  0  0  0  0  0  0  0  0  0  0  0
   26.2752   34.6298  102.9300 C   0  0  0  0  0  0  0  0  0  0  0  0
   26.1978   35.1790  104.9208 C   0  0  0  0  0  0  0  0  0  0  0  0
   27.1641   33.3939  107.5047 O   0  0  0  0  0  0  0  0  0  0  0  0
   31.9903   34.2756  102.2152 N   0  0  0  0  0  0  0  0  0  0  0  0
   23.9291   33.8590  105.3263 C   0  0  0  0  0  0  0  0  0  0  0  0
   17.3021   35.9801  104.3463 C   0  0  0  0  0  0  0  0  0  0  0  0
   16.4055   34.0810  104.2196 O   0  0  0  0  0  0  0  0  0  0  0  0
   20.4062   34.4877  106.2989 C   0  0  0  0  0  0  0  0  0  0  0  0
   30.3074   33.5574  102.9401 C   0  0  0  0  0  0  0  0  0  0  0  0
   27.5408   34.8600  104.4117 N   0  0  0  0  0  0  0  0  0  0  0  0
   29.3810   35.3541  104.0687 C   0  0  0  0  0  0  0  0  0  0  0  0
  5  1  1  0
 10  8  1  0
 11  3  2  0
 12  8  1  0
 14  5  1  0
 15  2  1  0
 15  6  1  0
 16  2  1  0
 16  3  1  0
 17  3  1  0
 19  2  1  0
 19 10  1  0
 20 14  1  0
 21 14  1  0
 22  1  1  0
 22  8  1  0
 23  4  1  0
 23  9  1  0
 23 13  1  0
 23 18  1  0
 24  6  1  0
 24 16  1  0
 25  6  1  0
 25  7  1  0
 25 13  1  0
M  END
>  <ID>  (1) 
conformer_0

$$$$
