
     RDKit          3D

 23 22  0  0  0  0  0  0  0  0999 V2000
   26.2325   34.9105  102.7090 C   0  0  0  0  0  0  0  0  0  0  0  0
   25.8173   34.4354  107.0006 C   0  0  0  0  0  0  0  0  0  0  0  0
   31.1433   33.7293  103.1595 C   0  0  0  0  0  0  0  0  0  0  0  0
   20.1123   34.3929  105.9143 C   0  0  0  0  0  0  0  0  0  0  0  0
   20.8840   34.0366  106.2233 C   0  0  0  0  0  0  0  0  0  0  0  0
   29.7945   34.7994  103.6688 C   0  0  0  0  0  0  0  0  0  0  0  0
   24.9626   34.6995  108.2317 O   0  0  0  0  0  0  0  0  0  0  0  0
   26.9416   33.5108  107.5655 O   0  0  0  0  0  0  0  0  0  0  0  0
   29.8354   36.3813  103.9352 O   0  0  0  0  0  0  0  0  0  0  0  0
   32.1258   34.0240  101.8403 O   0  0  0  0  0  0  0  0  0  0  0  0
   27.7417   34.7524  103.9994 C   0  0  0  0  0  0  0  0  0  0  0  0
   23.8460   32.8775  105.9537 O   0  0  0  0  0  0  0  0  0  0  0  0
   25.6818   34.7270  104.9760 C   0  0  0  0  0  0  0  0  0  0  0  0
   22.2519   34.1766  105.9046 N   0  0  0  0  0  0  0  0  0  0  0  0
   30.2166   32.8722  103.0235 C   0  0  0  0  0  0  0  0  0  0  0  0
   17.8776   36.8359  104.4028 O   0  0  0  0  0  0  0  0  0  0  0  0
   25.1077   34.2299  103.3931 C   0  0  0  0  0  0  0  0  0  0  0  0
   23.6590   34.2217  105.8274 C   0  0  0  0  0  0  0  0  0  0  0  0
   27.3463   35.0405  104.8431 O   0  0  0  0  0  0  0  0  0  0  0  0
   17.0768   35.6682  104.2094 C   0  0  0  0  0  0  0  0  0  0  0  0
   16.9433   34.8858  104.5476 N   0  0  0  0  0  0  0  0  0  0  0  0
   17.9091   34.1090  105.1462 C   0  0  0  0  0  0  0  0  0  0  0  0
   18.7597   33.2030  105.9313 C   0  0  0  0  0  0  0  0  0  0  0  0
  5  4  1  0
  6  3  1  0
  7  2  2  0
  8  2  1  0
  9  6  1  0
 10  3  1  0
 11  6  1  0
 13  2  1  0
 14  5  1  0
 15  3  1  0
 17  1  1  0
 17 13  1  0
 18 12  2  0
 18 13  1  0
 18 14  1  0
 19 11  1  0
 19 13  1  0
 20 16  1  0
 21 20  1  0
 22 21  1  0
 23  4  1  0
 23 22  1  0
M  END
>  <ID>  (1) 
conformer_0

$$$$
