
     RDKit          3D

 28 29  0  0  0  0  0  0  0  0999 V2000
   24.5449   34.3911  103.2379 C   0  0  0  0  0  0  0  0  0  0  0  0
   26.1358   34.8960  104.9164 C   0  0  1  0  0  0  0  0  0  0  0  0
   19.1763   34.4130  105.8535 C   0  0  0  0  0  0  0  0  0  0  0  0
   31.7392   34.1009  104.4983 C   0  0  0  0  0  0  0  0  0  0  0  0
   27.7132   34.9125  103.4479 C   0  0  1  0  0  0  0  0  0  0  0  0
   18.0883   34.2630  105.0499 C   0  0  0  0  0  0  0  0  0  0  0  0
   29.6740   36.2254  103.9454 O   0  0  0  0  0  0  0  0  0  0  0  0
   30.7510   32.6457  102.9563 C   0  0  0  0  0  0  0  0  0  0  0  0
   24.4744   34.1283  104.9932 C   0  0  1  0  0  0  0  0  0  0  0  0
   25.5515   34.6695  107.7934 O   0  0  0  0  0  0  0  0  0  0  0  0
   20.9958   32.6357  107.0914 O   0  0  0  0  0  0  0  0  0  0  0  0
   22.7786   33.6784  106.1756 C   0  0  1  0  0  0  0  0  0  0  0  0
   17.1651   36.8527  103.9762 N   0  0  0  0  0  0  0  0  0  0  0  0
   27.1609   33.4688  107.3612 O   0  0  0  0  0  0  0  0  0  0  0  0
   22.9082   33.9912  105.5486 N   0  0  0  0  0  0  0  0  0  0  0  0
   25.9667   34.4607  103.0769 C   0  0  1  0  0  0  0  0  0  0  0  0
   23.5744   32.2439  105.9371 O   0  0  0  0  0  0  0  0  0  0  0  0
   25.3500   34.1373  107.2339 C   0  0  0  0  0  0  0  0  0  0  0  0
   32.1416   34.1319  101.9029 O   0  0  0  0  0  0  0  0  0  0  0  0
   29.0437   34.4167  103.5935 N   0  0  0  0  0  0  0  0  0  0  0  0
   17.4851   35.1662  104.8996 N   0  0  0  0  0  0  0  0  0  0  0  0
   20.9971   34.6227  106.3891 C   0  0  0  0  0  0  0  0  0  0  0  0
   17.3964   36.2458  104.5148 C   0  0  0  0  0  0  0  0  0  0  0  0
   25.8881   35.2829  105.5361 O   0  0  0  0  0  0  0  0  0  0  0  0
   20.3896   33.5904  106.5561 C   0  0  0  0  0  0  0  0  0  0  0  0
   29.4601   34.7048  103.8645 C   0  0  1  0  0  0  0  0  0  0  0  0
   30.6764   33.5674  102.7475 C   0  0  2  0  0  0  0  0  0  0  0  0
   26.5299   35.8158  102.5256 C   0  0  0  0  0  0  0  0  0  0  0  0
  6  3  2  3
  8  4  1  0
  9  1  1  0
  9  2  1  0
  9 15  1  1
 15 12  1  0
 16  1  1  1
 16  2  1  0
 16  5  1  0
 12 17  1  6
 18 10  2  0
 18 12  1  0
 18 14  1  0
  5 20  1  6
 21  6  1  0
 22 12  1  0
 23 13  1  0
 23 21  1  0
  2 24  1  6
 25  3  1  0
 25 11  2  0
 25 22  1  0
 26  7  1  6
 26 20  1  0
 27  8  1  0
 27 19  1  1
 27 26  1  0
 28  5  1  0
 28 16  1  0
M  END
>  <ID>  (1) 
conformer_0

$$$$
