
     RDKit          3D

 19 18  0  0  0  0  0  0  0  0999 V2000
   25.2451   33.9710  103.4252 C   0  0  0  0  0  0  0  0  0  0  0  0
   31.1772   33.8163  103.5015 C   0  0  0  0  0  0  0  0  0  0  0  0
   29.4300   34.9257  103.5863 C   0  0  0  0  0  0  0  0  0  0  0  0
   19.7218   34.3609  105.6869 C   0  0  0  0  0  0  0  0  0  0  0  0
   18.5664   34.3413  105.6311 C   0  0  0  0  0  0  0  0  0  0  0  0
   30.2326   32.4454  102.9856 C   0  0  0  0  0  0  0  0  0  0  0  0
   24.5741   33.7794  105.0818 C   0  0  0  0  0  0  0  0  0  0  0  0
   27.2257   33.3316  107.5400 O   0  0  0  0  0  0  0  0  0  0  0  0
   25.5046   34.6410  107.9098 O   0  0  0  0  0  0  0  0  0  0  0  0
   26.1961   35.0644  102.7843 C   0  0  0  0  0  0  0  0  0  0  0  0
   21.5463   33.8537  106.1531 C   0  0  0  0  0  0  0  0  0  0  0  0
   29.2142   36.6844  104.0174 O   0  0  0  0  0  0  0  0  0  0  0  0
   22.8436   32.8156  106.0144 O   0  0  0  0  0  0  0  0  0  0  0  0
   25.8883   34.1424  106.8995 C   0  0  0  0  0  0  0  0  0  0  0  0
   23.1298   34.2575  105.5194 N   0  0  0  0  0  0  0  0  0  0  0  0
   28.6872   34.7674  103.7613 N   0  0  0  0  0  0  0  0  0  0  0  0
   27.2147   35.1944  104.2786 C   0  0  0  0  0  0  0  0  0  0  0  0
   16.7463   36.9721  103.8062 N   0  0  0  0  0  0  0  0  0  0  0  0
   17.3202   36.0895  104.4665 C   0  0  0  0  0  0  0  0  0  0  0  0
  3  2  1  0
  5  4  2  0
  6  2  1  0
  7  1  1  0
 10  1  1  0
 11  4  2  0
 12  3  2  0
 13 11  1  0
 14  7  1  0
 14  8  1  0
 14  9  2  0
 15  7  1  0
 15 13  1  0
 16  3  1  0
 17 10  1  0
 17 16  1  0
 19  5  1  0
 19 18  1  0
M  END
>  <ID>  (1) 
conformer_0

$$$$
