
     RDKit          3D

 21 21  0  0  0  0  0  0  0  0999 V2000
   24.9400   33.9657  103.6818 C   0  0  0  0  0  0  0  0  0  0  0  0
   31.0511   34.0564  103.4846 C   0  0  0  0  0  0  0  0  0  0  0  0
   27.1348   34.7378  104.2454 C   0  0  2  0  0  0  0  0  0  0  0  0
   16.9739   35.0258  104.1564 C   0  0  0  0  0  0  0  0  0  0  0  0
   29.4249   34.3998  103.7023 C   0  0  0  0  0  0  0  0  0  0  0  0
   19.8575   34.2427  105.9890 C   0  0  0  0  0  0  0  0  0  0  0  0
   32.0771   34.1187  101.8844 O   0  0  0  0  0  0  0  0  0  0  0  0
   24.3250   34.1632  105.2638 C   0  0  2  0  0  0  0  0  0  0  0  0
   22.8178   32.5692  105.8798 O   0  0  0  0  0  0  0  0  0  0  0  0
   29.6469   36.3940  104.0279 O   0  0  0  0  0  0  0  0  0  0  0  0
   26.6224   33.3000  107.3463 O   0  0  0  0  0  0  0  0  0  0  0  0
   22.5199   34.5010  105.7460 N   0  0  0  0  0  0  0  0  0  0  0  0
   21.5343   34.0324  106.1310 C   0  0  0  0  0  0  0  0  0  0  0  0
   25.8287   34.4578  106.4135 C   0  0  0  0  0  0  0  0  0  0  0  0
   25.5526   34.8555  107.8464 O   0  0  0  0  0  0  0  0  0  0  0  0
   17.7500   34.6430  105.1517 N   0  0  0  0  0  0  0  0  0  0  0  0
   31.6989   33.4995  104.1657 C   0  0  0  0  0  0  0  0  0  0  0  0
   28.7596   34.4489  103.8903 N   0  0  0  0  0  0  0  0  0  0  0  0
   25.6561   34.8415  102.9938 C   0  0  0  0  0  0  0  0  0  0  0  0
   18.5389   34.5288  105.4448 C   0  0  0  0  0  0  0  0  0  0  0  0
   26.7679   35.2608  105.6032 O   0  0  0  0  0  0  0  0  0  0  0  0
  5  2  1  0
  7  2  1  0
  8  1  1  0
 10  5  2  0
  8 12  1  6
 13  6  1  0
 13  9  2  0
 13 12  1  0
 14  8  1  0
 14 11  1  0
 15 14  1  0
 16  4  2  3
 17  2  2  3
  3 18  1  6
 18  5  1  0
 19  1  1  0
 19  3  1  0
 20  6  3  0
 20 16  1  0
 21  3  1  0
 21 14  1  0
M  END
>  <ID>  (1) 
conformer_0

$$$$
