
     RDKit          3D

 25 24  0  0  0  0  0  0  0  0999 V2000
   25.1105   34.2287  103.3557 C   0  0  1  0  0  0  0  0  0  0  0  0
   28.1704   34.6411  103.5008 C   0  0  0  0  0  0  0  0  0  0  0  0
   18.8270   33.8895  106.2656 C   0  0  0  0  0  0  0  0  0  0  0  0
   30.8965   33.6464  103.0364 C   0  0  0  0  0  0  0  0  0  0  0  0
   30.2468   32.6632  102.9946 C   0  0  0  0  0  0  0  0  0  0  0  0
   19.0527   34.0704  105.4198 C   0  0  0  0  0  0  0  0  0  0  0  0
   30.0096   35.2110  103.7386 C   0  0  1  0  0  0  0  0  0  0  0  0
   21.5666   33.3060  106.3676 C   0  0  0  0  0  0  0  0  0  0  0  0
   25.6442   34.6650  107.9894 O   0  0  0  0  0  0  0  0  0  0  0  0
   29.6458   36.7447  103.8906 O   0  0  0  0  0  0  0  0  0  0  0  0
   27.0686   33.3619  107.4908 O   0  0  0  0  0  0  0  0  0  0  0  0
   17.6535   34.9031  104.6143 N   0  0  0  0  0  0  0  0  0  0  0  0
   21.2709   32.2716  106.6899 O   0  0  0  0  0  0  0  0  0  0  0  0
   25.9077   34.3101  106.9414 C   0  0  0  0  0  0  0  0  0  0  0  0
   32.1302   34.1777  101.9301 O   0  0  0  0  0  0  0  0  0  0  0  0
   26.3723   35.1427  102.7119 C   0  0  0  0  0  0  0  0  0  0  0  0
   28.3954   34.6092  103.8707 N   0  0  0  0  0  0  0  0  0  0  0  0
   22.8086   34.1163  105.7505 N   0  0  0  0  0  0  0  0  0  0  0  0
   17.3322   36.0530  104.2242 C   0  0  0  0  0  0  0  0  0  0  0  0
   26.4317   34.9199  104.7362 C   0  0  0  0  0  0  0  0  0  0  0  0
   20.3551   34.4486  106.4905 C   0  0  0  0  0  0  0  0  0  0  0  0
   31.3501   35.3785  103.8648 N   0  0  0  0  0  0  0  0  0  0  0  0
   23.5654   32.4654  105.9630 O   0  0  0  0  0  0  0  0  0  0  0  0
   24.5757   33.8773  105.3115 C   0  0  1  0  0  0  0  0  0  0  0  0
   17.1079   33.9885  104.2107 C   0  0  0  0  0  0  0  0  0  0  0  0
  5  4  2  3
  6  3  1  0
  7  4  1  0
 10  7  1  0
 12  6  1  0
 13  8  2  0
 14  9  2  0
 14 11  1  0
 15  4  1  0
 16  1  1  0
 16  2  1  0
 17  2  1  0
 17  7  1  0
 18  8  1  0
 19 12  1  0
  1 20  1  1
 21  3  1  0
 21  8  1  0
  7 22  1  1
 24  1  1  0
 24 14  1  0
 24 18  1  0
 24 23  1  6
 25 12  1  0
M  END
>  <ID>  (1) 
conformer_0

$$$$
