
     RDKit          3D

 23 23  0  0  0  0  0  0  0  0999 V2000
   25.6215   34.5483  105.1616 C   0  0  0  0  0  0  0  0  0  0  0  0
   24.8448   34.4118  103.6608 C   0  0  0  0  0  0  0  0  0  0  0  0
   29.3884   35.6864  103.7109 C   0  0  0  0  0  0  0  0  0  0  0  0
   17.6151   34.2272  105.1600 C   0  0  0  0  0  0  0  0  0  0  0  0
   19.6660   34.3731  106.2938 C   0  0  0  0  0  0  0  0  0  0  0  0
   31.4606   33.7918  103.3047 C   0  0  0  0  0  0  0  0  0  0  0  0
   27.2622   34.9284  103.8114 C   0  0  0  0  0  0  0  0  0  0  0  0
   20.2085   33.8551  106.3351 C   0  0  0  0  0  0  0  0  0  0  0  0
   17.5619   36.1758  104.5694 C   0  0  0  0  0  0  0  0  0  0  0  0
   25.4834   34.7449  108.0457 O   0  0  0  0  0  0  0  0  0  0  0  0
   28.7981   36.6373  103.9608 O   0  0  0  0  0  0  0  0  0  0  0  0
   26.3469   33.3542  107.3365 O   0  0  0  0  0  0  0  0  0  0  0  0
   22.4037   34.2990  106.1314 N   0  0  0  0  0  0  0  0  0  0  0  0
   22.9494   32.4548  105.9783 O   0  0  0  0  0  0  0  0  0  0  0  0
   25.9961   34.9756  102.5273 C   0  0  0  0  0  0  0  0  0  0  0  0
   31.2489   35.6139  103.8446 O   0  0  0  0  0  0  0  0  0  0  0  0
   17.2278   35.4620  104.8470 N   0  0  0  0  0  0  0  0  0  0  0  0
   23.2031   33.7608  105.9802 C   0  0  2  0  0  0  0  0  0  0  0  0
   30.2603   32.4450  102.8462 C   0  0  0  0  0  0  0  0  0  0  0  0
   28.7118   34.4320  103.6015 N   0  0  0  0  0  0  0  0  0  0  0  0
   27.5170   34.7664  105.2012 O   0  0  0  0  0  0  0  0  0  0  0  0
   25.6464   34.3250  106.6496 C   0  0  0  0  0  0  0  0  0  0  0  0
   29.7744   33.8742  103.1942 C   0  0  0  0  0  0  0  0  0  0  0  0
  2  1  1  0
  5  4  1  0
  8  5  1  0
 11  3  2  0
 15  2  1  0
 15  7  1  0
 16  3  1  0
 17  4  1  0
 17  9  2  3
 18  8  1  0
 18 13  1  1
 18 14  1  0
 19  6  1  0
 20  3  1  0
 20  7  1  0
 21  7  2  0
 22  1  1  0
 22 10  1  0
 22 12  1  0
 22 18  1  0
 23  6  1  0
 23 19  1  0
 23 20  1  0
M  END
>  <ID>  (1) 
conformer_0

$$$$
