
     RDKit          3D

 23 22  0  0  0  0  0  0  0  0999 V2000
   24.8357   34.5195  103.7118 C   0  0  1  0  0  0  0  0  0  0  0  0
   31.6647   34.1351  104.1486 C   0  0  0  0  0  0  0  0  0  0  0  0
   27.6663   34.8160  103.7683 C   0  0  0  0  0  0  0  0  0  0  0  0
   19.9191   34.4837  105.6086 C   0  0  0  0  0  0  0  0  0  0  0  0
   29.8264   35.4197  103.8869 C   0  0  0  0  0  0  0  0  0  0  0  0
   18.1058   34.3653  105.2272 C   0  0  0  0  0  0  0  0  0  0  0  0
   26.7866   33.4264  107.4988 O   0  0  0  0  0  0  0  0  0  0  0  0
   32.0957   34.0583  102.0037 O   0  0  0  0  0  0  0  0  0  0  0  0
   29.8555   36.5532  103.9004 O   0  0  0  0  0  0  0  0  0  0  0  0
   23.4277   32.5104  105.8841 O   0  0  0  0  0  0  0  0  0  0  0  0
   25.8519   34.6595  104.9576 C   0  0  0  0  0  0  0  0  0  0  0  0
   25.2120   34.5193  108.2174 O   0  0  0  0  0  0  0  0  0  0  0  0
   20.9153   33.7389  106.3928 C   0  0  2  0  0  0  0  0  0  0  0  0
   25.6593   34.1547  107.1906 C   0  0  0  0  0  0  0  0  0  0  0  0
   22.9243   34.2651  105.9945 N   0  0  0  0  0  0  0  0  0  0  0  0
   28.7132   34.6417  103.7732 N   0  0  0  0  0  0  0  0  0  0  0  0
   26.1590   35.0655  102.7991 C   0  0  0  0  0  0  0  0  0  0  0  0
   30.2578   32.6252  103.0391 C   0  0  0  0  0  0  0  0  0  0  0  0
   16.8674   36.3846  103.7998 N   0  0  0  0  0  0  0  0  0  0  0  0
   16.6532   35.7039  103.8924 C   0  0  0  0  0  0  0  0  0  0  0  0
   19.2315   33.7194  107.3143 N   0  0  0  0  0  0  0  0  0  0  0  0
   23.8662   33.7302  105.6233 C   0  0  1  0  0  0  0  0  0  0  0  0
   30.4101   33.6273  102.9362 C   0  0  0  0  0  0  0  0  0  0  0  0
  6  4  2  3
  9  5  2  0
  1 11  1  1
 13  4  1  0
 14  1  1  0
 14  7  1  0
 14 12  2  0
 16  3  1  0
 16  5  1  0
 17  1  1  0
 17  3  1  0
 20  6  1  0
 20 19  1  0
 13 21  1  1
 22  1  1  0
 22 10  1  0
 22 13  1  0
 22 15  1  1
 23  2  1  0
 23  5  1  0
 23  8  1  0
 23 18  1  0
M  END
>  <ID>  (1) 
conformer_0

$$$$
