
     RDKit          3D

 27 26  0  0  0  0  0  0  0  0999 V2000
   19.4351   34.0416  106.2389 C   0  0  0  0  0  0  0  0  0  0  0  0
   25.4763   35.0964  102.5847 C   0  0  0  0  0  0  0  0  0  0  0  0
   25.8083   34.5568  104.3432 C   0  0  0  0  0  0  0  0  0  0  0  0
   31.4658   33.9527  103.5950 C   0  0  0  0  0  0  0  0  0  0  0  0
   18.4636   34.2598  105.6768 C   0  0  0  0  0  0  0  0  0  0  0  0
   27.7870   34.9420  103.8916 C   0  0  0  0  0  0  0  0  0  0  0  0
   26.7708   33.4090  107.3373 O   0  0  0  0  0  0  0  0  0  0  0  0
   29.9189   32.7829  102.7546 C   0  0  0  0  0  0  0  0  0  0  0  0
   29.7046   36.7184  103.8386 O   0  0  0  0  0  0  0  0  0  0  0  0
   23.6632   33.9516  105.8838 C   0  0  0  0  0  0  0  0  0  0  0  0
   24.9923   34.6103  107.8730 O   0  0  0  0  0  0  0  0  0  0  0  0
   22.2591   32.6522  106.6266 O   0  0  0  0  0  0  0  0  0  0  0  0
   23.0171   34.3051  105.8263 N   0  0  0  0  0  0  0  0  0  0  0  0
   32.1086   34.1126  102.0119 O   0  0  0  0  0  0  0  0  0  0  0  0
   25.6964   34.0297  107.3927 C   0  0  0  0  0  0  0  0  0  0  0  0
   24.9305   34.5359  103.5266 C   0  0  0  0  0  0  0  0  0  0  0  0
   31.9923   33.8128  104.6421 C   0  0  0  0  0  0  0  0  0  0  0  0
   17.7690   34.8822  104.7523 N   0  0  0  0  0  0  0  0  0  0  0  0
   28.5581   34.4348  103.8448 N   0  0  0  0  0  0  0  0  0  0  0  0
   17.5564   36.3827  104.3334 C   0  0  0  0  0  0  0  0  0  0  0  0
   20.6991   34.4418  106.5316 C   0  0  0  0  0  0  0  0  0  0  0  0
   30.4136   35.4974  104.1091 C   0  0  0  0  0  0  0  0  0  0  0  0
   25.8290   34.9266  105.7972 C   0  0  0  0  0  0  0  0  0  0  0  0
   16.9840   34.3191  104.2713 C   0  0  0  0  0  0  0  0  0  0  0  0
   27.8533   35.5969  104.5145 O   0  0  0  0  0  0  0  0  0  0  0  0
   21.3102   33.3078  106.7581 C   0  0  0  0  0  0  0  0  0  0  0  0
   29.3711   33.6943  103.2492 C   0  0  0  0  0  0  0  0  0  0  0  0
  5  1  1  0
  6  3  1  0
  8  4  1  0
 13 10  1  0
 13 12  1  0
 14  4  1  0
 15  7  1  0
 15 11  2  0
 16  2  1  0
 16  3  1  0
 17  4  1  0
 18  5  1  0
 19  6  1  0
 20 18  1  0
 21  1  1  0
 22  4  1  0
 22  9  1  0
 23  3  1  0
 23 10  1  0
 23 15  1  0
 24 18  1  0
 25  6  1  0
 26 12  1  0
 26 21  1  0
 27  8  1  0
 27 19  1  0
M  END
>  <ID>  (1) 
conformer_0

$$$$
