
     RDKit          3D

 20 20  0  0  0  0  0  0  0  0999 V2000
   25.0214   34.5011  103.6149 C   0  0  0  0  0  0  0  0  0  0  0  0
   27.4600   35.3094  104.0548 C   0  0  0  0  0  0  0  0  0  0  0  0
   29.1688   34.8075  103.4322 C   0  0  0  0  0  0  0  0  0  0  0  0
   19.9667   33.9575  105.8673 C   0  0  0  0  0  0  0  0  0  0  0  0
   30.3151   32.6771  103.0026 C   0  0  0  0  0  0  0  0  0  0  0  0
   18.6728   34.1981  105.4266 C   0  0  0  0  0  0  0  0  0  0  0  0
   31.1597   33.9462  103.5523 C   0  0  0  0  0  0  0  0  0  0  0  0
   25.1555   34.1192  106.6576 C   0  0  0  0  0  0  0  0  0  0  0  0
   25.3492   34.6160  107.8398 O   0  0  0  0  0  0  0  0  0  0  0  0
   22.7773   32.7492  105.8118 O   0  0  0  0  0  0  0  0  0  0  0  0
   22.3974   33.7838  105.9971 C   0  0  0  0  0  0  0  0  0  0  0  0
   28.6496   34.7511  103.7353 N   0  0  0  0  0  0  0  0  0  0  0  0
   26.2024   35.0693  102.7548 C   0  0  0  0  0  0  0  0  0  0  0  0
   26.2467   33.1416  107.4379 O   0  0  0  0  0  0  0  0  0  0  0  0
   29.3390   36.3804  104.1677 O   0  0  0  0  0  0  0  0  0  0  0  0
   17.4007   35.6237  104.4801 C   0  0  0  0  0  0  0  0  0  0  0  0
   22.8577   34.2660  105.9548 N   0  0  0  0  0  0  0  0  0  0  0  0
   26.7685   35.2021  105.5476 O   0  0  0  0  0  0  0  0  0  0  0  0
   25.4466   34.6316  105.0751 C   0  0  0  0  0  0  0  0  0  0  0  0
   16.4037   34.9891  104.0956 O   0  0  0  0  0  0  0  0  0  0  0  0
  6  4  1  0
  7  3  1  0
  7  5  1  0
  9  8  1  0
 11  4  1  0
 11  8  1  0
 11 10  1  0
 12  2  1  0
 12  3  1  0
 13  1  1  0
 13  2  1  0
 14  8  1  0
 15  3  1  0
 16  6  1  0
 17 11  1  0
 18  2  1  0
 19  1  1  0
 19  8  1  0
 19 18  1  0
 20 16  1  0
M  END
>  <ID>  (1) 
conformer_0

$$$$
