
     RDKit          3D

 25 24  0  0  0  0  0  0  0  0999 V2000
   25.0607   34.2697  103.5439 C   0  0  0  0  0  0  0  0  0  0  0  0
   26.6597   35.0079  104.5834 C   0  0  0  0  0  0  0  0  0  0  0  0
   31.0833   33.6938  103.1306 C   0  0  0  0  0  0  0  0  0  0  0  0
   30.8009   32.6875  103.2040 C   0  0  0  0  0  0  0  0  0  0  0  0
   18.1261   34.3954  105.0518 C   0  0  0  0  0  0  0  0  0  0  0  0
   28.3879   34.4604  103.6090 C   0  0  0  0  0  0  0  0  0  0  0  0
   19.7170   34.0500  106.1959 C   0  0  0  0  0  0  0  0  0  0  0  0
   29.7052   36.5069  103.7659 O   0  0  0  0  0  0  0  0  0  0  0  0
   32.2290   34.0484  101.8702 O   0  0  0  0  0  0  0  0  0  0  0  0
   20.6733   33.7927  106.6049 C   0  0  0  0  0  0  0  0  0  0  0  0
   27.2655   33.4121  107.4159 O   0  0  0  0  0  0  0  0  0  0  0  0
   23.6174   32.7070  106.0479 O   0  0  0  0  0  0  0  0  0  0  0  0
   25.4188   34.6858  108.0105 O   0  0  0  0  0  0  0  0  0  0  0  0
   16.4039   34.6001  103.2487 O   0  0  0  0  0  0  0  0  0  0  0  0
   26.0086   34.2022  107.3207 C   0  0  0  0  0  0  0  0  0  0  0  0
   26.3365   35.2350  102.8611 C   0  0  0  0  0  0  0  0  0  0  0  0
   22.6984   34.2657  106.3009 N   0  0  0  0  0  0  0  0  0  0  0  0
   25.4369   34.3891  105.5643 C   0  0  0  0  0  0  0  0  0  0  0  0
   16.9373   35.7237  104.1304 C   0  0  0  0  0  0  0  0  0  0  0  0
   28.4034   34.6478  104.0201 N   0  0  0  0  0  0  0  0  0  0  0  0
   16.6264   36.7716  103.6742 N   0  0  0  0  0  0  0  0  0  0  0  0
   18.2450   35.0627  105.1280 N   0  0  0  0  0  0  0  0  0  0  0  0
   30.2828   35.0929  103.9988 C   0  0  0  0  0  0  0  0  0  0  0  0
   23.4053   33.6470  106.1091 C   0  0  0  0  0  0  0  0  0  0  0  0
   29.2110   32.4992  102.8241 C   0  0  0  0  0  0  0  0  0  0  0  0
  4  3  1  0
  7  5  1  0
  9  3  1  0
 10  7  1  0
 15 11  1  0
 15 13  2  0
 16  1  1  0
 16  2  1  0
 18  2  1  0
 18 15  1  0
 19 14  2  0
 20  2  1  0
 20  6  1  0
 21 19  1  0
 22  5  1  0
 22 19  1  0
 23  3  1  0
 23  8  1  0
 23 20  1  0
 24 10  1  0
 24 12  1  0
 24 17  1  0
 24 18  1  0
 25  4  1  0
M  END
>  <ID>  (1) 
conformer_0

$$$$
