
     RDKit          3D

 23 22  0  0  0  0  0  0  0  0999 V2000
   28.0701   34.8876  103.9728 C   0  0  0  0  0  0  0  0  0  0  0  0
   25.1700   34.5919  103.2942 C   0  0  0  0  0  0  0  0  0  0  0  0
   31.3059   34.0213  103.4201 C   0  0  0  0  0  0  0  0  0  0  0  0
   17.2166   35.3489  104.4657 C   0  0  2  0  0  0  0  0  0  0  0  0
   19.9832   34.4085  105.8724 C   0  0  0  0  0  3  0  0  0  0  0  0
   29.6611   33.6187  103.2851 C   0  0  0  0  0  0  0  0  0  0  0  0
   26.9585   33.3113  107.4754 O   0  0  0  0  0  0  0  0  0  0  0  0
   25.2518   34.5625  108.0075 O   0  0  0  0  0  0  0  0  0  0  0  0
   29.4906   36.3055  103.8940 O   0  0  0  0  0  0  0  0  0  0  0  0
   24.4033   34.4320  105.4778 C   0  0  0  0  0  0  0  0  0  0  0  0
   22.5315   32.5353  106.4156 O   0  0  0  0  0  0  0  0  0  0  0  0
   22.9011   34.2004  105.5491 N   0  0  0  0  0  0  0  0  0  0  0  0
   25.8889   34.4320  106.7982 C   0  0  0  0  0  0  0  0  0  0  0  0
   16.5001   36.3466  103.5762 N   0  0  0  0  0  0  0  0  0  0  0  0
   29.9345   34.2562  103.5230 N   0  0  0  0  0  0  0  0  0  0  0  0
   25.9624   35.3655  102.3711 C   0  0  0  0  0  0  0  0  0  0  0  0
   16.5006   34.3171  104.3272 O   0  0  0  0  0  1  0  0  0  0  0  0
   18.2873   36.6315  104.6621 O   0  0  0  0  0  0  0  0  0  0  0  0
   26.2016   34.8947  104.8219 C   0  0  1  0  0  0  0  0  0  0  0  0
   31.6373   33.2200  103.7031 C   0  0  0  0  0  0  0  0  0  0  0  0
   18.5916   34.2825  105.7593 C   0  0  0  0  0  0  0  0  0  0  0  0
   21.7136   33.8636  106.2256 C   0  0  0  0  0  0  0  0  0  0  0  0
   27.5770   34.6487  104.1981 N   0  0  0  0  0  0  0  0  0  0  0  0
  6  1  1  0
  9  1  2  0
 12 10  2  3
 13  7  1  0
 13  8  1  0
 13 10  1  0
  4 14  1  1
 15  3  1  0
 15  6  1  0
 16  2  1  0
 17  4  1  0
 18  4  1  0
 19  2  1  6
 19 10  1  0
 20  3  2  3
 21  4  1  0
 21  5  2  3
 22  5  1  0
 22 11  2  0
 22 12  1  0
 23  1  1  0
 23 19  1  0
M  RAD  2   5   2  17   2
M  END
>  <ID>  (1) 
conformer_0

$$$$
