
     RDKit          3D

 18 17  0  0  0  0  0  0  0  0999 V2000
   26.8689   34.8231  104.2845 C   0  0  0  0  0  0  0  0  0  0  0  0
   25.2383   34.6996  103.3239 C   0  0  0  0  0  0  0  0  0  0  0  0
   31.1936   34.0652  103.7396 C   0  0  0  0  0  0  0  0  0  0  0  0
   19.8823   34.0564  106.0868 C   0  0  0  0  0  0  0  0  0  0  0  0
   29.2208   34.3126  103.5043 C   0  0  0  0  0  0  0  0  0  0  0  0
   17.1000   35.4527  104.4108 C   0  0  0  0  0  0  0  0  0  0  0  0
   29.7452   36.3124  103.9952 O   0  0  0  0  0  0  0  0  0  0  0  0
   26.8735   33.4167  107.6120 O   0  0  0  0  0  0  0  0  0  0  0  0
   25.5346   34.2138  107.0094 C   0  0  0  0  0  0  0  0  0  0  0  0
   21.8636   33.5438  106.1891 C   0  0  0  0  0  0  0  0  0  0  0  0
   22.4520   34.1389  105.7789 N   0  0  0  0  0  0  0  0  0  0  0  0
   29.9224   32.6252  102.8103 C   0  0  0  0  0  0  0  0  0  0  0  0
   17.6750   34.6073  105.3616 N   0  0  0  0  0  0  0  0  0  0  0  0
   28.4430   34.4297  103.8719 N   0  0  0  0  0  0  0  0  0  0  0  0
   24.8658   34.4613  105.3067 C   0  0  0  0  0  0  0  0  0  0  0  0
   18.5278   34.2802  105.6095 C   0  0  0  0  0  0  0  0  0  0  0  0
   22.6124   32.5574  106.1735 O   0  0  0  0  0  0  0  0  0  0  0  0
   16.7774   36.2159  103.8305 N   0  0  0  0  0  0  0  0  0  0  0  0
  2  1  1  0
  5  3  1  0
  7  5  1  0
  9  8  1  0
 10  4  1  0
 11 10  1  0
 12  5  1  0
 13  6  1  0
 14  1  1  0
 14  5  1  0
 15  2  1  0
 15  9  1  0
 15 10  1  0
 16  4  3  0
 16 13  1  0
 17 10  1  0
 18  6  1  0
M  END
>  <ID>  (1) 
conformer_0

$$$$
