
     RDKit          3D

 25 24  0  0  0  0  0  0  0  0999 V2000
   31.1545   33.4682  102.5306 C   0  0  1  0  0  0  0  0  0  0  0  0
   18.6331   34.1739  106.2630 C   0  0  0  0  0  0  0  0  0  0  0  0
   29.1753   35.2998  103.8577 C   0  0  0  0  0  0  0  0  0  0  0  0
   24.8988   34.4729  103.6390 C   0  0  0  0  0  0  0  0  0  0  0  0
   29.4551   33.4359  103.2184 C   0  0  0  0  0  0  0  0  0  0  0  0
   17.8840   34.6256  105.2583 C   0  0  0  0  0  0  0  0  0  0  0  0
   25.5801   34.7352  107.9893 O   0  0  0  0  0  0  0  0  0  0  0  0
   25.9901   34.1147  107.2367 C   0  0  0  0  0  0  0  0  0  0  0  0
   27.1737   33.3669  107.5345 O   0  0  0  0  0  0  0  0  0  0  0  0
   29.8399   36.3835  103.7671 O   0  0  0  0  0  0  0  0  0  0  0  0
   26.5138   34.7601  105.4911 C   0  0  2  0  0  0  0  0  0  0  0  0
   24.7876   34.4503  105.0079 C   0  0  0  0  0  0  0  0  0  0  0  0
   22.6742   32.6886  106.3487 O   0  0  0  0  0  0  0  0  0  0  0  0
   18.1573   36.5374  104.6053 O   0  0  0  0  0  0  0  0  0  0  0  0
   32.1376   34.1016  101.9162 O   0  0  0  0  0  0  0  0  0  0  0  0
   22.4193   34.5071  105.8750 N   0  0  0  0  0  0  0  0  0  0  0  0
   29.3862   34.5970  103.3720 N   0  0  0  0  0  0  0  0  0  0  0  0
   17.0221   36.1345  104.0205 C   0  0  0  0  0  0  0  0  0  0  0  0
   26.9953   34.8482  103.5453 C   0  0  0  0  0  0  0  0  0  0  0  0
   26.2750   35.4167  102.4934 C   0  0  0  0  0  0  0  0  0  0  0  0
   20.1632   34.1150  106.5502 C   0  0  0  0  0  0  0  0  0  0  0  0
   22.8780   33.9186  105.9115 C   0  0  1  0  0  0  0  0  0  0  0  0
   31.3501   33.9513  103.8750 C   0  0  0  0  0  0  0  0  0  0  0  0
   20.4058   33.5529  106.6699 C   0  0  0  0  0  0  0  0  0  0  0  0
   27.3682   34.7438  104.2753 N   0  0  0  0  0  0  0  0  0  0  0  0
  5  1  1  0
  6  2  1  0
  8  7  1  0
  9  8  1  0
 10  3  2  0
 11  8  1  1
 12  4  2  3
 12 11  1  0
 15  1  1  0
 17  3  1  0
 17  5  1  0
 18  6  1  0
 18 14  1  0
 20 19  1  0
 21  2  1  0
 22 12  1  0
 22 13  1  0
 22 16  1  6
  1 23  1  1
 24 21  1  0
 24 22  1  0
 25  3  1  0
 25 11  1  0
 25 19  1  0
M  END
>  <ID>  (1) 
conformer_0

$$$$
