
     RDKit          3D

 23 22  0  0  0  0  0  0  0  0999 V2000
   31.0482   33.7230  103.1310 C   0  0  0  0  0  0  0  0  0  0  0  0
   24.8634   33.9455  103.6140 C   0  0  0  0  0  0  0  0  0  0  0  0
   24.3346   33.9490  105.4360 C   0  0  2  0  0  0  0  0  0  0  0  0
   20.3739   34.4931  105.9981 C   0  0  0  0  0  0  0  0  0  0  0  0
   16.9328   36.4485  104.2954 C   0  0  0  0  0  0  0  0  0  0  0  0
   28.9001   34.9585  103.7121 C   0  0  0  0  0  0  0  0  0  0  0  0
   30.2234   32.4605  102.9209 C   0  0  0  0  0  0  0  0  0  0  0  0
   26.8923   33.3541  107.5558 O   0  0  0  0  0  0  0  0  0  0  0  0
   23.8379   32.3404  106.1589 O   0  0  0  0  0  0  0  0  0  0  0  0
   30.1360   36.3649  103.9331 O   0  0  0  0  0  0  0  0  0  0  0  0
   25.3635   34.7825  107.9151 O   0  0  0  0  0  0  0  0  0  0  0  0
   22.8406   34.2705  105.7449 N   0  0  0  0  0  0  0  0  0  0  0  0
   21.2020   33.9576  106.4079 C   0  0  0  0  0  0  0  0  0  0  0  0
   32.2491   33.9284  101.8363 O   0  0  0  0  0  0  0  0  0  0  0  0
   26.6531   34.7674  104.3420 C   0  0  0  0  0  0  0  0  0  0  0  0
   28.6539   34.6772  103.7891 N   0  0  0  0  0  0  0  0  0  0  0  0
   17.7863   34.6800  105.5235 C   0  0  0  0  0  0  0  0  0  0  0  0
   25.6387   34.1781  106.8090 C   0  0  0  0  0  0  0  0  0  0  0  0
   19.3363   33.4630  107.7588 N   0  0  0  0  0  0  0  0  0  0  0  0
   31.4938   34.2728  104.4080 C   0  0  0  0  0  0  0  0  0  0  0  0
   25.9120   34.5699  103.1421 C   0  0  0  0  0  0  0  0  0  0  0  0
   18.2974   34.2073  106.0162 C   0  0  2  0  0  0  0  0  0  0  0  0
   16.2345   35.4666  103.9145 O   0  0  0  0  0  0  0  0  0  0  0  0
  3  2  1  0
  6  1  1  0
  7  1  1  0
  3  9  1  1
 10  6  2  0
 12  3  1  0
 13  4  2  3
 13 12  1  0
 14  1  1  0
 16  6  1  0
 16 15  1  0
 17  5  1  0
 18  3  1  0
 18  8  1  0
 18 11  2  0
 20  1  1  0
 21  2  1  0
 21 15  1  0
 22  4  1  0
 22 17  1  0
 22 19  1  1
 23  5  1  0
M  END
>  <ID>  (1) 
conformer_0

$$$$
