
     RDKit          3D

 23 22  0  0  0  0  0  0  0  0999 V2000
   26.1364   34.9284  103.0315 C   0  0  0  0  0  0  0  0  0  0  0  0
   18.9192   34.5211  105.3559 C   0  0  0  0  0  0  0  0  0  0  0  0
   31.6345   33.8977  103.5168 C   0  0  0  0  0  0  0  0  0  0  0  0
   25.9854   34.8642  105.1174 C   0  0  0  0  0  0  0  0  0  0  0  0
   17.3348   36.4604  104.4612 C   0  0  0  0  0  0  0  0  0  0  0  0
   30.0405   35.3667  103.9859 C   0  0  0  0  0  0  0  0  0  0  0  0
   25.0420   34.5448  108.0744 O   0  0  0  0  0  0  0  0  0  0  0  0
   29.2076   36.5479  103.8060 O   0  0  0  0  0  0  0  0  0  0  0  0
   32.1620   34.0711  101.9196 O   0  0  0  0  0  0  0  0  0  0  0  0
   26.8133   33.4682  107.3841 O   0  0  0  0  0  0  0  0  0  0  0  0
   22.9414   34.3247  105.7935 N   0  0  0  0  0  0  0  0  0  0  0  0
   22.3193   32.4323  106.2088 O   0  0  0  0  0  0  0  0  0  0  0  0
   21.4160   33.5273  106.3831 C   0  0  0  0  0  0  0  0  0  0  0  0
   25.7036   34.2638  107.1784 C   0  0  0  0  0  0  0  0  0  0  0  0
   24.9633   34.4014  103.6026 C   0  0  0  0  0  0  0  0  0  0  0  0
   29.1343   34.4634  103.7648 N   0  0  0  0  0  0  0  0  0  0  0  0
   20.3192   34.3631  106.1294 C   0  0  0  0  0  0  0  0  0  0  0  0
   17.0026   37.0336  103.6381 O   0  0  0  0  0  0  0  0  0  0  0  0
   24.0315   34.0878  105.5406 C   0  0  0  0  0  0  0  0  0  0  0  0
   30.8930   32.7483  103.2271 C   0  0  0  0  0  0  0  0  0  0  0  0
   29.7138   33.5403  103.0875 C   0  0  0  0  0  0  0  0  0  0  0  0
   17.7219   34.4945  104.8301 C   0  0  0  0  0  0  0  0  0  0  0  0
   27.7046   34.8385  103.9036 C   0  0  0  0  0  0  0  0  0  0  0  0
  8  6  1  0
  9  3  1  0
 13 11  1  0
 13 12  1  0
 14  7  2  0
 14 10  1  0
 15  1  1  0
 15  4  1  0
 16  6  1  0
 17  2  1  0
 17 13  1  0
 18  5  1  0
 19  4  1  0
 19 11  1  0
 19 14  1  0
 20  3  1  0
 21 16  1  0
 21 20  1  0
 22  2  1  0
 22  5  1  0
 23  1  1  0
 23 16  1  0
M  END
>  <ID>  (1) 
conformer_0

$$$$
