
     RDKit          3D

 21 20  0  0  0  0  0  0  0  0999 V2000
   24.5413   34.0757  104.0014 C   0  0  0  0  0  0  0  0  0  0  0  0
   28.1204   34.6618  103.7749 C   0  0  0  0  0  0  0  0  0  0  0  0
   31.1920   33.5758  103.2364 C   0  0  0  0  0  0  0  0  0  0  0  0
   19.6371   34.3054  105.8827 C   0  0  0  0  0  0  0  0  0  0  0  0
   30.2473   34.7650  103.9243 C   0  0  0  0  0  0  0  0  0  0  0  0
   32.1798   34.0230  102.0001 O   0  0  0  0  0  0  0  0  0  0  0  0
   25.3508   34.7173  108.1901 O   0  0  0  0  0  0  0  0  0  0  0  0
   26.9143   33.3910  107.4944 O   0  0  0  0  0  0  0  0  0  0  0  0
   18.3398   34.6561  105.3396 C   0  0  0  0  0  0  0  0  0  0  0  0
   21.2778   33.8410  106.3541 C   0  0  0  0  0  0  0  0  0  0  0  0
   23.4314   32.4322  106.1976 O   0  0  0  0  0  0  0  0  0  0  0  0
   29.7085   36.3370  104.0451 O   0  0  0  0  0  0  0  0  0  0  0  0
   22.4716   34.3055  106.0360 N   0  0  0  0  0  0  0  0  0  0  0  0
   29.7496   32.9614  102.9400 C   0  0  0  0  0  0  0  0  0  0  0  0
   25.6974   34.5738  103.1260 C   0  0  0  0  0  0  0  0  0  0  0  0
   25.9040   34.2926  106.9578 C   0  0  0  0  0  0  0  0  0  0  0  0
   28.5815   34.5643  103.9505 N   0  0  0  0  0  0  0  0  0  0  0  0
   16.8462   36.1821  103.9096 N   0  0  0  0  0  0  0  0  0  0  0  0
   26.2805   34.6498  104.8416 C   0  0  0  0  0  0  0  0  0  0  0  0
   24.1254   33.9545  105.8073 C   0  0  0  0  0  0  0  0  0  0  0  0
   16.9721   36.1222  104.0538 C   0  0  0  0  0  0  0  0  0  0  0  0
  5  3  1  0
  6  3  1  0
  9  4  2  0
 10  4  2  0
 12  5  2  0
 13 10  1  0
 14  3  1  0
 15  1  1  0
 16  7  1  0
 16  8  1  0
 17  2  1  0
 17  5  1  0
 19  2  1  0
 19 15  1  0
 20  1  1  0
 20 11  1  0
 20 13  1  0
 20 16  1  0
 21  9  1  0
 21 18  1  0
M  END
>  <ID>  (1) 
conformer_0

$$$$
