
     RDKit          3D

 22 21  0  0  0  0  0  0  0  0999 V2000
   19.3937   34.2813  105.8272 C   0  0  0  0  0  0  0  0  0  0  0  0
   25.8789   35.1981  102.5368 C   0  0  0  0  0  0  0  0  0  0  0  0
   31.3081   33.7102  103.2803 C   0  0  2  0  0  0  0  0  0  0  0  0
   26.5178   34.7698  104.6553 C   0  0  0  0  0  0  0  0  0  0  0  0
   28.3053   35.1240  103.5516 C   0  0  1  0  0  0  0  0  0  0  0  0
   18.2264   34.7017  104.9475 C   0  0  0  0  0  0  0  0  0  0  0  0
   25.2015   33.9989  107.4130 C   0  0  0  0  0  0  0  0  0  0  0  0
   26.7181   33.4399  107.4697 O   0  0  0  0  0  0  0  0  0  0  0  0
   24.8337   34.5633  108.3527 O   0  0  0  0  0  0  0  0  0  0  0  0
   21.9818   33.6076  106.6392 C   0  0  0  0  0  0  0  0  0  0  0  0
   22.8223   34.1586  106.1277 N   0  0  0  0  0  0  0  0  0  0  0  0
   29.1367   36.6615  103.8125 O   0  0  0  0  0  0  0  0  0  0  0  0
   21.7334   32.5983  107.1083 O   0  0  0  0  0  0  0  0  0  0  0  0
   25.0838   34.5696  103.4464 C   0  0  1  0  0  0  0  0  0  0  0  0
   31.6613   35.1667  104.6866 O   0  0  0  0  0  0  0  0  0  0  0  0
   32.1860   33.9919  101.8109 O   0  0  0  0  0  0  0  0  0  0  0  0
   28.4183   34.6980  103.7062 N   0  0  0  0  0  0  0  0  0  0  0  0
   30.6414   32.7615  103.0197 C   0  0  0  0  0  0  0  0  0  0  0  0
   24.5654   34.1615  105.6765 C   0  0  0  0  0  0  0  0  0  0  0  0
   20.4330   34.2524  106.2198 C   0  0  0  0  0  0  0  0  0  0  0  0
   17.1589   36.2400  104.2114 C   0  0  0  0  0  0  0  0  0  0  0  0
   30.1708   34.6566  103.6486 C   0  0  2  0  0  0  0  0  0  0  0  0
  5  4  1  0
  6  1  1  0
  8  7  1  0
  9  7  2  0
 11 10  1  0
  5 12  1  1
 13 10  2  0
 14  2  1  1
 14  4  1  0
 16  3  1  0
 17  5  1  0
  3 18  1  6
 19  7  1  0
 19 11  2  3
 19 14  1  0
 20  1  3  0
 20 10  1  0
 21  6  1  0
 22  3  1  0
 22 15  1  1
 22 17  1  0
M  END
>  <ID>  (1) 
conformer_0

$$$$
