
     RDKit          3D

 24 23  0  0  0  0  0  0  0  0999 V2000
   19.0769   33.9972  105.8149 C   0  0  0  0  0  0  0  0  0  0  0  0
   27.3030   35.1744  104.0129 C   0  0  0  0  0  0  0  0  0  0  0  0
   24.8847   34.3437  103.5782 C   0  0  0  0  0  0  0  0  0  0  0  0
   29.2580   34.6206  103.5241 C   0  0  0  0  0  0  0  0  0  0  0  0
   17.7094   34.2913  104.8739 C   0  0  0  0  0  0  0  0  0  0  0  0
   29.8421   32.8354  102.9450 C   0  0  0  0  0  0  0  0  0  0  0  0
   31.0649   33.7724  103.0996 C   0  0  0  0  0  0  0  0  0  0  0  0
   25.7861   34.3018  107.0894 C   0  0  0  0  0  0  0  0  0  0  0  0
   32.2490   34.0574  101.8330 O   0  0  0  0  0  0  0  0  0  0  0  0
   25.9416   34.9616  105.3409 C   0  0  0  0  0  0  0  0  0  0  0  0
   26.5584   33.3497  107.5505 O   0  0  0  0  0  0  0  0  0  0  0  0
   29.1125   36.5318  103.6830 O   0  0  0  0  0  0  0  0  0  0  0  0
   22.5015   34.0094  105.4944 N   0  0  0  0  0  0  0  0  0  0  0  0
   23.8177   32.5149  105.8577 O   0  0  0  0  0  0  0  0  0  0  0  0
   16.9352   35.5905  104.9933 O   0  0  0  0  0  0  0  0  0  0  0  0
   25.8263   35.2180  107.5171 O   0  0  0  0  0  0  0  0  0  0  0  0
   26.1967   34.9492  102.8118 C   0  0  0  0  0  0  0  0  0  0  0  0
   21.6958   33.3824  106.1260 C   0  0  0  0  0  0  0  0  0  0  0  0
   17.6836   36.1636  104.5440 C   0  0  0  0  0  0  0  0  0  0  0  0
   20.3329   34.3530  105.9251 C   0  0  0  0  0  0  0  0  0  0  0  0
   21.8047   32.4624  106.8591 O   0  0  0  0  0  0  0  0  0  0  0  0
   32.1390   34.2809  101.8689 N   0  0  0  0  0  0  0  0  0  0  0  0
   24.2431   33.8508  105.1616 C   0  0  0  0  0  0  0  0  0  0  0  0
   27.7407   35.3577  104.8931 O   0  0  0  0  0  0  0  0  0  0  0  0
  4  2  1  0
  5  1  1  0
  6  4  1  0
  7  6  1  0
 10  2  1  0
 10  8  1  0
 11  8  1  0
 12  4  1  0
 15  5  1  0
 16  8  1  0
 17  2  1  0
 17  3  1  0
 18 13  1  0
 19 15  1  0
 20  1  1  0
 20 18  1  0
 21 18  2  0
 22  7  1  0
 22  9  1  0
 23  3  1  0
 23 13  1  0
 23 14  1  0
 24  2  1  0
M  END
>  <ID>  (1) 
conformer_0

$$$$
