
     RDKit          3D

 24 23  0  0  0  0  0  0  0  0999 V2000
   25.0182   34.2716  103.6718 C   0  0  0  0  0  0  0  0  0  0  0  0
   31.6398   33.8414  103.6901 C   0  0  0  0  0  0  0  0  0  0  0  0
   26.8863   34.8987  104.3759 C   0  0  0  0  0  0  0  0  0  0  0  0
   19.6572   34.3675  105.6906 C   0  0  0  0  0  0  0  0  0  0  0  0
   30.0197   33.8488  103.0586 C   0  0  1  0  0  0  0  0  0  0  0  0
   17.3460   35.7996  104.4590 C   0  0  0  0  0  0  0  0  0  0  0  0
   24.8791   34.6185  108.1546 O   0  0  0  0  0  0  0  0  0  0  0  0
   26.7897   33.4058  107.3912 O   0  0  0  0  0  0  0  0  0  0  0  0
   21.4540   33.8063  106.1671 C   0  0  0  0  0  0  0  0  0  0  0  0
   30.3821   32.5515  102.8933 C   0  0  0  0  0  0  0  0  0  0  0  0
   22.7470   34.4429  105.7578 N   0  0  0  0  0  0  0  0  0  0  0  0
   28.9448   36.3675  104.0615 O   0  0  0  0  0  0  0  0  0  0  0  0
   25.8434   34.8871  102.9944 C   0  0  0  0  0  0  0  0  0  0  0  0
   32.1783   34.1136  101.9783 O   0  0  0  0  0  0  0  0  0  0  0  0
   22.6774   32.6289  106.2456 O   0  0  0  0  0  0  0  0  0  0  0  0
   28.7639   35.4096  103.6900 C   0  0  0  0  0  0  0  0  0  0  0  0
   29.0181   34.4972  103.5718 N   0  0  0  0  0  0  0  0  0  0  0  0
   17.0608   36.9469  103.7161 N   0  0  0  0  0  0  0  0  0  0  0  0
   18.3877   34.1256  105.8517 C   0  0  0  0  0  0  0  0  0  0  0  0
   18.4891   33.4389  107.2878 N   0  0  0  0  0  0  0  0  0  0  0  0
   25.6331   34.3123  107.0672 C   0  0  0  0  0  0  0  0  0  0  0  0
   16.5648   35.0639  103.9074 O   0  0  0  0  0  0  0  0  0  0  0  0
   17.4886   35.0033  105.3208 N   0  0  0  0  0  0  0  0  0  0  0  0
   24.4657   34.2378  105.6067 C   0  0  0  0  0  0  0  0  0  0  0  0
  5  2  1  0
  9  4  1  0
  5 10  1  1
 11  9  1  0
 13  1  1  0
 13  3  1  0
 14  2  1  0
 15  9  2  0
 16  3  1  0
 16 12  2  0
 17  5  1  0
 17 16  1  0
 18  6  1  0
 19  4  1  0
 20 19  2  3
 21  7  2  0
 21  8  1  0
 22  6  2  0
 23  6  1  0
 23 19  1  0
 24  1  1  0
 24 11  2  3
 24 21  1  0
M  END
>  <ID>  (1) 
conformer_0

$$$$
