
     RDKit          3D

 24 23  0  0  0  0  0  0  0  0999 V2000
   24.7350   34.2417  103.4892 C   0  0  0  0  0  0  0  0  0  0  0  0
   28.5139   35.0636  103.8171 C   0  0  0  0  0  0  0  0  0  0  0  0
   31.4915   34.0754  103.8829 C   0  0  0  0  0  0  0  0  0  0  0  0
   16.7375   36.3674  104.0432 C   0  0  0  0  0  0  0  0  0  0  0  0
   29.9814   33.7480  103.1796 C   0  0  0  0  0  0  0  0  0  0  0  0
   19.8872   34.2923  105.9611 C   0  0  0  0  0  0  0  0  0  0  0  0
   25.3465   34.7334  108.1586 O   0  0  0  0  0  0  0  0  0  0  0  0
   29.4097   36.4266  103.8863 O   0  0  0  0  0  0  0  0  0  0  0  0
   21.6098   33.8202  106.4253 C   0  0  0  0  0  0  0  0  0  0  0  0
   32.1080   34.0588  101.8850 O   0  0  0  0  0  0  0  0  0  0  0  0
   27.0727   33.5116  107.4548 O   0  0  0  0  0  0  0  0  0  0  0  0
   21.9831   32.7745  107.1021 O   0  0  0  0  0  0  0  0  0  0  0  0
   30.6968   32.7691  103.0354 C   0  0  0  0  0  0  0  0  0  0  0  0
   18.8373   34.4049  105.5611 C   0  0  0  0  0  0  0  0  0  0  0  0
   22.8394   34.4649  105.9259 N   0  0  0  0  0  0  0  0  0  0  0  0
   26.4027   34.8592  104.4588 C   0  0  0  0  0  0  0  0  0  0  0  0
   17.8751   34.8113  105.0219 N   0  0  0  0  0  0  0  0  0  0  0  0
   25.6572   34.3124  107.0331 C   0  0  0  0  0  0  0  0  0  0  0  0
   26.0328   34.7163  103.0452 C   0  0  0  0  0  0  0  0  0  0  0  0
   27.2086   34.9874  104.7012 O   0  0  0  0  0  0  0  0  0  0  0  0
   24.5019   34.3943  105.5352 C   0  0  0  0  0  0  0  0  0  0  0  0
   16.9612   34.5422  104.4572 C   0  0  0  0  0  0  0  0  0  0  0  0
   29.3071   34.4624  103.6834 N   0  0  0  0  0  0  0  0  0  0  0  0
   24.0836   33.1439  106.3446 O   0  0  0  0  0  0  0  0  0  0  0  0
  5  3  1  0
  8  2  2  0
  9  6  1  0
 10  3  1  0
 12  9  2  0
 13  5  1  0
 14  6  3  0
 15  9  1  0
 17 14  1  0
 18  7  2  0
 18 11  1  0
 19  1  1  0
 19 16  1  0
 20  2  1  0
 20 16  1  0
 21  1  1  0
 21 15  1  0
 21 18  1  0
 22  4  1  0
 22 17  1  0
 23  2  1  0
 23  5  1  0
 24 21  1  0
M  END
>  <ID>  (1) 
conformer_0

$$$$
