
     RDKit          3D

 23 22  0  0  0  0  0  0  0  0999 V2000
   26.1799   34.6393  102.9701 C   0  0  0  0  0  0  0  0  0  0  0  0
   20.4951   34.3996  106.2689 C   0  0  0  0  0  0  0  0  0  0  0  0
   26.0582   34.4973  106.8337 C   0  0  0  0  0  0  0  0  0  0  0  0
   31.1078   34.1067  103.6202 C   0  0  0  0  0  0  0  0  0  0  0  0
   29.7481   32.6276  102.8358 C   0  0  0  0  0  0  0  0  0  0  0  0
   21.8902   33.7838  106.4853 C   0  0  0  0  0  0  0  0  0  0  0  0
   18.2382   34.6888  105.0832 C   0  0  0  0  0  0  0  0  0  0  0  0
   26.7806   34.8084  104.6374 C   0  0  0  0  0  0  0  0  0  0  0  0
   24.9895   34.5207  108.1689 O   0  0  0  0  0  0  0  0  0  0  0  0
   26.9799   33.5549  107.4438 O   0  0  0  0  0  0  0  0  0  0  0  0
   29.6264   36.1794  103.9754 O   0  0  0  0  0  0  0  0  0  0  0  0
   23.0984   34.2618  105.8131 N   0  0  0  0  0  0  0  0  0  0  0  0
   23.2347   32.6616  106.4633 O   0  0  0  0  0  1  0  0  0  0  0  0
   25.0497   34.3159  103.4336 C   0  0  0  0  0  0  0  0  0  0  0  0
   29.1402   34.6711  103.6698 C   0  0  0  0  0  0  0  0  0  0  0  0
   17.9104   36.6862  104.5901 O   0  0  0  0  0  0  0  0  0  0  0  0
   19.1954   34.4147  105.9620 C   0  0  0  0  0  0  0  0  0  0  0  0
   32.3252   34.0774  101.8418 O   0  0  0  0  0  0  0  0  0  0  0  0
   32.0267   34.2437  102.1393 N   0  0  0  0  0  0  0  0  0  0  0  0
   24.6647   34.1548  105.8967 C   0  0  0  0  0  0  0  0  0  0  0  0
   31.4668   33.3547  104.1981 C   0  0  0  0  0  0  0  0  0  0  0  0
   17.1995   36.2800  104.1019 C   0  0  0  0  0  0  0  0  0  0  0  0
   17.0047   36.3033  103.6853 N   0  0  0  0  0  0  0  0  0  0  0  0
  5  4  1  0
  6  2  2  0
  8  1  1  0
  8  3  1  0
  9  3  1  0
 10  3  1  0
 12  6  1  0
 13  6  1  0
 14  1  1  0
 15  1  1  0
 15  4  1  0
 15 11  1  0
 17  2  2  0
 17  7  1  0
 19  4  1  0
 19 18  1  0
 20  3  1  0
 20 12  1  0
 21  4  1  0
 22  7  1  0
 22 16  1  0
 23 22  1  0
M  RAD  1  13   2
M  END
>  <ID>  (1) 
conformer_0

$$$$
