
     RDKit          3D

 25 24  0  0  0  0  0  0  0  0999 V2000
   24.9315   34.3391  103.6619 C   0  0  0  0  0  0  0  0  0  0  0  0
   27.2072   34.9614  103.8879 C   0  0  0  0  0  0  0  0  0  0  0  0
   31.5665   34.2256  104.3094 C   0  0  0  0  0  0  0  0  0  0  0  0
   20.3281   34.3570  106.1300 C   0  0  0  0  0  0  0  0  0  0  0  0
   18.3057   34.7617  105.0874 C   0  0  0  0  0  0  0  0  0  0  0  0
   29.1903   34.7107  103.6166 C   0  0  0  0  0  0  0  0  0  0  0  0
   20.9547   33.2950  106.9264 C   0  0  0  0  0  0  0  0  0  0  0  0
   32.2716   34.0724  101.7751 O   0  0  0  0  0  0  0  0  0  0  0  0
   23.9631   32.5474  106.0871 O   0  0  0  0  0  0  0  0  0  0  0  0
   22.7052   34.1473  105.9002 N   0  0  0  0  0  0  0  0  0  0  0  0
   29.0621   36.2391  103.9509 O   0  0  0  0  0  0  0  0  0  0  0  0
   25.8720   34.4369  106.8080 C   0  0  0  0  0  0  0  0  0  0  0  0
   16.4101   35.3306  103.9110 O   0  0  0  0  0  0  0  0  0  0  0  0
   26.9410   33.5598  107.4414 O   0  0  0  0  0  0  0  0  0  0  0  0
   30.4129   32.5646  102.9682 C   0  0  0  0  0  0  0  0  0  0  0  0
   23.5425   33.5634  105.8603 C   0  0  0  0  0  0  0  0  0  0  0  0
   25.4540   34.6260  107.8118 O   0  0  0  0  0  0  0  0  0  0  0  0
   26.0597   35.0919  102.7516 C   0  0  0  0  0  0  0  0  0  0  0  0
   17.0803   35.6957  104.0018 C   0  0  0  0  0  0  0  0  0  0  0  0
   19.8291   32.9480  108.1836 N   0  0  0  0  0  0  0  0  0  0  0  0
   28.4928   34.5950  103.7806 N   0  0  0  0  0  0  0  0  0  0  0  0
   25.6633   34.5974  105.1707 C   0  0  0  0  0  0  0  0  0  0  0  0
   21.0584   32.4100  107.7335 O   0  0  0  0  0  0  0  0  0  0  0  0
   19.1018   33.7177  105.9359 C   0  0  0  0  0  0  0  0  0  0  0  0
   30.9777   33.6452  102.8773 C   0  0  0  0  0  0  0  0  0  0  0  0
  7  4  1  0
 11  6  2  0
 14 12  1  0
 16  7  1  0
 16  9  1  0
 16 10  1  0
 17 12  2  0
 18  1  1  0
 18  2  1  0
 19  5  1  0
 19 13  1  0
 21  2  1  0
 21  6  1  0
 22  1  1  0
 22 12  1  0
 22 16  1  0
 23  7  1  0
 23 20  1  0
 24  4  1  0
 24  5  1  0
 25  3  1  0
 25  6  1  0
 25  8  1  0
 25 15  1  0
M  END
>  <ID>  (1) 
conformer_0

$$$$
