
     RDKit          3D

 26 25  0  0  0  0  0  0  0  0999 V2000
   24.6719   34.4588  104.0272 C   0  0  1  0  0  0  0  0  0  0  0  0
   27.3069   34.8444  104.0040 C   0  0  0  0  0  0  0  0  0  0  0  0
   31.5530   34.3494  104.0357 C   0  0  0  0  0  0  0  0  0  0  0  0
   17.6197   35.1764  104.6095 C   0  0  0  0  0  0  0  0  0  0  0  0
   29.2158   35.2770  103.8795 C   0  0  0  0  0  0  0  0  0  0  0  0
   20.0895   34.1752  106.3975 C   0  0  0  0  0  0  0  0  0  0  0  0
   26.5301   33.2882  107.5051 O   0  0  0  0  0  0  0  0  0  0  0  0
   29.7667   36.5651  103.8959 O   0  0  0  0  0  0  0  0  0  0  0  0
   25.7325   35.0532  108.0036 O   0  0  0  0  0  0  0  0  0  0  0  0
   25.8621   34.7073  105.4644 C   0  0  0  0  0  0  0  0  0  0  0  0
   25.5752   34.0478  103.1254 C   0  0  0  0  0  0  0  0  0  0  0  0
   22.7512   32.3896  106.2721 O   0  0  0  0  0  0  0  0  0  0  0  0
   22.7187   34.1139  105.7543 N   0  0  0  0  0  0  0  0  0  0  0  0
   18.4775   33.9169  105.9186 C   0  0  0  0  0  0  0  0  0  0  0  0
   25.5925   34.1226  107.2933 C   0  0  0  0  0  0  0  0  0  0  0  0
   27.7808   34.8453  104.1231 N   0  0  0  0  0  0  0  0  0  0  0  0
   21.2050   33.7073  106.2110 C   0  0  0  0  0  0  0  0  0  0  0  0
   17.1869   34.6904  104.3029 O   0  0  0  0  0  0  0  0  0  0  0  0
   30.5915   32.7578  103.1558 C   0  0  0  0  0  0  0  0  0  0  0  0
   17.0709   36.5957  103.7286 N   0  0  0  0  0  0  0  0  0  0  0  0
   16.5585   36.8679  103.1102 O   0  0  0  0  0  0  0  0  0  0  0  0
   32.0106   34.2052  102.2117 N   0  0  0  0  0  0  0  0  0  0  0  0
   23.8647   33.6413  105.6192 C   0  0  2  0  0  0  0  0  0  0  0  0
   26.3890   35.3282  102.7225 C   0  0  0  0  0  0  0  0  0  0  0  0
   30.3341   33.6538  103.0396 C   0  0  1  0  0  0  0  0  0  0  0  0
   29.9670   34.5776  103.4980 N   0  0  0  0  0  0  0  0  0  0  0  0
  8  5  2  0
  1 10  1  1
 11  1  1  0
 14  4  1  0
 14  6  1  0
 15  7  1  0
 15  9  1  0
 15 10  1  0
 16  2  2  3
 16  5  1  0
 17  6  1  0
 17 13  1  0
 18  4  2  0
 20  4  1  0
 21 20  1  0
 22  3  1  0
 23  1  1  0
 23 12  1  6
 23 13  1  0
 24  2  1  0
 24 11  1  0
 25  3  1  0
 25 19  1  1
 26  5  1  0
 26 25  1  0
M  END
>  <ID>  (1) 
conformer_0

$$$$
