
     RDKit          3D

 23 23  0  0  0  0  0  0  0  0999 V2000
   26.4465   35.5195  102.5407 C   0  0  0  0  0  0  0  0  0  0  0  0
   31.2484   33.8640  103.3813 C   0  0  0  0  0  0  0  0  0  0  0  0
   25.0925   34.4332  105.3377 C   0  0  0  0  0  0  0  0  0  0  0  0
   19.5350   34.0666  106.2917 C   0  0  0  0  0  0  0  0  0  0  0  0
   30.0123   32.5110  102.9054 C   0  0  0  0  0  0  0  0  0  0  0  0
   16.5510   34.1248  104.0028 C   0  0  0  0  0  0  0  0  0  0  0  0
   30.0994   34.6662  103.7394 C   0  0  0  0  0  0  0  0  0  0  0  0
   25.3516   34.8908  102.8660 C   0  0  0  0  0  0  0  0  0  0  0  0
   32.2038   34.0429  101.7900 O   0  0  0  0  0  0  0  0  0  0  0  0
   26.7570   33.3465  107.4985 O   0  0  0  0  0  0  0  0  0  0  0  0
   21.8987   34.0023  106.2820 C   0  0  0  0  0  0  0  0  0  0  0  0
   24.9634   34.4444  108.2011 O   0  0  0  0  0  0  0  0  0  0  0  0
   29.4783   36.4396  103.7673 O   0  0  0  0  0  0  0  0  0  0  0  0
   27.5851   34.9801  104.1173 C   0  0  0  0  0  0  0  0  0  0  0  0
   27.4667   34.7803  104.8750 O   0  0  0  0  0  0  0  0  0  0  0  0
   22.5609   34.5341  105.9048 N   0  0  0  0  0  0  0  0  0  0  0  0
   18.7469   34.1858  105.5657 C   0  0  0  0  0  0  0  0  0  0  0  0
   22.8764   33.0345  106.0897 O   0  0  0  0  0  0  0  0  0  0  0  0
   25.6633   34.3087  107.0000 C   0  0  0  0  0  0  0  0  0  0  0  0
   17.4638   34.4402  105.0417 N   0  0  0  0  0  0  0  0  0  0  0  0
   24.8165   34.0716  103.8823 C   0  0  0  0  0  0  0  0  0  0  0  0
   17.2901   35.8128  104.4528 C   0  0  0  0  0  0  0  0  0  0  0  0
   31.9025   34.8702  104.8429 O   0  0  0  0  0  0  0  0  0  0  0  0
  5  2  1  0
  7  2  1  0
  8  1  1  0
  9  2  1  0
 11  4  1  0
 13  7  1  0
 14  1  1  0
 14 13  1  0
 15 14  2  0
 16 11  1  0
 17  4  1  0
 18 11  1  0
 19  3  1  0
 19 10  1  0
 19 12  2  0
 20  6  1  0
 20 17  1  0
 21  3  1  0
 21  8  1  0
 21 11  1  0
 22  6  1  0
 22 20  1  0
 23  2  1  0
M  END
>  <ID>  (1) 
conformer_0

$$$$
