
     RDKit          3D

 25 24  0  0  0  0  0  0  0  0999 V2000
   25.7480   35.1455  102.4703 C   0  0  0  0  0  0  0  0  0  0  0  0
   30.3530   33.6542  102.9337 C   0  0  0  0  0  0  0  0  0  0  0  0
   24.6443   34.1824  105.9485 C   0  0  0  0  0  0  0  0  0  0  0  0
   19.9657   34.1830  106.1760 C   0  0  0  0  0  0  0  0  0  0  0  0
   31.5022   33.9688  103.8927 C   0  0  0  0  0  0  0  0  0  0  0  0
   17.0033   33.7703  104.4038 C   0  0  0  0  0  0  0  0  0  0  0  0
   27.9677   34.6600  103.5706 C   0  0  0  0  0  0  0  0  0  0  0  0
   31.9999   34.2052  101.9139 O   0  0  0  0  0  0  0  0  0  0  0  0
   21.8053   33.6657  106.7021 C   0  0  0  0  0  0  0  0  0  0  0  0
   26.8133   33.2901  107.5033 O   0  0  0  0  0  0  0  0  0  0  0  0
   24.8689   34.5545  108.0512 O   0  0  0  0  0  0  0  0  0  0  0  0
   22.8065   34.2479  105.9239 N   0  0  0  0  0  0  0  0  0  0  0  0
   29.1356   36.3818  103.9953 O   0  0  0  0  0  0  0  0  0  0  0  0
   17.5697   34.8943  104.6310 N   0  0  0  0  0  0  0  0  0  0  0  0
   19.0592   34.4418  105.4455 C   0  0  0  0  0  0  0  0  0  0  0  0
   31.7792   34.7507  104.8532 O   0  0  0  0  0  0  0  0  0  0  0  0
   26.1652   34.3355  106.8525 C   0  0  0  0  0  0  0  0  0  0  0  0
   26.2571   34.7565  104.7021 C   0  0  0  0  0  0  0  0  0  0  0  0
   21.7829   32.6588  107.0355 O   0  0  0  0  0  0  0  0  0  0  0  0
   17.0270   37.0640  103.6275 N   0  0  0  0  0  0  0  0  0  0  0  0
   27.7357   34.5352  104.6660 O   0  0  0  0  0  0  0  0  0  0  0  0
   17.6575   36.0367  104.6612 C   0  0  0  0  0  0  0  0  0  0  0  0
   25.1697   34.4086  103.4381 C   0  0  0  0  0  0  0  0  0  0  0  0
   29.9053   35.2288  103.7720 C   0  0  0  0  0  0  0  0  0  0  0  0
   16.0660   35.2487  103.2569 C   0  0  0  0  0  0  0  0  0  0  0  0
  5  2  1  0
  8  2  1  0
  9  4  1  0
 12  3  1  0
 12  9  1  0
 14  6  1  0
 15  4  3  0
 15 14  1  0
 16  5  1  0
 17  3  1  0
 17 10  1  0
 17 11  1  0
 18  3  1  0
 19  9  2  0
 21  7  1  0
 21 18  1  0
 22 14  1  0
 22 20  1  0
 23  1  1  0
 23 18  1  0
 24  2  1  0
 24  7  1  0
 24 13  1  0
 25  6  1  0
M  END
>  <ID>  (1) 
conformer_0

$$$$
