
     RDKit          3D

 20 20  0  0  0  0  0  0  0  0999 V2000
   25.1967   34.6803  103.4642 C   0  0  0  0  0  0  0  0  0  0  0  0
   23.9154   34.3885  105.6898 C   0  0  0  0  0  0  0  0  0  0  0  0
   30.9869   34.0152  103.4958 C   0  0  0  0  0  0  0  0  0  0  0  0
   28.8085   34.6004  103.7348 C   0  0  0  0  0  0  0  0  0  0  0  0
   19.7126   34.6389  105.9492 C   0  0  0  0  0  0  0  0  0  0  0  0
   16.8245   35.5699  103.9167 C   0  0  0  0  0  0  0  0  0  0  0  0
   30.2371   32.7269  102.9221 C   0  0  0  0  0  0  0  0  0  0  0  0
   25.4272   34.5620  107.9581 O   0  0  0  0  0  0  0  0  0  0  0  0
   27.2589   33.4285  107.4154 O   0  0  0  0  0  0  0  0  0  0  0  0
   20.9673   33.7113  106.4429 C   0  0  0  0  0  0  0  0  0  0  0  0
   20.5547   32.7955  107.4030 O   0  0  0  0  0  0  0  0  0  0  0  0
   32.1993   34.0506  101.8468 O   0  0  0  0  0  0  0  0  0  0  0  0
   17.8260   37.0180  104.3790 O   0  0  0  0  0  0  0  0  0  0  0  0
   29.2960   35.9007  104.0402 O   0  0  0  0  0  0  0  0  0  0  0  0
   26.5330   34.9139  104.5638 C   0  0  0  0  0  0  0  0  0  0  0  0
   26.3670   35.1304  102.6394 C   0  0  0  0  0  0  0  0  0  0  0  0
   17.3609   35.0643  104.5315 N   0  0  0  0  0  0  0  0  0  0  0  0
   25.9871   34.3740  106.6025 C   0  0  0  0  0  0  0  0  0  0  0  0
   18.1465   34.5476  105.1164 C   0  0  0  0  0  0  0  0  0  0  0  0
   22.6539   32.8870  106.2539 O   0  0  0  0  0  0  0  0  0  0  0  0
  4  3  1  0
  7  3  1  0
 10  5  1  0
 11 10  2  0
 12  3  1  0
 13  6  1  0
 14  4  1  0
 15  1  1  0
 15  4  1  0
 16  1  1  0
 16 15  1  0
 17  6  1  0
 18  2  1  0
 18  8  1  0
 18  9  1  0
 18 15  1  0
 19  5  1  0
 19 17  1  0
 20  2  1  0
 20 10  1  0
M  END
>  <ID>  (1) 
conformer_0

$$$$
