
     RDKit          3D

 19 18  0  0  0  0  0  0  0  0999 V2000
   25.6785   34.9852  102.6290 C   0  0  0  0  0  0  0  0  0  0  0  0
   19.3279   34.2145  105.7322 C   0  0  0  0  0  0  0  0  0  0  0  0
   31.4426   34.0671  103.8599 C   0  0  0  0  0  0  0  0  0  0  0  0
   28.7538   34.6927  103.9176 C   0  0  0  0  0  0  0  0  0  0  0  0
   17.5294   35.0600  104.8347 C   0  0  0  0  0  0  0  0  0  0  0  0
   32.1634   34.1319  101.8578 O   0  0  0  0  0  0  0  0  0  0  0  0
   30.5249   33.4925  102.9475 C   0  0  0  0  0  0  0  0  0  0  0  0
   22.0477   33.5710  106.1990 C   0  0  0  0  0  0  0  0  0  0  0  0
   24.9145   34.1863  103.6585 C   0  0  0  0  0  0  0  0  0  0  0  0
   26.8413   33.5515  107.2542 O   0  0  0  0  0  0  0  0  0  0  0  0
   25.1236   34.6243  108.2204 O   0  0  0  0  0  0  0  0  0  0  0  0
   29.0379   36.2690  104.1635 O   0  0  0  0  0  0  0  0  0  0  0  0
   22.7651   32.4795  106.1373 O   0  0  0  0  0  0  0  0  0  0  0  0
   20.7637   34.4313  106.3435 C   0  0  0  0  0  0  0  0  0  0  0  0
   23.0318   34.3047  105.7133 N   0  0  0  0  0  0  0  0  0  0  0  0
   26.2422   34.4654  106.8738 C   0  0  0  0  0  0  0  0  0  0  0  0
   29.0126   34.4131  103.7862 N   0  0  0  0  0  0  0  0  0  0  0  0
   26.8769   34.8456  104.6261 C   0  0  0  0  0  0  0  0  0  0  0  0
   24.6244   34.0547  105.2350 C   0  0  0  0  0  0  0  0  0  0  0  0
  5  2  1  0
  7  3  1  0
  7  6  1  0
  9  1  1  0
 12  4  2  0
 13  8  2  0
 14  2  1  0
 14  8  1  0
 15  8  1  0
 16 10  1  0
 16 11  1  0
 17  4  1  0
 17  7  1  0
 18  4  1  0
 18  9  1  0
 19  9  1  0
 19 15  1  0
 19 16  1  0
M  END
>  <ID>  (1) 
conformer_0

$$$$
