
     RDKit          3D

 23 22  0  0  0  0  0  0  0  0999 V2000
   25.8819   34.6345  103.1111 C   0  0  1  0  0  0  0  0  0  0  0  0
   19.1010   34.3382  106.1823 C   0  0  0  0  0  0  0  0  0  0  0  0
   28.1787   34.5235  103.6935 C   0  0  0  0  0  0  0  0  0  0  0  0
   31.2478   33.6003  103.0509 C   0  0  0  0  0  0  0  0  0  0  0  0
   30.3817   34.7426  103.9622 C   0  0  1  0  0  0  0  0  0  0  0  0
   18.2362   34.2562  105.2652 C   0  0  0  0  0  0  0  0  0  0  0  0
   25.3023   34.7208  108.1595 O   0  0  0  0  0  0  0  0  0  0  0  0
   30.2682   32.7646  102.9730 C   0  0  0  0  0  0  0  0  0  0  0  0
   29.3196   36.2489  104.0003 O   0  0  0  0  0  0  0  0  0  0  0  0
   25.7285   34.2974  107.1218 C   0  0  0  0  0  0  0  0  0  0  0  0
   22.8498   32.5396  106.7278 O   0  0  0  0  0  0  0  0  0  0  0  0
   22.7314   34.1494  105.7765 N   0  0  0  0  0  0  0  0  0  0  0  0
   21.7991   33.4858  106.2363 C   0  0  0  0  0  0  0  0  0  0  0  0
   26.4192   33.3244  107.5887 O   0  0  0  0  0  0  0  0  0  0  0  0
   17.4684   34.8724  104.7370 N   0  0  0  0  0  0  0  0  0  0  0  0
   16.5506   36.4597  103.5160 N   0  0  0  0  0  0  0  0  0  0  0  0
   24.8158   34.2948  103.7167 C   0  0  0  0  0  0  0  0  0  0  0  0
   32.2402   33.7783  101.8680 O   0  0  0  0  0  0  0  0  0  0  0  0
   17.0751   35.8355  104.1622 C   0  0  0  0  0  0  0  0  0  0  0  0
   28.7986   34.4109  103.7926 N   0  0  0  0  0  0  0  0  0  0  0  0
   20.2739   34.2341  106.2393 C   0  0  0  0  0  3  0  0  0  0  0  0
   26.3779   34.9592  105.0329 C   0  0  0  0  0  0  0  0  0  0  0  0
   24.4874   34.0001  105.6980 C   0  0  0  0  0  0  0  0  0  0  0  0
  3  1  1  0
  5  4  1  0
  6  2  1  0
  8  4  2  3
  5  9  1  6
 10  7  1  0
 13 11  2  0
 13 12  1  0
 14 10  1  0
 15  6  1  0
 17  1  1  0
 18  4  1  0
 19 15  1  0
 19 16  1  0
 20  3  1  0
 20  5  1  0
 21  2  2  3
 21 13  1  0
  1 22  1  1
 23 10  1  0
 23 12  1  0
 23 17  2  3
M  RAD  1  21   2
M  END
>  <ID>  (1) 
conformer_0

$$$$
