
     RDKit          3D

 25 24  0  0  0  0  0  0  0  0999 V2000
   25.0146   34.4093  103.1816 C   0  0  0  0  0  0  0  0  0  0  0  0
   27.5394   34.8251  103.8040 C   0  0  0  0  0  0  0  0  0  0  0  0
   31.2009   33.9960  103.5459 C   0  0  1  0  0  0  0  0  0  0  0  0
   29.6111   34.5560  103.4737 C   0  0  0  0  0  0  0  0  0  0  0  0
   20.1254   34.2836  105.7491 C   0  0  0  0  0  0  0  0  0  0  0  0
   17.2753   35.4297  104.2133 C   0  0  0  0  0  0  0  0  0  0  0  0
   30.1642   32.6998  102.9031 C   0  0  0  0  0  0  0  0  0  0  0  0
   27.0238   33.3559  107.6436 O   0  0  0  0  0  0  0  0  0  0  0  0
   29.8951   36.3614  103.8967 O   0  0  0  0  0  0  0  0  0  0  0  0
   25.0842   34.7232  108.3807 O   0  0  0  0  0  0  0  0  0  0  0  0
   21.2000   33.5280  106.2603 C   0  0  0  0  0  0  0  0  0  0  0  0
   22.9271   34.1113  105.7220 N   0  0  0  0  0  0  0  0  0  0  0  0
   25.7702   34.1635  107.2207 C   0  0  0  0  0  0  0  0  0  0  0  0
   24.2474   32.4628  105.9743 O   0  0  0  0  0  0  0  0  0  0  0  0
   17.6707   34.6564  104.9551 N   0  0  0  0  0  0  0  0  0  0  0  0
   25.9293   34.7844  104.9439 C   0  0  1  0  0  0  0  0  0  0  0  0
   24.3992   33.9582  105.7804 C   0  0  1  0  0  0  0  0  0  0  0  0
   18.1257   36.7505  104.4221 O   0  0  0  0  0  0  0  0  0  0  0  0
   25.8313   35.0899  102.5436 C   0  0  0  0  0  0  0  0  0  0  0  0
   28.7660   34.6048  103.6700 N   0  0  0  0  0  0  0  0  0  0  0  0
   32.0457   34.3175  102.2583 N   0  0  0  0  0  0  0  0  0  0  0  0
   16.6044   36.2513  103.6178 N   0  0  0  0  0  0  0  0  0  0  0  0
   27.5661   34.2136  104.8465 O   0  0  0  0  0  0  0  0  0  0  0  0
   21.6310   32.5545  106.8101 O   0  0  0  0  0  0  0  0  0  0  0  0
   18.5905   33.9798  105.1673 C   0  0  0  0  0  0  0  0  0  0  0  0
  4  3  1  0
  3  7  1  6
  9  4  2  0
 11  5  1  0
 12 11  1  0
 13  8  1  0
 13 10  2  0
 15  6  1  0
 16  1  1  6
 17 12  1  0
 17 13  1  0
 17 14  1  6
 17 16  1  0
 18  6  2  0
 19  1  1  0
 20  2  1  0
 20  4  1  0
 21  3  1  0
 22  6  1  0
 23  2  1  0
 23 16  1  0
 24 11  2  0
 25  5  2  3
 25 15  1  0
M  END
>  <ID>  (1) 
conformer_0

$$$$
