
     RDKit          3D

 25 26  0  0  0  0  0  0  0  0999 V2000
   31.3640   34.4878  104.1995 C   0  0  0  0  0  0  0  0  0  0  0  0
   25.1868   34.7325  103.3818 C   0  0  1  0  0  0  0  0  0  0  0  0
   26.9118   34.9539  104.0206 C   0  0  2  0  0  0  0  0  0  0  0  0
   19.1317   34.2268  106.4014 C   0  0  0  0  0  0  0  0  0  0  0  0
   16.2144   34.3215  104.3899 C   0  0  0  0  0  0  0  0  0  0  0  0
   30.8072   33.7874  102.9989 C   0  0  1  0  0  0  0  0  0  0  0  0
   25.6910   34.1187  106.9969 C   0  0  0  0  0  0  0  0  0  0  0  0
   26.9603   33.2100  107.4794 O   0  0  0  0  0  0  0  0  0  0  0  0
   29.4308   36.4616  104.0095 O   0  0  0  0  0  0  0  0  0  0  0  0
   24.9644   34.5939  105.5321 C   0  0  0  0  0  0  0  0  0  0  0  0
   25.4275   34.5431  108.0146 O   0  0  0  0  0  0  0  0  0  0  0  0
   23.2712   32.7365  106.2059 O   0  0  0  0  0  0  0  0  0  0  0  0
   32.1281   34.1186  101.8569 O   0  0  0  0  0  0  0  0  0  0  0  0
   30.2959   32.5167  102.8788 C   0  0  0  0  0  0  0  0  0  0  0  0
   23.0405   34.5827  106.1610 N   0  0  0  0  0  0  0  0  0  0  0  0
   26.2170   35.4931  102.4228 C   0  0  0  0  0  0  0  0  0  0  0  0
   18.5086   34.1908  105.6243 C   0  0  0  0  0  0  0  0  0  0  0  0
   17.5889   34.4107  105.0277 N   0  0  0  0  0  0  0  0  0  0  0  0
   22.3113   34.1078  106.1737 C   0  0  2  0  0  0  0  0  0  0  0  0
   28.8541   34.6290  103.5720 N   0  0  0  0  0  0  0  0  0  0  0  0
   32.1685   34.2932  105.0708 O   0  0  0  0  0  0  0  0  0  0  0  0
   28.9720   34.8621  103.4509 C   0  0  0  0  0  0  0  0  0  0  0  0
   17.1908   35.8736  104.3296 C   0  0  0  0  0  0  0  0  0  0  0  0
   27.5519   34.6741  104.8880 O   0  0  0  0  0  0  0  0  0  0  0  0
   20.6880   34.2559  106.1556 C   0  0  0  0  0  0  0  0  0  0  0  0
  3  2  1  0
  6  1  1  0
  8  7  1  0
  2 10  1  1
 10  7  1  0
 11  7  1  0
 13  6  1  0
  6 14  1  1
 16  2  1  0
 16  3  1  0
 17  4  1  0
 18  5  1  0
 18 17  1  0
 19  7  1  0
 19 12  1  0
 19 15  1  6
 21  1  1  0
 22  6  1  0
 22  9  1  0
 22 20  2  3
 23  5  1  0
 23 18  1  0
  3 24  1  6
 24 20  1  0
 25  4  1  0
 25 19  1  0
M  END
>  <ID>  (1) 
conformer_0

$$$$
