
     RDKit          3D

 10  9  0  0  0  0  0  0  0  0999 V2000
  -22.4954   25.0353   -5.8032 C   0  0  0  0  0  0  0  0  0  0  0  0
  -23.6958   25.5228   -1.2662 C   0  0  0  0  0  0  0  0  0  0  0  0
  -24.1990   25.0390   -3.3388 C   0  0  1  0  0  0  0  0  0  0  0  0
  -21.6530   25.5463   -5.0656 C   0  0  0  0  0  0  0  0  0  0  0  0
  -24.5630   24.8530   -2.2750 N   0  0  0  0  0  0  0  0  0  0  0  0
  -23.1874   25.6040   -2.9922 N   0  0  0  0  0  0  0  0  0  0  0  0
  -20.7412   25.7663   -4.7752 N   0  0  0  0  0  0  0  0  0  0  0  0
  -22.3801   25.5790   -2.9382 C   0  0  0  0  0  0  0  0  0  0  0  0
  -21.8260   25.9391   -2.1006 N   0  0  0  0  0  0  0  0  0  0  0  0
  -23.7857   24.7173   -5.0223 C   0  0  0  0  0  0  0  0  0  0  0  0
  4  1  1  0
  5  2  1  0
  3  5  1  1
  6  3  1  0
  7  4  1  0
  8  6  1  0
  9  8  1  0
 10  1  2  3
 10  3  1  0
M  END
>  <ID>  (1) 
conformer_0

$$$$
