
     RDKit          3D

  8  7  0  0  0  0  0  0  0  0999 V2000
  -23.8827   25.4626   -1.5144 C   0  0  0  0  0  0  0  0  0  0  0  0
  -21.9340   25.4014   -4.9031 C   0  0  0  0  0  0  0  0  0  0  0  0
  -24.2399   24.6207   -2.6054 N   0  0  0  0  0  0  0  0  0  0  0  0
  -23.2918   24.7172   -5.1991 C   0  0  0  0  0  0  0  0  0  0  0  0
  -20.9519   25.7623   -5.2949 N   0  0  0  0  0  0  0  0  0  0  0  0
  -23.6782   24.7281   -3.5451 C   0  0  0  0  0  0  0  0  0  0  0  0
  -22.3100   25.6902   -2.9364 C   0  0  0  0  0  0  0  0  0  0  0  0
  -21.5119   25.6968   -2.7955 N   0  0  0  0  0  0  0  0  0  0  0  0
  3  1  1  0
  4  2  1  0
  5  2  1  0
  6  3  1  0
  6  4  2  3
  7  6  1  0
  8  7  1  0
M  END
>  <ID>  (1) 
conformer_0

$$$$
