
     RDKit          3D

  8 10  0  0  0  0  0  0  0  0999 V2000
  -23.3612   25.7068   -1.6744 C   0  0  0  0  0  0  0  0  0  0  0  0
  -22.1434   25.2860   -5.1101 C   0  0  0  0  0  0  0  0  0  0  0  0
  -23.5251   24.7290   -5.1469 C   0  0  0  0  0  0  0  0  0  0  0  0
  -24.3341   25.0193   -2.3320 N   0  0  0  0  0  0  0  0  0  0  0  0
  -24.0326   24.9643   -3.3883 C   0  0  0  0  0  0  0  0  0  0  0  0
  -22.9566   25.4081   -3.0673 N   0  0  0  0  0  0  0  0  0  0  0  0
  -21.1625   25.4586   -4.3677 N   0  0  0  0  0  0  0  0  0  0  0  0
  -22.0655   25.6213   -3.4260 C   0  0  0  0  0  0  0  0  0  0  0  0
  3  2  1  0
  4  1  2  0
  5  3  2  0
  5  4  1  0
  6  1  1  0
  6  5  1  0
  7  2  1  0
  8  2  2  0
  8  6  1  0
  8  7  1  0
M  END
>  <ID>  (1) 
conformer_0

$$$$
