
     RDKit          3D

 11 10  0  0  0  0  0  0  0  0999 V2000
  -23.7899   25.6433   -1.4787 C   0  0  0  0  0  0  0  0  0  0  0  0
  -24.4290   25.2170   -1.8975 N   0  0  0  0  0  0  0  0  0  0  0  0
  -20.4783   25.0254   -4.5641 O   0  0  0  0  0  0  0  0  0  0  0  0
  -23.7668   25.1162   -3.7411 C   0  0  0  0  0  0  0  0  0  0  0  0
  -21.4192   26.1930   -5.6218 O   0  0  0  0  0  1  0  0  0  0  0  0
  -22.0279   25.1739   -5.1671 P   0  0  0  0  0  4  0  0  0  0  0  0
  -22.9264   24.6408   -6.2001 O   0  0  0  0  0  0  0  0  0  0  0  0
  -21.7881   25.5869   -1.9469 O   0  0  0  0  0  0  0  0  0  0  0  0
  -23.9044   24.4026   -4.5431 C   0  0  0  0  0  0  0  0  0  0  0  0
  -22.9847   25.5262   -3.0760 N   0  0  0  0  0  0  0  0  0  0  0  0
  -22.4221   25.5662   -2.5886 C   0  0  0  0  0  0  0  0  0  0  0  0
  2  1  2  3
  6  3  1  0
  6  5  1  0
  7  6  1  0
  9  4  1  0
  9  6  1  0
 10  4  1  0
 11  1  1  0
 11  8  2  0
 11 10  1  0
M  RAD  2   5   2   6   2
M  END
>  <ID>  (1) 
conformer_0

$$$$
