
     RDKit          3D

  7  7  0  0  0  0  0  0  0  0999 V2000
  -23.5966   25.0675   -3.2313 C   0  0  0  0  0  0  0  0  0  0  0  0
  -23.0344   24.8496   -5.3142 C   0  0  0  0  0  0  0  0  0  0  0  0
  -23.5932   25.7572   -1.4584 C   0  0  0  0  0  0  0  0  0  0  0  0
  -24.5460   24.8206   -2.5039 N   0  0  0  0  0  0  0  0  0  0  0  0
  -22.0518   25.4832   -4.3518 C   0  0  0  0  0  0  0  0  0  0  0  0
  -22.9574   25.7080   -2.9807 N   0  0  0  0  0  0  0  0  0  0  0  0
  -20.9991   26.1196   -5.2604 N   0  0  0  0  0  0  0  0  0  0  0  0
  4  1  2  0
  4  3  1  0
  5  2  1  0
  6  1  1  0
  6  3  1  0
  6  5  1  0
  7  5  1  0
M  END
>  <ID>  (1) 
conformer_0

$$$$
