
     RDKit          3D

  8  8  0  0  0  0  0  0  0  0999 V2000
  -23.6809   25.5802   -1.4877 C   0  0  0  0  0  0  0  0  0  0  0  0
  -23.1612   25.2602   -2.8915 C   0  0  2  0  0  0  0  0  0  0  0  0
  -24.3272   25.4315   -1.3277 N   0  0  0  0  0  0  0  0  0  0  0  0
  -21.4482   25.6241   -3.6363 N   0  0  0  0  0  0  0  0  0  0  0  0
  -22.6735   25.1682   -4.4434 C   0  0  0  0  0  0  0  0  0  0  0  0
  -23.1396   24.8029   -5.6007 C   0  0  0  0  0  0  0  0  0  0  0  0
  -24.3178   24.4150   -3.3304 N   0  0  0  0  0  0  0  0  0  0  0  0
  -22.1808   25.0494   -6.6165 O   0  0  0  0  0  0  0  0  0  0  0  0
  2  1  1  0
  3  1  2  3
  4  2  1  0
  5  2  1  0
  5  4  2  0
  6  5  1  0
  2  7  1  1
  8  6  1  0
M  END
>  <ID>  (1) 
conformer_0

$$$$
