
     RDKit          3D

  6  7  0  0  0  0  0  0  0  0999 V2000
  -23.2479   25.6347   -1.5644 C   0  0  0  0  0  0  0  0  0  0  0  0
  -23.1464   24.8261   -5.1331 C   0  0  0  0  0  0  0  0  0  0  0  0
  -24.2339   25.1571   -2.2119 N   0  0  0  0  0  0  0  0  0  0  0  0
  -23.4435   25.1898   -3.2736 C   0  0  0  0  0  0  0  0  0  0  0  0
  -22.9023   25.3635   -3.1618 N   0  0  0  0  0  0  0  0  0  0  0  0
  -21.9117   25.4342   -4.4878 C   0  0  0  0  0  0  0  0  0  0  0  0
  3  1  1  0
  4  2  2  0
  4  3  1  0
  5  1  1  0
  5  4  1  0
  6  2  1  0
  6  5  1  0
M  END
>  <ID>  (1) 
conformer_0

$$$$
