
     RDKit          3D

  7  6  0  0  0  0  0  0  0  0999 V2000
  -21.6370   25.4483   -4.8311 C   0  0  0  0  0  0  0  0  0  0  0  0
  -23.0511   24.9445   -5.2337 C   0  0  0  0  0  0  0  0  0  0  0  0
  -24.1100   25.6721   -1.3426 C   0  0  0  0  0  0  0  0  0  0  0  0
  -24.6926   24.9269   -2.6464 N   0  0  0  0  0  0  0  0  0  0  0  0
  -23.0919   25.3649   -2.7834 N   0  0  0  0  0  0  0  0  0  0  0  0
  -22.3835   25.5158   -2.8873 C   0  0  0  0  0  0  0  0  0  0  0  0
  -24.0953   24.9190   -3.6346 C   0  0  0  0  0  0  0  0  0  0  0  0
  2  1  1  0
  4  3  1  0
  6  5  2  3
  7  2  1  0
  7  4  2  3
  7  5  1  0
M  END
>  <ID>  (1) 
conformer_0

$$$$
