
     RDKit          3D

  9  9  0  0  0  0  0  0  0  0999 V2000
  -24.3699   25.4712   -1.0685 C   0  0  0  0  0  0  0  0  0  0  0  0
  -23.1690   25.0636   -5.2464 C   0  0  0  0  0  0  0  0  0  0  0  0
  -24.3652   25.1534   -2.0464 N   0  0  0  0  0  0  0  0  0  0  0  0
  -24.1299   25.0852   -3.4748 C   0  0  0  0  0  0  0  0  0  0  0  0
  -20.8056   25.6316   -4.8164 N   0  0  0  0  0  0  0  0  0  0  0  0
  -21.9480   25.5381   -1.4837 N   0  0  0  0  0  0  0  0  0  0  0  0
  -21.8785   25.2799   -5.1060 C   0  0  0  0  0  0  0  0  0  0  0  0
  -22.5835   25.5103   -1.7823 C   0  0  1  0  0  0  0  0  0  0  0  0
  -22.4355   25.5705   -3.4816 C   0  0  0  0  0  0  0  0  0  0  0  0
  3  1  1  0
  4  3  1  0
  7  2  2  3
  7  5  1  0
  8  3  1  0
  8  6  1  6
  9  4  2  0
  9  7  1  0
  9  8  1  0
M  END
>  <ID>  (1) 
conformer_0

$$$$
