
     RDKit          3D

  8  8  0  0  0  0  0  0  0  0999 V2000
  -23.9389   25.4306   -1.2342 C   0  0  0  0  0  0  0  0  0  0  0  0
  -22.5663   25.5903   -2.7047 C   0  0  0  0  0  0  0  0  0  0  0  0
  -23.1025   24.7627   -5.1083 C   0  0  0  0  0  0  0  0  0  0  0  0
  -24.4565   25.0189   -2.4333 N   0  0  0  0  0  0  0  0  0  0  0  0
  -20.6475   25.7309   -5.3466 N   0  0  0  0  0  0  0  0  0  0  0  0
  -23.9732   24.8524   -3.6163 C   0  0  0  0  0  0  0  0  0  0  0  0
  -21.3103   25.8409   -3.0357 N   0  0  0  0  0  0  0  0  0  0  0  0
  -21.9226   25.4198   -4.6790 C   0  0  0  0  0  0  0  0  0  0  0  0
  4  1  1  0
  6  2  2  0
  6  3  1  0
  6  4  1  0
  7  2  1  0
  8  3  2  0
  8  5  1  0
  8  7  1  0
M  END
>  <ID>  (1) 
conformer_0

$$$$
