
     RDKit          3D

 11 13  0  0  0  0  0  0  0  0999 V2000
  -22.0924   25.2658   -5.7867 C   0  0  0  0  0  0  0  0  0  0  0  0
  -23.7226   25.0771   -4.0317 C   0  0  0  0  0  0  0  0  0  0  0  0
  -24.4440   25.4328   -1.4821 C   0  0  0  0  0  0  0  0  0  0  0  0
  -24.5189   25.1409   -2.3137 N   0  0  0  0  0  0  0  0  0  0  0  0
  -21.2688   25.5010   -5.0924 C   0  0  0  0  0  0  0  0  0  0  0  0
  -21.4631   25.6378   -2.4743 O   0  0  0  0  0  0  0  0  0  0  0  0
  -20.5316   25.7595   -4.4507 N   0  0  0  0  0  0  0  0  0  0  0  0
  -23.1044   25.3345   -2.9869 N   0  0  0  0  0  0  0  0  0  0  0  0
  -23.4451   24.6830   -5.3837 C   0  0  0  0  0  0  0  0  0  0  0  0
  -22.1209   25.5422   -3.4316 C   0  0  0  0  0  0  0  0  0  0  0  0
  -22.8880   25.6863   -1.4784 C   0  0  0  0  0  0  0  0  0  0  0  0
  4  2  2  0
  4  3  1  0
  5  1  1  0
  7  5  1  0
  8  2  1  0
  9  1  2  0
  9  2  1  0
 10  5  2  0
 10  6  1  0
 10  8  1  0
 11  3  2  0
 11  6  1  0
 11  8  1  0
M  END
>  <ID>  (1) 
conformer_0

$$$$
