
     RDKit          3D

 10  9  0  0  0  0  0  0  0  0999 V2000
  -23.8057   25.6226   -1.3156 C   0  0  0  0  0  0  0  0  0  0  0  0
  -23.8179   24.4696   -4.6123 C   0  0  0  0  0  0  0  0  0  0  0  0
  -21.7447   25.4870   -4.9957 C   0  0  0  0  0  0  0  0  0  0  0  0
  -24.6103   24.9182   -2.3168 N   0  0  0  0  0  0  0  0  0  0  0  0
  -20.7571   25.8760   -5.2605 N   0  0  0  0  0  0  0  0  0  0  0  0
  -21.7457   25.6659   -2.8168 N   0  0  0  0  0  0  0  0  0  0  0  0
  -24.1520   24.7483   -3.3875 C   0  0  0  0  0  0  0  0  0  0  0  0
  -22.8898   25.3226   -3.1083 N   0  0  0  0  0  0  0  0  0  0  0  0
  -22.4812   25.6227   -3.1166 C   0  0  0  0  0  0  0  0  0  0  0  0
  -22.5947   24.9059   -5.4226 C   0  0  0  0  0  0  0  0  0  0  0  0
  4  1  1  0
  5  3  1  0
  7  2  1  0
  7  4  2  3
  8  7  1  0
  9  6  2  3
  9  8  1  0
 10  2  1  0
 10  3  2  3
M  END
>  <ID>  (1) 
conformer_0

$$$$
