
     RDKit          3D

  7  7  0  0  0  0  0  0  0  0999 V2000
  -23.9554   25.4954   -1.3175 C   0  0  0  0  0  0  0  0  0  0  0  0
  -23.3502   24.7406   -5.2802 C   0  0  0  0  0  0  0  0  0  0  0  0
  -22.0453   25.4840   -4.8100 C   0  0  0  0  0  0  0  0  0  0  0  0
  -24.3135   25.0775   -2.2858 N   0  0  0  0  0  0  0  0  0  0  0  0
  -21.3578   25.5305   -3.5303 N   0  0  0  0  0  0  0  0  0  0  0  0
  -24.0293   24.9364   -3.5667 C   0  0  0  0  0  0  0  0  0  0  0  0
  -22.4344   25.4572   -2.6894 C   0  0  0  0  0  0  0  0  0  0  0  0
  3  2  1  0
  4  1  2  3
  5  3  1  0
  6  2  1  0
  6  4  1  0
  7  5  1  0
  7  6  2  0
M  END
>  <ID>  (1) 
conformer_0

$$$$
