
     RDKit          3D

  8  9  0  0  0  0  0  0  0  0999 V2000
  -23.8749   25.5814   -1.4590 C   0  0  0  0  0  0  0  0  0  0  0  0
  -23.7129   25.0390   -3.6472 C   0  0  0  0  0  0  0  0  0  0  0  0
  -23.4609   24.7302   -5.2586 C   0  0  0  0  0  0  0  0  0  0  0  0
  -24.3815   25.0781   -2.2860 N   0  0  0  0  0  0  0  0  0  0  0  0
  -21.0187   25.7146   -4.3761 N   0  0  0  0  0  0  0  0  0  0  0  0
  -22.0595   25.3223   -4.8751 C   0  0  0  0  0  0  0  0  0  0  0  0
  -22.2990   25.6869   -2.5605 C   0  0  0  0  0  0  0  0  0  0  0  0
  -22.8517   25.6343   -3.2067 N   0  0  0  0  0  0  0  0  0  0  0  0
  3  2  1  0
  4  1  1  0
  4  2  2  0
  6  3  1  0
  6  5  1  0
  7  1  2  0
  8  2  1  0
  8  6  1  0
  8  7  1  0
M  END
>  <ID>  (1) 
conformer_0

$$$$
