
     RDKit          3D

  9 10  0  0  0  0  0  0  0  0999 V2000
  -23.0863   25.5854   -1.9691 C   0  0  0  0  0  0  0  0  0  0  0  0
  -24.5498   24.7033   -3.1968 N   0  0  0  0  0  0  0  0  0  0  0  0
  -23.0626   24.7286   -5.1698 C   0  0  0  0  0  0  0  0  0  0  0  0
  -21.7273   25.5643   -4.5543 C   0  0  0  0  0  0  0  0  0  0  0  0
  -21.2862   25.9598   -5.1957 N   0  0  0  0  0  0  0  0  0  0  0  0
  -21.2640   25.5932   -2.9540 N   0  0  0  0  0  0  0  0  0  0  0  0
  -22.7487   25.2522   -1.5333 N   0  0  0  0  0  0  0  0  0  0  0  0
  -23.2470   24.9955   -3.6545 C   0  0  0  0  0  0  0  0  0  0  0  0
  -24.6315   25.3752   -1.7423 N   0  0  0  0  0  0  0  0  0  0  0  0
  4  3  1  0
  5  4  1  0
  6  4  1  0
  7  1  1  0
  8  1  1  0
  8  2  1  0
  8  3  1  0
  8  4  1  0
  9  1  1  0
  9  2  2  0
M  END
>  <ID>  (1) 
conformer_0

$$$$
