
     RDKit          3D

  8  8  0  0  0  0  0  0  0  0999 V2000
  -22.6493   24.7990   -5.7715 C   0  0  0  0  0  0  0  0  0  0  0  0
  -22.9939   25.6997   -2.0833 C   0  0  0  0  0  0  0  0  0  0  0  0
  -21.6458   25.5523   -4.7591 C   0  0  0  0  0  0  0  0  0  0  0  0
  -24.5002   24.8484   -2.2054 N   0  0  0  0  0  0  0  0  0  0  0  0
  -23.7328   24.4306   -4.9493 C   0  0  0  0  0  0  0  0  0  0  0  0
  -23.3212   25.0411   -3.6538 C   0  0  0  0  0  0  0  0  0  0  0  0
  -21.4263   25.9295   -3.2624 N   0  0  0  0  0  0  0  0  0  0  0  0
  -24.0631   25.8673   -0.6204 O   0  0  0  0  0  0  0  0  0  0  0  0
  3  1  1  0
  4  2  2  0
  5  1  2  3
  6  2  1  0
  6  4  1  0
  6  5  1  0
  7  3  1  0
  8  2  1  0
M  END
>  <ID>  (1) 
conformer_0

$$$$
