
     RDKit          3D

  7  7  0  0  0  0  0  0  0  0999 V2000
  -23.2208   25.3247   -3.1549 C   0  0  0  0  0  0  0  0  0  0  0  0
  -23.6396   25.6811   -1.3068 C   0  0  0  0  0  0  0  0  0  0  0  0
  -22.9763   24.7244   -5.4592 C   0  0  0  0  0  0  0  0  0  0  0  0
  -24.4645   25.1489   -2.2054 N   0  0  0  0  0  0  0  0  0  0  0  0
  -22.2111   25.3354   -4.7491 C   0  0  0  0  0  0  0  0  0  0  0  0
  -22.8872   25.6166   -2.9719 N   0  0  0  0  0  0  0  0  0  0  0  0
  -20.9991   25.7990   -4.3140 N   0  0  0  0  0  0  0  0  0  0  0  0
  4  1  2  0
  4  2  1  0
  5  1  1  0
  5  3  2  3
  6  1  1  0
  6  2  2  0
  7  5  1  0
M  END
>  <ID>  (1) 
conformer_0

$$$$
