
     RDKit          3D

  8  8  0  0  0  0  0  0  0  0999 V2000
  -23.2806   25.7430   -2.0436 C   0  0  0  0  0  0  0  0  0  0  0  0
  -22.4281   24.9815   -5.9732 C   0  0  0  0  0  0  0  0  0  0  0  0
  -24.3760   25.0880   -1.9969 N   0  0  0  0  0  0  0  0  0  0  0  0
  -23.3145   24.9919   -3.5896 C   0  0  2  0  0  0  0  0  0  0  0  0
  -21.7012   25.5667   -4.5413 C   0  0  0  0  0  0  0  0  0  0  0  0
  -23.4513   24.4961   -5.2944 C   0  0  0  0  0  0  0  0  0  0  0  0
  -20.6535   25.7818   -4.7265 N   0  0  0  0  0  0  0  0  0  0  0  0
  -21.8939   26.0275   -2.2350 N   0  0  0  0  0  0  0  0  0  0  0  0
  3  1  2  3
  4  1  1  0
  5  2  2  0
  5  4  1  0
  6  2  1  0
  4  6  1  6
  7  5  1  0
  8  1  1  0
M  END
>  <ID>  (1) 
conformer_0

$$$$
