
     RDKit          3D

  8  8  0  0  0  0  0  0  0  0999 V2000
  -23.8734   25.7294   -1.0912 C   0  0  0  0  0  0  0  0  0  0  0  0
  -23.1213   24.7219   -4.8307 C   0  0  0  0  0  0  0  0  0  0  0  0
  -21.6996   25.4707   -4.7581 C   0  0  2  0  0  0  0  0  0  0  0  0
  -24.2812   25.1517   -2.0381 N   0  0  0  0  0  0  0  0  0  0  0  0
  -24.1578   24.8883   -3.2838 C   0  0  1  0  0  0  0  0  0  0  0  0
  -21.4473   25.8633   -6.1214 O   0  0  0  0  0  0  0  0  0  0  0  0
  -20.5175   25.6439   -4.9621 N   0  0  0  0  0  0  0  0  0  0  0  0
  -22.5720   25.6408   -2.8257 C   0  0  0  0  0  0  0  0  0  0  0  0
  3  2  1  6
  4  1  2  3
  5  2  1  0
  5  4  1  0
  6  3  1  0
  7  3  1  0
  7  6  1  0
  5  8  1  6
M  END
>  <ID>  (1) 
conformer_0

$$$$
