
     RDKit          3D

  7  8  0  0  0  0  0  0  0  0999 V2000
  -23.5128   25.7225   -1.5374 C   0  0  0  0  0  0  0  0  0  0  0  0
  -23.4137   24.6864   -5.0793 C   0  0  0  0  0  0  0  0  0  0  0  0
  -22.0302   25.4142   -4.4070 C   0  0  0  0  0  0  0  0  0  0  0  0
  -24.5505   25.1223   -2.1907 N   0  0  0  0  0  0  0  0  0  0  0  0
  -21.0664   25.6997   -5.5544 N   0  0  0  0  0  0  0  0  0  0  0  0
  -23.5474   25.1600   -3.2155 C   0  0  0  0  0  0  0  0  0  0  0  0
  -21.5952   25.7204   -2.6125 N   0  0  0  0  0  0  0  0  0  0  0  0
  3  2  1  0
  4  1  2  0
  5  3  1  0
  6  1  1  0
  6  2  1  0
  6  3  1  0
  6  4  1  0
  7  3  1  0
M  END
>  <ID>  (1) 
conformer_0

$$$$
