
     RDKit          3D

  9  8  0  0  0  0  0  0  0  0999 V2000
  -22.3197   25.0073   -5.9674 C   0  0  0  0  0  0  0  0  0  0  0  0
  -23.8599   25.6227   -1.1326 C   0  0  0  0  0  0  0  0  0  0  0  0
  -23.8045   25.0143   -3.1287 C   0  0  0  0  0  0  0  0  0  0  0  0
  -24.4554   25.1127   -2.0284 N   0  0  0  0  0  0  0  0  0  0  0  0
  -22.3946   25.5420   -3.1876 C   0  0  0  0  0  0  0  0  0  0  0  0
  -23.4394   24.5272   -5.2558 C   0  0  0  0  0  0  0  0  0  0  0  0
  -22.8686   25.3246   -3.1000 N   0  0  0  0  0  0  0  0  0  0  0  0
  -21.0628   25.6509   -3.5737 N   0  0  0  0  0  0  0  0  0  0  0  0
  -21.4636   25.6083   -5.0416 C   0  0  0  0  0  0  0  0  0  0  0  0
  4  2  1  0
  4  3  2  3
  6  1  1  0
  7  3  1  0
  7  5  1  0
  8  5  1  0
  9  1  1  0
  9  8  1  0
M  END
>  <ID>  (1) 
conformer_0

$$$$
