
     RDKit          3D

  8  7  0  0  0  0  0  0  0  0999 V2000
  -22.2734   25.4887   -2.8638 C   0  0  0  0  0  0  0  0  0  0  0  0
  -22.0940   25.3469   -4.9029 C   0  0  0  0  0  0  0  0  0  0  0  0
  -20.9902   25.5020   -5.3980 N   0  0  0  0  0  0  0  0  0  0  0  0
  -24.2124   24.9354   -2.4381 N   0  0  0  0  0  0  0  0  0  0  0  0
  -23.3138   24.7324   -5.1514 C   0  0  0  0  0  0  0  0  0  0  0  0
  -23.9186   25.4026   -1.5140 C   0  0  0  0  0  0  0  0  0  0  0  0
  -21.5207   25.6877   -3.0350 N   0  0  0  0  0  0  0  0  0  0  0  0
  -23.6284   25.0223   -3.6781 C   0  0  0  0  0  0  0  0  0  0  0  0
  3  2  1  0
  5  2  2  3
  6  4  2  3
  7  1  1  0
  8  1  2  3
  8  4  1  0
  8  5  1  0
M  END
>  <ID>  (1) 
conformer_0

$$$$
