
     RDKit          3D

  6  6  0  0  0  0  0  0  0  0999 V2000
  -23.4203   25.7023   -1.4368 C   0  0  0  0  0  0  0  0  0  0  0  0
  -23.4852   24.6331   -4.7874 C   0  0  0  0  0  0  0  0  0  0  0  0
  -24.3880   24.9888   -2.1158 N   0  0  0  0  0  0  0  0  0  0  0  0
  -23.7706   25.0040   -2.9846 C   0  0  0  0  0  0  0  0  0  0  0  0
  -22.4412   25.4720   -3.9817 C   0  0  0  0  0  0  0  0  0  0  0  0
  -20.9995   25.7099   -5.2509 N   0  0  0  0  0  0  0  0  0  0  0  0
  3  1  1  0
  4  2  1  0
  4  3  2  3
  5  2  2  0
  5  4  1  0
  6  5  1  0
M  END
>  <ID>  (1) 
conformer_0

$$$$
