
     RDKit          3D

  6  6  0  0  0  0  0  0  0  0999 V2000
  -23.6935   25.5076   -1.7822 C   0  0  0  0  0  0  0  0  0  0  0  0
  -23.3089   24.7220   -4.9777 C   0  0  0  0  0  0  0  0  0  0  0  0
  -23.6029   25.0725   -3.3733 C   0  0  0  0  0  0  0  0  0  0  0  0
  -24.4995   25.0340   -2.4421 N   0  0  0  0  0  0  0  0  0  0  0  0
  -21.9069   25.4969   -4.1564 C   0  0  0  0  0  0  0  0  0  0  0  0
  -20.8473   25.9500   -4.4887 N   0  0  0  0  0  0  0  0  0  0  0  0
  3  2  1  0
  4  1  1  0
  4  3  2  3
  5  2  2  0
  5  3  1  0
  6  5  1  0
M  END
>  <ID>  (1) 
conformer_0

$$$$
