
     RDKit          3D

  7  7  0  0  0  0  0  0  0  0999 V2000
  -22.5379   25.7529   -2.4538 C   0  0  0  0  0  0  0  0  0  0  0  0
  -23.2252   24.8460   -5.2657 C   0  0  0  0  0  0  0  0  0  0  0  0
  -21.9462   25.5097   -4.8105 C   0  0  0  0  0  0  0  0  0  0  0  0
  -24.2422   25.0730   -2.5844 N   0  0  0  0  0  0  0  0  0  0  0  0
  -22.8161   25.3562   -3.3703 N   0  0  0  0  0  0  0  0  0  0  0  0
  -23.6311   26.0004   -1.0222 O   0  0  0  0  0  0  0  0  0  0  0  0
  -23.7279   24.8160   -3.4608 C   0  0  0  0  0  0  0  0  0  0  0  0
  3  2  2  0
  5  1  1  0
  5  3  1  0
  6  1  1  0
  7  2  1  0
  7  4  2  3
  7  5  1  0
M  END
>  <ID>  (1) 
conformer_0

$$$$
