
     RDKit          3D

  8  8  0  0  0  0  0  0  0  0999 V2000
  -24.6167   25.5714   -1.3151 C   0  0  0  0  0  0  0  0  0  0  0  0
  -22.0881   25.4074   -4.1485 C   0  0  0  0  0  0  0  0  0  0  0  0
  -24.3752   25.1408   -2.2399 N   0  0  0  0  0  0  0  0  0  0  0  0
  -23.0037   24.7889   -5.1483 C   0  0  0  0  0  0  0  0  0  0  0  0
  -20.5077   25.1324   -4.9900 O   0  0  0  0  0  0  0  0  0  0  0  0
  -23.8213   25.0083   -3.5666 C   0  0  0  0  0  0  0  0  0  0  0  0
  -21.3627   25.6308   -3.0503 N   0  0  0  0  0  0  0  0  0  0  0  0
  -22.8361   25.4962   -1.7970 C   0  0  0  0  0  0  0  0  0  0  0  0
  3  1  1  0
  4  2  1  0
  5  2  1  0
  6  2  1  0
  6  3  1  0
  6  4  1  0
  7  2  1  0
  8  3  1  0
M  END
>  <ID>  (1) 
conformer_0

$$$$
