
     RDKit          3D

  7  6  0  0  0  0  0  0  0  0999 V2000
  -23.2619   25.2223   -3.3529 C   0  0  0  0  0  0  0  0  0  0  0  0
  -22.8710   24.8843   -5.4258 C   0  0  0  0  0  0  0  0  0  0  0  0
  -24.2114   25.0672   -2.1437 N   0  0  0  0  0  0  0  0  0  0  0  0
  -23.5466   25.8510   -1.5303 C   0  0  0  0  0  0  0  0  0  0  0  0
  -20.9625   25.9081   -4.5852 N   0  0  0  0  0  0  0  0  0  0  0  0
  -22.9997   25.4826   -3.0288 N   0  0  0  0  0  0  0  0  0  0  0  0
  -21.9308   25.4182   -4.4807 C   0  0  1  0  0  0  0  0  0  0  0  0
  3  1  1  0
  4  3  2  3
  6  1  2  3
  7  1  1  0
  7  2  1  6
  7  5  1  0
M  END
>  <ID>  (1) 
conformer_0

$$$$
