
     RDKit          3D

  9 10  0  0  0  0  0  0  0  0999 V2000
  -23.8902   25.6535   -1.3954 C   0  0  0  0  0  0  0  0  0  0  0  0
  -23.2938   24.7794   -4.9615 C   0  0  0  0  0  0  0  0  0  0  0  0
  -24.5695   24.8338   -2.5159 N   0  0  0  0  0  0  0  0  0  0  0  0
  -21.7704   25.4435   -4.6863 C   0  0  0  0  0  0  0  0  0  0  0  0
  -24.3279   24.8050   -3.6810 C   0  0  0  0  0  0  0  0  0  0  0  0
  -20.8458   25.5703   -4.6432 N   0  0  0  0  0  0  0  0  0  0  0  0
  -22.7030   25.4469   -3.0317 N   0  0  0  0  0  0  0  0  0  0  0  0
  -21.5662   25.9324   -6.0439 O   0  0  0  0  0  0  0  0  0  0  0  0
  -22.3952   25.6499   -2.5954 C   0  0  0  0  0  0  0  0  0  0  0  0
  3  1  1  0
  4  2  1  0
  5  2  1  0
  5  3  2  0
  6  4  1  0
  7  4  1  0
  7  5  1  0
  8  4  1  0
  9  1  2  0
  9  7  1  0
M  END
>  <ID>  (1) 
conformer_0

$$$$
