
     RDKit          3D

 10 11  0  0  0  0  0  0  0  0999 V2000
  -21.9251   25.4321   -4.9728 C   0  0  0  0  0  0  0  0  0  0  0  0
  -24.1707   25.4787   -1.5048 C   0  0  0  0  0  0  0  0  0  0  0  0
  -23.1786   24.5152   -5.3117 C   0  0  0  0  0  0  0  0  0  0  0  0
  -24.8144   24.5642   -3.4624 N   0  0  0  0  0  0  0  0  0  0  0  0
  -20.8911   25.9138   -5.3849 N   0  0  0  0  0  0  0  0  0  0  0  0
  -22.7417   25.3378   -3.5480 C   0  0  1  0  0  0  0  0  0  0  0  0
  -24.1026   24.5942   -3.9059 C   0  0  0  0  0  0  0  0  0  0  0  0
  -24.0052   25.3396   -1.7032 N   0  0  0  0  0  0  0  0  0  0  0  0
  -21.1754   25.9566   -3.2169 N   0  0  0  0  0  0  0  0  0  0  0  0
  -22.4923   25.8400   -1.8881 C   0  0  0  0  0  0  0  0  0  0  0  0
  3  1  2  0
  5  1  1  0
  6  1  1  0
  7  3  1  0
  7  4  2  3
  7  6  1  0
  8  2  2  3
  6  9  1  1
 10  6  1  0
 10  8  1  0
 10  9  1  0
M  END
>  <ID>  (1) 
conformer_0

$$$$
