
     RDKit          3D

 10 10  0  0  0  0  0  0  0  0999 V2000
  -22.6241   25.6029   -2.1908 C   0  0  0  0  0  0  0  0  0  0  0  0
  -23.4571   24.7254   -5.1328 C   0  0  0  0  0  0  0  0  0  0  0  0
  -23.9257   25.4929   -0.9309 C   0  0  0  0  0  0  0  0  0  0  0  0
  -24.6243   25.1011   -2.2169 N   0  0  0  0  0  0  0  0  0  0  0  0
  -21.5251   26.0189   -6.4508 O   0  0  0  0  0  0  0  0  0  0  0  0
  -21.0178   25.7408   -4.8678 N   0  0  0  0  0  0  0  0  0  0  0  0
  -21.8982   25.5123   -4.8170 C   0  0  0  0  0  0  0  0  0  0  0  0
  -21.4091   25.5358   -2.9510 N   0  0  0  0  0  0  0  0  0  0  0  0
  -22.9283   25.4993   -2.9515 N   0  0  0  0  0  0  0  0  0  0  0  0
  -23.7510   25.0734   -3.6057 C   0  0  0  0  0  0  0  0  0  0  0  0
  3  1  1  0
  4  3  1  0
  6  5  1  0
  7  2  1  0
  7  6  1  0
  8  1  1  0
  9  1  1  0
 10  2  1  0
 10  4  2  0
 10  9  1  0
M  END
>  <ID>  (1) 
conformer_0

$$$$
