
     RDKit          3D

  8  8  0  0  0  0  0  0  0  0999 V2000
  -23.7010   25.4886   -1.3778 C   0  0  0  0  0  0  0  0  0  0  0  0
  -21.7442   25.4630   -4.8005 C   0  0  0  0  0  0  0  0  0  0  0  0
  -22.9120   25.1991   -5.2125 C   0  0  0  0  0  0  0  0  0  0  0  0
  -20.7883   25.5597   -5.3993 N   0  0  0  0  0  0  0  0  0  0  0  0
  -24.2992   24.8759   -2.3637 N   0  0  0  0  0  0  0  0  0  0  0  0
  -23.9141   25.0764   -3.6136 C   0  0  0  0  0  0  0  0  0  0  0  0
  -22.9441   25.5227   -2.9306 N   0  0  0  0  0  0  0  0  0  0  0  0
  -22.2420   25.5720   -2.7713 C   0  0  0  0  0  0  0  0  0  0  0  0
  3  2  2  3
  4  2  1  0
  5  1  1  0
  6  3  1  0
  6  5  1  0
  7  5  1  0
  7  6  1  0
  8  7  1  0
M  END
>  <ID>  (1) 
conformer_0

$$$$
