
     RDKit          3D

  7  8  0  0  0  0  0  0  0  0999 V2000
  -23.3882   25.6006   -1.6803 C   0  0  0  0  0  0  0  0  0  0  0  0
  -24.3724   24.8927   -2.3261 N   0  0  0  0  0  0  0  0  0  0  0  0
  -23.1483   24.9769   -5.1271 C   0  0  0  0  0  0  0  0  0  0  0  0
  -21.8315   25.5173   -4.2851 C   0  0  0  0  0  0  0  0  0  0  0  0
  -20.8654   25.6136   -5.2094 N   0  0  0  0  0  0  0  0  0  0  0  0
  -23.5013   25.0603   -3.4292 C   0  0  0  0  0  0  0  0  0  0  0  0
  -21.9657   25.8611   -1.9872 N   0  0  0  0  0  0  0  0  0  0  0  0
  2  1  1  0
  4  3  2  0
  5  4  1  0
  6  1  1  0
  6  2  1  0
  6  3  1  0
  6  4  1  0
  7  1  1  0
M  END
>  <ID>  (1) 
conformer_0

$$$$
