
     RDKit          3D

  8  8  0  0  0  0  0  0  0  0999 V2000
  -23.8725   25.5203   -1.3489 C   0  0  0  0  0  0  0  0  0  0  0  0
  -22.3575   25.2409   -4.7580 C   0  0  0  0  0  0  0  0  0  0  0  0
  -24.3056   24.9288   -2.4409 N   0  0  0  0  0  0  0  0  0  0  0  0
  -23.3456   24.6175   -5.4400 C   0  0  0  0  0  0  0  0  0  0  0  0
  -23.7913   24.8164   -3.5548 C   0  0  0  0  0  0  0  0  0  0  0  0
  -21.2417   25.7935   -5.4781 N   0  0  0  0  0  0  0  0  0  0  0  0
  -22.3227   26.1283   -2.1690 N   0  0  0  0  0  0  0  0  0  0  0  0
  -22.4428   25.7392   -2.7213 C   0  0  0  0  0  0  0  0  0  0  0  0
  3  1  2  0
  4  2  1  0
  5  2  1  0
  5  3  1  0
  6  2  1  0
  7  1  1  0
  8  5  2  0
  8  7  1  0
M  END
>  <ID>  (1) 
conformer_0

$$$$
