
     RDKit          3D

  7  6  0  0  0  0  0  0  0  0999 V2000
  -23.1060   25.5709   -2.0806 C   0  0  0  0  0  0  0  0  0  0  0  0
  -24.4094   24.8337   -2.5841 N   0  0  0  0  0  0  0  0  0  0  0  0
  -23.2083   24.9999   -5.1185 C   0  0  0  0  0  0  0  0  0  0  0  0
  -21.8508   25.5741   -4.3509 C   0  0  0  0  0  0  0  0  0  0  0  0
  -20.9375   25.7255   -5.2363 N   0  0  0  0  0  0  0  0  0  0  0  0
  -22.3644   25.5627   -1.7224 N   0  0  0  0  0  0  0  0  0  0  0  0
  -23.7480   24.8881   -3.6561 C   0  0  0  0  0  0  0  0  0  0  0  0
  2  1  1  0
  4  3  2  3
  5  4  1  0
  6  1  1  0
  7  2  1  0
  7  3  1  0
M  END
>  <ID>  (1) 
conformer_0

$$$$
