
     RDKit          3D

  8  8  0  0  0  0  0  0  0  0999 V2000
  -22.1107   25.4181   -4.0912 C   0  0  0  0  0  0  0  0  0  0  0  0
  -24.5244   24.9585   -2.3999 N   0  0  0  0  0  0  0  0  0  0  0  0
  -23.2604   25.5743   -1.6271 C   0  0  0  0  0  0  0  0  0  0  0  0
  -23.4242   24.7967   -5.0498 C   0  0  0  0  0  0  0  0  0  0  0  0
  -20.6298   25.3437   -4.7758 O   0  0  0  0  0  0  0  0  0  0  0  0
  -22.1769   25.5857   -1.7502 N   0  0  0  0  0  0  0  0  0  0  0  0
  -23.6146   24.9664   -3.3753 C   0  0  0  0  0  0  0  0  0  0  0  0
  -21.2079   25.7018   -5.2131 N   0  0  0  0  0  0  0  0  0  0  0  0
  3  2  1  0
  4  1  2  0
  6  3  1  0
  7  1  1  0
  7  2  2  3
  7  4  1  0
  8  1  1  0
  8  5  1  0
M  END
>  <ID>  (1) 
conformer_0

$$$$
