
     RDKit          3D

  8  8  0  0  0  0  0  0  0  0999 V2000
  -22.0780   25.5685   -3.9035 C   0  0  0  0  0  0  0  0  0  0  0  0
  -24.3805   25.0599   -2.1520 N   0  0  0  0  0  0  0  0  0  0  0  0
  -23.2213   24.7057   -4.7865 C   0  0  0  0  0  0  0  0  0  0  0  0
  -23.2341   25.7907   -1.6474 C   0  0  0  0  0  0  0  0  0  0  0  0
  -21.4958   26.0502   -5.9149 O   0  0  0  0  0  0  0  0  0  0  0  0
  -23.9160   24.8766   -3.3796 C   0  0  0  0  0  0  0  0  0  0  0  0
  -22.7605   25.5011   -3.2012 N   0  0  0  0  0  0  0  0  0  0  0  0
  -21.3449   25.9035   -2.9716 O   0  0  0  0  0  0  0  0  0  0  0  0
  3  1  1  0
  4  2  1  0
  5  3  1  0
  6  2  1  0
  6  3  1  0
  7  1  1  0
  7  6  2  0
  8  1  2  0
M  END
>  <ID>  (1) 
conformer_0

$$$$
