
     RDKit          3D

  9 10  0  0  0  0  0  0  0  0999 V2000
  -22.0145   25.4349   -4.8705 C   0  0  0  0  0  0  0  0  0  0  0  0
  -24.5061   25.6181   -1.2792 C   0  0  0  0  0  0  0  0  0  0  0  0
  -23.1624   24.8190   -5.1497 C   0  0  0  0  0  0  0  0  0  0  0  0
  -24.6399   24.9351   -2.1443 N   0  0  0  0  0  0  0  0  0  0  0  0
  -23.2027   25.3911   -2.7459 N   0  0  0  0  0  0  0  0  0  0  0  0
  -24.0914   24.5827   -3.6504 C   0  0  0  0  0  0  0  0  0  0  0  0
  -21.0507   25.7290   -5.6909 N   0  0  0  0  0  0  0  0  0  0  0  0
  -22.4144   25.6490   -3.1559 C   0  0  0  0  0  0  0  0  0  0  0  0
  -22.8786   25.3996   -1.0789 C   0  0  0  0  0  0  0  0  0  0  0  0
  3  1  1  0
  4  2  1  0
  5  4  1  0
  6  3  2  0
  6  4  1  0
  6  5  1  0
  7  1  1  0
  8  1  2  0
  8  5  1  0
  9  2  1  0
M  END
>  <ID>  (1) 
conformer_0

$$$$
