
     RDKit          3D

 10 11  0  0  0  0  0  0  0  0999 V2000
  -24.0666   25.3104   -1.4212 C   0  0  0  0  0  0  0  0  0  0  0  0
  -23.4246   24.6571   -5.2975 C   0  0  0  0  0  0  0  0  0  0  0  0
  -22.0818   25.3945   -5.4930 C   0  0  0  0  0  0  0  0  0  0  0  0
  -24.1761   24.9030   -2.5568 N   0  0  0  0  0  0  0  0  0  0  0  0
  -22.7822   25.4429   -3.2597 N   0  0  0  0  0  0  0  0  0  0  0  0
  -21.2230   25.9054   -5.3377 N   0  0  0  0  0  0  0  0  0  0  0  0
  -24.0750   24.7611   -3.8021 C   0  0  0  0  0  0  0  0  0  0  0  0
  -22.2509   26.0081   -1.5108 N   0  0  0  0  0  0  0  0  0  0  0  0
  -22.2476   25.6488   -3.7717 C   0  0  0  0  0  0  0  0  0  0  0  0
  -22.4327   25.8292   -1.5611 C   0  0  0  0  0  0  0  0  0  0  0  0
  3  2  1  0
  4  1  1  0
  5  4  1  0
  6  3  1  0
  7  2  2  0
  7  4  1  0
  7  5  1  0
  9  3  2  0
  9  5  1  0
 10  1  1  0
 10  8  1  0
M  END
>  <ID>  (1) 
conformer_0

$$$$
