
     RDKit          3D

  7  8  0  0  0  0  0  0  0  0999 V2000
  -23.4742   25.6841   -1.7480 C   0  0  0  0  0  0  0  0  0  0  0  0
  -23.0738   24.8680   -5.3919 C   0  0  0  0  0  0  0  0  0  0  0  0
  -21.7547   25.4322   -4.5955 C   0  0  0  0  0  0  0  0  0  0  0  0
  -24.4168   25.0634   -2.2817 N   0  0  0  0  0  0  0  0  0  0  0  0
  -23.4199   25.0552   -3.5460 C   0  0  0  0  0  0  0  0  0  0  0  0
  -22.6645   25.3077   -3.2277 N   0  0  0  0  0  0  0  0  0  0  0  0
  -20.8945   25.7238   -5.3313 N   0  0  0  0  0  0  0  0  0  0  0  0
  3  2  2  0
  4  1  1  0
  5  2  1  0
  5  4  2  0
  6  1  1  0
  6  3  1  0
  6  5  1  0
  7  3  1  0
M  END
>  <ID>  (1) 
conformer_0

$$$$
