
     RDKit          3D

  7  8  0  0  0  0  0  0  0  0999 V2000
  -22.9058   25.7382   -2.1453 C   0  0  0  0  0  0  0  0  0  0  0  0
  -23.4357   25.0974   -3.5939 C   0  0  0  0  0  0  0  0  0  0  0  0
  -24.3746   24.9960   -2.6276 N   0  0  0  0  0  0  0  0  0  0  0  0
  -23.4333   24.7226   -5.2469 C   0  0  0  0  0  0  0  0  0  0  0  0
  -21.9124   25.9711   -2.1293 N   0  0  0  0  0  0  0  0  0  0  0  0
  -21.9945   25.4136   -4.6470 C   0  0  0  0  0  0  0  0  0  0  0  0
  -21.1290   25.7715   -5.2202 N   0  0  0  0  0  0  0  0  0  0  0  0
  2  1  1  0
  3  1  1  0
  3  2  1  0
  4  2  1  0
  5  1  1  0
  6  2  1  0
  6  4  2  0
  7  6  1  0
M  END
>  <ID>  (1) 
conformer_0

$$$$
