
     RDKit          3D

  7  7  0  0  0  0  0  0  0  0999 V2000
  -23.1841   25.7868   -1.9439 C   0  0  0  0  0  0  0  0  0  0  0  0
  -23.0908   24.8712   -5.3935 C   0  0  0  0  0  0  0  0  0  0  0  0
  -24.4142   25.0687   -2.1238 N   0  0  0  0  0  0  0  0  0  0  0  0
  -21.7509   25.5168   -4.7458 C   0  0  0  0  0  0  0  0  0  0  0  0
  -20.7888   25.7371   -4.9949 N   0  0  0  0  0  0  0  0  0  0  0  0
  -23.4263   25.1031   -3.4951 C   0  0  2  0  0  0  0  0  0  0  0  0
  -22.0089   26.0683   -2.4563 N   0  0  0  0  0  0  0  0  0  0  0  0
  3  1  2  0
  4  2  2  3
  5  4  1  0
  6  1  1  0
  6  2  1  6
  6  3  1  0
  7  1  1  0
M  END
>  <ID>  (1) 
conformer_0

$$$$
