
     RDKit          3D

  8  7  0  0  0  0  0  0  0  0999 V2000
  -22.3581   25.2951   -4.9577 C   0  0  0  0  0  0  0  0  0  0  0  0
  -23.5881   25.5018   -1.2608 C   0  0  0  0  0  0  0  0  0  0  0  0
  -24.5514   24.4822   -3.6491 N   0  0  0  0  0  0  0  0  0  0  0  0
  -21.8072   25.5189   -4.9460 N   0  0  0  0  0  0  0  0  0  0  0  0
  -23.9021   24.7480   -3.7234 C   0  0  0  0  0  0  0  0  0  0  0  0
  -23.6492   25.3435   -1.5923 N   0  0  0  0  0  0  0  0  0  0  0  0
  -23.0235   24.6485   -5.1151 C   0  0  0  0  0  0  0  0  0  0  0  0
  -22.4055   25.6835   -2.8510 C   0  0  0  0  0  0  0  0  0  0  0  0
  4  1  1  0
  5  3  2  3
  6  2  1  0
  7  1  1  0
  7  5  1  0
  8  5  1  0
  8  6  2  3
M  END
>  <ID>  (1) 
conformer_0

$$$$
