
     RDKit          3D

  9 11  0  0  0  0  0  0  0  0999 V2000
  -23.8724   25.5279   -1.4313 C   0  0  0  0  0  0  0  0  0  0  0  0
  -22.4236   25.2021   -5.5323 C   0  0  0  0  0  0  0  0  0  0  0  0
  -24.5749   24.9936   -2.2743 N   0  0  0  0  0  0  0  0  0  0  0  0
  -21.8223   25.4310   -4.7588 C   0  0  0  0  0  0  0  0  0  0  0  0
  -24.1625   24.8293   -3.6492 C   0  0  0  0  0  0  0  0  0  0  0  0
  -21.4905   25.5452   -3.4032 O   0  0  0  0  0  0  0  0  0  0  0  0
  -23.1689   25.3580   -3.1295 N   0  0  0  0  0  0  0  0  0  0  0  0
  -22.4527   25.5973   -2.7052 C   0  0  0  0  0  0  0  0  0  0  0  0
  -23.8430   24.6905   -4.8303 C   0  0  0  0  0  0  0  0  0  0  0  0
  3  1  1  0
  4  2  2  0
  5  3  1  0
  6  4  1  0
  7  3  1  0
  7  5  1  0
  8  1  1  0
  8  6  1  0
  8  7  1  0
  9  2  1  0
  9  5  1  0
M  END
>  <ID>  (1) 
conformer_0

$$$$
