
     RDKit          3D

  9  8  0  0  0  0  0  0  0  0999 V2000
  -23.5495   24.9121   -3.8901 C   0  0  0  0  0  0  0  0  0  0  0  0
  -24.0376   25.7515   -1.1415 C   0  0  0  0  0  0  0  0  0  0  0  0
  -23.3490   24.5058   -5.4116 C   0  0  0  0  0  0  0  0  0  0  0  0
  -24.7062   24.7074   -2.9832 N   0  0  0  0  0  0  0  0  0  0  0  0
  -21.3012   25.7486   -5.7788 N   0  0  0  0  0  0  0  0  0  0  0  0
  -21.0981   25.1891   -3.8980 N   0  0  0  0  0  0  0  0  0  0  0  0
  -21.9047   25.3256   -4.9507 C   0  0  0  0  0  0  0  0  0  0  0  0
  -22.8248   25.5700   -2.5003 C   0  0  0  0  0  0  0  0  0  0  0  0
  -23.7290   25.8703   -1.3813 N   0  0  0  0  0  0  0  0  0  0  0  0
  3  1  1  0
  4  1  1  0
  7  3  1  0
  7  5  1  0
  7  6  2  3
  8  1  2  3
  9  2  2  3
  9  8  1  0
M  END
>  <ID>  (1) 
conformer_0

$$$$
