
     RDKit          3D

  7  8  0  0  0  0  0  0  0  0999 V2000
  -23.3743   25.4160   -1.5555 C   0  0  0  0  0  0  0  0  0  0  0  0
  -21.8615   25.5976   -4.5179 C   0  0  0  0  0  0  0  0  0  0  0  0
  -23.5437   24.8443   -5.1303 C   0  0  0  0  0  0  0  0  0  0  0  0
  -24.5142   24.8730   -2.1256 N   0  0  0  0  0  0  0  0  0  0  0  0
  -22.9242   25.4772   -2.9960 N   0  0  0  0  0  0  0  0  0  0  0  0
  -23.7705   25.1017   -3.4025 C   0  0  0  0  0  0  0  0  0  0  0  0
  -21.2257   25.4728   -5.6098 N   0  0  0  0  0  0  0  0  0  0  0  0
  3  2  2  0
  4  1  1  0
  5  1  1  0
  5  2  1  0
  6  3  1  0
  6  4  2  0
  6  5  1  0
  7  2  1  0
M  END
>  <ID>  (1) 
conformer_0

$$$$
