
     RDKit          3D

  8  8  0  0  0  0  0  0  0  0999 V2000
  -23.8344   25.5453   -1.6553 C   0  0  0  0  0  0  0  0  0  0  0  0
  -21.9629   25.4609   -4.9133 C   0  0  0  0  0  0  0  0  0  0  0  0
  -24.4156   24.9002   -2.7524 N   0  0  0  0  0  0  0  0  0  0  0  0
  -20.9012   25.8750   -5.1440 N   0  0  0  0  0  0  0  0  0  0  0  0
  -23.7179   24.8848   -3.9799 C   0  0  0  0  0  0  0  0  0  0  0  0
  -23.3097   24.6317   -5.3304 C   0  0  0  0  0  0  0  0  0  0  0  0
  -21.1309   25.6277   -2.7783 N   0  0  0  0  0  0  0  0  0  0  0  0
  -22.3085   25.4983   -3.0424 C   0  0  1  0  0  0  0  0  0  0  0  0
  3  1  1  0
  4  2  1  0
  5  3  2  3
  6  2  2  0
  6  5  1  0
  8  2  1  0
  8  5  1  0
  8  7  1  1
M  END
>  <ID>  (1) 
conformer_0

$$$$
