
     RDKit          3D

  9  8  0  0  0  0  0  0  0  0999 V2000
  -24.1743   24.7505   -4.2592 C   0  0  0  0  0  0  0  0  0  0  0  0
  -22.3739   25.6306   -3.0239 C   0  0  0  0  0  0  0  0  0  0  0  0
  -24.4837   24.9465   -1.8831 N   0  0  0  0  0  0  0  0  0  0  0  0
  -22.0712   25.2927   -4.8422 C   0  0  0  0  0  0  0  0  0  0  0  0
  -20.9250   25.6271   -5.3926 N   0  0  0  0  0  0  0  0  0  0  0  0
  -24.3294   24.8631   -3.0280 C   0  0  0  0  0  0  0  0  0  0  0  0
  -23.0765   25.0184   -5.0768 C   0  0  0  0  0  0  0  0  0  0  0  0
  -22.1842   25.3474   -2.6094 N   0  0  0  0  0  0  0  0  0  0  0  0
  -23.6317   25.8517   -1.3829 C   0  0  0  0  0  0  0  0  0  0  0  0
  4  2  1  0
  5  4  1  0
  6  1  1  0
  6  3  1  0
  7  1  1  0
  7  4  2  3
  8  2  2  3
  9  3  1  0
M  END
>  <ID>  (1) 
conformer_0

$$$$
