
     RDKit          3D

  8  9  0  0  0  0  0  0  0  0999 V2000
  -23.8675   25.2663   -1.0225 C   0  0  0  0  0  0  0  0  0  0  0  0
  -23.8580   25.0274   -3.5938 C   0  0  0  0  0  0  0  0  0  0  0  0
  -24.3882   25.0191   -2.1057 N   0  0  0  0  0  0  0  0  0  0  0  0
  -23.3244   24.7420   -5.2023 C   0  0  0  0  0  0  0  0  0  0  0  0
  -22.0044   25.4365   -4.8867 C   0  0  0  0  0  0  0  0  0  0  0  0
  -21.2348   26.3598   -4.9643 O   0  0  0  0  0  0  0  0  0  0  0  0
  -22.6689   25.5817   -2.4622 C   0  0  0  0  0  0  0  0  0  0  0  0
  -21.2981   25.4602   -5.4814 N   0  0  0  0  0  0  0  0  0  0  0  0
  3  1  1  0
  3  2  1  0
  4  2  1  0
  5  4  1  0
  6  5  1  0
  7  2  2  0
  7  3  1  0
  8  5  1  0
  8  6  1  0
M  END
>  <ID>  (1) 
conformer_0

$$$$
