
     RDKit          3D

  9  8  0  0  0  0  0  0  0  0999 V2000
  -22.3158   25.6718   -2.9213 C   0  0  0  0  0  0  0  0  0  0  0  0
  -23.2872   24.6822   -5.2905 C   0  0  0  0  0  0  0  0  0  0  0  0
  -21.9005   25.4975   -4.7725 C   0  0  0  0  0  0  0  0  0  0  0  0
  -23.9255   25.2898   -1.7075 N   0  0  0  0  0  0  0  0  0  0  0  0
  -21.1261   25.6418   -3.1670 N   0  0  0  0  0  0  0  0  0  0  0  0
  -20.9523   25.7419   -5.5338 N   0  0  0  0  0  0  0  0  0  0  0  0
  -23.9844   24.8091   -3.7308 C   0  0  0  0  0  0  0  0  0  0  0  0
  -23.6032   25.7125   -1.4409 C   0  0  0  0  0  0  0  0  0  0  0  0
  -24.8073   24.6629   -3.2979 N   0  0  0  0  0  0  0  0  0  0  0  0
  3  2  1  0
  5  1  2  3
  5  3  1  0
  6  3  2  3
  7  2  1  0
  8  1  1  0
  8  4  2  3
  9  7  2  3
M  END
>  <ID>  (1) 
conformer_0

$$$$
