
     RDKit          3D

  9  9  0  0  0  0  0  0  0  0999 V2000
  -23.9160   25.5697   -1.3351 C   0  0  0  0  0  0  0  0  0  0  0  0
  -22.5612   25.5902   -2.6407 C   0  0  2  0  0  0  0  0  0  0  0  0
  -24.3329   25.4496   -1.5753 N   0  0  0  0  0  0  0  0  0  0  0  0
  -20.9449   25.6923   -5.3098 N   0  0  0  0  0  0  0  0  0  0  0  0
  -23.0809   24.8471   -5.3212 C   0  0  0  0  0  0  0  0  0  0  0  0
  -21.4993   25.8445   -2.6176 N   0  0  0  0  0  0  0  0  0  0  0  0
  -22.2208   25.3596   -4.5649 C   0  0  2  0  0  0  0  0  0  0  0  0
  -23.7671   24.9037   -3.5186 C   0  0  0  0  0  0  0  0  0  0  0  0
  -24.5544   24.5082   -3.4445 N   0  0  0  0  0  0  0  0  0  0  0  0
  2  1  1  0
  3  1  2  3
  2  6  1  1
  7  2  1  0
  7  4  1  0
  7  5  1  1
  8  2  1  0
  8  7  1  0
  9  8  2  3
M  END
>  <ID>  (1) 
conformer_0

$$$$
