
     RDKit          3D

 10  9  0  0  0  0  0  0  0  0999 V2000
  -24.0428   25.6335   -0.9416 C   0  0  0  0  0  0  0  0  0  0  0  0
  -21.4405   25.5514   -4.6440 C   0  0  0  0  0  0  0  0  0  0  0  0
  -23.0399   24.8935   -5.1289 C   0  0  0  0  0  0  0  0  0  0  0  0
  -20.6856   25.7246   -5.3044 N   0  0  0  0  0  0  0  0  0  0  0  0
  -24.2685   25.1809   -1.9596 N   0  0  0  0  0  0  0  0  0  0  0  0
  -24.2622   24.6665   -3.0903 C   0  0  0  0  0  0  0  0  0  0  0  0
  -24.9729   23.8301   -3.3559 O   0  0  0  0  0  0  0  0  0  0  0  0
  -21.6962   25.6780   -2.4085 N   0  0  0  0  0  0  0  0  0  0  0  0
  -23.0202   25.2980   -4.0204 C   0  0  0  0  0  0  0  0  0  0  0  0
  -22.4408   25.7227   -2.1231 C   0  0  0  0  0  0  0  0  0  0  0  0
  4  2  1  0
  5  1  1  0
  6  5  1  0
  7  6  2  0
  9  2  1  0
  9  3  2  3
  9  6  1  0
 10  5  1  0
 10  8  1  0
M  END
>  <ID>  (1) 
conformer_0

$$$$
