
     RDKit          3D

  6  5  0  0  0  0  0  0  0  0999 V2000
  -23.0342   24.7425   -5.5882 C   0  0  0  0  0  0  0  0  0  0  0  0
  -23.3840   25.6268   -1.4148 C   0  0  0  0  0  0  0  0  0  0  0  0
  -23.4346   25.1424   -3.1386 C   0  0  0  0  0  0  0  0  0  0  0  0
  -24.2430   25.0913   -2.1085 N   0  0  0  0  0  0  0  0  0  0  0  0
  -22.0822   25.4917   -4.6750 C   0  0  0  0  0  0  0  0  0  0  0  0
  -22.6637   25.4149   -3.1410 N   0  0  0  0  0  0  0  0  0  0  0  0
  4  2  1  0
  4  3  1  0
  5  1  1  0
  6  3  1  0
  6  5  1  0
M  END
>  <ID>  (1) 
conformer_0

$$$$
