
     RDKit          3D

  6  5  0  0  0  0  0  0  0  0999 V2000
  -23.3004   25.6634   -1.5403 C   0  0  0  0  0  0  0  0  0  0  0  0
  -23.3976   24.8117   -5.0463 C   0  0  0  0  0  0  0  0  0  0  0  0
  -23.7190   25.1812   -2.9874 C   0  0  0  0  0  0  0  0  0  0  0  0
  -24.4304   25.1065   -2.1243 N   0  0  0  0  0  0  0  0  0  0  0  0
  -22.2328   25.4330   -4.1132 C   0  0  0  0  0  0  0  0  0  0  0  0
  -21.5363   25.7594   -3.0184 N   0  0  0  0  0  0  0  0  0  0  0  0
  4  1  1  0
  4  3  1  0
  5  2  1  0
  5  3  1  0
  6  5  1  0
M  END
>  <ID>  (1) 
conformer_0

$$$$
