
     RDKit          3D

  8  7  0  0  0  0  0  0  0  0999 V2000
  -23.7911   25.5680   -1.7951 C   0  0  0  0  0  0  0  0  0  0  0  0
  -24.5803   24.8165   -2.7585 N   0  0  0  0  0  0  0  0  0  0  0  0
  -23.0970   24.6549   -5.2603 C   0  0  0  0  0  0  0  0  0  0  0  0
  -21.7571   25.4192   -4.9073 C   0  0  0  0  0  0  0  0  0  0  0  0
  -21.2532   25.8246   -4.8675 N   0  0  0  0  0  0  0  0  0  0  0  0
  -23.7640   24.7338   -3.9035 C   0  0  0  0  0  0  0  0  0  0  0  0
  -22.0283   25.6261   -2.9195 C   0  0  0  0  0  0  0  0  0  0  0  0
  -20.3993   25.9007   -5.4686 O   0  0  0  0  0  0  0  0  0  0  0  0
  2  1  1  0
  4  3  1  0
  5  4  1  0
  6  2  1  0
  6  3  1  0
  7  4  1  0
  8  5  1  0
M  END
>  <ID>  (1) 
conformer_0

$$$$
