
     RDKit          3D

  9 10  0  0  0  0  0  0  0  0999 V2000
  -24.0406   25.4539   -1.5828 C   0  0  0  0  0  0  0  0  0  0  0  0
  -23.4420   24.7232   -5.4164 C   0  0  0  0  0  0  0  0  0  0  0  0
  -22.2100   25.9216   -2.2858 C   0  0  0  0  0  0  0  0  0  0  0  0
  -24.4804   24.8810   -2.6682 N   0  0  0  0  0  0  0  0  0  0  0  0
  -21.0754   25.8431   -5.5067 N   0  0  0  0  0  0  0  0  0  0  0  0
  -24.2554   24.4766   -3.8978 C   0  0  0  0  0  0  0  0  0  0  0  0
  -21.8163   25.9916   -2.2202 N   0  0  0  0  0  0  0  0  0  0  0  0
  -22.7050   25.3566   -3.8234 C   0  0  0  0  0  0  0  0  0  0  0  0
  -21.8724   25.4865   -5.1009 C   0  0  0  0  0  0  0  0  0  0  0  0
  4  1  1  0
  6  2  1  0
  6  4  1  0
  7  3  1  0
  8  2  1  0
  8  3  1  0
  8  6  1  0
  9  2  2  0
  9  5  1  0
  9  8  1  0
M  END
>  <ID>  (1) 
conformer_0

$$$$
