
     RDKit          3D

  7  8  0  0  0  0  0  0  0  0999 V2000
  -22.2776   25.5043   -3.7636 C   0  0  0  0  0  0  0  0  0  0  0  0
  -24.4546   25.2326   -2.1373 N   0  0  0  0  0  0  0  0  0  0  0  0
  -23.4317   25.9562   -1.5070 C   0  0  0  0  0  0  0  0  0  0  0  0
  -23.3360   24.6390   -5.1346 C   0  0  0  0  0  0  0  0  0  0  0  0
  -20.4892   25.1446   -4.8244 O   0  0  0  0  0  0  0  0  0  0  0  0
  -22.9067   25.4549   -3.1295 N   0  0  0  0  0  0  0  0  0  0  0  0
  -23.8052   24.9711   -3.5061 C   0  0  0  0  0  0  0  0  0  0  0  0
  3  2  2  0
  4  1  2  0
  5  1  1  0
  6  1  1  0
  6  3  1  0
  7  2  1  0
  7  4  1  0
  7  6  1  0
M  END
>  <ID>  (1) 
conformer_0

$$$$
