
     RDKit          3D

  9  9  0  0  0  0  0  0  0  0999 V2000
  -23.8929   25.5171   -1.5726 C   0  0  0  0  0  0  0  0  0  0  0  0
  -22.0530   25.4409   -4.9523 C   0  0  0  0  0  0  0  0  0  0  0  0
  -24.5592   24.7592   -2.5040 N   0  0  0  0  0  0  0  0  0  0  0  0
  -23.6555   24.6613   -5.0115 C   0  0  0  0  0  0  0  0  0  0  0  0
  -21.1574   25.8070   -5.6202 N   0  0  0  0  0  0  0  0  0  0  0  0
  -24.1528   24.8078   -3.5870 C   0  0  0  0  0  0  0  0  0  0  0  0
  -21.8354   25.9154   -2.1811 N   0  0  0  0  0  0  0  0  0  0  0  0
  -22.7152   25.5610   -3.1928 N   0  0  0  0  0  0  0  0  0  0  0  0
  -22.3596   25.5329   -3.1747 C   0  0  0  0  0  0  0  0  0  0  0  0
  3  1  1  0
  4  2  2  0
  5  2  1  0
  6  3  1  0
  6  4  1  0
  8  6  2  0
  9  2  1  0
  9  7  1  0
  9  8  1  0
M  END
>  <ID>  (1) 
conformer_0

$$$$
