
     RDKit          3D

  8  7  0  0  0  0  0  0  0  0999 V2000
  -23.9368   24.4982   -4.5117 C   0  0  0  0  0  0  0  0  0  0  0  0
  -23.4264   25.6879   -1.6539 C   0  0  0  0  0  0  0  0  0  0  0  0
  -21.9725   25.5007   -4.3591 C   0  0  0  0  0  0  0  0  0  0  0  0
  -24.3697   25.0137   -2.2166 N   0  0  0  0  0  0  0  0  0  0  0  0
  -20.7445   25.7375   -5.4070 N   0  0  0  0  0  0  0  0  0  0  0  0
  -23.8835   24.9431   -3.2296 C   0  0  0  0  0  0  0  0  0  0  0  0
  -21.6534   25.7803   -3.0262 N   0  0  0  0  0  0  0  0  0  0  0  0
  -22.8038   25.0603   -5.2494 C   0  0  0  0  0  0  0  0  0  0  0  0
  4  2  1  0
  5  3  1  0
  6  1  1  0
  6  4  2  3
  7  3  2  3
  8  1  1  0
  8  3  1  0
M  END
>  <ID>  (1) 
conformer_0

$$$$
