
     RDKit          3D

  9  9  0  0  0  0  0  0  0  0999 V2000
  -23.6803   25.7034   -1.3478 C   0  0  0  0  0  0  0  0  0  0  0  0
  -24.3012   25.5202   -1.5323 N   0  0  0  0  0  0  0  0  0  0  0  0
  -22.4851   25.6007   -2.7772 C   0  0  0  0  0  0  0  0  0  0  0  0
  -23.0785   24.7931   -5.4320 C   0  0  0  0  0  0  0  0  0  0  0  0
  -21.5631   25.6236   -2.6739 N   0  0  0  0  0  0  0  0  0  0  0  0
  -21.8509   25.4519   -5.0722 C   0  0  0  0  0  0  0  0  0  0  0  0
  -20.9619   25.6468   -5.1275 N   0  0  0  0  0  0  0  0  0  0  0  0
  -24.3973   24.3748   -2.9843 N   0  0  0  0  0  0  0  0  0  0  0  0
  -23.5235   24.6247   -3.6469 C   0  0  0  0  0  0  0  0  0  0  0  0
  2  1  2  0
  3  1  1  0
  5  3  1  0
  6  4  1  0
  7  6  1  0
  8  2  1  0
  9  3  1  0
  9  4  1  0
  9  8  2  0
M  END
>  <ID>  (1) 
conformer_0

$$$$
