
     RDKit          3D

 10 11  0  0  0  0  0  0  0  0999 V2000
  -21.9494   25.4470   -4.7518 C   0  0  0  0  0  0  0  0  0  0  0  0
  -23.1661   24.7299   -5.3557 C   0  0  0  0  0  0  0  0  0  0  0  0
  -24.0469   25.5752   -1.2538 C   0  0  0  0  0  0  0  0  0  0  0  0
  -24.5455   24.8261   -2.8239 N   0  0  0  0  0  0  0  0  0  0  0  0
  -20.9379   25.2881   -5.3291 N   0  0  0  0  0  0  0  0  0  0  0  0
  -23.7935   24.8297   -3.9084 C   0  0  0  0  0  0  0  0  0  0  0  0
  -22.1197   25.7593   -1.9521 N   0  0  0  0  0  0  0  0  0  0  0  0
  -20.9350   26.3729   -5.0125 O   0  0  0  0  0  0  0  0  0  0  0  0
  -22.6582   25.7850   -2.3853 C   0  0  0  0  0  0  0  0  0  0  0  0
  -22.8028   25.3359   -3.1640 N   0  0  0  0  0  0  0  0  0  0  0  0
  2  1  1  0
  4  3  1  0
  5  1  1  0
  6  2  1  0
  6  4  2  0
  8  1  1  0
  8  5  1  0
  9  3  1  0
  9  7  1  0
 10  6  1  0
 10  9  1  0
M  END
>  <ID>  (1) 
conformer_0

$$$$
