
     RDKit          3D

  7  8  0  0  0  0  0  0  0  0999 V2000
  -23.1903   24.6841   -5.2882 C   0  0  0  0  0  0  0  0  0  0  0  0
  -23.0751   25.9035   -1.7516 C   0  0  0  0  0  0  0  0  0  0  0  0
  -24.3242   25.1175   -2.0780 N   0  0  0  0  0  0  0  0  0  0  0  0
  -21.8236   25.4730   -4.3146 C   0  0  0  0  0  0  0  0  0  0  0  0
  -20.7339   25.5062   -4.9653 N   0  0  0  0  0  0  0  0  0  0  0  0
  -23.6514   25.0303   -3.5789 C   0  0  0  0  0  0  0  0  0  0  0  0
  -22.8776   25.4771   -3.1331 N   0  0  0  0  0  0  0  0  0  0  0  0
  3  2  1  0
  4  1  2  0
  5  4  1  0
  6  1  1  0
  6  3  2  0
  7  2  1  0
  7  4  1  0
  7  6  1  0
M  END
>  <ID>  (1) 
conformer_0

$$$$
