
     RDKit          3D

 11 12  0  0  0  0  0  0  0  0999 V2000
  -23.5184   24.4538   -5.0086 C   0  0  0  0  0  0  0  0  0  0  0  0
  -24.2579   25.5305   -1.2339 C   0  0  0  0  0  0  0  0  0  0  0  0
  -21.3626   25.5090   -5.5678 C   0  0  0  0  0  0  0  0  0  0  0  0
  -24.0479   25.7205   -1.4060 N   0  0  0  0  0  0  0  0  0  0  0  0
  -22.7850   25.4091   -3.0374 N   0  0  0  0  0  0  0  0  0  0  0  0
  -23.8301   24.6594   -3.6626 C   0  0  0  0  0  0  0  0  0  0  0  0
  -20.5003   26.0623   -5.1376 O   0  0  0  0  0  0  0  0  0  0  0  0
  -22.3378   25.0352   -5.7985 C   0  0  0  0  0  0  0  0  0  0  0  0
  -22.0382   25.4677   -3.9833 C   0  0  0  0  0  0  0  0  0  0  0  0
  -22.6704   26.1075   -1.7840 C   0  0  0  0  0  0  0  0  0  0  0  0
  -24.6086   24.6164   -2.6555 N   0  0  0  0  0  0  0  0  0  0  0  0
  4  2  1  0
  6  1  2  0
  6  5  1  0
  7  3  2  0
  8  1  1  0
  8  3  1  0
  9  3  1  0
  9  5  1  0
 10  4  2  0
 10  5  1  0
 11  2  2  0
 11  6  1  0
M  END
>  <ID>  (1) 
conformer_0

$$$$
