
     RDKit          3D

  7  6  0  0  0  0  0  0  0  0999 V2000
  -23.8492   25.6111   -1.2126 C   0  0  0  0  0  0  0  0  0  0  0  0
  -23.2446   24.7905   -5.4895 C   0  0  0  0  0  0  0  0  0  0  0  0
  -22.4516   25.5959   -2.6119 C   0  0  0  0  0  0  0  0  0  0  0  0
  -24.3251   25.2681   -2.0957 N   0  0  0  0  0  0  0  0  0  0  0  0
  -20.8540   25.7569   -5.0598 N   0  0  0  0  0  0  0  0  0  0  0  0
  -21.9271   25.3991   -4.9259 C   0  0  0  0  0  0  0  0  0  0  0  0
  -23.9105   25.0566   -3.7639 C   0  0  2  0  0  0  0  0  0  0  0  0
  4  1  2  3
  6  2  2  3
  6  5  1  0
  7  2  1  0
  7  3  1  6
  7  4  1  0
M  END
>  <ID>  (1) 
conformer_0

$$$$
