
     RDKit          3D

  8  8  0  0  0  0  0  0  0  0999 V2000
  -23.6790   25.5805   -1.4862 C   0  0  0  0  0  0  0  0  0  0  0  0
  -23.2869   24.7878   -5.3577 C   0  0  0  0  0  0  0  0  0  0  0  0
  -21.6332   25.4906   -5.0417 C   0  0  0  0  0  0  0  0  0  0  0  0
  -24.3535   25.0276   -2.1933 N   0  0  0  0  0  0  0  0  0  0  0  0
  -23.8515   24.9119   -3.6922 C   0  0  0  0  0  0  0  0  0  0  0  0
  -21.8835   25.8407   -2.0574 N   0  0  0  0  0  0  0  0  0  0  0  0
  -20.8038   25.7066   -4.9937 N   0  0  0  0  0  0  0  0  0  0  0  0
  -22.2936   25.5447   -3.1735 C   0  0  0  0  0  0  0  0  0  0  0  0
  3  2  1  0
  4  1  2  0
  5  2  1  0
  5  4  1  0
  6  1  1  0
  7  3  1  0
  8  5  2  0
  8  6  1  0
M  END
>  <ID>  (1) 
conformer_0

$$$$
