
     RDKit          3D

  9  9  0  0  0  0  0  0  0  0999 V2000
  -23.6275   25.6396   -1.4112 C   0  0  0  0  0  0  0  0  0  0  0  0
  -22.5078   24.8852   -5.3211 C   0  0  0  0  0  0  0  0  0  0  0  0
  -22.2145   25.6648   -3.0392 C   0  0  0  0  0  0  0  0  0  0  0  0
  -24.3678   24.7744   -2.3794 N   0  0  0  0  0  0  0  0  0  0  0  0
  -23.8592   24.7121   -3.4789 C   0  0  0  0  0  0  0  0  0  0  0  0
  -21.1714   25.7291   -5.6169 N   0  0  0  0  0  0  0  0  0  0  0  0
  -22.6637   25.5574   -2.9989 N   0  0  0  0  0  0  0  0  0  0  0  0
  -21.8258   25.5246   -5.0416 C   0  0  0  0  0  0  0  0  0  0  0  0
  -23.9143   24.4228   -4.9172 C   0  0  0  0  0  0  0  0  0  0  0  0
  4  1  1  0
  5  4  2  0
  7  1  1  0
  7  3  1  0
  7  5  1  0
  8  2  2  3
  8  6  1  0
  9  2  1  0
  9  5  1  0
M  END
>  <ID>  (1) 
conformer_0

$$$$
