
     RDKit          3D

  8  7  0  0  0  0  0  0  0  0999 V2000
  -23.9276   25.6269   -1.4392 C   0  0  0  0  0  0  0  0  0  0  0  0
  -23.0151   24.6659   -5.1848 C   0  0  0  0  0  0  0  0  0  0  0  0
  -23.7529   24.8346   -3.3523 C   0  0  0  0  0  0  0  0  0  0  0  0
  -24.2643   24.8889   -2.3837 N   0  0  0  0  0  0  0  0  0  0  0  0
  -20.9397   25.8569   -4.9674 N   0  0  0  0  0  0  0  0  0  0  0  0
  -21.8303   25.4354   -5.0860 C   0  0  0  0  0  0  0  0  0  0  0  0
  -22.7299   25.4471   -3.0908 N   0  0  0  0  0  0  0  0  0  0  0  0
  -22.2631   25.6326   -3.0245 C   0  0  0  0  0  3  0  0  0  0  0  0
  3  2  2  3
  4  1  2  3
  4  3  1  0
  6  2  1  0
  6  5  1  0
  7  3  1  0
  8  7  2  3
M  RAD  1   8   2
M  END
>  <ID>  (1) 
conformer_0

$$$$
