
     RDKit          3D

 10 11  0  0  0  0  0  0  0  0999 V2000
  -22.5086   25.0672   -5.6413 C   0  0  0  0  0  0  0  0  0  0  0  0
  -24.3553   25.5080   -1.1055 C   0  0  0  0  0  0  0  0  0  0  0  0
  -24.0658   24.8248   -3.3691 C   0  0  0  0  0  0  0  0  0  0  0  0
  -24.5797   25.1184   -2.0698 N   0  0  0  0  0  0  0  0  0  0  0  0
  -21.3613   25.4441   -5.3835 C   0  0  0  0  0  0  0  0  0  0  0  0
  -22.8916   25.3805   -2.8665 N   0  0  0  0  0  0  0  0  0  0  0  0
  -21.1521   25.2235   -3.6161 N   0  0  0  0  0  0  0  0  0  0  0  0
  -23.6636   24.7284   -4.8413 C   0  0  0  0  0  0  0  0  0  0  0  0
  -22.8352   25.7446   -1.6802 C   0  0  0  0  0  0  0  0  0  0  0  0
  -22.2108   25.4824   -3.7776 C   0  0  0  0  0  0  0  0  0  0  0  0
  4  2  1  0
  4  3  2  0
  5  1  1  0
  6  3  1  0
  8  1  2  0
  8  3  1  0
  9  2  2  0
  9  6  1  0
 10  5  2  0
 10  6  1  0
 10  7  1  0
M  END
>  <ID>  (1) 
conformer_0

$$$$
