
     RDKit          3D

  7  6  0  0  0  0  0  0  0  0999 V2000
  -22.6699   24.9330   -5.9365 C   0  0  0  0  0  0  0  0  0  0  0  0
  -23.3872   25.4581   -1.3132 C   0  0  0  0  0  0  0  0  0  0  0  0
  -23.2571   25.2576   -3.1426 C   0  0  0  0  0  0  0  0  0  0  0  0
  -24.2980   25.0275   -1.9040 N   0  0  0  0  0  0  0  0  0  0  0  0
  -21.9165   25.5334   -4.8558 C   0  0  0  0  0  0  0  0  0  0  0  0
  -22.8102   25.5192   -3.0185 N   0  0  0  0  0  0  0  0  0  0  0  0
  -23.6536   24.5719   -5.0639 C   0  0  0  0  0  0  0  0  0  0  0  0
  4  2  1  0
  4  3  1  0
  5  1  1  0
  6  3  2  3
  7  1  2  3
  7  3  1  0
M  END
>  <ID>  (1) 
conformer_0

$$$$
