
     RDKit          3D

 10 10  0  0  0  0  0  0  0  0999 V2000
  -24.1092   25.5647   -1.1386 C   0  0  0  0  0  0  0  0  0  0  0  0
  -23.5992   25.0635   -3.5620 C   0  0  0  0  0  0  0  0  0  0  0  0
  -23.2345   24.6089   -5.1432 C   0  0  0  0  0  0  0  0  0  0  0  0
  -21.2273   25.6913   -5.8549 N   0  0  0  0  0  0  0  0  0  0  0  0
  -24.6758   24.9223   -2.4969 N   0  0  0  0  0  0  0  0  0  0  0  0
  -22.1009   25.3409   -4.8051 C   0  0  0  0  0  0  0  0  0  0  0  0
  -22.8135   25.5637   -2.8987 N   0  0  0  0  0  0  0  0  0  0  0  0
  -20.9922   25.5126   -3.7003 N   0  0  0  0  0  0  0  0  0  0  0  0
  -22.5462   25.6505   -2.2956 C   0  0  0  0  0  0  0  0  0  0  0  0
  -23.1172   26.0311   -1.5166 N   0  0  0  0  0  0  0  0  0  0  0  0
  3  2  1  0
  5  1  1  0
  5  2  2  0
  6  3  1  0
  6  4  2  3
  7  2  1  0
  8  6  1  0
  9  7  1  0
 10  1  1  0
 10  9  1  0
M  END
>  <ID>  (1) 
conformer_0

$$$$
