
     RDKit          3D

 10 11  0  0  0  0  0  0  0  0999 V2000
  -24.3595   25.3147   -1.1873 C   0  0  0  0  0  0  0  0  0  0  0  0
  -21.8321   25.4413   -5.1663 C   0  0  0  0  0  0  0  0  0  0  0  0
  -23.3409   24.8749   -5.1937 C   0  0  0  0  0  0  0  0  0  0  0  0
  -24.2876   25.0051   -2.1543 N   0  0  0  0  0  0  0  0  0  0  0  0
  -24.0719   24.8392   -3.4364 C   0  0  0  0  0  0  0  0  0  0  0  0
  -21.3409   25.6101   -3.2850 N   0  0  0  0  0  0  0  0  0  0  0  0
  -22.8238   25.4765   -2.9177 N   0  0  0  0  0  0  0  0  0  0  0  0
  -21.1182   25.6910   -5.5253 N   0  0  0  0  0  0  0  0  0  0  0  0
  -22.7523   25.8337   -1.5466 C   0  0  0  0  0  0  0  0  0  0  0  0
  -22.3481   25.4376   -3.5701 C   0  0  0  0  0  0  0  0  0  0  0  0
  3  2  1  0
  4  1  1  0
  5  3  2  0
  5  4  1  0
  7  5  1  0
  8  2  1  0
  9  1  2  0
  9  7  1  0
 10  2  2  0
 10  6  1  0
 10  7  1  0
M  END
>  <ID>  (1) 
conformer_0

$$$$
