
     RDKit          3D

  7  8  0  0  0  0  0  0  0  0999 V2000
  -23.1328   25.6454   -1.7419 C   0  0  0  0  0  0  0  0  0  0  0  0
  -23.3486   24.7359   -5.2419 C   0  0  0  0  0  0  0  0  0  0  0  0
  -22.0992   25.4973   -4.4003 C   0  0  0  0  0  0  0  0  0  0  0  0
  -24.1143   24.9831   -2.1461 N   0  0  0  0  0  0  0  0  0  0  0  0
  -23.7186   24.9840   -3.3907 C   0  0  0  0  0  0  0  0  0  0  0  0
  -20.9653   25.5418   -3.9110 N   0  0  0  0  0  0  0  0  0  0  0  0
  -22.6867   25.3639   -3.3030 N   0  0  0  0  0  0  0  0  0  0  0  0
  3  2  1  0
  4  1  1  0
  5  2  1  0
  5  4  2  0
  6  3  1  0
  7  1  1  0
  7  3  1  0
  7  5  1  0
M  END
>  <ID>  (1) 
conformer_0

$$$$
