
     RDKit          3D

 10 10  0  0  0  0  0  0  0  0999 V2000
  -23.7399   25.7059   -1.2657 C   0  0  0  0  0  0  0  0  0  0  0  0
  -23.7888   24.2947   -4.8318 C   0  0  0  0  0  0  0  0  0  0  0  0
  -22.5096   25.5070   -3.1675 C   0  0  0  0  0  0  0  0  0  0  0  0
  -24.2155   25.5389   -1.0442 N   0  0  0  0  0  0  0  0  0  0  0  0
  -20.7904   25.7818   -5.5752 N   0  0  0  0  0  0  0  0  0  0  0  0
  -21.8358   25.4139   -5.0112 C   0  0  0  0  0  0  0  0  0  0  0  0
  -21.4259   25.8652   -2.9782 N   0  0  0  0  0  0  0  0  0  0  0  0
  -24.6918   24.7193   -2.6946 N   0  0  0  0  0  0  0  0  0  0  0  0
  -23.8426   24.8720   -3.3730 C   0  0  0  0  0  0  0  0  0  0  0  0
  -22.6662   24.8373   -5.7977 C   0  0  0  0  0  0  0  0  0  0  0  0
  4  1  2  3
  6  3  2  0
  6  5  1  0
  7  3  1  0
  8  4  1  0
  9  2  2  0
  9  3  1  0
  9  8  1  0
 10  2  1  0
 10  6  1  0
M  END
>  <ID>  (1) 
conformer_0

$$$$
