
     RDKit          3D

 12 13  0  0  0  0  0  0  0  0999 V2000
  -24.3477   25.5401   -0.9280 C   0  0  0  0  0  3  0  0  0  0  0  0
  -22.5637   24.7095   -6.1590 C   0  0  0  0  0  3  0  0  0  0  0  0
  -22.9108   25.6039   -1.9628 C   0  0  0  0  0  0  0  0  0  0  0  0
  -24.5561   24.6752   -2.7934 N   0  0  0  0  0  0  0  0  0  0  0  0
  -21.7146   25.4876   -5.6569 C   0  0  1  0  0  0  0  0  0  0  0  0
  -21.1718   25.8356   -4.8105 N   0  0  0  0  0  0  0  0  0  0  0  0
  -20.9817   25.9088   -6.0962 O   0  0  0  0  0  0  0  0  0  0  0  0
  -21.7137   25.9005   -2.4507 N   0  0  0  0  0  0  0  0  0  0  0  0
  -23.7862   24.7892   -3.5312 C   0  0  0  0  0  0  0  0  0  0  0  0
  -23.5910   24.6176   -5.1068 C   0  0  0  0  0  0  0  0  0  0  0  0
  -23.9911   25.6168   -1.2067 N   0  0  0  0  0  0  0  0  0  0  0  0
  -22.2902   25.4868   -3.7746 C   0  0  0  0  0  0  0  0  0  0  0  0
  5  2  1  1
  6  5  1  0
  7  5  1  0
  7  6  1  0
  8  3  1  0
  9  4  1  0
 10  2  1  0
 10  9  1  0
 11  1  2  3
 11  3  1  0
 12  5  1  0
 12  8  1  0
 12  9  2  0
M  RAD  2   1   2   2   2
M  END
>  <ID>  (1) 
conformer_0

$$$$
