
     RDKit          3D

 10 10  0  0  0  0  0  0  0  0999 V2000
  -24.4424   25.8482   -1.2335 C   0  0  0  0  0  0  0  0  0  0  0  0
  -21.8497   25.2982   -5.3144 C   0  0  0  0  0  0  0  0  0  0  0  0
  -24.7267   24.9984   -2.3538 N   0  0  0  0  0  0  0  0  0  0  0  0
  -23.1162   25.0062   -5.4463 C   0  0  0  0  0  0  0  0  0  0  0  0
  -21.1173   25.5268   -5.1594 N   0  0  0  0  0  0  0  0  0  0  0  0
  -23.7743   25.0089   -3.7811 C   0  0  0  0  0  0  0  0  0  0  0  0
  -21.1042   25.4825   -2.7294 O   0  0  0  0  0  0  0  0  0  0  0  0
  -23.1641   25.4064   -2.8800 N   0  0  0  0  0  0  0  0  0  0  0  0
  -22.9289   25.5289   -2.1786 C   0  0  0  0  0  0  0  0  0  0  0  0
  -21.5482   25.3969   -3.7708 C   0  0  0  0  0  0  0  0  0  0  0  0
  3  1  1  0
  4  2  1  0
  5  2  1  0
  6  3  2  0
  6  4  1  0
  8  6  1  0
  9  1  1  0
  9  8  1  0
 10  5  1  0
 10  7  2  0
M  END
>  <ID>  (1) 
conformer_0

$$$$
