
     RDKit          3D

  6  5  0  0  0  0  0  0  0  0999 V2000
  -23.4785   25.5947   -1.6576 C   0  0  0  0  0  0  0  0  0  0  0  0
  -23.5646   24.7569   -5.0202 C   0  0  0  0  0  0  0  0  0  0  0  0
  -23.2189   25.1641   -3.3026 C   0  0  0  0  0  0  0  0  0  0  0  0
  -24.5169   25.1961   -2.1247 N   0  0  0  0  0  0  0  0  0  0  0  0
  -21.7081   25.5314   -4.7041 C   0  0  0  0  0  0  0  0  0  0  0  0
  -22.4965   25.1742   -5.8553 C   0  0  0  0  0  0  0  0  0  0  0  0
  3  1  2  0
  3  2  2  0
  4  1  1  0
  6  2  1  0
  6  5  1  0
M  END
>  <ID>  (1) 
conformer_0

$$$$
