
     RDKit          3D

 10 11  0  0  0  0  0  0  0  0999 V2000
  -23.9171   24.6055   -4.6320 C   0  0  0  0  0  0  0  0  0  0  0  0
  -23.9343   25.4498   -1.0998 C   0  0  0  0  0  0  0  0  0  0  0  0
  -21.7987   25.4688   -4.9443 C   0  0  0  0  0  0  0  0  0  0  0  0
  -24.4874   25.0445   -2.1451 N   0  0  0  0  0  0  0  0  0  0  0  0
  -22.5979   25.2590   -2.9624 N   0  0  0  0  0  0  0  0  0  0  0  0
  -21.4044   26.0081   -5.9977 N   0  0  0  0  0  0  0  0  0  0  0  0
  -23.9226   24.9922   -3.4515 C   0  0  0  0  0  0  0  0  0  0  0  0
  -21.1385   25.4576   -3.7130 N   0  0  0  0  0  0  0  0  0  0  0  0
  -22.4849   25.4612   -2.3592 C   0  0  0  0  0  0  0  0  0  0  0  0
  -22.6967   24.8492   -5.4078 C   0  0  0  0  0  0  0  0  0  0  0  0
  4  2  1  0
  6  3  1  0
  7  1  1  0
  7  4  2  0
  7  5  1  0
  8  3  2  0
  8  5  1  0
  9  2  2  0
  9  5  1  0
 10  1  2  0
 10  3  1  0
M  END
>  <ID>  (1) 
conformer_0

$$$$
