
     RDKit          3D

  8  8  0  0  0  0  0  0  0  0999 V2000
  -24.0089   25.5146   -1.2412 C   0  0  0  0  0  0  0  0  0  0  0  0
  -23.1154   24.9930   -5.1918 C   0  0  0  0  0  0  0  0  0  0  0  0
  -21.7984   25.4796   -4.6234 C   0  0  0  0  0  0  0  0  0  0  0  0
  -24.5644   24.8634   -2.6293 N   0  0  0  0  0  0  0  0  0  0  0  0
  -24.0035   24.8860   -3.6689 C   0  0  0  0  0  0  0  0  0  0  0  0
  -20.7912   25.8171   -5.5089 N   0  0  0  0  0  0  0  0  0  0  0  0
  -22.8282   25.2529   -3.0022 N   0  0  0  0  0  0  0  0  0  0  0  0
  -22.5035   25.6516   -2.3777 C   0  0  0  0  0  0  0  0  0  0  0  0
  3  2  2  3
  4  1  1  0
  5  2  1  0
  5  4  2  0
  6  3  1  0
  7  5  1  0
  8  1  2  0
  8  7  1  0
M  END
>  <ID>  (1) 
conformer_0

$$$$
