
     RDKit          3D

  7  8  0  0  0  0  0  0  0  0999 V2000
  -22.1255   25.5331   -4.3112 C   0  0  0  0  0  0  0  0  0  0  0  0
  -23.1751   24.4772   -5.1810 C   0  0  0  0  0  0  0  0  0  0  0  0
  -23.0793   26.0193   -1.7850 C   0  0  0  0  0  0  0  0  0  0  0  0
  -24.2869   24.8154   -2.2772 N   0  0  0  0  0  0  0  0  0  0  0  0
  -22.8598   25.2692   -3.0855 N   0  0  0  0  0  0  0  0  0  0  0  0
  -23.5231   24.6649   -3.4648 C   0  0  0  0  0  0  0  0  0  0  0  0
  -20.8128   25.0059   -5.5671 O   0  0  0  0  0  0  0  0  0  0  0  0
  2  1  1  0
  4  3  2  0
  5  1  1  0
  5  3  1  0
  6  2  1  0
  6  4  1  0
  6  5  1  0
  7  1  1  0
M  END
>  <ID>  (1) 
conformer_0

$$$$
