
     RDKit          3D

  8  9  0  0  0  0  0  0  0  0999 V2000
  -22.0778   25.5448   -4.2319 C   0  0  0  0  0  0  0  0  0  0  0  0
  -23.7276   24.3260   -4.5028 C   0  0  0  0  0  0  0  0  0  0  0  0
  -24.0970   25.1884   -2.0361 N   0  0  0  0  0  0  0  0  0  0  0  0
  -23.1713   25.8512   -1.6428 C   0  0  0  0  0  0  0  0  0  0  0  0
  -20.6040   25.9269   -4.5226 O   0  0  0  0  0  0  0  0  0  0  0  0
  -23.6271   24.9154   -3.2269 C   0  0  0  0  0  0  0  0  0  0  0  0
  -22.6212   25.4968   -3.3260 N   0  0  0  0  0  0  0  0  0  0  0  0
  -22.7127   24.9194   -5.5787 C   0  0  0  0  0  0  0  0  0  0  0  0
  4  3  2  0
  5  1  1  0
  6  2  2  0
  6  3  1  0
  7  1  1  0
  7  4  1  0
  7  6  1  0
  8  1  2  0
  8  2  1  0
M  END
>  <ID>  (1) 
conformer_0

$$$$
