
     RDKit          3D

  9  9  0  0  0  0  0  0  0  0999 V2000
  -23.8492   25.5026   -1.1982 C   0  0  0  0  0  0  0  0  0  0  0  0
  -21.9855   25.4652   -4.8797 C   0  0  0  0  0  0  0  0  0  0  0  0
  -24.3823   24.8058   -2.1713 N   0  0  0  0  0  0  0  0  0  0  0  0
  -23.2645   24.8398   -5.0768 C   0  0  0  0  0  0  0  0  0  0  0  0
  -21.1831   25.7608   -5.9012 N   0  0  0  0  0  0  0  0  0  0  0  0
  -24.0298   24.6751   -3.2960 C   0  0  0  0  0  0  0  0  0  0  0  0
  -21.3176   25.5470   -3.7369 N   0  0  0  0  0  0  0  0  0  0  0  0
  -22.5301   25.5456   -2.9110 C   0  0  0  0  0  0  0  0  0  0  0  0
  -21.7880   25.8695   -2.2049 N   0  0  0  0  0  0  0  0  0  0  0  0
  3  1  1  0
  4  2  2  0
  5  2  1  0
  6  3  1  0
  6  4  1  0
  7  2  1  0
  8  6  2  0
  8  7  1  0
  9  8  1  0
M  END
>  <ID>  (1) 
conformer_0

$$$$
