
     RDKit          3D

  8  7  0  0  0  0  0  0  0  0999 V2000
  -22.1163   25.6712   -2.9359 C   0  0  0  0  0  0  0  0  0  0  0  0
  -24.0239   24.6631   -4.7741 C   0  0  0  0  0  0  0  0  0  0  0  0
  -22.0152   25.4350   -4.8162 C   0  0  0  0  0  0  0  0  0  0  0  0
  -24.1333   25.0048   -2.1184 N   0  0  0  0  0  0  0  0  0  0  0  0
  -20.9142   25.6115   -4.9925 N   0  0  0  0  0  0  0  0  0  0  0  0
  -23.9730   24.9992   -3.2831 C   0  0  0  0  0  0  0  0  0  0  0  0
  -23.4724   25.6593   -1.3025 C   0  0  0  0  0  0  0  0  0  0  0  0
  -22.8297   25.0240   -5.5743 C   0  0  0  0  0  0  0  0  0  0  0  0
  3  1  1  0
  5  3  1  0
  6  2  1  0
  6  4  1  0
  7  4  2  3
  8  2  1  0
  8  3  2  3
M  END
>  <ID>  (1) 
conformer_0

$$$$
