
     RDKit          3D

  9  9  0  0  0  0  0  0  0  0999 V2000
  -23.5129   25.5461   -1.4976 C   0  0  0  0  0  0  0  0  0  0  0  0
  -24.1208   24.4234   -4.5023 C   0  0  0  0  0  0  0  0  0  0  0  0
  -22.3223   25.7277   -3.2076 C   0  0  0  0  0  0  0  0  0  0  0  0
  -24.2636   24.9806   -2.1795 N   0  0  0  0  0  0  0  0  0  0  0  0
  -20.8716   25.8499   -5.0534 N   0  0  0  0  0  0  0  0  0  0  0  0
  -21.7953   26.1060   -2.6385 N   0  0  0  0  0  0  0  0  0  0  0  0
  -22.0473   25.4220   -4.8588 C   0  0  0  0  0  0  0  0  0  0  0  0
  -23.9790   24.8806   -3.3611 C   0  0  0  0  0  0  0  0  0  0  0  0
  -22.9531   24.6726   -5.5431 C   0  0  0  0  0  0  0  0  0  0  0  0
  4  1  2  3
  6  3  1  0
  7  3  2  0
  7  5  1  0
  8  2  2  0
  8  3  1  0
  8  4  1  0
  9  2  1  0
  9  7  1  0
M  END
>  <ID>  (1) 
conformer_0

$$$$
