
     RDKit          3D

  8  9  0  0  0  0  0  0  0  0999 V2000
  -23.8753   25.6301   -1.5203 C   0  0  0  0  0  0  0  0  0  0  0  0
  -23.1219   24.6855   -5.0955 C   0  0  0  0  0  0  0  0  0  0  0  0
  -21.8085   25.4279   -4.9062 C   0  0  0  0  0  0  0  0  0  0  0  0
  -24.4806   24.7250   -2.5125 N   0  0  0  0  0  0  0  0  0  0  0  0
  -20.8451   25.7888   -5.1397 N   0  0  0  0  0  0  0  0  0  0  0  0
  -22.9250   25.4768   -2.9792 N   0  0  0  0  0  0  0  0  0  0  0  0
  -24.0853   24.6534   -3.4379 C   0  0  0  0  0  0  0  0  0  0  0  0
  -22.2542   25.5875   -3.1331 C   0  0  0  0  0  0  0  0  0  0  0  0
  3  2  1  0
  4  1  2  0
  5  3  1  0
  6  1  1  0
  7  2  2  0
  7  4  1  0
  7  6  1  0
  8  3  2  0
  8  6  1  0
M  END
>  <ID>  (1) 
conformer_0

$$$$
