
     RDKit          3D

  9  9  0  0  0  0  0  0  0  0999 V2000
  -23.8984   25.4348   -1.5478 C   0  0  0  0  0  0  0  0  0  0  0  0
  -23.5067   24.6510   -4.8978 C   0  0  0  0  0  0  0  0  0  0  0  0
  -22.1816   25.4309   -4.4791 C   0  0  0  0  0  0  0  0  0  0  0  0
  -24.4457   25.0166   -2.6418 N   0  0  0  0  0  0  0  0  0  0  0  0
  -21.6983   25.1443   -5.9796 O   0  0  0  0  0  0  0  0  0  0  0  0
  -21.7196   25.8898   -2.3614 N   0  0  0  0  0  0  0  0  0  0  0  0
  -22.8313   25.3702   -3.1258 N   0  0  0  0  0  0  0  0  0  0  0  0
  -22.2078   25.8153   -2.3257 C   0  0  0  0  0  0  0  0  0  0  0  0
  -23.9867   24.9509   -3.6390 C   0  0  0  0  0  0  0  0  0  0  0  0
  3  2  2  3
  4  1  1  0
  5  3  1  0
  8  1  1  0
  8  6  1  0
  8  7  2  0
  9  2  1  0
  9  4  2  0
  9  7  1  0
M  END
>  <ID>  (1) 
conformer_0

$$$$
