
     RDKit          3D

  8  7  0  0  0  0  0  0  0  0999 V2000
  -22.4952   25.6204   -2.5165 C   0  0  0  0  0  3  0  0  0  0  0  0
  -20.9893   25.6067   -4.8989 N   0  0  0  0  0  0  0  0  0  0  0  0
  -24.3686   24.8519   -2.5174 N   0  0  0  0  0  0  0  0  0  0  0  0
  -23.4288   24.8236   -5.1515 C   0  0  0  0  0  0  0  0  0  0  0  0
  -21.9270   25.3834   -4.6836 C   0  0  0  0  0  0  0  0  0  0  0  0
  -24.2859   25.8913   -1.2673 O   0  0  0  0  0  0  0  0  0  0  0  0
  -23.7466   24.9446   -3.7616 C   0  0  0  0  0  0  0  0  0  0  0  0
  -23.1597   25.1640   -3.3093 N   0  0  0  0  0  0  0  0  0  0  0  0
  5  2  1  0
  5  4  2  3
  6  3  1  0
  7  3  2  3
  7  4  1  0
  8  1  2  3
  8  7  1  0
M  RAD  1   1   2
M  END
>  <ID>  (1) 
conformer_0

$$$$
