
     RDKit          3D

  7  7  0  0  0  0  0  0  0  0999 V2000
  -22.9269   25.6178   -1.8100 C   0  0  0  0  0  0  0  0  0  0  0  0
  -23.3477   24.6794   -5.0340 C   0  0  0  0  0  0  0  0  0  0  0  0
  -24.2927   24.8944   -2.3595 N   0  0  0  0  0  0  0  0  0  0  0  0
  -22.2559   25.5052   -4.2997 C   0  0  0  0  0  0  0  0  0  0  0  0
  -20.8878   25.6516   -5.1048 O   0  0  0  0  0  0  0  0  0  0  0  0
  -23.9442   24.9359   -3.0925 C   0  0  0  0  0  0  0  0  0  0  0  0
  -22.7710   25.4042   -3.2743 N   0  0  0  0  0  0  0  0  0  0  0  0
  3  1  1  0
  4  2  1  0
  5  4  1  0
  6  3  2  0
  7  1  1  0
  7  4  1  0
  7  6  1  0
M  END
>  <ID>  (1) 
conformer_0

$$$$
