
     RDKit          3D

  8  9  0  0  0  0  0  0  0  0999 V2000
  -23.8753   24.9171   -3.5720 C   0  0  0  0  0  0  0  0  0  0  0  0
  -23.6091   25.7034   -1.2690 C   0  0  0  0  0  0  0  0  0  0  0  0
  -24.3348   25.2490   -2.2036 N   0  0  0  0  0  0  0  0  0  0  0  0
  -23.3948   24.6460   -5.2597 C   0  0  0  0  0  0  0  0  0  0  0  0
  -21.1676   25.9044   -5.2100 N   0  0  0  0  0  0  0  0  0  0  0  0
  -22.5482   25.5795   -2.8264 C   0  0  0  0  0  0  0  0  0  0  0  0
  -21.6109   25.7599   -2.6583 N   0  0  0  0  0  0  0  0  0  0  0  0
  -22.0844   25.3239   -4.7103 C   0  0  0  0  0  0  0  0  0  0  0  0
  3  1  1  0
  3  2  2  0
  4  1  1  0
  6  1  1  0
  6  2  1  0
  7  6  1  0
  8  4  1  0
  8  5  1  0
  8  6  1  0
M  END
>  <ID>  (1) 
conformer_0

$$$$
