
     RDKit          3D

  7  7  0  0  0  0  0  0  0  0999 V2000
  -23.6790   25.5997   -1.5189 C   0  0  0  0  0  0  0  0  0  0  0  0
  -23.2386   24.7195   -5.0155 C   0  0  0  0  0  0  0  0  0  0  0  0
  -22.0107   25.4873   -4.3907 C   0  0  0  0  0  0  0  0  0  0  0  0
  -24.6066   24.9473   -2.1909 N   0  0  0  0  0  0  0  0  0  0  0  0
  -20.9423   25.6285   -5.0683 N   0  0  0  0  0  0  0  0  0  0  0  0
  -23.4806   25.0856   -3.2279 C   0  0  0  0  0  0  0  0  0  0  0  0
  -22.9940   25.4784   -2.6682 N   0  0  0  0  0  0  0  0  0  0  0  0
  3  2  2  3
  4  1  2  0
  5  3  1  0
  6  2  1  0
  6  4  1  0
  7  1  1  0
  7  6  2  0
M  END
>  <ID>  (1) 
conformer_0

$$$$
