
     RDKit          3D

  9  9  0  0  0  0  0  0  0  0999 V2000
  -23.3580   24.6735   -5.1154 C   0  0  0  0  0  0  0  0  0  0  0  0
  -23.2766   25.2169   -3.4980 C   0  0  0  0  0  0  0  0  0  0  0  0
  -24.2283   24.9869   -1.1786 O   0  0  0  0  0  1  0  0  0  0  0  0
  -23.6325   25.5402   -1.8961 P   0  0  0  0  0  4  0  0  0  0  0  0
  -23.3572   26.5288   -1.4091 O   0  0  0  0  0  0  0  0  0  0  0  0
  -20.4317   25.5093   -5.0055 O   0  0  0  0  0  0  0  0  0  0  0  0
  -22.3220   25.8724   -2.7263 O   0  0  0  0  0  0  0  0  0  0  0  0
  -20.8824   25.8191   -5.5011 N   0  0  0  0  0  0  0  0  0  0  0  0
  -22.0077   25.5561   -4.7063 C   0  0  0  0  0  0  0  0  0  0  0  0
  2  1  1  0
  4  2  1  0
  4  3  1  0
  5  4  1  0
  7  2  1  0
  8  6  1  0
  9  1  2  0
  9  2  1  0
  9  8  1  0
M  RAD  2   3   2   4   2
M  END
>  <ID>  (1) 
conformer_0

$$$$
