
     RDKit          3D

  8  9  0  0  0  0  0  0  0  0999 V2000
  -21.9073   25.4990   -4.7245 C   0  0  0  0  0  0  0  0  0  0  0  0
  -23.9253   25.4457   -1.3466 C   0  0  0  0  0  0  0  0  0  0  0  0
  -24.4699   24.8165   -2.9471 N   0  0  0  0  0  0  0  0  0  0  0  0
  -23.0721   24.8013   -5.5089 C   0  0  0  0  0  0  0  0  0  0  0  0
  -20.9602   25.8682   -5.4973 N   0  0  0  0  0  0  0  0  0  0  0  0
  -22.6950   25.5536   -2.5896 C   0  0  0  0  0  0  0  0  0  0  0  0
  -23.5860   24.9488   -4.0295 C   0  0  0  0  0  0  0  0  0  0  0  0
  -21.9319   25.9950   -2.2868 N   0  0  0  0  0  0  0  0  0  0  0  0
  3  2  1  0
  4  1  2  0
  5  1  1  0
  6  2  2  0
  7  1  1  0
  7  3  1  0
  7  4  1  0
  7  6  1  0
  8  6  1  0
M  END
>  <ID>  (1) 
conformer_0

$$$$
