
     RDKit          3D

 10 10  0  0  0  0  0  0  0  0999 V2000
  -22.4594   25.5221   -3.3402 C   0  0  0  0  0  0  0  0  0  0  0  0
  -24.4591   24.8767   -2.3647 N   0  0  0  0  0  0  0  0  0  0  0  0
  -22.4895   25.6993   -6.0880 O   0  0  0  0  0  0  0  0  0  0  0  0
  -23.8046   24.6933   -4.7368 C   0  0  0  0  0  0  0  0  0  0  0  0
  -21.5045   25.5652   -5.0864 P   0  0  0  0  0  0  0  0  0  0  0  0
  -23.5426   25.5600   -1.7381 C   0  0  0  0  0  0  0  0  0  0  0  0
  -22.6506   25.9406   -1.6556 N   0  0  0  0  0  0  0  0  0  0  0  0
  -21.0067   25.6021   -4.2378 O   0  0  0  0  0  0  0  0  0  0  0  0
  -24.0074   24.8191   -3.6838 C   0  0  0  0  0  0  0  0  0  0  0  0
  -20.7649   25.4496   -5.4635 O   0  0  0  0  0  0  0  0  0  0  0  0
  5  3  1  0
  6  2  2  0
  7  1  1  0
  7  6  1  0
  8  1  1  0
  8  5  1  0
  9  1  2  0
  9  2  1  0
  9  4  1  0
 10  5  1  0
M  END
>  <ID>  (1) 
conformer_0

$$$$
