
     RDKit          3D

  9  8  0  0  0  0  0  0  0  0999 V2000
  -23.7579   24.6231   -4.8475 C   0  0  0  0  0  0  0  0  0  0  0  0
  -23.8046   25.4620   -1.5433 C   0  0  0  0  0  0  0  0  0  0  0  0
  -22.2923   25.6174   -3.1287 C   0  0  0  0  0  0  0  0  0  0  0  0
  -24.3313   24.7227   -2.5285 N   0  0  0  0  0  0  0  0  0  0  0  0
  -20.8476   26.1430   -5.8714 O   0  0  0  0  0  0  0  0  0  0  0  0
  -21.2736   25.9670   -3.7026 N   0  0  0  0  0  0  0  0  0  0  0  0
  -21.5636   25.6602   -5.0095 C   0  0  0  0  0  0  0  0  0  0  0  0
  -22.5276   25.0036   -5.4274 C   0  0  0  0  0  0  0  0  0  0  0  0
  -24.1288   24.7726   -3.4255 C   0  0  0  0  0  0  0  0  0  0  0  0
  4  2  1  0
  6  3  1  0
  7  5  2  0
  7  6  1  0
  8  1  2  3
  8  7  1  0
  9  1  1  0
  9  4  1  0
M  END
>  <ID>  (1) 
conformer_0

$$$$
