
     RDKit          3D

  8  8  0  0  0  0  0  0  0  0999 V2000
  -23.6165   24.8573   -3.8036 C   0  0  0  0  0  0  0  0  0  0  0  0
  -22.6375   25.5444   -2.5938 C   0  0  0  0  0  0  0  0  0  0  0  0
  -24.5154   24.8976   -2.6083 N   0  0  0  0  0  0  0  0  0  0  0  0
  -22.9879   24.7922   -5.4576 C   0  0  0  0  0  0  0  0  0  0  0  0
  -21.9638   25.4083   -4.7767 C   0  0  0  0  0  0  0  0  0  0  0  0
  -21.0462   25.8483   -5.1230 N   0  0  0  0  0  0  0  0  0  0  0  0
  -24.0187   25.5238   -1.3570 C   0  0  0  0  0  0  0  0  0  0  0  0
  -21.7878   25.8433   -2.4413 N   0  0  0  0  0  0  0  0  0  0  0  0
  2  1  2  0
  3  1  1  0
  4  1  1  0
  5  4  2  3
  6  5  1  0
  7  2  1  0
  7  3  2  0
  8  2  1  0
M  END
>  <ID>  (1) 
conformer_0

$$$$
