
     RDKit          3D

 10 11  0  0  0  0  0  0  0  0999 V2000
  -24.3013   25.4208   -1.1296 C   0  0  0  0  0  0  0  0  0  0  0  0
  -22.6846   24.9677   -5.9142 C   0  0  0  0  0  0  0  0  0  0  0  0
  -23.9604   24.9699   -3.4609 C   0  0  0  0  0  0  0  0  0  0  0  0
  -24.2951   25.0496   -2.0473 N   0  0  0  0  0  0  0  0  0  0  0  0
  -20.9197   25.8154   -5.3384 N   0  0  0  0  0  0  0  0  0  0  0  0
  -21.6609   25.4302   -5.2995 C   0  0  0  0  0  0  0  0  0  0  0  0
  -23.7795   24.7397   -5.0184 C   0  0  0  0  0  0  0  0  0  0  0  0
  -21.5656   25.7495   -2.7528 N   0  0  0  0  0  0  0  0  0  0  0  0
  -22.6668   25.5905   -1.7121 C   0  0  0  0  0  0  0  0  0  0  0  0
  -22.2060   25.4574   -3.6698 C   0  0  0  0  0  0  0  0  0  0  0  0
  4  1  1  0
  4  3  1  0
  6  2  2  0
  6  5  1  0
  7  2  1  0
  7  3  1  0
  9  1  1  0
  9  8  1  0
 10  3  2  0
 10  6  1  0
 10  8  1  0
M  END
>  <ID>  (1) 
conformer_0

$$$$
