
     RDKit          3D

  7  7  0  0  0  0  0  0  0  0999 V2000
  -23.8393   25.5875   -1.0894 C   0  0  0  0  0  0  0  0  0  0  0  0
  -22.3304   25.3120   -4.5837 C   0  0  0  0  0  0  0  0  0  0  0  0
  -24.2384   25.1264   -2.0515 N   0  0  0  0  0  0  0  0  0  0  0  0
  -23.5337   24.6656   -4.9975 C   0  0  0  0  0  0  0  0  0  0  0  0
  -21.2718   25.5241   -5.4406 N   0  0  0  0  0  0  0  0  0  0  0  0
  -23.8587   24.9347   -3.3427 C   0  0  0  0  0  0  0  0  0  0  0  0
  -22.4320   25.7584   -2.3159 C   0  0  0  0  0  0  0  0  0  0  0  0
  3  1  2  0
  4  2  1  0
  5  2  1  0
  6  3  1  0
  6  4  2  3
  7  1  1  0
  7  6  1  0
M  END
>  <ID>  (1) 
conformer_0

$$$$
