
     RDKit          3D

  8  8  0  0  0  0  0  0  0  0999 V2000
  -24.1227   25.7438   -1.3422 C   0  0  0  0  0  3  0  0  0  0  0  0
  -23.8585   24.6510   -3.3326 C   0  0  1  0  0  0  0  0  0  0  0  0
  -24.1981   25.2786   -2.0378 N   0  0  0  0  0  0  0  0  0  0  0  0
  -23.3910   24.5783   -5.1111 C   0  0  0  0  0  0  0  0  0  0  0  0
  -22.8312   25.3381   -3.2181 N   0  0  0  0  0  0  0  0  0  0  0  0
  -21.7103   25.8598   -5.6387 N   0  0  0  0  0  0  0  0  0  0  0  0
  -22.2079   25.3555   -4.9564 C   0  0  2  0  0  0  0  0  0  0  0  0
  -22.4345   25.5782   -2.9316 C   0  0  0  0  0  0  0  0  0  0  0  0
  3  1  2  3
  3  2  1  0
  2  4  1  6
  5  2  1  0
  7  4  1  0
  7  5  1  0
  7  6  1  6
  8  5  1  0
M  RAD  1   1   2
M  END
>  <ID>  (1) 
conformer_0

$$$$
