
     RDKit          3D

  8  8  0  0  0  0  0  0  0  0999 V2000
  -23.2302   25.1868   -3.4670 C   0  0  0  0  0  0  0  0  0  0  0  0
  -21.9935   25.3677   -4.4282 C   0  0  1  0  0  0  0  0  0  0  0  0
  -24.3811   24.8801   -2.6074 N   0  0  0  0  0  0  0  0  0  0  0  0
  -23.1529   24.8378   -5.1271 C   0  0  0  0  0  0  0  0  0  0  0  0
  -23.7781   25.5418   -1.8491 C   0  0  0  0  0  0  0  0  0  0  0  0
  -21.0697   25.6637   -4.9526 N   0  0  0  0  0  0  0  0  0  0  0  0
  -21.4837   25.7933   -3.1765 O   0  0  0  0  0  0  0  0  0  0  0  0
  -22.8499   26.1691   -1.9100 N   0  0  0  0  0  0  0  0  0  0  0  0
  2  1  1  0
  3  1  1  0
  4  1  2  0
  4  2  1  0
  5  3  2  3
  2  6  1  6
  7  2  1  0
  8  5  1  0
M  END
>  <ID>  (1) 
conformer_0

$$$$
