
     RDKit          3D

  8  9  0  0  0  0  0  0  0  0999 V2000
  -23.9577   25.3037   -1.3238 C   0  0  0  0  0  0  0  0  0  0  0  0
  -23.1143   25.0278   -5.6198 C   0  0  0  0  0  0  0  0  0  0  0  0
  -23.6306   25.0126   -3.7342 C   0  0  0  0  0  0  0  0  0  0  0  0
  -24.3869   24.9501   -2.3645 N   0  0  0  0  0  0  0  0  0  0  0  0
  -21.8243   25.4913   -4.8312 C   0  0  0  0  0  0  0  0  0  0  0  0
  -20.9499   25.8953   -4.6495 N   0  0  0  0  0  0  0  0  0  0  0  0
  -22.6107   25.4684   -3.1938 N   0  0  0  0  0  0  0  0  0  0  0  0
  -22.4805   25.6709   -2.1694 C   0  0  0  0  0  0  0  0  0  0  0  0
  3  2  1  0
  4  1  1  0
  4  3  2  0
  5  2  2  0
  6  5  1  0
  7  3  1  0
  7  5  1  0
  8  1  2  0
  8  7  1  0
M  END
>  <ID>  (1) 
conformer_0

$$$$
