
     RDKit          3D

  8  8  0  0  0  0  0  0  0  0999 V2000
  -23.3740   25.6482   -1.6778 C   0  0  0  0  0  0  0  0  0  0  0  0
  -22.2439   25.4020   -4.0154 C   0  0  0  0  0  0  0  0  0  0  0  0
  -23.4228   24.7657   -5.1647 C   0  0  0  0  0  0  0  0  0  0  0  0
  -24.3127   25.0597   -2.3309 N   0  0  0  0  0  0  0  0  0  0  0  0
  -20.4453   25.3775   -4.6821 O   0  0  0  0  0  0  0  0  0  0  0  0
  -22.8526   25.4280   -3.1720 N   0  0  0  0  0  0  0  0  0  0  0  0
  -23.9197   25.0242   -3.3106 C   0  0  0  0  0  0  0  0  0  0  0  0
  -21.2275   25.6880   -3.4142 N   0  0  0  0  0  0  0  0  0  0  0  0
  3  2  1  0
  4  1  1  0
  6  1  1  0
  6  2  1  0
  7  4  2  0
  7  6  1  0
  8  2  1  0
  8  5  1  0
M  END
>  <ID>  (1) 
conformer_0

$$$$
