
     RDKit          3D

  7  7  0  0  0  0  0  0  0  0999 V2000
  -22.3007   25.3729   -4.2761 C   0  0  2  0  0  0  0  0  0  0  0  0
  -24.3322   25.0344   -2.0905 N   0  0  0  0  0  0  0  0  0  0  0  0
  -23.3472   25.6356   -1.5276 C   0  0  0  0  0  0  0  0  0  0  0  0
  -21.1000   25.7874   -5.2629 N   0  0  0  0  0  0  0  0  0  0  0  0
  -21.9311   25.6794   -2.4052 N   0  0  0  0  0  0  0  0  0  0  0  0
  -23.4349   24.5840   -4.9752 C   0  0  0  0  0  0  0  0  0  0  0  0
  -23.5388   24.9871   -3.3480 C   0  0  0  0  0  0  0  0  0  0  0  0
  3  2  2  3
  1  4  1  6
  5  3  1  0
  6  1  1  0
  7  1  1  0
  7  2  1  0
  7  6  2  0
M  END
>  <ID>  (1) 
conformer_0

$$$$
