
     RDKit          3D

 10 11  0  0  0  0  0  0  0  0999 V2000
  -21.7276   25.3665   -3.9451 N   0  0  0  0  0  0  0  0  0  0  0  0
  -22.9276   25.5665   -4.5451 C   0  0  0  0  0  0  0  0  0  0  0  0
  -21.5276   25.7665   -2.5451 C   0  0  0  0  0  0  0  0  0  0  0  0
  -22.9276   25.8665   -2.0451 C   0  0  0  0  0  0  0  0  0  0  0  0
  -20.5276   25.3665   -4.7451 C   0  0  0  0  0  0  0  0  0  0  0  0
  -24.0276   24.7665   -3.9451 C   0  0  0  0  0  0  0  0  0  0  0  0
  -23.9276   24.9665   -2.3451 C   0  0  0  0  0  0  0  0  0  0  0  0
  -20.4276   25.8665   -6.1451 C   0  0  0  0  0  0  0  0  0  0  0  0
  -21.7276   25.7665   -6.7451 C   0  0  0  0  0  0  0  0  0  0  0  0
  -22.8276   25.1665   -6.0451 C   0  0  0  0  0  0  0  0  0  0  0  0
  2  1  1  0
  3  1  1  0
  4  3  1  0
  5  1  1  0
  6  2  1  0
  7  4  1  0
  7  6  1  0
  8  5  1  0
  9  8  1  0
 10  2  1  0
 10  9  1  0
M  END
>  <ID>  (1) 
conformer_0

$$$$
