
     RDKit          3D

  6  6  0  0  0  0  0  0  0  0999 V2000
  -23.2564   25.9899   -1.7453 C   0  0  0  0  0  0  0  0  0  0  0  0
  -21.9564   25.8899   -2.2453 C   0  0  0  0  0  0  0  0  0  0  0  0
  -21.6564   25.3899   -3.4453 C   0  0  0  0  0  0  0  0  0  0  0  0
  -22.6564   25.4899   -4.4453 C   0  0  0  0  0  0  0  0  0  0  0  0
  -23.9564   25.1899   -4.0453 C   0  0  0  0  0  0  0  0  0  0  0  0
  -24.1564   25.0899   -2.6453 C   0  0  0  0  0  0  0  0  0  0  0  0
  2  1  2  0
  3  2  1  0
  4  3  2  0
  5  4  1  0
  6  1  1  0
  6  5  2  0
M  END
>  <ID>  (1) 
conformer_0

$$$$
