
     RDKit          3D

 11 11  0  0  0  0  0  0  0  0999 V2000
  -21.5439   25.1108   -4.2580 C   0  0  0  0  0  0  0  0  0  0  0  0
  -22.8439   25.3108   -4.9580 C   0  0  0  0  0  0  0  0  0  0  0  0
  -22.6439   25.7108   -6.3580 N   0  0  0  0  0  0  0  0  0  0  0  0
  -20.3439   25.6108   -4.9580 C   0  0  0  0  0  0  0  0  0  0  0  0
  -20.2439   26.1108   -6.3580 C   0  0  0  0  0  0  0  0  0  0  0  0
  -21.6439   26.2108   -6.9580 C   0  0  0  0  0  0  0  0  0  0  0  0
  -21.7439   27.2108   -7.7580 O   0  0  0  0  0  0  0  0  0  0  0  0
  -21.6439   25.6108   -2.8580 N   0  0  0  0  0  0  0  0  0  0  0  0
  -22.9439   25.7108   -2.2580 C   0  0  0  0  0  0  0  0  0  0  0  0
  -22.9439   25.2108   -0.8580 C   0  0  0  0  0  0  0  0  0  0  0  0
  -24.2439   25.4108   -0.1580 C   0  0  0  0  0  0  0  0  0  0  0  0
  2  1  1  0
  3  2  1  0
  4  1  1  0
  5  4  1  0
  6  3  1  0
  6  5  1  0
  7  6  2  0
  8  1  1  0
  9  8  1  0
 10  9  1  0
 11 10  1  0
M  END
>  <ID>  (1) 
conformer_0

$$$$
