
     RDKit          3D

 10 10  0  0  0  0  0  0  0  0999 V2000
  -21.5439   25.1108   -4.2580 C   0  0  0  0  0  0  0  0  0  0  0  0
  -22.8439   25.3108   -4.9580 C   0  0  0  0  0  0  0  0  0  0  0  0
  -22.8439   25.4108   -6.3580 N   0  0  0  0  0  0  0  0  0  0  0  0
  -21.6439   25.6108   -2.8580 C   0  0  0  0  0  0  0  0  0  0  0  0
  -23.0439   25.9108   -2.4580 C   0  0  0  0  0  0  0  0  0  0  0  0
  -24.0439   24.9108   -2.7580 C   0  0  0  0  0  0  0  0  0  0  0  0
  -24.0439   24.8108   -4.2580 C   0  0  0  0  0  0  0  0  0  0  0  0
  -21.9439   26.3108   -7.0580 C   0  0  0  0  0  0  0  0  0  0  0  0
  -23.1439   26.4108   -1.1580 O   0  0  0  0  0  0  0  0  0  0  0  0
  -23.6439   25.4108   -0.2580 C   0  0  0  0  0  0  0  0  0  0  0  0
  2  1  1  0
  3  2  1  0
  4  1  1  0
  5  4  1  0
  6  5  1  0
  7  2  1  0
  7  6  1  0
  8  3  1  0
  9  5  1  0
 10  9  1  0
M  END
>  <ID>  (1) 
conformer_0

$$$$
