
     RDKit          3D

  7  7  0  0  0  0  0  0  0  0999 V2000
  -21.3312   25.8124   -3.0472 C   0  0  0  0  0  0  0  0  0  0  0  0
  -22.0312   25.9124   -1.8472 C   0  0  0  0  0  0  0  0  0  0  0  0
  -21.8312   25.2124   -4.2472 C   0  0  0  0  0  0  0  0  0  0  0  0
  -23.1312   25.5124   -4.4472 C   0  0  0  0  0  0  0  0  0  0  0  0
  -23.4312   25.7124   -2.0472 C   0  0  0  0  0  0  0  0  0  0  0  0
  -23.7312   24.9124   -5.5472 N   0  0  0  0  0  0  0  0  0  0  0  0
  -23.8312   25.7124   -3.3472 N   0  0  0  0  0  0  0  0  0  0  0  0
  2  1  2  0
  3  1  1  0
  4  3  2  0
  5  2  1  0
  6  4  1  0
  7  4  1  0
  7  5  2  0
M  END
>  <ID>  (1) 
conformer_0

$$$$
