
     RDKit          3D

 11 11  0  0  0  0  0  0  0  0999 V2000
  -21.3505   25.4227   -3.4660 C   0  0  0  0  0  0  0  0  0  0  0  0
  -22.7505   25.8227   -3.2660 C   0  0  0  0  0  0  0  0  0  0  0  0
  -23.0505   26.1227   -1.8660 C   0  0  0  0  0  0  0  0  0  0  0  0
  -20.9505   25.4227   -4.8660 C   0  0  0  0  0  0  0  0  0  0  0  0
  -22.0505   25.7227   -5.7660 C   0  0  0  0  0  0  0  0  0  0  0  0
  -23.3505   25.3227   -5.5660 N   0  0  0  0  0  0  0  0  0  0  0  0
  -22.5505   24.5227   -3.5660 O   0  0  0  0  0  0  0  0  0  0  0  0
  -21.7505   26.3227   -7.0660 C   0  0  0  0  0  0  0  0  0  0  0  0
  -21.8505   25.6227   -1.1660 O   0  0  0  0  0  0  0  0  0  0  0  0
  -20.5505   25.3227   -1.0660 C   0  0  0  0  0  0  0  0  0  0  0  0
  -23.7505   24.0227   -6.1660 C   0  0  0  0  0  0  0  0  0  0  0  0
  2  1  1  0
  3  2  1  0
  4  1  1  0
  5  4  1  0
  6  5  1  0
  7  1  1  0
  7  2  1  0
  8  5  1  0
  9  3  1  0
 10  9  1  0
 11  6  1  0
M  END
>  <ID>  (1) 
conformer_0

$$$$
