
     RDKit          3D

  6  7  0  0  0  0  0  0  0  0999 V2000
  -21.2490   25.8908   -3.4143 N   0  0  0  0  0  0  0  0  0  0  0  0
  -22.0490   25.6908   -2.2143 C   0  0  0  0  0  0  0  0  0  0  0  0
  -21.6490   25.3908   -4.6143 C   0  0  0  0  0  0  0  0  0  0  0  0
  -23.0490   25.3908   -4.5143 C   0  0  0  0  0  0  0  0  0  0  0  0
  -23.3490   25.7908   -3.1143 C   0  0  0  0  0  0  0  0  0  0  0  0
  -21.3490   24.6908   -2.6143 C   0  0  0  0  0  0  0  0  0  0  0  0
  2  1  1  0
  3  1  1  0
  4  3  2  0
  5  2  2  0
  5  4  1  0
  6  1  1  0
  6  2  1  0
M  END
>  <ID>  (1) 
conformer_0

$$$$
