
     RDKit          3D

  7  8  0  0  0  0  0  0  0  0999 V2000
  -22.6363   25.7783   -1.6106 C   0  0  0  0  0  0  0  0  0  0  0  0
  -21.6363   25.6783   -2.7106 C   0  0  0  0  0  0  0  0  0  0  0  0
  -22.0363   25.3783   -4.0106 C   0  0  0  0  0  0  0  0  0  0  0  0
  -23.4363   25.5783   -4.2106 C   0  0  0  0  0  0  0  0  0  0  0  0
  -23.8363   25.0783   -1.9106 C   0  0  0  0  0  0  0  0  0  0  0  0
  -24.1363   25.1783   -3.1106 N   0  0  0  0  0  0  0  0  0  0  0  0
  -21.9363   24.2783   -3.1106 O   0  0  0  0  0  0  0  0  0  0  0  0
  2  1  2  0
  3  2  1  0
  4  3  2  0
  5  1  1  0
  6  4  1  0
  6  5  2  0
  7  2  1  0
  7  3  1  0
M  END
>  <ID>  (1) 
conformer_0

$$$$
