
     RDKit          3D

  5  5  0  0  0  0  0  0  0  0999 V2000
  -21.1855   24.7594   -3.2039 C   0  0  0  0  0  0  0  0  0  0  0  0
  -22.2855   25.7594   -3.1039 C   0  0  0  0  0  0  0  0  0  0  0  0
  -22.7855   25.8594   -1.7039 C   0  0  0  0  0  0  0  0  0  0  0  0
  -22.1855   24.7594   -0.9039 C   0  0  0  0  0  0  0  0  0  0  0  0
  -20.9855   24.2594   -1.6039 C   0  0  0  0  0  0  0  0  0  0  0  0
  2  1  1  0
  3  2  1  0
  4  3  1  0
  5  1  1  0
  5  4  1  0
M  END
>  <ID>  (1) 
conformer_0

$$$$
