
     RDKit          3D

  7  7  0  0  0  0  0  0  0  0999 V2000
  -24.0060   25.7366   -1.3438 C   0  0  0  0  0  0  0  0  0  0  0  0
  -24.0060   25.2366    0.0562 C   0  0  0  0  0  0  0  0  0  0  0  0
  -22.7060   25.9366   -1.8438 C   0  0  0  0  0  0  0  0  0  0  0  0
  -21.8060   25.4366   -0.9438 N   0  0  0  0  0  0  0  0  0  0  0  0
  -22.5060   24.9366    0.2562 C   0  0  0  0  0  0  0  0  0  0  0  0
  -20.5060   25.0366   -1.1438 C   0  0  0  0  0  0  0  0  0  0  0  0
  -20.2060   24.8366   -2.4438 O   0  0  0  0  0  0  0  0  0  0  0  0
  2  1  1  0
  3  1  2  0
  4  3  1  0
  5  2  2  0
  5  4  1  0
  6  4  1  0
  7  6  1  0
M  END
>  <ID>  (1) 
conformer_0

$$$$
