
     RDKit          3D

 10 11  0  0  0  0  0  0  0  0999 V2000
  -21.3505   25.4227   -3.4660 C   0  0  0  0  0  0  0  0  0  0  0  0
  -22.7505   25.8227   -3.2660 C   0  0  0  0  0  0  0  0  0  0  0  0
  -23.3505   25.6227   -1.9660 C   0  0  0  0  0  0  0  0  0  0  0  0
  -20.8505   25.6227   -4.8660 C   0  0  0  0  0  0  0  0  0  0  0  0
  -22.4505   25.1227   -0.9660 C   0  0  0  0  0  0  0  0  0  0  0  0
  -21.0505   24.8227   -1.0660 C   0  0  0  0  0  0  0  0  0  0  0  0
  -20.5505   25.2227   -2.3660 N   0  0  0  0  0  0  0  0  0  0  0  0
  -22.0505   25.5227   -5.6660 C   0  0  0  0  0  0  0  0  0  0  0  0
  -23.2505   25.7227   -4.6660 N   0  0  0  0  0  0  0  0  0  0  0  0
  -22.3505   24.8227   -6.5660 O   0  0  0  0  0  0  0  0  0  0  0  0
  2  1  1  0
  3  2  1  0
  4  1  1  0
  5  3  1  0
  6  5  1  0
  7  1  1  0
  7  6  1  0
  8  4  1  0
  9  2  1  0
  9  8  1  0
 10  8  2  0
M  END
>  <ID>  (1) 
conformer_0

$$$$
