
     RDKit          3D

 12 14  0  0  0  0  0  0  0  0999 V2000
  -21.4333   25.4206   -3.7019 C   0  0  0  0  0  0  0  0  0  0  0  0
  -21.9333   25.8206   -2.4019 C   0  0  0  0  0  0  0  0  0  0  0  0
  -23.3333   25.6206   -2.1019 C   0  0  0  0  0  0  0  0  0  0  0  0
  -22.5333   25.1206   -4.6019 C   0  0  0  0  0  0  0  0  0  0  0  0
  -22.5333   25.9206   -5.8019 N   0  0  0  0  0  0  0  0  0  0  0  0
  -23.9333   24.4206   -2.6019 C   0  0  0  0  0  0  0  0  0  0  0  0
  -23.6333   24.3206   -4.1019 C   0  0  0  0  0  0  0  0  0  0  0  0
  -21.9333   26.3206   -6.8019 C   0  0  0  0  0  0  0  0  0  0  0  0
  -22.1333   26.4206   -7.9019 O   0  0  0  0  0  0  0  0  0  0  0  0
  -20.9333   26.2206   -5.9019 C   0  0  0  0  0  0  0  0  0  0  0  0
  -19.7333   25.6206   -5.5019 C   0  0  0  0  0  0  0  0  0  0  0  0
  -21.4333   24.4206   -2.7019 O   0  0  0  0  0  0  0  0  0  0  0  0
  2  1  1  0
  3  2  1  0
  4  1  1  0
  5  4  1  0
  6  3  1  0
  7  4  1  0
  7  6  1  0
  8  5  1  0
  9  8  2  0
 10  5  1  0
 10  8  1  0
 11 10  1  0
 12  1  1  0
 12  2  1  0
M  END
>  <ID>  (1) 
conformer_0

$$$$
