
     RDKit          3D

  9 10  0  0  0  0  0  0  0  0999 V2000
  -21.5145   25.4354   -3.6082 C   0  0  0  0  0  0  0  0  0  0  0  0
  -22.9145   25.5354   -4.1082 C   0  0  0  0  0  0  0  0  0  0  0  0
  -20.5145   25.3354   -4.7082 C   0  0  0  0  0  0  0  0  0  0  0  0
  -22.9145   25.2354   -5.4082 N   0  0  0  0  0  0  0  0  0  0  0  0
  -20.6145   26.1354   -5.9082 C   0  0  0  0  0  0  0  0  0  0  0  0
  -22.0145   25.8354   -6.2082 C   0  0  0  0  0  0  0  0  0  0  0  0
  -21.3145   25.8354   -2.3082 N   0  0  0  0  0  0  0  0  0  0  0  0
  -22.6145   26.0354   -1.9082 C   0  0  0  0  0  0  0  0  0  0  0  0
  -23.7145   25.4354   -2.9082 C   0  0  0  0  0  0  0  0  0  0  0  0
  2  1  1  0
  3  1  1  0
  4  2  1  0
  5  3  1  0
  6  4  1  0
  6  5  1  0
  7  1  1  0
  8  7  1  0
  9  2  1  0
  9  8  1  0
M  END
>  <ID>  (1) 
conformer_0

$$$$
