
     RDKit          3D

  7  8  0  0  0  0  0  0  0  0999 V2000
  -21.7276   25.3665   -3.9451 N   0  0  0  0  0  0  0  0  0  0  0  0
  -22.9276   25.5665   -4.5451 C   0  0  0  0  0  0  0  0  0  0  0  0
  -21.5276   25.7665   -2.5451 C   0  0  0  0  0  0  0  0  0  0  0  0
  -22.9276   25.8665   -2.0451 C   0  0  0  0  0  0  0  0  0  0  0  0
  -23.8276   24.7665   -2.3451 C   0  0  0  0  0  0  0  0  0  0  0  0
  -24.0276   24.7665   -3.9451 C   0  0  0  0  0  0  0  0  0  0  0  0
  -21.6276   24.2665   -3.0451 C   0  0  0  0  0  0  0  0  0  0  0  0
  2  1  1  0
  3  1  1  0
  4  3  1  0
  5  4  1  0
  6  2  1  0
  6  5  1  0
  7  1  1  0
  7  3  1  0
M  END
>  <ID>  (1) 
conformer_0

$$$$
