
     RDKit          3D

  8  9  0  0  0  0  0  0  0  0999 V2000
  -21.2490   25.8908   -3.4143 N   0  0  0  0  0  0  0  0  0  0  0  0
  -21.7490   25.7908   -2.1143 C   0  0  0  0  0  0  0  0  0  0  0  0
  -22.1490   25.4908   -4.4143 C   0  0  0  0  0  0  0  0  0  0  0  0
  -23.2490   25.7908   -2.1143 C   0  0  0  0  0  0  0  0  0  0  0  0
  -23.4490   25.6908   -4.5143 C   0  0  0  0  0  0  0  0  0  0  0  0
  -22.6490   24.6908   -2.2143 C   0  0  0  0  0  0  0  0  0  0  0  0
  -22.9490   24.3908   -4.3143 C   0  0  0  0  0  0  0  0  0  0  0  0
  -20.0490   25.1908   -3.7143 O   0  0  0  0  0  0  0  0  0  0  0  0
  2  1  1  0
  3  1  1  0
  4  2  1  0
  5  3  1  0
  6  2  1  0
  6  4  2  0
  7  3  1  0
  7  5  2  0
  8  1  1  0
M  END
>  <ID>  (1) 
conformer_0

$$$$
