
     RDKit          3D

  9 10  0  0  0  0  0  0  0  0999 V2000
  -23.2529   26.0732   -1.9802 C   0  0  0  0  0  0  0  0  0  0  0  0
  -21.8529   25.9732   -2.1802 C   0  0  0  0  0  0  0  0  0  0  0  0
  -21.3529   25.4732   -3.3802 C   0  0  0  0  0  0  0  0  0  0  0  0
  -22.4529   25.0732   -4.1802 C   0  0  0  0  0  0  0  0  0  0  0  0
  -24.0529   25.5732   -0.8802 C   0  0  0  0  0  0  0  0  0  0  0  0
  -22.6529   25.4732   -5.4802 N   0  0  0  0  0  0  0  0  0  0  0  0
  -23.2529   25.8731   -4.3802 C   0  0  0  0  0  0  0  0  0  0  0  0
  -23.8529   24.8731   -2.0802 N   0  0  0  0  0  0  0  0  0  0  0  0
  -20.1529   24.7731   -3.1802 N   0  0  0  0  0  0  0  0  0  0  0  0
  2  1  1  0
  3  2  1  0
  4  3  1  0
  5  1  1  0
  6  4  1  0
  7  4  1  0
  7  6  1  0
  8  1  1  0
  8  5  1  0
  9  3  1  0
M  END
>  <ID>  (1) 
conformer_0

$$$$
