
     RDKit          3D

 10 10  0  0  0  0  0  0  0  0999 V2000
  -21.7276   25.3665   -3.9451 N   0  0  0  0  0  0  0  0  0  0  0  0
  -22.9276   25.5665   -4.5451 C   0  0  0  0  0  0  0  0  0  0  0  0
  -21.5276   25.7665   -2.5451 C   0  0  0  0  0  0  0  0  0  0  0  0
  -22.9276   25.8665   -2.0451 C   0  0  0  0  0  0  0  0  0  0  0  0
  -20.5276   25.3665   -4.7451 C   0  0  0  0  0  0  0  0  0  0  0  0
  -20.4276   25.6665   -6.1451 C   0  0  0  0  0  0  0  0  0  0  0  0
  -23.1276   24.5665   -5.6451 C   0  0  0  0  0  0  0  0  0  0  0  0
  -21.6276   26.1665   -6.8451 C   0  0  0  0  0  0  0  0  0  0  0  0
  -22.8276   25.3665   -6.8451 N   0  0  0  0  0  0  0  0  0  0  0  0
  -23.1276   25.1665   -0.7451 C   0  0  0  0  0  0  0  0  0  0  0  0
  2  1  1  0
  3  1  1  0
  4  3  1  0
  5  1  1  0
  6  5  2  0
  7  2  1  0
  8  6  1  0
  9  7  1  0
  9  8  1  0
 10  4  1  0
M  END
>  <ID>  (1) 
conformer_0

$$$$
