
     RDKit          3D

  7  8  0  0  0  0  0  0  0  0999 V2000
  -22.7036   26.0644   -1.8335 N   0  0  0  0  0  0  0  0  0  0  0  0
  -21.6036   25.8644   -2.5335 C   0  0  0  0  0  0  0  0  0  0  0  0
  -21.6036   25.3644   -3.9335 C   0  0  0  0  0  0  0  0  0  0  0  0
  -23.0036   25.5644   -4.3335 C   0  0  0  0  0  0  0  0  0  0  0  0
  -23.8036   25.1644   -1.9335 C   0  0  0  0  0  0  0  0  0  0  0  0
  -23.8036   24.9644   -3.3335 C   0  0  0  0  0  0  0  0  0  0  0  0
  -22.4036   27.0644   -2.5335 C   0  0  0  0  0  0  0  0  0  0  0  0
  2  1  1  0
  3  2  1  0
  4  3  2  0
  5  1  1  0
  6  4  1  0
  6  5  2  0
  7  1  1  0
  7  2  1  0
M  END
>  <ID>  (1) 
conformer_0

$$$$
