
     RDKit          3D

  8  8  0  0  0  0  0  0  0  0999 V2000
  -21.3168   25.5463   -3.8868 C   0  0  0  0  0  0  0  0  0  0  0  0
  -22.3168   25.7463   -2.7868 C   0  0  0  0  0  0  0  0  0  0  0  0
  -21.7168   25.4463   -5.2868 C   0  0  0  0  0  0  0  0  0  0  0  0
  -23.1168   25.5463   -5.3868 N   0  0  0  0  0  0  0  0  0  0  0  0
  -21.0168   25.8463   -6.1868 O   0  0  0  0  0  0  0  0  0  0  0  0
  -23.6168   25.1463   -2.9868 C   0  0  0  0  0  0  0  0  0  0  0  0
  -23.8168   24.8463   -4.3868 C   0  0  0  0  0  0  0  0  0  0  0  0
  -20.1168   25.0463   -3.5868 O   0  0  0  0  0  0  0  0  0  0  0  0
  2  1  1  0
  3  1  1  0
  4  3  1  0
  5  3  2  0
  6  2  1  0
  7  4  1  0
  7  6  1  0
  8  1  1  0
M  END
>  <ID>  (1) 
conformer_0

$$$$
