
     RDKit          3D

 13 14  0  0  0  0  0  0  0  0999 V2000
  -21.5439   25.1108   -4.2580 C   0  0  0  0  0  0  0  0  0  0  0  0
  -22.8439   25.3108   -4.9580 C   0  0  0  0  0  0  0  0  0  0  0  0
  -22.6439   25.7108   -6.3580 N   0  0  0  0  0  0  0  0  0  0  0  0
  -21.6439   25.6108   -2.8580 C   0  0  0  0  0  0  0  0  0  0  0  0
  -23.0439   25.9108   -2.5580 C   0  0  0  0  0  0  0  0  0  0  0  0
  -24.1439   25.0108   -2.7580 C   0  0  0  0  0  0  0  0  0  0  0  0
  -22.7439   24.2108   -4.4580 O   0  0  0  0  0  0  0  0  0  0  0  0
  -25.1439   25.3108   -2.0580 O   0  0  0  0  0  0  0  0  0  0  0  0
  -21.5439   26.4108   -6.5580 C   0  0  0  0  0  0  0  0  0  0  0  0
  -20.1439   26.0108   -6.3580 C   0  0  0  0  0  0  0  0  0  0  0  0
  -21.8439   27.3108   -7.5580 O   0  0  0  0  0  0  0  0  0  0  0  0
  -23.2439   26.8108   -1.4580 O   0  0  0  0  0  0  0  0  0  0  0  0
  -24.4439   26.1108   -0.9580 C   0  0  0  0  0  0  0  0  0  0  0  0
  2  1  1  0
  3  2  1  0
  4  1  1  0
  5  4  1  0
  6  5  1  0
  7  1  1  0
  7  2  1  0
  8  6  1  0
  9  3  1  0
 10  9  1  0
 11  9  2  0
 12  5  1  0
 13  8  1  0
 13 12  1  0
M  END
>  <ID>  (1) 
conformer_0

$$$$
