
     RDKit          3D

 11 12  0  0  0  0  0  0  0  0999 V2000
  -21.5145   25.4354   -3.6082 C   0  0  0  0  0  0  0  0  0  0  0  0
  -22.9145   25.6354   -3.7082 C   0  0  0  0  0  0  0  0  0  0  0  0
  -23.5145   25.6354   -5.0082 N   0  0  0  0  0  0  0  0  0  0  0  0
  -21.0145   25.4354   -5.0082 C   0  0  0  0  0  0  0  0  0  0  0  0
  -22.3145   25.6354   -5.9082 C   0  0  0  0  0  0  0  0  0  0  0  0
  -23.7145   25.2354   -2.5082 C   0  0  0  0  0  0  0  0  0  0  0  0
  -24.9145   25.0354   -2.5082 O   0  0  0  0  0  0  0  0  0  0  0  0
  -22.7145   24.6354   -1.6082 N   0  0  0  0  0  0  0  0  0  0  0  0
  -22.3145   25.0354   -7.0082 O   0  0  0  0  0  0  0  0  0  0  0  0
  -21.7145   25.6354   -1.2082 C   0  0  0  0  0  0  0  0  0  0  0  0
  -20.9145   25.7354   -2.4082 N   0  0  0  0  0  0  0  0  0  0  0  0
  2  1  1  0
  3  2  2  0
  4  1  1  0
  5  3  1  0
  5  4  1  0
  6  2  1  0
  7  6  2  0
  8  6  1  0
  9  5  2  0
 10  8  1  0
 11  1  1  0
 11 10  1  0
M  END
>  <ID>  (1) 
conformer_0

$$$$
