
     RDKit          3D

  8  9  0  0  0  0  0  0  0  0999 V2000
  -21.4587   25.5153   -3.3579 C   0  0  0  0  0  0  0  0  0  0  0  0
  -22.8587   25.5153   -3.6579 C   0  0  0  0  0  0  0  0  0  0  0  0
  -23.2587   25.6153   -5.0579 N   0  0  0  0  0  0  0  0  0  0  0  0
  -20.7587   25.6153   -4.6579 C   0  0  0  0  0  0  0  0  0  0  0  0
  -21.9587   25.5153   -5.7579 C   0  0  0  0  0  0  0  0  0  0  0  0
  -22.2587   24.3153   -3.5579 O   0  0  0  0  0  0  0  0  0  0  0  0
  -21.6587   26.3153   -6.9579 C   0  0  0  0  0  0  0  0  0  0  0  0
  -19.6587   25.3153   -5.1579 O   0  0  0  0  0  0  0  0  0  0  0  0
  2  1  1  0
  3  2  1  0
  4  1  1  0
  5  3  1  0
  5  4  1  0
  6  1  1  0
  6  2  1  0
  7  5  1  0
  8  4  2  0
M  END
>  <ID>  (1) 
conformer_0

$$$$
