
     RDKit          3D

  9  9  0  0  0  0  0  0  0  0999 V2000
  -21.3240   25.8221   -2.8121 N   0  0  0  0  0  0  0  0  0  0  0  0
  -21.0240   25.5221   -4.2121 C   0  0  0  0  0  0  0  0  0  0  0  0
  -22.2240   25.4221   -5.0121 C   0  0  0  0  0  0  0  0  0  0  0  0
  -22.7240   25.8221   -2.6121 C   0  0  0  0  0  0  0  0  0  0  0  0
  -23.2240   25.6221   -4.0121 C   0  0  0  0  0  0  0  0  0  0  0  0
  -23.5240   25.8221   -1.5121 C   0  0  0  0  0  0  0  0  0  0  0  0
  -20.4240   25.1221   -2.0121 N   0  0  0  0  0  0  0  0  0  0  0  0
  -19.8240   25.0221   -4.5121 O   0  0  0  0  0  0  0  0  0  0  0  0
  -20.6240   25.2221   -0.6121 C   0  0  0  0  0  0  0  0  0  0  0  0
  2  1  1  0
  3  2  1  0
  4  1  1  0
  5  3  2  0
  5  4  1  0
  6  4  2  0
  7  1  1  0
  8  2  2  0
  9  7  1  0
M  END
>  <ID>  (1) 
conformer_0

$$$$
