
     RDKit          3D

 11 12  0  0  0  0  0  0  0  0999 V2000
  -21.4414   25.4989   -3.3062 C   0  0  0  0  0  0  0  0  0  0  0  0
  -22.5414   25.3989   -2.4062 C   0  0  0  0  0  0  0  0  0  0  0  0
  -22.0414   25.2989   -4.6062 C   0  0  0  0  0  0  0  0  0  0  0  0
  -23.3414   25.2989   -4.6062 C   0  0  0  0  0  0  0  0  0  0  0  0
  -22.2414   25.2989   -1.1062 N   0  0  0  0  0  0  0  0  0  0  0  0
  -23.0414   24.8989   -0.0062 C   0  0  0  0  0  0  0  0  0  0  0  0
  -20.8414   25.2989   -0.9062 C   0  0  0  0  0  0  0  0  0  0  0  0
  -24.1414   24.6989   -5.6062 N   0  0  0  0  0  0  0  0  0  0  0  0
  -23.7414   25.0989   -3.2062 N   0  0  0  0  0  0  0  0  0  0  0  0
  -19.8414   24.6989   -1.6062 C   0  0  0  0  0  0  0  0  0  0  0  0
  -20.1414   25.0989   -3.1062 N   0  0  0  0  0  0  0  0  0  0  0  0
  2  1  2  0
  3  1  1  0
  4  3  1  0
  5  2  1  0
  6  5  1  0
  7  5  1  0
  8  4  1  0
  9  2  1  0
  9  4  2  0
 10  7  1  0
 11  1  1  0
 11 10  1  0
M  END
>  <ID>  (1) 
conformer_0

$$$$
