
     RDKit          3D

  7  7  0  0  0  0  0  0  0  0999 V2000
  -23.1420   25.8694   -1.7995 C   0  0  0  0  0  0  0  0  0  0  0  0
  -21.8420   25.8694   -2.1995 C   0  0  0  0  0  0  0  0  0  0  0  0
  -20.8420   25.2694   -1.3995 N   0  0  0  0  0  0  0  0  0  0  0  0
  -21.4420   24.8694   -0.2995 C   0  0  0  0  0  0  0  0  0  0  0  0
  -19.8420   24.4694   -2.0995 C   0  0  0  0  0  0  0  0  0  0  0  0
  -23.5420   24.4694   -1.5995 C   0  0  0  0  0  0  0  0  0  0  0  0
  -22.6420   24.0694   -0.4995 C   0  0  0  0  0  0  0  0  0  0  0  0
  2  1  1  0
  3  2  1  0
  4  3  1  0
  5  3  1  0
  6  1  2  0
  7  4  2  0
  7  6  1  0
M  END
>  <ID>  (1) 
conformer_0

$$$$
