
     RDKit          3D

  7  8  0  0  0  0  0  0  0  0999 V2000
  -21.6788   25.0352   -3.2254 C   0  0  0  0  0  0  0  0  0  0  0  0
  -22.8788   25.8352   -3.2254 C   0  0  0  0  0  0  0  0  0  0  0  0
  -23.5788   25.7352   -1.9254 C   0  0  0  0  0  0  0  0  0  0  0  0
  -23.0788   24.6352   -1.1254 C   0  0  0  0  0  0  0  0  0  0  0  0
  -20.8788   24.8352   -2.0254 C   0  0  0  0  0  0  0  0  0  0  0  0
  -21.5788   24.9352   -0.7254 C   0  0  0  0  0  0  0  0  0  0  0  0
  -21.7788   23.8352   -2.8254 O   0  0  0  0  0  0  0  0  0  0  0  0
  2  1  1  0
  3  2  1  0
  4  3  1  0
  5  1  1  0
  6  4  1  0
  6  5  1  0
  7  1  1  0
  7  5  1  0
M  END
>  <ID>  (1) 
conformer_0

$$$$
