
     RDKit          3D

 12 13  0  0  0  0  0  0  0  0999 V2000
  -21.5439   25.1108   -4.2580 C   0  0  0  0  0  0  0  0  0  0  0  0
  -22.8439   25.3108   -4.9580 C   0  0  0  0  0  0  0  0  0  0  0  0
  -22.8439   25.4108   -6.3580 N   0  0  0  0  0  0  0  0  0  0  0  0
  -21.4439   25.5108   -2.8580 C   0  0  0  0  0  0  0  0  0  0  0  0
  -22.8439   25.8108   -2.4580 C   0  0  0  0  0  0  0  0  0  0  0  0
  -23.7439   24.7108   -2.8580 C   0  0  0  0  0  0  0  0  0  0  0  0
  -23.9439   24.6108   -4.2580 C   0  0  0  0  0  0  0  0  0  0  0  0
  -21.8439   26.2108   -7.0580 C   0  0  0  0  0  0  0  0  0  0  0  0
  -22.1439   26.5108   -8.1580 O   0  0  0  0  0  0  0  0  0  0  0  0
  -20.5439   26.4108   -6.4580 C   0  0  0  0  0  0  0  0  0  0  0  0
  -20.5439   25.7108   -5.1580 N   0  0  0  0  0  0  0  0  0  0  0  0
  -23.0439   26.1108   -1.0580 O   0  0  0  0  0  0  0  0  0  0  0  0
  2  1  1  0
  3  2  1  0
  4  1  1  0
  5  4  1  0
  6  5  1  0
  7  2  1  0
  7  6  1  0
  8  3  1  0
  9  8  2  0
 10  8  1  0
 11  1  1  0
 11 10  1  0
 12  5  1  0
M  END
>  <ID>  (1) 
conformer_0

$$$$
