
     RDKit          3D

  8  8  0  0  0  0  0  0  0  0999 V2000
  -21.3505   25.4227   -3.4660 C   0  0  0  0  0  0  0  0  0  0  0  0
  -22.7505   25.8227   -3.2660 C   0  0  0  0  0  0  0  0  0  0  0  0
  -23.3505   25.6227   -1.9660 C   0  0  0  0  0  0  0  0  0  0  0  0
  -20.8505   25.6227   -4.8660 C   0  0  0  0  0  0  0  0  0  0  0  0
  -22.3505   25.0227   -1.0660 C   0  0  0  0  0  0  0  0  0  0  0  0
  -20.9505   24.2227   -2.8660 O   0  0  0  0  0  0  0  0  0  0  0  0
  -21.3505   24.1227   -1.5660 C   0  0  0  0  0  0  0  0  0  0  0  0
  -19.5505   25.3227   -4.9660 O   0  0  0  0  0  0  0  0  0  0  0  0
  2  1  1  0
  3  2  1  0
  4  1  1  0
  5  3  1  0
  6  1  1  0
  7  5  1  0
  7  6  1  0
  8  4  1  0
M  END
>  <ID>  (1) 
conformer_0

$$$$
