
     RDKit          3D

  8  8  0  0  0  0  0  0  0  0999 V2000
  -21.4587   25.5153   -3.3579 C   0  0  0  0  0  0  0  0  0  0  0  0
  -22.8587   25.7153   -3.1579 C   0  0  0  0  0  0  0  0  0  0  0  0
  -23.3587   25.6153   -1.7579 C   0  0  0  0  0  0  0  0  0  0  0  0
  -20.9587   25.4153   -4.7579 C   0  0  0  0  0  0  0  0  0  0  0  0
  -22.1587   25.5153   -5.5579 C   0  0  0  0  0  0  0  0  0  0  0  0
  -23.3587   25.6153   -4.7579 N   0  0  0  0  0  0  0  0  0  0  0  0
  -21.9587   26.2153   -6.8579 C   0  0  0  0  0  0  0  0  0  0  0  0
  -24.7587   25.1153   -1.6579 O   0  0  0  0  0  0  0  0  0  0  0  0
  2  1  2  0
  3  2  1  0
  4  1  1  0
  5  4  1  0
  6  2  1  0
  6  5  2  0
  7  5  1  0
  8  3  1  0
M  END
>  <ID>  (1) 
conformer_0

$$$$
