
     RDKit          3D

  8  8  0  0  0  0  0  0  0  0999 V2000
  -21.3240   25.8221   -2.8121 N   0  0  0  0  0  0  0  0  0  0  0  0
  -21.0240   25.5221   -4.2121 C   0  0  0  0  0  0  0  0  0  0  0  0
  -22.2240   25.3221   -4.8121 C   0  0  0  0  0  0  0  0  0  0  0  0
  -22.6240   25.8221   -2.5121 C   0  0  0  0  0  0  0  0  0  0  0  0
  -23.3240   25.5221   -3.8121 C   0  0  0  0  0  0  0  0  0  0  0  0
  -23.4240   25.9221   -1.4121 C   0  0  0  0  0  0  0  0  0  0  0  0
  -20.3240   25.4221   -1.9121 N   0  0  0  0  0  0  0  0  0  0  0  0
  -20.5240   25.2221   -0.5121 C   0  0  0  0  0  0  0  0  0  0  0  0
  2  1  1  0
  3  2  2  0
  4  1  1  0
  5  3  1  0
  5  4  2  0
  6  4  1  0
  7  1  1  0
  8  7  1  0
M  END
>  <ID>  (1) 
conformer_0

$$$$
