
     RDKit          3D

 10 10  0  0  0  0  0  0  0  0999 V2000
  -21.5145   25.4354   -3.6082 C   0  0  0  0  0  0  0  0  0  0  0  0
  -22.9145   25.6354   -3.7082 C   0  0  0  0  0  0  0  0  0  0  0  0
  -23.5145   25.6354   -5.0082 N   0  0  0  0  0  0  0  0  0  0  0  0
  -21.0145   25.4354   -5.0082 C   0  0  0  0  0  0  0  0  0  0  0  0
  -22.3145   25.6354   -5.9082 C   0  0  0  0  0  0  0  0  0  0  0  0
  -23.7145   25.2354   -2.5082 C   0  0  0  0  0  0  0  0  0  0  0  0
  -22.3145   24.9354   -6.9082 O   0  0  0  0  0  0  0  0  0  0  0  0
  -24.9145   24.8354   -2.7082 O   0  0  0  0  0  0  0  0  0  0  0  0
  -23.1145   25.4354   -1.2082 C   0  0  0  0  0  0  0  0  0  0  0  0
  -19.9145   25.3354   -5.7082 O   0  0  0  0  0  0  0  0  0  0  0  0
  2  1  1  0
  3  2  2  0
  4  1  2  0
  5  3  1  0
  5  4  1  0
  6  2  1  0
  7  5  1  0
  8  6  2  0
  9  6  1  0
 10  4  1  0
M  END
>  <ID>  (1) 
conformer_0

$$$$
