
     RDKit          3D

 11 12  0  0  0  0  0  0  0  0999 V2000
  -23.2564   25.9899   -1.7453 C   0  0  0  0  0  0  0  0  0  0  0  0
  -24.1564   25.4899   -0.7453 C   0  0  0  0  0  0  0  0  0  0  0  0
  -23.6564   24.8899    0.4547 C   0  0  0  0  0  0  0  0  0  0  0  0
  -22.0564   25.1899   -1.8453 C   0  0  0  0  0  0  0  0  0  0  0  0
  -21.4564   24.4899   -0.7453 C   0  0  0  0  0  0  0  0  0  0  0  0
  -22.2564   24.5899    0.4547 C   0  0  0  0  0  0  0  0  0  0  0  0
  -21.2564   25.4899   -3.0453 C   0  0  0  0  0  0  0  0  0  0  0  0
  -20.2564   24.5899   -3.2453 O   0  0  0  0  0  0  0  0  0  0  0  0
  -22.0564   25.4899   -4.1453 N   0  0  0  0  0  0  0  0  0  0  0  0
  -23.3564   25.8899   -4.3453 C   0  0  0  0  0  0  0  0  0  0  0  0
  -23.1564   24.5899   -3.9453 C   0  0  0  0  0  0  0  0  0  0  0  0
  2  1  2  0
  3  2  1  0
  4  1  1  0
  5  4  2  0
  6  3  2  0
  6  5  1  0
  7  4  1  0
  8  7  1  0
  9  7  1  0
 10  9  1  0
 11  9  1  0
 11 10  1  0
M  END
>  <ID>  (1) 
conformer_0

$$$$
