
     RDKit          3D

  5  5  0  0  0  0  0  0  0  0999 V2000
  -21.5193   25.1105   -3.7122 C   0  0  0  0  0  0  0  0  0  0  0  0
  -22.9193   25.5105   -3.7122 C   0  0  0  0  0  0  0  0  0  0  0  0
  -23.3193   25.7105   -5.1122 N   0  0  0  0  0  0  0  0  0  0  0  0
  -20.8193   25.4105   -4.9122 C   0  0  0  0  0  0  0  0  0  0  0  0
  -22.1193   25.5105   -5.9122 C   0  0  0  0  0  0  0  0  0  0  0  0
  2  1  1  0
  3  2  1  0
  4  1  1  0
  5  3  1  0
  5  4  1  0
M  END
>  <ID>  (1) 
conformer_0

$$$$
