
     RDKit          3D

 10 10  0  0  0  0  0  0  0  0999 V2000
  -21.4007   25.4461   -4.4745 C   0  0  0  0  0  0  0  0  0  0  0  0
  -22.8007   25.3461   -4.9745 C   0  0  0  0  0  0  0  0  0  0  0  0
  -21.5007   25.5461   -3.0745 C   0  0  0  0  0  0  0  0  0  0  0  0
  -22.8007   25.5461   -6.3745 N   0  0  0  0  0  0  0  0  0  0  0  0
  -23.7007   25.3461   -4.1745 N   0  0  0  0  0  0  0  0  0  0  0  0
  -20.5007   24.8461   -2.3745 N   0  0  0  0  0  0  0  0  0  0  0  0
  -22.4007   26.1461   -2.3745 N   0  0  0  0  0  0  0  0  0  0  0  0
  -23.7007   25.9461   -2.8745 C   0  0  0  0  0  0  0  0  0  0  0  0
  -20.6007   24.6461   -0.9745 C   0  0  0  0  0  0  0  0  0  0  0  0
  -21.6007   26.2461   -6.8745 C   0  0  0  0  0  0  0  0  0  0  0  0
  2  1  1  0
  3  1  1  0
  4  2  1  0
  5  2  2  0
  6  3  1  0
  7  3  1  0
  8  5  1  0
  8  7  2  0
  9  6  1  0
 10  4  1  0
M  END
>  <ID>  (1) 
conformer_0

$$$$
