
     RDKit          3D

  8  9  0  0  0  0  0  0  0  0999 V2000
  -21.3240   25.8221   -2.8121 N   0  0  0  0  0  0  0  0  0  0  0  0
  -21.0240   25.5221   -4.2121 C   0  0  0  0  0  0  0  0  0  0  0  0
  -22.2240   25.3221   -4.8121 C   0  0  0  0  0  0  0  0  0  0  0  0
  -22.7240   25.9221   -2.5121 C   0  0  0  0  0  0  0  0  0  0  0  0
  -23.3240   25.7221   -3.9121 C   0  0  0  0  0  0  0  0  0  0  0  0
  -20.6240   24.9221   -1.9121 C   0  0  0  0  0  0  0  0  0  0  0  0
  -19.9240   25.2221   -0.9121 O   0  0  0  0  0  0  0  0  0  0  0  0
  -21.3240   25.0221   -0.7121 C   0  0  0  0  0  0  0  0  0  0  0  0
  2  1  1  0
  3  2  2  0
  4  1  1  0
  5  3  1  0
  5  4  2  0
  6  1  1  0
  7  6  1  0
  8  6  1  0
  8  7  1  0
M  END
>  <ID>  (1) 
conformer_0

$$$$
