
     RDKit          3D

  9 10  0  0  0  0  0  0  0  0999 V2000
  -21.3240   25.8221   -2.8121 N   0  0  0  0  0  0  0  0  0  0  0  0
  -21.0240   25.5221   -4.2121 C   0  0  0  0  0  0  0  0  0  0  0  0
  -22.2240   25.4221   -5.0121 C   0  0  0  0  0  0  0  0  0  0  0  0
  -22.7240   25.8221   -2.6121 C   0  0  0  0  0  0  0  0  0  0  0  0
  -23.3240   25.6221   -3.9121 C   0  0  0  0  0  0  0  0  0  0  0  0
  -20.6240   24.9221   -1.9121 C   0  0  0  0  0  0  0  0  0  0  0  0
  -20.1240   25.4221   -0.8121 O   0  0  0  0  0  0  0  0  0  0  0  0
  -19.4240   24.6221   -2.7121 N   0  0  0  0  0  0  0  0  0  0  0  0
  -19.7240   24.7221   -4.1121 C   0  0  0  0  0  0  0  0  0  0  0  0
  2  1  1  0
  3  2  2  0
  4  1  1  0
  5  3  1  0
  5  4  2  0
  6  1  1  0
  7  6  1  0
  8  6  1  0
  9  2  1  0
  9  8  1  0
M  END
>  <ID>  (1) 
conformer_0

$$$$
