
     RDKit          3D

 10 12  0  0  0  0  0  0  0  0999 V2000
  -21.5145   25.4354   -3.6082 C   0  0  0  0  0  0  0  0  0  0  0  0
  -22.9145   25.6354   -3.7082 C   0  0  0  0  0  0  0  0  0  0  0  0
  -20.8145   25.5354   -4.9082 C   0  0  0  0  0  0  0  0  0  0  0  0
  -23.3145   25.6354   -5.1082 N   0  0  0  0  0  0  0  0  0  0  0  0
  -22.1145   25.4354   -5.9082 C   0  0  0  0  0  0  0  0  0  0  0  0
  -22.5145   24.4354   -3.6082 O   0  0  0  0  0  0  0  0  0  0  0  0
  -21.7145   26.3354   -7.0082 C   0  0  0  0  0  0  0  0  0  0  0  0
  -20.3145   26.8354   -7.0082 C   0  0  0  0  0  0  0  0  0  0  0  0
  -19.5145   25.5354   -5.2082 O   0  0  0  0  0  0  0  0  0  0  0  0
  -19.2145   25.8354   -6.6082 C   0  0  0  0  0  0  0  0  0  0  0  0
  2  1  1  0
  3  1  1  0
  4  2  1  0
  5  3  1  0
  5  4  1  0
  6  1  1  0
  6  2  1  0
  7  5  1  0
  8  7  1  0
  9  3  1  0
 10  8  1  0
 10  9  1  0
M  END
>  <ID>  (1) 
conformer_0

$$$$
