
     RDKit          3D

  6  6  0  0  0  0  0  0  0  0999 V2000
  -21.3168   25.5463   -3.8868 C   0  0  0  0  0  0  0  0  0  0  0  0
  -22.3168   25.7463   -2.7868 C   0  0  0  0  0  0  0  0  0  0  0  0
  -21.9168   25.3463   -5.1868 C   0  0  0  0  0  0  0  0  0  0  0  0
  -23.3168   25.5463   -5.0868 N   0  0  0  0  0  0  0  0  0  0  0  0
  -23.2168   24.5463   -2.7868 C   0  0  0  0  0  0  0  0  0  0  0  0
  -23.9168   24.7463   -4.0868 C   0  0  0  0  0  0  0  0  0  0  0  0
  2  1  1  0
  3  1  1  0
  4  3  1  0
  5  2  1  0
  6  4  1  0
  6  5  1  0
M  END
>  <ID>  (1) 
conformer_0

$$$$
