
     RDKit          3D

 12 13  0  0  0  0  0  0  0  0999 V2000
  -21.2490   25.8908   -3.4143 N   0  0  0  0  0  0  0  0  0  0  0  0
  -21.6490   25.8908   -2.1143 C   0  0  0  0  0  0  0  0  0  0  0  0
  -22.0490   25.3908   -4.5143 C   0  0  0  0  0  0  0  0  0  0  0  0
  -23.3490   25.3908   -4.1143 C   0  0  0  0  0  0  0  0  0  0  0  0
  -22.9490   26.1908   -1.9143 C   0  0  0  0  0  0  0  0  0  0  0  0
  -23.6490   25.3908   -2.8143 C   0  0  0  0  0  0  0  0  0  0  0  0
  -21.2490   24.5908   -2.7143 C   0  0  0  0  0  0  0  0  0  0  0  0
  -21.7490   25.4908   -5.9143 C   0  0  0  0  0  0  0  0  0  0  0  0
  -22.8490   25.0908   -6.8143 N   0  0  0  0  0  0  0  0  0  0  0  0
  -23.6490   23.8908   -6.5143 C   0  0  0  0  0  0  0  0  0  0  0  0
  -20.6490   25.3908   -6.4143 O   0  0  0  0  0  0  0  0  0  0  0  0
  -24.0490   22.9908   -7.6143 C   0  0  0  0  0  0  0  0  0  0  0  0
  2  1  1  0
  3  1  1  0
  4  3  2  0
  5  2  1  0
  6  4  1  0
  6  5  2  0
  7  1  1  0
  7  2  1  0
  8  3  1  0
  9  8  1  0
 10  9  1  0
 11  8  2  0
 12 10  1  0
M  END
>  <ID>  (1) 
conformer_0

$$$$
