
     RDKit          3D

  7  7  0  0  0  0  0  0  0  0999 V2000
  -21.0946   25.5291   -3.3245 C   0  0  0  0  0  0  0  0  0  0  0  0
  -21.7946   25.9291   -2.1245 C   0  0  0  0  0  0  0  0  0  0  0  0
  -21.6946   25.3291   -4.5245 C   0  0  0  0  0  0  0  0  0  0  0  0
  -23.0946   25.4291   -4.4245 C   0  0  0  0  0  0  0  0  0  0  0  0
  -23.1946   25.8291   -2.0245 C   0  0  0  0  0  0  0  0  0  0  0  0
  -23.8946   25.4291   -0.8245 C   0  0  0  0  0  0  0  0  0  0  0  0
  -23.7946   25.7291   -3.3245 N   0  0  0  0  0  0  0  0  0  0  0  0
  2  1  2  0
  3  1  1  0
  4  3  2  0
  5  2  1  0
  6  5  1  0
  7  4  1  0
  7  5  2  0
M  END
>  <ID>  (1) 
conformer_0

$$$$
