
     RDKit          3D

 12 13  0  0  0  0  0  0  0  0999 V2000
  -21.3215   25.3929   -3.9693 C   0  0  0  0  0  0  0  0  0  0  0  0
  -22.4215   25.5929   -3.1693 C   0  0  0  0  0  0  0  0  0  0  0  0
  -22.7215   26.0929   -1.8693 C   0  0  0  0  0  0  0  0  0  0  0  0
  -23.9215   25.5929   -1.1693 C   0  0  0  0  0  0  0  0  0  0  0  0
  -24.0215   25.2929    0.2307 C   0  0  0  0  0  0  0  0  0  0  0  0
  -24.9215   25.1929   -2.1693 O   0  0  0  0  0  0  0  0  0  0  0  0
  -21.3215   25.6929   -5.3693 C   0  0  0  0  0  0  0  0  0  0  0  0
  -22.5215   25.7929   -6.0693 N   0  0  0  0  0  0  0  0  0  0  0  0
  -20.3215   25.7929   -6.0693 O   0  0  0  0  0  0  0  0  0  0  0  0
  -23.4215   24.7929   -5.4693 C   0  0  0  0  0  0  0  0  0  0  0  0
  -24.7215   24.4929   -3.3693 C   0  0  0  0  0  0  0  0  0  0  0  0
  -23.5215   24.7929   -4.0693 C   0  0  0  0  0  0  0  0  0  0  0  0
  2  1  1  0
  3  2  2  0
  4  3  1  0
  5  4  1  0
  6  4  1  0
  7  1  1  0
  8  7  1  0
  9  7  2  0
 10  8  1  0
 11  6  1  0
 12  2  1  0
 12 10  1  0
 12 11  2  0
M  END
>  <ID>  (1) 
conformer_0

$$$$
