
     RDKit          3D

  5  5  0  0  0  0  0  0  0  0999 V2000
  -21.5145   25.4354   -3.6082 C   0  0  0  0  0  0  0  0  0  0  0  0
  -22.9145   25.6354   -3.7082 C   0  0  0  0  0  0  0  0  0  0  0  0
  -20.8145   25.5354   -4.9082 C   0  0  0  0  0  0  0  0  0  0  0  0
  -21.8145   25.5354   -6.0082 C   0  0  0  0  0  0  0  0  0  0  0  0
  -23.1145   25.6354   -5.3082 N   0  0  0  0  0  0  0  0  0  0  0  0
  2  1  2  0
  3  1  1  0
  4  3  1  0
  5  2  1  0
  5  4  2  0
M  END
>  <ID>  (1) 
conformer_0

$$$$
