
     RDKit          3D

  6  6  0  0  0  0  0  0  0  0999 V2000
  -22.6130   25.7982   -2.0419 C   0  0  0  0  0  0  0  0  0  0  0  0
  -21.5130   25.4982   -2.9419 C   0  0  0  0  0  0  0  0  0  0  0  0
  -21.7130   25.4982   -4.2419 C   0  0  0  0  0  0  0  0  0  0  0  0
  -23.1130   25.3982   -4.6419 C   0  0  0  0  0  0  0  0  0  0  0  0
  -23.8130   25.0982   -2.3419 C   0  0  0  0  0  0  0  0  0  0  0  0
  -24.1130   25.1982   -3.7419 N   0  0  0  0  0  0  0  0  0  0  0  0
  2  1  2  0
  3  2  1  0
  4  3  2  0
  5  1  1  0
  6  4  1  0
  6  5  2  0
M  END
>  <ID>  (1) 
conformer_0

$$$$
