
     RDKit          3D

 12 13  0  0  0  0  0  0  0  0999 V2000
  -22.7613   25.6725   -1.6728 C   0  0  0  0  0  0  0  0  0  0  0  0
  -22.4613   25.8725   -2.9728 C   0  0  0  0  0  0  0  0  0  0  0  0
  -21.1613   25.4725   -3.4728 C   0  0  0  0  0  0  0  0  0  0  0  0
  -20.6613   25.5725   -4.7728 C   0  0  0  0  0  0  0  0  0  0  0  0
  -24.0613   25.3725   -1.1728 C   0  0  0  0  0  0  0  0  0  0  0  0
  -24.0613   25.1725    0.2272 C   0  0  0  0  0  0  0  0  0  0  0  0
  -21.8613   25.1725   -0.6728 N   0  0  0  0  0  0  0  0  0  0  0  0
  -22.6613   24.8725    0.5272 C   0  0  0  0  0  0  0  0  0  0  0  0
  -20.5613   24.8725   -2.4728 N   0  0  0  0  0  0  0  0  0  0  0  0
  -20.5613   25.1725   -1.0728 C   0  0  0  0  0  0  0  0  0  0  0  0
  -19.9613   23.6725   -2.7728 O   0  0  0  0  0  0  0  0  0  0  0  0
  -19.3613   25.6725   -5.0728 O   0  0  0  0  0  0  0  0  0  0  0  0
  2  1  1  0
  3  2  2  0
  4  3  1  0
  5  1  2  0
  6  5  1  0
  7  1  1  0
  8  6  2  0
  8  7  1  0
  9  3  1  0
 10  7  1  0
 10  9  1  0
 11  9  1  0
 12  4  1  0
M  END
>  <ID>  (1) 
conformer_0

$$$$
