
     RDKit          3D

 11 11  0  0  0  0  0  0  0  0999 V2000
  -21.3592   25.5413   -3.6502 C   0  0  0  0  0  0  0  0  0  0  0  0
  -22.0592   25.7413   -2.3502 C   0  0  0  0  0  0  0  0  0  0  0  0
  -22.2592   25.2413   -4.7502 C   0  0  0  0  0  0  0  0  0  0  0  0
  -23.4592   25.3413   -2.3502 C   0  0  0  0  0  0  0  0  0  0  0  0
  -23.4592   24.0413   -3.0502 C   0  0  0  0  0  0  0  0  0  0  0  0
  -23.2592   24.1413   -4.5502 C   0  0  0  0  0  0  0  0  0  0  0  0
  -22.3592   26.0413   -5.8502 N   0  0  0  0  0  0  0  0  0  0  0  0
  -21.8592   26.3413   -7.1502 C   0  0  0  0  0  0  0  0  0  0  0  0
  -22.4592   26.1413   -8.1502 O   0  0  0  0  0  0  0  0  0  0  0  0
  -20.4592   26.8413   -7.0502 C   0  0  0  0  0  0  0  0  0  0  0  0
  -24.4592   25.4413   -1.5502 O   0  0  0  0  0  0  0  0  0  0  0  0
  2  1  1  0
  3  1  1  0
  4  2  1  0
  5  4  1  0
  6  3  1  0
  6  5  1  0
  7  3  1  0
  8  7  1  0
  9  8  2  0
 10  8  1  0
 11  4  2  0
M  END
>  <ID>  (1) 
conformer_0

$$$$
