
     RDKit          3D

  6  6  0  0  0  0  0  0  0  0999 V2000
  -22.6779   26.2805   -2.5150 C   0  0  0  0  0  0  0  0  0  0  0  0
  -21.4779   25.6805   -1.9150 C   0  0  0  0  0  0  0  0  0  0  0  0
  -22.8779   25.5805   -3.8150 C   0  0  0  0  0  0  0  0  0  0  0  0
  -20.6779   25.3805   -2.9150 N   0  0  0  0  0  0  0  0  0  0  0  0
  -21.4779   25.2805   -4.2150 C   0  0  0  0  0  0  0  0  0  0  0  0
  -19.5779   24.3805   -2.9150 C   0  0  0  0  0  0  0  0  0  0  0  0
  2  1  2  0
  3  1  1  0
  4  2  1  0
  5  3  2  0
  5  4  1  0
  6  4  1  0
M  END
>  <ID>  (1) 
conformer_0

$$$$
