
     RDKit          3D

 12 12  0  0  0  0  0  0  0  0999 V2000
  -21.1855   24.7594   -3.2039 C   0  0  0  0  0  0  0  0  0  0  0  0
  -22.1855   25.5594   -2.5039 C   0  0  0  0  0  0  0  0  0  0  0  0
  -23.4855   24.9594   -2.3039 C   0  0  0  0  0  0  0  0  0  0  0  0
  -24.1855   25.6594   -1.2039 C   0  0  0  0  0  0  0  0  0  0  0  0
  -23.5855   25.2594    0.0961 C   0  0  0  0  0  0  0  0  0  0  0  0
  -21.6855   26.0594   -1.2039 N   0  0  0  0  0  0  0  0  0  0  0  0
  -22.1855   25.0594   -0.1039 C   0  0  0  0  0  0  0  0  0  0  0  0
  -20.8855   23.6594   -2.8039 O   0  0  0  0  0  0  0  0  0  0  0  0
  -20.5855   25.4594   -4.3039 N   0  0  0  0  0  0  0  0  0  0  0  0
  -21.2855   25.6594   -5.4039 C   0  0  0  0  0  0  0  0  0  0  0  0
  -20.5855   26.4594   -6.4039 C   0  0  0  0  0  0  0  0  0  0  0  0
  -22.5855   24.9594   -5.6039 C   0  0  0  0  0  0  0  0  0  0  0  0
  2  1  1  0
  3  2  1  0
  4  3  1  0
  5  4  1  0
  6  2  1  0
  7  5  1  0
  7  6  1  0
  8  1  2  0
  9  1  1  0
 10  9  2  3
 11 10  1  0
 12 10  1  0
M  END
>  <ID>  (1) 
conformer_0

$$$$
