
     RDKit          3D

  7  8  0  0  0  0  0  0  0  0999 V2000
  -21.7093   25.3433   -3.4078 C   0  0  0  0  0  0  0  0  0  0  0  0
  -23.0093   25.6433   -2.8078 C   0  0  0  0  0  0  0  0  0  0  0  0
  -23.2093   24.9433   -1.5078 C   0  0  0  0  0  0  0  0  0  0  0  0
  -24.2093   25.4433   -0.5078 C   0  0  0  0  0  0  0  0  0  0  0  0
  -20.9093   24.7433   -2.3078 C   0  0  0  0  0  0  0  0  0  0  0  0
  -21.9093   24.4433   -1.2078 N   0  0  0  0  0  0  0  0  0  0  0  0
  -21.0093   25.4433   -1.1078 C   0  0  0  0  0  0  0  0  0  0  0  0
  2  1  1  0
  3  2  1  0
  4  3  1  0
  5  1  1  0
  6  3  1  0
  6  5  1  0
  7  5  1  0
  7  6  1  0
M  END
>  <ID>  (1) 
conformer_0

$$$$
