
     RDKit          3D

  9  9  0  0  0  0  0  0  0  0999 V2000
  -21.4007   25.4461   -4.4745 C   0  0  0  0  0  0  0  0  0  0  0  0
  -22.8007   25.3461   -4.9745 C   0  0  0  0  0  0  0  0  0  0  0  0
  -21.5007   25.5461   -3.0745 C   0  0  0  0  0  0  0  0  0  0  0  0
  -22.8007   25.5461   -6.3745 N   0  0  0  0  0  0  0  0  0  0  0  0
  -22.8007   25.7461   -2.4745 C   0  0  0  0  0  0  0  0  0  0  0  0
  -23.8007   24.8461   -4.3745 N   0  0  0  0  0  0  0  0  0  0  0  0
  -23.8007   24.9461   -2.9745 C   0  0  0  0  0  0  0  0  0  0  0  0
  -21.8007   26.3461   -7.0745 C   0  0  0  0  0  0  0  0  0  0  0  0
  -20.5007   26.7461   -6.4745 C   0  0  0  0  0  0  0  0  0  0  0  0
  2  1  1  0
  3  1  2  0
  4  2  1  0
  5  3  1  0
  6  2  2  0
  7  5  1  0
  7  6  1  0
  8  4  1  0
  9  8  1  0
M  END
>  <ID>  (1) 
conformer_0

$$$$
