
     RDKit          3D

  7  7  0  0  0  0  0  0  0  0999 V2000
  -21.2490   25.8908   -3.4143 N   0  0  0  0  0  0  0  0  0  0  0  0
  -21.6490   25.8908   -2.1143 C   0  0  0  0  0  0  0  0  0  0  0  0
  -21.8490   25.3908   -4.5143 C   0  0  0  0  0  0  0  0  0  0  0  0
  -22.2490   24.6908   -1.7143 C   0  0  0  0  0  0  0  0  0  0  0  0
  -23.1490   24.3908   -2.8143 C   0  0  0  0  0  0  0  0  0  0  0  0
  -23.2490   25.1908   -3.9143 C   0  0  0  0  0  0  0  0  0  0  0  0
  -21.0490   24.5908   -3.8143 N   0  0  0  0  0  0  0  0  0  0  0  0
  2  1  1  0
  3  1  1  0
  4  2  1  0
  5  4  2  0
  6  3  2  0
  6  5  1  0
  7  3  1  0
M  END
>  <ID>  (1) 
conformer_0

$$$$
