
     RDKit          3D

  6  7  0  0  0  0  0  0  0  0999 V2000
  -21.6788   25.0352   -3.2254 C   0  0  0  0  0  0  0  0  0  0  0  0
  -22.8788   25.8352   -3.2254 C   0  0  0  0  0  0  0  0  0  0  0  0
  -23.5788   25.7352   -1.9254 C   0  0  0  0  0  0  0  0  0  0  0  0
  -22.9788   24.7352   -1.1254 C   0  0  0  0  0  0  0  0  0  0  0  0
  -21.6788   24.3352   -1.9254 C   0  0  0  0  0  0  0  0  0  0  0  0
  -21.0788   25.5352   -2.0254 N   0  0  0  0  0  0  0  0  0  0  0  0
  2  1  1  0
  3  2  1  0
  4  3  2  0
  5  1  1  0
  5  4  1  0
  6  1  1  0
  6  5  1  0
M  END
>  <ID>  (1) 
conformer_0

$$$$
