
     RDKit          3D

  7  7  0  0  0  0  0  0  0  0999 V2000
  -23.2564   25.9899   -1.7453 C   0  0  0  0  0  0  0  0  0  0  0  0
  -24.1564   25.4899   -0.7453 C   0  0  0  0  0  0  0  0  0  0  0  0
  -23.6564   24.8899    0.4547 C   0  0  0  0  0  0  0  0  0  0  0  0
  -21.9564   25.6899   -1.6453 C   0  0  0  0  0  0  0  0  0  0  0  0
  -21.5564   24.6899   -0.6453 C   0  0  0  0  0  0  0  0  0  0  0  0
  -22.3564   24.3899    0.4547 C   0  0  0  0  0  0  0  0  0  0  0  0
  -21.1564   25.7899   -2.7453 N   0  0  0  0  0  0  0  0  0  0  0  0
  2  1  2  0
  3  2  1  0
  4  1  1  0
  5  4  2  0
  6  3  2  0
  6  5  1  0
  7  4  1  0
M  END
>  <ID>  (1) 
conformer_0

$$$$
