
     RDKit          3D

  7  7  0  0  0  0  0  0  0  0999 V2000
  -21.4007   25.4461   -4.4745 C   0  0  0  0  0  0  0  0  0  0  0  0
  -22.8007   25.3461   -4.9745 C   0  0  0  0  0  0  0  0  0  0  0  0
  -21.4007   25.6461   -3.0745 C   0  0  0  0  0  0  0  0  0  0  0  0
  -22.6007   25.7461   -2.5745 N   0  0  0  0  0  0  0  0  0  0  0  0
  -23.0007   25.6461   -1.1745 C   0  0  0  0  0  0  0  0  0  0  0  0
  -23.5007   25.1461   -3.6745 C   0  0  0  0  0  0  0  0  0  0  0  0
  -24.3007   25.6461   -0.7745 C   0  0  0  0  0  0  0  0  0  0  0  0
  2  1  1  0
  3  1  2  0
  4  3  1  0
  5  4  1  0
  6  2  2  0
  6  4  1  0
  7  5  2  0
M  END
>  <ID>  (1) 
conformer_0

$$$$
