
     RDKit          3D

 10 10  0  0  0  0  0  0  0  0999 V2000
  -22.6130   25.7982   -2.0419 C   0  0  0  0  0  0  0  0  0  0  0  0
  -21.5130   25.4982   -2.9419 C   0  0  0  0  0  0  0  0  0  0  0  0
  -21.7130   25.4982   -4.3419 C   0  0  0  0  0  0  0  0  0  0  0  0
  -23.1130   25.4982   -4.6419 C   0  0  0  0  0  0  0  0  0  0  0  0
  -23.3130   24.8982   -5.9419 N   0  0  0  0  0  0  0  0  0  0  0  0
  -23.8130   25.2982   -2.3419 C   0  0  0  0  0  0  0  0  0  0  0  0
  -23.9130   25.1982   -3.7419 N   0  0  0  0  0  0  0  0  0  0  0  0
  -20.3130   25.0982   -2.4419 N   0  0  0  0  0  0  0  0  0  0  0  0
  -22.4130   25.0982   -7.0419 C   0  0  0  0  0  0  0  0  0  0  0  0
  -21.9130   26.4982   -7.0419 C   0  0  0  0  0  0  0  0  0  0  0  0
  2  1  1  0
  3  2  2  0
  4  3  1  0
  5  4  1  0
  6  1  1  0
  7  4  2  0
  7  6  1  0
  8  2  1  0
  9  5  1  0
 10  9  1  0
M  END
>  <ID>  (1) 
conformer_0

$$$$
