
     RDKit          3D

 12 13  0  0  0  0  0  0  0  0999 V2000
  -21.4587   25.5153   -3.3579 C   0  0  0  0  0  0  0  0  0  0  0  0
  -22.8587   25.7153   -3.1579 C   0  0  0  0  0  0  0  0  0  0  0  0
  -23.3587   25.6153   -1.7579 C   0  0  0  0  0  0  0  0  0  0  0  0
  -20.9587   25.4153   -4.7579 C   0  0  0  0  0  0  0  0  0  0  0  0
  -22.1587   25.5153   -5.5579 C   0  0  0  0  0  0  0  0  0  0  0  0
  -23.3587   25.6153   -4.7579 N   0  0  0  0  0  0  0  0  0  0  0  0
  -21.9587   26.2153   -6.8579 C   0  0  0  0  0  0  0  0  0  0  0  0
  -22.3587   25.0153   -0.8579 C   0  0  0  0  0  0  0  0  0  0  0  0
  -22.1587   24.4153   -3.2579 O   0  0  0  0  0  0  0  0  0  0  0  0
  -21.0587   25.4153   -0.9579 O   0  0  0  0  0  0  0  0  0  0  0  0
  -23.0587   25.1153    0.4421 C   0  0  0  0  0  0  0  0  0  0  0  0
  -20.6587   26.6153   -7.0579 O   0  0  0  0  0  0  0  0  0  0  0  0
  2  1  1  0
  3  2  1  0
  4  1  1  0
  5  4  1  0
  6  2  1  0
  6  5  1  0
  7  5  1  0
  8  3  1  0
  9  1  1  0
  9  2  1  0
 10  8  1  0
 11  8  1  0
 12  7  1  0
M  END
>  <ID>  (1) 
conformer_0

$$$$
