
     RDKit          3D

 15 16  0  0  0  0  0  0  0  0999 V2000
    6.0784   25.4608   22.2368 C   0  0  0  0  0  0  0  0  0  0  0  0
    7.0622   25.0518   23.0614 C   0  0  0  0  0  0  0  0  0  0  0  0
    7.0873   25.5304   24.4240 C   0  0  0  0  0  0  0  0  0  0  0  0
    5.1154   26.2854   22.6451 C   0  0  0  0  0  0  0  0  0  0  0  0
    8.1053   25.1298   25.3873 C   0  0  0  0  0  0  0  0  0  0  0  0
    4.9798   26.8044   24.0209 C   0  0  0  0  0  0  0  0  0  0  0  0
    8.2202   24.0732   25.8990 N   0  0  0  0  0  0  0  0  0  0  0  0
    8.4173   26.2611   26.2146 C   0  0  0  0  0  0  0  0  0  0  0  0
    3.9522   27.6704   24.4466 C   0  0  0  0  0  0  0  0  0  0  0  0
    3.0004   27.9017   23.6056 O   0  0  0  0  0  0  0  0  0  0  0  0
    6.0883   26.4219   24.8900 C   0  0  0  0  0  0  0  0  0  0  0  0
    3.8761   28.3085   25.5882 N   0  0  0  0  0  0  0  0  0  0  0  0
    9.1366   23.6772   26.8406 C   0  0  0  0  0  0  0  0  0  0  0  0
    9.7885   24.6811   27.5704 N   0  0  0  0  0  0  0  0  0  0  0  0
    9.6040   25.8235   27.3217 C   0  0  0  0  0  0  0  0  0  0  0  0
  1  2  1  0
  2  3  2  0
  1  4  2  0
  3  5  1  0
  4  6  1  0
  5  7  1  0
  5  8  2  0
  6  9  1  0
  9 10  2  0
  3 11  1  0
  6 11  2  0
  9 12  1  0
  7 13  2  0
 13 14  1  0
  8 15  1  0
 14 15  2  0
M  END
>  <ID>  (1) 
conformer_0

$$$$
