
     RDKit          3D

 26 32  0  0  0  0  0  0  0  0999 V2000
    4.0491   25.0424   30.7429 C   0  0  0  0  0  0  0  0  0  0  0  0
    4.9235   25.1423   29.7858 C   0  0  0  0  0  0  0  0  0  0  0  0
    4.8054   26.0955   28.7718 N   0  0  0  0  0  0  0  0  0  0  0  0
    3.8637   27.1136   28.7981 C   0  0  0  0  0  0  0  0  0  0  0  0
    5.6248   26.0299   27.6110 C   0  0  0  0  0  0  0  0  0  0  0  0
    5.1291   26.7109   26.4651 C   0  0  0  0  0  0  0  0  0  0  0  0
    6.6214   25.0834   27.5128 C   0  0  0  0  0  0  0  0  0  0  0  0
    6.9774   24.2403   28.5897 C   0  0  0  0  0  0  0  0  0  0  0  0
    4.1417   27.7668   26.5404 C   0  0  0  0  0  0  0  0  0  0  0  0
    5.7818   26.5349   25.1758 C   0  0  0  0  0  0  0  0  0  0  0  0
    3.4963   27.9434   27.7681 C   0  0  0  0  0  0  0  0  0  0  0  0
    7.9830   23.4371   28.6038 C   0  0  0  0  0  0  0  0  0  0  0  0
    5.9993   24.2229   29.6848 N   0  0  0  0  0  0  0  0  0  0  0  0
    7.4663   25.0764   26.4219 C   0  0  0  0  0  0  0  0  0  0  0  0
    6.9370   25.8378   25.2576 C   0  0  0  0  0  0  0  0  0  0  0  0
    8.6115   24.4273   26.2886 C   0  0  0  0  0  0  0  0  0  0  0  0
    7.5020   25.6488   23.8521 C   0  0  0  0  0  0  0  0  0  0  0  0
    5.1479   27.1524   24.1040 C   0  0  0  0  0  0  0  0  0  0  0  0
    3.7273   28.2871   25.3289 N   0  0  0  0  0  0  0  0  0  0  0  0
    4.1590   28.0144   24.2265 N   0  0  0  0  0  0  0  0  0  0  0  0
    8.8415   25.9368   23.7582 C   0  0  0  0  0  0  0  0  0  0  0  0
    5.4619   26.8847   22.7181 C   0  0  0  0  0  0  0  0  0  0  0  0
    9.5221   24.3982   25.2335 C   0  0  0  0  0  0  0  0  0  0  0  0
    6.6596   25.7798   22.7271 C   0  0  0  0  0  0  0  0  0  0  0  0
    8.8654   23.5357   27.4511 C   0  0  0  0  0  0  0  0  0  0  0  0
    9.7927   25.0937   24.2386 C   0  0  0  0  0  0  0  0  0  0  0  0
  1  2  1  0
  2  3  1  0
  3  4  1  0
  3  5  1  0
  5  6  2  0
  5  7  1  0
  7  8  1  0
  6  9  1  0
  6 10  1  0
  4 11  2  0
  9 11  1  0
  8 12  2  0
  2 13  2  0
  8 13  1  0
  7 14  2  0
 10 15  2  0
 14 15  1  0
 14 16  1  0
 15 17  1  0
 10 18  1  0
  9 19  2  0
 18 20  2  0
 19 20  1  0
 17 21  2  0
 18 22  1  0
 16 23  1  0
 17 24  1  0
 22 24  1  0
 12 25  1  0
 16 25  2  0
 21 26  1  0
 23 26  2  0
M  END
>  <ID>  (1) 
conformer_0

$$$$
