
     RDKit          3D

 25 29  0  0  0  0  0  0  0  0999 V2000
    4.0491   25.0424   30.7429 C   0  0  0  0  0  0  0  0  0  0  0  0
    4.9235   25.1423   29.7858 C   0  0  0  0  0  0  0  0  0  0  0  0
    4.8054   26.0955   28.7718 N   0  0  0  0  0  0  0  0  0  0  0  0
    3.8637   27.1136   28.7981 C   0  0  0  0  0  0  0  0  0  0  0  0
    5.6248   26.0299   27.6110 C   0  0  0  0  0  0  0  0  0  0  0  0
    5.1291   26.7109   26.4651 C   0  0  0  0  0  0  0  0  0  0  0  0
    6.6214   25.0834   27.5128 C   0  0  0  0  0  0  0  0  0  0  0  0
    6.9774   24.2403   28.5897 C   0  0  0  0  0  0  0  0  0  0  0  0
    4.1417   27.7668   26.5404 C   0  0  0  0  0  0  0  0  0  0  0  0
    5.7818   26.5349   25.1758 C   0  0  0  0  0  0  0  0  0  0  0  0
    3.4963   27.9434   27.7681 C   0  0  0  0  0  0  0  0  0  0  0  0
    7.9830   23.4371   28.6038 C   0  0  0  0  0  0  0  0  0  0  0  0
    8.7943   23.2405   27.5083 C   0  0  0  0  0  0  0  0  0  0  0  0
    3.9862   28.2882   25.2948 N   0  0  0  0  0  0  0  0  0  0  0  0
    9.8997   22.4066   27.4622 O   0  0  0  0  0  0  0  0  0  0  0  0
    6.6879   25.6900   24.7982 C   0  0  0  0  0  0  0  0  0  0  0  0
    5.2361   27.2832   24.2218 C   0  0  0  0  0  0  0  0  0  0  0  0
    7.2572   25.0338   26.2161 C   0  0  0  0  0  0  0  0  0  0  0  0
    8.4514   24.0442   26.1840 C   0  0  0  0  0  0  0  0  0  0  0  0
    5.7381   26.8934   22.8142 N   0  0  0  0  0  0  0  0  0  0  0  0
   11.0265   22.7221   28.0790 C   0  0  0  0  0  0  0  0  0  0  0  0
    9.1233   23.8754   24.9825 C   0  0  0  0  0  0  0  0  0  0  0  0
    6.0659   24.3422   29.7781 C   0  0  0  0  0  0  0  0  0  0  0  0
    8.7188   22.9589   24.0925 O   0  0  0  0  0  0  0  0  0  0  0  0
    4.2604   28.1031   24.2718 N   0  0  0  0  0  0  0  0  0  0  0  0
  1  2  1  0
  2  3  1  0
  3  4  1  0
  3  5  1  0
  5  6  2  0
  5  7  1  0
  7  8  1  0
  6  9  1  0
  6 10  1  0
  4 11  2  0
  9 11  1  0
  8 12  2  0
 12 13  1  0
  9 14  2  0
 13 15  1  0
 10 16  1  0
 10 17  2  0
  7 18  2  0
 16 18  1  0
 13 19  2  0
 18 19  1  0
 17 20  1  0
 15 21  1  0
 19 22  1  0
  2 23  2  0
  8 23  1  0
 22 24  1  0
 14 25  1  0
 17 25  1  0
M  END
>  <ID>  (1) 
conformer_0

$$$$
