
     RDKit          3D

 23 26  0  0  0  0  0  0  0  0999 V2000
    8.2176   23.7420   23.4376 C   0  0  0  0  0  0  0  0  0  0  0  0
    8.5629   23.8962   24.5828 N   0  0  0  0  0  0  0  0  0  0  0  0
    7.9007   24.8098   25.4447 C   0  0  0  0  0  0  0  0  0  0  0  0
    8.1432   24.9682   26.8057 N   0  0  0  0  0  0  0  0  0  0  0  0
    9.1176   24.2610   27.4192 C   0  0  0  0  0  0  0  0  0  0  0  0
    6.8818   25.6022   24.8747 C   0  0  0  0  0  0  0  0  0  0  0  0
    7.0668   25.7125   27.3578 C   0  0  0  0  0  0  0  0  0  0  0  0
    6.1909   26.4819   25.7308 C   0  0  0  0  0  0  0  0  0  0  0  0
    5.1592   27.3952   25.0253 C   0  0  0  0  0  0  0  0  0  0  0  0
    7.3207   24.5775   22.7506 C   0  0  0  0  0  0  0  0  0  0  0  0
    4.3758   28.1730   25.8205 C   0  0  0  0  0  0  0  0  0  0  0  0
    4.9459   27.2386   23.6257 C   0  0  0  0  0  0  0  0  0  0  0  0
    7.0056   24.3316   21.3890 F   0  0  0  0  0  0  0  0  0  0  0  0
    8.8296   23.6810   28.6067 C   0  0  0  0  0  0  0  0  0  0  0  0
    8.8977   22.2896   28.6638 C   0  0  0  0  0  0  0  0  0  0  0  0
    6.1932   26.4165   26.9711 C   0  0  0  0  0  0  0  0  0  0  0  0
    4.4613   28.3125   27.2692 C   0  0  0  0  0  0  0  0  0  0  0  0
    7.2499   25.8566   28.7486 O   0  0  0  0  0  0  0  0  0  0  0  0
    6.6368   25.4745   23.4577 C   0  0  0  0  0  0  0  0  0  0  0  0
    5.6180   26.3395   22.8136 C   0  0  0  0  0  0  0  0  0  0  0  0
    5.2369   27.4898   27.6816 C   0  0  0  0  0  0  0  0  0  0  0  0
    9.0405   21.5893   29.8812 N   0  0  0  0  0  0  0  0  0  0  0  0
    3.9981   28.0663   23.0554 O   0  0  0  0  0  0  0  0  0  0  0  0
  1  2  2  0
  2  3  1  0
  3  4  1  0
  4  5  1  0
  3  6  2  0
  4  7  1  0
  6  8  1  0
  8  9  1  0
  1 10  1  0
  9 11  2  0
  9 12  1  0
 10 13  1  0
  5 14  1  0
 14 15  1  0
  7 16  1  0
  8 16  1  0
 11 17  1  0
  7 18  2  0
  6 19  1  0
 10 19  2  0
 12 20  2  0
 19 20  1  0
 16 21  1  0
 17 21  2  0
 15 22  1  0
 12 23  1  0
M  END
>  <ID>  (1) 
conformer_0

$$$$
