
     RDKit          3D

 24 27  0  0  0  0  0  0  0  0999 V2000
    4.5213   26.4279   22.2156 N   0  0  0  0  0  0  0  0  0  0  0  0
    5.2822   26.0451   23.0707 C   0  0  0  0  0  0  0  0  0  0  0  0
    6.2216   25.0501   22.9425 N   0  0  0  0  0  0  0  0  0  0  0  0
    5.0418   26.4583   24.4715 C   0  0  0  0  0  0  0  0  0  0  0  0
    6.9373   24.6077   24.0096 C   0  0  0  0  0  0  0  0  0  0  0  0
    5.8534   26.0517   25.4720 C   0  0  0  0  0  0  0  0  0  0  0  0
    7.9830   23.6274   23.8254 C   0  0  0  0  0  0  0  0  0  0  0  0
    5.4946   26.5133   26.8508 C   0  0  0  0  0  0  0  0  0  0  0  0
    4.0693   27.5646   24.6893 C   0  0  0  0  0  0  0  0  0  0  0  0
    6.0871   25.9766   27.9482 C   0  0  0  0  0  0  0  0  0  0  0  0
    6.7203   25.0746   25.2865 C   0  0  0  0  0  0  0  0  0  0  0  0
    4.4685   27.5070   27.0133 C   0  0  0  0  0  0  0  0  0  0  0  0
    7.1007   24.9765   28.0015 C   0  0  0  0  0  0  0  0  0  0  0  0
    7.3913   24.5056   26.5894 C   0  0  0  0  0  0  0  0  0  0  0  0
    8.9972   23.5206   24.6334 N   0  0  0  0  0  0  0  0  0  0  0  0
    7.6287   24.3234   29.0017 C   0  0  0  0  0  0  0  0  0  0  0  0
    5.8585   26.3903   29.2818 O   0  0  0  0  0  0  0  0  0  0  0  0
    9.9213   22.5527   24.3695 N   0  0  0  0  0  0  0  0  0  0  0  0
    3.8316   27.9923   25.9451 C   0  0  0  0  0  0  0  0  0  0  0  0
    9.5322   22.1687   23.1347 N   0  0  0  0  0  0  0  0  0  0  0  0
    3.2852   28.0538   23.7550 O   0  0  0  0  0  0  0  0  0  0  0  0
    8.7600   24.5362   29.3212 O   0  0  0  0  0  0  0  0  0  0  0  0
    6.7842   23.8215   29.8916 N   0  0  0  0  0  0  0  0  0  0  0  0
    8.3795   22.8818   22.7312 C   0  0  0  0  0  0  0  0  0  0  0  0
  1  2  1  0
  2  3  1  0
  2  4  2  0
  3  5  2  0
  4  6  1  0
  5  7  1  0
  6  8  1  0
  4  9  1  0
  8 10  2  0
  5 11  1  0
  6 11  2  0
  8 12  1  0
 10 13  1  0
 11 14  1  0
 13 14  2  0
  7 15  1  0
 13 16  1  0
 10 17  1  0
 15 18  1  0
  9 19  1  0
 12 19  2  0
 18 20  2  0
  9 21  2  0
 16 22  2  0
 16 23  1  0
  7 24  2  0
 20 24  1  0
M  END
>  <ID>  (1) 
conformer_0

$$$$
