
     RDKit          3D

 24 28  0  0  0  0  0  0  0  0999 V2000
    5.0079   26.2070   21.9382 N   0  0  0  0  0  0  0  0  0  0  0  0
    5.9778   25.4643   22.3655 C   0  0  0  0  0  0  0  0  0  0  0  0
    6.4405   25.6961   23.5101 C   0  0  0  0  0  0  0  0  0  0  0  0
    5.4581   26.6314   24.1150 C   0  0  0  0  0  0  0  0  0  0  0  0
    7.5731   25.1724   24.1657 C   0  0  0  0  0  0  0  0  0  0  0  0
    4.5146   26.9526   23.0829 C   0  0  0  0  0  0  0  0  0  0  0  0
    8.0031   25.4569   25.2911 N   0  0  0  0  0  0  0  0  0  0  0  0
    8.4346   24.5033   23.3167 N   0  0  0  0  0  0  0  0  0  0  0  0
    5.3704   27.2634   25.3214 C   0  0  0  0  0  0  0  0  0  0  0  0
    9.2099   24.6623   25.5081 C   0  0  0  0  0  0  0  0  0  0  0  0
    9.4121   23.8387   24.2064 C   0  0  0  0  0  0  0  0  0  0  0  0
   10.0259   22.9231   23.9927 O   0  0  0  0  0  0  0  0  0  0  0  0
    6.2175   27.0008   26.5378 C   0  0  0  0  0  0  0  0  0  0  0  0
    7.3711   26.1801   26.4586 C   0  0  0  0  0  0  0  0  0  0  0  0
    3.5440   27.6725   23.3528 N   0  0  0  0  0  0  0  0  0  0  0  0
   10.0203   24.6034   26.5510 C   0  0  0  0  0  0  0  0  0  0  0  0
    8.2002   26.1616   27.7017 C   0  0  0  0  0  0  0  0  0  0  0  0
    3.3088   28.2524   24.5556 C   0  0  0  0  0  0  0  0  0  0  0  0
   11.1879   23.9909   26.7632 C   0  0  0  0  0  0  0  0  0  0  0  0
   12.1181   24.5701   27.4223 O   0  0  0  0  0  0  0  0  0  0  0  0
    4.2736   27.9084   25.6861 C   0  0  0  0  0  0  0  0  0  0  0  0
    7.7027   26.8192   28.7827 O   0  0  0  0  0  0  0  0  0  0  0  0
   11.3073   22.7778   26.4631 O   0  0  0  0  0  0  0  0  0  0  0  0
    9.4406   25.3331   27.7824 C   0  0  0  0  0  0  0  0  0  0  0  0
  1  2  1  0
  2  3  2  0
  3  4  1  0
  3  5  1  0
  1  6  2  0
  4  6  1  0
  5  7  1  0
  5  8  2  0
  4  9  1  0
  7 10  1  0
  8 11  1  0
 10 11  1  0
 11 12  2  0
  9 13  1  0
  7 14  1  0
 13 14  2  0
  6 15  1  0
 10 16  2  0
 14 17  1  0
 15 18  2  0
 16 19  1  0
 19 20  1  0
  9 21  2  0
 18 21  1  0
 17 22  2  0
 19 23  2  0
 16 24  1  0
 17 24  1  0
M  END
>  <ID>  (1) 
conformer_0

$$$$
