
     RDKit          3D

 24 27  0  0  0  0  0  0  0  0999 V2000
    8.2176   23.7420   23.4376 C   0  0  0  0  0  0  0  0  0  0  0  0
    8.5629   23.8962   24.5828 N   0  0  0  0  0  0  0  0  0  0  0  0
    7.9007   24.8098   25.4447 C   0  0  0  0  0  0  0  0  0  0  0  0
    8.1432   24.9682   26.8057 N   0  0  0  0  0  0  0  0  0  0  0  0
    9.1176   24.2610   27.4192 C   0  0  0  0  0  0  0  0  0  0  0  0
    6.8818   25.6022   24.8747 C   0  0  0  0  0  0  0  0  0  0  0  0
    7.0668   25.7125   27.3578 C   0  0  0  0  0  0  0  0  0  0  0  0
    6.1909   26.4819   25.7308 C   0  0  0  0  0  0  0  0  0  0  0  0
    5.1592   27.3952   25.0253 C   0  0  0  0  0  0  0  0  0  0  0  0
    8.8785   23.0635   28.0274 C   0  0  0  0  0  0  0  0  0  0  0  0
    6.5615   25.2877   23.5147 C   0  0  0  0  0  0  0  0  0  0  0  0
    4.3130   28.0862   25.8424 C   0  0  0  0  0  0  0  0  0  0  0  0
    4.8458   27.2217   23.7347 C   0  0  0  0  0  0  0  0  0  0  0  0
    3.2180   28.5394   25.2951 O   0  0  0  0  0  0  0  0  0  0  0  0
    6.3148   26.6176   26.9452 N   0  0  0  0  0  0  0  0  0  0  0  0
    7.2468   24.4599   22.7959 N   0  0  0  0  0  0  0  0  0  0  0  0
    4.4291   28.2316   27.2015 N   0  0  0  0  0  0  0  0  0  0  0  0
    5.5491   26.0105   22.8790 C   0  0  0  0  0  0  0  0  0  0  0  0
    8.9977   22.7360   22.4889 C   0  0  0  0  0  0  0  0  0  0  0  0
    5.5168   27.4150   27.6996 C   0  0  0  0  0  0  0  0  0  0  0  0
    7.2916   25.6793   28.7787 O   0  0  0  0  0  0  0  0  0  0  0  0
    4.5982   25.5654   22.0499 O   0  0  0  0  0  0  0  0  0  0  0  0
    7.6797   23.1375   28.8632 N   0  0  0  0  0  0  0  0  0  0  0  0
    7.8826   22.9651   30.2407 C   0  0  0  0  0  0  0  0  0  0  0  0
  1  2  2  0
  2  3  1  0
  3  4  1  0
  4  5  1  0
  3  6  2  0
  4  7  1  0
  6  8  1  0
  8  9  1  0
  5 10  1  0
  6 11  1  0
  9 12  1  0
  9 13  2  0
 12 14  2  0
  7 15  1  0
  8 15  1  0
  1 16  1  0
 11 16  2  0
 12 17  1  0
 11 18  1  0
 13 18  1  0
  1 19  1  0
 15 20  1  0
 17 20  2  0
  7 21  2  0
 18 22  1  0
 10 23  1  0
 23 24  1  0
M  END
>  <ID>  (1) 
conformer_0

$$$$
