
     RDKit          3D

 26 30  0  0  0  0  0  0  0  0999 V2000
    4.5213   26.4279   22.2156 N   0  0  0  0  0  0  0  0  0  0  0  0
    5.2822   26.0451   23.0707 C   0  0  0  0  0  0  0  0  0  0  0  0
    6.2216   25.0501   22.9425 N   0  0  0  0  0  0  0  0  0  0  0  0
    5.0418   26.4583   24.4715 C   0  0  0  0  0  0  0  0  0  0  0  0
    6.9373   24.6077   24.0096 C   0  0  0  0  0  0  0  0  0  0  0  0
    5.8534   26.0517   25.4720 C   0  0  0  0  0  0  0  0  0  0  0  0
    7.9830   23.6274   23.8254 C   0  0  0  0  0  0  0  0  0  0  0  0
    5.4946   26.5133   26.8508 C   0  0  0  0  0  0  0  0  0  0  0  0
    4.0693   27.5646   24.6893 C   0  0  0  0  0  0  0  0  0  0  0  0
    6.0871   25.9766   27.9482 C   0  0  0  0  0  0  0  0  0  0  0  0
    7.0122   24.9255   27.7721 C   0  0  0  0  0  0  0  0  0  0  0  0
    3.2558   27.8863   23.7566 O   0  0  0  0  0  0  0  0  0  0  0  0
    3.7694   27.9879   26.0091 N   0  0  0  0  0  0  0  0  0  0  0  0
    6.7073   25.0788   25.3673 C   0  0  0  0  0  0  0  0  0  0  0  0
    7.7048   24.3349   28.8651 N   0  0  0  0  0  0  0  0  0  0  0  0
    7.1594   24.4792   30.0157 C   0  0  0  0  0  0  0  0  0  0  0  0
    4.5073   27.5348   27.0544 C   0  0  0  0  0  0  0  0  0  0  0  0
    7.4170   24.5239   26.4329 C   0  0  0  0  0  0  0  0  0  0  0  0
    8.9650   23.4721   24.6908 C   0  0  0  0  0  0  0  0  0  0  0  0
    8.3706   23.1344   28.5041 C   0  0  0  0  0  0  0  0  0  0  0  0
    6.1149   23.6943   30.4920 O   0  0  0  0  0  0  0  0  0  0  0  0
    8.5546   23.7427   26.1464 N   0  0  0  0  0  0  0  0  0  0  0  0
    9.1978   22.7613   29.6059 C   0  0  0  0  0  0  0  0  0  0  0  0
    9.1854   23.2758   27.3539 C   0  0  0  0  0  0  0  0  0  0  0  0
   10.0166   23.0511   24.5554 O   0  0  0  0  0  0  0  0  0  0  0  0
    7.7244   25.4067   31.0061 C   0  0  0  0  0  0  0  0  0  0  0  0
  1  2  1  0
  2  3  1  0
  2  4  2  0
  3  5  2  0
  4  6  1  0
  5  7  1  0
  6  8  1  0
  4  9  1  0
  8 10  2  0
 10 11  1  0
  9 12  2  0
  9 13  1  0
  5 14  1  0
  6 14  2  0
 11 15  1  0
 15 16  1  0
  8 17  1  0
 13 17  2  0
 11 18  2  0
 14 18  1  0
  7 19  1  0
 15 20  1  0
 16 21  2  0
 18 22  1  0
 19 22  1  0
 20 23  1  0
 20 24  1  0
 22 24  1  0
 19 25  2  0
 16 26  1  0
M  END
>  <ID>  (1) 
conformer_0

$$$$
