
     RDKit          3D

 22 25  0  0  0  0  0  0  0  0999 V2000
    8.2176   23.7420   23.4376 C   0  0  0  0  0  0  0  0  0  0  0  0
    8.5629   23.8962   24.5828 N   0  0  0  0  0  0  0  0  0  0  0  0
    7.9007   24.8098   25.4447 C   0  0  0  0  0  0  0  0  0  0  0  0
    8.1432   24.9682   26.8057 N   0  0  0  0  0  0  0  0  0  0  0  0
    9.1176   24.2610   27.4192 C   0  0  0  0  0  0  0  0  0  0  0  0
    6.8818   25.6022   24.8747 C   0  0  0  0  0  0  0  0  0  0  0  0
    7.0668   25.7125   27.3578 C   0  0  0  0  0  0  0  0  0  0  0  0
    6.1909   26.4819   25.7308 C   0  0  0  0  0  0  0  0  0  0  0  0
    5.1592   27.3952   25.0253 C   0  0  0  0  0  0  0  0  0  0  0  0
    7.3207   24.5775   22.7506 C   0  0  0  0  0  0  0  0  0  0  0  0
    4.3758   28.1730   25.8205 C   0  0  0  0  0  0  0  0  0  0  0  0
    4.9459   27.2386   23.6257 C   0  0  0  0  0  0  0  0  0  0  0  0
    7.0056   24.3316   21.3890 F   0  0  0  0  0  0  0  0  0  0  0  0
    8.8296   23.6810   28.6067 C   0  0  0  0  0  0  0  0  0  0  0  0
    6.3441   26.4755   26.9645 N   0  0  0  0  0  0  0  0  0  0  0  0
    8.5092   24.4077   29.5252 O   0  0  0  0  0  0  0  0  0  0  0  0
    6.6066   25.4746   23.4864 C   0  0  0  0  0  0  0  0  0  0  0  0
    7.2981   25.6135   28.8745 C   0  0  0  0  0  0  0  0  0  0  0  0
    4.3732   28.3661   27.1808 C   0  0  0  0  0  0  0  0  0  0  0  0
    5.7010   26.3333   22.8711 C   0  0  0  0  0  0  0  0  0  0  0  0
    4.2157   27.8734   23.1909 O   0  0  0  0  0  0  0  0  0  0  0  0
    3.6604   27.2364   27.8636 C   0  0  0  0  0  0  0  0  0  0  0  0
  1  2  2  0
  2  3  1  0
  3  4  1  0
  4  5  1  0
  3  6  2  0
  4  7  1  0
  6  8  1  0
  8  9  1  0
  1 10  1  0
  9 11  2  3
  9 12  1  0
 10 13  1  0
  5 14  1  0
  7 15  1  0
  8 15  2  0
 14 16  1  0
  6 17  1  0
 10 17  2  0
  7 18  1  0
 16 18  1  0
 11 19  1  0
 12 20  1  0
 17 20  1  0
 12 21  2  0
 19 22  1  0
M  END
>  <ID>  (1) 
conformer_0

$$$$
