
     RDKit          3D

 26 31  0  0  0  0  0  0  0  0999 V2000
    3.6174   27.8348   23.8935 N   0  0  0  0  0  0  0  0  0  0  0  0
    4.5959   27.0607   23.5468 C   0  0  0  0  0  0  0  0  0  0  0  0
    5.4732   26.5649   24.4382 C   0  0  0  0  0  0  0  0  0  0  0  0
    6.5501   25.6780   23.9138 C   0  0  0  0  0  0  0  0  0  0  0  0
    5.4045   26.8122   25.7362 C   0  0  0  0  0  0  0  0  0  0  0  0
    7.5951   25.1762   24.7265 C   0  0  0  0  0  0  0  0  0  0  0  0
    6.1768   26.1921   26.7739 N   0  0  0  0  0  0  0  0  0  0  0  0
    4.7193   26.6153   22.1887 N   0  0  0  0  0  0  0  0  0  0  0  0
    7.2362   25.3140   26.1906 C   0  0  0  0  0  0  0  0  0  0  0  0
    6.4628   25.6297   22.5073 C   0  0  0  0  0  0  0  0  0  0  0  0
    7.6426   24.8386   21.9340 C   0  0  0  0  0  0  0  0  0  0  0  0
    8.8008   24.6326   24.4626 C   0  0  0  0  0  0  0  0  0  0  0  0
    4.3146   27.5374   26.2277 C   0  0  0  0  0  0  0  0  0  0  0  0
    6.3786   26.5947   27.9477 C   0  0  0  0  0  0  0  0  0  0  0  0
    5.8597   25.5815   28.8777 C   0  0  0  0  0  0  0  0  0  0  0  0
    3.9725   27.8784   27.5848 C   0  0  0  0  0  0  0  0  0  0  0  0
    8.6648   24.3650   22.9482 N   0  0  0  0  0  0  0  0  0  0  0  0
    5.1367   27.4589   28.3706 C   0  0  0  0  0  0  0  0  0  0  0  0
    5.7672   26.0533   30.3064 C   0  0  0  0  0  0  0  0  0  0  0  0
    9.6389   23.3681   22.3966 C   0  0  0  0  0  0  0  0  0  0  0  0
    5.6085   25.9712   21.7201 C   0  0  0  0  0  0  0  0  0  0  0  0
    9.6349   24.3127   25.1403 O   0  0  0  0  0  0  0  0  0  0  0  0
    5.0441   25.3176   31.3393 C   0  0  0  0  0  0  0  0  0  0  0  0
    3.3949   28.0836   25.2349 C   0  0  0  0  0  0  0  0  0  0  0  0
    4.9688   27.6092   29.8512 C   0  0  0  0  0  0  0  0  0  0  0  0
    5.3187   24.0267   31.1404 O   0  0  0  0  0  0  0  0  0  0  0  0
  1  2  1  0
  2  3  2  0
  3  4  1  0
  3  5  1  0
  4  6  1  0
  5  7  1  0
  2  8  1  0
  6  9  2  0
  7  9  1  0
  4 10  1  0
 10 11  1  0
  6 12  1  0
  5 13  2  0
  7 14  1  0
 14 15  1  0
 13 16  1  0
 11 17  1  0
 12 17  1  0
 14 18  1  0
 16 18  2  0
 15 19  1  0
 17 20  1  0
  8 21  2  0
 10 21  2  0
 12 22  2  0
 19 23  1  0
  1 24  2  0
 13 24  1  0
 18 25  1  0
 19 25  1  0
 23 26  1  0
M  END
>  <ID>  (1) 
conformer_0

$$$$
