
     RDKit          3D

 29 33  0  0  0  0  0  0  0  0999 V2000
    8.2176   23.7420   23.4376 C   0  0  0  0  0  0  0  0  0  0  0  0
    8.5629   23.8962   24.5828 N   0  0  0  0  0  0  0  0  0  0  0  0
    7.9007   24.8098   25.4447 C   0  0  0  0  0  0  0  0  0  0  0  0
    8.1432   24.9682   26.8057 N   0  0  0  0  0  0  0  0  0  0  0  0
    9.1176   24.2610   27.4192 C   0  0  0  0  0  0  0  0  0  0  0  0
    6.8818   25.6022   24.8747 C   0  0  0  0  0  0  0  0  0  0  0  0
    7.0668   25.7125   27.3578 C   0  0  0  0  0  0  0  0  0  0  0  0
    6.1909   26.4819   25.7308 C   0  0  0  0  0  0  0  0  0  0  0  0
    5.1592   27.3952   25.0253 C   0  0  0  0  0  0  0  0  0  0  0  0
    8.8785   23.0635   28.0274 C   0  0  0  0  0  0  0  0  0  0  0  0
    6.5615   25.2877   23.5147 C   0  0  0  0  0  0  0  0  0  0  0  0
    4.3130   28.0862   25.8424 C   0  0  0  0  0  0  0  0  0  0  0  0
    4.8458   27.2217   23.7347 C   0  0  0  0  0  0  0  0  0  0  0  0
    3.2180   28.5394   25.2951 O   0  0  0  0  0  0  0  0  0  0  0  0
    9.8540   22.3480   28.6790 C   0  0  0  0  0  0  0  0  0  0  0  0
    6.3185   26.6203   26.9402 C   0  0  0  0  0  0  0  0  0  0  0  0
    9.6284   21.3677   29.5337 C   0  0  0  0  0  0  0  0  0  0  0  0
   11.0827   22.5043   28.1794 C   0  0  0  0  0  0  0  0  0  0  0  0
   12.1748   21.6862   28.6237 C   0  0  0  0  0  0  0  0  0  0  0  0
    5.5935   27.4758   27.7405 C   0  0  0  0  0  0  0  0  0  0  0  0
   11.9543   20.8146   29.6432 C   0  0  0  0  0  0  0  0  0  0  0  0
    5.4874   26.1321   22.9591 C   0  0  0  0  0  0  0  0  0  0  0  0
    4.4697   28.2435   27.2380 C   0  0  0  0  0  0  0  0  0  0  0  0
   13.0847   20.0222   30.0875 O   0  0  0  0  0  0  0  0  0  0  0  0
    8.3342   21.1607   30.1480 O   0  0  0  0  0  0  0  0  0  0  0  0
    7.1987   25.9047   28.7576 O   0  0  0  0  0  0  0  0  0  0  0  0
    7.2997   24.4606   22.7976 C   0  0  0  0  0  0  0  0  0  0  0  0
   10.7070   20.6118   30.1284 C   0  0  0  0  0  0  0  0  0  0  0  0
    5.3405   26.3797   21.8249 O   0  0  0  0  0  0  0  0  0  0  0  0
  1  2  2  0
  2  3  1  0
  3  4  1  0
  4  5  1  0
  3  6  2  0
  4  7  1  0
  6  8  1  0
  8  9  1  0
  5 10  1  0
  6 11  1  0
  9 12  1  0
  9 13  2  0
 12 14  2  0
 10 15  1  0
  7 16  1  0
  8 16  1  0
 15 17  1  0
 15 18  2  0
 18 19  1  0
 16 20  2  0
 19 21  2  0
 11 22  1  0
 13 22  1  0
 12 23  1  0
 20 23  1  0
 21 24  1  0
 17 25  1  0
  7 26  2  0
  1 27  1  0
 11 27  2  0
 17 28  2  0
 21 28  1  0
 22 29  2  0
M  END
>  <ID>  (1) 
conformer_0

$$$$
