
     RDKit          3D

 25 28  0  0  0  0  0  0  0  0999 V2000
    7.5815   24.6595   22.8110 C   0  0  0  0  0  0  0  0  0  0  0  0
    8.1014   24.4875   23.9443 C   0  0  0  0  0  0  0  0  0  0  0  0
    9.1134   23.5033   24.1970 C   0  0  0  0  0  0  0  0  0  0  0  0
    7.4511   24.8285   25.1843 C   0  0  0  0  0  0  0  0  0  0  0  0
    7.9342   24.5385   26.4216 N   0  0  0  0  0  0  0  0  0  0  0  0
    6.2663   25.5657   24.9839 C   0  0  0  0  0  0  0  0  0  0  0  0
    6.4344   25.4410   22.5865 C   0  0  0  0  0  0  0  0  0  0  0  0
    9.0340   23.6921   26.4996 C   0  0  0  0  0  0  0  0  0  0  0  0
    7.2135   24.9515   27.6369 C   0  0  0  0  0  0  0  0  0  0  0  0
    5.8047   25.9035   23.7204 C   0  0  0  0  0  0  0  0  0  0  0  0
    4.5092   26.7942   23.5766 C   0  0  0  0  0  0  0  0  0  0  0  0
    6.3566   23.9845   28.1807 C   0  0  0  0  0  0  0  0  0  0  0  0
    4.2659   27.4791   24.6613 N   0  0  0  0  0  0  0  0  0  0  0  0
    4.8785   27.8075   25.8825 C   0  0  0  0  0  0  0  0  0  0  0  0
    6.5296   26.2052   27.6335 O   0  0  0  0  0  0  0  0  0  0  0  0
    9.6458   23.2765   25.4268 N   0  0  0  0  0  0  0  0  0  0  0  0
    9.7233   22.9034   23.2076 O   0  0  0  0  0  0  0  0  0  0  0  0
    9.4675   23.3793   27.7753 O   0  0  0  0  0  0  0  0  0  0  0  0
    3.8729   26.8568   22.6873 O   0  0  0  0  0  0  0  0  0  0  0  0
    2.9869   28.2417   24.6650 O   0  0  0  0  0  0  0  0  0  0  0  0
    5.2523   25.9965   28.1792 C   0  0  0  0  0  0  0  0  0  0  0  0
    6.8031   23.0671   29.1743 O   0  0  0  0  0  0  0  0  0  0  0  0
    4.0135   27.3681   27.0264 C   0  0  0  0  0  0  0  0  0  0  0  0
    5.4964   24.8954   29.0958 C   0  0  0  0  0  0  0  0  0  0  0  0
    4.1884   26.4105   27.7750 C   0  0  0  0  0  0  0  0  0  0  0  0
  1  2  2  0
  2  3  1  0
  2  4  1  0
  4  5  1  0
  4  6  2  0
  1  7  1  0
  5  8  1  0
  5  9  1  0
  6 10  1  0
  7 10  2  0
 10 11  1  0
  9 12  1  0
 11 13  1  0
 13 14  1  0
  9 15  1  0
  3 16  1  0
  8 16  1  0
  3 17  2  0
  8 18  2  0
 11 19  2  0
 13 20  1  0
 15 21  1  0
 12 22  1  0
 14 23  1  0
 12 24  1  0
 21 24  1  0
 21 25  1  0
 23 25  1  0
M  END
>  <ID>  (1) 
conformer_0

$$$$
