
     RDKit          3D

 27 30  0  0  0  0  0  0  0  0999 V2000
    3.3487   28.6523   25.5329 N   0  0  0  0  0  0  0  0  0  0  0  0
    3.8708   28.6023   26.5178 C   0  0  0  0  0  0  0  0  0  0  0  0
    4.9217   27.7498   26.5474 N   0  0  0  0  0  0  0  0  0  0  0  0
    5.7189   27.4033   27.6567 C   0  0  0  0  0  0  0  0  0  0  0  0
    3.5688   28.0161   24.3970 C   0  0  0  0  0  0  0  0  0  0  0  0
    4.7274   27.1792   24.4798 C   0  0  0  0  0  0  0  0  0  0  0  0
    5.4593   26.0628   28.1617 C   0  0  0  0  0  0  0  0  0  0  0  0
    6.2714   25.2803   28.5922 C   0  0  0  0  0  0  0  0  0  0  0  0
    7.6319   25.6872   28.7716 C   0  0  0  0  0  0  0  0  0  0  0  0
    5.9602   23.8801   29.2663 C   0  0  0  0  0  0  0  0  0  0  0  0
    5.3768   26.9870   25.5720 C   0  0  0  0  0  0  0  0  0  0  0  0
    6.5343   26.4513   25.3833 N   0  0  0  0  0  0  0  0  0  0  0  0
    2.8519   27.9272   23.3823 O   0  0  0  0  0  0  0  0  0  0  0  0
    6.5458   25.8936   24.0717 C   0  0  0  0  0  0  0  0  0  0  0  0
    5.3440   26.3357   23.4771 C   0  0  0  0  0  0  0  0  0  0  0  0
    8.7215   24.7953   29.2494 C   0  0  0  0  0  0  0  0  0  0  0  0
    7.0936   24.6069   23.8558 C   0  0  0  0  0  0  0  0  0  0  0  0
    7.9866   26.9459   28.3697 C   0  0  0  0  0  0  0  0  0  0  0  0
    6.7689   24.0857   22.6590 C   0  0  0  0  0  0  0  0  0  0  0  0
    9.1420   24.9178   30.2599 O   0  0  0  0  0  0  0  0  0  0  0  0
    6.9836   27.7651   27.8015 C   0  0  0  0  0  0  0  0  0  0  0  0
    8.0910   24.0618   24.8675 C   0  0  0  0  0  0  0  0  0  0  0  0
    8.5801   24.5630   25.7339 O   0  0  0  0  0  0  0  0  0  0  0  0
    5.0134   25.7424   22.2556 C   0  0  0  0  0  0  0  0  0  0  0  0
    5.8191   24.6872   21.8867 C   0  0  0  0  0  0  0  0  0  0  0  0
    8.7067   22.9438   24.2377 N   0  0  0  0  0  0  0  0  0  0  0  0
    9.0216   23.8698   28.3899 O   0  0  0  0  0  0  0  0  0  0  0  0
  1  2  2  0
  2  3  1  0
  3  4  1  0
  1  5  1  0
  5  6  1  0
  4  7  1  0
  7  8  2  0
  8  9  1  0
  8 10  1  0
  3 11  1  0
  6 11  1  0
 11 12  2  0
  5 13  2  0
 12 14  1  0
  6 15  1  0
 14 15  1  0
  9 16  1  0
 14 17  2  0
  9 18  2  0
 17 19  1  0
 16 20  1  0
  4 21  2  0
 18 21  1  0
 17 22  1  0
 22 23  2  0
 15 24  2  0
 19 25  2  0
 24 25  1  0
 22 26  1  0
 16 27  2  0
M  END
>  <ID>  (1) 
conformer_0

$$$$
