
     RDKit          3D

 17 19  0  0  0  0  0  0  0  0999 V2000
    3.6304   27.3299   23.2744 N   0  0  0  0  0  0  0  0  0  0  0  0
    4.7087   26.5154   23.1606 C   0  0  0  0  0  0  0  0  0  0  0  0
    5.5194   26.3455   24.2316 C   0  0  0  0  0  0  0  0  0  0  0  0
    4.8154   27.1681   25.1856 C   0  0  0  0  0  0  0  0  0  0  0  0
    6.7375   25.6877   24.2399 C   0  0  0  0  0  0  0  0  0  0  0  0
    7.5080   25.4549   23.3121 C   0  0  0  0  0  0  0  0  0  0  0  0
    5.1617   27.3942   26.5400 C   0  0  0  0  0  0  0  0  0  0  0  0
    8.6940   24.6924   23.4953 C   0  0  0  0  0  0  0  0  0  0  0  0
    8.7637   23.8879   24.5589 C   0  0  0  0  0  0  0  0  0  0  0  0
    7.8734   24.0824   25.6383 C   0  0  0  0  0  0  0  0  0  0  0  0
    9.9260   22.9270   24.6879 O   0  0  0  0  0  0  0  0  0  0  0  0
    6.3215   26.9370   27.0535 C   0  0  0  0  0  0  0  0  0  0  0  0
    3.6090   27.6320   24.6254 N   0  0  0  0  0  0  0  0  0  0  0  0
    8.2000   23.4281   26.8319 O   0  0  0  0  0  0  0  0  0  0  0  0
    4.9015   25.8821   21.7489 N   0  0  0  0  0  0  0  0  0  0  0  0
    6.9435   24.9572   25.5303 C   0  0  0  0  0  0  0  0  0  0  0  0
    6.1694   25.3814   26.6790 C   0  0  0  0  0  0  0  0  0  0  0  0
  1  2  2  0
  2  3  1  0
  3  4  2  0
  3  5  1  0
  5  6  2  0
  4  7  1  0
  6  8  1  0
  8  9  2  0
  9 10  1  0
  9 11  1  0
  7 12  2  0
  1 13  1  0
  4 13  1  0
 10 14  1  0
  2 15  1  0
  5 16  1  0
 10 16  2  0
 12 17  1  0
 16 17  1  0
M  END
>  <ID>  (1) 
conformer_0

$$$$
