
     RDKit          3D

  4  3  0  0  0  0  0  0  0  0999 V2000
    4.6708   24.2403   31.4635 C   0  0  0  0  0  0  0  0  0  0  0  0
    5.0014   24.7660   30.3495 C   0  0  0  0  0  0  0  0  0  0  0  0
    4.3980   25.5418   29.7029 O   0  0  0  0  0  0  0  0  0  0  0  0
    6.0405   24.0066   29.8094 O   0  0  0  0  0  0  0  0  0  0  0  0
  1  2  1  0
  2  3  1  0
  2  4  2  0
M  END
>  <ID>  (1) 
conformer_0

$$$$
