
     RDKit          3D

 27 31  0  0  0  0  0  0  0  0999 V2000
    8.2176   23.7420   23.4376 C   0  0  0  0  0  0  0  0  0  0  0  0
    8.5629   23.8962   24.5828 N   0  0  0  0  0  0  0  0  0  0  0  0
    7.9007   24.8098   25.4447 C   0  0  0  0  0  0  0  0  0  0  0  0
    8.1432   24.9682   26.8057 N   0  0  0  0  0  0  0  0  0  0  0  0
    9.1176   24.2610   27.4192 C   0  0  0  0  0  0  0  0  0  0  0  0
    6.8818   25.6022   24.8747 C   0  0  0  0  0  0  0  0  0  0  0  0
    7.0668   25.7125   27.3578 C   0  0  0  0  0  0  0  0  0  0  0  0
    6.1909   26.4819   25.7308 C   0  0  0  0  0  0  0  0  0  0  0  0
    5.1592   27.3952   25.0253 C   0  0  0  0  0  0  0  0  0  0  0  0
    8.8785   23.0635   28.0274 C   0  0  0  0  0  0  0  0  0  0  0  0
    6.5615   25.2877   23.5147 C   0  0  0  0  0  0  0  0  0  0  0  0
    4.3130   28.0862   25.8424 C   0  0  0  0  0  0  0  0  0  0  0  0
    4.8458   27.2217   23.7347 C   0  0  0  0  0  0  0  0  0  0  0  0
    3.2180   28.5394   25.2951 O   0  0  0  0  0  0  0  0  0  0  0  0
    9.8540   22.3480   28.6790 C   0  0  0  0  0  0  0  0  0  0  0  0
    6.1093   26.4281   26.9980 C   0  0  0  0  0  0  0  0  0  0  0  0
    4.4258   28.1305   27.2012 N   0  0  0  0  0  0  0  0  0  0  0  0
    5.3785   26.2883   22.9027 C   0  0  0  0  0  0  0  0  0  0  0  0
    6.9414   25.5788   28.8770 N   0  0  0  0  0  0  0  0  0  0  0  0
    6.1354   26.2146   29.5697 C   0  0  0  0  0  0  0  0  0  0  0  0
   11.0286   22.7264   28.1136 O   0  0  0  0  0  0  0  0  0  0  0  0
    4.5024   25.6062   22.1562 O   0  0  0  0  0  0  0  0  0  0  0  0
    7.7794   23.1477   29.1567 O   0  0  0  0  0  0  0  0  0  0  0  0
    7.1497   24.5352   22.8402 N   0  0  0  0  0  0  0  0  0  0  0  0
    5.2260   27.2168   27.7643 C   0  0  0  0  0  0  0  0  0  0  0  0
    5.2353   27.0639   29.0858 C   0  0  0  0  0  0  0  0  0  0  0  0
    8.8857   22.8593   22.5967 C   0  0  0  0  0  0  0  0  0  0  0  0
  1  2  2  0
  2  3  1  0
  3  4  1  0
  4  5  1  0
  3  6  2  0
  4  7  1  0
  6  8  1  0
  8  9  1  0
  5 10  1  0
  6 11  1  0
  9 12  1  0
  9 13  2  0
 12 14  2  0
 10 15  1  0
  7 16  1  0
  8 16  1  0
 12 17  1  0
 11 18  1  0
 13 18  1  0
  7 19  2  0
 19 20  1  0
 15 21  1  0
 18 22  1  0
 10 23  1  0
  1 24  1  0
 11 24  2  0
 16 25  2  0
 17 25  1  0
 20 26  2  0
 25 26  1  0
  1 27  1  0
M  END
>  <ID>  (1) 
conformer_0

$$$$
