
     RDKit          3D

 21 25  0  0  0  0  0  0  0  0999 V2000
    5.0079   26.2070   21.9382 N   0  0  0  0  0  0  0  0  0  0  0  0
    5.9778   25.4643   22.3655 C   0  0  0  0  0  0  0  0  0  0  0  0
    6.4405   25.6961   23.5101 C   0  0  0  0  0  0  0  0  0  0  0  0
    5.4581   26.6314   24.1150 C   0  0  0  0  0  0  0  0  0  0  0  0
    7.5731   25.1724   24.1657 C   0  0  0  0  0  0  0  0  0  0  0  0
    4.5146   26.9526   23.0829 C   0  0  0  0  0  0  0  0  0  0  0  0
    8.0031   25.4569   25.2911 N   0  0  0  0  0  0  0  0  0  0  0  0
    8.4346   24.5033   23.3167 N   0  0  0  0  0  0  0  0  0  0  0  0
    5.3704   27.2634   25.3214 C   0  0  0  0  0  0  0  0  0  0  0  0
    9.2099   24.6623   25.5081 C   0  0  0  0  0  0  0  0  0  0  0  0
    9.4121   23.8387   24.2064 C   0  0  0  0  0  0  0  0  0  0  0  0
   10.0259   22.9231   23.9927 O   0  0  0  0  0  0  0  0  0  0  0  0
    6.2175   27.0008   26.5378 C   0  0  0  0  0  0  0  0  0  0  0  0
    7.3711   26.1801   26.4586 C   0  0  0  0  0  0  0  0  0  0  0  0
    3.5440   27.6725   23.3528 N   0  0  0  0  0  0  0  0  0  0  0  0
    3.2962   28.2126   24.5773 C   0  0  0  0  0  0  0  0  0  0  0  0
    8.2205   26.0842   27.6604 C   0  0  0  0  0  0  0  0  0  0  0  0
    7.7327   26.7720   28.8124 C   0  0  0  0  0  0  0  0  0  0  0  0
    4.1946   27.9157   25.6951 C   0  0  0  0  0  0  0  0  0  0  0  0
    6.5689   27.4982   28.8389 C   0  0  0  0  0  0  0  0  0  0  0  0
    5.7835   27.5430   27.6940 C   0  0  0  0  0  0  0  0  0  0  0  0
  1  2  1  0
  2  3  2  0
  3  4  1  0
  3  5  1  0
  1  6  2  0
  4  6  1  0
  5  7  1  0
  5  8  2  0
  4  9  1  0
  7 10  1  0
  8 11  1  0
 10 11  1  0
 11 12  2  0
  9 13  1  0
  7 14  1  0
 13 14  2  0
  6 15  1  0
 15 16  2  0
 14 17  1  0
 17 18  2  0
  9 19  2  0
 16 19  1  0
 18 20  1  0
 13 21  1  0
 20 21  2  0
M  END
>  <ID>  (1) 
conformer_0

$$$$
