
     RDKit          3D

 24 27  0  0  0  0  0  0  0  0999 V2000
    7.5815   24.6595   22.8110 C   0  0  0  0  0  0  0  0  0  0  0  0
    8.1014   24.4875   23.9443 C   0  0  0  0  0  0  0  0  0  0  0  0
    9.1134   23.5033   24.1970 C   0  0  0  0  0  0  0  0  0  0  0  0
    7.4511   24.8285   25.1843 C   0  0  0  0  0  0  0  0  0  0  0  0
    7.9342   24.5385   26.4216 N   0  0  0  0  0  0  0  0  0  0  0  0
    6.2663   25.5657   24.9839 C   0  0  0  0  0  0  0  0  0  0  0  0
    6.4344   25.4410   22.5865 C   0  0  0  0  0  0  0  0  0  0  0  0
    9.0340   23.6921   26.4996 C   0  0  0  0  0  0  0  0  0  0  0  0
    7.2135   24.9515   27.6369 C   0  0  0  0  0  0  0  0  0  0  0  0
    5.8047   25.9035   23.7204 C   0  0  0  0  0  0  0  0  0  0  0  0
    4.5092   26.7942   23.5766 C   0  0  0  0  0  0  0  0  0  0  0  0
    6.3566   23.9845   28.1807 C   0  0  0  0  0  0  0  0  0  0  0  0
    4.2659   27.4791   24.6613 N   0  0  0  0  0  0  0  0  0  0  0  0
    4.8785   27.8075   25.8825 C   0  0  0  0  0  0  0  0  0  0  0  0
    6.5296   26.2052   27.6335 O   0  0  0  0  0  0  0  0  0  0  0  0
    9.6458   23.2765   25.4268 N   0  0  0  0  0  0  0  0  0  0  0  0
    5.1575   24.5435   28.5574 C   0  0  0  0  0  0  0  0  0  0  0  0
    9.4703   23.5064   27.7025 O   0  0  0  0  0  0  0  0  0  0  0  0
    5.4402   26.0191   28.4011 C   0  0  0  0  0  0  0  0  0  0  0  0
    4.7484   24.3869   29.9750 O   0  0  0  0  0  0  0  0  0  0  0  0
    3.7385   26.6780   22.8071 O   0  0  0  0  0  0  0  0  0  0  0  0
    9.7898   23.0442   23.1982 O   0  0  0  0  0  0  0  0  0  0  0  0
    4.4897   26.9390   28.5372 C   0  0  0  0  0  0  0  0  0  0  0  0
    4.1401   27.8970   27.3940 C   0  0  0  0  0  0  0  0  0  0  0  0
  1  2  2  0
  2  3  1  0
  2  4  1  0
  4  5  1  0
  4  6  2  0
  1  7  1  0
  5  8  1  0
  5  9  1  0
  6 10  1  0
  7 10  2  0
 10 11  1  0
  9 12  1  0
 11 13  1  0
 13 14  1  0
  9 15  1  0
  3 16  1  0
  8 16  1  0
 12 17  1  0
  8 18  2  0
 15 19  1  0
 17 19  1  0
 17 20  1  0
 11 21  2  0
  3 22  2  0
 19 23  2  0
 14 24  1  0
 23 24  1  0
M  END
>  <ID>  (1) 
conformer_0

$$$$
