
     RDKit          3D

 30 35  0  0  0  0  0  0  0  0999 V2000
    8.2176   23.7420   23.4376 C   0  0  0  0  0  0  0  0  0  0  0  0
    8.5629   23.8962   24.5828 N   0  0  0  0  0  0  0  0  0  0  0  0
    7.9007   24.8098   25.4447 C   0  0  0  0  0  0  0  0  0  0  0  0
    8.1432   24.9682   26.8057 N   0  0  0  0  0  0  0  0  0  0  0  0
    9.1176   24.2610   27.4192 C   0  0  0  0  0  0  0  0  0  0  0  0
    6.8818   25.6022   24.8747 C   0  0  0  0  0  0  0  0  0  0  0  0
    7.0668   25.7125   27.3578 C   0  0  0  0  0  0  0  0  0  0  0  0
    6.1909   26.4819   25.7308 C   0  0  0  0  0  0  0  0  0  0  0  0
    5.1592   27.3952   25.0253 C   0  0  0  0  0  0  0  0  0  0  0  0
    8.8785   23.0635   28.0274 C   0  0  0  0  0  0  0  0  0  0  0  0
    6.5615   25.2877   23.5147 C   0  0  0  0  0  0  0  0  0  0  0  0
    4.3130   28.0862   25.8424 C   0  0  0  0  0  0  0  0  0  0  0  0
    4.8458   27.2217   23.7347 C   0  0  0  0  0  0  0  0  0  0  0  0
    3.2180   28.5394   25.2951 O   0  0  0  0  0  0  0  0  0  0  0  0
    9.8540   22.3480   28.6790 C   0  0  0  0  0  0  0  0  0  0  0  0
    6.3185   26.6203   26.9402 C   0  0  0  0  0  0  0  0  0  0  0  0
    9.6284   21.3677   29.5337 C   0  0  0  0  0  0  0  0  0  0  0  0
   11.0827   22.5043   28.1794 C   0  0  0  0  0  0  0  0  0  0  0  0
   12.1748   21.6862   28.6237 C   0  0  0  0  0  0  0  0  0  0  0  0
    5.5935   27.4758   27.7405 C   0  0  0  0  0  0  0  0  0  0  0  0
   11.9543   20.8146   29.6432 C   0  0  0  0  0  0  0  0  0  0  0  0
    4.4068   28.2356   27.2635 C   0  0  0  0  0  0  0  0  0  0  0  0
    6.8303   25.6050   28.8245 C   0  0  0  0  0  0  0  0  0  0  0  0
    7.1167   24.4913   22.8097 N   0  0  0  0  0  0  0  0  0  0  0  0
    5.8835   26.8036   29.0071 N   0  0  0  0  0  0  0  0  0  0  0  0
    3.9393   27.8542   23.0128 O   0  0  0  0  0  0  0  0  0  0  0  0
    5.5325   26.1733   22.7675 C   0  0  0  0  0  0  0  0  0  0  0  0
   10.6903   20.6077   30.1875 C   0  0  0  0  0  0  0  0  0  0  0  0
    5.4103   27.2942   30.2461 C   0  0  0  0  0  0  0  0  0  0  0  0
    8.9081   22.8069   22.5605 C   0  0  0  0  0  0  0  0  0  0  0  0
  1  2  2  0
  2  3  1  0
  3  4  1  0
  4  5  1  0
  3  6  2  0
  4  7  1  0
  6  8  1  0
  8  9  1  0
  5 10  1  0
  6 11  1  0
  9 12  1  0
  9 13  2  0
 12 14  2  0
 10 15  1  0
  7 16  1  0
  8 16  1  0
 15 17  1  0
 15 18  2  0
 18 19  1  0
 16 20  2  0
 19 21  2  0
 12 22  1  0
 20 22  1  0
  7 23  2  0
  1 24  1  0
 11 24  2  0
 20 25  1  0
 23 25  1  0
 13 26  1  0
 11 27  1  0
 13 27  1  0
 17 28  2  0
 21 28  1  0
 25 29  1  0
  1 30  1  0
M  END
>  <ID>  (1) 
conformer_0

$$$$
