
     RDKit          3D

 26 31  0  0  0  0  0  0  0  0999 V2000
    4.5213   26.4279   22.2156 N   0  0  0  0  0  0  0  0  0  0  0  0
    5.2822   26.0451   23.0707 C   0  0  0  0  0  0  0  0  0  0  0  0
    6.2216   25.0501   22.9425 N   0  0  0  0  0  0  0  0  0  0  0  0
    5.0418   26.4583   24.4715 C   0  0  0  0  0  0  0  0  0  0  0  0
    6.9373   24.6077   24.0096 C   0  0  0  0  0  0  0  0  0  0  0  0
    5.8534   26.0517   25.4720 C   0  0  0  0  0  0  0  0  0  0  0  0
    7.9830   23.6274   23.8254 C   0  0  0  0  0  0  0  0  0  0  0  0
    5.4946   26.5133   26.8508 C   0  0  0  0  0  0  0  0  0  0  0  0
    4.0693   27.5646   24.6893 C   0  0  0  0  0  0  0  0  0  0  0  0
    6.0871   25.9766   27.9482 C   0  0  0  0  0  0  0  0  0  0  0  0
    6.7203   25.0746   25.2865 C   0  0  0  0  0  0  0  0  0  0  0  0
    4.4685   27.5070   27.0133 C   0  0  0  0  0  0  0  0  0  0  0  0
    7.1007   24.9765   28.0015 C   0  0  0  0  0  0  0  0  0  0  0  0
    7.3913   24.5056   26.5894 C   0  0  0  0  0  0  0  0  0  0  0  0
    8.9972   23.5206   24.6334 N   0  0  0  0  0  0  0  0  0  0  0  0
    7.6287   24.3234   29.0017 C   0  0  0  0  0  0  0  0  0  0  0  0
    6.8404   24.1132   30.0557 N   0  0  0  0  0  0  0  0  0  0  0  0
    8.1392   23.3436   22.5267 O   0  0  0  0  0  0  0  0  0  0  0  0
    4.1882   28.0341   28.2991 C   0  0  0  0  0  0  0  0  0  0  0  0
    5.7695   24.8297   30.4076 C   0  0  0  0  0  0  0  0  0  0  0  0
    8.4952   23.7805   26.1697 C   0  0  0  0  0  0  0  0  0  0  0  0
    5.7635   26.1037   29.4637 C   0  0  0  0  0  0  0  0  0  0  0  0
    4.4219   27.0158   29.2882 C   0  0  0  0  0  0  0  0  0  0  0  0
    3.8793   28.0253   25.8951 C   0  0  0  0  0  0  0  0  0  0  0  0
    3.3003   28.0710   23.7392 O   0  0  0  0  0  0  0  0  0  0  0  0
    4.9159   24.6580   31.2466 O   0  0  0  0  0  0  0  0  0  0  0  0
  1  2  1  0
  2  3  1  0
  2  4  2  0
  3  5  2  0
  4  6  1  0
  5  7  1  0
  6  8  1  0
  4  9  1  0
  8 10  2  0
  5 11  1  0
  6 11  2  0
  8 12  1  0
 10 13  1  0
 11 14  1  0
 13 14  2  0
  7 15  1  0
 13 16  1  0
 16 17  1  0
  7 18  2  0
 12 19  1  0
 17 20  1  0
 14 21  1  0
 15 21  2  0
 10 22  1  0
 20 22  1  0
 19 23  1  0
 22 23  1  0
  9 24  1  0
 12 24  2  0
  9 25  2  0
 20 26  2  0
M  END
>  <ID>  (1) 
conformer_0

$$$$
