
     RDKit          3D

 29 35  0  0  0  0  0  0  0  0999 V2000
    7.5815   24.6595   22.8110 C   0  0  0  0  0  0  0  0  0  0  0  0
    8.1014   24.4875   23.9443 C   0  0  0  0  0  0  0  0  0  0  0  0
    7.7731   25.1165   24.9873 C   0  0  0  0  0  0  0  0  0  0  0  0
    8.3250   24.9285   26.3748 C   0  0  0  0  0  0  0  0  0  0  0  0
    7.6609   24.5962   27.3420 N   0  0  0  0  0  0  0  0  0  0  0  0
    6.6563   26.0183   24.9742 C   0  0  0  0  0  0  0  0  0  0  0  0
    8.1307   23.8549   28.3968 C   0  0  0  0  0  0  0  0  0  0  0  0
    9.2908   23.4479   24.1034 C   0  0  0  0  0  0  0  0  0  0  0  0
    9.8503   23.2344   25.1498 N   0  0  0  0  0  0  0  0  0  0  0  0
    7.6686   23.8127   29.6424 N   0  0  0  0  0  0  0  0  0  0  0  0
    6.5855   24.7073   30.0484 C   0  0  0  0  0  0  0  0  0  0  0  0
    8.8849   22.6788   27.9999 C   0  0  0  0  0  0  0  0  0  0  0  0
    9.5306   23.9382   26.2802 C   0  0  0  0  0  0  0  0  0  0  0  0
    6.5021   25.5091   22.5935 C   0  0  0  0  0  0  0  0  0  0  0  0
    6.0507   26.2462   23.6987 C   0  0  0  0  0  0  0  0  0  0  0  0
    6.4969   24.9274   31.2603 O   0  0  0  0  0  0  0  0  0  0  0  0
    6.6165   25.4529   28.0403 C   0  0  0  0  0  0  0  0  0  0  0  0
    9.9830   23.5397   27.4786 C   0  0  0  0  0  0  0  0  0  0  0  0
    5.9771   26.3935   26.9726 C   0  0  0  0  0  0  0  0  0  0  0  0
    5.7975   25.2724   29.0638 C   0  0  0  0  0  0  0  0  0  0  0  0
    4.8709   27.1222   27.6636 C   0  0  0  0  0  0  0  0  0  0  0  0
    4.8671   27.0571   23.5791 C   0  0  0  0  0  0  0  0  0  0  0  0
    4.8037   26.0930   29.5219 C   0  0  0  0  0  0  0  0  0  0  0  0
    6.4807   26.8200   25.9303 O   0  0  0  0  0  0  0  0  0  0  0  0
    4.4287   27.4857   22.6807 O   0  0  0  0  0  0  0  0  0  0  0  0
    4.2806   26.9970   28.7036 C   0  0  0  0  0  0  0  0  0  0  0  0
    4.2415   28.2066   26.5570 C   0  0  0  0  0  0  0  0  0  0  0  0
    9.5874   22.7553   23.0395 O   0  0  0  0  0  0  0  0  0  0  0  0
    4.2813   27.7096   24.6903 N   0  0  0  0  0  0  0  0  0  0  0  0
  1  2  2  0
  2  3  1  0
  3  4  1  0
  4  5  1  0
  3  6  2  0
  5  7  1  0
  2  8  1  0
  8  9  1  0
  7 10  2  0
 10 11  1  0
  7 12  1  0
  4 13  1  0
  9 13  2  0
  1 14  1  0
  6 15  1  0
 14 15  2  0
 11 16  2  0
  5 17  1  0
 12 18  1  0
 13 18  1  0
 17 19  1  0
 11 20  1  0
 17 20  2  0
 19 21  2  0
 15 22  1  0
 20 23  1  0
  6 24  1  0
 19 24  1  0
 22 25  2  0
 21 26  1  0
 23 26  2  0
 21 27  1  0
  8 28  2  0
 22 29  1  0
 27 29  1  0
M  END
>  <ID>  (1) 
conformer_0

$$$$
