
     RDKit          3D

 25 28  0  0  0  0  0  0  0  0999 V2000
    8.2176   23.7420   23.4376 C   0  0  0  0  0  0  0  0  0  0  0  0
    8.5629   23.8962   24.5828 N   0  0  0  0  0  0  0  0  0  0  0  0
    7.9007   24.8098   25.4447 C   0  0  0  0  0  0  0  0  0  0  0  0
    8.1432   24.9682   26.8057 N   0  0  0  0  0  0  0  0  0  0  0  0
    9.1176   24.2610   27.4192 C   0  0  0  0  0  0  0  0  0  0  0  0
    6.8818   25.6022   24.8747 C   0  0  0  0  0  0  0  0  0  0  0  0
    7.0668   25.7125   27.3578 C   0  0  0  0  0  0  0  0  0  0  0  0
    6.1909   26.4819   25.7308 C   0  0  0  0  0  0  0  0  0  0  0  0
    5.1592   27.3952   25.0253 C   0  0  0  0  0  0  0  0  0  0  0  0
    8.8785   23.0635   28.0274 C   0  0  0  0  0  0  0  0  0  0  0  0
    6.5615   25.2877   23.5147 C   0  0  0  0  0  0  0  0  0  0  0  0
    4.3130   28.0862   25.8424 C   0  0  0  0  0  0  0  0  0  0  0  0
    4.8458   27.2217   23.7347 C   0  0  0  0  0  0  0  0  0  0  0  0
    3.2180   28.5394   25.2951 O   0  0  0  0  0  0  0  0  0  0  0  0
    9.8540   22.3480   28.6790 C   0  0  0  0  0  0  0  0  0  0  0  0
    3.9046   27.7952   23.0797 O   0  0  0  0  0  0  0  0  0  0  0  0
    5.6998   26.2387   22.9507 C   0  0  0  0  0  0  0  0  0  0  0  0
   11.0541   22.7607   28.1459 O   0  0  0  0  0  0  0  0  0  0  0  0
    6.4230   26.5961   26.9358 C   0  0  0  0  0  0  0  0  0  0  0  0
    5.6351   27.4806   27.7588 C   0  0  0  0  0  0  0  0  0  0  0  0
    7.7441   23.2498   29.1827 O   0  0  0  0  0  0  0  0  0  0  0  0
    7.1958   25.7872   28.7927 O   0  0  0  0  0  0  0  0  0  0  0  0
    7.3231   24.4933   22.7784 N   0  0  0  0  0  0  0  0  0  0  0  0
    4.5742   28.2138   27.1584 C   0  0  0  0  0  0  0  0  0  0  0  0
    8.9030   22.7801   22.7226 C   0  0  0  0  0  0  0  0  0  0  0  0
  1  2  2  0
  2  3  1  0
  3  4  1  0
  4  5  1  0
  3  6  2  0
  4  7  1  0
  6  8  1  0
  8  9  1  0
  5 10  1  0
  6 11  1  0
  9 12  1  0
  9 13  2  0
 12 14  2  0
 10 15  1  0
 13 16  1  0
 11 17  2  0
 13 17  1  0
 15 18  1  0
  7 19  1  0
  8 19  1  0
 19 20  2  0
 10 21  1  0
  7 22  2  0
  1 23  1  0
 11 23  1  0
 12 24  1  0
 20 24  1  0
  1 25  1  0
M  END
>  <ID>  (1) 
conformer_0

$$$$
