
     RDKit          3D

 18 20  0  0  0  0  0  0  0  0999 V2000
    6.0784   25.4608   22.2368 C   0  0  0  0  0  0  0  0  0  0  0  0
    7.0622   25.0518   23.0614 C   0  0  0  0  0  0  0  0  0  0  0  0
    7.0873   25.5304   24.4240 C   0  0  0  0  0  0  0  0  0  0  0  0
    6.0908   26.5484   24.7633 C   0  0  0  0  0  0  0  0  0  0  0  0
    5.0846   26.3601   22.6318 C   0  0  0  0  0  0  0  0  0  0  0  0
    6.1381   27.1249   26.1435 N   0  0  0  0  0  0  0  0  0  0  0  0
    8.1426   25.1246   25.3685 C   0  0  0  0  0  0  0  0  0  0  0  0
    5.0285   27.6829   26.5583 C   0  0  0  0  0  0  0  0  0  0  0  0
    8.4501   25.5417   26.4518 N   0  0  0  0  0  0  0  0  0  0  0  0
    9.4716   24.7922   27.0591 C   0  0  0  0  0  0  0  0  0  0  0  0
    9.8903   23.8450   26.3536 C   0  0  0  0  0  0  0  0  0  0  0  0
   10.8691   22.9298   26.5667 O   0  0  0  0  0  0  0  0  0  0  0  0
    5.1205   26.8700   23.9669 C   0  0  0  0  0  0  0  0  0  0  0  0
    4.1048   27.6983   24.4527 C   0  0  0  0  0  0  0  0  0  0  0  0
    9.0771   23.9759   25.1433 C   0  0  0  0  0  0  0  0  0  0  0  0
    3.0100   28.0059   23.6968 O   0  0  0  0  0  0  0  0  0  0  0  0
    4.0072   28.0102   25.7824 C   0  0  0  0  0  0  0  0  0  0  0  0
    8.9103   22.8695   24.3166 O   0  0  0  0  0  0  0  0  0  0  0  0
  1  2  1  0
  2  3  2  0
  3  4  1  0
  1  5  2  0
  4  6  1  0
  3  7  1  0
  6  8  2  0
  7  9  2  0
  9 10  1  0
 10 11  2  0
 11 12  1  0
  4 13  2  0
  5 13  1  0
 13 14  1  0
  7 15  1  0
 11 15  1  0
 14 16  1  0
  8 17  1  0
 14 17  2  0
 15 18  1  0
M  END
>  <ID>  (1) 
conformer_0

$$$$
