
     RDKit          3D

 23 26  0  0  0  0  0  0  0  0999 V2000
    4.5213   26.4279   22.2156 N   0  0  0  0  0  0  0  0  0  0  0  0
    5.2822   26.0451   23.0707 C   0  0  0  0  0  0  0  0  0  0  0  0
    6.2216   25.0501   22.9425 N   0  0  0  0  0  0  0  0  0  0  0  0
    5.0418   26.4583   24.4715 C   0  0  0  0  0  0  0  0  0  0  0  0
    6.9373   24.6077   24.0096 C   0  0  0  0  0  0  0  0  0  0  0  0
    5.8534   26.0517   25.4720 C   0  0  0  0  0  0  0  0  0  0  0  0
    7.9830   23.6274   23.8254 C   0  0  0  0  0  0  0  0  0  0  0  0
    5.4946   26.5133   26.8508 C   0  0  0  0  0  0  0  0  0  0  0  0
    4.0693   27.5646   24.6893 C   0  0  0  0  0  0  0  0  0  0  0  0
    6.0871   25.9766   27.9482 C   0  0  0  0  0  0  0  0  0  0  0  0
    6.7203   25.0746   25.2865 C   0  0  0  0  0  0  0  0  0  0  0  0
    3.2754   27.9821   23.7545 O   0  0  0  0  0  0  0  0  0  0  0  0
    4.4713   27.4926   26.9900 C   0  0  0  0  0  0  0  0  0  0  0  0
    8.9760   23.4283   24.7212 N   0  0  0  0  0  0  0  0  0  0  0  0
    8.1180   22.9959   22.5902 C   0  0  0  0  0  0  0  0  0  0  0  0
    7.0880   25.0238   28.0401 O   0  0  0  0  0  0  0  0  0  0  0  0
    9.3838   22.2665   22.8109 C   0  0  0  0  0  0  0  0  0  0  0  0
    5.4457   26.4336   29.2233 C   0  0  0  0  0  0  0  0  0  0  0  0
    7.2228   24.2960   29.1887 C   0  0  0  0  0  0  0  0  0  0  0  0
    3.8473   27.9890   25.9433 N   0  0  0  0  0  0  0  0  0  0  0  0
    9.7663   22.5392   24.0995 O   0  0  0  0  0  0  0  0  0  0  0  0
    4.0009   27.9285   28.1756 C   0  0  0  0  0  0  0  0  0  0  0  0
    4.6382   27.3655   29.3846 C   0  0  0  0  0  0  0  0  0  0  0  0
  1  2  1  0
  2  3  1  0
  2  4  2  0
  3  5  2  0
  4  6  1  0
  5  7  1  0
  6  8  1  0
  4  9  1  0
  8 10  2  0
  5 11  1  0
  6 11  2  0
  9 12  2  0
  8 13  1  0
  7 14  2  0
  7 15  1  0
 10 16  1  0
 15 17  2  0
 10 18  1  0
 16 19  1  0
  9 20  1  0
 13 20  1  0
 14 21  1  0
 17 21  1  0
 13 22  2  0
 18 23  2  0
 22 23  1  0
M  END
>  <ID>  (1) 
conformer_0

$$$$
