
     RDKit          3D

 30 35  0  0  0  0  0  0  0  0999 V2000
    4.0491   25.0424   30.7429 C   0  0  0  0  0  0  0  0  0  0  0  0
    4.9235   25.1423   29.7858 C   0  0  0  0  0  0  0  0  0  0  0  0
    4.8054   26.0955   28.7718 N   0  0  0  0  0  0  0  0  0  0  0  0
    3.8637   27.1136   28.7981 C   0  0  0  0  0  0  0  0  0  0  0  0
    5.6248   26.0299   27.6110 C   0  0  0  0  0  0  0  0  0  0  0  0
    5.1291   26.7109   26.4651 C   0  0  0  0  0  0  0  0  0  0  0  0
    6.6214   25.0834   27.5128 C   0  0  0  0  0  0  0  0  0  0  0  0
    6.9774   24.2403   28.5897 C   0  0  0  0  0  0  0  0  0  0  0  0
    4.1417   27.7668   26.5404 C   0  0  0  0  0  0  0  0  0  0  0  0
    5.7818   26.5349   25.1758 C   0  0  0  0  0  0  0  0  0  0  0  0
    3.4963   27.9434   27.7681 C   0  0  0  0  0  0  0  0  0  0  0  0
    7.8193   25.7242   27.0662 C   0  0  0  0  0  0  0  0  0  0  0  0
    4.3919   24.2053   31.8973 C   0  0  0  0  0  0  0  0  0  0  0  0
    5.6457   23.7908   32.0176 C   0  0  0  0  0  0  0  0  0  0  0  0
    5.9650   23.0867   33.2557 C   0  0  0  0  0  0  0  0  0  0  0  0
    6.8961   26.0122   25.0749 N   0  0  0  0  0  0  0  0  0  0  0  0
    8.0647   23.6094   28.6782 N   0  0  0  0  0  0  0  0  0  0  0  0
    5.9624   24.2060   29.6099 C   0  0  0  0  0  0  0  0  0  0  0  0
    6.4005   23.6871   30.9804 C   0  0  0  0  0  0  0  0  0  0  0  0
    7.9300   25.6763   25.5988 C   0  0  0  0  0  0  0  0  0  0  0  0
    8.1443   22.3586   28.0278 C   0  0  0  0  0  0  0  0  0  0  0  0
    5.0666   27.1054   24.1544 C   0  0  0  0  0  0  0  0  0  0  0  0
    5.4525   26.7050   22.8926 C   0  0  0  0  0  0  0  0  0  0  0  0
    4.5754   27.1837   21.8429 O   0  0  0  0  0  0  0  0  0  0  0  0
    7.2655   25.7392   23.5657 C   0  0  0  0  0  0  0  0  0  0  0  0
    9.5317   21.7824   28.1219 N   0  0  0  0  0  0  0  0  0  0  0  0
    3.9929   28.0049   24.5062 C   0  0  0  0  0  0  0  0  0  0  0  0
    8.8510   24.8177   25.2148 O   0  0  0  0  0  0  0  0  0  0  0  0
    3.5629   28.2516   25.5685 N   0  0  0  0  0  0  0  0  0  0  0  0
    6.4088   25.9371   22.5699 C   0  0  0  0  0  0  0  0  0  0  0  0
  1  2  1  0
  2  3  1  0
  3  4  1  0
  3  5  1  0
  5  6  2  0
  5  7  1  0
  7  8  1  0
  6  9  1  0
  6 10  1  0
  4 11  2  0
  9 11  1  0
  7 12  1  0
  1 13  2  0
 13 14  1  0
 14 15  1  0
 10 16  1  0
  8 17  2  3
  2 18  2  0
  8 18  1  0
 14 19  2  0
 18 19  1  0
 12 20  1  0
 16 20  1  0
 17 21  1  0
 10 22  2  0
 22 23  1  0
 23 24  1  0
 16 25  1  0
 21 26  1  0
 22 27  1  0
 20 28  2  0
  9 29  2  0
 27 29  1  0
 23 30  2  0
 25 30  1  0
M  END
>  <ID>  (1) 
conformer_0

$$$$
