
     RDKit          3D

 17 19  0  0  0  0  0  0  0  0999 V2000
    6.0784   25.4608   22.2368 C   0  0  0  0  0  0  0  0  0  0  0  0
    7.0622   25.0518   23.0614 C   0  0  0  0  0  0  0  0  0  0  0  0
    7.0873   25.5304   24.4240 C   0  0  0  0  0  0  0  0  0  0  0  0
    6.0908   26.5484   24.7633 C   0  0  0  0  0  0  0  0  0  0  0  0
    5.0846   26.3601   22.6318 C   0  0  0  0  0  0  0  0  0  0  0  0
    6.1381   27.1249   26.1435 N   0  0  0  0  0  0  0  0  0  0  0  0
    8.1426   25.1246   25.3685 C   0  0  0  0  0  0  0  0  0  0  0  0
    5.0285   27.6829   26.5583 C   0  0  0  0  0  0  0  0  0  0  0  0
    8.4501   25.5417   26.4518 N   0  0  0  0  0  0  0  0  0  0  0  0
    9.4716   24.7922   27.0591 C   0  0  0  0  0  0  0  0  0  0  0  0
    9.7023   23.7723   26.2291 N   0  0  0  0  0  0  0  0  0  0  0  0
    5.0225   26.9446   23.9692 C   0  0  0  0  0  0  0  0  0  0  0  0
    8.9912   23.8361   25.0369 C   0  0  0  0  0  0  0  0  0  0  0  0
    9.0443   23.0666   24.1391 O   0  0  0  0  0  0  0  0  0  0  0  0
    4.0493   27.6023   24.2746 N   0  0  0  0  0  0  0  0  0  0  0  0
    3.9832   28.0189   25.6597 C   0  0  0  0  0  0  0  0  0  0  0  0
   10.0880   25.0830   28.3373 C   0  0  0  0  0  0  0  0  0  0  0  0
  1  2  1  0
  2  3  2  0
  3  4  1  0
  1  5  2  0
  4  6  1  0
  3  7  1  0
  6  8  2  0
  7  9  2  0
  9 10  1  0
 10 11  2  0
  4 12  2  0
  5 12  1  0
  7 13  1  0
 11 13  1  0
 13 14  2  0
 12 15  1  0
  8 16  1  0
 15 16  2  0
 10 17  1  0
M  END
>  <ID>  (1) 
conformer_0

$$$$
