
     RDKit          3D

 23 26  0  0  0  0  0  0  0  0999 V2000
    7.5815   24.6595   22.8110 C   0  0  0  0  0  0  0  0  0  0  0  0
    8.1014   24.4875   23.9443 C   0  0  0  0  0  0  0  0  0  0  0  0
    9.1134   23.5033   24.1970 C   0  0  0  0  0  0  0  0  0  0  0  0
    7.4511   24.8285   25.1843 C   0  0  0  0  0  0  0  0  0  0  0  0
    7.9342   24.5385   26.4216 N   0  0  0  0  0  0  0  0  0  0  0  0
    6.2663   25.5657   24.9839 C   0  0  0  0  0  0  0  0  0  0  0  0
    6.4344   25.4410   22.5865 C   0  0  0  0  0  0  0  0  0  0  0  0
    9.0340   23.6921   26.4996 C   0  0  0  0  0  0  0  0  0  0  0  0
    7.2135   24.9515   27.6369 C   0  0  0  0  0  0  0  0  0  0  0  0
    5.8047   25.9035   23.7204 C   0  0  0  0  0  0  0  0  0  0  0  0
    4.5092   26.7942   23.5766 C   0  0  0  0  0  0  0  0  0  0  0  0
    6.3566   23.9845   28.1807 C   0  0  0  0  0  0  0  0  0  0  0  0
    4.2659   27.4791   24.6613 N   0  0  0  0  0  0  0  0  0  0  0  0
    4.8785   27.8075   25.8825 C   0  0  0  0  0  0  0  0  0  0  0  0
    6.5296   26.2052   27.6335 O   0  0  0  0  0  0  0  0  0  0  0  0
    5.1807   24.6056   28.6449 C   0  0  0  0  0  0  0  0  0  0  0  0
    3.8416   27.9166   26.9720 C   0  0  0  0  0  0  0  0  0  0  0  0
    9.6406   23.2600   25.3997 N   0  0  0  0  0  0  0  0  0  0  0  0
    4.0376   26.9762   22.5275 O   0  0  0  0  0  0  0  0  0  0  0  0
    5.2980   25.9097   28.2252 C   0  0  0  0  0  0  0  0  0  0  0  0
    4.1719   27.1971   27.9902 C   0  0  0  0  0  0  0  0  0  0  0  0
    9.7662   23.0492   23.1639 O   0  0  0  0  0  0  0  0  0  0  0  0
    9.5973   23.6778   27.5826 O   0  0  0  0  0  0  0  0  0  0  0  0
  1  2  2  0
  2  3  1  0
  2  4  1  0
  4  5  1  0
  4  6  2  0
  1  7  1  0
  5  8  1  0
  5  9  1  0
  6 10  1  0
  7 10  2  0
 10 11  1  0
  9 12  1  0
 11 13  1  0
 13 14  1  0
  9 15  1  0
 12 16  1  0
 14 17  1  0
  3 18  1  0
  8 18  1  0
 11 19  2  0
 15 20  1  0
 16 20  2  0
 17 21  2  0
 20 21  1  0
  3 22  2  0
  8 23  2  0
M  END
>  <ID>  (1) 
conformer_0

$$$$
