
     RDKit          3D

 26 29  0  0  0  0  0  0  0  0999 V2000
    8.2176   23.7420   23.4376 C   0  0  0  0  0  0  0  0  0  0  0  0
    8.5629   23.8962   24.5828 N   0  0  0  0  0  0  0  0  0  0  0  0
    7.9007   24.8098   25.4447 C   0  0  0  0  0  0  0  0  0  0  0  0
    8.1432   24.9682   26.8057 N   0  0  0  0  0  0  0  0  0  0  0  0
    9.1176   24.2610   27.4192 C   0  0  0  0  0  0  0  0  0  0  0  0
    6.8818   25.6022   24.8747 C   0  0  0  0  0  0  0  0  0  0  0  0
    7.0668   25.7125   27.3578 C   0  0  0  0  0  0  0  0  0  0  0  0
    6.1909   26.4819   25.7308 C   0  0  0  0  0  0  0  0  0  0  0  0
    5.1592   27.3952   25.0253 C   0  0  0  0  0  0  0  0  0  0  0  0
    8.8785   23.0635   28.0274 C   0  0  0  0  0  0  0  0  0  0  0  0
    6.5615   25.2877   23.5147 C   0  0  0  0  0  0  0  0  0  0  0  0
    4.3130   28.0862   25.8424 C   0  0  0  0  0  0  0  0  0  0  0  0
    4.8458   27.2217   23.7347 C   0  0  0  0  0  0  0  0  0  0  0  0
    3.2180   28.5394   25.2951 O   0  0  0  0  0  0  0  0  0  0  0  0
    9.8540   22.3480   28.6790 C   0  0  0  0  0  0  0  0  0  0  0  0
    6.1093   26.4281   26.9980 N   0  0  0  0  0  0  0  0  0  0  0  0
    5.5864   26.1858   22.9618 N   0  0  0  0  0  0  0  0  0  0  0  0
    9.0121   22.8191   22.5951 C   0  0  0  0  0  0  0  0  0  0  0  0
    7.6689   23.0245   28.9871 O   0  0  0  0  0  0  0  0  0  0  0  0
    5.3271   27.2925   27.7720 C   0  0  0  0  0  0  0  0  0  0  0  0
    7.2358   25.4243   28.8951 O   0  0  0  0  0  0  0  0  0  0  0  0
    5.4296   27.1878   29.1683 O   0  0  0  0  0  0  0  0  0  0  0  0
    5.2312   26.1311   21.5971 C   0  0  0  0  0  0  0  0  0  0  0  0
    4.1806   27.8512   27.2936 C   0  0  0  0  0  0  0  0  0  0  0  0
   11.1560   22.7894   28.2154 O   0  0  0  0  0  0  0  0  0  0  0  0
    7.2441   24.5138   22.7110 N   0  0  0  0  0  0  0  0  0  0  0  0
  1  2  2  0
  2  3  1  0
  3  4  1  0
  4  5  1  0
  3  6  2  0
  4  7  1  0
  6  8  1  0
  8  9  1  0
  5 10  1  0
  6 11  1  0
  9 12  1  0
  9 13  2  0
 12 14  2  0
 10 15  1  0
  7 16  1  0
  8 16  1  0
 11 17  1  0
 13 17  1  0
  1 18  1  0
 10 19  1  0
 16 20  1  0
  7 21  2  0
 20 22  1  0
 17 23  1  0
 12 24  1  0
 20 24  2  0
 15 25  1  0
  1 26  1  0
 11 26  2  0
M  END
>  <ID>  (1) 
conformer_0

$$$$
