
     RDKit          3D

 29 35  0  0  0  0  0  0  0  0999 V2000
    4.0491   25.0424   30.7429 C   0  0  0  0  0  0  0  0  0  0  0  0
    4.9235   25.1423   29.7858 C   0  0  0  0  0  0  0  0  0  0  0  0
    4.8054   26.0955   28.7718 N   0  0  0  0  0  0  0  0  0  0  0  0
    3.8637   27.1136   28.7981 C   0  0  0  0  0  0  0  0  0  0  0  0
    5.6248   26.0299   27.6110 C   0  0  0  0  0  0  0  0  0  0  0  0
    5.1291   26.7109   26.4651 C   0  0  0  0  0  0  0  0  0  0  0  0
    6.6214   25.0834   27.5128 C   0  0  0  0  0  0  0  0  0  0  0  0
    6.9774   24.2403   28.5897 C   0  0  0  0  0  0  0  0  0  0  0  0
    4.1417   27.7668   26.5404 C   0  0  0  0  0  0  0  0  0  0  0  0
    5.7818   26.5349   25.1758 C   0  0  0  0  0  0  0  0  0  0  0  0
    3.4963   27.9434   27.7681 C   0  0  0  0  0  0  0  0  0  0  0  0
    7.8193   25.7242   27.0662 C   0  0  0  0  0  0  0  0  0  0  0  0
    4.3919   24.2053   31.8973 C   0  0  0  0  0  0  0  0  0  0  0  0
    5.6457   23.7908   32.0176 C   0  0  0  0  0  0  0  0  0  0  0  0
    5.9650   23.0867   33.2557 C   0  0  0  0  0  0  0  0  0  0  0  0
    6.8961   26.0122   25.0749 N   0  0  0  0  0  0  0  0  0  0  0  0
    7.2603   25.5990   23.7794 C   0  0  0  0  0  0  0  0  0  0  0  0
    8.9780   25.2211   27.7903 O   0  0  0  0  0  0  0  0  0  0  0  0
    6.2207   25.6113   22.8300 C   0  0  0  0  0  0  0  0  0  0  0  0
    3.7814   28.2630   25.3777 N   0  0  0  0  0  0  0  0  0  0  0  0
    5.0122   27.1903   24.2079 C   0  0  0  0  0  0  0  0  0  0  0  0
    6.5088   23.9499   31.0625 C   0  0  0  0  0  0  0  0  0  0  0  0
    7.9086   24.1746   23.7793 C   0  0  0  0  0  0  0  0  0  0  0  0
    6.1727   24.4983   29.8655 C   0  0  0  0  0  0  0  0  0  0  0  0
    4.0776   27.9814   24.2590 C   0  0  0  0  0  0  0  0  0  0  0  0
    5.4446   26.8301   22.8180 C   0  0  0  0  0  0  0  0  0  0  0  0
    8.5618   23.7342   22.6436 O   0  0  0  0  0  0  0  0  0  0  0  0
    8.1152   25.5657   25.6072 C   0  0  0  0  0  0  0  0  0  0  0  0
    8.7156   24.3077   25.0376 C   0  0  0  0  0  0  0  0  0  0  0  0
  1  2  1  0
  2  3  1  0
  3  4  1  0
  3  5  1  0
  5  6  2  0
  5  7  1  0
  7  8  1  0
  6  9  1  0
  6 10  1  0
  4 11  2  0
  9 11  1  0
  7 12  1  0
  1 13  2  0
 13 14  1  0
 14 15  1  0
 10 16  1  0
 16 17  1  0
 12 18  1  0
 17 19  1  0
  9 20  2  0
 10 21  2  0
 14 22  2  0
 17 23  1  0
  2 24  2  0
  8 24  1  0
 22 24  1  0
 20 25  1  0
 21 25  1  0
 19 26  1  0
 21 26  1  0
 23 27  1  0
 12 28  1  0
 16 28  1  0
 23 29  1  0
 28 29  1  0
M  END
>  <ID>  (1) 
conformer_0

$$$$
