
     RDKit          3D

 23 27  0  0  0  0  0  0  0  0999 V2000
    3.6174   27.8348   23.8935 N   0  0  0  0  0  0  0  0  0  0  0  0
    4.5959   27.0607   23.5468 C   0  0  0  0  0  0  0  0  0  0  0  0
    5.4732   26.5649   24.4382 C   0  0  0  0  0  0  0  0  0  0  0  0
    6.5501   25.6780   23.9138 C   0  0  0  0  0  0  0  0  0  0  0  0
    5.4045   26.8122   25.7362 C   0  0  0  0  0  0  0  0  0  0  0  0
    7.5951   25.1762   24.7265 C   0  0  0  0  0  0  0  0  0  0  0  0
    6.1768   26.1921   26.7739 N   0  0  0  0  0  0  0  0  0  0  0  0
    4.7193   26.6153   22.1887 N   0  0  0  0  0  0  0  0  0  0  0  0
    7.2362   25.3140   26.1906 C   0  0  0  0  0  0  0  0  0  0  0  0
    6.4628   25.6297   22.5073 C   0  0  0  0  0  0  0  0  0  0  0  0
    7.6426   24.8386   21.9340 C   0  0  0  0  0  0  0  0  0  0  0  0
    8.8008   24.6326   24.4626 C   0  0  0  0  0  0  0  0  0  0  0  0
    4.3146   27.5374   26.2277 C   0  0  0  0  0  0  0  0  0  0  0  0
    6.3786   26.5947   27.9477 C   0  0  0  0  0  0  0  0  0  0  0  0
    5.8597   25.5815   28.8777 C   0  0  0  0  0  0  0  0  0  0  0  0
    6.6439   24.7053   29.4774 C   0  0  0  0  0  0  0  0  0  0  0  0
    6.1405   23.8618   30.5181 N   0  0  0  0  0  0  0  0  0  0  0  0
    3.4748   27.9961   25.2684 C   0  0  0  0  0  0  0  0  0  0  0  0
    7.7259   24.3352   28.7722 C   0  0  0  0  0  0  0  0  0  0  0  0
    7.8872   24.3837   27.1705 C   0  0  0  0  0  0  0  0  0  0  0  0
    7.0342   23.7679   31.6296 O   0  0  0  0  0  0  0  0  0  0  0  0
    5.5585   25.8540   21.8313 C   0  0  0  0  0  0  0  0  0  0  0  0
    8.5795   24.1301   22.7084 C   0  0  0  0  0  0  0  0  0  0  0  0
  1  2  1  0
  2  3  2  0
  3  4  1  0
  3  5  1  0
  4  6  1  0
  5  7  1  0
  2  8  1  0
  6  9  2  0
  7  9  1  0
  4 10  1  0
 10 11  1  0
  6 12  1  0
  5 13  2  0
  7 14  1  0
 14 15  1  0
 15 16  2  0
 16 17  1  0
  1 18  2  0
 13 18  1  0
 16 19  1  0
  9 20  1  0
 19 20  1  0
 17 21  1  0
  8 22  1  0
 10 22  2  0
 11 23  2  0
 12 23  1  0
M  END
>  <ID>  (1) 
conformer_0

$$$$
