
     RDKit          3D

 24 27  0  0  0  0  0  0  0  0999 V2000
    8.2176   23.7420   23.4376 C   0  0  0  0  0  0  0  0  0  0  0  0
    8.5629   23.8962   24.5828 N   0  0  0  0  0  0  0  0  0  0  0  0
    7.9007   24.8098   25.4447 C   0  0  0  0  0  0  0  0  0  0  0  0
    8.1432   24.9682   26.8057 N   0  0  0  0  0  0  0  0  0  0  0  0
    9.1176   24.2610   27.4192 C   0  0  0  0  0  0  0  0  0  0  0  0
    6.8818   25.6022   24.8747 C   0  0  0  0  0  0  0  0  0  0  0  0
    7.0668   25.7125   27.3578 C   0  0  0  0  0  0  0  0  0  0  0  0
    6.1909   26.4819   25.7308 C   0  0  0  0  0  0  0  0  0  0  0  0
    5.1592   27.3952   25.0253 C   0  0  0  0  0  0  0  0  0  0  0  0
    7.3207   24.5775   22.7506 C   0  0  0  0  0  0  0  0  0  0  0  0
    4.3758   28.1730   25.8205 C   0  0  0  0  0  0  0  0  0  0  0  0
    4.9459   27.2386   23.6257 C   0  0  0  0  0  0  0  0  0  0  0  0
    7.0056   24.3316   21.3890 F   0  0  0  0  0  0  0  0  0  0  0  0
    8.8296   23.6810   28.6067 C   0  0  0  0  0  0  0  0  0  0  0  0
    8.8977   22.2896   28.6638 C   0  0  0  0  0  0  0  0  0  0  0  0
    6.1932   26.4165   26.9711 C   0  0  0  0  0  0  0  0  0  0  0  0
    4.4613   28.3125   27.2692 C   0  0  0  0  0  0  0  0  0  0  0  0
    8.1780   24.3764   29.5780 O   0  0  0  0  0  0  0  0  0  0  0  0
    5.3299   27.3077   27.6995 C   0  0  0  0  0  0  0  0  0  0  0  0
    3.8905   27.2567   23.0298 O   0  0  0  0  0  0  0  0  0  0  0  0
    5.8871   26.4345   22.8677 N   0  0  0  0  0  0  0  0  0  0  0  0
    6.6853   25.5234   23.4887 C   0  0  0  0  0  0  0  0  0  0  0  0
    8.3219   21.6600   29.7986 O   0  0  0  0  0  0  0  0  0  0  0  0
    9.0950   22.7170   22.5961 C   0  0  0  0  0  0  0  0  0  0  0  0
  1  2  2  0
  2  3  1  0
  3  4  1  0
  4  5  1  0
  3  6  2  0
  4  7  1  0
  6  8  1  0
  8  9  1  0
  1 10  1  0
  9 11  2  0
  9 12  1  0
 10 13  1  0
  5 14  1  0
 14 15  1  0
  7 16  1  0
  8 16  1  0
 11 17  1  0
 14 18  2  0
 16 19  2  0
 17 19  2  0
 12 20  2  0
 12 21  1  0
  6 22  1  0
 10 22  2  0
 21 22  1  0
 15 23  1  0
  1 24  1  0
M  END
>  <ID>  (1) 
conformer_0

$$$$
