
     RDKit          3D

 17 19  0  0  0  0  0  0  0  0999 V2000
    3.6304   27.3299   23.2744 N   0  0  0  0  0  0  0  0  0  0  0  0
    4.7087   26.5154   23.1606 C   0  0  0  0  0  0  0  0  0  0  0  0
    5.5194   26.3455   24.2316 C   0  0  0  0  0  0  0  0  0  0  0  0
    4.8154   27.1681   25.1856 C   0  0  0  0  0  0  0  0  0  0  0  0
    6.7375   25.6877   24.2399 C   0  0  0  0  0  0  0  0  0  0  0  0
    7.5080   25.4549   23.3121 C   0  0  0  0  0  0  0  0  0  0  0  0
    5.1617   27.3942   26.5400 C   0  0  0  0  0  0  0  0  0  0  0  0
    3.6744   27.6708   24.5507 C   0  0  0  0  0  0  0  0  0  0  0  0
    2.8630   28.4467   25.2146 N   0  0  0  0  0  0  0  0  0  0  0  0
    7.0760   24.8367   25.4190 C   0  0  0  0  0  0  0  0  0  0  0  0
    4.2137   28.1348   27.2474 C   0  0  0  0  0  0  0  0  0  0  0  0
    8.7215   24.6125   23.6927 N   0  0  0  0  0  0  0  0  0  0  0  0
    8.2901   24.2114   25.0153 N   0  0  0  0  0  0  0  0  0  0  0  0
    9.2837   23.8376   25.9585 C   0  0  0  0  0  0  0  0  0  0  0  0
    6.6862   24.9390   26.6455 O   0  0  0  0  0  0  0  0  0  0  0  0
    9.5952   24.1014   22.9820 O   0  0  0  0  0  0  0  0  0  0  0  0
    3.0799   28.6766   26.5929 C   0  0  0  0  0  0  0  0  0  0  0  0
  1  2  2  0
  2  3  1  0
  3  4  2  0
  3  5  1  0
  5  6  2  0
  4  7  1  0
  1  8  1  0
  4  8  1  0
  8  9  2  0
  5 10  1  0
  7 11  2  0
  6 12  1  0
 10 13  1  0
 12 13  1  0
 13 14  1  0
 10 15  2  0
 12 16  1  0
  9 17  1  0
 11 17  1  0
M  END
>  <ID>  (1) 
conformer_0

$$$$
