
     RDKit          3D

 24 27  0  0  0  0  0  0  0  0999 V2000
    8.2176   23.7420   23.4376 C   0  0  0  0  0  0  0  0  0  0  0  0
    8.5629   23.8962   24.5828 N   0  0  0  0  0  0  0  0  0  0  0  0
    7.9007   24.8098   25.4447 C   0  0  0  0  0  0  0  0  0  0  0  0
    8.1432   24.9682   26.8057 N   0  0  0  0  0  0  0  0  0  0  0  0
    9.1176   24.2610   27.4192 C   0  0  0  0  0  0  0  0  0  0  0  0
    6.8818   25.6022   24.8747 C   0  0  0  0  0  0  0  0  0  0  0  0
    7.0668   25.7125   27.3578 C   0  0  0  0  0  0  0  0  0  0  0  0
    6.1909   26.4819   25.7308 C   0  0  0  0  0  0  0  0  0  0  0  0
    5.1592   27.3952   25.0253 C   0  0  0  0  0  0  0  0  0  0  0  0
    7.3207   24.5775   22.7506 C   0  0  0  0  0  0  0  0  0  0  0  0
    4.3758   28.1730   25.8205 C   0  0  0  0  0  0  0  0  0  0  0  0
    4.9459   27.2386   23.6257 C   0  0  0  0  0  0  0  0  0  0  0  0
    6.6233   25.4068   23.4923 C   0  0  0  0  0  0  0  0  0  0  0  0
    9.0284   22.7969   22.6325 N   0  0  0  0  0  0  0  0  0  0  0  0
    5.6202   26.2969   22.9029 C   0  0  0  0  0  0  0  0  0  0  0  0
    6.3643   26.6484   26.9548 N   0  0  0  0  0  0  0  0  0  0  0  0
    5.2837   26.0885   21.6846 O   0  0  0  0  0  0  0  0  0  0  0  0
    4.3196   28.3365   27.1683 C   0  0  0  0  0  0  0  0  0  0  0  0
   10.3273   24.9160   27.6079 C   0  0  0  0  0  0  0  0  0  0  0  0
    3.5671   28.9357   24.9338 N   0  0  0  0  0  0  0  0  0  0  0  0
    3.8463   28.2216   23.6630 N   0  0  0  0  0  0  0  0  0  0  0  0
    7.1524   25.4135   28.8629 O   0  0  0  0  0  0  0  0  0  0  0  0
    9.4950   23.0242   26.8737 O   0  0  0  0  0  0  0  0  0  0  0  0
   11.4172   24.2168   28.1035 O   0  0  0  0  0  0  0  0  0  0  0  0
  1  2  2  0
  2  3  1  0
  3  4  1  0
  4  5  1  0
  3  6  2  0
  4  7  1  0
  6  8  1  0
  8  9  1  0
  1 10  1  0
  9 11  2  0
  9 12  1  0
  6 13  1  0
 10 13  2  0
  1 14  1  0
 12 15  1  0
 13 15  1  0
  7 16  1  0
  8 16  2  0
 15 17  2  0
 11 18  1  0
  5 19  1  0
 11 20  1  0
 12 21  1  0
 20 21  2  0
  7 22  2  0
  5 23  1  0
 19 24  1  0
M  END
>  <ID>  (1) 
conformer_0

$$$$
