
     RDKit          3D

 20 23  0  0  0  0  0  0  0  0999 V2000
    3.6174   27.8348   23.8935 N   0  0  0  0  0  0  0  0  0  0  0  0
    4.5959   27.0607   23.5468 C   0  0  0  0  0  0  0  0  0  0  0  0
    5.4732   26.5649   24.4382 N   0  0  0  0  0  0  0  0  0  0  0  0
    5.5880   26.8507   25.7319 C   0  0  0  0  0  0  0  0  0  0  0  0
    6.6201   25.9648   23.8273 C   0  0  0  0  0  0  0  0  0  0  0  0
    3.5646   28.1020   25.3918 C   0  0  0  0  0  0  0  0  0  0  0  0
    7.6186   25.2954   24.5730 C   0  0  0  0  0  0  0  0  0  0  0  0
    4.3504   27.6451   26.2835 C   0  0  0  0  0  0  0  0  0  0  0  0
    4.6746   26.6096   22.3696 N   0  0  0  0  0  0  0  0  0  0  0  0
    8.0634   25.7829   25.8105 C   0  0  0  0  0  0  0  0  0  0  0  0
    6.6660   26.4796   26.7409 C   0  0  0  0  0  0  0  0  0  0  0  0
    8.6668   24.4982   23.9716 C   0  0  0  0  0  0  0  0  0  0  0  0
    8.9465   25.2649   26.6433 C   0  0  0  0  0  0  0  0  0  0  0  0
    5.9333   25.7196   22.3336 C   0  0  0  0  0  0  0  0  0  0  0  0
    8.4676   23.9916   22.6112 O   0  0  0  0  0  0  0  0  0  0  0  0
    8.6972   22.5592   22.4887 C   0  0  0  0  0  0  0  0  0  0  0  0
    9.9105   24.4572   26.0236 C   0  0  0  0  0  0  0  0  0  0  0  0
   11.0490   24.0170   26.7099 O   0  0  0  0  0  0  0  0  0  0  0  0
   10.8285   23.0539   27.7382 C   0  0  0  0  0  0  0  0  0  0  0  0
    9.7248   24.0936   24.7013 C   0  0  0  0  0  0  0  0  0  0  0  0
  1  2  1  0
  2  3  1  0
  3  4  1  0
  3  5  1  0
  1  6  2  0
  5  7  1  0
  4  8  2  0
  6  8  1  0
  2  9  2  0
  7 10  2  0
  4 11  1  0
 10 11  1  0
  7 12  1  0
 10 13  1  0
  5 14  1  0
  9 14  1  0
 12 15  1  0
 15 16  1  0
 13 17  2  0
 17 18  1  0
 18 19  1  0
 12 20  2  0
 17 20  1  0
M  END
>  <ID>  (1) 
conformer_0

$$$$
