
     RDKit          3D

 22 25  0  0  0  0  0  0  0  0999 V2000
    4.0491   25.0424   30.7429 C   0  0  0  0  0  0  0  0  0  0  0  0
    4.9235   25.1423   29.7858 C   0  0  0  0  0  0  0  0  0  0  0  0
    4.8054   26.0955   28.7718 N   0  0  0  0  0  0  0  0  0  0  0  0
    3.8637   27.1136   28.7981 C   0  0  0  0  0  0  0  0  0  0  0  0
    5.6248   26.0299   27.6110 C   0  0  0  0  0  0  0  0  0  0  0  0
    5.1291   26.7109   26.4651 C   0  0  0  0  0  0  0  0  0  0  0  0
    6.6214   25.0834   27.5128 C   0  0  0  0  0  0  0  0  0  0  0  0
    6.9774   24.2403   28.5897 C   0  0  0  0  0  0  0  0  0  0  0  0
    3.5939   27.9554   27.7342 C   0  0  0  0  0  0  0  0  0  0  0  0
    4.2224   27.7471   26.5597 C   0  0  0  0  0  0  0  0  0  0  0  0
    5.7606   26.5126   25.1699 C   0  0  0  0  0  0  0  0  0  0  0  0
    4.6773   24.9097   32.0832 C   0  0  0  0  0  0  0  0  0  0  0  0
    8.0129   23.4333   28.5654 N   0  0  0  0  0  0  0  0  0  0  0  0
    5.1976   27.0979   24.1074 C   0  0  0  0  0  0  0  0  0  0  0  0
    5.6824   26.7581   22.7802 N   0  0  0  0  0  0  0  0  0  0  0  0
    4.0325   28.0037   24.2604 C   0  0  0  0  0  0  0  0  0  0  0  0
    5.0735   25.7866   22.0534 C   0  0  0  0  0  0  0  0  0  0  0  0
    6.0508   24.2893   29.7048 N   0  0  0  0  0  0  0  0  0  0  0  0
    7.7553   24.7342   26.6468 C   0  0  0  0  0  0  0  0  0  0  0  0
    3.6226   28.3686   25.4905 N   0  0  0  0  0  0  0  0  0  0  0  0
    8.7149   23.6803   27.4092 C   0  0  0  0  0  0  0  0  0  0  0  0
    9.7260   23.1742   27.0451 O   0  0  0  0  0  0  0  0  0  0  0  0
  1  2  1  0
  2  3  1  0
  3  4  1  0
  3  5  1  0
  5  6  2  0
  5  7  1  0
  7  8  1  0
  4  9  2  0
  6 10  1  0
  9 10  1  0
  6 11  1  0
  1 12  1  0
  8 13  2  0
 11 14  2  0
 14 15  1  0
 14 16  1  0
 15 17  1  0
  2 18  2  0
  8 18  1  0
  7 19  1  0
 10 20  2  0
 16 20  1  0
 13 21  1  0
 19 21  1  0
 21 22  2  0
M  END
>  <ID>  (1) 
conformer_0

$$$$
