
     RDKit          3D

 29 34  0  0  0  0  0  0  0  0999 V2000
    8.2176   23.7420   23.4376 C   0  0  0  0  0  0  0  0  0  0  0  0
    8.5629   23.8962   24.5828 N   0  0  0  0  0  0  0  0  0  0  0  0
    7.9007   24.8098   25.4447 C   0  0  0  0  0  0  0  0  0  0  0  0
    8.1432   24.9682   26.8057 N   0  0  0  0  0  0  0  0  0  0  0  0
    9.1176   24.2610   27.4192 C   0  0  0  0  0  0  0  0  0  0  0  0
    6.8818   25.6022   24.8747 C   0  0  0  0  0  0  0  0  0  0  0  0
    7.0668   25.7125   27.3578 C   0  0  0  0  0  0  0  0  0  0  0  0
    6.1909   26.4819   25.7308 C   0  0  0  0  0  0  0  0  0  0  0  0
    5.1592   27.3952   25.0253 C   0  0  0  0  0  0  0  0  0  0  0  0
    8.8785   23.0635   28.0274 C   0  0  0  0  0  0  0  0  0  0  0  0
    6.5615   25.2877   23.5147 C   0  0  0  0  0  0  0  0  0  0  0  0
    4.3130   28.0862   25.8424 C   0  0  0  0  0  0  0  0  0  0  0  0
    4.8458   27.2217   23.7347 C   0  0  0  0  0  0  0  0  0  0  0  0
    3.2180   28.5394   25.2951 O   0  0  0  0  0  0  0  0  0  0  0  0
    9.8540   22.3480   28.6790 C   0  0  0  0  0  0  0  0  0  0  0  0
    6.3185   26.6203   26.9402 C   0  0  0  0  0  0  0  0  0  0  0  0
    9.6284   21.3677   29.5337 C   0  0  0  0  0  0  0  0  0  0  0  0
    5.5581   26.1713   22.9645 C   0  0  0  0  0  0  0  0  0  0  0  0
    6.5812   25.0620   28.6469 C   0  0  0  0  0  0  0  0  0  0  0  0
   11.0941   22.6882   28.3021 C   0  0  0  0  0  0  0  0  0  0  0  0
    5.3820   27.4593   27.6390 C   0  0  0  0  0  0  0  0  0  0  0  0
    5.7751   25.9303   29.4714 C   0  0  0  0  0  0  0  0  0  0  0  0
    4.6990   28.4003   27.0549 O   0  0  0  0  0  0  0  0  0  0  0  0
    7.1412   24.5287   22.8806 N   0  0  0  0  0  0  0  0  0  0  0  0
    8.3531   21.0421   30.0194 O   0  0  0  0  0  0  0  0  0  0  0  0
   11.4140   23.8114   27.7885 C   0  0  0  0  0  0  0  0  0  0  0  0
   10.4105   24.7109   27.0664 C   0  0  0  0  0  0  0  0  0  0  0  0
    8.9424   22.6952   22.5506 C   0  0  0  0  0  0  0  0  0  0  0  0
    5.1303   27.0795   28.9559 C   0  0  0  0  0  0  0  0  0  0  0  0
  1  2  2  0
  2  3  1  0
  3  4  1  0
  4  5  1  0
  3  6  2  0
  4  7  1  0
  6  8  1  0
  8  9  1  0
  5 10  1  0
  6 11  1  0
  9 12  1  0
  9 13  2  0
 12 14  2  0
 10 15  1  0
  7 16  1  0
  8 16  1  0
 15 17  1  0
 11 18  2  0
 13 18  1  0
  7 19  2  0
 15 20  2  0
 16 21  2  0
 19 22  1  0
 12 23  1  0
 21 23  1  0
  1 24  1  0
 11 24  1  0
 17 25  1  0
 20 26  1  0
  5 27  1  0
 26 27  2  0
  1 28  1  0
 21 29  1  0
 22 29  2  0
M  END
>  <ID>  (1) 
conformer_0

$$$$
