
     RDKit          3D

 28 34  0  0  0  0  0  0  0  0999 V2000
    4.0491   25.0424   30.7429 C   0  0  0  0  0  0  0  0  0  0  0  0
    4.9235   25.1423   29.7858 C   0  0  0  0  0  0  0  0  0  0  0  0
    4.8054   26.0955   28.7718 N   0  0  0  0  0  0  0  0  0  0  0  0
    3.8637   27.1136   28.7981 C   0  0  0  0  0  0  0  0  0  0  0  0
    5.6248   26.0299   27.6110 C   0  0  0  0  0  0  0  0  0  0  0  0
    5.1291   26.7109   26.4651 C   0  0  0  0  0  0  0  0  0  0  0  0
    6.6214   25.0834   27.5128 C   0  0  0  0  0  0  0  0  0  0  0  0
    6.9774   24.2403   28.5897 C   0  0  0  0  0  0  0  0  0  0  0  0
    4.1417   27.7668   26.5404 C   0  0  0  0  0  0  0  0  0  0  0  0
    5.7818   26.5349   25.1758 C   0  0  0  0  0  0  0  0  0  0  0  0
    3.4963   27.9434   27.7681 C   0  0  0  0  0  0  0  0  0  0  0  0
    7.8193   25.7242   27.0662 C   0  0  0  0  0  0  0  0  0  0  0  0
    4.3919   24.2053   31.8973 C   0  0  0  0  0  0  0  0  0  0  0  0
    5.6457   23.7908   32.0176 C   0  0  0  0  0  0  0  0  0  0  0  0
    5.9650   23.0867   33.2557 C   0  0  0  0  0  0  0  0  0  0  0  0
    6.8961   26.0122   25.0749 N   0  0  0  0  0  0  0  0  0  0  0  0
    7.2603   25.5990   23.7794 C   0  0  0  0  0  0  0  0  0  0  0  0
    8.9780   25.2211   27.7903 O   0  0  0  0  0  0  0  0  0  0  0  0
    5.1636   26.8751   24.0469 N   0  0  0  0  0  0  0  0  0  0  0  0
    6.1908   24.5249   29.7346 C   0  0  0  0  0  0  0  0  0  0  0  0
    6.6455   25.8779   22.6734 C   0  0  0  0  0  0  0  0  0  0  0  0
    8.4291   24.4653   28.8048 C   0  0  0  0  0  0  0  0  0  0  0  0
    5.5017   26.4900   22.9049 C   0  0  0  0  0  0  0  0  0  0  0  0
    8.6088   24.8440   23.7094 C   0  0  0  0  0  0  0  0  0  0  0  0
    4.5063   26.6897   21.8554 O   0  0  0  0  0  0  0  0  0  0  0  0
    6.4771   23.8053   30.9321 C   0  0  0  0  0  0  0  0  0  0  0  0
    8.0293   25.7312   25.6762 C   0  0  0  0  0  0  0  0  0  0  0  0
    8.8470   24.7988   25.1395 C   0  0  0  0  0  0  0  0  0  0  0  0
  1  2  1  0
  2  3  1  0
  3  4  1  0
  3  5  1  0
  5  6  2  0
  5  7  1  0
  7  8  1  0
  6  9  1  0
  6 10  1  0
  4 11  2  0
  9 11  1  0
  7 12  1  0
  1 13  2  0
 13 14  1  0
 14 15  1  0
 10 16  1  0
 16 17  1  0
 12 18  1  0
 10 19  2  0
  2 20  2  0
  8 20  1  0
 17 21  2  0
  8 22  1  0
 18 22  1  0
 19 23  1  0
 21 23  1  0
 17 24  1  0
 23 25  2  0
 14 26  2  0
 20 26  1  0
 12 27  1  0
 16 27  1  0
 24 28  1  0
 27 28  1  0
M  END
>  <ID>  (1) 
conformer_0

$$$$
