
     RDKit          3D

 26 29  0  0  0  0  0  0  0  0999 V2000
    8.2176   23.7420   23.4376 C   0  0  0  0  0  0  0  0  0  0  0  0
    8.5629   23.8962   24.5828 N   0  0  0  0  0  0  0  0  0  0  0  0
    7.9007   24.8098   25.4447 C   0  0  0  0  0  0  0  0  0  0  0  0
    8.1432   24.9682   26.8057 N   0  0  0  0  0  0  0  0  0  0  0  0
    9.1176   24.2610   27.4192 C   0  0  0  0  0  0  0  0  0  0  0  0
    6.8818   25.6022   24.8747 C   0  0  0  0  0  0  0  0  0  0  0  0
    7.0668   25.7125   27.3578 C   0  0  0  0  0  0  0  0  0  0  0  0
    6.1909   26.4819   25.7308 C   0  0  0  0  0  0  0  0  0  0  0  0
    5.1592   27.3952   25.0253 C   0  0  0  0  0  0  0  0  0  0  0  0
    8.8785   23.0635   28.0274 C   0  0  0  0  0  0  0  0  0  0  0  0
    6.5615   25.2877   23.5147 C   0  0  0  0  0  0  0  0  0  0  0  0
    4.3130   28.0862   25.8424 C   0  0  0  0  0  0  0  0  0  0  0  0
    4.8458   27.2217   23.7347 C   0  0  0  0  0  0  0  0  0  0  0  0
    3.2180   28.5394   25.2951 O   0  0  0  0  0  0  0  0  0  0  0  0
    9.8540   22.3480   28.6790 C   0  0  0  0  0  0  0  0  0  0  0  0
    7.7551   23.1353   29.1267 N   0  0  0  0  0  0  0  0  0  0  0  0
    6.2982   26.6009   26.9652 N   0  0  0  0  0  0  0  0  0  0  0  0
    6.8712   25.3595   28.8428 O   0  0  0  0  0  0  0  0  0  0  0  0
    9.0025   22.8072   22.6105 C   0  0  0  0  0  0  0  0  0  0  0  0
    5.5143   26.2530   22.9241 C   0  0  0  0  0  0  0  0  0  0  0  0
    7.2533   24.5191   22.7168 C   0  0  0  0  0  0  0  0  0  0  0  0
    5.6068   27.5558   27.7883 C   0  0  0  0  0  0  0  0  0  0  0  0
    5.1294   26.1565   21.7533 O   0  0  0  0  0  0  0  0  0  0  0  0
   10.1608   22.4083   22.9764 O   0  0  0  0  0  0  0  0  0  0  0  0
    4.7645   28.4138   27.0961 N   0  0  0  0  0  0  0  0  0  0  0  0
    8.4261   22.2229   21.6555 O   0  0  0  0  0  0  0  0  0  0  0  0
  1  2  2  0
  2  3  1  0
  3  4  1  0
  4  5  1  0
  3  6  2  0
  4  7  1  0
  6  8  1  0
  8  9  1  0
  5 10  1  0
  6 11  1  0
  9 12  1  0
  9 13  2  0
 12 14  2  0
 10 15  1  0
 10 16  1  0
  7 17  1  0
  8 17  1  0
  7 18  2  0
  1 19  1  0
 11 20  1  0
 13 20  1  0
  1 21  1  0
 11 21  2  0
 17 22  1  0
 20 23  2  0
 19 24  2  0
 12 25  1  0
 22 25  2  0
 19 26  1  0
M  END
>  <ID>  (1) 
conformer_0

$$$$
