
     RDKit          3D

 16 18  0  0  0  0  0  0  0  0999 V2000
    3.6304   27.3299   23.2744 N   0  0  0  0  0  0  0  0  0  0  0  0
    4.7087   26.5154   23.1606 C   0  0  0  0  0  0  0  0  0  0  0  0
    5.5194   26.3455   24.2316 C   0  0  0  0  0  0  0  0  0  0  0  0
    4.8154   27.1681   25.1856 C   0  0  0  0  0  0  0  0  0  0  0  0
    6.7375   25.6877   24.2399 C   0  0  0  0  0  0  0  0  0  0  0  0
    7.5080   25.4549   23.3121 C   0  0  0  0  0  0  0  0  0  0  0  0
    5.1617   27.3942   26.5400 C   0  0  0  0  0  0  0  0  0  0  0  0
    8.6940   24.6924   23.4953 C   0  0  0  0  0  0  0  0  0  0  0  0
    8.7637   23.8879   24.5589 C   0  0  0  0  0  0  0  0  0  0  0  0
    7.8734   24.0824   25.6383 C   0  0  0  0  0  0  0  0  0  0  0  0
    9.9260   22.9270   24.6879 O   0  0  0  0  0  0  0  0  0  0  0  0
    6.3215   26.9370   27.0535 C   0  0  0  0  0  0  0  0  0  0  0  0
    3.5867   27.7169   24.6367 N   0  0  0  0  0  0  0  0  0  0  0  0
    6.9150   24.9489   25.5053 C   0  0  0  0  0  0  0  0  0  0  0  0
    4.9362   25.9600   21.8384 N   0  0  0  0  0  0  0  0  0  0  0  0
    6.1830   25.3776   26.7001 C   0  0  0  0  0  0  0  0  0  0  0  0
  1  2  2  0
  2  3  1  0
  3  4  2  0
  3  5  1  0
  5  6  2  0
  4  7  1  0
  6  8  1  0
  8  9  2  0
  9 10  1  0
  9 11  1  0
  7 12  2  0
  1 13  1  0
  4 13  1  0
  5 14  1  0
 10 14  2  0
  2 15  1  0
 12 16  1  0
 14 16  1  0
M  END
>  <ID>  (1) 
conformer_0

$$$$
