
     RDKit          3D

 13 14  0  0  0  0  0  0  0  0999 V2000
    3.7834   26.9738   22.6930 N   0  0  0  0  0  0  0  0  0  0  0  0
    4.6870   26.8904   23.6360 C   0  0  0  0  0  0  0  0  0  0  0  0
    4.4912   27.4978   24.8553 C   0  0  0  0  0  0  0  0  0  0  0  0
    5.8550   26.0442   23.5041 C   0  0  0  0  0  0  0  0  0  0  0  0
    6.7468   25.9779   24.6010 C   0  0  0  0  0  0  0  0  0  0  0  0
    3.3174   28.3477   25.0270 O   0  0  0  0  0  0  0  0  0  0  0  0
    8.0150   25.1738   24.4203 C   0  0  0  0  0  0  0  0  0  0  0  0
    8.0189   23.9141   24.4272 N   0  0  0  0  0  0  0  0  0  0  0  0
    9.2054   23.2146   24.6597 N   0  0  0  0  0  0  0  0  0  0  0  0
    6.3934   26.6912   25.7159 C   0  0  0  0  0  0  0  0  0  0  0  0
    9.2485   25.5219   24.6148 N   0  0  0  0  0  0  0  0  0  0  0  0
   10.0601   24.3768   24.7804 N   0  0  0  0  0  0  0  0  0  0  0  0
    5.3471   27.4109   25.9479 C   0  0  0  0  0  0  0  0  0  0  0  0
  1  2  1  0
  2  3  2  0
  2  4  1  0
  4  5  2  0
  3  6  1  0
  5  7  1  0
  7  8  1  0
  8  9  1  0
  5 10  1  0
  7 11  2  0
  9 12  2  0
 11 12  1  0
  3 13  1  0
 10 13  2  0
M  END
>  <ID>  (1) 
conformer_0

$$$$
