
     RDKit          3D

 25 29  0  0  0  0  0  0  0  0999 V2000
    8.2176   23.7420   23.4376 C   0  0  0  0  0  0  0  0  0  0  0  0
    8.5629   23.8962   24.5828 N   0  0  0  0  0  0  0  0  0  0  0  0
    7.9007   24.8098   25.4447 C   0  0  0  0  0  0  0  0  0  0  0  0
    8.1432   24.9682   26.8057 N   0  0  0  0  0  0  0  0  0  0  0  0
    9.1176   24.2610   27.4192 C   0  0  0  0  0  0  0  0  0  0  0  0
    6.8818   25.6022   24.8747 C   0  0  0  0  0  0  0  0  0  0  0  0
    7.0668   25.7125   27.3578 C   0  0  0  0  0  0  0  0  0  0  0  0
    6.1909   26.4819   25.7308 C   0  0  0  0  0  0  0  0  0  0  0  0
    5.1592   27.3952   25.0253 C   0  0  0  0  0  0  0  0  0  0  0  0
    8.8785   23.0635   28.0274 C   0  0  0  0  0  0  0  0  0  0  0  0
    6.5615   25.2877   23.5147 C   0  0  0  0  0  0  0  0  0  0  0  0
    4.3130   28.0862   25.8424 C   0  0  0  0  0  0  0  0  0  0  0  0
    4.8458   27.2217   23.7347 C   0  0  0  0  0  0  0  0  0  0  0  0
    3.2180   28.5394   25.2951 O   0  0  0  0  0  0  0  0  0  0  0  0
    9.8540   22.3480   28.6790 C   0  0  0  0  0  0  0  0  0  0  0  0
   11.0651   22.7696   28.1731 C   0  0  0  0  0  0  0  0  0  0  0  0
    4.4174   28.0877   27.2241 N   0  0  0  0  0  0  0  0  0  0  0  0
    5.5669   26.1420   22.9789 C   0  0  0  0  0  0  0  0  0  0  0  0
   10.3301   23.8380   26.7075 C   0  0  0  0  0  0  0  0  0  0  0  0
    8.9887   22.8235   22.6068 C   0  0  0  0  0  0  0  0  0  0  0  0
    5.1814   26.0691   21.4327 C   0  0  0  0  0  0  0  0  0  0  0  0
   12.1054   22.3836   27.7744 O   0  0  0  0  0  0  0  0  0  0  0  0
    6.3268   26.5234   26.9660 C   0  0  0  0  0  0  0  0  0  0  0  0
    7.2896   24.4784   22.7585 N   0  0  0  0  0  0  0  0  0  0  0  0
    5.5187   27.5356   27.7560 C   0  0  0  0  0  0  0  0  0  0  0  0
  1  2  2  0
  2  3  1  0
  3  4  1  0
  4  5  1  0
  3  6  2  0
  4  7  1  0
  6  8  1  0
  8  9  1  0
  5 10  1  0
  6 11  1  0
  9 12  1  0
  9 13  2  0
 12 14  2  0
 10 15  1  0
 15 16  1  0
 12 17  1  0
 11 18  2  0
 13 18  1  0
  5 19  1  0
 16 19  1  0
  1 20  1  0
 18 21  1  0
 16 22  2  0
  7 23  1  0
  8 23  2  0
  1 24  1  0
 11 24  1  0
 17 25  2  0
 23 25  1  0
M  END
>  <ID>  (1) 
conformer_0

$$$$
