
     RDKit          3D

 18 21  0  0  0  0  0  0  0  0999 V2000
    3.6304   27.3299   23.2744 N   0  0  0  0  0  0  0  0  0  0  0  0
    4.7087   26.5154   23.1606 C   0  0  0  0  0  0  0  0  0  0  0  0
    5.5194   26.3455   24.2316 C   0  0  0  0  0  0  0  0  0  0  0  0
    4.8154   27.1681   25.1856 C   0  0  0  0  0  0  0  0  0  0  0  0
    6.7375   25.6877   24.2399 C   0  0  0  0  0  0  0  0  0  0  0  0
    7.5080   25.4549   23.3121 C   0  0  0  0  0  0  0  0  0  0  0  0
    5.1617   27.3942   26.5400 C   0  0  0  0  0  0  0  0  0  0  0  0
    3.6744   27.6708   24.5507 C   0  0  0  0  0  0  0  0  0  0  0  0
    2.8630   28.4467   25.2146 N   0  0  0  0  0  0  0  0  0  0  0  0
    7.1650   25.0748   25.5176 C   0  0  0  0  0  0  0  0  0  0  0  0
    3.2141   28.6609   26.6910 C   0  0  0  0  0  0  0  0  0  0  0  0
    6.4253   25.0794   26.6981 N   0  0  0  0  0  0  0  0  0  0  0  0
    8.4268   24.5994   25.5844 C   0  0  0  0  0  0  0  0  0  0  0  0
    9.2432   24.3658   24.5313 C   0  0  0  0  0  0  0  0  0  0  0  0
    8.7944   24.9290   23.3366 C   0  0  0  0  0  0  0  0  0  0  0  0
    6.1752   26.6692   27.1881 C   0  0  0  0  0  0  0  0  0  0  0  0
    4.2307   28.1281   27.2533 C   0  0  0  0  0  0  0  0  0  0  0  0
    4.3673   28.2328   28.4804 O   0  0  0  0  0  0  0  0  0  0  0  0
  1  2  2  0
  2  3  1  0
  3  4  2  0
  3  5  1  0
  5  6  2  0
  4  7  1  0
  1  8  1  0
  4  8  1  0
  8  9  2  0
  5 10  1  0
  9 11  1  0
 10 12  1  0
 10 13  2  0
 13 14  1  0
  6 15  1  0
 14 15  2  0
  7 16  1  0
 12 16  1  0
  7 17  1  0
 11 17  1  0
 17 18  2  0
M  END
>  <ID>  (1) 
conformer_0

$$$$
