
     RDKit          3D

 20 22  0  0  0  0  0  0  0  0999 V2000
    3.6304   27.3299   23.2744 N   0  0  0  0  0  0  0  0  0  0  0  0
    4.7087   26.5154   23.1606 C   0  0  0  0  0  0  0  0  0  0  0  0
    5.5194   26.3455   24.2316 C   0  0  0  0  0  0  0  0  0  0  0  0
    4.8154   27.1681   25.1856 C   0  0  0  0  0  0  0  0  0  0  0  0
    6.7375   25.6877   24.2399 C   0  0  0  0  0  0  0  0  0  0  0  0
    5.1424   27.3746   26.5348 C   0  0  0  0  0  0  0  0  0  0  0  0
    3.5736   27.7697   24.6032 N   0  0  0  0  0  0  0  0  0  0  0  0
    4.9755   25.9431   21.8481 N   0  0  0  0  0  0  0  0  0  0  0  0
    5.2560   26.3693   27.3196 C   0  0  0  0  0  0  0  0  0  0  0  0
    5.2982   26.5095   28.7680 C   0  0  0  0  0  0  0  0  0  0  0  0
    5.2369   27.8508   29.0372 C   0  0  0  0  0  0  0  0  0  0  0  0
    6.8188   24.4168   24.1872 C   0  0  0  0  0  0  0  0  0  0  0  0
    7.9827   26.2987   23.8984 C   0  0  0  0  0  0  0  0  0  0  0  0
    5.4031   25.3427   29.6934 C   0  0  0  0  0  0  0  0  0  0  0  0
    4.9100   28.6772   27.1091 C   0  0  0  0  0  0  0  0  0  0  0  0
    9.0247   25.2439   24.0056 C   0  0  0  0  0  0  0  0  0  0  0  0
    4.4249   24.9667   30.4199 C   0  0  0  0  0  0  0  0  0  0  0  0
    4.6494   23.9048   31.4177 N   0  0  0  0  0  0  0  0  0  0  0  0
    5.0385   28.8797   28.3198 C   0  0  0  0  0  0  0  0  0  0  0  0
    8.2763   24.0788   24.2578 N   0  0  0  0  0  0  0  0  0  0  0  0
  1  2  2  0
  2  3  1  0
  3  4  2  0
  3  5  1  0
  4  6  1  0
  1  7  1  0
  4  7  1  0
  2  8  1  0
  6  9  1  0
  9 10  2  0
 10 11  1  0
  5 12  1  0
  5 13  2  0
 10 14  1  0
  6 15  2  0
 13 16  1  0
 14 17  2  3
 17 18  1  0
 11 19  2  0
 15 19  1  0
 12 20  1  0
 16 20  2  0
M  END
>  <ID>  (1) 
conformer_0

$$$$
