
     RDKit          3D

 27 32  0  0  0  0  0  0  0  0999 V2000
    4.0491   25.0424   30.7429 C   0  0  0  0  0  0  0  0  0  0  0  0
    4.9235   25.1423   29.7858 C   0  0  0  0  0  0  0  0  0  0  0  0
    4.8054   26.0955   28.7718 N   0  0  0  0  0  0  0  0  0  0  0  0
    3.8637   27.1136   28.7981 C   0  0  0  0  0  0  0  0  0  0  0  0
    5.6248   26.0299   27.6110 C   0  0  0  0  0  0  0  0  0  0  0  0
    5.1291   26.7109   26.4651 C   0  0  0  0  0  0  0  0  0  0  0  0
    6.6214   25.0834   27.5128 C   0  0  0  0  0  0  0  0  0  0  0  0
    6.9774   24.2403   28.5897 C   0  0  0  0  0  0  0  0  0  0  0  0
    4.1417   27.7668   26.5404 C   0  0  0  0  0  0  0  0  0  0  0  0
    5.7818   26.5349   25.1758 C   0  0  0  0  0  0  0  0  0  0  0  0
    3.4963   27.9434   27.7681 C   0  0  0  0  0  0  0  0  0  0  0  0
    7.8193   25.7242   27.0662 C   0  0  0  0  0  0  0  0  0  0  0  0
    4.3919   24.2053   31.8973 C   0  0  0  0  0  0  0  0  0  0  0  0
    5.6457   23.7908   32.0176 C   0  0  0  0  0  0  0  0  0  0  0  0
    5.9650   23.0867   33.2557 C   0  0  0  0  0  0  0  0  0  0  0  0
    6.8961   26.0122   25.0749 N   0  0  0  0  0  0  0  0  0  0  0  0
    7.2603   25.5990   23.7794 C   0  0  0  0  0  0  0  0  0  0  0  0
    8.9780   25.2211   27.7903 O   0  0  0  0  0  0  0  0  0  0  0  0
    6.2207   25.6113   22.8300 C   0  0  0  0  0  0  0  0  0  0  0  0
    3.7814   28.2630   25.3777 N   0  0  0  0  0  0  0  0  0  0  0  0
    5.0122   27.1903   24.2079 C   0  0  0  0  0  0  0  0  0  0  0  0
    8.0329   25.8113   25.7967 C   0  0  0  0  0  0  0  0  0  0  0  0
    5.4036   26.7822   22.8757 C   0  0  0  0  0  0  0  0  0  0  0  0
    6.0010   24.4329   29.6853 C   0  0  0  0  0  0  0  0  0  0  0  0
    8.3845   24.9674   23.4890 O   0  0  0  0  0  0  0  0  0  0  0  0
    6.4068   23.7260   30.9306 C   0  0  0  0  0  0  0  0  0  0  0  0
    4.0797   28.0107   24.3450 N   0  0  0  0  0  0  0  0  0  0  0  0
  1  2  1  0
  2  3  1  0
  3  4  1  0
  3  5  1  0
  5  6  2  0
  5  7  1  0
  7  8  1  0
  6  9  1  0
  6 10  1  0
  4 11  2  0
  9 11  1  0
  7 12  1  0
  1 13  2  0
 13 14  1  0
 14 15  1  0
 10 16  1  0
 16 17  1  0
 12 18  1  0
 17 19  1  0
  9 20  2  0
 10 21  2  0
 12 22  1  0
 16 22  1  0
 19 23  1  0
 21 23  1  0
  2 24  2  0
  8 24  1  0
 17 25  2  0
 14 26  2  0
 24 26  1  0
 20 27  1  0
 21 27  1  0
M  END
>  <ID>  (1) 
conformer_0

$$$$
