
     RDKit          3D

 29 34  0  0  0  0  0  0  0  0999 V2000
    3.6174   27.8348   23.8935 N   0  0  0  0  0  0  0  0  0  0  0  0
    4.5959   27.0607   23.5468 C   0  0  0  0  0  0  0  0  0  0  0  0
    5.4732   26.5649   24.4382 C   0  0  0  0  0  0  0  0  0  0  0  0
    6.5501   25.6780   23.9138 C   0  0  0  0  0  0  0  0  0  0  0  0
    5.4045   26.8122   25.7362 C   0  0  0  0  0  0  0  0  0  0  0  0
    7.5951   25.1762   24.7265 C   0  0  0  0  0  0  0  0  0  0  0  0
    6.1768   26.1921   26.7739 N   0  0  0  0  0  0  0  0  0  0  0  0
    4.7193   26.6153   22.1887 N   0  0  0  0  0  0  0  0  0  0  0  0
    7.2362   25.3140   26.1906 C   0  0  0  0  0  0  0  0  0  0  0  0
    6.4628   25.6297   22.5073 C   0  0  0  0  0  0  0  0  0  0  0  0
    7.6426   24.8386   21.9340 C   0  0  0  0  0  0  0  0  0  0  0  0
    8.8008   24.6326   24.4626 C   0  0  0  0  0  0  0  0  0  0  0  0
    4.3146   27.5374   26.2277 C   0  0  0  0  0  0  0  0  0  0  0  0
    6.3786   26.5947   27.9477 C   0  0  0  0  0  0  0  0  0  0  0  0
    5.8597   25.5815   28.8777 C   0  0  0  0  0  0  0  0  0  0  0  0
    6.6439   24.7053   29.4774 C   0  0  0  0  0  0  0  0  0  0  0  0
    6.1405   23.8618   30.5181 N   0  0  0  0  0  0  0  0  0  0  0  0
    7.8857   24.5586   28.9925 C   0  0  0  0  0  0  0  0  0  0  0  0
    4.4269   25.4940   29.3467 C   0  0  0  0  0  0  0  0  0  0  0  0
    5.5878   26.0000   21.7088 C   0  0  0  0  0  0  0  0  0  0  0  0
    4.2411   25.0977   30.3955 C   0  0  0  0  0  0  0  0  0  0  0  0
    4.0735   27.9393   27.6530 C   0  0  0  0  0  0  0  0  0  0  0  0
    3.3851   28.1883   25.2598 C   0  0  0  0  0  0  0  0  0  0  0  0
    8.2059   23.3432   28.3189 C   0  0  0  0  0  0  0  0  0  0  0  0
    9.6594   24.0411   25.2156 C   0  0  0  0  0  0  0  0  0  0  0  0
    8.7435   24.3712   22.9220 C   0  0  0  0  0  0  0  0  0  0  0  0
    9.4835   23.0472   27.8661 N   0  0  0  0  0  0  0  0  0  0  0  0
    4.9370   24.0457   30.9904 C   0  0  0  0  0  0  0  0  0  0  0  0
    9.4912   23.5482   26.4976 C   0  0  0  0  0  0  0  0  0  0  0  0
  1  2  1  0
  2  3  2  0
  3  4  1  0
  3  5  1  0
  4  6  1  0
  5  7  1  0
  2  8  1  0
  6  9  2  0
  7  9  1  0
  4 10  1  0
 10 11  1  0
  6 12  1  0
  5 13  2  0
  7 14  1  0
 14 15  1  0
 15 16  2  0
 16 17  1  0
 16 18  1  0
 15 19  1  0
  8 20  2  0
 10 20  2  0
 19 21  2  0
 13 22  1  0
  1 23  2  0
 13 23  1  0
 18 24  1  0
 12 25  1  0
 11 26  2  0
 12 26  2  0
 24 27  1  0
 17 28  2  0
 21 28  1  0
 25 29  1  0
 27 29  1  0
M  END
>  <ID>  (1) 
conformer_0

$$$$
