
     RDKit          3D

 29 34  0  0  0  0  0  0  0  0999 V2000
    8.2176   23.7420   23.4376 C   0  0  0  0  0  0  0  0  0  0  0  0
    8.5629   23.8962   24.5828 N   0  0  0  0  0  0  0  0  0  0  0  0
    7.9007   24.8098   25.4447 C   0  0  0  0  0  0  0  0  0  0  0  0
    8.1432   24.9682   26.8057 N   0  0  0  0  0  0  0  0  0  0  0  0
    9.1176   24.2610   27.4192 C   0  0  0  0  0  0  0  0  0  0  0  0
    6.8818   25.6022   24.8747 C   0  0  0  0  0  0  0  0  0  0  0  0
    7.0668   25.7125   27.3578 C   0  0  0  0  0  0  0  0  0  0  0  0
    6.1909   26.4819   25.7308 C   0  0  0  0  0  0  0  0  0  0  0  0
    5.1592   27.3952   25.0253 C   0  0  0  0  0  0  0  0  0  0  0  0
    8.8785   23.0635   28.0274 C   0  0  0  0  0  0  0  0  0  0  0  0
    6.5615   25.2877   23.5147 C   0  0  0  0  0  0  0  0  0  0  0  0
    4.3130   28.0862   25.8424 C   0  0  0  0  0  0  0  0  0  0  0  0
    4.8458   27.2217   23.7347 C   0  0  0  0  0  0  0  0  0  0  0  0
    3.2180   28.5394   25.2951 O   0  0  0  0  0  0  0  0  0  0  0  0
    9.8540   22.3480   28.6790 C   0  0  0  0  0  0  0  0  0  0  0  0
   11.0651   22.7696   28.1731 C   0  0  0  0  0  0  0  0  0  0  0  0
    4.4174   28.0877   27.2241 N   0  0  0  0  0  0  0  0  0  0  0  0
    5.5669   26.1420   22.9789 C   0  0  0  0  0  0  0  0  0  0  0  0
   10.3259   23.8314   26.7062 O   0  0  0  0  0  0  0  0  0  0  0  0
    7.2739   24.4772   22.8059 N   0  0  0  0  0  0  0  0  0  0  0  0
    5.2937   26.2236   21.7278 O   0  0  0  0  0  0  0  0  0  0  0  0
    6.3584   26.5237   26.9867 C   0  0  0  0  0  0  0  0  0  0  0  0
   11.9474   23.7088   28.7867 C   0  0  0  0  0  0  0  0  0  0  0  0
    5.4675   27.3878   27.8698 C   0  0  0  0  0  0  0  0  0  0  0  0
    9.8887   22.4832   30.0892 O   0  0  0  0  0  0  0  0  0  0  0  0
    8.9871   22.7693   22.5782 C   0  0  0  0  0  0  0  0  0  0  0  0
    5.4982   27.5560   29.0837 O   0  0  0  0  0  0  0  0  0  0  0  0
   12.1456   23.3683   29.8648 O   0  0  0  0  0  0  0  0  0  0  0  0
   10.9221   23.2127   30.7734 C   0  0  0  0  0  0  0  0  0  0  0  0
  1  2  2  0
  2  3  1  0
  3  4  1  0
  4  5  1  0
  3  6  2  0
  4  7  1  0
  6  8  1  0
  8  9  1  0
  5 10  1  0
  6 11  1  0
  9 12  1  0
  9 13  2  0
 12 14  2  0
 10 15  1  0
 15 16  1  0
 12 17  1  0
 11 18  1  0
 13 18  1  0
  5 19  1  0
 16 19  1  0
  1 20  1  0
 11 20  2  0
 18 21  2  0
  7 22  2  0
  8 22  1  0
 16 23  1  0
 17 24  1  0
 22 24  1  0
 15 25  1  0
  1 26  1  0
 24 27  2  0
 23 28  1  0
 25 29  1  0
 28 29  1  0
M  END
>  <ID>  (1) 
conformer_0

$$$$
