
     RDKit          3D

 29 33  0  0  0  0  0  0  0  0999 V2000
    8.2176   23.7420   23.4376 C   0  0  0  0  0  0  0  0  0  0  0  0
    8.5629   23.8962   24.5828 N   0  0  0  0  0  0  0  0  0  0  0  0
    7.9007   24.8098   25.4447 C   0  0  0  0  0  0  0  0  0  0  0  0
    8.1432   24.9682   26.8057 N   0  0  0  0  0  0  0  0  0  0  0  0
    9.1176   24.2610   27.4192 C   0  0  0  0  0  0  0  0  0  0  0  0
    6.8818   25.6022   24.8747 C   0  0  0  0  0  0  0  0  0  0  0  0
    7.0668   25.7125   27.3578 C   0  0  0  0  0  0  0  0  0  0  0  0
    6.1909   26.4819   25.7308 C   0  0  0  0  0  0  0  0  0  0  0  0
    5.1592   27.3952   25.0253 C   0  0  0  0  0  0  0  0  0  0  0  0
    8.8785   23.0635   28.0274 C   0  0  0  0  0  0  0  0  0  0  0  0
    6.5615   25.2877   23.5147 C   0  0  0  0  0  0  0  0  0  0  0  0
    4.3130   28.0862   25.8424 C   0  0  0  0  0  0  0  0  0  0  0  0
    4.8458   27.2217   23.7347 C   0  0  0  0  0  0  0  0  0  0  0  0
    3.2180   28.5394   25.2951 O   0  0  0  0  0  0  0  0  0  0  0  0
    9.8540   22.3480   28.6790 C   0  0  0  0  0  0  0  0  0  0  0  0
    6.3185   26.6203   26.9402 C   0  0  0  0  0  0  0  0  0  0  0  0
    9.6284   21.3677   29.5337 C   0  0  0  0  0  0  0  0  0  0  0  0
   11.0827   22.5043   28.1794 C   0  0  0  0  0  0  0  0  0  0  0  0
   12.1748   21.6862   28.6237 C   0  0  0  0  0  0  0  0  0  0  0  0
    5.5935   27.4758   27.7405 C   0  0  0  0  0  0  0  0  0  0  0  0
    5.5479   26.1857   22.9812 C   0  0  0  0  0  0  0  0  0  0  0  0
    4.7146   25.7658   21.9950 O   0  0  0  0  0  0  0  0  0  0  0  0
    9.0203   22.8164   22.6476 C   0  0  0  0  0  0  0  0  0  0  0  0
    4.5405   28.1916   27.1955 C   0  0  0  0  0  0  0  0  0  0  0  0
    7.2671   24.4927   22.7275 C   0  0  0  0  0  0  0  0  0  0  0  0
    7.4299   25.8207   28.7638 O   0  0  0  0  0  0  0  0  0  0  0  0
   13.4839   21.8733   28.0812 O   0  0  0  0  0  0  0  0  0  0  0  0
   10.7167   20.6537   30.1159 C   0  0  0  0  0  0  0  0  0  0  0  0
   12.0563   20.8464   29.5977 C   0  0  0  0  0  0  0  0  0  0  0  0
  1  2  2  0
  2  3  1  0
  3  4  1  0
  4  5  1  0
  3  6  2  0
  4  7  1  0
  6  8  1  0
  8  9  1  0
  5 10  1  0
  6 11  1  0
  9 12  1  0
  9 13  2  0
 12 14  2  0
 10 15  1  0
  7 16  1  0
  8 16  1  0
 15 17  1  0
 15 18  2  0
 18 19  1  0
 16 20  2  0
 11 21  1  0
 13 21  1  0
 21 22  1  0
  1 23  1  0
 12 24  1  0
 20 24  1  0
  1 25  1  0
 11 25  2  0
  7 26  2  0
 19 27  1  0
 17 28  2  0
 19 29  2  0
 28 29  1  0
M  END
>  <ID>  (1) 
conformer_0

$$$$
