
     RDKit          3D

 29 33  0  0  0  0  0  0  0  0999 V2000
    8.2176   23.7420   23.4376 C   0  0  0  0  0  0  0  0  0  0  0  0
    8.5629   23.8962   24.5828 N   0  0  0  0  0  0  0  0  0  0  0  0
    7.9007   24.8098   25.4447 C   0  0  0  0  0  0  0  0  0  0  0  0
    8.1432   24.9682   26.8057 N   0  0  0  0  0  0  0  0  0  0  0  0
    9.1176   24.2610   27.4192 C   0  0  0  0  0  0  0  0  0  0  0  0
    6.8818   25.6022   24.8747 C   0  0  0  0  0  0  0  0  0  0  0  0
    7.0668   25.7125   27.3578 C   0  0  0  0  0  0  0  0  0  0  0  0
    6.1909   26.4819   25.7308 C   0  0  0  0  0  0  0  0  0  0  0  0
    5.1592   27.3952   25.0253 C   0  0  0  0  0  0  0  0  0  0  0  0
    8.8785   23.0635   28.0274 C   0  0  0  0  0  0  0  0  0  0  0  0
    6.5615   25.2877   23.5147 C   0  0  0  0  0  0  0  0  0  0  0  0
    4.3130   28.0862   25.8424 C   0  0  0  0  0  0  0  0  0  0  0  0
    4.8458   27.2217   23.7347 C   0  0  0  0  0  0  0  0  0  0  0  0
    3.2180   28.5394   25.2951 O   0  0  0  0  0  0  0  0  0  0  0  0
    9.8540   22.3480   28.6790 C   0  0  0  0  0  0  0  0  0  0  0  0
    6.1093   26.4281   26.9980 C   0  0  0  0  0  0  0  0  0  0  0  0
    4.4258   28.1305   27.2012 N   0  0  0  0  0  0  0  0  0  0  0  0
    5.3785   26.2883   22.9027 C   0  0  0  0  0  0  0  0  0  0  0  0
    6.9414   25.5788   28.8770 N   0  0  0  0  0  0  0  0  0  0  0  0
    6.1354   26.2146   29.5697 C   0  0  0  0  0  0  0  0  0  0  0  0
    6.0834   25.9177   31.0224 C   0  0  0  0  0  0  0  0  0  0  0  0
    6.2533   24.6827   31.3787 C   0  0  0  0  0  0  0  0  0  0  0  0
    4.5016   25.5877   22.1614 C   0  0  0  0  0  0  0  0  0  0  0  0
    5.2214   27.2510   27.6918 C   0  0  0  0  0  0  0  0  0  0  0  0
    7.1509   24.5620   22.8776 N   0  0  0  0  0  0  0  0  0  0  0  0
    9.0093   22.7641   22.5013 C   0  0  0  0  0  0  0  0  0  0  0  0
    4.9444   23.8568   31.4590 O   0  0  0  0  0  0  0  0  0  0  0  0
   11.0870   22.7128   28.3033 O   0  0  0  0  0  0  0  0  0  0  0  0
    5.2324   27.0883   29.0600 C   0  0  0  0  0  0  0  0  0  0  0  0
  1  2  2  0
  2  3  1  0
  3  4  1  0
  4  5  1  0
  3  6  2  0
  4  7  1  0
  6  8  1  0
  8  9  1  0
  5 10  1  0
  6 11  1  0
  9 12  1  0
  9 13  2  0
 12 14  2  0
 10 15  1  0
  7 16  1  0
  8 16  1  0
 12 17  1  0
 11 18  1  0
 13 18  1  0
  7 19  2  0
 19 20  1  0
 20 21  1  0
 21 22  1  0
 18 23  1  0
 16 24  2  0
 17 24  1  0
  1 25  1  0
 11 25  2  0
  1 26  1  0
 22 27  1  0
 15 28  1  0
 20 29  2  0
 24 29  1  0
M  END
>  <ID>  (1) 
conformer_0

$$$$
