
     RDKit          3D

 29 36  0  0  0  0  0  0  0  0999 V2000
    3.6174   27.8348   23.8935 N   0  0  0  0  0  0  0  0  0  0  0  0
    4.5959   27.0607   23.5468 C   0  0  0  0  0  0  0  0  0  0  0  0
    5.4732   26.5649   24.4382 C   0  0  0  0  0  0  0  0  0  0  0  0
    6.5501   25.6780   23.9138 C   0  0  0  0  0  0  0  0  0  0  0  0
    5.4045   26.8122   25.7362 C   0  0  0  0  0  0  0  0  0  0  0  0
    7.5951   25.1762   24.7265 C   0  0  0  0  0  0  0  0  0  0  0  0
    6.1768   26.1921   26.7739 N   0  0  0  0  0  0  0  0  0  0  0  0
    4.7193   26.6153   22.1887 N   0  0  0  0  0  0  0  0  0  0  0  0
    7.2362   25.3140   26.1906 C   0  0  0  0  0  0  0  0  0  0  0  0
    6.4628   25.6297   22.5073 C   0  0  0  0  0  0  0  0  0  0  0  0
    7.6426   24.8386   21.9340 C   0  0  0  0  0  0  0  0  0  0  0  0
    8.8008   24.6326   24.4626 C   0  0  0  0  0  0  0  0  0  0  0  0
    4.3146   27.5374   26.2277 C   0  0  0  0  0  0  0  0  0  0  0  0
    6.3786   26.5947   27.9477 C   0  0  0  0  0  0  0  0  0  0  0  0
    5.8597   25.5815   28.8777 C   0  0  0  0  0  0  0  0  0  0  0  0
    3.9725   27.8784   27.5848 C   0  0  0  0  0  0  0  0  0  0  0  0
    5.1197   27.6631   28.3907 C   0  0  0  0  0  0  0  0  0  0  0  0
    8.6869   24.3846   22.9350 C   0  0  0  0  0  0  0  0  0  0  0  0
    3.4857   28.0045   25.3179 C   0  0  0  0  0  0  0  0  0  0  0  0
    5.5901   25.8690   21.8548 C   0  0  0  0  0  0  0  0  0  0  0  0
    8.1491   24.6525   27.0906 C   0  0  0  0  0  0  0  0  0  0  0  0
    5.4785   25.7946   30.2612 C   0  0  0  0  0  0  0  0  0  0  0  0
    7.7294   24.5126   28.4105 N   0  0  0  0  0  0  0  0  0  0  0  0
    6.8584   24.5724   29.2036 C   0  0  0  0  0  0  0  0  0  0  0  0
    6.4983   23.9434   30.2373 N   0  0  0  0  0  0  0  0  0  0  0  0
    9.3542   23.7622   25.2369 C   0  0  0  0  0  0  0  0  0  0  0  0
    5.7048   24.6869   31.0802 C   0  0  0  0  0  0  0  0  0  0  0  0
    4.6217   24.1552   31.7137 O   0  0  0  0  0  0  0  0  0  0  0  0
    9.1620   23.8627   26.6097 C   0  0  0  0  0  0  0  0  0  0  0  0
  1  2  1  0
  2  3  2  0
  3  4  1  0
  3  5  1  0
  4  6  1  0
  5  7  1  0
  2  8  1  0
  6  9  2  0
  7  9  1  0
  4 10  1  0
 10 11  1  0
  6 12  1  0
  5 13  2  0
  7 14  1  0
 14 15  1  0
 13 16  1  0
 14 17  1  0
 16 17  2  0
 11 18  2  0
 12 18  1  0
  1 19  2  0
 13 19  1  0
  8 20  1  0
 10 20  2  0
  9 21  1  0
 15 22  1  0
 21 23  1  0
 15 24  1  0
 23 24  1  0
 24 25  2  0
 12 26  2  0
 22 27  1  0
 25 27  1  0
 27 28  2  0
 21 29  2  0
 26 29  1  0
M  END
>  <ID>  (1) 
conformer_0

$$$$
