
     RDKit          3D

 25 28  0  0  0  0  0  0  0  0999 V2000
    7.5815   24.6595   22.8110 C   0  0  0  0  0  0  0  0  0  0  0  0
    8.1014   24.4875   23.9443 C   0  0  0  0  0  0  0  0  0  0  0  0
    9.1134   23.5033   24.1970 C   0  0  0  0  0  0  0  0  0  0  0  0
    7.4511   24.8285   25.1843 C   0  0  0  0  0  0  0  0  0  0  0  0
    7.9342   24.5385   26.4216 N   0  0  0  0  0  0  0  0  0  0  0  0
    6.2663   25.5657   24.9839 C   0  0  0  0  0  0  0  0  0  0  0  0
    6.4344   25.4410   22.5865 C   0  0  0  0  0  0  0  0  0  0  0  0
    9.0340   23.6921   26.4996 C   0  0  0  0  0  0  0  0  0  0  0  0
    7.2135   24.9515   27.6369 C   0  0  0  0  0  0  0  0  0  0  0  0
    5.8047   25.9035   23.7204 C   0  0  0  0  0  0  0  0  0  0  0  0
    4.5092   26.7942   23.5766 C   0  0  0  0  0  0  0  0  0  0  0  0
    6.3566   23.9845   28.1807 C   0  0  0  0  0  0  0  0  0  0  0  0
    4.2659   27.4791   24.6613 N   0  0  0  0  0  0  0  0  0  0  0  0
    4.8785   27.8075   25.8825 C   0  0  0  0  0  0  0  0  0  0  0  0
    6.5296   26.2052   27.6335 O   0  0  0  0  0  0  0  0  0  0  0  0
    4.2704   27.2087   27.0423 C   0  0  0  0  0  0  0  0  0  0  0  0
    3.9090   26.8296   22.6237 O   0  0  0  0  0  0  0  0  0  0  0  0
    5.1446   24.4833   28.5736 C   0  0  0  0  0  0  0  0  0  0  0  0
    5.1294   29.1498   25.9729 C   0  0  0  0  0  0  0  0  0  0  0  0
    9.6289   23.2658   25.4143 N   0  0  0  0  0  0  0  0  0  0  0  0
    3.9920   29.8642   26.4675 C   0  0  0  0  0  0  0  0  0  0  0  0
    5.3523   26.5847   28.0548 C   0  0  0  0  0  0  0  0  0  0  0  0
    9.7008   22.8860   23.2178 O   0  0  0  0  0  0  0  0  0  0  0  0
    4.6697   25.5401   28.5647 C   0  0  0  0  0  0  0  0  0  0  0  0
    9.5073   23.5250   27.6703 O   0  0  0  0  0  0  0  0  0  0  0  0
  1  2  2  0
  2  3  1  0
  2  4  1  0
  4  5  1  0
  4  6  2  0
  1  7  1  0
  5  8  1  0
  5  9  1  0
  6 10  1  0
  7 10  2  0
 10 11  1  0
  9 12  1  0
 11 13  1  0
 13 14  1  0
  9 15  1  0
 14 16  1  0
 11 17  2  0
 12 18  1  0
 14 19  1  0
  3 20  1  0
  8 20  1  0
 19 21  1  0
 15 22  1  0
 16 22  1  0
  3 23  2  0
 18 24  1  0
 22 24  1  0
  8 25  2  0
M  END
>  <ID>  (1) 
conformer_0

$$$$
