
     RDKit          3D

 20 22  0  0  0  0  0  0  0  0999 V2000
    8.2176   23.7420   23.4376 C   0  0  0  0  0  0  0  0  0  0  0  0
    8.5629   23.8962   24.5828 N   0  0  0  0  0  0  0  0  0  0  0  0
    7.9007   24.8098   25.4447 C   0  0  0  0  0  0  0  0  0  0  0  0
    8.1432   24.9682   26.8057 N   0  0  0  0  0  0  0  0  0  0  0  0
    9.1176   24.2610   27.4192 C   0  0  0  0  0  0  0  0  0  0  0  0
    6.8818   25.6022   24.8747 C   0  0  0  0  0  0  0  0  0  0  0  0
    7.0668   25.7125   27.3578 C   0  0  0  0  0  0  0  0  0  0  0  0
    6.1909   26.4819   25.7308 C   0  0  0  0  0  0  0  0  0  0  0  0
    7.2561   25.6677   28.9175 O   0  0  0  0  0  0  0  0  0  0  0  0
    8.9133   22.8352   22.6364 N   0  0  0  0  0  0  0  0  0  0  0  0
    6.3235   26.6525   27.0475 C   0  0  0  0  0  0  0  0  0  0  0  0
    6.6206   24.5505   29.5284 C   0  0  0  0  0  0  0  0  0  0  0  0
    5.4330   24.8812   30.1904 C   0  0  0  0  0  0  0  0  0  0  0  0
    5.5400   25.1336   31.4850 O   0  0  0  0  0  0  0  0  0  0  0  0
    7.2668   24.5236   22.7630 N   0  0  0  0  0  0  0  0  0  0  0  0
    5.2425   27.4061   24.9913 C   0  0  0  0  0  0  0  0  0  0  0  0
    4.6929   27.1663   23.6875 C   0  0  0  0  0  0  0  0  0  0  0  0
    3.8152   27.8986   23.2230 O   0  0  0  0  0  0  0  0  0  0  0  0
    5.3537   26.0178   22.9861 N   0  0  0  0  0  0  0  0  0  0  0  0
    6.4718   25.3775   23.5309 C   0  0  0  0  0  0  0  0  0  0  0  0
  1  2  2  0
  2  3  1  0
  3  4  1  0
  4  5  1  0
  3  6  2  0
  4  7  1  0
  6  8  1  0
  7  9  1  0
  1 10  1  0
  7 11  1  0
  8 11  1  0
  9 12  1  0
 12 13  1  0
 13 14  1  0
  1 15  1  0
  8 16  2  0
 16 17  1  0
 17 18  2  0
 17 19  1  0
  6 20  1  0
 15 20  2  0
 19 20  1  0
M  END
>  <ID>  (1) 
conformer_0

$$$$
