
     RDKit          3D

 27 28  0  0  0  0  0  0  0  0999 V2000
    8.2176   23.7420   23.4376 C   0  0  0  0  0  0  0  0  0  0  0  0
    8.5629   23.8962   24.5828 C   0  0  0  0  0  0  0  0  0  0  0  0
    7.8761   24.8725   25.4633 C   0  0  0  0  0  0  0  0  0  0  0  0
    8.1097   25.0475   26.8440 N   0  0  0  0  0  0  0  0  0  0  0  0
    8.8968   22.6923   22.6633 C   0  0  0  0  0  0  0  0  0  0  0  0
    7.2469   24.4923   22.7146 C   0  0  0  0  0  0  0  0  0  0  0  0
    6.8828   25.5744   24.8120 C   0  0  0  0  0  0  0  0  0  0  0  0
    6.5670   25.4179   23.4754 C   0  0  0  0  0  0  0  0  0  0  0  0
    7.2501   25.0757   27.7283 C   0  0  0  0  0  0  0  0  0  0  0  0
    9.3770   25.6628   27.0761 C   0  0  0  0  0  0  0  0  0  0  0  0
    9.7144   25.5456   28.3555 O   0  0  0  0  0  0  0  0  0  0  0  0
    6.4208   26.0115   28.2992 C   0  0  0  0  0  0  0  0  0  0  0  0
    9.8596   22.0620   23.1420 O   0  0  0  0  0  0  0  0  0  0  0  0
    6.7225   23.6916   28.1058 C   0  0  0  0  0  0  0  0  0  0  0  0
    6.6059   27.3856   27.9412 C   0  0  0  0  0  0  0  0  0  0  0  0
    7.6345   22.5698   28.0177 C   0  0  0  0  0  0  0  0  0  0  0  0
    5.3407   25.4981   29.0591 C   0  0  0  0  0  0  0  0  0  0  0  0
    5.4466   26.3084   22.8983 C   0  0  0  0  0  0  0  0  0  0  0  0
   10.1835   26.2366   26.1579 O   0  0  0  0  0  0  0  0  0  0  0  0
    5.0529   25.8801   21.8900 O   0  0  0  0  0  0  0  0  0  0  0  0
    8.4439   22.1989   21.6497 O   0  0  0  0  0  0  0  0  0  0  0  0
    5.1000   27.3929   23.3580 N   0  0  0  0  0  0  0  0  0  0  0  0
   10.4885   27.6110   26.2365 C   0  0  0  0  0  0  0  0  0  0  0  0
    5.7349   24.0375   29.1477 N   0  0  0  0  0  0  0  0  0  0  0  0
    3.9231   28.0291   23.0658 N   0  0  0  0  0  0  0  0  0  0  0  0
    4.6810   25.8294   29.7305 O   0  0  0  0  0  0  0  0  0  0  0  0
    3.5462   28.6059   24.3714 C   0  0  0  0  0  0  0  0  0  0  0  0
  1  2  2  0
  2  3  1  0
  3  4  1  0
  1  5  1  0
  1  6  1  0
  3  7  2  0
  6  8  2  0
  7  8  1  0
  4  9  1  0
  4 10  1  0
 10 11  2  0
  9 12  2  0
  5 13  1  0
  9 14  1  0
 12 15  1  0
 14 16  1  0
 12 17  1  0
  8 18  1  0
 10 19  1  0
 18 20  2  0
  5 21  2  0
 18 22  1  0
 19 23  1  0
 14 24  1  0
 17 24  1  0
 22 25  1  0
 17 26  2  0
 25 27  1  0
M  END
>  <ID>  (1) 
conformer_0

$$$$
