
     RDKit          3D

 13 14  0  0  0  0  0  0  0  0999 V2000
   22.1577    9.8293   28.4265 O   0  0  0  0  0  0  0  0  0  0  0  0
   22.8258    9.3520   27.4641 C   0  0  0  0  0  0  0  0  0  0  0  0
   23.7108    8.5192   27.8363 C   0  0  0  0  0  0  0  0  0  0  0  0
   23.2156   10.4840   26.5771 O   0  0  0  0  0  0  0  0  0  0  0  0
   24.1777    8.5967   29.1559 C   0  0  0  0  0  0  0  0  0  0  0  0
   24.3048    7.5308   26.9848 C   0  0  0  0  0  0  0  0  0  0  0  0
   23.6303    9.4075   30.1867 C   0  0  0  0  0  0  0  0  0  0  0  0
   23.9208    7.3602   25.6036 O   0  0  0  0  0  0  0  0  0  0  0  0
   25.1593    7.6100   29.5930 C   0  0  0  0  0  0  0  0  0  0  0  0
   22.5492   10.1111   29.7912 C   0  0  0  0  0  0  0  0  0  0  0  0
   24.1444    9.6028   31.4090 O   0  0  0  0  0  0  0  0  0  0  0  0
   25.7555    6.7494   28.7088 C   0  0  0  0  0  0  0  0  0  0  0  0
   25.2947    6.6671   27.3997 C   0  0  0  0  0  0  0  0  0  0  0  0
  1  2  1  0
  2  3  1  0
  2  4  1  0
  3  5  1  0
  3  6  2  0
  5  7  1  0
  6  8  1  0
  5  9  2  0
  1 10  1  0
  7 10  2  0
  7 11  1  0
  9 12  1  0
  6 13  1  0
 12 13  2  0
M  END
>  <ID>  (1) 
conformer_0

$$$$
