
     RDKit          3D

 17 19  0  0  0  0  0  0  0  0999 V2000
   26.3642    7.5807   29.2232 C   0  0  0  0  0  0  0  0  0  0  0  0
   25.1920    7.3699   28.6777 C   0  0  0  0  0  0  0  0  0  0  0  0
   25.0194    6.5380   27.5696 C   0  0  0  0  0  0  0  0  0  0  0  0
   24.2451    8.1716   28.8732 C   0  0  0  0  0  0  0  0  0  0  0  0
   23.0875    8.3978   28.1159 C   0  0  0  0  0  0  0  0  0  0  0  0
   24.1700    8.8730   30.2518 C   0  0  0  0  0  0  0  0  0  0  0  0
   22.9437    7.4268   27.0246 C   0  0  0  0  0  0  0  0  0  0  0  0
   21.9662    7.5692   26.0941 O   0  0  0  0  0  0  0  0  0  0  0  0
   27.4421    6.6917   29.0454 C   0  0  0  0  0  0  0  0  0  0  0  0
   24.4313    8.4150   31.3211 O   0  0  0  0  0  0  0  0  0  0  0  0
   23.5025   10.1701   30.2388 C   0  0  0  0  0  0  0  0  0  0  0  0
   23.9549    6.5122   26.8027 N   0  0  0  0  0  0  0  0  0  0  0  0
   27.2338    5.7659   27.9346 C   0  0  0  0  0  0  0  0  0  0  0  0
   22.9876    9.8007   27.5526 C   0  0  0  0  0  0  0  0  0  0  0  0
   26.1062    5.7046   27.2599 C   0  0  0  0  0  0  0  0  0  0  0  0
   23.6212    5.6701   25.6965 C   0  0  0  0  0  0  0  0  0  0  0  0
   22.7114   10.6731   28.9010 C   0  0  0  0  0  0  0  0  0  0  0  0
  1  2  1  0
  2  3  1  0
  2  4  2  0
  4  5  1  0
  4  6  1  0
  5  7  1  0
  7  8  2  0
  1  9  2  0
  6 10  2  0
  6 11  1  0
  3 12  1  0
  7 12  1  0
  9 13  1  0
  5 14  1  0
  3 15  2  0
 13 15  1  0
 12 16  1  0
 11 17  2  0
 14 17  1  0
M  END
>  <ID>  (1) 
conformer_0

$$$$
