
     RDKit          3D

 16 17  0  0  0  0  0  0  0  0999 V2000
   26.3642    7.5807   29.2232 C   0  0  0  0  0  0  0  0  0  0  0  0
   25.1920    7.3699   28.6777 C   0  0  0  0  0  0  0  0  0  0  0  0
   24.1196    8.0141   29.0270 C   0  0  0  0  0  0  0  0  0  0  0  0
   24.3144    9.0009   30.0462 C   0  0  0  0  0  0  0  0  0  0  0  0
   24.9927    6.3550   27.5748 C   0  0  0  0  0  0  0  0  0  0  0  0
   23.1663    9.8364   30.6045 C   0  0  0  0  0  0  0  0  0  0  0  0
   22.7891    7.8160   28.4508 C   0  0  0  0  0  0  0  0  0  0  0  0
   21.7365    8.5986   28.7899 O   0  0  0  0  0  0  0  0  0  0  0  0
   22.6883    6.8957   27.3973 N   0  0  0  0  0  0  0  0  0  0  0  0
   23.7704    6.1538   27.0542 C   0  0  0  0  0  0  0  0  0  0  0  0
   27.4644    6.7487   28.7099 C   0  0  0  0  0  0  0  0  0  0  0  0
   21.4121    6.6793   26.7696 C   0  0  0  0  0  0  0  0  0  0  0  0
   26.0960    5.6270   27.3304 C   0  0  0  0  0  0  0  0  0  0  0  0
   23.5655   11.2007   31.0224 C   0  0  0  0  0  0  0  0  0  0  0  0
   27.2994    5.8091   27.7739 C   0  0  0  0  0  0  0  0  0  0  0  0
   23.4480    4.9382   26.7254 O   0  0  0  0  0  0  0  0  0  0  0  0
  1  2  1  0
  2  3  2  0
  3  4  1  0
  2  5  1  0
  4  6  1  0
  3  7  1  0
  7  8  2  0
  7  9  1  0
  5 10  1  0
  9 10  1  0
  1 11  2  0
  9 12  1  0
  5 13  2  0
  6 14  1  0
 11 15  1  0
 13 15  1  0
 10 16  2  0
M  END
>  <ID>  (1) 
conformer_0

$$$$
