
     RDKit          3D

 16 17  0  0  0  0  0  0  0  0999 V2000
   26.3642    7.5807   29.2232 C   0  0  0  0  0  0  0  0  0  0  0  0
   25.1920    7.3699   28.6777 C   0  0  0  0  0  0  0  0  0  0  0  0
   25.0194    6.5380   27.5696 C   0  0  0  0  0  0  0  0  0  0  0  0
   24.2451    8.1716   28.8732 C   0  0  0  0  0  0  0  0  0  0  0  0
   23.0875    8.3978   28.1159 C   0  0  0  0  0  0  0  0  0  0  0  0
   24.1700    8.8730   30.2518 C   0  0  0  0  0  0  0  0  0  0  0  0
   22.9437    7.4268   27.0246 C   0  0  0  0  0  0  0  0  0  0  0  0
   21.9662    7.5692   26.0941 O   0  0  0  0  0  0  0  0  0  0  0  0
   27.4421    6.6917   29.0454 C   0  0  0  0  0  0  0  0  0  0  0  0
   24.4313    8.4150   31.3211 O   0  0  0  0  0  0  0  0  0  0  0  0
   23.5025   10.1701   30.2388 C   0  0  0  0  0  0  0  0  0  0  0  0
   23.9549    6.5122   26.8027 N   0  0  0  0  0  0  0  0  0  0  0  0
   23.7670    5.4673   25.7864 C   0  0  0  0  0  0  0  0  0  0  0  0
   26.0394    5.6352   27.2682 C   0  0  0  0  0  0  0  0  0  0  0  0
   27.3367    5.6991   28.0019 C   0  0  0  0  0  0  0  0  0  0  0  0
   23.9100   11.1011   31.1153 O   0  0  0  0  0  0  0  0  0  0  0  0
  1  2  1  0
  2  3  1  0
  2  4  2  0
  4  5  1  0
  4  6  1  0
  5  7  1  0
  7  8  2  0
  1  9  2  0
  6 10  2  0
  6 11  1  0
  3 12  1  0
  7 12  1  0
 12 13  1  0
  3 14  2  0
  9 15  1  0
 14 15  1  0
 11 16  1  0
M  END
>  <ID>  (1) 
conformer_0

$$$$
