
     RDKit          3D

 17 19  0  0  0  0  0  0  0  0999 V2000
   26.3642    7.5807   29.2232 C   0  0  0  0  0  0  0  0  0  0  0  0
   25.1920    7.3699   28.6777 C   0  0  0  0  0  0  0  0  0  0  0  0
   25.0194    6.5380   27.5696 C   0  0  0  0  0  0  0  0  0  0  0  0
   25.9183    5.5680   27.2580 C   0  0  0  0  0  0  0  0  0  0  0  0
   24.1487    8.3046   29.0565 C   0  0  0  0  0  0  0  0  0  0  0  0
   23.6795    6.3476   26.9022 C   0  0  0  0  0  0  0  0  0  0  0  0
   22.8238    8.2148   28.5252 C   0  0  0  0  0  0  0  0  0  0  0  0
   22.6145    7.3168   27.3835 C   0  0  0  0  0  0  0  0  0  0  0  0
   27.3076    5.8374   27.9770 C   0  0  0  0  0  0  0  0  0  0  0  0
   27.3768    6.7010   28.9261 C   0  0  0  0  0  0  0  0  0  0  0  0
   24.3197    9.3473   29.9920 C   0  0  0  0  0  0  0  0  0  0  0  0
   25.6741    9.3194   30.6186 N   0  0  0  0  0  0  0  0  0  0  0  0
   21.8752    7.5797   26.4021 O   0  0  0  0  0  0  0  0  0  0  0  0
   23.3694   10.2673   30.4199 C   0  0  0  0  0  0  0  0  0  0  0  0
   23.5284   10.6322   31.7825 O   0  0  0  0  0  0  0  0  0  0  0  0
   26.5829    8.5718   30.2109 C   0  0  0  0  0  0  0  0  0  0  0  0
   22.3272   10.3786   29.9350 O   0  0  0  0  0  0  0  0  0  0  0  0
  1  2  1  0
  2  3  1  0
  3  4  2  0
  2  5  2  0
  3  6  1  0
  5  7  1  0
  6  8  1  0
  7  8  1  0
  4  9  1  0
  1 10  1  0
  9 10  2  0
  5 11  1  0
 11 12  2  0
  8 13  2  0
 11 14  1  0
 14 15  1  0
  1 16  2  0
 12 16  1  0
 14 17  2  0
M  END
>  <ID>  (1) 
conformer_0

$$$$
