
     RDKit          3D

 15 16  0  0  0  0  0  0  0  0999 V2000
   26.3642    7.5807   29.2232 C   0  0  0  0  0  0  0  0  0  0  0  0
   25.1920    7.3699   28.6777 C   0  0  0  0  0  0  0  0  0  0  0  0
   25.0194    6.5380   27.5696 C   0  0  0  0  0  0  0  0  0  0  0  0
   26.4034    8.3938   30.3532 C   0  0  0  0  0  0  0  0  0  0  0  0
   23.8460    6.6179   26.8377 C   0  0  0  0  0  0  0  0  0  0  0  0
   27.7304    8.6986   30.9058 C   0  0  0  0  0  0  0  0  0  0  0  0
   24.0778    8.0508   29.1590 C   0  0  0  0  0  0  0  0  0  0  0  0
   23.5129    5.7949   25.6771 C   0  0  0  0  0  0  0  0  0  0  0  0
   22.7395    7.8381   28.4512 C   0  0  0  0  0  0  0  0  0  0  0  0
   22.3736    5.5798   25.4357 O   0  0  0  0  0  0  0  0  0  0  0  0
   22.6784    6.9462   27.4822 N   0  0  0  0  0  0  0  0  0  0  0  0
   24.1999    8.9937   30.2147 C   0  0  0  0  0  0  0  0  0  0  0  0
   23.0720    9.8053   30.7290 O   0  0  0  0  0  0  0  0  0  0  0  0
   25.3788    9.2177   30.7705 C   0  0  0  0  0  0  0  0  0  0  0  0
   24.5196    5.2929   25.1660 O   0  0  0  0  0  0  0  0  0  0  0  0
  1  2  1  0
  2  3  1  0
  1  4  2  0
  3  5  1  0
  4  6  1  0
  2  7  2  0
  5  8  1  0
  7  9  1  0
  8 10  1  0
  5 11  1  0
  9 11  1  0
  7 12  1  0
 12 13  1  0
  4 14  1  0
 12 14  2  0
  8 15  2  0
M  END
>  <ID>  (1) 
conformer_0

$$$$
