
     RDKit          3D

 15 16  0  0  0  0  0  0  0  0999 V2000
   26.3642    7.5807   29.2232 C   0  0  0  0  0  0  0  0  0  0  0  0
   25.1920    7.3699   28.6777 C   0  0  0  0  0  0  0  0  0  0  0  0
   25.0194    6.5380   27.5696 C   0  0  0  0  0  0  0  0  0  0  0  0
   24.2451    8.1716   28.8732 C   0  0  0  0  0  0  0  0  0  0  0  0
   23.0875    8.3978   28.1159 C   0  0  0  0  0  0  0  0  0  0  0  0
   24.1700    8.8730   30.2518 C   0  0  0  0  0  0  0  0  0  0  0  0
   22.9437    7.4268   27.0246 C   0  0  0  0  0  0  0  0  0  0  0  0
   21.9662    7.5692   26.0941 O   0  0  0  0  0  0  0  0  0  0  0  0
   27.4421    6.6917   29.0454 C   0  0  0  0  0  0  0  0  0  0  0  0
   24.4313    8.4150   31.3211 O   0  0  0  0  0  0  0  0  0  0  0  0
   26.2203    5.6534   27.3466 C   0  0  0  0  0  0  0  0  0  0  0  0
   24.0457    6.4076   26.7496 N   0  0  0  0  0  0  0  0  0  0  0  0
   23.6035   10.1634   30.2783 N   0  0  0  0  0  0  0  0  0  0  0  0
   22.8517    9.7489   27.5679 N   0  0  0  0  0  0  0  0  0  0  0  0
   27.3085    5.7589   27.9835 C   0  0  0  0  0  0  0  0  0  0  0  0
  1  2  1  0
  2  3  1  0
  2  4  2  0
  4  5  1  0
  4  6  1  0
  5  7  1  0
  7  8  2  0
  1  9  2  0
  6 10  2  0
  3 11  1  0
  3 12  2  0
  7 12  1  0
  6 13  1  0
  5 14  1  0
  9 15  1  0
 11 15  2  0
M  END
>  <ID>  (1) 
conformer_0

$$$$
