
     RDKit          3D

 17 19  0  0  0  0  0  0  0  0999 V2000
   26.3642    7.5807   29.2232 C   0  0  0  0  0  0  0  0  0  0  0  0
   25.1920    7.3699   28.6777 C   0  0  0  0  0  0  0  0  0  0  0  0
   25.0194    6.5380   27.5696 C   0  0  0  0  0  0  0  0  0  0  0  0
   25.9183    5.5680   27.2580 C   0  0  0  0  0  0  0  0  0  0  0  0
   24.1487    8.3046   29.0565 C   0  0  0  0  0  0  0  0  0  0  0  0
   23.6795    6.3476   26.9022 C   0  0  0  0  0  0  0  0  0  0  0  0
   22.8238    8.2148   28.5252 C   0  0  0  0  0  0  0  0  0  0  0  0
   22.6145    7.3168   27.3835 C   0  0  0  0  0  0  0  0  0  0  0  0
   23.6882    6.4588   25.5659 O   0  0  0  0  0  0  0  0  0  0  0  0
   26.5768    8.5355   30.1905 C   0  0  0  0  0  0  0  0  0  0  0  0
   27.8643    8.6197   30.7479 O   0  0  0  0  0  0  0  0  0  0  0  0
   25.6361    9.4467   30.7498 C   0  0  0  0  0  0  0  0  0  0  0  0
   24.3060    9.3843   30.1056 C   0  0  0  0  0  0  0  0  0  0  0  0
   27.1791    5.6729   27.7098 C   0  0  0  0  0  0  0  0  0  0  0  0
   23.2845   10.2817   30.5522 C   0  0  0  0  0  0  0  0  0  0  0  0
   27.4459    6.6947   28.7870 C   0  0  0  0  0  0  0  0  0  0  0  0
   21.3256    6.7422   27.5283 O   0  0  0  0  0  0  0  0  0  0  0  0
  1  2  1  0
  2  3  1  0
  3  4  2  0
  2  5  2  0
  3  6  1  0
  5  7  1  0
  6  8  1  0
  7  8  1  0
  6  9  1  0
  1 10  2  0
 10 11  1  0
 10 12  1  0
  5 13  1  0
 12 13  2  0
  4 14  1  0
 13 15  1  0
  1 16  1  0
 14 16  2  0
  8 17  1  0
M  END
>  <ID>  (1) 
conformer_0

$$$$
