
     RDKit          3D

 17 19  0  0  0  0  0  0  0  0999 V2000
   26.3642    7.5807   29.2232 C   0  0  0  0  0  0  0  0  0  0  0  0
   25.1920    7.3699   28.6777 C   0  0  0  0  0  0  0  0  0  0  0  0
   26.4384    8.3083   30.3709 C   0  0  0  0  0  0  0  0  0  0  0  0
   25.0328    6.5351   27.4686 C   0  0  0  0  0  0  0  0  0  0  0  0
   27.7708    8.6205   30.9374 O   0  0  0  0  0  0  0  0  0  0  0  0
   23.8704    6.6582   26.7328 C   0  0  0  0  0  0  0  0  0  0  0  0
   24.0453    8.0821   29.0884 C   0  0  0  0  0  0  0  0  0  0  0  0
   23.6041    5.8762   25.5045 C   0  0  0  0  0  0  0  0  0  0  0  0
   27.9250    9.2965   31.9506 C   0  0  0  0  0  0  0  0  0  0  0  0
   22.8896    7.7071   26.9260 C   0  0  0  0  0  0  0  0  0  0  0  0
   22.8553    7.9926   28.2569 N   0  0  0  0  0  0  0  0  0  0  0  0
   25.2976    8.9619   30.8115 C   0  0  0  0  0  0  0  0  0  0  0  0
   21.9514    7.9277   26.1680 O   0  0  0  0  0  0  0  0  0  0  0  0
   25.3999    9.8202   32.0337 O   0  0  0  0  0  0  0  0  0  0  0  0
   24.0272    8.9410   30.2493 C   0  0  0  0  0  0  0  0  0  0  0  0
   21.7975    9.1244   28.6107 C   0  0  0  0  0  0  0  0  0  0  0  0
   26.8684   10.1606   32.2255 C   0  0  0  0  0  0  0  0  0  0  0  0
  1  2  1  0
  1  3  2  0
  2  4  1  0
  3  5  1  0
  4  6  2  0
  2  7  2  0
  6  8  1  0
  5  9  1  0
  6 10  1  0
  7 11  1  0
 10 11  1  0
  3 12  1  0
 10 13  2  0
 12 14  1  0
  7 15  1  0
 12 15  2  0
 11 16  1  0
  9 17  1  0
 14 17  1  0
M  END
>  <ID>  (1) 
conformer_0

$$$$
