
     RDKit          3D

 14 15  0  0  0  0  0  0  0  0999 V2000
   26.3642    7.5807   29.2232 C   0  0  0  0  0  0  0  0  0  0  0  0
   25.1920    7.3699   28.6777 C   0  0  0  0  0  0  0  0  0  0  0  0
   27.3951    6.6256   28.9040 C   0  0  0  0  0  0  0  0  0  0  0  0
   24.9596    6.3648   27.7019 C   0  0  0  0  0  0  0  0  0  0  0  0
   24.0933    8.3072   28.9972 C   0  0  0  0  0  0  0  0  0  0  0  0
   23.1103    8.4888   28.0865 C   0  0  0  0  0  0  0  0  0  0  0  0
   23.6102    6.2452   27.0482 C   0  0  0  0  0  0  0  0  0  0  0  0
   25.9683    5.4922   27.4033 C   0  0  0  0  0  0  0  0  0  0  0  0
   22.1854    9.5036   28.3835 O   0  0  0  0  0  0  0  0  0  0  0  0
   22.6603    7.3417   27.3636 C   0  0  0  0  0  0  0  0  0  0  0  0
   21.3582    7.0206   26.9417 C   0  0  0  0  0  0  0  0  0  0  0  0
   24.6297    9.4791   29.6547 O   0  0  0  0  0  0  0  0  0  0  0  0
   27.1642    5.6311   27.9459 C   0  0  0  0  0  0  0  0  0  0  0  0
   23.3064    5.0725   26.2079 C   0  0  0  0  0  0  0  0  0  0  0  0
  1  2  1  0
  1  3  2  0
  2  4  2  0
  2  5  1  0
  5  6  1  0
  4  7  1  0
  4  8  1  0
  6  9  1  0
  6 10  1  0
  7 10  2  0
 10 11  1  0
  5 12  1  0
  3 13  1  0
  8 13  2  0
  7 14  1  0
M  END
>  <ID>  (1) 
conformer_0

$$$$
