
     RDKit          3D

 14 15  0  0  0  0  0  0  0  0999 V2000
   26.3642    7.5807   29.2232 C   0  0  0  0  0  0  0  0  0  0  0  0
   25.1920    7.3699   28.6777 C   0  0  0  0  0  0  0  0  0  0  0  0
   25.0194    6.5380   27.5696 C   0  0  0  0  0  0  0  0  0  0  0  0
   26.4034    8.3938   30.3532 C   0  0  0  0  0  0  0  0  0  0  0  0
   23.8460    6.6179   26.8377 C   0  0  0  0  0  0  0  0  0  0  0  0
   27.7304    8.6986   30.9058 C   0  0  0  0  0  0  0  0  0  0  0  0
   24.0778    8.0508   29.1590 C   0  0  0  0  0  0  0  0  0  0  0  0
   23.5129    5.7949   25.6771 C   0  0  0  0  0  0  0  0  0  0  0  0
   22.7395    7.8381   28.4512 C   0  0  0  0  0  0  0  0  0  0  0  0
   22.3736    5.5798   25.4357 O   0  0  0  0  0  0  0  0  0  0  0  0
   25.3858    9.0884   30.8961 C   0  0  0  0  0  0  0  0  0  0  0  0
   24.4998    5.5346   24.9454 O   0  0  0  0  0  0  0  0  0  0  0  0
   22.6428    7.1587   27.3537 C   0  0  0  0  0  0  0  0  0  0  0  0
   24.0976    8.9850   30.2322 C   0  0  0  0  0  0  0  0  0  0  0  0
  1  2  1  0
  2  3  1  0
  1  4  2  0
  3  5  1  0
  4  6  1  0
  2  7  2  0
  5  8  1  0
  7  9  1  0
  8 10  1  0
  4 11  1  0
  8 12  2  0
  5 13  1  0
  9 13  2  0
  7 14  1  0
 11 14  2  0
M  END
>  <ID>  (1) 
conformer_0

$$$$
