
     RDKit          3D

 14 15  0  0  0  0  0  0  0  0999 V2000
   22.1577    9.8293   28.4265 O   0  0  0  0  0  0  0  0  0  0  0  0
   23.0530    9.0486   28.6728 C   0  0  0  0  0  0  0  0  0  0  0  0
   23.9086    9.2364   29.7131 C   0  0  0  0  0  0  0  0  0  0  0  0
   23.4307    8.0407   27.7562 C   0  0  0  0  0  0  0  0  0  0  0  0
   22.6236    7.7313   26.5364 C   0  0  0  0  0  0  0  0  0  0  0  0
   22.9765    8.2281   25.4406 O   0  0  0  0  0  0  0  0  0  0  0  0
   24.5816    7.1977   27.9434 C   0  0  0  0  0  0  0  0  0  0  0  0
   23.5812   10.2723   30.7312 C   0  0  0  0  0  0  0  0  0  0  0  0
   24.0827   10.1470   31.9941 C   0  0  0  0  0  0  0  0  0  0  0  0
   24.9383    8.3900   30.1415 C   0  0  0  0  0  0  0  0  0  0  0  0
   25.2322    9.1476   32.1575 C   0  0  0  0  0  0  0  0  0  0  0  0
   25.6034    8.4849   31.2700 C   0  0  0  0  0  0  0  0  0  0  0  0
   25.3542    7.4782   29.0404 C   0  0  0  0  0  0  0  0  0  0  0  0
   21.8076    6.7361   26.5833 O   0  0  0  0  0  0  0  0  0  0  0  0
  1  2  1  0
  2  3  1  0
  2  4  2  0
  4  5  1  0
  5  6  2  0
  4  7  1  0
  3  8  1  0
  8  9  2  0
  3 10  2  0
  9 11  1  0
 10 12  1  0
 11 12  2  0
  7 13  2  0
 10 13  1  0
  5 14  1  0
M  END
>  <ID>  (1) 
conformer_0

$$$$
