
     RDKit          3D

 12 12  0  0  0  0  0  0  0  0999 V2000
   24.3123    8.5793   31.9775 C   0  0  0  0  0  0  0  0  0  0  0  0
   24.1270    8.5929   30.8000 C   0  0  0  0  0  0  0  0  0  0  0  0
   23.6598    9.7034   30.1594 C   0  0  0  0  0  0  0  0  0  0  0  0
   25.2497    8.0592   30.0257 C   0  0  0  0  0  0  0  0  0  0  0  0
   22.8190    9.6407   28.9327 C   0  0  0  0  0  0  0  0  0  0  0  0
   22.7248    8.3700   28.5141 C   0  0  0  0  0  0  0  0  0  0  0  0
   23.9615    7.7399   27.8102 C   0  0  0  0  0  0  0  0  0  0  0  0
   23.7871    6.8599   26.6871 C   0  0  0  0  0  0  0  0  0  0  0  0
   24.9605    6.9965   28.7718 C   0  0  0  0  0  0  0  0  0  0  0  0
   23.7184    5.6202   26.7825 O   0  0  0  0  0  0  0  0  0  0  0  0
   22.5312    7.2902   25.8953 C   0  0  0  0  0  0  0  0  0  0  0  0
   25.0310    6.9335   25.8338 C   0  0  0  0  0  0  0  0  0  0  0  0
  1  2  1  0
  2  3  1  0
  2  4  1  0
  3  5  1  0
  5  6  1  0
  6  7  1  0
  7  8  1  0
  4  9  1  0
  7  9  1  0
  8 10  1  0
  8 11  1  0
  8 12  1  0
M  END
>  <ID>  (1) 
conformer_0

$$$$
