
     RDKit          3D

 14 14  0  0  0  0  0  0  0  0999 V2000
   26.3642    7.5807   29.2232 C   0  0  0  0  0  0  0  0  0  0  0  0
   25.1920    7.3699   28.6777 C   0  0  0  0  0  0  0  0  0  0  0  0
   25.0194    6.5380   27.5696 C   0  0  0  0  0  0  0  0  0  0  0  0
   24.2451    8.1716   28.8732 C   0  0  0  0  0  0  0  0  0  0  0  0
   23.0875    8.3978   28.1159 C   0  0  0  0  0  0  0  0  0  0  0  0
   24.1700    8.8730   30.2518 C   0  0  0  0  0  0  0  0  0  0  0  0
   22.9437    7.4268   27.0246 C   0  0  0  0  0  0  0  0  0  0  0  0
   21.9662    7.5692   26.0941 O   0  0  0  0  0  0  0  0  0  0  0  0
   23.2600    9.8378   30.7358 C   0  0  0  0  0  0  0  0  0  0  0  0
   21.7156    8.8486   28.5774 O   0  0  0  0  0  0  0  0  0  0  0  0
   27.4617    6.7073   28.8975 O   0  0  0  0  0  0  0  0  0  0  0  0
   26.0719    5.5758   27.3132 O   0  0  0  0  0  0  0  0  0  0  0  0
   23.9424    6.5627   26.7320 C   0  0  0  0  0  0  0  0  0  0  0  0
   23.9048   11.0478   31.2007 C   0  0  0  0  0  0  0  0  0  0  0  0
  1  2  1  0
  2  3  1  0
  2  4  2  0
  4  5  1  0
  4  6  1  0
  5  7  1  0
  7  8  2  0
  6  9  1  0
  5 10  1  0
  1 11  1  0
  3 12  1  0
  3 13  2  0
  7 13  1  0
  9 14  1  0
M  END
>  <ID>  (1) 
conformer_0

$$$$
