
     RDKit          3D

 17 18  0  0  0  0  0  0  0  0999 V2000
   26.3642    7.5807   29.2232 C   0  0  0  0  0  0  0  0  0  0  0  0
   25.1920    7.3699   28.6777 C   0  0  0  0  0  0  0  0  0  0  0  0
   25.0194    6.5380   27.5696 C   0  0  0  0  0  0  0  0  0  0  0  0
   24.2451    8.1716   28.8732 C   0  0  0  0  0  0  0  0  0  0  0  0
   23.0875    8.3978   28.1159 C   0  0  0  0  0  0  0  0  0  0  0  0
   24.1700    8.8730   30.2518 C   0  0  0  0  0  0  0  0  0  0  0  0
   22.9437    7.4268   27.0246 C   0  0  0  0  0  0  0  0  0  0  0  0
   21.9662    7.5692   26.0941 O   0  0  0  0  0  0  0  0  0  0  0  0
   27.4421    6.6917   29.0454 C   0  0  0  0  0  0  0  0  0  0  0  0
   23.6527   10.2756   30.1760 C   0  0  0  0  0  0  0  0  0  0  0  0
   28.7668    6.8169   29.5468 C   0  0  0  0  0  0  0  0  0  0  0  0
   23.6275   10.9688   31.3369 O   0  0  0  0  0  0  0  0  0  0  0  0
   23.0391   10.6383   29.1033 C   0  0  0  0  0  0  0  0  0  0  0  0
   23.0247    9.8897   27.6639 C   0  0  0  0  0  0  0  0  0  0  0  0
   23.8743    6.5257   26.8139 N   0  0  0  0  0  0  0  0  0  0  0  0
   25.8931    5.7073   27.1906 O   0  0  0  0  0  0  0  0  0  0  0  0
   23.6437    5.5109   25.8460 C   0  0  0  0  0  0  0  0  0  0  0  0
  1  2  1  0
  2  3  1  0
  2  4  2  0
  4  5  1  0
  4  6  1  0
  5  7  1  0
  7  8  2  0
  1  9  2  3
  6 10  1  0
  9 11  1  0
 10 12  2  0
 10 13  1  0
  5 14  1  0
 13 14  1  0
  3 15  1  0
  7 15  1  0
  3 16  2  0
 15 17  1  0
M  END
>  <ID>  (1) 
conformer_0

$$$$
