
     RDKit          3D

 12 12  0  0  0  0  0  0  0  0999 V2000
   24.3801    9.6460   32.4021 C   0  0  0  0  0  0  0  0  0  0  0  0
   24.0682   10.6602   31.6584 C   0  0  0  0  0  0  0  0  0  0  0  0
   23.6479   10.4989   30.3175 C   0  0  0  0  0  0  0  0  0  0  0  0
   23.3111   11.4685   29.5186 O   0  0  0  0  0  0  0  0  0  0  0  0
   23.5708    9.2201   29.8056 C   0  0  0  0  0  0  0  0  0  0  0  0
   23.0964    8.9711   28.4063 C   0  0  0  0  0  0  0  0  0  0  0  0
   23.5649    7.8826   27.7310 N   0  0  0  0  0  0  0  0  0  0  0  0
   23.0831    7.4477   26.5688 C   0  0  0  0  0  0  0  0  0  0  0  0
   23.7347    6.3109   25.9831 C   0  0  0  0  0  0  0  0  0  0  0  0
   23.9003    8.2090   30.5986 C   0  0  0  0  0  0  0  0  0  0  0  0
   24.3160    8.3656   31.8849 C   0  0  0  0  0  0  0  0  0  0  0  0
   21.7075    7.5593   26.4094 O   0  0  0  0  0  0  0  0  0  0  0  0
  1  2  2  0
  2  3  1  0
  3  4  2  0
  3  5  1  0
  5  6  1  0
  6  7  1  0
  7  8  1  0
  8  9  1  0
  5 10  2  0
  1 11  1  0
 10 11  1  0
  8 12  1  0
M  END
>  <ID>  (1) 
conformer_0

$$$$
