
     RDKit          3D

 10 10  0  0  0  0  0  0  0  0999 V2000
   22.1577    9.8293   28.4265 O   0  0  0  0  0  0  0  0  0  0  0  0
   22.8258    9.3520   27.4641 C   0  0  0  0  0  0  0  0  0  0  0  0
   22.9485    8.0818   27.5425 C   0  0  0  0  0  0  0  0  0  0  0  0
   24.2626    7.5975   27.6602 C   0  0  0  0  0  0  0  0  0  0  0  0
   22.2528    9.7395   26.1512 C   0  0  0  0  0  0  0  0  0  0  0  0
   22.2585    7.2586   28.5466 O   0  0  0  0  0  0  0  0  0  0  0  0
   22.3261    8.6223   25.3016 C   0  0  0  0  0  0  0  0  0  0  0  0
   22.9531   10.9131   25.6889 O   0  0  0  0  0  0  0  0  0  0  0  0
   22.3499    7.5069   26.1930 C   0  0  0  0  0  0  0  0  0  0  0  0
   24.7781    6.7738   26.7049 O   0  0  0  0  0  0  0  0  0  0  0  0
  1  2  1  0
  2  3  1  0
  3  4  1  0
  2  5  1  0
  3  6  1  0
  5  7  1  0
  5  8  1  0
  3  9  1  0
  7  9  1  0
  4 10  1  0
M  END
>  <ID>  (1) 
conformer_0

$$$$
