
     RDKit          3D

 16 16  0  0  0  0  0  0  0  0999 V2000
   22.1577    9.8293   28.4265 O   0  0  0  0  0  0  0  0  0  0  0  0
   23.0530    9.0486   28.6728 C   0  0  0  0  0  0  0  0  0  0  0  0
   23.3808    8.1247   27.6067 C   0  0  0  0  0  0  0  0  0  0  0  0
   24.5376    7.3122   27.7046 C   0  0  0  0  0  0  0  0  0  0  0  0
   22.5016    7.6898   26.5400 C   0  0  0  0  0  0  0  0  0  0  0  0
   24.0029    9.3683   29.6487 C   0  0  0  0  0  0  0  0  0  0  0  0
   22.6189    8.3008   25.4774 O   0  0  0  0  0  0  0  0  0  0  0  0
   24.9146    6.2810   26.8218 C   0  0  0  0  0  0  0  0  0  0  0  0
   21.4112    7.1246   26.8835 O   0  0  0  0  0  0  0  0  0  0  0  0
   25.1913    8.6094   29.7784 C   0  0  0  0  0  0  0  0  0  0  0  0
   23.6980   10.3561   30.5859 C   0  0  0  0  0  0  0  0  0  0  0  0
   25.4389    7.6371   28.8052 C   0  0  0  0  0  0  0  0  0  0  0  0
   24.1790    5.3591   26.4648 N   0  0  0  0  0  0  0  0  0  0  0  0
   26.1943    5.9394   26.7607 O   0  0  0  0  0  0  0  0  0  0  0  0
   23.3868   11.5440   30.3434 O   0  0  0  0  0  0  0  0  0  0  0  0
   24.1512   10.1734   31.8814 O   0  0  0  0  0  0  0  0  0  0  0  0
  1  2  1  0
  2  3  1  0
  3  4  2  0
  3  5  1  0
  2  6  2  0
  5  7  2  0
  4  8  1  0
  5  9  1  0
  6 10  1  0
  6 11  1  0
  4 12  1  0
 10 12  2  0
  8 13  1  0
  8 14  2  0
 11 15  2  0
 11 16  1  0
M  END
>  <ID>  (1) 
conformer_0

$$$$
