
     RDKit          3D

 14 15  0  0  0  0  0  0  0  0999 V2000
   26.3642    7.5807   29.2232 C   0  0  0  0  0  0  0  0  0  0  0  0
   25.1920    7.3699   28.6777 C   0  0  0  0  0  0  0  0  0  0  0  0
   27.3951    6.6256   28.9040 C   0  0  0  0  0  0  0  0  0  0  0  0
   24.9596    6.3648   27.7019 C   0  0  0  0  0  0  0  0  0  0  0  0
   24.0933    8.3072   28.9972 C   0  0  0  0  0  0  0  0  0  0  0  0
   23.1103    8.4888   28.0865 C   0  0  0  0  0  0  0  0  0  0  0  0
   23.6102    6.2452   27.0482 C   0  0  0  0  0  0  0  0  0  0  0  0
   25.9683    5.4922   27.4033 C   0  0  0  0  0  0  0  0  0  0  0  0
   22.1854    9.5036   28.3835 O   0  0  0  0  0  0  0  0  0  0  0  0
   22.3777    7.2309   27.6347 C   0  0  0  0  0  0  0  0  0  0  0  0
   21.5539    7.4150   26.4554 O   0  0  0  0  0  0  0  0  0  0  0  0
   27.0729    5.5936   27.8800 C   0  0  0  0  0  0  0  0  0  0  0  0
   24.5621    9.6235   29.4278 O   0  0  0  0  0  0  0  0  0  0  0  0
   23.1645    5.3125   26.5333 O   0  0  0  0  0  0  0  0  0  0  0  0
  1  2  1  0
  1  3  2  0
  2  4  2  0
  2  5  1  0
  5  6  1  0
  4  7  1  0
  4  8  1  0
  6  9  1  0
  6 10  1  0
  7 10  1  0
 10 11  1  0
  3 12  1  0
  8 12  2  0
  5 13  1  0
  7 14  2  0
M  END
>  <ID>  (1) 
conformer_0

$$$$
