
     RDKit          3D

 12 13  0  0  0  0  0  0  0  0999 V2000
   24.2938    8.7604   32.1456 C   0  0  0  0  0  0  0  0  0  0  0  0
   24.1697    8.7339   30.8903 C   0  0  0  0  0  0  0  0  0  0  0  0
   24.3390    7.9604   29.9810 N   0  0  0  0  0  0  0  0  0  0  0  0
   23.9157    7.9840   28.6979 C   0  0  0  0  0  0  0  0  0  0  0  0
   23.2301    9.0956   28.2588 C   0  0  0  0  0  0  0  0  0  0  0  0
   23.2728    9.9812   30.5267 C   0  0  0  0  0  0  0  0  0  0  0  0
   22.8114    9.0945   26.8462 C   0  0  0  0  0  0  0  0  0  0  0  0
   22.8636   10.1395   29.0451 C   0  0  0  0  0  0  0  0  0  0  0  0
   24.3881    6.9576   27.8186 C   0  0  0  0  0  0  0  0  0  0  0  0
   23.8912    6.9854   26.4582 C   0  0  0  0  0  0  0  0  0  0  0  0
   22.0679   10.1909   26.3304 O   0  0  0  0  0  0  0  0  0  0  0  0
   23.0452    8.0884   26.0394 C   0  0  0  0  0  0  0  0  0  0  0  0
  1  2  1  0
  2  3  1  0
  3  4  2  0
  4  5  1  0
  2  6  2  0
  5  7  1  0
  5  8  2  0
  6  8  1  0
  4  9  1  0
  9 10  2  0
  7 11  1  0
  7 12  2  0
 10 12  1  0
M  END
>  <ID>  (1) 
conformer_0

$$$$
