
     RDKit          3D

 11 11  0  0  0  0  0  0  0  0999 V2000
   22.1577    9.8293   28.4265 O   0  0  0  0  0  0  0  0  0  0  0  0
   22.8258    9.3520   27.4641 C   0  0  0  0  0  0  0  0  0  0  0  0
   23.7108    8.5192   27.8363 O   0  0  0  0  0  0  0  0  0  0  0  0
   23.9417    7.3323   27.1569 C   0  0  0  0  0  0  0  0  0  0  0  0
   22.5614    9.5709   26.2014 C   0  0  0  0  0  0  0  0  0  0  0  0
   23.7557    7.4175   25.8114 C   0  0  0  0  0  0  0  0  0  0  0  0
   25.2643    6.6388   27.6296 C   0  0  0  0  0  0  0  0  0  0  0  0
   23.5419    6.2715   25.2554 O   0  0  0  0  0  0  0  0  0  0  0  0
   22.7467   10.7021   29.4386 C   0  0  0  0  0  0  0  0  0  0  0  0
   25.1605    5.5918   28.1692 O   0  0  0  0  0  0  0  0  0  0  0  0
   22.7970    8.4789   25.2882 C   0  0  0  0  0  0  0  0  0  0  0  0
  1  2  1  0
  2  3  1  0
  3  4  1  0
  2  5  2  0
  4  6  1  0
  4  7  1  0
  6  8  1  0
  1  9  1  0
  7 10  1  0
  5 11  1  0
  6 11  1  0
M  END
>  <ID>  (1) 
conformer_0

$$$$
