
     RDKit          3D

 17 19  0  0  0  0  0  0  0  0999 V2000
   26.3642    7.5807   29.2232 C   0  0  0  0  0  0  0  0  0  0  0  0
   25.1920    7.3699   28.6777 C   0  0  0  0  0  0  0  0  0  0  0  0
   25.0194    6.5380   27.5696 C   0  0  0  0  0  0  0  0  0  0  0  0
   25.9183    5.5680   27.2580 C   0  0  0  0  0  0  0  0  0  0  0  0
   24.1487    8.3046   29.0565 C   0  0  0  0  0  0  0  0  0  0  0  0
   22.9808    8.4929   28.2978 C   0  0  0  0  0  0  0  0  0  0  0  0
   23.7338    6.3136   26.8751 C   0  0  0  0  0  0  0  0  0  0  0  0
   22.7104    7.4244   27.2598 C   0  0  0  0  0  0  0  0  0  0  0  0
   21.4519    7.3188   26.6490 O   0  0  0  0  0  0  0  0  0  0  0  0
   27.4064    6.6351   28.8812 C   0  0  0  0  0  0  0  0  0  0  0  0
   25.7356    4.6065   26.2532 C   0  0  0  0  0  0  0  0  0  0  0  0
   27.3009    5.6823   27.8978 C   0  0  0  0  0  0  0  0  0  0  0  0
   24.3825    9.4183   30.0715 C   0  0  0  0  0  0  0  0  0  0  0  0
   24.1854    9.1329   31.3229 C   0  0  0  0  0  0  0  0  0  0  0  0
   23.4714   10.6834   29.9457 C   0  0  0  0  0  0  0  0  0  0  0  0
   23.4184    5.2730   26.3599 C   0  0  0  0  0  0  0  0  0  0  0  0
   24.4544    4.4483   25.8260 C   0  0  0  0  0  0  0  0  0  0  0  0
  1  2  1  0
  2  3  1  0
  3  4  2  0
  2  5  2  0
  5  6  1  0
  3  7  1  0
  6  8  2  0
  7  8  1  0
  8  9  1  0
  1 10  1  0
  4 11  1  0
  4 12  1  0
 10 12  2  0
  5 13  1  0
 13 14  1  0
 13 15  1  0
  7 16  2  0
 11 17  2  0
 16 17  1  0
M  END
>  <ID>  (1) 
conformer_0

$$$$
