
     RDKit          3D

  5  4  0  0  0  0  0  0  0  0999 V2000
   24.3801    9.6460   32.4021 C   0  0  0  0  0  0  0  0  0  0  0  0
   24.1581    9.3087   31.2217 C   0  0  0  0  0  0  0  0  0  0  0  0
   23.6971   10.3675   30.3032 C   0  0  0  0  0  0  0  0  0  0  0  0
   23.4416    8.1275   31.0667 O   0  0  0  0  0  0  0  0  0  0  0  0
   25.6153    9.1217   30.5955 C   0  0  0  0  0  0  0  0  0  0  0  0
  1  2  1  0
  2  3  1  0
  2  4  1  0
  2  5  1  0
M  END
>  <ID>  (1) 
conformer_0

$$$$
