
     RDKit          3D

 13 13  0  0  0  0  0  0  0  0999 V2000
   21.9946    9.0274   29.1597 O   0  0  0  0  0  0  0  0  0  0  0  0
   23.0770    9.3659   28.7769 C   0  0  0  0  0  0  0  0  0  0  0  0
   24.0149    9.6479   29.6175 O   0  0  0  0  0  0  0  0  0  0  0  0
   24.5579    8.9503   30.4609 C   0  0  0  0  0  0  0  0  0  0  0  0
   24.5399    9.2169   31.8053 C   0  0  0  0  0  0  0  0  0  0  0  0
   25.2540    7.9001   29.8881 C   0  0  0  0  0  0  0  0  0  0  0  0
   25.3818    7.6585   28.4510 C   0  0  0  0  0  0  0  0  0  0  0  0
   26.0003    6.3784   28.1936 O   0  0  0  0  0  0  0  0  0  0  0  0
   26.0736    7.1470   30.7844 C   0  0  0  0  0  0  0  0  0  0  0  0
   25.3030    8.3313   32.6715 C   0  0  0  0  0  0  0  0  0  0  0  0
   23.3941    9.2389   27.3592 O   0  0  0  0  0  0  0  0  0  0  0  0
   26.0043    7.3210   32.1317 C   0  0  0  0  0  0  0  0  0  0  0  0
   25.6948    5.8646   26.9651 C   0  0  0  0  0  0  0  0  0  0  0  0
  1  2  1  0
  2  3  1  0
  3  4  1  0
  4  5  1  0
  4  6  2  0
  6  7  1  0
  7  8  1  0
  6  9  1  0
  5 10  2  0
  2 11  2  0
  9 12  2  0
 10 12  1  0
  8 13  1  0
M  END
>  <ID>  (1) 
conformer_0

$$$$
