
     RDKit          3D

 17 19  0  0  0  0  0  0  0  0999 V2000
   24.3801    9.6460   32.4021 C   0  0  0  0  0  0  0  0  0  0  0  0
   24.0682   10.6602   31.6584 C   0  0  0  0  0  0  0  0  0  0  0  0
   23.6479   10.4989   30.3175 C   0  0  0  0  0  0  0  0  0  0  0  0
   23.3111   11.4685   29.5186 O   0  0  0  0  0  0  0  0  0  0  0  0
   23.5708    9.2201   29.8056 C   0  0  0  0  0  0  0  0  0  0  0  0
   23.0964    8.9711   28.4063 C   0  0  0  0  0  0  0  0  0  0  0  0
   23.5649    7.8826   27.7310 N   0  0  0  0  0  0  0  0  0  0  0  0
   23.0831    7.4477   26.5688 C   0  0  0  0  0  0  0  0  0  0  0  0
   23.7347    6.3109   25.9831 C   0  0  0  0  0  0  0  0  0  0  0  0
   22.2086    8.0198   25.8943 O   0  0  0  0  0  0  0  0  0  0  0  0
   24.7826    9.8090   33.7442 N   0  0  0  0  0  0  0  0  0  0  0  0
   24.4934    8.2445   31.8122 N   0  0  0  0  0  0  0  0  0  0  0  0
   24.6785    7.1696   28.3528 C   0  0  0  0  0  0  0  0  0  0  0  0
   24.1430    8.2006   30.5845 C   0  0  0  0  0  0  0  0  0  0  0  0
   25.2472    6.2521   27.7030 C   0  0  0  0  0  0  0  0  0  0  0  0
   24.7976    7.2051   29.8226 N   0  0  0  0  0  0  0  0  0  0  0  0
   24.8364    5.7794   26.5279 C   0  0  0  0  0  0  0  0  0  0  0  0
  1  2  2  0
  2  3  1  0
  3  4  2  0
  3  5  1  0
  5  6  1  0
  6  7  1  0
  7  8  1  0
  8  9  1  0
  8 10  2  0
  1 11  1  0
  1 12  1  0
  7 13  1  0
  5 14  1  0
 12 14  1  0
 13 15  2  0
 13 16  1  0
 14 16  2  0
  9 17  2  0
 15 17  1  0
M  END
>  <ID>  (1) 
conformer_0

$$$$
