
     RDKit          3D

 17 19  0  0  0  0  0  0  0  0999 V2000
   26.3642    7.5807   29.2232 C   0  0  0  0  0  0  0  0  0  0  0  0
   25.1920    7.3699   28.6777 C   0  0  0  0  0  0  0  0  0  0  0  0
   25.0194    6.5380   27.5696 C   0  0  0  0  0  0  0  0  0  0  0  0
   25.9183    5.5680   27.2580 C   0  0  0  0  0  0  0  0  0  0  0  0
   24.1487    8.3046   29.0565 C   0  0  0  0  0  0  0  0  0  0  0  0
   23.6795    6.3476   26.9022 C   0  0  0  0  0  0  0  0  0  0  0  0
   23.5658    5.5701   25.8524 C   0  0  0  0  0  0  0  0  0  0  0  0
   26.4620    8.3248   30.3616 C   0  0  0  0  0  0  0  0  0  0  0  0
   22.6153    7.1519   27.3360 C   0  0  0  0  0  0  0  0  0  0  0  0
   27.2729    5.4322   27.8538 C   0  0  0  0  0  0  0  0  0  0  0  0
   27.4397    6.5344   28.9080 C   0  0  0  0  0  0  0  0  0  0  0  0
   25.1230    9.1187   30.4121 C   0  0  0  0  0  0  0  0  0  0  0  0
   22.8302    8.4489   28.6961 S   0  0  0  0  0  0  0  0  0  0  0  0
   25.0747   10.4419   29.6258 O   0  0  0  0  0  0  0  0  0  0  0  0
   22.2172    5.5704   25.2575 O   0  0  0  0  0  0  0  0  0  0  0  0
   24.2739    4.6425   25.6032 O   0  0  0  0  0  0  0  0  0  0  0  0
   24.5594    9.2933   31.7022 C   0  0  0  0  0  0  0  0  0  0  0  0
  1  2  1  0
  2  3  1  0
  3  4  2  0
  2  5  2  0
  3  6  1  0
  6  7  1  0
  1  8  2  0
  6  9  2  0
  4 10  1  0
  1 11  1  0
 10 11  2  0
  5 12  1  0
  8 12  1  0
  5 13  1  0
  9 13  1  0
 12 14  1  0
  7 15  2  0
  7 16  1  0
 12 17  1  0
M  END
>  <ID>  (1) 
conformer_0

$$$$
