
     RDKit          3D

 15 17  0  0  0  0  0  0  0  0999 V2000
   26.3642    7.5807   29.2232 C   0  0  0  0  0  0  0  0  0  0  0  0
   25.1920    7.3699   28.6777 C   0  0  0  0  0  0  0  0  0  0  0  0
   25.0194    6.5380   27.5696 C   0  0  0  0  0  0  0  0  0  0  0  0
   24.2451    8.1716   28.8732 C   0  0  0  0  0  0  0  0  0  0  0  0
   23.0875    8.3978   28.1159 C   0  0  0  0  0  0  0  0  0  0  0  0
   22.8525    7.4310   27.1017 C   0  0  0  0  0  0  0  0  0  0  0  0
   21.9361    9.3483   28.6152 C   0  0  0  0  0  0  0  0  0  0  0  0
   23.8817    6.5107   26.8108 C   0  0  0  0  0  0  0  0  0  0  0  0
   24.3709    9.0811   30.0257 N   0  0  0  0  0  0  0  0  0  0  0  0
   21.4779    7.3145   26.2708 C   0  0  0  0  0  0  0  0  0  0  0  0
   26.0494    5.5810   27.1308 C   0  0  0  0  0  0  0  0  0  0  0  0
   23.3723   10.0191   30.5557 C   0  0  0  0  0  0  0  0  0  0  0  0
   22.5024   10.4802   29.4777 C   0  0  0  0  0  0  0  0  0  0  0  0
   27.3410    6.5739   29.1007 C   0  0  0  0  0  0  0  0  0  0  0  0
   27.2483    5.7156   27.8897 C   0  0  0  0  0  0  0  0  0  0  0  0
  1  2  1  0
  2  3  1  0
  2  4  2  0
  4  5  1  0
  5  6  2  0
  5  7  1  0
  3  8  2  0
  6  8  1  0
  4  9  1  0
  6 10  1  0
  3 11  1  0
  9 12  1  0
  7 13  1  0
 12 13  1  0
  1 14  2  0
 11 15  2  0
 14 15  1  0
M  END
>  <ID>  (1) 
conformer_0

$$$$
