
     RDKit          3D

 17 18  0  0  0  0  0  0  0  0999 V2000
   26.3642    7.5807   29.2232 C   0  0  0  0  0  0  0  0  0  0  0  0
   25.1920    7.3699   28.6777 C   0  0  0  0  0  0  0  0  0  0  0  0
   27.3951    6.6256   28.9040 C   0  0  0  0  0  0  0  0  0  0  0  0
   24.9596    6.3648   27.7019 C   0  0  0  0  0  0  0  0  0  0  0  0
   24.0933    8.3072   28.9972 C   0  0  0  0  0  0  0  0  0  0  0  0
   23.1103    8.4888   28.0865 C   0  0  0  0  0  0  0  0  0  0  0  0
   23.6102    6.2452   27.0482 C   0  0  0  0  0  0  0  0  0  0  0  0
   25.9683    5.4922   27.4033 C   0  0  0  0  0  0  0  0  0  0  0  0
   23.4299    7.9520   30.2988 O   0  0  0  0  0  0  0  0  0  0  0  0
   22.5751    7.2696   27.4884 N   0  0  0  0  0  0  0  0  0  0  0  0
   23.3280    5.4583   26.3190 O   0  0  0  0  0  0  0  0  0  0  0  0
   21.5624    7.4640   26.3805 C   0  0  0  0  0  0  0  0  0  0  0  0
   23.4592    9.4509   26.9365 C   0  0  0  0  0  0  0  0  0  0  0  0
   25.7222    4.4769   26.3814 O   0  0  0  0  0  0  0  0  0  0  0  0
   24.6263    9.6640   29.5140 O   0  0  0  0  0  0  0  0  0  0  0  0
   21.8564    9.2517   28.6604 C   0  0  0  0  0  0  0  0  0  0  0  0
   27.1870    5.6828   27.8901 C   0  0  0  0  0  0  0  0  0  0  0  0
  1  2  1  0
  1  3  2  0
  2  4  2  0
  2  5  1  0
  5  6  1  0
  4  7  1  0
  4  8  1  0
  5  9  1  0
  6 10  1  0
  7 10  1  0
  7 11  2  0
 10 12  1  0
  6 13  1  0
  8 14  1  0
  5 15  1  0
  6 16  1  0
  3 17  1  0
  8 17  2  0
M  END
>  <ID>  (1) 
conformer_0

$$$$
