
     RDKit          3D

 17 19  0  0  0  0  0  0  0  0999 V2000
   24.2938    8.7604   32.1456 C   0  0  0  0  0  0  0  0  0  0  0  0
   24.1697    8.7339   30.8903 C   0  0  0  0  0  0  0  0  0  0  0  0
   24.2220    7.5571   30.0094 N   0  0  0  0  0  0  0  0  0  0  0  0
   24.1961    7.5981   28.7156 C   0  0  0  0  0  0  0  0  0  0  0  0
   23.8805    8.7922   28.0317 N   0  0  0  0  0  0  0  0  0  0  0  0
   23.7594    8.7584   26.6118 C   0  0  0  0  0  0  0  0  0  0  0  0
   23.6092    7.4534   26.1016 C   0  0  0  0  0  0  0  0  0  0  0  0
   22.4723    9.6198   26.3460 C   0  0  0  0  0  0  0  0  0  0  0  0
   22.2805    9.8910   25.1694 O   0  0  0  0  0  0  0  0  0  0  0  0
   21.8808   10.2382   27.2352 O   0  0  0  0  0  0  0  0  0  0  0  0
   24.3282    6.4065   27.9493 C   0  0  0  0  0  0  0  0  0  0  0  0
   23.8843    6.2284   26.8365 C   0  0  0  0  0  0  0  0  0  0  0  0
   23.7235    9.8777   28.8049 C   0  0  0  0  0  0  0  0  0  0  0  0
   23.7399    9.8642   30.1723 C   0  0  0  0  0  0  0  0  0  0  0  0
   23.5556    5.0496   26.2655 O   0  0  0  0  0  0  0  0  0  0  0  0
   23.8434   10.9733   31.1551 C   0  0  0  0  0  0  0  0  0  0  0  0
   24.1185   10.3712   32.4570 C   0  0  0  0  0  0  0  0  0  0  0  0
  1  2  1  0
  2  3  1  0
  3  4  2  0
  4  5  1  0
  5  6  1  0
  6  7  1  0
  6  8  1  0
  8  9  2  0
  8 10  1  0
  4 11  1  0
  7 12  1  0
 11 12  1  0
  5 13  1  0
  2 14  2  0
 13 14  1  0
 12 15  2  0
 14 16  1  0
  1 17  1  0
 16 17  2  0
M  END
>  <ID>  (1) 
conformer_0

$$$$
