
     RDKit          3D

 16 18  0  0  0  0  0  0  0  0999 V2000
   26.3642    7.5807   29.2232 C   0  0  0  0  0  0  0  0  0  0  0  0
   25.1920    7.3699   28.6777 C   0  0  0  0  0  0  0  0  0  0  0  0
   25.0194    6.5380   27.5696 C   0  0  0  0  0  0  0  0  0  0  0  0
   26.4034    8.3938   30.3532 C   0  0  0  0  0  0  0  0  0  0  0  0
   23.8460    6.6179   26.8377 C   0  0  0  0  0  0  0  0  0  0  0  0
   24.0216    8.0744   29.1521 C   0  0  0  0  0  0  0  0  0  0  0  0
   25.9733    5.7099   27.1177 C   0  0  0  0  0  0  0  0  0  0  0  0
   22.6892    7.8746   28.5487 C   0  0  0  0  0  0  0  0  0  0  0  0
   27.7350    8.6471   30.9232 O   0  0  0  0  0  0  0  0  0  0  0  0
   22.6497    7.2437   27.3838 C   0  0  0  0  0  0  0  0  0  0  0  0
   27.8373    9.3362   31.9770 C   0  0  0  0  0  0  0  0  0  0  0  0
   25.7878    4.9925   25.9766 C   0  0  0  0  0  0  0  0  0  0  0  0
   25.2398    8.9909   30.8794 C   0  0  0  0  0  0  0  0  0  0  0  0
   24.1075    8.9908   30.2802 C   0  0  0  0  0  0  0  0  0  0  0  0
   24.6088    4.9308   25.3993 C   0  0  0  0  0  0  0  0  0  0  0  0
   23.5883    5.7481   25.8251 C   0  0  0  0  0  0  0  0  0  0  0  0
  1  2  1  0
  2  3  1  0
  1  4  2  0
  3  5  1  0
  2  6  2  0
  3  7  2  0
  6  8  1  0
  4  9  1  0
  5 10  1  0
  8 10  2  0
  9 11  1  0
  7 12  1  0
  4 13  1  0
  6 14  1  0
 13 14  2  0
 12 15  2  0
  5 16  2  0
 15 16  1  0
M  END
>  <ID>  (1) 
conformer_0

$$$$
