
     RDKit          3D

 17 19  0  0  0  0  0  0  0  0999 V2000
   24.2938    8.7604   32.1456 C   0  0  0  0  0  0  0  0  0  0  0  0
   24.1697    8.7339   30.8903 C   0  0  0  0  0  0  0  0  0  0  0  0
   24.2220    7.5571   30.0094 N   0  0  0  0  0  0  0  0  0  0  0  0
   24.1961    7.5981   28.7156 C   0  0  0  0  0  0  0  0  0  0  0  0
   23.8805    8.7922   28.0317 N   0  0  0  0  0  0  0  0  0  0  0  0
   23.7594    8.7584   26.6118 C   0  0  0  0  0  0  0  0  0  0  0  0
   23.6092    7.4534   26.1016 C   0  0  0  0  0  0  0  0  0  0  0  0
   22.4723    9.6198   26.3460 C   0  0  0  0  0  0  0  0  0  0  0  0
   23.7439    9.9299   30.1872 C   0  0  0  0  0  0  0  0  0  0  0  0
   23.5144   10.0022   28.7160 C   0  0  0  0  0  0  0  0  0  0  0  0
   24.2737    9.9225   32.8979 C   0  0  0  0  0  0  0  0  0  0  0  0
   24.3703    6.3963   27.9501 C   0  0  0  0  0  0  0  0  0  0  0  0
   23.2014   10.9871   28.1771 O   0  0  0  0  0  0  0  0  0  0  0  0
   23.7432   11.1118   30.8874 C   0  0  0  0  0  0  0  0  0  0  0  0
   23.9677   11.0777   32.2805 C   0  0  0  0  0  0  0  0  0  0  0  0
   21.3757    8.7688   26.1697 O   0  0  0  0  0  0  0  0  0  0  0  0
   24.6707    6.6642   26.5629 C   0  0  0  0  0  0  0  0  0  0  0  0
  1  2  1  0
  2  3  1  0
  3  4  2  0
  4  5  1  0
  5  6  1  0
  6  7  1  0
  6  8  1  0
  2  9  2  0
  5 10  1  0
  9 10  1  0
  1 11  2  0
  4 12  1  0
 10 13  2  0
  9 14  1  0
 11 15  1  0
 14 15  2  0
  8 16  1  0
  7 17  1  0
 12 17  1  0
M  END
>  <ID>  (1) 
conformer_0

$$$$
