
     RDKit          3D

 12 13  0  0  0  0  0  0  0  0999 V2000
   24.7429    8.2524   32.8158 C   0  0  0  0  0  0  0  0  0  0  0  0
   24.4577    8.6249   31.6406 C   0  0  0  0  0  0  0  0  0  0  0  0
   24.4439    7.6814   30.6009 N   0  0  0  0  0  0  0  0  0  0  0  0
   24.9828    6.5689   30.8746 N   0  0  0  0  0  0  0  0  0  0  0  0
   23.7870    9.9492   31.4605 C   0  0  0  0  0  0  0  0  0  0  0  0
   25.3510    6.1487   32.0388 C   0  0  0  0  0  0  0  0  0  0  0  0
   24.2120   10.9783   32.2407 C   0  0  0  0  0  0  0  0  0  0  0  0
   25.8899    4.7489   32.2764 C   0  0  0  0  0  0  0  0  0  0  0  0
   24.6297    9.1888   33.9623 C   0  0  0  0  0  0  0  0  0  0  0  0
   24.9276   10.5273   33.5737 C   0  0  0  0  0  0  0  0  0  0  0  0
   25.3330    6.9509   33.1709 N   0  0  0  0  0  0  0  0  0  0  0  0
   23.9432   10.5418   30.0159 C   0  0  0  0  0  0  0  0  0  0  0  0
  1  2  1  0
  2  3  2  0
  3  4  1  0
  2  5  1  0
  4  6  2  0
  5  7  1  0
  6  8  1  0
  1  9  1  0
  7 10  1  0
  9 10  1  0
  1 11  2  0
  6 11  1  0
  5 12  1  0
M  END
>  <ID>  (1) 
conformer_0

$$$$
