
     RDKit          3D

 11 11  0  0  0  0  0  0  0  0999 V2000
   22.1577    9.8293   28.4265 O   0  0  0  0  0  0  0  0  0  0  0  0
   22.8258    9.3520   27.4641 C   0  0  0  0  0  0  0  0  0  0  0  0
   23.7108    8.5192   27.8363 O   0  0  0  0  0  0  0  0  0  0  0  0
   23.9417    7.3323   27.1569 C   0  0  0  0  0  0  0  0  0  0  0  0
   22.5614    9.5709   26.2014 C   0  0  0  0  0  0  0  0  0  0  0  0
   25.0013    6.4336   27.7143 C   0  0  0  0  0  0  0  0  0  0  0  0
   26.2553    6.8376   27.5826 O   0  0  0  0  0  0  0  0  0  0  0  0
   27.2248    5.8533   27.8139 C   0  0  0  0  0  0  0  0  0  0  0  0
   23.0002    8.7445   25.2541 C   0  0  0  0  0  0  0  0  0  0  0  0
   22.6850   10.1338   29.7246 C   0  0  0  0  0  0  0  0  0  0  0  0
   24.1348    7.8071   25.7628 C   0  0  0  0  0  0  0  0  0  0  0  0
  1  2  1  0
  2  3  1  0
  3  4  1  0
  2  5  2  0
  4  6  1  0
  6  7  1  0
  7  8  1  0
  5  9  1  0
  1 10  1  0
  4 11  1  0
  9 11  2  0
M  END
>  <ID>  (1) 
conformer_0

$$$$
