
     RDKit          3D

 10 10  0  0  0  0  0  0  0  0999 V2000
   22.1577    9.8293   28.4265 O   0  0  0  0  0  0  0  0  0  0  0  0
   22.8258    9.3520   27.4641 C   0  0  0  0  0  0  0  0  0  0  0  0
   23.7108    8.5192   27.8363 O   0  0  0  0  0  0  0  0  0  0  0  0
   23.9417    7.3323   27.1569 C   0  0  0  0  0  0  0  0  0  0  0  0
   22.5614    9.5709   26.2014 C   0  0  0  0  0  0  0  0  0  0  0  0
   23.7557    7.4175   25.8114 C   0  0  0  0  0  0  0  0  0  0  0  0
   25.2643    6.6388   27.6296 C   0  0  0  0  0  0  0  0  0  0  0  0
   22.9236    6.1612   27.6937 C   0  0  0  0  0  0  0  0  0  0  0  0
   22.9384    8.7059   25.2659 C   0  0  0  0  0  0  0  0  0  0  0  0
   22.6876   10.8895   29.3158 C   0  0  0  0  0  0  0  0  0  0  0  0
  1  2  1  0
  2  3  1  0
  3  4  1  0
  2  5  2  0
  4  6  1  0
  4  7  1  0
  4  8  1  0
  5  9  1  0
  6  9  2  0
  1 10  1  0
M  END
>  <ID>  (1) 
conformer_0

$$$$
