
     RDKit          3D

 13 14  0  0  0  0  0  0  0  0999 V2000
   22.1577    9.8293   28.4265 O   0  0  0  0  0  0  0  0  0  0  0  0
   23.0530    9.0486   28.6728 C   0  0  0  0  0  0  0  0  0  0  0  0
   23.3808    8.1247   27.6067 C   0  0  0  0  0  0  0  0  0  0  0  0
   22.8592    8.2505   29.8249 C   0  0  0  0  0  0  0  0  0  0  0  0
   24.3518    7.1878   27.7554 C   0  0  0  0  0  0  0  0  0  0  0  0
   24.2889    6.5520   28.9296 O   0  0  0  0  0  0  0  0  0  0  0  0
   24.1284    7.3801   29.9984 C   0  0  0  0  0  0  0  0  0  0  0  0
   24.8341    6.4762   26.7211 C   0  0  0  0  0  0  0  0  0  0  0  0
   21.8592    7.2904   29.7000 O   0  0  0  0  0  0  0  0  0  0  0  0
   24.7380    6.9693   25.4627 C   0  0  0  0  0  0  0  0  0  0  0  0
   23.7089    8.9140   26.4425 C   0  0  0  0  0  0  0  0  0  0  0  0
   22.7462    9.9923   26.0564 O   0  0  0  0  0  0  0  0  0  0  0  0
   23.9207    8.0078   25.3190 C   0  0  0  0  0  0  0  0  0  0  0  0
  1  2  1  0
  2  3  1  0
  2  4  1  0
  3  5  1  0
  5  6  1  0
  4  7  1  0
  6  7  1  0
  5  8  2  0
  4  9  1  0
  8 10  1  0
  3 11  1  0
 11 12  1  0
 10 13  1  0
 11 13  1  0
M  END
>  <ID>  (1) 
conformer_0

$$$$
