
     RDKit          3D

 14 15  0  0  0  0  0  0  0  0999 V2000
   26.3642    7.5807   29.2232 C   0  0  0  0  0  0  0  0  0  0  0  0
   25.1920    7.3699   28.6777 C   0  0  0  0  0  0  0  0  0  0  0  0
   25.0194    6.5380   27.5696 C   0  0  0  0  0  0  0  0  0  0  0  0
   24.2451    8.1716   28.8732 C   0  0  0  0  0  0  0  0  0  0  0  0
   23.0875    8.3978   28.1159 C   0  0  0  0  0  0  0  0  0  0  0  0
   24.1700    8.8730   30.2518 C   0  0  0  0  0  0  0  0  0  0  0  0
   22.9437    7.4268   27.0246 C   0  0  0  0  0  0  0  0  0  0  0  0
   21.9662    7.5692   26.0941 O   0  0  0  0  0  0  0  0  0  0  0  0
   26.3937    8.2358   30.5049 C   0  0  0  0  0  0  0  0  0  0  0  0
   27.6678    8.3892   31.1869 O   0  0  0  0  0  0  0  0  0  0  0  0
   23.9491    6.5414   26.7842 N   0  0  0  0  0  0  0  0  0  0  0  0
   23.0059    9.6846   30.6245 C   0  0  0  0  0  0  0  0  0  0  0  0
   23.7374    5.5716   25.6915 C   0  0  0  0  0  0  0  0  0  0  0  0
   25.3611    9.0026   30.8840 C   0  0  0  0  0  0  0  0  0  0  0  0
  1  2  1  0
  2  3  1  0
  2  4  2  0
  4  5  1  0
  4  6  1  0
  5  7  1  0
  7  8  2  0
  1  9  2  0
  9 10  1  0
  3 11  1  0
  7 11  1  0
  6 12  1  0
 11 13  1  0
  6 14  2  0
  9 14  1  0
M  END
>  <ID>  (1) 
conformer_0

$$$$
