
     RDKit          3D

 17 19  0  0  0  0  0  0  0  0999 V2000
   26.3642    7.5807   29.2232 C   0  0  0  0  0  0  0  0  0  0  0  0
   25.1920    7.3699   28.6777 C   0  0  0  0  0  0  0  0  0  0  0  0
   25.0194    6.5380   27.5696 C   0  0  0  0  0  0  0  0  0  0  0  0
   25.9183    5.5680   27.2580 C   0  0  0  0  0  0  0  0  0  0  0  0
   24.1487    8.3046   29.0565 C   0  0  0  0  0  0  0  0  0  0  0  0
   22.9808    8.4929   28.2978 C   0  0  0  0  0  0  0  0  0  0  0  0
   23.7338    6.3136   26.8751 C   0  0  0  0  0  0  0  0  0  0  0  0
   22.7104    7.4244   27.2598 C   0  0  0  0  0  0  0  0  0  0  0  0
   21.4519    7.3188   26.6490 O   0  0  0  0  0  0  0  0  0  0  0  0
   27.4064    6.6351   28.8812 C   0  0  0  0  0  0  0  0  0  0  0  0
   25.7356    4.6065   26.2532 C   0  0  0  0  0  0  0  0  0  0  0  0
   22.1444    9.5193   28.3524 O   0  0  0  0  0  0  0  0  0  0  0  0
   27.2446    5.7459   27.8743 C   0  0  0  0  0  0  0  0  0  0  0  0
   24.4003    9.4276   30.0047 C   0  0  0  0  0  0  0  0  0  0  0  0
   23.3317    5.1828   26.4193 C   0  0  0  0  0  0  0  0  0  0  0  0
   23.2699    9.7754   30.6836 O   0  0  0  0  0  0  0  0  0  0  0  0
   24.4263    4.3963   25.8711 C   0  0  0  0  0  0  0  0  0  0  0  0
  1  2  1  0
  2  3  1  0
  3  4  2  0
  2  5  2  0
  5  6  1  0
  3  7  1  0
  6  8  2  0
  7  8  1  0
  8  9  1  0
  1 10  1  0
  4 11  1  0
  6 12  1  0
  4 13  1  0
 10 13  2  0
  5 14  1  0
  7 15  2  0
 14 16  1  0
 11 17  2  0
 15 17  1  0
M  END
>  <ID>  (1) 
conformer_0

$$$$
