
     RDKit          3D

 12 12  0  0  0  0  0  0  0  0999 V2000
   23.4429   10.7051   30.2962 C   0  0  0  0  0  0  0  0  0  0  0  0
   23.2461    9.5750   29.7152 C   0  0  0  0  0  0  0  0  0  0  0  0
   23.8952    8.5128   29.9028 C   0  0  0  0  0  0  0  0  0  0  0  0
   22.2378    9.6013   28.6498 O   0  0  0  0  0  0  0  0  0  0  0  0
   22.5575    9.6184   27.3358 C   0  0  0  0  0  0  0  0  0  0  0  0
   24.8701    8.3873   30.8654 C   0  0  0  0  0  0  0  0  0  0  0  0
   24.4084   10.6666   31.4045 C   0  0  0  0  0  0  0  0  0  0  0  0
   22.8398   10.6194   26.7360 O   0  0  0  0  0  0  0  0  0  0  0  0
   25.0792    9.5405   31.6620 C   0  0  0  0  0  0  0  0  0  0  0  0
   22.1628    8.4046   26.5782 C   0  0  0  0  0  0  0  0  0  0  0  0
   21.5083    7.4763   27.1978 O   0  0  0  0  0  0  0  0  0  0  0  0
   21.7052    8.6674   25.2944 O   0  0  0  0  0  0  0  0  0  0  0  0
  1  2  1  0
  2  3  2  0
  2  4  1  0
  4  5  1  0
  3  6  1  0
  1  7  2  0
  5  8  2  0
  6  9  2  0
  7  9  1  0
  5 10  1  0
 10 11  1  0
 10 12  1  0
M  END
>  <ID>  (1) 
conformer_0

$$$$
