
     RDKit          3D

 16 16  0  0  0  0  0  0  0  0999 V2000
   24.2938    8.7604   32.1456 C   0  0  0  0  0  0  0  0  0  0  0  0
   24.1697    8.7339   30.8903 C   0  0  0  0  0  0  0  0  0  0  0  0
   24.6655    9.8379   32.7859 C   0  0  0  0  0  0  0  0  0  0  0  0
   23.8598    7.6045   29.9975 N   0  0  0  0  0  0  0  0  0  0  0  0
   24.5632   11.0811   32.1670 C   0  0  0  0  0  0  0  0  0  0  0  0
   22.9904    7.6643   29.0459 C   0  0  0  0  0  0  0  0  0  0  0  0
   24.0433   11.2397   31.0972 N   0  0  0  0  0  0  0  0  0  0  0  0
   23.4956    7.0764   27.7346 C   0  0  0  0  0  0  0  0  0  0  0  0
   22.6292    7.1772   26.7060 C   0  0  0  0  0  0  0  0  0  0  0  0
   24.0741    5.7605   27.8107 C   0  0  0  0  0  0  0  0  0  0  0  0
   23.8288   10.0405   30.3089 C   0  0  0  0  0  0  0  0  0  0  0  0
   23.3588    4.8140   27.4581 O   0  0  0  0  0  0  0  0  0  0  0  0
   24.6633    8.2160   27.5190 C   0  0  0  0  0  0  0  0  0  0  0  0
   21.4848    7.2989   26.7761 O   0  0  0  0  0  0  0  0  0  0  0  0
   22.9661    7.2504   25.3854 O   0  0  0  0  0  0  0  0  0  0  0  0
   25.3646    5.5661   28.1264 O   0  0  0  0  0  0  0  0  0  0  0  0
  1  2  1  0
  1  3  2  0
  2  4  1  0
  3  5  1  0
  4  6  1  0
  5  7  2  0
  6  8  1  0
  8  9  1  0
  8 10  1  0
  2 11  2  0
  7 11  1  0
 10 12  1  0
  8 13  1  0
  9 14  1  0
  9 15  2  0
 10 16  2  0
M  END
>  <ID>  (1) 
conformer_0

$$$$
