
     RDKit          3D

 11 12  0  0  0  0  0  0  0  0999 V2000
   26.3642    7.5807   29.2232 C   0  0  0  0  0  0  0  0  0  0  0  0
   25.1920    7.3699   28.6777 C   0  0  0  0  0  0  0  0  0  0  0  0
   25.0194    6.5380   27.5696 C   0  0  0  0  0  0  0  0  0  0  0  0
   24.0780    7.7565   29.3053 C   0  0  0  0  0  0  0  0  0  0  0  0
   23.7643    6.4357   26.9380 C   0  0  0  0  0  0  0  0  0  0  0  0
   22.8564    7.5102   27.3362 N   0  0  0  0  0  0  0  0  0  0  0  0
   26.5353    8.3375   30.3855 C   0  0  0  0  0  0  0  0  0  0  0  0
   22.7862    7.5946   28.6711 C   0  0  0  0  0  0  0  0  0  0  0  0
   21.5546    7.3624   26.5979 C   0  0  0  0  0  0  0  0  0  0  0  0
   24.2250    8.6265   30.4562 C   0  0  0  0  0  0  0  0  0  0  0  0
   25.4041    8.8684   30.9789 C   0  0  0  0  0  0  0  0  0  0  0  0
  1  2  1  0
  2  3  1  0
  2  4  2  0
  3  5  1  0
  5  6  1  0
  1  7  2  0
  4  8  1  0
  6  8  1  0
  6  9  1  0
  4 10  1  0
  7 11  1  0
 10 11  2  0
M  END
>  <ID>  (1) 
conformer_0

$$$$
