
     RDKit          3D

 17 19  0  0  0  0  0  0  0  0999 V2000
   26.3642    7.5807   29.2232 C   0  0  0  0  0  0  0  0  0  0  0  0
   25.1920    7.3699   28.6777 C   0  0  0  0  0  0  0  0  0  0  0  0
   25.0194    6.5380   27.5696 C   0  0  0  0  0  0  0  0  0  0  0  0
   24.2451    8.1716   28.8732 C   0  0  0  0  0  0  0  0  0  0  0  0
   23.0875    8.3978   28.1159 C   0  0  0  0  0  0  0  0  0  0  0  0
   24.1700    8.8730   30.2518 C   0  0  0  0  0  0  0  0  0  0  0  0
   22.9437    7.4268   27.0246 C   0  0  0  0  0  0  0  0  0  0  0  0
   21.9662    7.5692   26.0941 O   0  0  0  0  0  0  0  0  0  0  0  0
   27.4421    6.6917   29.0454 C   0  0  0  0  0  0  0  0  0  0  0  0
   23.9485    6.5017   26.7973 N   0  0  0  0  0  0  0  0  0  0  0  0
   27.2626    5.8082   27.9039 C   0  0  0  0  0  0  0  0  0  0  0  0
   23.0702    9.8339   27.5614 C   0  0  0  0  0  0  0  0  0  0  0  0
   24.3969    8.3540   31.3176 O   0  0  0  0  0  0  0  0  0  0  0  0
   22.8203   10.7297   28.5695 C   0  0  0  0  0  0  0  0  0  0  0  0
   23.7225    5.5442   25.7678 C   0  0  0  0  0  0  0  0  0  0  0  0
   26.1506    5.7189   27.2263 C   0  0  0  0  0  0  0  0  0  0  0  0
   23.4330   10.2833   30.2565 C   0  0  0  0  0  0  0  0  0  0  0  0
  1  2  1  0
  2  3  1  0
  2  4  2  0
  4  5  1  0
  4  6  1  0
  5  7  1  0
  7  8  2  0
  1  9  2  0
  3 10  1  0
  7 10  1  0
  9 11  1  0
  5 12  1  0
  6 13  2  0
 12 14  1  0
 10 15  1  0
  3 16  1  0
 11 16  1  0
  6 17  1  0
 14 17  1  0
M  END
>  <ID>  (1) 
conformer_0

$$$$
