
     RDKit          3D

 17 19  0  0  0  0  0  0  0  0999 V2000
   26.3642    7.5807   29.2232 C   0  0  0  0  0  0  0  0  0  0  0  0
   25.1920    7.3699   28.6777 C   0  0  0  0  0  0  0  0  0  0  0  0
   27.3951    6.6256   28.9040 C   0  0  0  0  0  0  0  0  0  0  0  0
   24.9596    6.3648   27.7019 C   0  0  0  0  0  0  0  0  0  0  0  0
   24.0933    8.3072   28.9972 C   0  0  0  0  0  0  0  0  0  0  0  0
   23.1103    8.4888   28.0865 C   0  0  0  0  0  0  0  0  0  0  0  0
   23.3813    7.8705   30.2368 O   0  0  0  0  0  0  0  0  0  0  0  0
   23.6147    6.1745   27.0542 C   0  0  0  0  0  0  0  0  0  0  0  0
   28.7258    6.8170   29.3844 O   0  0  0  0  0  0  0  0  0  0  0  0
   24.5685    9.6251   29.5744 O   0  0  0  0  0  0  0  0  0  0  0  0
   27.1612    5.6256   27.9778 C   0  0  0  0  0  0  0  0  0  0  0  0
   25.9633    5.5171   27.4566 C   0  0  0  0  0  0  0  0  0  0  0  0
   23.5938    8.7989   31.3181 C   0  0  0  0  0  0  0  0  0  0  0  0
   22.9993    7.5819   26.9826 N   0  0  0  0  0  0  0  0  0  0  0  0
   22.0241    9.1277   28.3710 O   0  0  0  0  0  0  0  0  0  0  0  0
   23.9973   10.0516   30.7732 C   0  0  0  0  0  0  0  0  0  0  0  0
   21.6587    7.5429   26.2693 C   0  0  0  0  0  0  0  0  0  0  0  0
  1  2  1  0
  1  3  2  0
  2  4  2  0
  2  5  1  0
  5  6  1  0
  5  7  1  0
  4  8  1  0
  3  9  1  0
  5 10  1  0
  3 11  1  0
  4 12  1  0
 11 12  2  0
  7 13  1  0
  6 14  1  0
  8 14  1  0
  6 15  2  0
 10 16  1  0
 13 16  1  0
 14 17  1  0
M  END
>  <ID>  (1) 
conformer_0

$$$$
