
     RDKit          3D

 17 20  0  0  0  0  0  0  0  0999 V2000
   26.3642    7.5807   29.2232 C   0  0  0  0  0  0  0  0  0  0  0  0
   25.1920    7.3699   28.6777 C   0  0  0  0  0  0  0  0  0  0  0  0
   25.0194    6.5380   27.5696 C   0  0  0  0  0  0  0  0  0  0  0  0
   25.9183    5.5680   27.2580 C   0  0  0  0  0  0  0  0  0  0  0  0
   24.1487    8.3046   29.0565 C   0  0  0  0  0  0  0  0  0  0  0  0
   23.6795    6.3476   26.9022 C   0  0  0  0  0  0  0  0  0  0  0  0
   22.8238    8.2148   28.5252 C   0  0  0  0  0  0  0  0  0  0  0  0
   22.6145    7.3168   27.3835 C   0  0  0  0  0  0  0  0  0  0  0  0
   27.3076    5.8374   27.9770 C   0  0  0  0  0  0  0  0  0  0  0  0
   27.3768    6.7010   28.9261 C   0  0  0  0  0  0  0  0  0  0  0  0
   24.3197    9.3473   29.9920 C   0  0  0  0  0  0  0  0  0  0  0  0
   25.6741    9.3194   30.6186 N   0  0  0  0  0  0  0  0  0  0  0  0
   26.6128    8.5897   30.2331 C   0  0  0  0  0  0  0  0  0  0  0  0
   22.3865    9.5732   28.0910 C   0  0  0  0  0  0  0  0  0  0  0  0
   21.6278    7.3803   26.5865 O   0  0  0  0  0  0  0  0  0  0  0  0
   22.4445   10.5221   29.2596 C   0  0  0  0  0  0  0  0  0  0  0  0
   23.4203   10.2710   30.4300 C   0  0  0  0  0  0  0  0  0  0  0  0
  1  2  1  0
  2  3  1  0
  3  4  2  0
  2  5  2  0
  3  6  1  0
  5  7  1  0
  6  8  1  0
  7  8  1  0
  4  9  1  0
  1 10  1  0
  9 10  2  0
  5 11  1  0
 11 12  2  0
  1 13  2  0
 12 13  1  0
  7 14  1  0
  8 15  2  0
 14 16  1  0
 11 17  1  0
 16 17  1  0
M  END
>  <ID>  (1) 
conformer_0

$$$$
