
     RDKit          3D

 16 18  0  0  0  0  0  0  0  0999 V2000
   26.3642    7.5807   29.2232 C   0  0  0  0  0  0  0  0  0  0  0  0
   25.1920    7.3699   28.6777 C   0  0  0  0  0  0  0  0  0  0  0  0
   24.1196    8.0141   29.0270 C   0  0  0  0  0  0  0  0  0  0  0  0
   24.3144    9.0009   30.0462 C   0  0  0  0  0  0  0  0  0  0  0  0
   24.9927    6.3550   27.5748 C   0  0  0  0  0  0  0  0  0  0  0  0
   23.7737    6.3327   26.9975 C   0  0  0  0  0  0  0  0  0  0  0  0
   23.1252    9.7874   30.6061 C   0  0  0  0  0  0  0  0  0  0  0  0
   25.5570    9.1827   30.6374 C   0  0  0  0  0  0  0  0  0  0  0  0
   23.5459    5.3169   25.9487 C   0  0  0  0  0  0  0  0  0  0  0  0
   22.3229    5.3363   25.4590 O   0  0  0  0  0  0  0  0  0  0  0  0
   26.5868    8.4265   30.1592 C   0  0  0  0  0  0  0  0  0  0  0  0
   22.8470    7.8688   28.2685 C   0  0  0  0  0  0  0  0  0  0  0  0
   22.6643    6.9837   27.3619 C   0  0  0  0  0  0  0  0  0  0  0  0
   24.4278    4.8697   25.1486 O   0  0  0  0  0  0  0  0  0  0  0  0
   23.6301   10.5812   31.6411 C   0  0  0  0  0  0  0  0  0  0  0  0
   25.4856   10.1655   31.6624 C   0  0  0  0  0  0  0  0  0  0  0  0
  1  2  1  0
  2  3  2  0
  3  4  1  0
  2  5  1  0
  5  6  2  0
  4  7  1  0
  4  8  2  0
  6  9  1  0
  9 10  1  0
  1 11  2  0
  8 11  1  0
  3 12  1  0
  6 13  1  0
 12 13  2  0
  9 14  2  0
  7 15  1  0
  8 16  1  0
 15 16  1  0
M  END
>  <ID>  (1) 
conformer_0

$$$$
