
     RDKit          3D

 16 17  0  0  0  0  0  0  0  0999 V2000
   26.3642    7.5807   29.2232 C   0  0  0  0  0  0  0  0  0  0  0  0
   25.1920    7.3699   28.6777 C   0  0  0  0  0  0  0  0  0  0  0  0
   24.1196    8.0141   29.0270 C   0  0  0  0  0  0  0  0  0  0  0  0
   24.1340    8.9342   30.0930 C   0  0  0  0  0  0  0  0  0  0  0  0
   22.7896    7.8665   28.3319 C   0  0  0  0  0  0  0  0  0  0  0  0
   25.4052    9.1435   30.7322 C   0  0  0  0  0  0  0  0  0  0  0  0
   25.4801   10.0784   31.8542 O   0  0  0  0  0  0  0  0  0  0  0  0
   27.5786    6.8323   28.8264 O   0  0  0  0  0  0  0  0  0  0  0  0
   22.8906    7.8476   26.8801 C   0  0  0  0  0  0  0  0  0  0  0  0
   22.5877    8.9748   26.2502 C   0  0  0  0  0  0  0  0  0  0  0  0
   24.5995    9.9222   32.8446 C   0  0  0  0  0  0  0  0  0  0  0  0
   26.5400    8.4621   30.2776 C   0  0  0  0  0  0  0  0  0  0  0  0
   24.0822    7.1916   26.4114 C   0  0  0  0  0  0  0  0  0  0  0  0
   24.9226    6.6186   27.5103 N   0  0  0  0  0  0  0  0  0  0  0  0
   22.6986   10.0944   26.7038 O   0  0  0  0  0  0  0  0  0  0  0  0
   22.2349    8.9132   24.9555 O   0  0  0  0  0  0  0  0  0  0  0  0
  1  2  1  0
  2  3  2  0
  3  4  1  0
  3  5  1  0
  4  6  2  0
  6  7  1  0
  1  8  1  0
  5  9  1  0
  9 10  1  0
  7 11  1  0
  1 12  2  0
  6 12  1  0
  9 13  1  0
  2 14  1  0
 13 14  1  0
 10 15  1  0
 10 16  2  0
M  END
>  <ID>  (1) 
conformer_0

$$$$
