
     RDKit          3D

 16 17  0  0  0  0  0  0  0  0999 V2000
   24.2938    8.7604   32.1456 C   0  0  0  0  0  0  0  0  0  0  0  0
   24.1697    8.7339   30.8903 C   0  0  0  0  0  0  0  0  0  0  0  0
   24.2220    7.5571   30.0094 O   0  0  0  0  0  0  0  0  0  0  0  0
   23.7985    7.6948   28.7634 C   0  0  0  0  0  0  0  0  0  0  0  0
   24.3990    9.8826   32.8994 C   0  0  0  0  0  0  0  0  0  0  0  0
   24.6804    7.2727   27.8308 C   0  0  0  0  0  0  0  0  0  0  0  0
   22.4952    7.8278   28.3922 C   0  0  0  0  0  0  0  0  0  0  0  0
   21.5459    8.2300   29.4503 O   0  0  0  0  0  0  0  0  0  0  0  0
   22.1276    7.9393   27.0577 C   0  0  0  0  0  0  0  0  0  0  0  0
   24.1268   10.0433   30.2313 C   0  0  0  0  0  0  0  0  0  0  0  0
   23.0259    7.5327   26.0797 C   0  0  0  0  0  0  0  0  0  0  0  0
   23.9339   10.1528   28.7518 O   0  0  0  0  0  0  0  0  0  0  0  0
   24.2104   11.1806   31.0046 C   0  0  0  0  0  0  0  0  0  0  0  0
   24.3128   11.0561   32.3564 C   0  0  0  0  0  0  0  0  0  0  0  0
   24.3533    7.1954   26.4569 C   0  0  0  0  0  0  0  0  0  0  0  0
   26.0875    6.8041   28.1530 C   0  0  0  0  0  0  0  0  0  0  0  0
  1  2  1  0
  2  3  1  0
  3  4  1  0
  1  5  2  0
  4  6  2  0
  4  7  1  0
  7  8  1  0
  7  9  2  0
  2 10  2  0
  9 11  1  0
 10 12  1  0
 10 13  1  0
  5 14  1  0
 13 14  2  0
  6 15  1  0
 11 15  2  0
  6 16  1  0
M  END
>  <ID>  (1) 
conformer_0

$$$$
