
     RDKit          3D

 14 15  0  0  0  0  0  0  0  0999 V2000
   22.1577    9.8293   28.4265 O   0  0  0  0  0  0  0  0  0  0  0  0
   22.8258    9.3520   27.4641 C   0  0  0  0  0  0  0  0  0  0  0  0
   23.7108    8.5192   27.8363 C   0  0  0  0  0  0  0  0  0  0  0  0
   23.2156   10.4840   26.5771 O   0  0  0  0  0  0  0  0  0  0  0  0
   24.1777    8.5967   29.1559 C   0  0  0  0  0  0  0  0  0  0  0  0
   24.3048    7.5308   26.9848 C   0  0  0  0  0  0  0  0  0  0  0  0
   23.6303    9.4075   30.1867 C   0  0  0  0  0  0  0  0  0  0  0  0
   22.8571   10.1931   29.6380 C   0  0  0  0  0  0  0  0  0  0  0  0
   23.8957    7.3153   25.6469 C   0  0  0  0  0  0  0  0  0  0  0  0
   22.5008    6.8423   25.4784 O   0  0  0  0  0  0  0  0  0  0  0  0
   25.4502    6.8812   27.4068 C   0  0  0  0  0  0  0  0  0  0  0  0
   24.5898   10.0340   30.9993 O   0  0  0  0  0  0  0  0  0  0  0  0
   25.3403    7.8014   29.5279 C   0  0  0  0  0  0  0  0  0  0  0  0
   25.9398    6.9787   28.6482 C   0  0  0  0  0  0  0  0  0  0  0  0
  1  2  1  0
  2  3  1  0
  2  4  1  0
  3  5  1  0
  3  6  2  0
  5  7  1  0
  1  8  1  0
  7  8  1  0
  6  9  1  0
  9 10  1  0
  6 11  1  0
  7 12  1  0
  5 13  2  0
 11 14  2  0
 13 14  1  0
M  END
>  <ID>  (1) 
conformer_0

$$$$
