
     RDKit          3D

 16 17  0  0  0  0  0  0  0  0999 V2000
   26.3642    7.5807   29.2232 C   0  0  0  0  0  0  0  0  0  0  0  0
   25.1920    7.3699   28.6777 C   0  0  0  0  0  0  0  0  0  0  0  0
   24.1196    8.0141   29.0270 C   0  0  0  0  0  0  0  0  0  0  0  0
   24.3144    9.0009   30.0462 C   0  0  0  0  0  0  0  0  0  0  0  0
   24.9927    6.3550   27.5748 C   0  0  0  0  0  0  0  0  0  0  0  0
   23.7737    6.3327   26.9975 C   0  0  0  0  0  0  0  0  0  0  0  0
   23.4714    5.3442   25.9400 C   0  0  0  0  0  0  0  0  0  0  0  0
   22.7919    7.4020   27.2432 C   0  0  0  0  0  0  0  0  0  0  0  0
   22.3192    5.2861   25.4510 O   0  0  0  0  0  0  0  0  0  0  0  0
   24.3382    4.6275   25.5702 O   0  0  0  0  0  0  0  0  0  0  0  0
   21.5157    7.3277   26.5471 O   0  0  0  0  0  0  0  0  0  0  0  0
   25.4553    9.2648   30.6642 C   0  0  0  0  0  0  0  0  0  0  0  0
   22.9028    8.1048   28.3668 C   0  0  0  0  0  0  0  0  0  0  0  0
   26.5644    8.4494   30.2406 C   0  0  0  0  0  0  0  0  0  0  0  0
   23.1758    9.8731   30.5697 O   0  0  0  0  0  0  0  0  0  0  0  0
   25.5402   10.2027   31.6937 O   0  0  0  0  0  0  0  0  0  0  0  0
  1  2  1  0
  2  3  2  0
  3  4  1  0
  2  5  1  0
  5  6  2  0
  6  7  1  0
  6  8  1  0
  7  9  2  0
  7 10  1  0
  8 11  1  0
  4 12  2  0
  3 13  1  0
  8 13  2  0
  1 14  2  0
 12 14  1  0
  4 15  1  0
 12 16  1  0
M  END
>  <ID>  (1) 
conformer_0

$$$$
