
     RDKit          3D

 14 15  0  0  0  0  0  0  0  0999 V2000
   26.3642    7.5807   29.2232 C   0  0  0  0  0  0  0  0  0  0  0  0
   25.1920    7.3699   28.6777 C   0  0  0  0  0  0  0  0  0  0  0  0
   25.0194    6.5380   27.5696 C   0  0  0  0  0  0  0  0  0  0  0  0
   24.2451    8.1716   28.8732 C   0  0  0  0  0  0  0  0  0  0  0  0
   23.0875    8.3978   28.1159 C   0  0  0  0  0  0  0  0  0  0  0  0
   24.1700    8.8730   30.2518 C   0  0  0  0  0  0  0  0  0  0  0  0
   22.9437    7.4268   27.0246 C   0  0  0  0  0  0  0  0  0  0  0  0
   21.9662    7.5692   26.0941 O   0  0  0  0  0  0  0  0  0  0  0  0
   23.2600    9.8378   30.7358 C   0  0  0  0  0  0  0  0  0  0  0  0
   23.9394    6.5890   26.7241 N   0  0  0  0  0  0  0  0  0  0  0  0
   26.5215    8.2607   30.4364 C   0  0  0  0  0  0  0  0  0  0  0  0
   21.7314    8.6872   28.6718 O   0  0  0  0  0  0  0  0  0  0  0  0
   23.6244   11.0694   30.7237 O   0  0  0  0  0  0  0  0  0  0  0  0
   25.5011    9.1426   30.7339 N   0  0  0  0  0  0  0  0  0  0  0  0
  1  2  1  0
  2  3  1  0
  2  4  2  0
  4  5  1  0
  4  6  1  0
  5  7  1  0
  7  8  2  0
  6  9  1  0
  3 10  2  0
  7 10  1  0
  1 11  2  0
  5 12  1  0
  9 13  1  0
  6 14  2  0
 11 14  1  0
M  END
>  <ID>  (1) 
conformer_0

$$$$
