
     RDKit          3D

 15 16  0  0  0  0  0  0  0  0999 V2000
   23.4429   10.7051   30.2962 C   0  0  0  0  0  0  0  0  0  0  0  0
   23.2461    9.5750   29.7152 C   0  0  0  0  0  0  0  0  0  0  0  0
   23.8952    8.5128   29.9028 C   0  0  0  0  0  0  0  0  0  0  0  0
   22.5609    9.7578   28.4239 C   0  0  0  0  0  0  0  0  0  0  0  0
   24.5294    8.3920   31.1563 C   0  0  0  0  0  0  0  0  0  0  0  0
   24.0574    7.4017   28.9072 C   0  0  0  0  0  0  0  0  0  0  0  0
   23.9757   10.6599   31.6549 C   0  0  0  0  0  0  0  0  0  0  0  0
   22.8794    9.0772   27.3371 N   0  0  0  0  0  0  0  0  0  0  0  0
   23.4429    7.7943   27.5692 C   0  0  0  0  0  0  0  0  0  0  0  0
   25.1420    7.0726   31.5220 O   0  0  0  0  0  0  0  0  0  0  0  0
   22.1187    9.0888   26.1470 C   0  0  0  0  0  0  0  0  0  0  0  0
   21.0307    8.8601   26.1425 O   0  0  0  0  0  0  0  0  0  0  0  0
   24.7240    6.3336   28.9814 O   0  0  0  0  0  0  0  0  0  0  0  0
   22.7167    9.8586   25.0600 C   0  0  0  0  0  0  0  0  0  0  0  0
   24.6332    9.4062   32.0993 C   0  0  0  0  0  0  0  0  0  0  0  0
  1  2  1  0
  2  3  2  0
  2  4  1  0
  3  5  1  0
  3  6  1  0
  1  7  2  0
  4  8  1  0
  6  9  1  0
  8  9  1  0
  5 10  1  0
  8 11  1  0
 11 12  2  0
  6 13  2  0
 11 14  1  0
  5 15  2  0
  7 15  1  0
M  END
>  <ID>  (1) 
conformer_0

$$$$
