
     RDKit          3D

 16 18  0  0  0  0  0  0  0  0999 V2000
   24.3123    8.5793   31.9775 C   0  0  0  0  0  0  0  0  0  0  0  0
   24.1270    8.5929   30.8000 C   0  0  0  0  0  0  0  0  0  0  0  0
   24.1255    7.5137   29.9330 O   0  0  0  0  0  0  0  0  0  0  0  0
   23.7232    7.6919   28.6357 C   0  0  0  0  0  0  0  0  0  0  0  0
   23.7713    9.8578   30.2074 C   0  0  0  0  0  0  0  0  0  0  0  0
   24.6546    7.2220   32.6367 O   0  0  0  0  0  0  0  0  0  0  0  0
   23.4611   10.0204   28.7853 O   0  0  0  0  0  0  0  0  0  0  0  0
   23.7926   11.0618   30.9338 C   0  0  0  0  0  0  0  0  0  0  0  0
   24.1035   10.8788   32.3060 C   0  0  0  0  0  0  0  0  0  0  0  0
   24.3932    9.6926   32.8582 C   0  0  0  0  0  0  0  0  0  0  0  0
   23.8512    6.4967   27.7768 C   0  0  0  0  0  0  0  0  0  0  0  0
   23.3372    8.8690   28.0982 C   0  0  0  0  0  0  0  0  0  0  0  0
   23.4903    6.6369   26.4121 C   0  0  0  0  0  0  0  0  0  0  0  0
   23.0158    9.0428   26.7171 C   0  0  0  0  0  0  0  0  0  0  0  0
   22.9522    8.0439   25.9462 C   0  0  0  0  0  0  0  0  0  0  0  0
   23.4265    5.3739   25.4145 Cl  0  0  0  0  0  0  0  0  0  0  0  0
  1  2  1  0
  2  3  1  0
  3  4  1  0
  2  5  2  0
  1  6  1  0
  5  7  1  0
  5  8  1  0
  8  9  2  0
  1 10  2  0
  9 10  1  0
  4 11  2  0
  4 12  1  0
  7 12  1  0
 11 13  1  0
 12 14  2  0
 13 15  2  0
 14 15  1  0
 13 16  1  0
M  END
>  <ID>  (1) 
conformer_0

$$$$
