
     RDKit          3D

 17 19  0  0  0  0  0  0  0  0999 V2000
   26.3642    7.5807   29.2232 C   0  0  0  0  0  0  0  0  0  0  0  0
   25.1920    7.3699   28.6777 C   0  0  0  0  0  0  0  0  0  0  0  0
   25.0194    6.5380   27.5696 C   0  0  0  0  0  0  0  0  0  0  0  0
   26.4034    8.3938   30.3532 C   0  0  0  0  0  0  0  0  0  0  0  0
   23.8460    6.6179   26.8377 C   0  0  0  0  0  0  0  0  0  0  0  0
   24.0216    8.0744   29.1521 C   0  0  0  0  0  0  0  0  0  0  0  0
   25.9733    5.7099   27.1177 C   0  0  0  0  0  0  0  0  0  0  0  0
   22.6892    7.8746   28.5487 C   0  0  0  0  0  0  0  0  0  0  0  0
   27.7350    8.6471   30.9232 O   0  0  0  0  0  0  0  0  0  0  0  0
   22.6497    7.2437   27.3838 C   0  0  0  0  0  0  0  0  0  0  0  0
   24.1474    8.8829   30.3288 C   0  0  0  0  0  0  0  0  0  0  0  0
   21.3332    7.0919   26.6953 C   0  0  0  0  0  0  0  0  0  0  0  0
   23.6022    5.8038   25.7260 C   0  0  0  0  0  0  0  0  0  0  0  0
   25.5841    4.8951   25.9221 C   0  0  0  0  0  0  0  0  0  0  0  0
   22.9491    9.5727   30.9297 C   0  0  0  0  0  0  0  0  0  0  0  0
   24.7035    5.0200   25.3518 C   0  0  0  0  0  0  0  0  0  0  0  0
   25.4077    9.1272   30.8582 C   0  0  0  0  0  0  0  0  0  0  0  0
  1  2  1  0
  2  3  1  0
  1  4  2  0
  3  5  1  0
  2  6  2  0
  3  7  2  0
  6  8  1  0
  4  9  1  0
  5 10  1  0
  8 10  2  0
  6 11  1  0
 10 12  1  0
  5 13  2  0
  7 14  1  0
 11 15  1  0
 13 16  1  0
 14 16  2  0
  4 17  1  0
 11 17  2  0
M  END
>  <ID>  (1) 
conformer_0

$$$$
