
     RDKit          3D

 13 14  0  0  0  0  0  0  0  0999 V2000
   23.4429   10.7051   30.2962 C   0  0  0  0  0  0  0  0  0  0  0  0
   23.2461    9.5750   29.7152 C   0  0  0  0  0  0  0  0  0  0  0  0
   23.8259   10.5825   31.6717 C   0  0  0  0  0  0  0  0  0  0  0  0
   23.7638    8.3919   30.1299 C   0  0  0  0  0  0  0  0  0  0  0  0
   24.2542    8.3087   31.3851 C   0  0  0  0  0  0  0  0  0  0  0  0
   23.6260    7.1898   29.3015 O   0  0  0  0  0  0  0  0  0  0  0  0
   23.3039    7.4869   27.9419 C   0  0  0  0  0  0  0  0  0  0  0  0
   24.2567    9.3963   32.1782 C   0  0  0  0  0  0  0  0  0  0  0  0
   22.3633    6.5991   27.5029 C   0  0  0  0  0  0  0  0  0  0  0  0
   24.0524    8.1425   27.0020 C   0  0  0  0  0  0  0  0  0  0  0  0
   23.7322    8.1727   25.7082 C   0  0  0  0  0  0  0  0  0  0  0  0
   22.6631    7.4141   25.2269 C   0  0  0  0  0  0  0  0  0  0  0  0
   21.9475    6.6408   26.1708 C   0  0  0  0  0  0  0  0  0  0  0  0
  1  2  1  0
  1  3  2  0
  2  4  2  0
  4  5  1  0
  4  6  1  0
  6  7  1  0
  3  8  1  0
  5  8  2  0
  7  9  1  0
  7 10  2  0
 10 11  1  0
 11 12  2  0
  9 13  2  0
 12 13  1  0
M  END
>  <ID>  (1) 
conformer_0

$$$$
