
     RDKit          3D

 17 19  0  0  0  0  0  0  0  0999 V2000
   26.3642    7.5807   29.2232 C   0  0  0  0  0  0  0  0  0  0  0  0
   25.1920    7.3699   28.6777 C   0  0  0  0  0  0  0  0  0  0  0  0
   25.0194    6.5380   27.5696 C   0  0  0  0  0  0  0  0  0  0  0  0
   25.9183    5.5680   27.2580 C   0  0  0  0  0  0  0  0  0  0  0  0
   24.1487    8.3046   29.0565 C   0  0  0  0  0  0  0  0  0  0  0  0
   23.6795    6.3476   26.9022 C   0  0  0  0  0  0  0  0  0  0  0  0
   22.8238    8.2148   28.5252 C   0  0  0  0  0  0  0  0  0  0  0  0
   22.6145    7.3168   27.3835 C   0  0  0  0  0  0  0  0  0  0  0  0
   22.5093    9.6507   27.9774 C   0  0  0  0  0  0  0  0  0  0  0  0
   22.4834    9.8511   26.6510 O   0  0  0  0  0  0  0  0  0  0  0  0
   27.3139    5.8838   27.9836 C   0  0  0  0  0  0  0  0  0  0  0  0
   23.4395    5.5251   26.0072 O   0  0  0  0  0  0  0  0  0  0  0  0
   24.5410    9.3509   29.9001 C   0  0  0  0  0  0  0  0  0  0  0  0
   27.3575    6.6427   28.9036 C   0  0  0  0  0  0  0  0  0  0  0  0
   22.3081   10.5762   28.7997 O   0  0  0  0  0  0  0  0  0  0  0  0
   23.5693   10.2467   30.5424 C   0  0  0  0  0  0  0  0  0  0  0  0
   23.3409   11.1391   29.4870 C   0  0  0  0  0  0  0  0  0  0  0  0
  1  2  1  0
  2  3  1  0
  3  4  2  0
  2  5  2  0
  3  6  1  0
  5  7  1  0
  6  8  1  0
  7  8  1  0
  7  9  1  0
  9 10  2  0
  4 11  1  0
  6 12  2  0
  5 13  1  0
  1 14  1  0
 11 14  2  0
  9 15  1  0
 13 16  1  0
 15 17  1  0
 16 17  1  0
M  END
>  <ID>  (1) 
conformer_0

$$$$
