
     RDKit          3D

 10  9  0  0  0  0  0  0  0  0999 V2000
   21.8340    6.6713   26.0001 O   0  0  0  0  0  0  0  0  0  0  0  0
   22.1741    7.6533   26.4540 C   0  0  0  0  0  0  0  0  0  0  0  0
   23.2094    7.9288   27.3121 C   0  0  0  0  0  0  0  0  0  0  0  0
   23.3749    9.0407   28.1991 C   0  0  0  0  0  0  0  0  0  0  0  0
   24.5501    7.9152   26.5832 C   0  0  0  0  0  0  0  0  0  0  0  0
   22.8131    9.0651   29.4594 C   0  0  0  0  0  0  0  0  0  0  0  0
   22.8574    8.0605   30.1090 O   0  0  0  0  0  0  0  0  0  0  0  0
   22.4966   10.1877   30.0216 O   0  0  0  0  0  0  0  0  0  0  0  0
   21.6412    8.7792   25.9135 O   0  0  0  0  0  0  0  0  0  0  0  0
   25.4905    7.1443   27.4549 C   0  0  0  0  0  0  0  0  0  0  0  0
  1  2  1  0
  2  3  1  0
  3  4  1  0
  3  5  1  0
  4  6  1  0
  6  7  2  0
  6  8  1  0
  2  9  2  0
  5 10  1  0
M  END
>  <ID>  (1) 
conformer_0

$$$$
