
     RDKit          3D

 17 19  0  0  0  0  0  0  0  0999 V2000
   26.3642    7.5807   29.2232 C   0  0  0  0  0  0  0  0  0  0  0  0
   25.1920    7.3699   28.6777 C   0  0  0  0  0  0  0  0  0  0  0  0
   25.0194    6.5380   27.5696 C   0  0  0  0  0  0  0  0  0  0  0  0
   25.9183    5.5680   27.2580 C   0  0  0  0  0  0  0  0  0  0  0  0
   24.1487    8.3046   29.0565 C   0  0  0  0  0  0  0  0  0  0  0  0
   23.6795    6.3476   26.9022 C   0  0  0  0  0  0  0  0  0  0  0  0
   23.5658    5.5701   25.8524 C   0  0  0  0  0  0  0  0  0  0  0  0
   24.3584    8.9524   30.2253 C   0  0  0  0  0  0  0  0  0  0  0  0
   22.8081    8.2402   28.3991 C   0  0  0  0  0  0  0  0  0  0  0  0
   26.5275    8.3580   30.3414 C   0  0  0  0  0  0  0  0  0  0  0  0
   22.8859    7.5683   27.1606 N   0  0  0  0  0  0  0  0  0  0  0  0
   25.4793    4.6630   26.1777 C   0  0  0  0  0  0  0  0  0  0  0  0
   21.8757    7.8798   26.2088 C   0  0  0  0  0  0  0  0  0  0  0  0
   23.2523    9.9025   30.7564 C   0  0  0  0  0  0  0  0  0  0  0  0
   23.6683   11.2600   30.9038 C   0  0  0  0  0  0  0  0  0  0  0  0
   24.4382    4.6906   25.5278 C   0  0  0  0  0  0  0  0  0  0  0  0
   25.5779    9.1389   30.8192 N   0  0  0  0  0  0  0  0  0  0  0  0
  1  2  1  0
  2  3  1  0
  3  4  2  0
  2  5  2  0
  3  6  1  0
  6  7  1  0
  5  8  1  0
  5  9  1  0
  1 10  2  0
  6 11  1  0
  9 11  1  0
  4 12  1  0
 11 13  1  0
  8 14  1  0
 14 15  1  0
  7 16  1  0
 12 16  2  0
  8 17  2  0
 10 17  1  0
M  END
>  <ID>  (1) 
conformer_0

$$$$
