
     RDKit          3D

 17 19  0  0  0  0  0  0  0  0999 V2000
   26.3642    7.5807   29.2232 C   0  0  0  0  0  0  0  0  0  0  0  0
   25.1920    7.3699   28.6777 C   0  0  0  0  0  0  0  0  0  0  0  0
   25.0194    6.5380   27.5696 C   0  0  0  0  0  0  0  0  0  0  0  0
   26.4034    8.3938   30.3532 C   0  0  0  0  0  0  0  0  0  0  0  0
   23.8460    6.6179   26.8377 C   0  0  0  0  0  0  0  0  0  0  0  0
   24.0216    8.0744   29.1521 C   0  0  0  0  0  0  0  0  0  0  0  0
   25.9733    5.7099   27.1177 C   0  0  0  0  0  0  0  0  0  0  0  0
   22.6892    7.8746   28.5487 C   0  0  0  0  0  0  0  0  0  0  0  0
   27.7350    8.6471   30.9232 O   0  0  0  0  0  0  0  0  0  0  0  0
   22.6497    7.2437   27.3838 C   0  0  0  0  0  0  0  0  0  0  0  0
   27.8373    9.3362   31.9770 C   0  0  0  0  0  0  0  0  0  0  0  0
   25.7878    4.9925   25.9766 C   0  0  0  0  0  0  0  0  0  0  0  0
   26.8265    4.1152   25.6577 O   0  0  0  0  0  0  0  0  0  0  0  0
   24.6403    4.7878   25.4299 C   0  0  0  0  0  0  0  0  0  0  0  0
   25.3086    9.0570   30.9037 C   0  0  0  0  0  0  0  0  0  0  0  0
   23.5773    5.6711   25.8535 C   0  0  0  0  0  0  0  0  0  0  0  0
   24.1209    8.8980   30.2989 C   0  0  0  0  0  0  0  0  0  0  0  0
  1  2  1  0
  2  3  1  0
  1  4  2  0
  3  5  1  0
  2  6  2  0
  3  7  2  0
  6  8  1  0
  4  9  1  0
  5 10  1  0
  8 10  2  0
  9 11  1  0
  7 12  1  0
 12 13  1  0
 12 14  2  0
  4 15  1  0
  5 16  2  0
 14 16  1  0
  6 17  1  0
 15 17  2  0
M  END
>  <ID>  (1) 
conformer_0

$$$$
