
     RDKit          3D

 17 20  0  0  0  0  0  0  0  0999 V2000
   24.2938    8.7604   32.1456 C   0  0  0  0  0  0  0  0  0  0  0  0
   24.1697    8.7339   30.8903 C   0  0  0  0  0  0  0  0  0  0  0  0
   24.2220    7.5571   30.0094 N   0  0  0  0  0  0  0  0  0  0  0  0
   24.1961    7.5981   28.7156 C   0  0  0  0  0  0  0  0  0  0  0  0
   23.8805    8.7922   28.0317 N   0  0  0  0  0  0  0  0  0  0  0  0
   23.7594    8.7584   26.6118 C   0  0  0  0  0  0  0  0  0  0  0  0
   23.6092    7.4534   26.1016 C   0  0  0  0  0  0  0  0  0  0  0  0
   22.4723    9.6198   26.3460 C   0  0  0  0  0  0  0  0  0  0  0  0
   23.7439    9.9299   30.1872 C   0  0  0  0  0  0  0  0  0  0  0  0
   23.5144   10.0022   28.7160 C   0  0  0  0  0  0  0  0  0  0  0  0
   22.4675   10.7279   27.0649 C   0  0  0  0  0  0  0  0  0  0  0  0
   24.5566    6.5272   26.1975 C   0  0  0  0  0  0  0  0  0  0  0  0
   24.5217    6.3122   28.0352 C   0  0  0  0  0  0  0  0  0  0  0  0
   23.8088   10.9548   31.2036 C   0  0  0  0  0  0  0  0  0  0  0  0
   24.1428   10.4333   32.4844 C   0  0  0  0  0  0  0  0  0  0  0  0
   22.8517   10.8869   28.2481 C   0  0  0  0  0  0  0  0  0  0  0  0
   21.8851    9.5027   25.0729 C   0  0  0  0  0  0  0  0  0  0  0  0
  1  2  1  0
  2  3  1  0
  3  4  2  0
  4  5  1  0
  5  6  1  0
  6  7  1  0
  6  8  1  0
  2  9  2  0
  5 10  1  0
  9 10  1  0
  8 11  2  0
  7 12  1  0
  4 13  1  0
 12 13  1  0
  9 14  1  0
  1 15  1  0
 14 15  1  0
 10 16  2  0
 11 16  1  0
  8 17  1  0
M  END
>  <ID>  (1) 
conformer_0

$$$$
