
     RDKit          3D

 15 16  0  0  0  0  0  0  0  0999 V2000
   26.3642    7.5807   29.2232 C   0  0  0  0  0  0  0  0  0  0  0  0
   25.1920    7.3699   28.6777 C   0  0  0  0  0  0  0  0  0  0  0  0
   25.0194    6.5380   27.5696 C   0  0  0  0  0  0  0  0  0  0  0  0
   26.4034    8.3938   30.3532 C   0  0  0  0  0  0  0  0  0  0  0  0
   23.8460    6.6179   26.8377 C   0  0  0  0  0  0  0  0  0  0  0  0
   27.7304    8.6986   30.9058 C   0  0  0  0  0  0  0  0  0  0  0  0
   24.0778    8.0508   29.1590 C   0  0  0  0  0  0  0  0  0  0  0  0
   25.3234    9.0945   30.7474 C   0  0  0  0  0  0  0  0  0  0  0  0
   23.4918    5.7801   25.7770 C   0  0  0  0  0  0  0  0  0  0  0  0
   25.3718   10.0400   31.8439 O   0  0  0  0  0  0  0  0  0  0  0  0
   24.0859    8.9133   30.1087 C   0  0  0  0  0  0  0  0  0  0  0  0
   22.8141    7.5766   27.1750 C   0  0  0  0  0  0  0  0  0  0  0  0
   21.6342    7.6708   26.4047 O   0  0  0  0  0  0  0  0  0  0  0  0
   22.8020    8.2482   28.4586 C   0  0  0  0  0  0  0  0  0  0  0  0
   24.1900   10.2773   32.5498 C   0  0  0  0  0  0  0  0  0  0  0  0
  1  2  1  0
  2  3  1  0
  1  4  2  0
  3  5  1  0
  4  6  1  0
  2  7  2  0
  4  8  1  0
  5  9  1  0
  8 10  1  0
  7 11  1  0
  8 11  2  0
  5 12  2  0
 12 13  1  0
  7 14  1  0
 12 14  1  0
 10 15  1  0
M  END
>  <ID>  (1) 
conformer_0

$$$$
