
     RDKit          3D

 16 17  0  0  0  0  0  0  0  0999 V2000
   26.3642    7.5807   29.2232 C   0  0  0  0  0  0  0  0  0  0  0  0
   25.1920    7.3699   28.6777 C   0  0  0  0  0  0  0  0  0  0  0  0
   27.3951    6.6256   28.9040 C   0  0  0  0  0  0  0  0  0  0  0  0
   24.9596    6.3648   27.7019 C   0  0  0  0  0  0  0  0  0  0  0  0
   24.0933    8.3072   28.9972 C   0  0  0  0  0  0  0  0  0  0  0  0
   23.1103    8.4888   28.0865 C   0  0  0  0  0  0  0  0  0  0  0  0
   23.6102    6.2452   27.0482 C   0  0  0  0  0  0  0  0  0  0  0  0
   25.9683    5.4922   27.4033 C   0  0  0  0  0  0  0  0  0  0  0  0
   23.4299    7.9520   30.2988 O   0  0  0  0  0  0  0  0  0  0  0  0
   22.5751    7.2696   27.4884 N   0  0  0  0  0  0  0  0  0  0  0  0
   23.1455    5.1201   26.9327 O   0  0  0  0  0  0  0  0  0  0  0  0
   27.1191    5.5939   27.8765 C   0  0  0  0  0  0  0  0  0  0  0  0
   24.6847    9.7622   29.4636 C   0  0  0  0  0  0  0  0  0  0  0  0
   23.4265    4.3506   25.8567 C   0  0  0  0  0  0  0  0  0  0  0  0
   23.6960   10.4983   30.2639 C   0  0  0  0  0  0  0  0  0  0  0  0
   21.6696    7.5817   26.3614 C   0  0  0  0  0  0  0  0  0  0  0  0
  1  2  1  0
  1  3  2  0
  2  4  2  0
  2  5  1  0
  5  6  1  0
  4  7  1  0
  4  8  1  0
  5  9  1  0
  6 10  1  0
  7 10  1  0
  7 11  1  0
  3 12  1  0
  8 12  2  0
  5 13  1  0
 11 14  1  0
 13 15  1  0
 10 16  1  0
M  END
>  <ID>  (1) 
conformer_0

$$$$
