
     RDKit          3D

 13 14  0  0  0  0  0  0  0  0999 V2000
   24.0294   10.1214   31.6480 C   0  0  0  0  0  0  0  0  0  0  0  0
   23.4639   10.8826   30.7909 C   0  0  0  0  0  0  0  0  0  0  0  0
   23.1004   10.2577   29.5516 C   0  0  0  0  0  0  0  0  0  0  0  0
   23.4692    8.9566   29.2812 C   0  0  0  0  0  0  0  0  0  0  0  0
   24.3728   10.6865   32.9573 O   0  0  0  0  0  0  0  0  0  0  0  0
   23.1130    8.3354   27.9768 C   0  0  0  0  0  0  0  0  0  0  0  0
   24.3986    8.7509   31.4794 C   0  0  0  0  0  0  0  0  0  0  0  0
   24.0020    7.6241   27.3803 C   0  0  0  0  0  0  0  0  0  0  0  0
   24.0786    8.2245   30.3079 C   0  0  0  0  0  0  0  0  0  0  0  0
   23.6978    6.8845   26.2119 C   0  0  0  0  0  0  0  0  0  0  0  0
   21.9138    8.6471   27.3629 C   0  0  0  0  0  0  0  0  0  0  0  0
   22.2982    7.2404   25.6852 C   0  0  0  0  0  0  0  0  0  0  0  0
   21.5747    8.1111   26.2321 N   0  0  0  0  0  0  0  0  0  0  0  0
  1  2  2  0
  2  3  1  0
  3  4  2  0
  1  5  1  0
  4  6  1  0
  1  7  1  0
  6  8  1  0
  4  9  1  0
  7  9  2  0
  8 10  2  0
  6 11  2  0
 10 12  1  0
 11 13  1  0
 12 13  2  0
M  END
>  <ID>  (1) 
conformer_0

$$$$
