
     RDKit          3D

  9 11  0  0  0  0  0  0  0  0999 V2000
    0.4162   12.6049    2.3543 C   0  0  0  0  0  0  0  0  0  0  0  0
    1.0503   14.1937   -0.7414 C   0  0  0  0  0  0  0  0  0  0  0  0
    0.6623   13.3995   -1.8071 C   0  0  0  0  0  0  0  0  0  0  0  0
   -0.3821   11.9434    1.4647 N   0  0  0  0  0  0  0  0  0  0  0  0
   -0.3369   11.5388    3.4332 C   0  0  0  0  0  0  0  0  0  0  0  0
   -0.0103   12.5029    0.2789 C   0  0  0  0  0  0  0  0  0  0  0  0
   -0.0869   12.3273   -1.3823 C   0  0  0  0  0  0  0  0  0  0  0  0
    1.2001   13.8027    2.4784 S   0  0  0  0  0  0  0  0  0  0  0  0
    0.9207   13.5832    0.8441 C   0  0  0  0  0  0  0  0  0  0  0  0
  3  2  2  0
  4  1  1  0
  5  1  1  0
  6  4  1  0
  7  3  1  0
  7  6  2  0
  8  1  1  0
  9  1  1  0
  9  2  1  0
  9  6  1  0
  9  8  1  0
M  END
>  <ID>  (1) 
conformer_0

$$$$
