
     RDKit          3D

 11 13  0  0  0  0  0  0  0  0999 V2000
    0.1071   12.4474    0.3459 C   0  0  0  0  0  0  0  0  0  0  0  0
    0.1889   12.6325   -1.9990 C   0  0  0  0  0  0  0  0  0  0  0  0
    0.9780   13.7666   -1.7342 C   0  0  0  0  0  0  0  0  0  0  0  0
    1.0022   14.0229   -0.3836 C   0  0  0  0  0  3  0  0  0  0  0  0
    0.3450   12.4090    2.5405 C   0  0  0  0  0  0  0  0  0  0  0  0
   -0.5617   10.5318    3.5507 O   0  0  0  0  0  0  0  0  0  0  0  0
   -0.2840   11.9822    1.4142 N   0  0  0  0  0  0  0  0  0  0  0  0
   -0.2958   11.2480    3.2928 C   0  0  0  0  0  0  0  0  0  0  0  0
    1.0910   13.7239    2.8602 S   0  0  0  0  0  0  0  0  0  0  0  0
   -0.4677   12.0899   -0.9293 C   0  0  0  0  0  0  0  0  0  0  0  0
    0.9162   13.6422    1.0527 C   0  0  0  0  0  0  0  0  0  0  0  0
  3  2  2  0
  4  1  1  0
  4  3  1  0
  7  1  1  0
  7  5  1  0
  8  5  2  0
  8  6  2  0
  9  5  1  0
 10  1  1  0
 10  2  1  0
 11  1  1  0
 11  4  1  0
 11  9  1  0
M  RAD  1   4   2
M  END
>  <ID>  (1) 
conformer_0

$$$$
