
     RDKit          3D

  9 10  0  0  0  0  0  0  0  0999 V2000
    0.4087   12.7703   -2.1573 C   0  0  0  0  0  0  0  0  0  0  0  0
    0.6883   13.1178    1.3726 C   0  0  0  0  0  0  0  0  0  0  0  0
   -0.2782   12.1758   -1.1525 C   0  0  0  0  0  0  0  0  0  0  0  0
   -0.3906   11.8718    1.6222 N   0  0  0  0  0  0  0  0  0  0  0  0
   -0.1871   11.7997    3.4648 C   0  0  0  0  0  0  0  0  0  0  0  0
    1.1214   13.9922   -1.7678 C   0  0  0  0  0  0  0  0  0  0  0  0
    1.0832   14.1631   -0.4561 C   0  0  0  0  0  3  0  0  0  0  0  0
    1.0300   13.7875    2.5469 S   0  0  0  0  0  0  0  0  0  0  0  0
    0.1337   12.7258    0.0488 C   0  0  0  0  0  0  0  0  0  0  0  0
  3  1  2  0
  4  2  1  0
  5  4  1  0
  6  1  1  0
  7  6  1  0
  8  2  2  0
  9  2  1  0
  9  3  1  0
  9  4  1  0
  9  7  1  0
M  RAD  1   7   2
M  END
>  <ID>  (1) 
conformer_0

$$$$
