
     RDKit          3D

 10 11  0  0  0  0  0  0  0  0999 V2000
   -0.2229   12.1084   -1.4504 C   0  0  0  0  0  0  0  0  0  0  0  0
    0.3689   12.6988    2.2680 C   0  0  0  0  0  0  0  0  0  0  0  0
    0.6069   13.2136   -1.8419 C   0  0  0  0  0  0  0  0  0  0  0  0
   -0.3907   11.7588    1.1880 N   0  0  0  0  0  0  0  0  0  0  0  0
   -0.0789   12.3499    0.1249 C   0  0  0  0  0  0  0  0  0  0  0  0
    1.0342   13.7546    3.0510 S   0  0  0  0  0  1  0  0  0  0  0  0
    0.1758   11.1977    3.6991 O   0  0  0  0  0  0  0  0  0  0  0  0
   -0.1369   11.9597    3.3297 C   0  0  0  0  0  0  0  0  0  0  0  0
    0.9955   14.0562   -0.7816 C   0  0  0  0  0  0  0  0  0  0  0  0
    0.7554   13.4841    0.7527 C   0  0  0  0  0  0  0  0  0  0  0  0
  3  1  2  0
  4  2  1  0
  5  1  1  0
  5  4  1  0
  6  2  1  0
  8  2  1  0
  8  7  2  0
  9  3  1  0
 10  2  1  0
 10  5  1  0
 10  9  2  0
M  RAD  1   6   2
M  END
>  <ID>  (1) 
conformer_0

$$$$
