
     RDKit          3D

 11 12  0  0  0  0  0  0  0  0999 V2000
    0.2883   12.6657   -2.0206 C   0  0  0  0  0  0  0  0  0  0  0  0
    0.4107   12.6878    2.1313 C   0  0  0  0  0  0  0  0  0  0  0  0
    0.9008   13.8900   -1.7950 C   0  0  0  0  0  0  0  0  0  0  0  0
    1.0492   14.3975   -0.5400 C   0  0  0  0  0  3  0  0  0  0  0  0
   -0.3422   11.6995    3.4233 C   0  0  0  0  0  0  0  0  0  0  0  0
   -0.4696   10.7867    3.1772 O   0  0  0  0  0  0  0  0  0  0  0  0
   -0.2494   12.1626    1.3728 N   0  0  0  0  0  0  0  0  0  0  0  0
   -0.0549   12.5019    0.1947 C   0  0  0  0  0  0  0  0  0  0  0  0
    1.4853   14.1618    1.6935 N   0  0  0  0  0  0  0  0  0  0  0  0
   -0.3432   12.0456   -0.9497 C   0  0  0  0  0  0  0  0  0  0  0  0
    0.9331   13.7426    0.6083 C   0  0  0  0  0  0  0  0  0  0  0  0
  3  1  2  0
  4  3  1  0
  5  2  1  0
  6  5  1  0
  7  2  2  0
  8  7  1  0
 10  1  1  0
 10  8  2  0
 11  2  1  0
 11  4  1  0
 11  8  1  0
 11  9  1  0
M  RAD  1   4   2
M  END
>  <ID>  (1) 
conformer_0

$$$$
