
     RDKit          3D

  8  7  0  0  0  0  0  0  0  0999 V2000
    0.6089   13.1411    1.2449 C   0  0  0  0  0  0  0  0  0  0  0  0
    1.1349   14.2258   -0.7356 C   0  0  0  0  0  0  0  0  0  0  0  0
    0.7206   13.3982   -1.7597 C   0  0  0  0  0  0  0  0  0  0  0  0
   -0.2502   11.6041    3.2357 C   0  0  0  0  0  0  0  0  0  0  0  0
    1.0082   13.7165    2.7142 S   0  0  0  0  0  0  0  0  0  0  0  0
   -0.1668   12.3357   -1.2980 C   0  0  0  0  0  0  0  0  0  0  0  0
    0.1812   12.6525    0.4270 C   0  0  0  0  0  0  0  0  0  0  0  0
   -0.3116   11.8879    1.3087 N   0  0  0  0  0  0  0  0  0  0  0  0
  3  2  1  0
  5  1  1  0
  6  3  2  3
  7  1  1  0
  7  6  1  0
  8  4  1  0
  8  7  2  3
M  END
>  <ID>  (1) 
conformer_0

$$$$
