
     RDKit          3D

  9 10  0  0  0  0  0  0  0  0999 V2000
    0.3211   12.6667    1.7953 C   0  0  0  0  0  0  0  0  0  0  0  0
    1.3147   14.2016   -0.4734 C   0  0  0  0  0  0  0  0  0  0  0  0
    1.1346   13.9513   -1.7338 C   0  0  0  0  0  0  0  0  0  0  0  0
   -0.5780   11.5764    1.4118 N   0  0  0  0  0  0  0  0  0  0  0  0
    1.2040   13.9541    2.7037 S   0  0  0  0  0  0  0  0  0  0  0  0
    0.2552   12.8911   -2.0360 C   0  0  0  0  0  0  0  0  0  0  0  0
    0.3351   12.8937    0.3812 C   0  0  0  0  0  0  0  0  0  0  0  0
   -0.2261   12.0412    3.6208 C   0  0  0  0  0  0  0  0  0  0  0  0
   -0.4809   12.1921   -1.1018 C   0  0  0  0  0  0  0  0  0  0  0  0
  3  2  2  0
  4  1  1  0
  5  1  1  0
  6  3  1  0
  7  1  1  0
  7  2  1  0
  7  4  1  0
  8  1  1  0
  9  6  2  0
  9  7  1  0
M  END
>  <ID>  (1) 
conformer_0

$$$$
