
     RDKit          3D

  9  9  0  0  0  0  0  0  0  0999 V2000
    0.8969   13.9764   -1.8253 C   0  0  0  0  0  0  0  0  0  0  0  0
    0.3946   12.6012    1.6389 C   0  0  0  0  0  0  0  0  0  0  0  0
    0.9635   14.2839   -0.5056 C   0  0  0  0  0  0  0  0  0  0  0  0
    0.5661   13.4235    2.0097 N   0  0  0  0  0  0  0  0  0  0  0  0
   -0.1719   11.3975    3.4119 C   0  0  0  0  0  0  0  0  0  0  0  0
    0.2046   12.7069   -1.9791 C   0  0  0  0  0  0  0  0  0  0  0  0
    0.4568   13.2434    0.3024 C   0  0  0  0  0  0  0  0  0  0  0  0
   -0.5133   11.7591    1.4628 N   0  0  0  0  0  0  0  0  0  0  0  0
   -0.3612   12.1835   -0.9311 C   0  0  0  0  0  0  0  0  0  0  0  0
  3  1  2  0
  4  2  2  3
  6  1  1  0
  7  2  1  0
  7  3  1  0
  8  2  1  0
  8  5  1  0
  9  6  1  0
  9  7  2  0
M  END
>  <ID>  (1) 
conformer_0

$$$$
