
     RDKit          3D

  9 10  0  0  0  0  0  0  0  0999 V2000
    1.0338   14.2282   -0.4358 C   0  0  0  0  0  3  0  0  0  0  0  0
    0.3522   13.1155    0.2519 C   0  0  0  0  0  0  0  0  0  0  0  0
    0.9870   13.9576   -1.8272 C   0  0  0  0  0  0  0  0  0  0  0  0
   -0.3217   11.3962    3.3110 C   0  0  0  0  0  0  0  0  0  0  0  0
    1.1172   13.6662    2.5443 S   0  0  0  0  0  0  0  0  0  0  0  0
   -0.3162   11.8849    1.4928 N   0  0  0  0  0  0  0  0  0  0  0  0
    0.1992   12.7559   -2.0898 C   0  0  0  0  0  0  0  0  0  0  0  0
    0.5168   12.9194    1.7518 C   0  0  0  0  0  0  0  0  0  0  0  0
   -0.4770   12.1928   -1.0113 C   0  0  0  0  0  0  0  0  0  0  0  0
  2  1  1  0
  3  1  1  0
  6  2  1  0
  6  4  1  0
  7  3  1  0
  8  2  1  0
  8  5  2  0
  8  6  1  0
  9  2  1  0
  9  7  2  0
M  RAD  1   1   2
M  END
>  <ID>  (1) 
conformer_0

$$$$
