
     RDKit          3D

 10 11  0  0  0  0  0  0  0  0999 V2000
    1.1066   14.2078   -0.1225 C   0  0  0  0  0  3  0  0  0  0  0  0
    0.7183   13.2706    1.1986 C   0  0  0  0  0  0  0  0  0  0  0  0
    1.0638   14.0402   -1.5264 C   0  0  0  0  0  0  0  0  0  0  0  0
   -0.0417   11.7817    3.2954 C   0  0  0  0  0  0  0  0  0  0  0  0
   -0.3678   11.8175    1.1981 N   0  0  0  0  0  0  0  0  0  0  0  0
   -0.2049   10.5704    3.0844 O   0  0  0  0  0  0  0  0  0  0  0  0
    0.3565   12.9145   -1.9797 C   0  0  0  0  0  0  0  0  0  0  0  0
    0.9664   13.8147    2.7278 S   0  0  0  0  0  0  0  0  0  0  0  0
    0.0414   12.5896    0.1836 C   0  0  0  0  0  0  0  0  0  0  0  0
   -0.4223   12.1724   -1.1188 C   0  0  0  0  0  0  0  0  0  0  0  0
  2  1  1  0
  3  1  1  0
  5  2  1  0
  6  4  2  0
  7  3  2  0
  8  2  1  0
  8  4  1  0
  9  2  1  0
  9  5  1  0
 10  7  1  0
 10  9  2  0
M  RAD  1   1   2
M  END
>  <ID>  (1) 
conformer_0

$$$$
