
     RDKit          3D

  9 10  0  0  0  0  0  0  0  0999 V2000
    1.2739   14.2912   -0.6751 C   0  0  0  0  0  0  0  0  0  0  0  0
    0.1494   12.2879    2.2519 C   0  0  0  0  0  0  0  0  0  0  0  0
    0.8553   13.5475   -1.7553 C   0  0  0  0  0  0  0  0  0  0  0  0
   -0.5464   11.4761    1.1826 N   0  0  0  0  0  0  0  0  0  0  0  0
   -0.3045   11.7840    3.5007 C   0  0  0  0  0  0  0  0  0  0  0  0
    0.9801   13.8300    2.5311 S   0  0  0  0  0  0  0  0  0  0  0  0
   -0.1242   12.1673    0.2362 C   0  0  0  0  0  0  0  0  0  0  0  0
    0.0093   12.4518   -1.4196 C   0  0  0  0  0  0  0  0  0  0  0  0
    0.8250   13.4168    0.5969 C   0  0  0  0  0  0  0  0  0  0  0  0
  3  1  2  0
  4  2  1  0
  5  2  1  0
  6  2  1  0
  7  4  1  0
  8  3  1  0
  8  7  2  0
  9  1  1  0
  9  6  1  0
  9  7  1  0
M  END
>  <ID>  (1) 
conformer_0

$$$$
