
     RDKit          3D

 11 13  0  0  0  0  0  0  0  0999 V2000
    0.8328   13.5511   -1.8626 C   0  0  0  0  0  0  0  0  0  0  0  0
    0.4762   12.6828    2.0825 C   0  0  0  0  0  0  0  0  0  0  0  0
   -0.0532   12.3563   -2.0277 C   0  0  0  0  0  0  0  0  0  0  0  0
   -0.3451   11.7318    1.3751 N   0  0  0  0  0  0  0  0  0  0  0  0
   -0.0839   12.1123    3.5805 C   0  0  0  0  0  0  0  0  0  0  0  0
   -0.1609   12.1903    0.2197 C   0  0  0  0  0  0  0  0  0  0  0  0
    1.4637   14.4393    1.0490 N   0  0  0  0  0  0  0  0  0  0  0  0
    0.8651   13.8223   -0.6513 C   0  0  0  0  0  3  0  0  0  0  0  0
    1.1503   13.7685    2.4963 S   0  0  0  0  0  0  0  0  0  0  0  0
    0.8460   13.6037    0.5513 C   0  0  0  0  0  0  0  0  0  0  0  0
   -0.6065   11.8588   -0.9772 C   0  0  0  0  0  0  0  0  0  0  0  0
  3  1  1  0
  4  2  1  0
  5  2  1  0
  6  4  2  0
  8  1  2  0
  9  2  1  0
  9  7  1  0
 10  2  1  0
 10  6  1  0
 10  7  1  0
 10  8  1  0
 11  3  1  0
 11  6  1  0
M  RAD  1   8   2
M  END
>  <ID>  (1) 
conformer_0

$$$$
