
     RDKit          3D

 11 12  0  0  0  0  0  0  0  0999 V2000
    0.6757   13.4472    0.4029 C   0  0  0  0  0  0  0  0  0  0  0  0
    0.9907   14.0808   -0.2029 C   0  0  0  0  0  0  0  0  0  0  0  0
    0.9019   13.8495   -1.5987 C   0  0  0  0  0  0  0  0  0  0  0  0
   -0.4289   11.5632    1.2678 N   0  0  0  0  0  0  0  0  0  0  0  0
    1.1164   13.9034    2.7121 S   0  0  0  0  0  0  0  0  0  0  0  0
   -0.0544   12.0357    3.2524 C   0  0  0  0  0  0  0  0  0  0  0  0
   -0.0597   10.9201    3.3608 O   0  0  0  0  0  0  0  0  0  0  0  0
   -0.3313   12.0280    0.0126 C   0  0  0  0  0  0  0  0  0  0  0  0
    0.2935   12.6726   -1.9745 C   0  0  0  0  0  0  0  0  0  0  0  0
   -0.5144   11.9442   -1.1543 C   0  0  0  0  0  0  0  0  0  0  0  0
    0.5029   12.9150    1.8546 C   0  0  0  0  0  0  0  0  0  0  0  0
  2  1  2  0
  3  2  1  0
  7  6  2  0
  8  1  1  0
  8  4  1  0
  9  3  2  0
 10  8  2  0
 10  9  1  0
 11  1  1  0
 11  4  1  0
 11  5  1  0
 11  6  1  0
M  END
>  <ID>  (1) 
conformer_0

$$$$
