
     RDKit          3D

 10 10  0  0  0  0  0  0  0  0999 V2000
    0.9858   13.9567   -1.1504 C   0  0  0  0  0  0  0  0  0  0  0  0
    0.8754   13.7131    0.5513 C   0  0  0  0  0  0  0  0  0  0  0  0
    0.6882   13.2534   -2.1761 C   0  0  0  0  0  0  0  0  0  0  0  0
   -0.2848   11.9764    1.7433 N   0  0  0  0  0  0  0  0  0  0  0  0
    0.7058   12.9917    2.5019 C   0  0  0  0  0  0  0  0  0  0  0  0
   -0.3301   11.5333    3.4876 C   0  0  0  0  0  0  0  0  0  0  0  0
    1.3004   14.3011    0.9825 N   0  0  0  0  0  0  0  0  0  0  0  0
   -0.2723   12.1584   -1.9191 C   0  0  0  0  0  0  0  0  0  0  0  0
   -0.6551   11.8995   -0.7110 C   0  0  0  0  0  0  0  0  0  0  0  0
    0.0588   12.6141    0.2687 C   0  0  0  0  0  0  0  0  0  0  0  0
  2  1  2  0
  3  1  1  0
  5  4  1  0
  6  4  1  0
  7  2  1  0
  8  3  2  0
  9  8  1  0
 10  2  1  0
 10  4  1  0
 10  9  2  0
M  END
>  <ID>  (1) 
conformer_0

$$$$
