
     RDKit          3D

  9 10  0  0  0  0  0  0  0  0999 V2000
   -0.2635   12.0458   -1.3664 C   0  0  0  0  0  0  0  0  0  0  0  0
   -0.0372   12.5086    0.0776 C   0  0  0  0  0  0  0  0  0  0  0  0
    0.5226   13.0570   -1.9007 C   0  0  0  0  0  0  0  0  0  0  0  0
   -0.3049   11.7049    3.4793 C   0  0  0  0  0  0  0  0  0  0  0  0
   -0.3918   11.7427    1.2421 N   0  0  0  0  0  0  0  0  0  0  0  0
    0.9271   13.7766    0.5608 C   0  0  0  0  0  0  0  0  0  0  0  0
    0.9593   14.0265   -1.1063 C   0  0  0  0  0  0  0  0  0  0  0  0
    0.3701   12.6414    2.0607 C   0  0  0  0  0  0  0  0  0  0  0  0
    0.6873   13.5441    1.8697 N   0  0  0  0  0  0  0  0  0  0  0  0
  2  1  2  0
  3  1  1  0
  5  2  1  0
  6  2  1  0
  7  3  1  0
  7  6  2  0
  8  4  1  0
  8  5  2  0
  9  6  1  0
  9  8  1  0
M  END
>  <ID>  (1) 
conformer_0

$$$$
