
     RDKit          3D

  8  9  0  0  0  0  0  0  0  0999 V2000
   -0.1852   11.9648   -1.4536 C   0  0  0  0  0  0  0  0  0  0  0  0
    0.5091   13.0061    1.5417 C   0  0  0  0  0  0  0  0  0  0  0  0
    0.5676   13.0049   -2.0898 C   0  0  0  0  0  0  0  0  0  0  0  0
   -0.2926   11.8720    1.5253 N   0  0  0  0  0  0  0  0  0  0  0  0
    1.0409   13.9791    2.4919 S   0  0  0  0  0  0  0  0  0  0  0  0
    0.9263   14.0089   -1.1950 C   0  0  0  0  0  0  0  0  0  0  0  0
   -0.2521   11.7677    3.4634 C   0  0  0  0  0  0  0  0  0  0  0  0
    0.2747   12.9207    0.1202 C   0  0  0  0  0  0  0  0  0  0  0  0
  3  1  1  0
  4  2  1  0
  5  2  2  0
  6  3  2  0
  7  4  1  0
  8  1  1  0
  8  2  1  0
  8  4  1  0
  8  6  1  0
M  END
>  <ID>  (1) 
conformer_0

$$$$
