
     RDKit          3D

  9  9  0  0  0  0  0  0  0  0999 V2000
    0.4139   12.8474   -2.0241 C   0  0  0  0  0  0  0  0  0  0  0  0
    0.4489   13.0289    0.2389 C   0  0  0  0  0  0  0  0  0  0  0  0
    0.9699   13.8452   -1.3026 C   0  0  0  0  0  0  0  0  0  0  0  0
   -0.1638   12.0636    1.5714 N   0  0  0  0  0  0  0  0  0  0  0  0
   -0.3577   11.9972   -1.2207 C   0  0  0  0  0  0  0  0  0  0  0  0
    0.5589   12.8917    1.8088 C   0  0  0  0  0  0  0  0  0  0  0  0
   -0.1604   11.7246    3.5166 C   0  0  0  0  0  0  0  0  0  0  0  0
    1.1662   14.0846    2.4885 S   0  0  0  0  0  0  0  0  0  0  0  0
   -0.7642   11.5073    3.7838 O   0  0  0  0  0  0  0  0  0  0  0  0
  3  1  2  0
  3  2  1  0
  5  1  1  0
  5  2  2  0
  6  2  1  0
  6  4  1  0
  7  4  1  0
  8  6  2  0
  9  7  2  0
M  END
>  <ID>  (1) 
conformer_0

$$$$
