
     RDKit          3D

 11 12  0  0  0  0  0  0  0  0999 V2000
    0.9258   13.6557    0.7481 C   0  0  0  0  0  0  0  0  0  0  0  0
    0.9384   13.8052   -1.9682 C   0  0  0  0  0  0  0  0  0  0  0  0
    1.0479   14.2159   -0.6562 C   0  0  0  0  0  0  0  0  0  0  0  0
   -0.3709   11.8185    1.1093 N   0  0  0  0  0  0  0  0  0  0  0  0
   -0.2957   11.4694    3.4470 C   0  0  0  0  0  0  0  0  0  0  0  0
    0.0185   12.5247    0.0169 C   0  0  0  0  0  0  0  0  0  0  0  0
    0.1780   12.6683   -2.1121 C   0  0  0  0  0  0  0  0  0  0  0  0
    1.0347   13.7239    2.6793 S   0  0  0  0  0  0  0  0  0  0  0  0
    0.4919   12.7137    2.1005 C   0  0  0  0  0  0  0  0  0  0  0  0
    1.4299   14.2096    3.1813 Cl  0  0  0  0  0  0  0  0  0  0  0  0
   -0.5585   11.9834   -1.2101 C   0  0  0  0  0  0  0  0  0  0  0  0
  3  1  1  0
  3  2  2  0
  6  1  2  0
  6  4  1  0
  7  2  1  0
  9  1  1  0
  9  4  1  0
  9  5  1  0
  9  8  1  0
 10  8  1  0
 11  6  1  0
 11  7  2  0
M  END
>  <ID>  (1) 
conformer_0

$$$$
