
     RDKit          3D

 10 11  0  0  0  0  0  0  0  0999 V2000
    1.1641   14.1631   -0.7012 C   0  0  0  0  0  0  0  0  0  0  0  0
    0.8397   13.5552    0.5989 C   0  0  0  0  0  0  0  0  0  0  0  0
    1.0369   13.9234   -1.9544 C   0  0  0  0  0  0  0  0  0  0  0  0
    0.2013   12.6771   -2.1245 C   0  0  0  0  0  0  0  0  0  0  0  0
   -0.5419   11.4901    1.3618 N   0  0  0  0  0  0  0  0  0  0  0  0
   -0.3511   11.6088    3.3978 C   0  0  0  0  0  0  0  0  0  0  0  0
    1.2367   13.6482    2.8001 S   0  0  0  0  0  0  0  0  0  0  0  0
    0.3392   12.5917    2.2585 C   0  0  0  0  0  0  0  0  0  0  0  0
   -0.3657   12.1609   -1.0541 C   0  0  0  0  0  0  0  0  0  0  0  0
   -0.0097   12.3671    0.3000 C   0  0  0  0  0  0  0  0  0  0  0  0
  2  1  2  0
  3  1  1  0
  4  3  2  0
  7  2  1  0
  8  5  2  0
  8  6  1  0
  8  7  1  0
  9  4  1  0
 10  2  1  0
 10  5  1  0
 10  9  2  0
M  END
>  <ID>  (1) 
conformer_0

$$$$
