
     RDKit          3D

 11 11  0  0  0  0  0  0  0  0999 V2000
    1.1481   14.0809   -0.8814 C   0  0  0  0  0  0  0  0  0  0  0  0
    1.0542   13.7130   -2.1284 C   0  0  0  0  0  0  0  0  0  0  0  0
    0.4160   13.0014    0.0248 C   0  0  0  0  0  0  0  0  0  0  0  0
   -0.3955   11.6500    1.3851 N   0  0  0  0  0  0  0  0  0  0  0  0
   -0.3425   12.1162   -1.0894 C   0  0  0  0  0  0  0  0  0  0  0  0
   -0.1670   11.7648    3.4175 C   0  0  0  0  0  0  0  0  0  0  0  0
   -0.6392   10.6041    3.4483 O   0  0  0  0  0  0  0  0  0  0  0  0
    0.3987   12.7319    1.7584 C   0  0  0  0  0  0  0  0  0  0  0  0
    0.9976   13.9241    3.0103 S   0  0  0  0  0  0  0  0  0  0  0  0
    0.2302   12.4998   -2.2238 C   0  0  0  0  0  0  0  0  0  0  0  0
    0.7023   13.3506    1.7445 N   0  0  0  0  0  0  0  0  0  0  0  0
  2  1  2  0
  3  1  1  0
  5  3  1  0
  6  4  1  0
  7  6  1  0
  8  3  2  3
  8  4  1  0
 10  2  1  0
 10  5  2  0
 11  8  1  0
 11  9  2  0
M  END
>  <ID>  (1) 
conformer_0

$$$$
