
     RDKit          3D

 10 11  0  0  0  0  0  0  0  0999 V2000
    0.2043   12.4432    2.1509 C   0  0  0  0  0  0  0  0  0  0  0  0
    0.4852   13.1214   -1.8812 C   0  0  0  0  0  0  0  0  0  0  0  0
    1.0229   14.0060   -1.0313 C   0  0  0  0  0  0  0  0  0  0  0  0
   -0.5654   11.4790    1.3260 N   0  0  0  0  0  0  0  0  0  0  0  0
    1.1133   13.7671    2.9457 S   0  0  0  0  0  0  0  0  0  0  0  0
    0.8584   13.6215    0.6414 C   0  0  0  0  0  0  0  0  0  0  0  0
    1.4414   14.5466    1.2714 N   0  0  0  0  0  0  0  0  0  0  0  0
   -0.3833   11.5111    3.4138 C   0  0  0  0  0  0  0  0  0  0  0  0
   -0.3496   12.1101   -1.3977 C   0  0  0  0  0  0  0  0  0  0  0  0
   -0.1672   12.3008    0.2060 C   0  0  0  0  0  0  0  0  0  0  0  0
  3  2  2  0
  4  1  1  0
  5  1  1  0
  6  3  1  0
  7  5  1  0
  7  6  1  0
  8  1  1  0
  9  2  1  0
 10  4  1  0
 10  6  2  0
 10  9  1  0
M  END
>  <ID>  (1) 
conformer_0

$$$$
