
     RDKit          3D

 10 10  0  0  0  0  0  0  0  0999 V2000
    1.1813   14.2883   -0.1610 C   0  0  0  0  0  0  0  0  0  0  0  0
    0.3488   12.7373    1.5049 C   0  0  0  0  0  0  0  0  0  0  0  0
    0.9797   13.8972   -1.4485 C   0  0  0  0  0  0  0  0  0  0  0  0
    0.2484   12.7670   -1.7467 C   0  0  0  0  0  0  0  0  0  0  0  0
    1.0249   13.6547    2.6748 S   0  0  0  0  0  0  0  0  0  0  0  0
   -0.1921   11.7877    3.2822 C   0  0  0  0  0  0  0  0  0  0  0  0
   -0.1982   10.9234    3.3897 O   0  0  0  0  0  0  0  0  0  0  0  0
    0.3978   12.9927    0.4469 C   0  0  0  0  0  0  0  0  0  0  0  0
   -0.2708   11.6246    1.4067 N   0  0  0  0  0  0  0  0  0  0  0  0
   -0.3684   12.0241   -0.7582 C   0  0  0  0  0  0  0  0  0  0  0  0
  3  1  2  0
  4  3  1  0
  5  2  2  0
  7  6  1  0
  8  1  1  0
  8  2  1  0
  9  2  1  0
  9  6  1  0
 10  4  2  0
 10  8  1  0
M  END
>  <ID>  (1) 
conformer_0

$$$$
