
     RDKit          3D

  9  9  0  0  0  0  0  0  0  0999 V2000
    1.0191   14.1446   -0.4741 C   0  0  0  0  0  0  0  0  0  0  0  0
    0.3863   12.8266    1.8886 C   0  0  0  0  0  0  0  0  0  0  0  0
    0.8499   13.6782   -1.7862 C   0  0  0  0  0  0  0  0  0  0  0  0
    0.1387   12.4967   -1.8548 C   0  0  0  0  0  0  0  0  0  0  0  0
   -0.2332   12.0130    1.6726 N   0  0  0  0  0  0  0  0  0  0  0  0
   -0.4341   11.7675    3.3987 C   0  0  0  0  0  0  0  0  0  0  0  0
    1.3343   13.6532    2.5474 S   0  0  0  0  0  0  0  0  0  0  0  0
    0.4025   12.9824    0.3911 C   0  0  0  0  0  0  0  0  0  0  0  0
   -0.3861   11.9496   -0.7459 C   0  0  0  0  0  0  0  0  0  0  0  0
  3  1  2  0
  4  3  1  0
  5  2  1  0
  6  5  1  0
  7  2  2  0
  8  1  1  0
  8  2  1  0
  9  4  2  0
  9  8  1  0
M  END
>  <ID>  (1) 
conformer_0

$$$$
