
     RDKit          3D

  9  8  0  0  0  0  0  0  0  0999 V2000
    1.0669   14.2477   -0.6199 C   0  0  0  0  0  0  0  0  0  0  0  0
    0.0823   12.6263    0.3002 C   0  0  0  0  0  0  0  0  0  0  0  0
    0.7446   13.5386   -1.7329 C   0  0  0  0  0  0  0  0  0  0  0  0
   -0.5641   11.7503    0.8848 N   0  0  0  0  0  0  0  0  0  0  0  0
   -0.2552   11.4953    3.3131 C   0  0  0  0  0  0  0  0  0  0  0  0
    0.7255   13.2481    1.1768 C   0  0  0  0  0  0  0  0  0  0  0  0
   -0.1435   12.4630   -1.5726 C   0  0  0  0  0  0  0  0  0  0  0  0
    1.7866   14.4421    2.0789 Cl  0  0  0  0  0  0  0  0  0  0  0  0
    0.9349   13.7878    2.2563 S   0  0  0  0  0  0  0  0  0  0  0  0
  3  1  1  0
  4  2  2  3
  5  4  1  0
  6  2  1  0
  7  2  1  0
  7  3  2  3
  9  6  1  0
  9  8  1  0
M  END
>  <ID>  (1) 
conformer_0

$$$$
