
     RDKit          3D

  8  7  0  0  0  0  0  0  0  0999 V2000
   -0.2657   12.1841   -1.1763 C   0  0  0  0  0  0  0  0  0  0  0  0
    0.2528   12.6298    1.2055 C   0  0  0  0  0  0  0  0  0  0  0  0
    0.5261   13.2144   -1.8109 C   0  0  0  0  0  0  0  0  0  0  0  0
    1.0720   14.1893   -0.9617 C   0  0  0  0  0  0  0  0  0  0  0  0
   -0.2618   11.4398    3.3856 C   0  0  0  0  0  0  0  0  0  0  0  0
    0.6356   13.3584    0.5563 C   0  0  0  0  0  0  0  0  0  0  0  0
   -0.4845   11.7859    1.3181 N   0  0  0  0  0  0  0  0  0  0  0  0
    1.4462   13.9610    2.3543 S   0  0  0  0  0  0  0  0  0  0  0  0
  3  1  1  0
  4  3  1  0
  6  2  1  0
  6  4  2  3
  7  2  1  0
  7  5  1  0
  8  6  1  0
M  END
>  <ID>  (1) 
conformer_0

$$$$
