
     RDKit          3D

  9  9  0  0  0  0  0  0  0  0999 V2000
    1.0965   13.8287   -1.8616 C   0  0  0  0  0  0  0  0  0  0  0  0
    0.3899   12.8468    0.4872 C   0  0  0  0  0  0  0  0  0  0  0  0
    0.9884   14.0380   -0.5228 C   0  0  0  0  0  0  0  0  0  0  0  0
   -0.3161   11.6266    1.6552 N   0  0  0  0  0  0  0  0  0  0  0  0
    0.3364   12.6116   -2.1450 C   0  0  0  0  0  0  0  0  0  0  0  0
   -0.3660   11.4372    3.5373 C   0  0  0  0  0  0  0  0  0  0  0  0
    0.4316   12.7653    2.1726 C   0  0  0  0  0  0  0  0  0  0  0  0
    0.9115   13.9279    2.1674 S   0  0  0  0  0  0  0  0  0  0  0  0
   -0.3138   12.1587   -1.0068 C   0  0  0  0  0  0  0  0  0  0  0  0
  3  1  2  0
  3  2  1  0
  5  1  1  0
  6  4  1  0
  7  2  1  0
  7  4  1  0
  8  7  2  0
  9  2  2  0
  9  5  1  0
M  END
>  <ID>  (1) 
conformer_0

$$$$
