
     RDKit          3D

 10 11  0  0  0  0  0  0  0  0999 V2000
    1.0108   14.1097   -1.0469 C   0  0  0  0  0  0  0  0  0  0  0  0
    0.4461   12.6312    2.0918 C   0  0  0  0  0  0  0  0  0  0  0  0
    0.5628   13.2240   -2.0014 C   0  0  0  0  0  0  0  0  0  0  0  0
   -0.2157   11.7657    1.3466 N   0  0  0  0  0  0  0  0  0  0  0  0
   -0.1239   11.7189    3.3402 C   0  0  0  0  0  0  0  0  0  0  0  0
   -0.0887   10.6160    3.7076 O   0  0  0  0  0  0  0  0  0  0  0  0
    1.1290   14.0806    2.5581 S   0  0  0  0  0  0  0  0  0  0  0  0
    0.8676   13.6713    0.4552 C   0  0  0  0  0  0  0  0  0  0  0  0
   -0.2126   12.1705   -1.4724 C   0  0  0  0  0  0  0  0  0  0  0  0
   -0.0452   12.3259    0.0395 C   0  0  0  0  0  0  0  0  0  0  0  0
  3  1  2  0
  4  2  1  0
  5  2  1  0
  6  5  2  0
  7  2  1  0
  8  1  1  0
  8  7  1  0
  9  3  1  0
 10  4  1  0
 10  8  1  0
 10  9  2  0
M  END
>  <ID>  (1) 
conformer_0

$$$$
