
     RDKit          3D

 11 12  0  0  0  0  0  0  0  0999 V2000
    1.2427   14.4546   -0.8558 C   0  0  0  0  0  0  0  0  0  0  0  0
    0.3725   12.7263    1.7148 C   0  0  0  0  0  0  0  0  0  0  0  0
    1.1837   14.0589   -2.1405 C   0  0  0  0  0  0  0  0  0  0  0  0
   -0.5391   11.4758    1.5338 N   0  0  0  0  0  0  0  0  0  0  0  0
   -0.3233   11.5238    3.4218 C   0  0  0  0  0  0  0  0  0  0  0  0
    0.3797   12.7755   -2.2137 C   0  0  0  0  0  0  0  0  0  0  0  0
   -0.2040   12.3304   -1.1111 C   0  0  0  0  0  0  0  0  0  0  0  0
   -0.0598   10.4551    3.6382 O   0  0  0  0  0  0  0  0  0  0  0  0
    0.4840   13.2248    0.0683 C   0  0  0  0  0  0  0  0  0  0  0  0
    0.4772   13.6140    1.4075 N   0  0  0  0  0  0  0  0  0  0  0  0
    0.2778   12.5338    3.4151 N   0  0  0  0  0  0  0  0  0  0  0  0
  3  1  2  0
  4  2  2  0
  5  4  1  0
  6  3  1  0
  7  6  2  0
  8  5  1  0
  9  1  1  0
  9  7  1  0
 10  2  1  0
 10  9  1  0
 11  2  1  0
 11  5  1  0
M  END
>  <ID>  (1) 
conformer_0

$$$$
