
     RDKit          3D

 11 13  0  0  0  0  0  0  0  0999 V2000
    1.1939   14.2624   -0.1598 C   0  0  0  0  0  0  0  0  0  0  0  0
    0.2192   12.4786    2.1121 C   0  0  0  0  0  0  0  0  0  0  0  0
    1.1950   14.2229   -1.5520 C   0  0  0  0  0  0  0  0  0  0  0  0
   -0.3083   11.6322    3.2567 C   0  0  0  0  0  0  0  0  0  0  0  0
   -0.4876   11.7294    1.1317 N   0  0  0  0  0  0  0  0  0  0  0  0
    1.0602   13.7837    2.6681 S   0  0  0  0  0  0  0  0  0  0  0  0
    0.5295   13.0795   -2.0828 C   0  0  0  0  0  0  0  0  0  0  0  0
    0.1725   10.5885    3.6644 O   0  0  0  0  0  0  0  0  0  0  0  0
   -0.0882   12.3466   -0.0258 C   0  0  0  0  0  3  0  0  0  0  0  0
    0.7649   13.4714    0.6164 C   0  0  0  0  0  0  0  0  0  0  0  0
   -0.2283   12.1979   -1.2968 C   0  0  0  0  0  0  0  0  0  0  0  0
  3  1  2  0
  4  2  1  0
  5  2  1  0
  6  2  1  0
  7  3  1  0
  8  4  2  0
  9  5  1  0
 10  1  1  0
 10  2  1  0
 10  6  1  0
 10  9  1  0
 11  7  2  0
 11  9  1  0
M  RAD  1   9   2
M  END
>  <ID>  (1) 
conformer_0

$$$$
