
     RDKit          3D

  8  8  0  0  0  0  0  0  0  0999 V2000
    0.7658   13.4989   -1.9273 C   0  0  0  0  0  0  0  0  0  0  0  0
    0.3824   12.9771    0.3108 C   0  0  0  0  0  0  0  0  0  0  0  0
    1.0976   14.3046   -0.8559 C   0  0  0  0  0  0  0  0  0  0  0  0
    0.2788   12.4651    1.9175 C   0  0  0  0  0  0  0  0  0  0  0  0
   -0.2781   11.8874    1.2672 N   0  0  0  0  0  0  0  0  0  0  0  0
   -0.0664   12.4111   -1.4972 C   0  0  0  0  0  0  0  0  0  0  0  0
    1.0387   13.5323    2.5473 S   0  0  0  0  0  0  0  0  0  0  0  0
   -0.1136   11.5433    3.4586 C   0  0  0  0  0  0  0  0  0  0  0  0
  3  1  2  0
  3  2  1  0
  5  2  1  0
  5  4  1  0
  6  1  1  0
  6  2  2  0
  7  4  2  0
  8  4  1  0
M  END
>  <ID>  (1) 
conformer_0

$$$$
