
     RDKit          3D

 12 14  0  0  0  0  0  0  0  0999 V2000
    0.7582   12.9297   -2.2443 C   0  0  0  0  0  0  0  0  0  0  0  0
    0.5163   12.8332    2.4627 C   0  0  0  0  0  0  0  0  0  0  0  0
    0.8666   14.1381   -1.6059 C   0  0  0  0  0  0  0  0  0  0  0  0
    1.1029   14.0508   -0.2534 C   0  0  0  0  0  0  0  0  0  0  0  0
   -0.2548   11.9741    1.6264 N   0  0  0  0  0  0  0  0  0  0  0  0
    1.1096   14.0942    2.5563 S   0  0  0  0  0  0  0  0  0  0  0  0
   -0.0011   10.6758    3.3902 O   0  0  0  0  0  0  0  0  0  0  0  0
   -0.1157   11.6904    3.2809 C   0  0  0  0  0  0  0  0  0  0  0  0
    0.8379   13.5852    0.6709 C   0  0  0  0  0  0  0  0  0  0  0  0
   -0.4565   11.9433   -0.5401 C   0  0  0  0  0  0  0  0  0  0  0  0
    0.0370   12.4263    0.3092 C   0  0  0  0  0  0  0  0  0  0  0  0
   -0.3409   12.1293   -1.8282 C   0  0  0  0  0  0  0  0  0  0  0  0
  3  1  2  0
  4  3  1  0
  5  2  1  0
  6  2  1  0
  8  2  1  0
  8  5  1  0
  8  7  1  0
  9  4  2  0
  9  6  1  0
 11  5  1  0
 11  9  1  0
 11 10  2  0
 12  1  1  0
 12 10  1  0
M  END
>  <ID>  (1) 
conformer_0

$$$$
