
     RDKit          3D

  8  8  0  0  0  0  0  0  0  0999 V2000
    0.5258   13.0296    1.1411 C   0  0  0  0  0  0  0  0  0  0  0  0
    1.0568   14.2573   -0.7778 C   0  0  0  0  0  0  0  0  0  0  0  0
    0.6182   13.4014   -1.8705 C   0  0  0  0  0  0  0  0  0  0  0  0
   -0.1127   11.6123    3.2492 C   0  0  0  0  0  0  0  0  0  0  0  0
   -0.3855   11.6228    1.2619 N   0  0  0  0  0  0  0  0  0  0  0  0
    1.0562   13.8290    2.4387 S   0  0  0  0  0  0  0  0  0  0  0  0
   -0.1990   12.2809   -1.4668 C   0  0  0  0  0  0  0  0  0  0  0  0
    0.1822   12.7633    0.1618 C   0  0  0  0  0  0  0  0  0  0  0  0
  3  2  2  0
  5  1  1  0
  5  4  1  0
  6  1  2  0
  7  3  1  0
  8  1  1  0
  8  2  1  0
  8  7  2  0
M  END
>  <ID>  (1) 
conformer_0

$$$$
