
     RDKit          3D

 10 13  0  0  0  0  0  0  0  0999 V2000
    1.1713   14.2170   -0.3376 C   0  0  0  0  0  3  0  0  0  0  0  0
    0.8501   13.5847    0.4505 C   0  0  0  0  0  0  0  0  0  0  0  0
    0.9547   13.7795   -1.6084 C   0  0  0  0  0  0  0  0  0  0  0  0
    1.3528   13.8715    2.3502 S   0  0  0  0  0  0  0  0  0  0  0  0
   -0.4638   11.6195    1.4793 N   0  0  0  0  0  0  0  0  0  0  0  0
   -0.2842   11.4569    3.3374 C   0  0  0  0  0  0  0  0  0  0  0  0
   -0.1702   12.2522    0.1626 C   0  0  0  0  0  0  0  0  0  0  0  0
    0.2004   12.6596   -1.9127 C   0  0  0  0  0  0  0  0  0  0  0  0
   -0.4749   11.9037   -0.9958 C   0  0  0  0  0  3  0  0  0  0  0  0
    0.3840   12.6739    1.8504 C   0  0  0  0  0  0  0  0  0  0  0  0
  2  1  1  0
  3  1  1  0
  4  2  1  0
  6  5  1  0
  7  2  1  0
  7  5  1  0
  8  3  2  0
  9  7  1  0
  9  8  1  0
 10  2  1  0
 10  4  1  0
 10  5  1  0
 10  7  1  0
M  RAD  2   1   2   9   2
M  END
>  <ID>  (1) 
conformer_0

$$$$
