
     RDKit          3D

  9  9  0  0  0  0  0  0  0  0999 V2000
    1.3034   14.3700   -0.1576 C   0  0  0  0  0  0  0  0  0  0  0  0
    0.1010   12.5565    0.5829 C   0  0  0  0  0  0  0  0  0  0  0  0
    1.0636   14.0780   -1.4742 C   0  0  0  0  0  0  0  0  0  0  0  0
   -0.2374   11.4399    3.0888 C   0  0  0  0  0  0  0  0  0  0  0  0
   -0.4060   11.6869    1.4936 N   0  0  0  0  0  0  0  0  0  0  0  0
    0.9061   13.7920    2.8629 S   0  0  0  0  0  0  0  0  0  0  0  0
    0.2995   12.9211   -1.7802 C   0  0  0  0  0  0  0  0  0  0  0  0
    0.7457   13.4176    1.0322 C   0  0  0  0  0  0  0  0  0  0  0  0
   -0.3839   12.1756   -0.8918 C   0  0  0  0  0  0  0  0  0  0  0  0
  3  1  2  0
  5  2  1  0
  5  4  1  0
  7  3  1  0
  8  1  1  0
  8  2  2  0
  8  6  1  0
  9  2  1  0
  9  7  2  0
M  END
>  <ID>  (1) 
conformer_0

$$$$
