
     RDKit          3D

  8  9  0  0  0  0  0  0  0  0999 V2000
   -0.2293   12.3886   -0.9313 C   0  0  0  0  0  3  0  0  0  0  0  0
    0.2159   12.6962    0.8371 C   0  0  0  0  0  0  0  0  0  0  0  0
    0.6161   13.3804   -1.6673 C   0  0  0  0  0  0  0  0  0  0  0  0
    1.2795   14.2774   -0.8444 C   0  0  0  0  0  0  0  0  0  0  0  0
   -0.4813   10.9593    3.5502 O   0  0  0  0  0  0  0  0  0  0  0  0
   -0.2424   11.7117    3.1077 C   0  0  0  0  0  0  0  0  0  0  0  0
    0.9279   13.6691    0.7418 C   0  0  0  0  0  0  0  0  0  0  0  0
    0.9536   13.2552    1.9854 N   0  0  0  0  0  0  0  0  0  0  0  0
  2  1  1  0
  3  1  1  0
  4  3  1  0
  6  2  1  0
  6  5  2  0
  7  2  1  0
  7  4  2  0
  8  2  1  0
  8  7  1  0
M  RAD  1   1   2
M  END
>  <ID>  (1) 
conformer_0

$$$$
