
     RDKit          3D

 10 10  0  0  0  0  0  0  0  0999 V2000
    0.4574   12.8840   -2.0688 C   0  0  0  0  0  0  0  0  0  0  0  0
    0.7618   13.5289    0.4882 C   0  0  0  0  0  0  0  0  0  0  0  0
    0.8919   13.9103   -1.3830 C   0  0  0  0  0  0  0  0  0  0  0  0
    0.4736   12.6318    2.4188 C   0  0  0  0  0  0  0  0  0  0  0  0
   -0.3873   11.8917    1.4128 N   0  0  0  0  0  0  0  0  0  0  0  0
    0.2688   10.8132    3.6732 O   0  0  0  0  0  0  0  0  0  0  0  0
   -0.2025   11.8823    3.6570 C   0  0  0  0  0  0  0  0  0  0  0  0
   -0.2863   11.9643   -1.3019 C   0  0  0  0  0  0  0  0  0  0  0  0
    1.4175   14.5350    0.6822 N   0  0  0  0  0  0  0  0  0  0  0  0
    0.0725   12.4416    0.4152 C   0  0  0  0  0  0  0  0  0  0  0  0
  3  1  2  0
  3  2  1  0
  5  4  2  3
  7  4  1  0
  7  6  1  0
  8  1  1  0
  9  2  1  0
 10  2  2  0
 10  5  1  0
 10  8  1  0
M  END
>  <ID>  (1) 
conformer_0

$$$$
