
     RDKit          3D

 11 12  0  0  0  0  0  0  0  0999 V2000
    0.0633   12.4030    0.6709 C   0  0  0  0  0  0  0  0  0  0  0  0
    0.9352   13.6865   -1.8243 C   0  0  0  0  0  0  0  0  0  0  0  0
    0.0579   12.5527   -1.8613 C   0  0  0  0  0  0  0  0  0  0  0  0
    1.0319   13.9081    1.7329 N   0  0  0  0  0  0  0  0  0  0  0  0
    0.4163   12.6463    2.5419 C   0  0  0  0  0  0  0  0  0  0  0  0
   -0.4423   11.0453    3.5117 O   0  0  0  0  0  0  0  0  0  0  0  0
   -0.4770   12.0202   -0.6715 C   0  0  0  0  0  0  0  0  0  0  0  0
   -0.2245   11.5952    3.4909 C   0  0  0  0  0  0  0  0  0  0  0  0
   -0.2499   11.8339    1.5209 N   0  0  0  0  0  0  0  0  0  0  0  0
    0.8566   13.5847    0.5783 C   0  0  0  0  0  0  0  0  0  0  0  0
    1.1636   14.2588   -0.6795 C   0  0  0  0  0  0  0  0  0  0  0  0
  3  2  2  0
  5  4  2  0
  7  1  2  0
  7  3  1  0
  8  5  1  0
  8  6  2  0
  9  1  1  0
  9  5  1  0
 10  1  1  0
 10  4  1  0
 11  2  1  0
 11 10  2  0
M  END
>  <ID>  (1) 
conformer_0

$$$$
