
     RDKit          3D

  9 10  0  0  0  0  0  0  0  0999 V2000
    1.3558   14.4244   -0.6719 C   0  0  0  0  0  3  0  0  0  0  0  0
    0.5677   13.2270    0.2988 C   0  0  0  0  0  0  0  0  0  0  0  0
    1.1969   14.0555   -1.9083 C   0  0  0  0  0  0  0  0  0  0  0  0
    1.1072   13.8845    2.2615 S   0  0  0  0  0  0  0  0  0  0  0  0
   -0.2974   11.3110    3.5497 C   0  0  0  0  0  0  0  0  0  0  0  0
   -0.4841   11.8116    1.2183 N   0  0  0  0  0  0  0  0  0  0  0  0
    0.3114   12.6276    1.7217 C   0  0  0  0  0  0  0  0  0  0  0  0
    0.3577   12.8339   -2.0857 C   0  0  0  0  0  0  0  0  0  0  0  0
   -0.2365   12.3159   -1.0250 C   0  0  0  0  0  0  0  0  0  0  0  0
  2  1  1  0
  3  1  1  0
  4  2  1  0
  7  2  1  0
  7  4  1  0
  7  5  1  0
  7  6  1  0
  8  3  1  0
  9  2  1  0
  9  8  2  0
M  RAD  1   1   2
M  END
>  <ID>  (1) 
conformer_0

$$$$
