
     RDKit          3D

 11 12  0  0  0  0  0  0  0  0999 V2000
    1.0436   13.8971   -1.8120 C   0  0  0  0  0  0  0  0  0  0  0  0
    0.3649   12.6094    2.2506 C   0  0  0  0  0  0  0  0  0  0  0  0
    0.2385   12.7942   -1.9918 C   0  0  0  0  0  0  0  0  0  0  0  0
    1.1900   13.8721    2.3609 S   0  0  0  0  0  0  0  0  0  0  0  0
   -0.4846   11.5688    1.2790 N   0  0  0  0  0  0  0  0  0  0  0  0
    0.7502   13.5192    0.5332 C   0  0  0  0  0  0  0  0  0  0  0  0
   -0.4714   12.0577   -1.0780 C   0  0  0  0  0  0  0  0  0  0  0  0
   -0.8750   11.0456    3.5379 O   0  0  0  0  0  0  0  0  0  0  0  0
   -0.3016   11.7951    3.4664 C   0  0  0  0  0  0  0  0  0  0  0  0
    0.0102   12.4006    0.3195 C   0  0  0  0  0  0  0  0  0  0  0  0
    1.2201   14.3249   -0.5189 C   0  0  0  0  0  0  0  0  0  0  0  0
  3  1  2  0
  4  2  1  0
  5  2  2  0
  6  4  1  0
  7  3  1  0
  9  2  1  0
  9  8  2  0
 10  5  1  0
 10  6  1  0
 10  7  2  0
 11  1  1  0
 11  6  2  0
M  END
>  <ID>  (1) 
conformer_0

$$$$
