
     RDKit          3D

 11 11  0  0  0  0  0  0  0  0999 V2000
    1.1478   14.2372   -0.4131 C   0  0  0  0  0  0  0  0  0  0  0  0
    0.2047   12.4598    1.2903 C   0  0  0  0  0  0  0  0  0  0  0  0
    0.9705   13.9107   -1.6911 C   0  0  0  0  0  0  0  0  0  0  0  0
    0.1570   12.7307   -1.8595 C   0  0  0  0  0  0  0  0  0  0  0  0
    0.8334   13.2507    2.0850 N   0  0  0  0  0  0  0  0  0  0  0  0
   -0.2940   11.6725    3.4035 C   0  0  0  0  0  0  0  0  0  0  0  0
    0.1640   12.5640    4.1512 C   0  0  0  0  0  0  0  0  0  0  0  0
    0.6996   13.2769    0.4357 C   0  0  2  0  0  0  0  0  0  0  0  0
   -0.5582   11.5648    1.4541 N   0  0  0  0  0  0  0  0  0  0  0  0
   -0.6481   11.2204    3.1079 O   0  0  0  0  0  0  0  0  0  0  0  0
   -0.3705   12.1537   -0.8471 C   0  0  0  0  0  0  0  0  0  0  0  0
  3  1  2  3
  4  3  1  0
  5  2  2  0
  7  6  3  0
  8  1  1  1
  8  2  1  0
  8  5  1  0
  9  2  1  0
 10  6  1  0
 10  9  1  0
 11  4  2  3
M  END
>  <ID>  (1) 
conformer_0

$$$$
