
     RDKit          3D

 10 12  0  0  0  0  0  0  0  0999 V2000
    1.0183   14.0805   -1.6351 C   0  0  0  0  0  0  0  0  0  0  0  0
    0.3441   12.4581    2.5320 C   0  0  0  0  0  0  0  0  0  0  0  0
    1.0030   14.2333   -0.2568 C   0  0  0  0  0  0  0  0  0  0  0  0
   -0.4335   11.6055    1.6693 N   0  0  0  0  0  0  0  0  0  0  0  0
   -0.2036   11.2586    3.2906 C   0  0  0  0  0  0  0  0  0  0  0  0
    0.2472   12.8527   -1.9705 C   0  0  0  0  0  0  0  0  0  0  0  0
   -0.1205   12.4277    0.3203 C   0  0  0  0  0  0  0  0  0  0  0  0
    1.0857   13.5816    2.7223 S   0  0  0  0  0  0  0  0  0  0  0  0
   -0.4148   12.2601   -0.9655 C   0  0  0  0  0  0  0  0  0  0  0  0
    0.8258   13.5969    0.9372 C   0  0  0  0  0  0  0  0  0  0  0  0
  3  1  2  0
  4  2  1  0
  5  2  1  0
  5  4  1  0
  6  1  1  0
  7  4  1  0
  8  2  1  0
  9  6  2  0
  9  7  1  0
 10  3  1  0
 10  7  2  0
 10  8  1  0
M  END
>  <ID>  (1) 
conformer_0

$$$$
