
     RDKit          3D

  9  9  0  0  0  0  0  0  0  0999 V2000
    1.1263   14.2390   -0.5136 C   0  0  0  0  0  0  0  0  0  0  0  0
    0.4133   12.7624    1.4543 C   0  0  0  0  0  0  0  0  0  0  0  0
    0.9722   13.8486   -1.8190 C   0  0  0  0  0  0  0  0  0  0  0  0
   -0.4887   11.7167    1.6147 N   0  0  0  0  0  0  0  0  0  0  0  0
   -0.1111   11.6266    3.4485 C   0  0  0  0  0  0  0  0  0  0  0  0
    0.0708   12.7121   -1.9007 C   0  0  0  0  0  0  0  0  0  0  0  0
    0.9046   13.5512    2.7634 S   0  0  0  0  0  0  0  0  0  0  0  0
    0.3761   13.1654    0.2358 C   0  0  0  0  0  0  0  0  0  0  0  0
   -0.5096   12.2020   -0.8707 C   0  0  0  0  0  0  0  0  0  0  0  0
  3  1  2  0
  4  2  1  0
  5  4  1  0
  6  3  1  0
  7  2  2  0
  8  1  1  0
  8  2  1  0
  9  6  2  0
  9  8  1  0
M  END
>  <ID>  (1) 
conformer_0

$$$$
