
     RDKit          3D

 10 11  0  0  0  0  0  0  0  0999 V2000
    0.3544   12.3960    2.2813 C   0  0  0  0  0  0  0  0  0  0  0  0
    0.9369   14.0531   -1.7975 C   0  0  0  0  0  0  0  0  0  0  0  0
    1.0011   14.3632   -0.4345 C   0  0  0  0  0  0  0  0  0  0  0  0
    1.1729   13.5347    2.3962 S   0  0  0  0  0  0  0  0  0  0  0  0
   -0.5993   11.8044    1.7653 N   0  0  0  0  0  0  0  0  0  0  0  0
   -0.3704   11.3087    3.4953 C   0  0  0  0  0  0  0  0  0  0  0  0
   -0.0245   12.4319    0.2810 C   0  0  0  0  0  0  0  0  0  0  0  0
    0.2640   12.7359   -2.0536 C   0  0  0  0  0  0  0  0  0  0  0  0
   -0.3024   12.1197   -1.0131 C   0  0  0  0  0  0  0  0  0  0  0  0
    0.7999   13.4976    0.5237 C   0  0  0  0  0  0  0  0  0  0  0  0
  3  2  1  0
  4  1  1  0
  5  1  1  0
  6  1  1  0
  7  5  1  0
  8  2  2  0
  9  7  2  0
  9  8  1  0
 10  3  2  0
 10  4  1  0
 10  7  1  0
M  END
>  <ID>  (1) 
conformer_0

$$$$
