
     RDKit          3D

  9 10  0  0  0  0  0  0  0  0999 V2000
    1.0060   14.2989   -0.2777 C   0  0  0  0  0  0  0  0  0  0  0  0
    0.5001   12.8435    1.6328 C   0  0  0  0  0  0  0  0  0  0  0  0
    1.0218   14.1490   -1.7319 C   0  0  0  0  0  0  0  0  0  0  0  0
    0.3545   12.9410   -2.0628 C   0  0  0  0  0  0  0  0  0  0  0  0
   -0.2685   11.7073    1.3217 N   0  0  0  0  0  0  0  0  0  0  0  0
   -0.1580   11.6654    3.4124 C   0  0  0  0  0  0  0  0  0  0  0  0
    0.2732   12.8342    0.1844 C   0  0  0  0  0  0  0  0  0  0  0  0
    0.9564   13.5783    2.6221 S   0  0  0  0  0  0  0  0  0  0  0  0
   -0.3405   12.1748   -1.1976 C   0  0  0  0  0  0  0  0  0  0  0  0
  3  1  2  0
  4  3  1  0
  5  2  1  0
  7  1  1  0
  7  2  1  0
  7  5  1  0
  8  2  1  0
  8  6  1  0
  9  4  2  0
  9  7  1  0
M  END
>  <ID>  (1) 
conformer_0

$$$$
