
     RDKit          3D

 11 13  0  0  0  0  0  0  0  0999 V2000
    1.1287   14.3167   -0.4291 C   0  0  0  0  0  0  0  0  0  0  0  0
    0.0164   12.4345    0.1563 C   0  0  0  0  0  3  0  0  0  0  0  0
    1.0853   14.0391   -1.7633 C   0  0  0  0  0  0  0  0  0  0  0  0
   -0.3676   11.5500    1.2317 N   0  0  0  0  0  0  0  0  0  0  0  0
    0.9906   13.8866    2.6278 S   0  0  0  0  0  0  0  0  0  0  0  0
    0.7644   13.5168    0.7341 C   0  0  0  0  0  0  0  0  0  0  0  0
    0.4069   12.8141   -2.1191 C   0  0  0  0  0  0  0  0  0  0  0  0
   -0.2206   11.6900    3.4774 C   0  0  0  0  0  0  0  0  0  0  0  0
   -0.2911   11.2551    3.5900 O   0  0  0  0  0  0  0  0  0  0  0  0
    0.3068   12.5226    2.2971 C   0  0  0  0  0  0  0  0  0  0  0  0
   -0.2276   12.1831   -1.1549 C   0  0  0  0  0  0  0  0  0  0  0  0
  3  1  2  0
  4  2  1  0
  6  1  1  0
  6  2  1  0
  6  5  1  0
  7  3  1  0
  9  8  2  0
 10  4  1  0
 10  5  1  0
 10  6  1  0
 10  8  1  0
 11  2  1  0
 11  7  2  0
M  RAD  1   2   2
M  END
>  <ID>  (1) 
conformer_0

$$$$
