
     RDKit          3D

  7  8  0  0  0  0  0  0  0  0999 V2000
    0.6685   13.5813   -1.7516 C   0  0  0  0  0  0  0  0  0  0  0  0
    0.7005   13.2194    1.5217 C   0  0  0  0  0  0  0  0  0  0  0  0
    1.1031   14.3563   -0.6296 C   0  0  0  0  0  0  0  0  0  0  0  0
   -0.1290   12.1062    1.3788 N   0  0  0  0  0  0  0  0  0  0  0  0
   -0.1441   11.6052    3.2161 C   0  0  0  0  0  0  0  0  0  0  0  0
   -0.1529   12.4679   -1.3227 C   0  0  0  0  0  0  0  0  0  0  0  0
    0.2157   12.8627    0.2757 C   0  0  0  0  0  0  0  0  0  0  0  0
  3  1  2  0
  4  2  1  0
  5  4  1  0
  6  1  1  0
  7  2  1  0
  7  3  1  0
  7  4  1  0
  7  6  1  0
M  END
>  <ID>  (1) 
conformer_0

$$$$
