
     RDKit          3D

 11 12  0  0  0  0  0  0  0  0999 V2000
    0.8516   13.6302    0.5073 C   0  0  0  0  0  0  0  0  0  0  0  0
    1.1092   14.2684   -0.6407 C   0  0  0  0  0  0  0  0  0  0  0  0
    0.9614   13.8948   -1.9316 C   0  0  0  0  0  0  0  0  0  0  0  0
   -0.2166   11.5389    3.3069 C   0  0  0  0  0  0  0  0  0  0  0  0
   -0.4355   11.5650    1.2304 N   0  0  0  0  0  0  0  0  0  0  0  0
    1.0528   13.8945    2.4427 S   0  0  0  0  0  0  0  0  0  0  0  0
    0.4648   12.5554    2.1428 C   0  0  0  0  0  0  0  0  0  0  0  0
   -1.0904   10.6898    3.3889 O   0  0  0  0  0  0  0  0  0  0  0  0
    0.1692   12.6747   -2.0591 C   0  0  0  0  0  0  0  0  0  0  0  0
   -0.4015   12.1725   -1.0167 C   0  0  0  0  0  0  0  0  0  0  0  0
    0.0058   12.4409    0.2579 C   0  0  0  0  0  0  0  0  0  0  0  0
  2  1  2  0
  3  2  1  0
  6  1  1  0
  7  4  1  0
  7  5  1  0
  7  6  1  0
  8  4  2  0
  9  3  2  0
 10  9  1  0
 11  1  1  0
 11  5  1  0
 11 10  2  0
M  END
>  <ID>  (1) 
conformer_0

$$$$
