
     RDKit          3D

 10 12  0  0  0  0  0  0  0  0999 V2000
    0.9582   13.9760   -0.9457 C   0  0  0  0  0  3  0  0  0  0  0  0
    0.7452   13.4961    0.5657 C   0  0  0  0  0  0  0  0  0  0  0  0
    0.5168   13.2228   -1.9045 C   0  0  0  0  0  0  0  0  0  0  0  0
   -0.2247   12.2480    0.0394 C   0  0  0  0  0  0  0  0  0  0  0  0
   -0.5819   11.5478    0.8742 N   0  0  0  0  0  0  0  0  0  0  0  0
   -0.3538   11.2147    3.7499 O   0  0  0  0  0  0  0  0  0  0  0  0
    1.3327   14.0567    2.3891 S   0  0  0  0  0  0  0  0  0  0  0  0
   -0.0172   12.1111    3.4312 C   0  0  0  0  0  0  0  0  0  0  0  0
   -0.4159   12.1600   -1.6095 C   0  0  0  0  0  0  0  0  0  0  0  0
    0.4159   12.7275    1.8750 C   0  0  0  0  0  0  0  0  0  0  0  0
  2  1  1  0
  3  1  1  0
  4  2  1  0
  5  4  1  0
  7  2  1  0
  8  6  2  0
  9  3  1  0
  9  4  2  0
 10  2  1  0
 10  5  1  0
 10  7  1  0
 10  8  1  0
M  RAD  1   1   2
M  END
>  <ID>  (1) 
conformer_0

$$$$
