
     RDKit          3D

 10 12  0  0  0  0  0  0  0  0999 V2000
    0.7875   13.6566    0.4018 C   0  0  0  0  0  0  0  0  0  0  0  0
   -0.4140   12.0228   -0.9625 C   0  0  0  0  0  3  0  0  0  0  0  0
    0.0905   12.3761   -2.0439 C   0  0  0  0  0  0  0  0  0  0  0  0
   -0.2959   11.5417    3.6285 C   0  0  0  0  0  0  0  0  0  0  0  0
    1.0767   14.1338   -0.9413 C   0  0  0  0  0  0  0  0  0  0  0  0
    0.3072   12.5408    2.3144 C   0  0  0  0  0  0  0  0  0  0  0  0
    0.5685   13.5749    1.8982 N   0  0  0  0  0  0  0  0  0  0  0  0
   -0.0309   12.3708    0.3842 C   0  0  0  0  0  0  0  0  0  0  0  0
   -0.4992   11.4956    1.4632 N   0  0  0  0  0  0  0  0  0  0  0  0
    0.9011   13.5969   -2.1472 C   0  0  0  0  0  0  0  0  0  0  0  0
  3  2  1  0
  5  1  2  0
  6  4  1  0
  7  1  1  0
  7  6  1  0
  8  1  1  0
  8  2  1  0
  8  6  1  0
  9  6  1  0
  9  8  1  0
 10  3  2  0
 10  5  1  0
M  RAD  1   2   2
M  END
>  <ID>  (1) 
conformer_0

$$$$
