
     RDKit          3D

 10 12  0  0  0  0  0  0  0  0999 V2000
    0.3805   12.9328   -1.9201 C   0  0  0  0  0  0  0  0  0  0  0  0
    0.4187   12.5944    1.8578 C   0  0  0  0  0  0  0  0  0  0  0  0
    0.9472   14.0153   -1.1849 C   0  0  0  0  0  0  0  0  0  0  0  0
    1.0277   13.7890    0.1643 C   0  0  0  0  0  3  0  0  0  0  0  0
   -0.3807   11.8776    1.3554 N   0  0  0  0  0  0  0  0  0  0  0  0
   -0.2643   11.7051    3.4552 C   0  0  0  0  0  0  0  0  0  0  0  0
   -0.0148   11.1158    3.6337 O   0  0  0  0  0  0  0  0  0  0  0  0
    1.3683   13.3980    1.8347 N   0  0  0  0  0  0  0  0  0  0  0  0
   -0.3416   12.0321   -1.0465 C   0  0  0  0  0  0  0  0  0  0  0  0
    0.0738   12.4940    0.3633 C   0  0  0  0  0  0  0  0  0  0  0  0
  3  1  2  0
  4  3  1  0
  5  2  1  0
  6  2  1  0
  7  6  2  0
  8  2  1  0
  8  4  1  0
  9  1  1  0
 10  2  1  0
 10  4  1  0
 10  5  1  0
 10  9  1  0
M  RAD  1   4   2
M  END
>  <ID>  (1) 
conformer_0

$$$$
