
     RDKit          3D

 11 13  0  0  0  0  0  0  0  0999 V2000
    1.1754   14.1334   -1.0626 C   0  0  0  0  0  0  0  0  0  0  0  0
    0.3800   12.6375    2.1972 C   0  0  0  0  0  0  0  0  0  0  0  0
    0.5082   13.3124   -1.7590 C   0  0  0  0  0  0  0  0  0  0  0  0
    1.2590   14.0694    2.4414 S   0  0  0  0  0  0  0  0  0  0  0  0
   -0.2892   11.3532    3.2651 C   0  0  0  0  0  3  0  0  0  0  0  0
    0.9934   13.8548    0.5702 C   0  0  0  0  0  0  0  0  0  0  0  0
   -0.4928   11.8432    1.4421 N   0  0  0  0  0  0  0  0  0  0  0  0
   -0.3934   12.3596   -1.1096 C   0  0  0  0  0  3  0  0  0  0  0  0
   -0.4620   10.4421    3.6583 O   0  0  0  0  0  0  0  0  0  0  0  0
    0.0074   12.5095    0.4439 C   0  0  0  0  0  0  0  0  0  0  0  0
    1.8098   14.6236    0.7823 N   0  0  0  0  0  0  0  0  0  0  0  0
  3  1  2  0
  4  2  1  0
  5  2  1  0
  6  1  1  0
  7  2  1  0
  8  3  1  0
  9  5  2  0
 10  2  1  0
 10  6  1  0
 10  7  1  0
 10  8  1  0
 11  4  1  0
 11  6  1  0
M  RAD  2   5   2   8   2
M  END
>  <ID>  (1) 
conformer_0

$$$$
