
     RDKit          3D

  9  9  0  0  0  0  0  0  0  0999 V2000
    1.1138   14.1998   -1.2874 C   0  0  0  0  0  0  0  0  0  0  0  0
    0.5622   13.2781    0.2283 C   0  0  0  0  0  0  0  0  0  0  0  0
    0.5305   13.1706   -1.9327 C   0  0  0  0  0  0  0  0  0  0  0  0
   -0.2154   12.2061   -1.2147 C   0  0  0  0  0  0  0  0  0  0  0  0
   -0.0782   12.2548    1.4764 N   0  0  0  0  0  0  0  0  0  0  0  0
   -0.2415   11.4947    3.2627 C   0  0  0  0  0  0  0  0  0  0  0  0
    0.3248   12.6014    1.6009 C   0  0  0  0  0  0  0  0  0  0  0  0
    0.1372   10.8063    3.6686 O   0  0  0  0  0  0  0  0  0  0  0  0
    1.1126   13.8716    2.4022 S   0  0  0  0  0  0  0  0  0  0  0  0
  2  1  2  0
  3  1  1  0
  4  2  1  0
  4  3  2  0
  7  2  1  0
  7  5  1  0
  7  6  1  0
  8  6  2  0
  9  7  1  0
M  END
>  <ID>  (1) 
conformer_0

$$$$
