
     RDKit          3D

 11 12  0  0  0  0  0  0  0  0999 V2000
    1.0071   14.2851   -0.3415 C   0  0  0  0  0  0  0  0  0  0  0  0
    0.4210   12.6110    2.3269 C   0  0  0  0  0  0  0  0  0  0  0  0
    0.9187   14.0335   -1.7084 C   0  0  0  0  0  0  0  0  0  0  0  0
    0.2112   12.8002   -1.9891 C   0  0  0  0  0  0  0  0  0  0  0  0
   -0.4929   11.8115    1.2891 N   0  0  0  0  0  0  0  0  0  0  0  0
    0.0309   10.5734    3.1122 O   0  0  0  0  0  0  0  0  0  0  0  0
   -0.2236   11.5840    3.2699 C   0  0  0  0  0  0  0  0  0  0  0  0
   -0.0805   12.4252    0.2528 C   0  0  0  0  0  0  0  0  0  0  0  0
    0.9077   13.7933    2.6458 S   0  0  0  0  0  0  0  0  0  0  0  0
   -0.4053   12.1581   -1.0483 C   0  0  0  0  0  0  0  0  0  0  0  0
    0.7519   13.6180    0.7132 C   0  0  0  0  0  0  0  0  0  0  0  0
  3  1  2  0
  4  3  1  0
  5  2  1  0
  7  2  1  0
  7  6  2  0
  8  5  1  0
  9  2  1  0
 10  4  2  0
 10  8  1  0
 11  1  1  0
 11  8  2  0
 11  9  1  0
M  END
>  <ID>  (1) 
conformer_0

$$$$
