
     RDKit          3D

  8  7  0  0  0  0  0  0  0  0999 V2000
    0.5734   13.2748   -1.8298 C   0  0  0  0  0  0  0  0  0  0  0  0
    0.5947   13.2076    1.3950 C   0  0  0  0  0  0  0  0  0  0  0  0
    0.9370   14.1432   -0.7911 C   0  0  0  0  0  0  0  0  0  0  0  0
   -0.1787   11.7365    3.5034 C   0  0  0  0  0  0  0  0  0  0  0  0
   -0.1652   12.2775   -1.2823 C   0  0  0  0  0  0  0  0  0  0  0  0
   -0.4489   11.4468    1.4961 N   0  0  0  0  0  0  0  0  0  0  0  0
    0.1169   12.6961    0.3440 C   0  0  0  0  0  0  0  0  0  0  0  0
    0.7854   13.7916    2.2539 O   0  0  0  0  0  0  0  0  0  0  0  0
  3  1  1  0
  5  1  2  3
  6  4  1  0
  7  2  2  0
  7  5  1  0
  7  6  1  0
  8  2  2  0
M  END
>  <ID>  (1) 
conformer_0

$$$$
