
     RDKit          3D

 11 13  0  0  0  0  0  0  0  0999 V2000
    1.0788   14.0624   -0.5368 C   0  0  0  0  0  0  0  0  0  0  0  0
   -0.0347   12.4597    0.3171 C   0  0  0  0  0  3  0  0  0  0  0  0
    0.9804   13.7567   -1.8280 C   0  0  0  0  0  0  0  0  0  0  0  0
    0.1239   12.5938   -2.0627 C   0  0  0  0  0  0  0  0  0  0  0  0
    0.4969   12.6627    2.3951 C   0  0  0  0  0  0  0  0  0  0  0  0
   -0.4682   11.7398    1.2703 N   0  0  0  0  0  0  0  0  0  0  0  0
    1.1916   14.1892    2.4761 S   0  0  0  0  0  0  0  0  0  0  0  0
   -0.6685   10.7484    3.5781 O   0  0  0  0  0  0  0  0  0  0  0  0
   -0.1065   11.5275    3.3033 C   0  0  0  0  0  3  0  0  0  0  0  0
    0.8390   13.6014    0.8204 C   0  0  0  0  0  0  0  0  0  0  0  0
   -0.5081   12.0445   -1.0296 C   0  0  0  0  0  0  0  0  0  0  0  0
  3  1  2  0
  4  3  1  0
  6  2  1  0
  6  5  1  0
  7  5  1  0
  9  5  1  0
  9  8  2  0
 10  1  1  0
 10  2  1  0
 10  5  1  0
 10  7  1  0
 11  2  1  0
 11  4  2  0
M  RAD  2   2   2   9   2
M  END
>  <ID>  (1) 
conformer_0

$$$$
