
     RDKit          3D

 10 11  0  0  0  0  0  0  0  0999 V2000
    1.0412   14.0389   -1.8273 C   0  0  0  0  0  0  0  0  0  0  0  0
    0.8429   13.6818    0.5156 C   0  0  0  0  0  0  0  0  0  0  0  0
    1.1075   14.3554   -0.4917 C   0  0  0  0  0  0  0  0  0  0  0  0
   -0.3200   11.7601    1.6596 N   0  0  0  0  0  0  0  0  0  0  0  0
   -0.3786   11.3090    3.4409 C   0  0  0  0  0  0  0  0  0  0  0  0
    0.2943   12.7913   -2.0911 C   0  0  0  0  0  0  0  0  0  0  0  0
    1.2076   13.6805    2.5126 S   0  0  0  0  0  0  0  0  0  0  0  0
   -0.0106   12.5110    0.0745 C   0  0  0  0  0  0  0  0  0  0  0  0
   -0.3624   12.2037   -1.0762 C   0  0  0  0  0  0  0  0  0  0  0  0
    0.5162   12.7010    2.3324 C   0  0  0  0  0  0  0  0  0  0  0  0
  3  1  2  0
  3  2  1  0
  5  4  1  0
  6  1  1  0
  7  2  1  0
  8  2  2  0
  8  4  1  0
  9  6  2  0
  9  8  1  0
 10  4  1  0
 10  7  1  0
M  END
>  <ID>  (1) 
conformer_0

$$$$
