
     RDKit          3D

 11 12  0  0  0  0  0  0  0  0999 V2000
    0.0940   12.4684    0.3211 C   0  0  0  0  0  0  0  0  0  0  0  0
    1.0516   14.3988   -0.6652 C   0  0  0  0  0  0  0  0  0  0  0  0
    0.9262   13.8976   -1.9072 C   0  0  0  0  0  0  0  0  0  0  0  0
    0.1838   12.6404   -2.0532 C   0  0  0  0  0  0  0  0  0  0  0  0
   -0.2611   11.4159    3.3406 C   0  0  0  0  0  0  0  0  0  0  0  0
    0.8172   13.6419    0.5367 C   0  0  0  0  0  0  0  0  0  0  0  0
    1.2299   13.8740    2.5242 S   0  0  0  0  0  0  0  0  0  0  0  0
    0.0421   12.6473    1.5568 N   0  0  0  0  0  0  0  0  0  0  0  0
    0.0372   10.6889    3.3773 O   0  0  0  0  0  0  0  0  0  0  0  0
    0.4597   12.5965    2.4675 C   0  0  0  0  0  0  0  0  0  0  0  0
   -0.3308   12.1135   -0.9608 C   0  0  0  0  0  0  0  0  0  0  0  0
  3  2  2  0
  4  3  1  0
  6  1  2  0
  6  2  1  0
  8  1  1  0
  8  6  1  0
  9  5  2  0
 10  5  1  0
 10  7  2  0
 10  8  1  0
 11  1  1  0
 11  4  2  0
M  END
>  <ID>  (1) 
conformer_0

$$$$
