
     RDKit          3D

 10 11  0  0  0  0  0  0  0  0999 V2000
    0.0219   12.5615    0.1487 C   0  0  0  0  0  0  0  0  0  0  0  0
    1.1364   14.2797   -0.6839 C   0  0  0  0  0  0  0  0  0  0  0  0
    1.1275   13.9379   -1.9624 C   0  0  0  0  0  0  0  0  0  0  0  0
    1.1248   13.9642    2.1059 S   0  0  0  0  0  0  0  0  0  0  0  0
   -0.3305   11.8628    1.3362 N   0  0  0  0  0  0  0  0  0  0  0  0
   -0.2731   11.5323    3.5126 C   0  0  0  0  0  0  0  0  0  0  0  0
    0.3052   12.7108   -2.1994 C   0  0  0  0  0  0  0  0  0  0  0  0
    0.7590   13.6838    0.4452 C   0  0  0  0  0  0  0  0  0  0  0  0
   -0.3374   12.2099   -1.1644 C   0  0  0  0  0  0  0  0  0  0  0  0
    0.3010   12.5857    2.3460 C   0  0  0  0  0  0  0  0  0  0  0  0
  3  2  2  0
  5  1  1  0
  7  3  1  0
  8  1  2  0
  8  2  1  0
  8  4  1  0
  9  1  1  0
  9  7  2  0
 10  4  1  0
 10  5  2  0
 10  6  1  0
M  END
>  <ID>  (1) 
conformer_0

$$$$
