
     RDKit          3D

  9  9  0  0  0  0  0  0  0  0999 V2000
    0.4494   12.7771    1.4213 C   0  0  0  0  0  0  0  0  0  0  0  0
    1.0900   13.7832   -2.0490 C   0  0  0  0  0  0  0  0  0  0  0  0
    1.1958   14.2916   -0.8030 C   0  0  0  0  0  0  0  0  0  0  0  0
   -0.1526   11.7526    3.5470 C   0  0  0  0  0  0  0  0  0  0  0  0
   -0.2423   12.1094    1.3415 N   0  0  0  0  0  0  0  0  0  0  0  0
    0.3534   12.5693   -2.1977 C   0  0  0  0  0  0  0  0  0  0  0  0
    0.4743   13.0600    0.0459 C   0  0  0  0  0  0  0  0  0  0  0  0
    0.7430   13.1091    2.6225 N   0  0  0  0  0  0  0  0  0  0  0  0
   -0.2898   12.0001   -1.1125 C   0  0  0  0  0  0  0  0  0  0  0  0
  3  2  2  0
  5  1  2  3
  6  2  1  0
  7  1  1  0
  7  3  1  0
  8  1  1  0
  8  4  1  0
  9  6  1  0
  9  7  2  0
M  END
>  <ID>  (1) 
conformer_0

$$$$
