
     RDKit          3D

  9  9  0  0  0  0  0  0  0  0999 V2000
    0.7161   13.2789   -2.0047 C   0  0  0  0  0  0  0  0  0  0  0  0
    0.4780   12.8154    1.4324 C   0  0  0  0  0  0  0  0  0  0  0  0
    1.0692   14.1246   -1.0364 C   0  0  0  0  0  0  0  0  0  0  0  0
   -0.4591   11.8576    1.5009 N   0  0  0  0  0  0  0  0  0  0  0  0
   -0.1291   11.9612    3.5919 C   0  0  0  0  0  0  0  0  0  0  0  0
   -0.0571   12.1928   -1.5581 C   0  0  0  0  0  0  0  0  0  0  0  0
    0.3300   12.8527    0.0961 C   0  0  1  0  0  0  0  0  0  0  0  0
   -0.2225   10.9470    3.3565 O   0  0  0  0  0  0  0  0  0  0  0  0
    1.0209   13.6111    1.5592 N   0  0  0  0  0  0  0  0  0  0  0  0
  3  1  2  0
  4  2  1  0
  5  4  1  0
  6  1  1  0
  7  2  1  0
  7  3  1  0
  7  6  1  6
  8  5  1  0
  9  2  2  3
M  END
>  <ID>  (1) 
conformer_0

$$$$
