
     RDKit          3D

 12 14  0  0  0  0  0  0  0  0999 V2000
    0.3331   12.4594    2.2067 C   0  0  0  0  0  0  0  0  0  0  0  0
    0.3237   12.7596   -2.1661 C   0  0  0  0  0  0  0  0  0  0  0  0
    1.1252   13.9265   -1.8701 C   0  0  0  0  0  0  0  0  0  0  0  0
   -0.5586   11.6389    1.3523 N   0  0  0  0  0  0  0  0  0  0  0  0
    0.8523   13.5048    0.6446 C   0  0  0  0  0  0  0  0  0  0  0  0
   -0.2614   11.5317    3.4786 C   0  0  0  0  0  0  0  0  0  0  0  0
   -0.3477   12.1523   -1.2209 C   0  0  0  0  0  0  0  0  0  0  0  0
   -1.0068   11.6839    3.7354 O   0  0  0  0  0  0  0  0  0  0  0  0
    1.0191   13.7888    3.0046 S   0  0  0  0  0  0  0  0  0  0  0  0
    1.2091   13.9355    1.4834 N   0  0  0  0  0  0  0  0  0  0  0  0
   -0.0199   12.4657    0.0986 C   0  0  0  0  0  0  0  0  0  0  0  0
    1.2258   14.1949   -0.5925 C   0  0  0  0  0  3  0  0  0  0  0  0
  3  2  2  0
  4  1  1  0
  5  1  1  0
  6  1  1  0
  7  2  1  0
  8  6  2  0
  9  1  1  0
 10  5  1  0
 10  9  1  0
 11  4  1  0
 11  5  1  0
 11  7  2  0
 12  3  1  0
 12  5  1  0
M  RAD  1  12   2
M  END
>  <ID>  (1) 
conformer_0

$$$$
