
     RDKit          3D

 10 11  0  0  0  0  0  0  0  0999 V2000
    1.2621   14.3818   -0.3457 C   0  0  0  0  0  0  0  0  0  0  0  0
    0.2664   12.5890    2.1264 C   0  0  0  0  0  0  0  0  0  0  0  0
    1.1519   14.1254   -1.7074 C   0  0  0  0  0  0  0  0  0  0  0  0
    1.2517   13.8281    2.5524 S   0  0  0  0  0  0  0  0  0  0  0  0
   -0.5815   11.8094    1.1240 N   0  0  0  0  0  0  0  0  0  0  0  0
   -0.3298   11.4858    3.3722 C   0  0  0  0  0  0  0  0  0  0  0  0
    0.8161   13.6472    0.5277 C   0  0  0  0  0  0  0  0  0  0  0  0
    0.4702   12.9837   -2.0954 C   0  0  0  0  0  0  0  0  0  0  0  0
   -0.2751   12.1663   -1.2751 C   0  0  0  0  0  0  0  0  0  0  0  0
   -0.1252   12.5316    0.0381 C   0  0  0  0  0  0  0  0  0  0  0  0
  3  1  2  0
  4  2  1  0
  5  2  2  0
  6  2  1  0
  7  1  1  0
  7  4  1  0
  8  3  1  0
  9  8  2  0
 10  5  1  0
 10  7  2  0
 10  9  1  0
M  END
>  <ID>  (1) 
conformer_0

$$$$
