
     RDKit          3D

  8  8  0  0  0  0  0  0  0  0999 V2000
    0.9553   14.0258   -0.9095 C   0  0  0  0  0  0  0  0  0  0  0  0
    0.3610   12.6760    1.9144 C   0  0  1  0  0  0  0  0  0  0  0  0
    0.6038   13.2192   -1.9779 C   0  0  0  0  0  0  0  0  0  0  0  0
   -0.1534   12.1823   -1.4905 C   0  0  0  0  0  0  0  0  0  0  0  0
   -0.3961   11.7759    1.3931 N   0  0  0  0  0  0  0  0  0  0  0  0
    0.3089   12.8414    0.3908 C   0  0  1  0  0  0  0  0  0  0  0  0
    1.3415   13.7373    2.4818 S   0  0  0  0  0  0  0  0  0  0  0  0
   -0.2112   11.4332    3.5116 C   0  0  0  0  0  0  0  0  0  0  0  0
  3  1  2  3
  4  3  1  0
  5  2  1  0
  6  1  1  0
  6  2  1  0
  6  5  1  1
  7  2  1  0
  2  8  1  1
M  END
>  <ID>  (1) 
conformer_0

$$$$
