
     RDKit          3D

 10 11  0  0  0  0  0  0  0  0999 V2000
    1.0609   14.1529   -0.8925 C   0  0  0  0  0  0  0  0  0  0  0  0
    0.4524   12.7921    2.1589 C   0  0  0  0  0  0  0  0  0  0  0  0
    0.9317   13.6543   -2.1238 C   0  0  0  0  0  0  0  0  0  0  0  0
   -0.3900   11.5690    1.5781 N   0  0  0  0  0  0  0  0  0  0  0  0
   -0.3107   11.7481    3.6158 C   0  0  0  0  0  0  0  0  0  0  0  0
    0.8447   13.5811    0.4144 C   0  0  0  0  0  0  0  0  0  0  0  0
    0.0936   12.4316   -2.1198 C   0  0  0  0  0  0  0  0  0  0  0  0
    1.3364   13.9871    2.3985 S   0  0  0  0  0  0  0  0  0  0  0  0
    0.0404   12.4092    0.2696 C   0  0  0  0  0  0  0  0  0  0  0  0
   -0.4561   12.0036   -1.0094 C   0  0  0  0  0  0  0  0  0  0  0  0
  3  1  2  0
  4  2  2  0
  5  2  1  0
  6  1  1  0
  7  3  1  0
  8  2  1  0
  8  6  1  0
  9  4  1  0
  9  6  2  0
 10  7  2  0
 10  9  1  0
M  END
>  <ID>  (1) 
conformer_0

$$$$
