
     RDKit          3D

  9 10  0  0  0  0  0  0  0  0999 V2000
    0.8465   13.6905   -1.7028 C   0  0  0  0  0  0  0  0  0  0  0  0
    0.4462   12.7073    2.0780 C   0  0  0  0  0  0  0  0  0  0  0  0
    0.0893   12.5279   -1.8008 C   0  0  0  0  0  0  0  0  0  0  0  0
   -0.4579   11.9184   -0.6214 C   0  0  0  0  0  0  0  0  0  0  0  0
   -0.2090   11.7109    3.4182 C   0  0  0  0  0  0  0  0  0  0  0  0
    0.2999   11.1859    2.9240 O   0  0  0  0  0  0  0  0  0  0  0  0
   -0.1054   12.2747    0.3877 C   0  0  0  0  0  0  0  0  0  0  0  0
    0.8219   13.6474    0.5457 C   0  0  0  0  0  0  0  0  0  0  0  0
    0.9858   14.2114   -0.4510 C   0  0  0  0  0  0  0  0  0  0  0  0
  3  1  2  0
  4  3  1  0
  5  2  1  0
  6  5  1  0
  7  2  1  0
  7  4  2  0
  8  2  1  0
  8  7  1  0
  9  1  1  0
  9  8  2  0
M  END
>  <ID>  (1) 
conformer_0

$$$$
