
     RDKit          3D

  9  8  0  0  0  0  0  0  0  0999 V2000
    0.0557   12.5433    0.5314 C   0  0  0  0  0  0  0  0  0  0  0  0
    1.1197   14.1192   -0.8699 C   0  0  0  0  0  0  0  0  0  0  0  0
    0.5832   13.2408   -1.7526 C   0  0  0  0  0  0  0  0  0  0  0  0
   -0.2882   11.9097    3.4379 C   0  0  0  0  0  0  0  0  0  0  0  0
   -0.5896   11.6067    1.2892 N   0  0  0  0  0  0  0  0  0  0  0  0
   -0.2167   12.2032   -1.3001 C   0  0  0  0  0  0  0  0  0  0  0  0
    0.7839   13.3888    0.9474 C   0  0  0  0  0  0  0  0  0  0  0  0
    0.7137   12.8583    2.2818 N   0  0  0  0  0  0  0  0  0  0  0  0
   -0.3254   11.0144    3.4292 O   0  0  0  0  0  0  0  0  0  0  0  0
  3  2  1  0
  5  1  1  0
  6  1  1  0
  6  3  2  3
  7  1  2  3
  8  4  1  0
  8  7  1  0
  9  4  2  0
M  END
>  <ID>  (1) 
conformer_0

$$$$
