
     RDKit          3D

 10 11  0  0  0  0  0  0  0  0999 V2000
    0.9219   13.6864   -2.0433 C   0  0  0  0  0  0  0  0  0  0  0  0
    0.8920   13.8249    0.4529 C   0  0  0  0  0  0  0  0  0  0  0  0
    1.0471   14.2245   -0.8056 C   0  0  0  0  0  0  0  0  0  0  0  0
   -0.4677   11.8991    1.5230 N   0  0  0  0  0  0  0  0  0  0  0  0
   -0.2640   11.4372    3.4069 C   0  0  0  0  0  0  0  0  0  0  0  0
    0.1220   12.4723   -2.0086 C   0  0  0  0  0  0  0  0  0  0  0  0
    1.2033   13.7375    2.6239 S   0  0  0  0  0  0  0  0  0  0  0  0
    0.0049   12.5170    0.2298 C   0  0  0  0  0  0  0  0  0  0  0  0
    0.5169   12.6892    2.2159 C   0  0  0  0  0  0  0  0  0  0  0  0
   -0.4036   12.1138   -0.8988 C   0  0  0  0  0  0  0  0  0  0  0  0
  3  1  2  0
  3  2  1  0
  6  1  1  0
  7  2  1  0
  8  2  2  0
  8  4  1  0
  9  4  1  0
  9  5  1  0
  9  7  1  0
 10  6  2  0
 10  8  1  0
M  END
>  <ID>  (1) 
conformer_0

$$$$
