
     RDKit          3D

 10 11  0  0  0  0  0  0  0  0999 V2000
    1.2250   14.0187   -1.8598 C   0  0  0  0  0  0  0  0  0  0  0  0
    0.1268   12.5129    0.0199 C   0  0  0  0  0  0  0  0  0  0  0  0
    0.5375   12.8259   -2.2541 C   0  0  0  0  0  0  0  0  0  0  0  0
   -0.4741   11.3021    3.4179 C   0  0  0  0  0  0  0  0  0  0  0  0
    1.0552   13.6847    3.0136 S   0  0  0  0  0  0  0  0  0  0  0  0
   -0.3884   11.7620    1.4941 N   0  0  0  0  0  0  0  0  0  0  0  0
    1.1873   14.2463   -0.5269 C   0  0  0  0  0  0  0  0  0  0  0  0
    0.8643   13.5043    0.9146 C   0  0  0  0  0  0  0  0  0  0  0  0
   -0.2151   12.2700   -1.2959 C   0  0  0  0  0  0  0  0  0  0  0  0
    0.3691   12.6182    2.4791 C   0  0  0  0  0  0  0  0  0  0  0  0
  3  1  2  0
  6  2  1  0
  7  1  1  0
  8  2  1  0
  8  5  1  0
  8  7  2  0
  9  2  2  0
  9  3  1  0
 10  4  1  0
 10  5  1  0
 10  6  1  0
M  END
>  <ID>  (1) 
conformer_0

$$$$
