
     RDKit          3D

  9  9  0  0  0  0  0  0  0  0999 V2000
    0.8436   13.6814   -1.9661 C   0  0  0  0  0  0  0  0  0  0  0  0
    0.4834   12.8555    1.4428 C   0  0  0  0  0  0  0  0  0  0  0  0
    0.0556   12.4946   -2.0507 C   0  0  0  0  0  0  0  0  0  0  0  0
    1.1665   13.6960    2.4348 S   0  0  0  0  0  0  0  0  0  0  0  0
   -0.1869   11.6170    3.2145 C   0  0  0  0  0  0  0  0  0  0  0  0
   -0.4788   12.0150   -0.8972 C   0  0  0  0  0  0  0  0  0  0  0  0
   -0.3370   11.7862    1.6212 N   0  0  0  0  0  0  0  0  0  0  0  0
    0.4025   13.0987    0.0801 C   0  0  0  0  0  0  0  0  0  0  0  0
    1.0308   14.1638   -0.6678 C   0  0  0  0  0  0  0  0  0  0  0  0
  3  1  2  0
  4  2  2  0
  6  3  1  0
  7  2  1  0
  7  5  1  0
  8  2  1  0
  8  6  2  0
  9  1  1  0
  9  8  1  0
M  END
>  <ID>  (1) 
conformer_0

$$$$
