
     RDKit          3D

  8  8  0  0  0  0  0  0  0  0999 V2000
    0.5082   12.8888    1.5288 C   0  0  0  0  0  0  0  0  0  0  0  0
   -0.2525   12.1536   -1.2745 C   0  0  0  0  0  0  0  0  0  0  0  0
    0.5349   13.0979   -1.9191 C   0  0  0  0  0  0  0  0  0  0  0  0
   -0.2262   12.0030    1.5266 N   0  0  0  0  0  0  0  0  0  0  0  0
   -0.1289   11.7825    3.5267 C   0  0  0  0  0  0  0  0  0  0  0  0
    1.1004   14.0687   -1.0834 C   0  0  0  0  0  0  0  0  0  0  0  0
    0.4289   13.0866    0.2819 C   0  0  0  0  0  0  0  0  0  0  0  0
    1.0747   13.8486    2.4817 S   0  0  0  0  0  0  0  0  0  0  0  0
  3  2  2  0
  4  1  1  0
  5  4  1  0
  6  3  1  0
  7  1  1  0
  7  2  1  0
  7  6  2  0
  8  1  2  0
M  END
>  <ID>  (1) 
conformer_0

$$$$
