
     RDKit          3D

 10 10  0  0  0  0  0  0  0  0999 V2000
    0.4546   12.6253    1.9490 C   0  0  0  0  0  0  0  0  0  0  0  0
    1.0095   13.9112   -1.2974 C   0  0  0  0  0  0  0  0  0  0  0  0
    0.4032   12.9710   -1.9852 C   0  0  0  0  0  0  0  0  0  0  0  0
   -0.0421   11.9220    3.3534 C   0  0  0  0  0  0  0  0  0  0  0  0
    0.0333   12.4269    1.4394 N   0  0  0  0  0  0  0  0  0  0  0  0
   -0.4049   12.0446   -1.2211 C   0  0  0  0  0  0  0  0  0  0  0  0
    1.4188   14.6042    0.8270 N   0  0  0  0  0  0  0  0  0  0  0  0
    0.8721   13.8095    0.2781 C   0  0  0  0  0  0  0  0  0  0  0  0
   -0.1320   12.0790    3.8105 N   0  0  0  0  0  0  0  0  0  0  0  0
   -0.0539   12.4439    0.1250 C   0  0  0  0  0  0  0  0  0  0  0  0
  3  2  2  0
  4  1  1  0
  5  1  2  3
  6  3  1  0
  8  2  1  0
  8  7  1  0
  9  4  2  3
 10  5  1  0
 10  6  2  0
 10  8  1  0
M  END
>  <ID>  (1) 
conformer_0

$$$$
