
     RDKit          3D

 10 11  0  0  0  0  0  0  0  0999 V2000
    0.3866   12.6687    2.1108 C   0  0  0  0  0  0  0  0  0  0  0  0
    0.9558   14.0361   -1.7079 C   0  0  0  0  0  0  0  0  0  0  0  0
    1.0028   14.2537   -0.3359 C   0  0  0  0  0  0  0  0  0  0  0  0
   -0.2561   11.7722    1.3649 N   0  0  0  0  0  0  0  0  0  0  0  0
   -0.2876   11.6746    3.4271 C   0  0  0  0  0  0  0  0  0  0  0  0
    0.9505   13.6315    2.9697 S   0  0  0  0  0  1  0  0  0  0  0  0
   -0.1004   12.3461    0.0122 C   0  0  0  0  0  0  0  0  0  0  0  0
    0.4043   12.7806   -2.1254 C   0  0  0  0  0  0  0  0  0  0  0  0
    0.7530   13.5612    0.5970 C   0  0  0  0  0  0  0  0  0  0  0  0
   -0.3392   12.0981   -1.2236 C   0  0  0  0  0  0  0  0  0  0  0  0
  3  2  1  0
  4  1  1  0
  5  1  1  0
  6  1  1  0
  7  4  1  0
  8  2  2  0
  9  1  1  0
  9  3  2  0
  9  7  1  0
 10  7  2  0
 10  8  1  0
M  RAD  1   6   2
M  END
>  <ID>  (1) 
conformer_0

$$$$
