
     RDKit          3D

 11 12  0  0  0  0  0  0  0  0999 V2000
    0.7202   13.4541    0.6492 C   0  0  0  0  0  0  0  0  0  0  0  0
    1.0516   14.2897   -0.1761 C   0  0  0  0  0  0  0  0  0  0  0  0
    0.9972   14.0289   -1.5799 C   0  0  0  0  0  0  0  0  0  0  0  0
    0.9125   13.8934    2.7729 S   0  0  0  0  0  1  0  0  0  0  0  0
   -0.4490   11.6116    1.1879 N   0  0  0  0  0  0  0  0  0  0  0  0
   -0.2055   11.7351    3.3832 C   0  0  0  0  0  0  0  0  0  0  0  0
   -0.0694   12.3067    0.0770 C   0  0  0  0  0  0  0  0  0  0  0  0
    0.4519   12.8541   -2.0254 C   0  0  0  0  0  0  0  0  0  0  0  0
    0.1315   10.8742    3.2768 O   0  0  0  0  0  0  0  0  0  0  0  0
    0.3734   12.6101    2.1124 C   0  0  0  0  0  0  0  0  0  0  0  0
   -0.2868   12.0603   -1.2579 C   0  0  0  0  0  0  0  0  0  0  0  0
  2  1  2  0
  3  2  1  0
  7  1  1  0
  7  5  1  0
  8  3  2  0
  9  6  1  0
 10  1  1  0
 10  4  1  0
 10  5  1  0
 10  6  1  0
 11  7  2  0
 11  8  1  0
M  RAD  1   4   2
M  END
>  <ID>  (1) 
conformer_0

$$$$
