
     RDKit          3D

  9 10  0  0  0  0  0  0  0  0999 V2000
    0.5097   12.6915    1.7637 C   0  0  0  0  0  0  0  0  0  0  0  0
   -0.3828   12.1269   -1.2593 C   0  0  0  0  0  0  0  0  0  0  0  0
    0.4048   13.1906   -1.8234 C   0  0  0  0  0  0  0  0  0  0  0  0
   -0.2413   11.8394    3.3023 C   0  0  0  0  0  0  0  0  0  0  0  0
   -0.2250   12.2700    1.3355 N   0  0  0  0  0  0  0  0  0  0  0  0
    1.4829   14.1048    1.3335 N   0  0  0  0  0  0  0  0  0  0  0  0
    0.9898   14.1857   -1.0958 C   0  0  0  0  0  0  0  0  0  0  0  0
   -0.1586   12.3287    0.0673 C   0  0  0  0  0  0  0  0  0  0  0  0
    0.9294   13.7768    0.3457 C   0  0  0  0  0  0  0  0  0  0  0  0
  3  2  2  0
  5  1  1  0
  5  4  1  0
  6  1  1  0
  7  3  1  0
  8  2  1  0
  8  5  1  0
  9  6  1  0
  9  7  2  0
  9  8  1  0
M  END
>  <ID>  (1) 
conformer_0

$$$$
