
     RDKit          3D

  8  8  0  0  0  0  0  0  0  0999 V2000
    1.2358   14.3428   -1.0548 C   0  0  0  0  0  0  0  0  0  0  0  0
    0.4616   13.1580    0.2661 C   0  0  0  0  0  0  0  0  0  0  0  0
    0.8062   13.4925   -2.0522 C   0  0  0  0  0  0  0  0  0  0  0  0
    1.0178   13.7691    2.5128 S   0  0  0  0  0  0  0  0  0  0  0  0
   -0.2682   11.5549    3.6582 C   0  0  0  0  0  0  0  0  0  0  0  0
   -0.0293   12.4354   -1.4113 C   0  0  0  0  0  0  0  0  0  0  0  0
    0.1900   12.4071    1.8106 C   0  0  0  0  0  0  0  0  0  0  0  0
   -0.1973   12.1101    1.6278 N   0  0  0  0  0  0  0  0  0  0  0  0
  2  1  2  0
  3  1  1  0
  6  2  1  0
  6  3  2  0
  7  2  1  0
  7  4  1  0
  7  5  1  0
  8  7  1  0
M  END
>  <ID>  (1) 
conformer_0

$$$$
