
     RDKit          3D

  8  9  0  0  0  0  0  0  0  0999 V2000
    0.3347   12.6599    1.7303 C   0  0  0  0  0  0  0  0  0  0  0  0
    1.0804   14.3814   -0.7128 C   0  0  0  0  0  0  0  0  0  0  0  0
    0.7305   13.6409   -1.8720 C   0  0  0  0  0  0  0  0  0  0  0  0
   -0.1153   12.4855   -1.5076 C   0  0  0  0  0  0  0  0  0  0  0  0
   -0.3177   11.6416    3.4843 C   0  0  0  0  0  0  0  0  0  0  0  0
    0.3144   12.9304    0.2936 C   0  0  0  0  0  0  0  0  0  0  0  0
   -0.4253   11.7540    1.2458 N   0  0  0  0  0  0  0  0  0  0  0  0
    0.2126   12.4471    4.0539 O   0  0  0  0  0  0  0  0  0  0  0  0
  3  2  2  0
  4  3  1  0
  5  1  1  0
  6  1  1  0
  6  2  1  0
  6  4  1  0
  7  1  1  0
  7  6  1  0
  8  5  1  0
M  END
>  <ID>  (1) 
conformer_0

$$$$
