
     RDKit          3D

 11 12  0  0  0  0  0  0  0  0999 V2000
    0.9643   13.6897   -2.1195 C   0  0  0  0  0  0  0  0  0  0  0  0
    0.0808   12.5036    0.1288 C   0  0  0  0  0  0  0  0  0  0  0  0
    0.1243   12.4905   -2.1287 C   0  0  0  0  0  0  0  0  0  0  0  0
   -0.2691   11.9982    1.5692 N   0  0  0  0  0  0  0  0  0  0  0  0
   -0.3172   11.3382    3.3907 C   0  0  0  0  0  0  0  0  0  0  0  0
    1.0654   14.2065   -0.9066 C   0  0  0  0  0  0  0  0  0  0  0  0
    0.8306   13.6604    0.4491 C   0  0  0  0  0  0  0  0  0  0  0  0
    1.0216   13.5145    2.8569 S   0  0  0  0  0  0  0  0  0  0  0  0
    1.2137   14.0600    0.8837 N   0  0  0  0  0  0  0  0  0  0  0  0
    0.3885   12.6358    2.3478 C   0  0  0  0  0  0  0  0  0  0  0  0
   -0.4515   12.0357   -0.9768 C   0  0  0  0  0  0  0  0  0  0  0  0
  3  1  2  0
  4  2  1  0
  6  1  1  0
  7  2  1  0
  7  6  2  0
  9  7  1  0
  9  8  1  0
 10  4  1  0
 10  5  1  0
 10  8  1  0
 11  2  2  0
 11  3  1  0
M  END
>  <ID>  (1) 
conformer_0

$$$$
