
     RDKit          3D

 10 11  0  0  0  0  0  0  0  0999 V2000
    0.0300   12.4626    0.3499 C   0  0  0  0  0  0  0  0  0  0  0  0
    1.2023   14.2772   -0.7710 C   0  0  0  0  0  0  0  0  0  0  0  0
    1.0378   13.8627   -2.0162 C   0  0  0  0  0  0  0  0  0  0  0  0
    0.4519   12.5724    2.5221 C   0  0  0  0  0  0  0  0  0  0  0  0
   -0.3896   11.3875    3.6014 C   0  0  0  0  0  0  0  0  0  0  0  0
   -0.4776   11.6192    1.3872 N   0  0  0  0  0  0  0  0  0  0  0  0
   -0.3870   12.1600   -1.0000 C   0  0  0  0  0  0  0  0  0  0  0  0
    0.8779   13.5064    1.6102 N   0  0  0  0  0  0  0  0  0  0  0  0
    0.8631   13.5871    0.5012 C   0  0  0  0  0  0  0  0  0  0  0  0
    0.2404   12.6459   -2.1407 C   0  0  0  0  0  0  0  0  0  0  0  0
  3  2  2  0
  5  4  1  0
  6  1  1  0
  6  4  2  0
  7  1  1  0
  8  4  1  0
  9  1  2  0
  9  2  1  0
  9  8  1  0
 10  3  1  0
 10  7  2  0
M  END
>  <ID>  (1) 
conformer_0

$$$$
