
     RDKit          3D

  9  8  0  0  0  0  0  0  0  0999 V2000
    0.1657   12.6560   -1.8582 C   0  0  0  0  0  0  0  0  0  0  0  0
    0.5518   12.9247    1.4983 C   0  0  0  0  0  0  0  0  0  0  0  0
    1.0325   14.2346   -0.2705 C   0  0  0  0  0  0  0  0  0  0  0  0
   -0.2339   11.7426    3.3838 C   0  0  0  0  0  0  0  0  0  0  0  0
    1.2153   13.6793    2.8683 S   0  0  0  0  0  0  0  0  0  0  0  0
   -0.4723   11.9570   -0.8266 C   0  0  0  0  0  0  0  0  0  0  0  0
    0.1854   12.7828    0.2917 C   0  0  0  0  0  0  0  0  0  0  0  0
   -0.0647   12.7670    1.4307 N   0  0  0  0  0  0  0  0  0  0  0  0
    0.8925   13.8564   -1.5764 C   0  0  0  0  0  0  0  0  0  0  0  0
  5  2  1  0
  6  1  1  0
  7  4  1  0
  7  6  2  3
  8  2  1  0
  8  7  1  0
  9  1  2  3
  9  3  1  0
M  END
>  <ID>  (1) 
conformer_0

$$$$
