
     RDKit          3D

 11 12  0  0  0  0  0  0  0  0999 V2000
    1.1050   14.2190   -0.6002 C   0  0  0  0  0  0  0  0  0  0  0  0
    0.8793   13.7246    0.5784 C   0  0  0  0  0  0  0  0  0  0  0  0
    0.9920   13.8230   -1.8805 C   0  0  0  0  0  0  0  0  0  0  0  0
    0.2055   12.6195   -2.0140 C   0  0  0  0  0  0  0  0  0  0  0  0
   -0.1482   11.8685    3.2778 C   0  0  0  0  0  0  0  0  0  0  0  0
   -0.0628   12.0116    1.3855 N   0  0  0  0  0  0  0  0  0  0  0  0
   -0.3560   11.1734    3.6036 O   0  0  0  0  0  0  0  0  0  0  0  0
    0.3228   12.5704    2.3558 C   0  0  0  0  0  0  0  0  0  0  0  0
    1.1585   14.0834    1.6870 N   0  0  0  0  0  0  0  0  0  0  0  0
   -0.3298   12.1350   -0.8886 C   0  0  0  0  0  0  0  0  0  0  0  0
   -0.0197   12.4082    0.2303 C   0  0  0  0  0  0  0  0  0  0  0  0
  2  1  2  0
  3  1  1  0
  4  3  2  0
  7  5  2  0
  8  5  1  0
  8  6  2  0
  9  2  1  0
  9  8  1  0
 10  4  1  0
 11  2  1  0
 11  6  1  0
 11 10  2  0
M  END
>  <ID>  (1) 
conformer_0

$$$$
