
     RDKit          3D

  9  9  0  0  0  0  0  0  0  0999 V2000
    0.8069   13.4640   -1.9310 C   0  0  0  0  0  0  0  0  0  0  0  0
    0.4478   12.8959    1.3894 C   0  0  0  0  0  0  0  0  0  0  0  0
    1.2379   14.3258   -0.9103 C   0  0  0  0  0  0  0  0  0  0  0  0
   -0.2841   11.6573    1.4685 N   0  0  0  0  0  0  0  0  0  0  0  0
   -0.1714   11.8443    3.5247 C   0  0  0  0  0  0  0  0  0  0  0  0
   -0.0511   12.3953   -1.4425 C   0  0  0  0  0  0  0  0  0  0  0  0
    0.4591   12.9619    0.1805 C   0  0  0  0  0  0  0  0  0  0  0  0
    0.9193   13.7570    2.9510 S   0  0  0  0  0  0  0  0  0  0  0  0
    1.0843   14.0274    1.4779 N   0  0  0  0  0  0  0  0  0  0  0  0
  3  1  2  0
  4  2  2  3
  5  4  1  0
  6  1  1  0
  7  2  1  0
  7  3  1  0
  7  6  2  0
  9  2  1  0
  9  8  1  0
M  END
>  <ID>  (1) 
conformer_0

$$$$
