
     RDKit          3D

  8  8  0  0  0  0  0  0  0  0999 V2000
    0.4126   13.0467   -1.8750 C   0  0  0  0  0  0  0  0  0  0  0  0
    0.2287   12.6021    1.1036 C   0  0  0  0  0  0  0  0  0  0  0  0
    1.0193   14.1294   -1.2994 C   0  0  0  0  0  0  0  0  0  0  0  0
   -0.2627   11.3333    3.3794 C   0  0  0  0  0  0  0  0  0  0  0  0
   -0.5691   11.4532    1.3852 N   0  0  0  0  0  0  0  0  0  0  0  0
    0.6495   13.4871    0.2613 C   0  0  0  0  0  0  0  0  0  0  0  0
   -0.3227   12.1422   -1.1561 C   0  0  0  0  0  0  0  0  0  0  0  0
    0.6755   13.5474    1.4726 N   0  0  0  0  0  0  0  0  0  0  0  0
  3  1  1  0
  5  2  1  0
  5  4  1  0
  6  2  1  0
  6  3  2  3
  7  1  1  0
  8  2  2  0
  8  6  1  0
M  END
>  <ID>  (1) 
conformer_0

$$$$
