
     RDKit          3D

 11 12  0  0  0  0  0  0  0  0999 V2000
    0.9899   13.8367   -1.8706 C   0  0  0  0  0  0  0  0  0  0  0  0
    0.3833   12.6037    2.2348 C   0  0  0  0  0  0  0  0  0  0  0  0
    1.2154   14.3891   -0.6427 C   0  0  0  0  0  0  0  0  0  0  0  0
   -0.3178   11.5541    3.3544 C   0  0  0  0  0  0  0  0  0  0  0  0
    1.0994   13.8604    2.4971 S   0  0  0  0  0  0  0  0  0  0  0  0
   -0.1788   11.9099    1.3848 N   0  0  0  0  0  0  0  0  0  0  0  0
    0.1470   12.6924   -1.9217 C   0  0  0  0  0  0  0  0  0  0  0  0
    0.9218   13.7743    0.4449 C   0  0  0  0  0  0  0  0  0  0  0  0
   -0.4287   10.5584    3.1135 O   0  0  0  0  0  0  0  0  0  0  0  0
    0.0665   12.5175    0.2781 C   0  0  0  0  0  0  0  0  0  0  0  0
   -0.4080   12.1418   -0.8588 C   0  0  0  0  0  0  0  0  0  0  0  0
  3  1  2  0
  4  2  1  0
  5  2  1  0
  6  2  2  0
  7  1  1  0
  8  3  1  0
  8  5  1  0
  9  4  2  0
 10  6  1  0
 10  8  2  0
 11  7  2  0
 11 10  1  0
M  END
>  <ID>  (1) 
conformer_0

$$$$
