
     RDKit          3D

 10 11  0  0  0  0  0  0  0  0999 V2000
   -0.4142   12.1154   -0.7283 C   0  0  0  0  0  0  0  0  0  0  0  0
    0.8393   13.6421    0.5113 C   0  0  0  0  0  0  0  0  0  0  0  0
    0.0261   12.6264   -1.8597 C   0  0  0  0  0  0  0  0  0  0  0  0
    0.8715   13.7946   -1.8976 C   0  0  0  0  0  0  0  0  0  0  0  0
    1.0434   14.0139    2.3177 S   0  0  0  0  0  0  0  0  0  0  0  0
   -0.1685   11.5428    3.7046 C   0  0  0  0  0  0  0  0  0  0  0  0
   -0.2163   11.7692    1.7581 N   0  0  0  0  0  0  0  0  0  0  0  0
    0.0439   12.3753    0.6165 C   0  0  0  0  0  0  0  0  0  0  0  0
    1.1616   14.3299   -0.7038 C   0  0  0  0  0  0  0  0  0  0  0  0
    0.3564   12.4247    2.4827 C   0  0  0  0  0  0  0  0  0  0  0  0
  3  1  2  0
  4  3  1  0
  5  2  1  0
  8  1  1  0
  8  2  2  0
  8  7  1  0
  9  2  1  0
  9  4  2  0
 10  5  1  0
 10  6  1  0
 10  7  1  0
M  END
>  <ID>  (1) 
conformer_0

$$$$
