
     RDKit          3D

  9  9  0  0  0  0  0  0  0  0999 V2000
    0.7471   13.6056    0.5047 C   0  0  0  0  0  0  0  0  0  0  0  0
    1.1108   14.0440   -1.1176 C   0  0  0  0  0  0  0  0  0  0  0  0
    0.5869   13.1390   -1.9170 C   0  0  0  0  0  0  0  0  0  0  0  0
   -0.2987   11.7226    1.6368 N   0  0  0  0  0  0  0  0  0  0  0  0
   -0.2498   11.5672    3.6530 C   0  0  0  0  0  0  0  0  0  0  0  0
    0.3464   12.4803    2.4110 C   0  0  0  0  0  0  0  0  0  0  0  0
    0.9028   14.0657    1.2692 N   0  0  0  0  0  0  0  0  0  0  0  0
   -0.2389   12.1627   -1.2492 C   0  0  0  0  0  0  0  0  0  0  0  0
   -0.0102   12.3384    0.3390 C   0  0  0  0  0  0  0  0  0  0  0  0
  2  1  2  0
  3  2  1  0
  6  4  2  3
  6  5  1  0
  7  1  1  0
  8  3  2  0
  9  1  1  0
  9  4  1  0
  9  8  1  0
M  END
>  <ID>  (1) 
conformer_0

$$$$
