
     RDKit          3D

  8  9  0  0  0  0  0  0  0  0999 V2000
    0.4162   12.9065    1.3786 C   0  0  0  0  0  0  0  0  0  0  0  0
   -0.0238   12.3041   -1.6588 C   0  0  0  0  0  0  0  0  0  0  0  0
    0.7688   13.4256   -2.0762 C   0  0  0  0  0  0  0  0  0  0  0  0
   -0.5577   11.6567    1.2919 N   0  0  0  0  0  0  0  0  0  0  0  0
   -0.1619   11.6754    3.5255 C   0  0  0  0  0  0  0  0  0  0  0  0
    0.1868   12.8554    0.0304 C   0  0  0  0  0  0  0  0  0  0  0  0
    1.1225   14.2573   -0.9696 C   0  0  0  0  0  0  0  0  0  0  0  0
    0.8968   13.5497    2.3157 O   0  0  0  0  0  0  0  0  0  0  0  0
  3  2  1  0
  4  1  1  0
  5  4  1  0
  6  1  1  0
  6  2  1  0
  6  4  1  0
  7  3  2  0
  7  6  1  0
  8  1  2  0
M  END
>  <ID>  (1) 
conformer_0

$$$$
