
     RDKit          3D

 12 13  0  0  0  0  0  0  0  0999 V2000
   -0.0518   12.5712    0.1933 C   0  0  0  0  0  0  0  0  0  0  0  0
    0.1479   12.4366   -2.2712 C   0  0  0  0  0  0  0  0  0  0  0  0
    0.8682   13.6696   -2.1935 C   0  0  0  0  0  0  0  0  0  0  0  0
   -0.7696   11.1914    1.2805 N   0  0  0  0  0  0  0  0  0  0  0  0
    0.3840   12.5862    2.3664 C   0  0  0  0  0  0  0  0  0  0  0  0
   -0.1653   10.4900    3.6947 O   0  0  0  0  0  0  0  0  0  0  0  0
   -0.2405   11.3527    3.3130 C   0  0  0  0  0  0  0  0  0  0  0  0
    0.9619   14.1927   -0.9548 C   0  0  0  0  0  0  0  0  0  0  0  0
    1.0496   13.8392    2.7706 S   0  0  0  0  0  0  0  0  0  0  0  0
    0.8235   13.6728    0.5939 C   0  0  0  0  0  3  0  0  0  0  0  0
    0.1586   12.9420    1.5328 N   0  0  0  0  0  0  0  0  0  0  0  0
   -0.4513   12.0381   -1.1410 C   0  0  0  0  0  0  0  0  0  0  0  0
  3  2  1  0
  4  1  1  0
  7  5  1  0
  7  6  2  0
  8  3  2  0
  9  5  2  0
 10  1  1  0
 10  8  1  0
 11  1  1  0
 11  5  1  0
 11 10  1  0
 12  1  1  0
 12  2  2  0
M  RAD  1  10   2
M  END
>  <ID>  (1) 
conformer_0

$$$$
