
     RDKit          3D

 12 13  0  0  0  0  0  0  0  0999 V2000
    0.9963   13.7921   -2.0089 C   0  0  0  0  0  0  0  0  0  0  0  0
    0.2687   12.4200    2.3245 C   0  0  0  0  0  0  0  0  0  0  0  0
    0.1298   12.5965   -2.0128 C   0  0  0  0  0  0  0  0  0  0  0  0
   -0.3663   12.2325   -0.8316 C   0  0  0  0  0  0  0  0  0  0  0  0
   -0.3449   11.2645    3.6358 C   0  0  0  0  0  0  0  0  0  0  0  0
    1.5444   14.3888    1.3852 N   0  0  0  0  0  0  0  0  0  0  0  0
   -0.4195   11.5356    1.3751 N   0  0  0  0  0  2  0  0  0  0  0  0
    0.9680   13.8551    0.4767 C   0  0  0  0  0  0  0  0  0  0  0  0
    0.0308   11.1654    3.3460 O   0  0  0  0  0  0  0  0  0  0  0  0
    1.1890   14.2935   -0.8303 C   0  0  0  0  0  0  0  0  0  0  0  0
    0.0256   12.5920    0.2400 C   0  0  0  0  0  0  0  0  0  0  0  0
    0.5512   13.2650    2.0271 N   0  0  0  0  0  0  0  0  0  0  0  0
  3  1  2  0
  4  3  1  0
  7  2  1  0
  8  6  1  0
  9  2  1  0
  9  5  1  0
 10  1  1  0
 10  8  2  0
 11  4  2  0
 11  7  1  0
 11  8  1  0
 12  2  2  0
 12  6  1  0
M  RAD  1   7   2
M  END
>  <ID>  (1) 
conformer_0

$$$$
