
     RDKit          3D

 10 12  0  0  0  0  0  0  0  0999 V2000
    1.2873   14.2436   -0.5658 C   0  0  0  0  0  0  0  0  0  0  0  0
    0.5054   12.8725    2.0707 C   0  0  0  0  0  0  0  0  0  0  0  0
    1.0981   13.7759   -1.8210 C   0  0  0  0  0  0  0  0  0  0  0  0
   -0.4047   11.5935    1.7442 N   0  0  0  0  0  0  0  0  0  0  0  0
   -0.3640   11.6615    3.4116 C   0  0  0  0  0  0  0  0  0  0  0  0
    1.3117   14.0080    2.3499 S   0  0  0  0  0  0  0  0  0  0  0  0
    0.1653   12.6154   -1.9058 C   0  0  0  0  0  0  0  0  0  0  0  0
   -0.0143   12.3788    0.3007 C   0  0  0  0  0  0  0  0  0  0  0  0
    0.9584   13.7543    0.3805 C   0  0  0  0  0  3  0  0  0  0  0  0
   -0.4180   12.1937   -0.8544 C   0  0  0  0  0  0  0  0  0  0  0  0
  3  1  2  0
  4  2  1  0
  5  4  1  0
  6  2  1  0
  7  3  1  0
  8  2  1  0
  8  4  1  0
  9  1  1  0
  9  6  1  0
  9  8  1  0
 10  7  2  0
 10  8  1  0
M  RAD  1   9   2
M  END
>  <ID>  (1) 
conformer_0

$$$$
