
     RDKit          3D

 10 11  0  0  0  0  0  0  0  0999 V2000
    1.3213   14.1816   -0.8172 C   0  0  0  0  0  0  0  0  0  0  0  0
    0.5552   13.0766    0.2599 C   0  0  0  0  0  0  0  0  0  0  0  0
    1.0910   13.8281   -2.0795 C   0  0  0  0  0  0  0  0  0  0  0  0
   -0.3967   12.2702   -0.9655 C   0  0  0  0  0  0  0  0  0  0  0  0
   -0.4523   11.4743    3.4285 C   0  0  0  0  0  0  0  0  0  0  0  0
   -0.5205   11.6563    2.3936 N   0  0  0  0  0  0  0  0  0  0  0  0
    0.5578   12.8969    1.8096 C   0  0  1  0  0  0  0  0  0  0  0  0
    1.1099   14.0113    1.5003 N   0  0  0  0  0  0  0  0  0  0  0  0
    1.1906   13.5980    2.8211 S   0  0  0  0  0  0  0  0  0  0  0  0
    0.1591   12.6546   -2.1366 C   0  0  0  0  0  0  0  0  0  0  0  0
  2  1  2  0
  3  1  1  0
  4  2  1  0
  6  5  2  3
  7  2  1  0
  7  6  1  0
  7  8  1  1
  9  7  1  0
  9  8  1  0
 10  3  1  0
 10  4  2  0
M  END
>  <ID>  (1) 
conformer_0

$$$$
