
     RDKit          3D

  8  8  0  0  0  0  0  0  0  0999 V2000
    0.6007   13.1274   -1.7524 C   0  0  0  0  0  0  0  0  0  0  0  0
    0.5646   12.8906    1.4737 C   0  0  0  0  0  0  0  0  0  0  0  0
    1.1669   14.0722   -0.9580 C   0  0  0  0  0  0  0  0  0  0  0  0
   -0.0557   11.9227    3.2270 C   0  0  0  0  0  0  0  0  0  0  0  0
   -0.8469   11.6057    3.6370 O   0  0  0  0  0  0  0  0  0  0  0  0
    0.4795   13.3414    1.4660 N   0  0  0  0  0  0  0  0  0  0  0  0
   -0.1903   12.1731   -1.0793 C   0  0  0  0  0  0  0  0  0  0  0  0
    0.4255   13.0330    0.2632 C   0  0  0  0  0  0  0  0  0  0  0  0
  3  1  2  0
  4  2  1  0
  5  4  2  0
  6  2  2  3
  7  1  1  0
  8  2  1  0
  8  3  1  0
  8  7  2  0
M  END
>  <ID>  (1) 
conformer_0

$$$$
