
     RDKit          3D

  9  9  0  0  0  0  0  0  0  0999 V2000
    1.0175   13.9860   -1.6402 C   0  0  0  0  0  0  0  0  0  0  0  0
    0.0309   12.3664    0.4555 C   0  0  0  0  0  0  0  0  0  0  0  0
    1.1883   14.3363   -0.2952 C   0  0  0  0  0  0  0  0  0  0  0  0
   -0.1036   11.6049    3.1995 C   0  0  0  0  0  0  0  0  0  0  0  0
   -0.1652   11.5385    1.6301 N   0  0  0  0  0  0  0  0  0  0  0  0
    1.0448   13.7848    2.4433 S   0  0  0  0  0  0  0  0  0  0  0  0
    0.3029   12.8570   -1.9492 C   0  0  0  0  0  0  0  0  0  0  0  0
    0.6560   13.3036    0.7771 C   0  0  0  0  0  0  0  0  0  0  0  0
   -0.3839   12.1132   -1.0580 C   0  0  0  0  0  0  0  0  0  0  0  0
  3  1  2  0
  5  2  1  0
  5  4  1  0
  7  1  1  0
  8  2  2  0
  8  3  1  0
  8  6  1  0
  9  2  1  0
  9  7  2  0
M  END
>  <ID>  (1) 
conformer_0

$$$$
