
     RDKit          3D

  8  9  0  0  0  0  0  0  0  0999 V2000
    0.1451   12.5428    0.7432 C   0  0  0  0  0  0  0  0  0  0  0  0
    1.1128   14.1687   -1.1411 C   0  0  0  0  0  0  0  0  0  0  0  0
    0.5225   13.1782   -1.8581 C   0  0  0  0  0  0  0  0  0  0  0  0
   -0.2677   11.5691    3.2894 C   0  0  0  0  0  0  0  0  0  0  0  0
   -0.5601   11.4827    1.8373 N   0  0  0  0  0  0  0  0  0  0  0  0
   -0.2667   12.2371   -1.1279 C   0  0  0  0  0  3  0  0  0  0  0  0
    0.9182   13.6044    0.3532 C   0  0  0  0  0  0  0  0  0  0  0  0
    0.4827   13.2319    1.9421 N   0  0  0  0  0  0  0  0  0  0  0  0
  3  2  2  0
  5  1  1  0
  5  4  1  0
  6  1  1  0
  6  3  1  0
  7  1  1  0
  7  2  1  0
  8  1  1  0
  8  7  1  0
M  RAD  1   6   2
M  END
>  <ID>  (1) 
conformer_0

$$$$
