
     RDKit          3D

 12 13  0  0  0  0  0  0  0  0999 V2000
    1.1337   14.2326   -0.5367 C   0  0  0  0  0  0  0  0  0  0  0  0
    0.8315   13.5968    0.6684 C   0  0  0  0  0  0  0  0  0  0  0  0
    1.2286   14.0941   -1.8182 C   0  0  0  0  0  0  0  0  0  0  0  0
    0.5036   12.9016   -2.2185 C   0  0  0  0  0  0  0  0  0  0  0  0
   -0.1710   11.7542    3.4609 C   0  0  0  0  0  0  0  0  0  0  0  0
   -0.3667   11.8195    1.2109 N   0  0  0  0  0  0  0  0  0  0  0  0
   -0.2449   10.7164    3.1225 O   0  0  0  0  0  0  0  0  0  0  0  0
    0.2653   12.6210    2.4018 C   0  0  0  0  0  0  0  0  0  0  0  0
    0.8971   13.8104    1.6677 N   0  0  0  0  0  0  0  0  0  0  0  0
    0.9995   13.9507    3.0081 S   0  0  0  0  0  0  0  0  0  0  0  0
   -0.2160   12.2866   -1.2356 C   0  0  0  0  0  0  0  0  0  0  0  0
    0.0002   12.4364    0.0740 C   0  0  0  0  0  0  0  0  0  0  0  0
  2  1  2  0
  3  1  1  0
  4  3  2  0
  7  5  1  0
  8  5  1  0
  8  6  2  0
  9  2  1  0
 10  8  1  0
 10  9  1  0
 11  4  1  0
 12  2  1  0
 12  6  1  0
 12 11  2  0
M  END
>  <ID>  (1) 
conformer_0

$$$$
