
     RDKit          3D

 11 12  0  0  0  0  0  0  0  0999 V2000
   -0.1522   12.2246   -1.6313 C   0  0  0  0  0  0  0  0  0  0  0  0
    0.2963   12.5490    2.4692 C   0  0  0  0  0  0  0  0  0  0  0  0
    1.0590   14.2256   -0.1758 C   0  0  0  0  0  0  0  0  0  0  0  0
    1.1771   13.8087    2.5228 S   0  0  0  0  0  0  0  0  0  0  0  0
   -0.3903   12.0280   -0.2909 C   0  0  0  0  0  0  0  0  0  0  0  0
   -0.4079   10.9523    3.4258 O   0  0  0  0  0  0  0  0  0  0  0  0
   -0.1746   11.8489    3.3087 C   0  0  0  0  0  0  0  0  0  0  0  0
   -0.0979   12.2424    0.7679 C   0  0  0  0  0  0  0  0  0  0  0  0
    0.6458   13.1419   -2.1603 C   0  0  0  0  0  0  0  0  0  0  0  0
    1.1443   14.2295   -1.5017 C   0  0  0  0  0  0  0  0  0  0  0  0
    0.7845   13.5838    0.4603 C   0  0  0  0  0  0  0  0  0  0  0  0
  4  2  1  0
  5  1  2  0
  7  2  1  0
  7  6  2  0
  8  2  1  0
  8  5  1  0
  9  1  1  0
 10  3  2  0
 10  9  1  0
 11  3  1  0
 11  4  1  0
 11  8  2  0
M  END
>  <ID>  (1) 
conformer_0

$$$$
