
     RDKit          3D

 11 12  0  0  0  0  0  0  0  0999 V2000
   -0.0242   12.5362   -1.7957 C   0  0  0  0  0  0  0  0  0  0  0  0
    0.0292   12.5014    0.1908 C   0  0  0  0  0  0  0  0  0  0  0  0
    1.0818   14.2714   -0.7080 C   0  0  0  0  0  0  0  0  0  0  0  0
    0.7067   13.1711    2.0675 N   0  0  0  0  0  0  0  0  0  0  0  0
   -0.2296   11.5658    3.5500 C   0  0  0  0  0  0  0  0  0  0  0  0
    1.6610   14.4606    1.0986 N   0  0  0  0  0  0  0  0  0  0  0  0
    1.0291   13.9784    0.2937 C   0  0  0  0  0  3  0  0  0  0  0  0
   -0.4845   12.0523   -0.6744 C   0  0  0  0  0  0  0  0  0  0  0  0
   -0.4065   11.5893    1.3773 N   0  0  0  0  0  0  0  0  0  0  0  0
    0.3971   12.6299    1.9105 C   0  0  0  0  0  0  0  0  0  0  0  0
    0.8643   13.7276   -1.9488 C   0  0  0  0  0  0  0  0  0  0  0  0
  7  2  1  0
  7  3  1  0
  7  6  1  0
  8  1  2  0
  8  2  1  0
  9  2  1  0
 10  2  1  0
 10  4  1  0
 10  5  1  0
 10  9  1  0
 11  1  1  0
 11  3  2  0
M  RAD  1   7   2
M  END
>  <ID>  (1) 
conformer_0

$$$$
