
     RDKit          3D

 12 14  0  0  0  0  0  0  0  0999 V2000
    0.9233   14.4232   -1.2299 C   0  0  0  0  0  0  0  0  0  0  0  0
    0.8748   13.7378    0.8118 C   0  0  0  0  0  0  0  0  0  0  0  0
    1.1405   14.1876    0.1588 C   0  0  0  0  0  0  0  0  0  0  0  0
    1.1039   13.8012    2.8127 S   0  0  0  0  0  0  0  0  0  0  0  0
   -0.2534   11.6992    3.2947 C   0  0  0  0  0  0  0  0  0  0  0  0
    0.9558   13.2643   -1.9915 C   0  0  0  0  0  0  0  0  0  0  0  0
   -0.4193   10.5832    3.2803 O   0  0  0  0  0  0  0  0  0  0  0  0
   -0.1454   12.3699    0.2118 C   0  0  0  0  0  3  0  0  0  0  0  0
   -0.4508   11.8453    1.3562 N   0  0  0  0  0  0  0  0  0  0  0  0
   -0.1782   12.5008   -1.8021 C   0  0  0  0  0  0  0  0  0  0  0  0
   -0.3531   12.0076   -0.5674 C   0  0  0  0  0  0  0  0  0  0  0  0
    0.4167   12.6129    2.1149 C   0  0  0  0  0  0  0  0  0  0  0  0
  3  1  2  0
  3  2  1  0
  4  2  1  0
  6  1  1  0
  7  5  2  0
  8  2  1  0
  9  8  1  0
 10  6  1  0
 11  8  1  0
 11 10  2  0
 12  2  1  0
 12  4  1  0
 12  5  1  0
 12  9  1  0
M  RAD  1   8   2
M  END
>  <ID>  (1) 
conformer_0

$$$$
