
     RDKit          3D

 11 13  0  0  0  0  0  0  0  0999 V2000
    1.1936   14.2482   -0.7140 C   0  0  0  0  0  0  0  0  0  0  0  0
    0.0178   12.4634    0.3353 C   0  0  0  0  0  0  0  0  0  0  0  0
    0.9416   13.8046   -1.9005 C   0  0  0  0  0  0  0  0  0  0  0  0
    1.1542   13.7991    2.1869 S   0  0  0  0  0  0  0  0  0  0  0  0
   -0.4691   11.7311    1.4417 N   0  0  0  0  0  0  0  0  0  0  0  0
    0.3993   12.4947    2.2290 C   0  0  0  0  0  0  0  0  0  0  0  0
   -0.1986   11.6793    3.5391 C   0  0  0  0  0  0  0  0  0  0  0  0
    0.0348   12.6539   -1.9808 C   0  0  0  0  0  0  0  0  0  0  0  0
   -0.5083   12.0721   -0.9376 C   0  0  0  0  0  0  0  0  0  0  0  0
   -0.3670   11.2165    3.5128 O   0  0  0  0  0  0  0  0  0  0  0  0
    0.8588   13.5967    0.4434 C   0  0  0  0  0  3  0  0  0  0  0  0
  3  1  2  0
  5  2  1  0
  6  2  1  0
  6  4  1  0
  6  5  1  0
  7  6  1  0
  8  3  1  0
  9  2  1  0
  9  8  2  0
 10  7  2  0
 11  1  1  0
 11  2  1  0
 11  4  1  0
M  RAD  1  11   2
M  END
>  <ID>  (1) 
conformer_0

$$$$
