
     RDKit          3D

 10 11  0  0  0  0  0  0  0  0999 V2000
    0.9708   13.7254   -1.9910 C   0  0  0  0  0  0  0  0  0  0  0  0
    0.6096   12.7748    2.2368 C   0  0  0  0  0  0  0  0  0  0  0  0
    0.2194   12.4701   -2.1343 C   0  0  0  0  0  0  0  0  0  0  0  0
   -0.4391   11.6206    1.4943 N   0  0  0  0  0  0  0  0  0  0  0  0
   -0.2851   11.8738    3.4783 C   0  0  0  0  0  0  0  0  0  0  0  0
   -0.3783   12.0392   -1.0179 C   0  0  0  0  0  0  0  0  0  0  0  0
   -0.0714   12.4158    0.2189 C   0  0  0  0  0  0  0  0  0  0  0  0
    1.2858   13.9672    2.5042 S   0  0  0  0  0  0  0  0  0  0  0  0
    1.0018   14.1329   -0.7029 C   0  0  0  0  0  0  0  0  0  0  0  0
    0.8677   13.6562    0.4777 C   0  0  0  0  0  0  0  0  0  0  0  0
  3  1  2  0
  4  2  1  0
  5  2  1  0
  6  3  1  0
  7  4  1  0
  7  6  2  0
  8  2  1  0
  9  1  1  0
 10  7  1  0
 10  8  1  0
 10  9  2  0
M  END
>  <ID>  (1) 
conformer_0

$$$$
