
     RDKit          3D

 11 13  0  0  0  0  0  0  0  0999 V2000
    1.0704   14.3030   -0.7085 C   0  0  0  0  0  0  0  0  0  0  0  0
    0.5296   12.6934    2.2868 C   0  0  0  0  0  0  0  0  0  0  0  0
    0.9388   13.8832   -1.9564 C   0  0  0  0  0  0  0  0  0  0  0  0
   -0.4920   11.5781    1.6735 N   0  0  0  0  0  0  0  0  0  0  0  0
   -0.3170   11.5815    3.3864 C   0  0  0  0  0  0  0  0  0  0  0  0
    0.1076   12.6864   -2.0050 C   0  0  0  0  0  0  0  0  0  0  0  0
   -0.2694   10.2792    3.4797 O   0  0  0  0  0  0  0  0  0  0  0  0
    0.8357   13.7183    0.5565 C   0  0  0  0  0  0  0  0  0  0  0  0
    1.1574   13.8061    2.3938 S   0  0  0  0  0  0  0  0  0  0  0  0
    0.0076   12.4194    0.3831 C   0  0  0  0  0  0  0  0  0  0  0  0
   -0.4632   12.1657   -0.9099 C   0  0  0  0  0  0  0  0  0  0  0  0
  3  1  2  0
  4  2  1  0
  5  2  1  0
  5  4  1  0
  6  3  1  0
  7  5  1  0
  8  1  1  0
  9  2  1  0
  9  8  1  0
 10  4  1  0
 10  8  2  0
 11  6  2  0
 11 10  1  0
M  END
>  <ID>  (1) 
conformer_0

$$$$
