
     RDKit          3D

 14 15  0  0  0  0  0  0  0  0999 V2000
   62.0975   52.8245  107.7129 O   0  0  0  0  0  0  0  0  0  0  0  0
   62.8698   49.2429  111.0880 C   0  0  0  0  0  0  0  0  0  0  0  0
   63.7956   54.0101  110.9597 C   0  0  0  0  0  0  0  0  0  0  0  0
   64.1171   54.3149  107.8860 C   0  0  0  0  0  0  0  0  0  0  0  0
   62.7616   53.3367  109.9529 N   0  0  0  0  0  0  0  0  0  0  0  0
   63.5586   55.5265  111.1110 C   0  0  0  0  0  0  0  0  0  0  0  0
   62.7805   51.9243  110.2994 C   0  0  0  0  0  0  0  0  0  0  0  0
   64.5109   55.4200  108.9137 O   0  0  0  0  0  0  0  0  0  0  0  0
   63.2055   55.9397  109.5983 C   0  0  0  0  0  0  0  0  0  0  0  0
   63.9919   50.0481  111.2424 C   0  0  0  0  0  0  0  0  0  0  0  0
   61.6531   51.1067  110.1580 C   0  0  0  0  0  0  0  0  0  0  0  0
   63.9437   51.3831  110.8429 C   0  0  0  0  0  0  0  0  0  0  0  0
   62.9339   53.5193  108.4718 C   0  0  0  0  0  0  0  0  0  0  0  0
   61.7079   49.7336  110.5605 C   0  0  0  0  0  0  0  0  0  0  0  0
  1 13  2  0
  2 10  2  0
  2 14  1  0
  3  5  1  0
  3  6  1  0
  4  8  1  0
  4 13  1  0
  5  7  1  0
  5 13  1  0
  6  9  1  0
  7 11  1  0
  7 12  2  0
  8  9  1  0
 10 12  1  0
 11 14  2  0
M  END
>  <ID>  (1) 
conformer_0

$$$$
