
     RDKit          3D

 13 14  0  0  0  0  0  0  0  0999 V2000
   64.8322   52.6616  110.4660 N   0  0  0  0  0  0  0  0  0  0  0  0
   61.8944   50.7940  109.5716 C   0  0  0  0  0  0  0  0  0  0  0  0
   62.7713   51.8619  109.8159 C   0  0  0  0  0  0  0  0  0  0  0  0
   64.4243   55.1836  110.6106 S   0  0  0  0  0  0  0  0  0  0  0  0
   62.1272   49.5388  110.1374 C   0  0  0  0  0  0  0  0  0  0  0  0
   64.1930   53.7535  109.6447 C   0  0  0  0  0  0  0  0  0  0  0  0
   62.6705   53.3371  109.5288 C   0  0  0  0  0  0  0  0  0  0  0  0
   63.1999   49.3654  110.9685 C   0  0  0  0  0  0  0  0  0  0  0  0
   64.1246   50.4021  111.1651 C   0  0  0  0  0  0  0  0  0  0  0  0
   63.9265   51.6097  110.5098 C   0  0  0  0  0  0  0  0  0  0  0  0
   61.6264   52.9050  107.4341 O   0  0  0  0  0  0  0  0  0  0  0  0
   61.7788   53.7500  108.3936 C   0  0  0  0  0  0  0  0  0  0  0  0
   61.1180   54.8425  108.5822 O   0  0  0  0  0  0  0  0  0  0  0  0
  1  6  1  0
  1 10  1  0
  2  3  2  0
  2  5  1  0
  3  7  1  0
  3 10  1  0
  4  6  1  0
  5  8  2  0
  6  7  1  0
  7 12  1  0
  8  9  1  0
  9 10  2  0
 11 12  2  0
 12 13  1  0
M  END
>  <ID>  (1) 
conformer_0

$$$$
