
     RDKit          3D

 25 26  0  0  0  0  0  0  0  0999 V2000
   61.9503   55.7064  109.0850 C   0  0  0  0  0  0  0  0  0  0  0  0
   60.5299   55.6776  107.1576 O   0  0  0  0  0  0  0  0  0  0  0  0
   63.1532   53.3317  109.7640 C   0  0  0  0  0  0  0  0  0  0  0  0
   64.2154   55.6281  108.8758 O   0  0  0  0  0  0  0  0  0  0  0  0
   61.6959   52.4712  107.4378 O   0  0  0  0  0  0  0  0  0  0  0  0
   61.5086   51.2675  109.5511 C   0  0  0  0  0  0  0  0  0  0  0  0
   63.5292   54.3566  110.9155 O   0  0  0  0  0  0  0  0  0  0  0  0
   64.9250   59.0750  110.2869 O   0  0  0  0  0  1  0  0  0  0  0  0
   64.1700   57.6610  108.4285 C   0  0  0  0  0  0  0  0  0  0  0  0
   63.7293   57.0147  110.8299 C   0  0  0  0  0  0  0  0  0  0  0  0
   60.9272   50.3637  109.1432 O   0  0  0  0  0  0  0  0  0  0  0  0
   64.3015   53.0733  109.0352 O   0  0  0  0  0  0  0  0  0  0  0  0
   63.3115   51.0301  110.8576 C   0  0  0  0  0  0  0  0  0  0  0  0
   63.1161   56.4455  108.3427 C   0  0  0  0  0  0  0  0  0  0  0  0
   61.7170   49.2235  111.4349 O   0  0  0  0  0  0  0  0  0  0  0  0
   62.5254   51.9900  110.1471 P   0  0  0  0  0  0  0  0  0  0  0  0
   64.6264   51.2837  111.1102 N   0  0  0  0  0  0  0  0  0  0  0  0
   62.8593   49.6409  110.9847 C   0  0  0  0  0  0  0  0  0  0  0  0
   62.6846   59.0490  109.6158 O   0  0  0  0  0  0  0  0  0  0  0  0
   62.1844   54.2180  109.0267 C   0  0  0  0  0  0  0  0  0  0  0  0
   60.6717   56.1298  108.4684 C   0  0  0  0  0  0  0  0  0  0  0  0
   62.4711   56.9770  111.4227 O   0  0  0  0  0  0  0  0  0  0  0  0
   63.9218   58.2405  109.8278 P   0  0  0  0  0  4  0  0  0  0  0  0
   64.1555   55.5870  110.3275 C   0  0  0  0  0  0  0  0  0  0  0  0
   61.2394   53.4298  108.3159 O   0  0  0  0  0  0  0  0  0  0  0  0
  1 14  1  0
  1 20  1  0
  1 21  1  0
  2 21  1  0
  3  7  1  0
  3 12  1  0
  3 16  1  0
  3 20  1  0
  4 14  1  0
  4 24  1  0
  5 25  1  0
  6 11  1  0
  6 16  1  0
  7 24  1  0
  8 23  2  0
  9 14  1  0
  9 23  1  0
 10 22  1  0
 10 23  1  0
 10 24  1  0
 13 16  1  0
 13 17  1  0
 13 18  1  0
 15 18  1  0
 19 23  1  0
 20 25  1  0
M  END
>  <ID>  (1) 
conformer_0

$$$$
