
     RDKit          3D

 19 20  0  0  0  0  0  0  0  0999 V2000
   62.3926   50.3568  109.3571 C   0  0  0  0  0  0  0  0  0  0  0  0
   64.5443   54.7443  109.9994 C   0  0  0  0  0  0  0  0  0  0  0  0
   64.3425   55.5630  108.7789 C   0  0  0  0  0  0  0  0  0  0  0  0
   63.2001   55.0373  107.9029 C   0  0  0  0  0  0  0  0  0  0  0  0
   63.9042   56.9660  109.2494 C   0  0  0  0  0  0  0  0  0  0  0  0
   61.0073   51.8423  110.6353 O   0  0  0  0  0  0  0  0  0  0  0  0
   62.0301   52.8998  108.8085 C   0  0  0  0  0  0  0  0  0  0  0  0
   61.7833   52.3542  107.5198 O   0  0  0  0  0  0  0  0  0  0  0  0
   62.6595   49.2797  111.7182 C   0  0  0  0  0  0  0  0  0  0  0  0
   62.4541   56.7265  109.7612 C   0  0  0  0  0  0  0  0  0  0  0  0
   62.0258   54.4731  108.7345 C   0  0  0  0  0  0  0  0  0  0  0  0
   63.3201   52.2155  110.7412 C   0  0  0  0  0  0  0  0  0  0  0  0
   62.1640   51.7619  109.8537 C   0  0  0  0  0  0  0  0  0  0  0  0
   63.6673   53.6427  110.5872 C   0  0  0  0  0  0  0  0  0  0  0  0
   60.7378   54.8333  108.0631 O   0  0  0  0  0  0  0  0  0  0  0  0
   62.2045   49.2683  110.3023 C   0  0  0  0  0  0  0  0  0  0  0  0
   64.9838   55.5276  111.1287 O   0  0  0  0  0  0  0  0  0  0  0  0
   64.4819   51.4671  110.8772 F   0  0  0  0  0  0  0  0  0  0  0  0
   62.0161   55.2787  109.9807 N   0  0  0  0  0  0  0  0  0  0  0  0
  1 13  1  0
  1 16  1  0
  2  3  1  0
  2 14  1  0
  2 17  1  0
  3  4  1  0
  3  5  1  0
  4 11  1  0
  5 10  1  0
  6 13  1  0
  7  8  1  0
  7 11  1  0
  7 13  1  0
  9 16  1  0
 10 19  1  0
 11 15  1  0
 11 19  1  0
 12 13  1  0
 12 14  1  0
 12 18  1  0
M  END
>  <ID>  (1) 
conformer_0

$$$$
