
     RDKit          3D

 14 16  0  0  0  0  0  0  0  0999 V2000
   64.7844   55.2641  110.2731 C   0  0  0  0  0  0  0  0  0  0  0  0
   62.0062   53.3362  108.5899 C   0  0  0  0  0  0  0  0  0  0  0  0
   61.8889   51.9181  109.0208 C   0  0  0  0  0  0  0  0  0  0  0  0
   64.2464   56.2430  111.3182 C   0  0  0  0  0  0  0  0  0  0  0  0
   63.8771   55.1553  109.0982 C   0  0  0  0  0  0  0  0  0  0  0  0
   61.0828   53.8906  107.8916 N   0  0  0  0  0  0  0  0  0  0  0  0
   62.2046   49.5629  110.2186 C   0  0  0  0  0  0  0  0  0  0  0  0
   62.8360   51.8973  110.1814 C   0  0  0  0  0  0  0  0  0  0  0  0
   63.5811   53.1628  110.3367 C   0  0  0  0  0  0  0  0  0  0  0  0
   63.0610   50.6338  110.7925 C   0  0  0  0  0  0  0  0  0  0  0  0
   64.6481   53.9341  110.8505 N   0  0  0  0  0  0  0  0  0  0  0  0
   62.8919   54.0805  109.3971 N   0  0  0  0  0  0  0  0  0  0  0  0
   64.3660   50.5657  111.3008 O   0  0  0  0  0  0  0  0  0  0  0  0
   61.3663   50.2475  108.8913 S   0  0  0  0  0  0  0  0  0  0  0  0
  1  4  1  0
  1  5  1  0
  1 11  1  0
  2  3  1  0
  2  6  2  0
  2 12  1  0
  3  8  2  0
  3 14  1  0
  5 12  1  0
  7 10  1  0
  7 14  1  0
  8  9  1  0
  8 10  1  0
  9 11  2  0
  9 12  1  0
 10 13  1  0
M  END
>  <ID>  (1) 
conformer_0

$$$$
