
     RDKit          3D

 23 25  0  0  0  0  0  0  0  0999 V2000
   63.9635   55.6898  109.4327 C   0  0  0  0  0  0  0  0  0  0  0  0
   63.8480   50.2291  111.2387 C   0  0  0  0  0  0  0  0  0  0  0  0
   64.0619   52.7821  110.5117 N   0  0  0  0  0  0  0  0  0  0  0  0
   62.6292   56.1314  108.7937 C   0  0  0  0  0  0  0  0  0  0  0  0
   65.0566   56.1969  108.5029 C   0  0  0  0  0  0  0  0  0  0  0  0
   61.7556   55.1493  109.8126 C   0  0  0  0  0  0  0  0  0  0  0  0
   64.8816   56.0281  111.5562 O   0  0  0  0  0  0  0  0  0  0  0  0
   62.2836   53.8208  109.3652 C   0  0  0  0  0  0  0  0  0  0  0  0
   60.6719   55.3036  107.3947 O   0  0  0  0  0  0  0  0  0  0  0  0
   64.5736   56.4077  107.1014 O   0  0  0  0  0  0  0  0  0  0  0  0
   61.6987   50.0101  109.4898 C   0  0  0  0  0  0  0  0  0  0  0  0
   62.8363   57.0208  111.2767 O   0  0  0  0  0  0  0  0  0  0  0  0
   61.8065   48.9932  110.4714 C   0  0  0  0  0  0  0  0  0  0  0  0
   62.0159   55.6956  107.5035 O   0  0  0  0  0  0  0  0  0  0  0  0
   62.8374   49.1863  111.4745 C   0  0  0  0  0  0  0  0  0  0  0  0
   63.4554   51.4300  110.5856 C   0  0  0  0  0  0  0  0  0  0  0  0
   62.0963   52.3792  108.8815 C   0  0  0  0  0  0  0  0  0  0  0  0
   63.8268   54.0627  109.5823 C   0  0  0  0  0  0  0  0  0  0  0  0
   64.5619   53.6416  108.4233 O   0  0  0  0  0  0  0  0  0  0  0  0
   62.3664   51.2425  109.6853 N   0  0  0  0  0  0  0  0  0  0  0  0
   61.6488   52.1599  107.7203 O   0  0  0  0  0  0  0  0  0  0  0  0
   60.6098   55.8881  110.0157 O   0  0  0  0  0  0  0  0  0  0  0  0
   63.7804   56.1712  110.8753 C   0  0  0  0  0  0  0  0  0  0  0  0
  1  4  1  0
  1  5  1  0
  1 18  1  0
  1 23  1  0
  2 15  1  0
  2 16  1  0
  3 16  2  0
  3 18  1  0
  4  6  1  0
  4 14  1  0
  5 10  1  0
  6  8  1  0
  6 22  1  0
  7 23  2  0
  8 17  1  0
  8 18  1  0
  9 14  1  0
 11 13  2  0
 11 20  1  0
 12 23  1  0
 13 15  1  0
 16 20  1  0
 17 20  1  0
 17 21  2  0
 18 19  1  0
M  END
>  <ID>  (1) 
conformer_0

$$$$
