
     RDKit          3D

 29 31  0  0  0  0  0  0  0  0999 V2000
   59.7295   54.9365  107.7895 O   0  0  0  0  0  0  0  0  0  0  0  0
   62.8777   55.3666  109.6914 C   0  0  0  0  0  0  0  0  0  0  0  0
   62.3846   49.0210  111.3855 C   0  0  0  0  0  0  0  0  0  0  0  0
   61.5987   50.9333  108.5019 F   0  0  0  0  0  0  0  0  0  0  0  0
   60.7631   55.4357  108.4394 C   0  0  0  0  0  0  0  0  0  0  0  0
   64.8735   58.0676  107.0343 C   0  0  0  0  0  0  0  0  0  0  0  0
   63.3066   50.8555  110.5102 C   0  0  0  0  0  0  0  0  0  0  0  0
   63.8477   56.4522  110.0325 C   0  0  0  0  0  0  0  0  0  0  0  0
   60.9945   58.3452  110.7122 C   0  0  0  0  0  0  0  0  0  0  0  0
   62.0882   50.3717  109.6647 C   0  0  0  0  0  0  0  0  0  0  0  0
   65.1890   53.9293  109.5515 O   0  0  0  0  0  0  0  0  0  0  0  0
   59.6847   57.5069  108.2697 O   0  0  0  0  0  0  0  0  0  0  0  0
   62.8693   54.0170  110.3239 C   0  0  0  0  0  0  0  0  0  0  0  0
   64.5227   56.1143  111.2586 O   0  0  0  0  0  0  0  0  0  0  0  0
   61.5853   49.2824  110.2469 C   0  0  0  0  0  0  0  0  0  0  0  0
   61.7419   57.6188  109.4960 O   0  0  0  0  0  0  0  0  0  0  0  0
   61.7905   53.3325  109.7752 O   0  0  0  0  0  0  0  0  0  0  0  0
   64.2090   53.3108  110.1573 C   0  0  0  0  0  0  0  0  0  0  0  0
   63.4093   49.9369  111.4710 C   0  0  0  0  0  0  0  0  0  0  0  0
   62.2834   55.2500  108.2900 C   0  0  0  0  0  0  0  0  0  0  0  0
   60.7058   56.8977  108.8043 C   0  0  0  0  0  0  0  0  0  0  0  0
   63.9269   58.0306  108.1642 O   0  0  0  0  0  0  0  0  0  0  0  0
   63.7711   58.8677  109.3375 C   0  0  0  0  0  0  0  0  0  0  0  0
   63.0907   57.8095  110.2440 C   0  0  0  0  0  0  0  0  0  0  0  0
   64.2488   51.9437  110.3703 C   0  0  0  0  0  0  0  0  0  0  0  0
   64.7142   56.7732  108.8007 C   0  0  0  0  0  0  0  0  0  0  0  0
   65.1296   56.3992  107.3514 C   0  0  0  0  0  0  0  0  0  0  0  0
   65.0205   59.2206  109.8515 O   0  0  0  0  0  0  0  0  0  0  0  0
   62.3840   58.5437  111.3807 C   0  0  0  0  0  0  0  0  0  0  0  0
  1  5  1  0
  2  8  1  0
  2 13  1  0
  2 20  1  0
  3 15  1  0
  3 19  1  0
  4 10  1  0
  5 20  1  0
  5 21  1  0
  6 22  1  0
  6 27  1  0
  7 10  2  0
  7 19  1  0
  7 25  1  0
  8 14  1  0
  8 24  1  0
  8 26  1  0
  9 29  1  0
 10 15  1  0
 11 18  1  0
 12 21  2  0
 13 17  1  0
 13 18  1  0
 16 21  1  0
 16 24  1  0
 18 25  1  0
 22 23  1  0
 23 24  1  0
 23 28  1  0
 24 29  1  0
 26 27  1  0
M  END
>  <ID>  (1) 
conformer_0

$$$$
