
     RDKit          3D

 21 22  0  0  0  0  0  0  0  0999 V2000
   61.6907   53.3273  107.3525 C   0  0  0  0  0  0  0  0  0  0  0  0
   64.5027   53.6370  107.2605 C   0  0  0  0  0  0  0  0  0  0  0  0
   61.5105   49.0735  111.3648 C   0  0  0  0  0  0  0  0  0  0  0  0
   64.5372   53.9675  109.6790 C   0  0  0  0  0  0  0  0  0  0  0  0
   62.3719   53.6528  108.6570 C   0  0  0  0  0  0  0  0  0  0  0  0
   63.4627   55.7172  107.6743 C   0  0  0  0  0  0  0  0  0  0  0  0
   63.8417   58.5752  110.6999 C   0  0  0  0  0  0  0  0  0  0  0  0
   62.6831   52.4934  109.5292 C   0  0  0  0  0  0  0  0  0  0  0  0
   62.9398   49.2846  111.4005 C   0  0  0  0  0  0  0  0  0  0  0  0
   64.8494   55.1794  110.3975 N   0  0  0  0  0  0  0  0  0  0  0  0
   63.9627   52.6577  110.1686 N   0  0  0  0  0  0  0  0  0  0  0  0
   63.7271   54.3513  108.4035 C   0  0  0  0  0  0  0  0  0  0  0  0
   62.4551   55.9149  110.3500 O   0  0  0  0  0  0  0  0  0  0  0  0
   64.9735   58.4935  109.7637 O   0  0  0  0  0  0  0  0  0  0  0  0
   63.8126   56.1840  110.4494 C   0  0  0  0  0  0  0  0  0  0  0  0
   64.1189   51.4948  110.9870 C   0  0  0  0  0  0  0  0  0  0  0  0
   64.0130   57.2547  111.5468 C   0  0  0  0  0  0  0  0  0  0  0  0
   62.2421   51.1536  109.7587 C   0  0  0  0  0  0  0  0  0  0  0  0
   63.1228   50.5537  110.7259 C   0  0  0  0  0  0  0  0  0  0  0  0
   60.4385   53.9109  107.2513 O   0  0  0  0  0  0  0  0  0  0  0  0
   61.5015   50.3710  108.7976 C   0  0  0  0  0  0  0  0  0  0  0  0
  1  5  1  0
  1 20  1  0
  2 12  1  0
  3  9  1  0
  4 10  1  0
  4 11  1  0
  4 12  1  0
  5  8  1  0
  5 12  1  0
  6 12  1  0
  7 14  1  0
  7 17  1  0
  8 11  1  0
  8 18  1  0
  9 19  1  0
 10 15  1  0
 11 16  1  0
 13 15  2  0
 15 17  1  0
 16 19  1  0
 18 19  1  0
 18 21  1  0
M  END
>  <ID>  (1) 
conformer_0

$$$$
