
     RDKit          3D

 28 30  0  0  0  0  0  0  0  0999 V2000
   63.8278   51.8580  110.6069 C   0  0  0  0  0  0  0  0  0  0  0  0
   62.1829   57.5000  110.3402 C   0  0  0  0  0  0  0  0  0  0  0  0
   60.1736   57.7652  109.2002 C   0  0  0  0  0  0  0  0  0  0  0  0
   59.6916   58.3710  110.5164 C   0  0  0  0  0  0  0  0  0  0  0  0
   63.9929   57.6426  111.8665 C   0  0  0  0  0  0  0  0  0  0  0  0
   61.3518   57.0066  109.3822 N   0  0  0  0  0  0  0  0  0  0  0  0
   64.1677   55.1018  109.0504 N   0  0  0  0  0  0  0  0  0  0  0  0
   62.1330   50.7973  109.1171 C   0  0  0  0  0  0  0  0  0  0  0  0
   62.3203   55.9619  107.6206 O   0  0  0  0  0  0  0  0  0  0  0  0
   64.1558   50.8412  111.4048 C   0  0  0  0  0  0  0  0  0  0  0  0
   61.2777   53.5284  109.2277 O   0  0  0  0  0  0  0  0  0  0  0  0
   65.5714   55.2963  108.5178 C   0  0  0  0  0  0  0  0  0  0  0  0
   64.0535   55.6550  110.3523 C   0  0  0  0  0  0  0  0  0  0  0  0
   59.3530   58.6956  109.2677 O   0  0  0  0  0  0  0  0  0  0  0  0
   63.6646   53.8550  108.4402 C   0  0  0  0  0  0  0  0  0  0  0  0
   62.0298   58.7944  111.0110 C   0  0  0  0  0  0  0  0  0  0  0  0
   62.6217   49.0336  110.7511 C   0  0  0  0  0  0  0  0  0  0  0  0
   61.4998   50.9430  107.9425 O   0  0  0  0  0  0  0  0  0  0  0  0
   64.8493   55.1841  111.2755 O   0  0  0  0  0  0  0  0  0  0  0  0
   60.6668   49.8025  107.6814 C   0  0  0  0  0  0  0  0  0  0  0  0
   62.8571   51.8642  109.6354 C   0  0  0  0  0  0  0  0  0  0  0  0
   62.8800   58.6463  112.2712 C   0  0  0  0  0  0  0  0  0  0  0  0
   61.9996   49.5386  109.6397 C   0  0  0  0  0  0  0  0  0  0  0  0
   63.5687   49.6306  111.4327 C   0  0  0  0  0  0  0  0  0  0  0  0
   62.1654   56.0022  108.9100 C   0  0  0  0  0  0  0  0  0  0  0  0
   62.5289   53.1704  109.0300 C   0  0  0  0  0  0  0  0  0  0  0  0
   63.5480   56.9983  110.5967 C   0  0  0  0  0  0  0  0  0  0  0  0
   60.6601   59.3538  111.0603 C   0  0  0  0  0  0  0  0  0  0  0  0
  1 10  2  0
  1 21  1  0
  2  6  1  0
  2 16  1  0
  2 27  1  0
  3  6  1  0
  3 14  1  0
  4 14  1  0
  4 28  1  0
  5 22  1  0
  5 27  1  0
  6 25  1  0
  7 12  1  0
  7 13  1  0
  7 15  1  0
  8 18  1  0
  8 21  1  0
  8 23  2  0
  9 25  1  0
 10 24  1  0
 11 26  1  0
 13 19  2  0
 13 27  1  0
 15 26  1  0
 16 22  1  0
 16 28  1  0
 17 23  1  0
 17 24  2  0
 18 20  1  0
 21 26  1  0
M  END
>  <ID>  (1) 
conformer_0

$$$$
