
     RDKit          3D

 14 14  0  0  0  0  0  0  0  0999 V2000
   64.4541   54.5740  110.1239 C   0  0  0  0  0  0  0  0  0  0  0  0
   62.3897   55.5020  109.2092 C   0  0  0  0  0  0  0  0  0  0  0  0
   62.6792   49.3537  110.8581 C   0  0  0  0  0  0  0  0  0  0  0  0
   61.7247   49.6963  109.9401 C   0  0  0  0  0  0  0  0  0  0  0  0
   64.7883   55.2886  111.2021 N   0  0  0  0  0  0  0  0  0  0  0  0
   63.6877   50.2370  111.2049 C   0  0  0  0  0  0  0  0  0  0  0  0
   65.3981   53.9094  109.4875 N   0  0  0  0  0  0  0  0  0  0  0  0
   63.7227   51.4735  110.5914 C   0  0  0  0  0  0  0  0  0  0  0  0
   62.7825   51.8785  109.6586 C   0  0  0  0  0  0  0  0  0  0  0  0
   63.0691   54.3370  109.8996 N   0  0  0  0  0  0  0  0  0  0  0  0
   61.4157   52.4939  107.2140 O   0  0  0  0  0  0  0  0  0  0  0  0
   61.9580   53.4958  107.8807 C   0  0  0  0  0  0  0  0  0  0  0  0
   62.8587   53.1718  109.0138 C   0  0  0  0  0  0  0  0  0  0  0  0
   61.7647   50.9545  109.3530 C   0  0  0  0  0  0  0  0  0  0  0  0
  1  5  2  0
  1  7  1  0
  1 10  1  0
  2 10  1  0
  3  4  2  0
  3  6  1  0
  4 14  1  0
  6  8  2  0
  8  9  1  0
  9 13  1  0
  9 14  2  0
 10 13  1  0
 11 12  1  0
 12 13  1  0
M  END
>  <ID>  (1) 
conformer_0

$$$$
