
     RDKit          3D

 23 25  0  0  0  0  0  0  0  0999 V2000
   64.1331   56.5294  110.9757 N   0  0  0  0  0  0  0  0  0  0  0  0
   64.2729   51.7066  111.0457 N   0  0  0  0  0  0  0  0  0  0  0  0
   61.3781   50.0198  109.3018 C   0  0  0  0  0  0  0  0  0  0  0  0
   63.3051   57.6972  111.1734 C   0  0  0  0  0  0  0  0  0  0  0  0
   61.6924   52.7306  108.6839 N   0  0  0  0  0  0  0  0  0  0  0  0
   64.4209   54.1255  110.5309 C   0  0  0  0  0  0  0  0  0  0  0  0
   62.6328   52.1720  109.5703 C   0  0  0  0  0  0  0  0  0  0  0  0
   63.4765   53.9037  107.3352 O   0  0  0  0  0  1  0  0  0  0  0  0
   62.1982   54.2685  108.1225 S   0  0  0  0  0  4  0  0  0  0  0  0
   60.8918   54.8332  107.5440 O   0  0  0  0  0  1  0  0  0  0  0  0
   63.8096   58.5111  108.7356 C   0  0  0  0  0  0  0  0  0  0  0  0
   61.1297   50.1586  108.0620 O   0  0  0  0  0  0  0  0  0  0  0  0
   62.6947   55.5708  109.2676 C   0  0  0  0  0  0  0  0  0  0  0  0
   63.9838   59.6582  109.8800 C   0  0  0  0  0  0  0  0  0  0  0  0
   63.9066   58.9463  111.2102 N   0  0  0  0  0  0  0  0  0  0  0  0
   63.7519   52.7378  110.3009 C   0  0  0  0  0  0  0  0  0  0  0  0
   63.4294   55.2763  110.6068 C   0  0  0  0  0  0  0  0  0  0  0  0
   60.7643   49.3082  110.1015 O   0  0  0  0  0  0  0  0  0  0  0  0
   63.3650   56.9223  108.4516 C   0  0  0  0  0  0  0  0  0  0  0  0
   62.4805   50.8385  109.8882 C   0  0  0  0  0  0  0  0  0  0  0  0
   62.0734   57.5558  111.2942 O   0  0  0  0  0  0  0  0  0  0  0  0
   63.5615   49.3371  111.6166 C   0  0  0  0  0  0  0  0  0  0  0  0
   63.4833   50.6032  110.8601 C   0  0  0  0  0  0  0  0  0  0  0  0
  1  4  1  0
  1 17  1  0
  2 16  1  0
  2 23  1  0
  3 12  2  0
  3 18  1  0
  3 20  1  0
  4 15  1  0
  4 21  2  0
  5  7  1  0
  5  9  1  0
  6 16  1  0
  6 17  1  0
  7 16  2  0
  7 20  1  0
  8  9  1  0
  9 10  1  0
  9 13  1  0
 11 14  1  0
 11 19  2  0
 13 17  1  0
 13 19  1  0
 14 15  1  0
 20 23  2  0
 22 23  1  0
M  END
>  <ID>  (1) 
conformer_0

$$$$
