
     RDKit          3D

 30 32  0  0  0  0  0  0  0  0999 V2000
   64.5221   60.1407  109.2012 C   0  0  0  0  0  0  0  0  0  0  0  0
   64.9203   55.2390  109.4701 C   0  0  0  0  0  0  0  0  0  0  0  0
   60.4361   55.8860  107.4664 C   0  0  0  0  0  0  0  0  0  0  0  0
   65.0219   56.1349  107.0061 O   0  0  0  0  0  0  0  0  0  0  0  0
   58.3375   56.1016  108.4382 C   0  0  0  0  0  0  0  0  0  0  0  0
   60.4376   51.8854  110.5303 O   0  0  0  0  0  0  0  0  0  0  0  0
   64.5061   53.3975  107.9321 O   0  0  0  0  0  0  0  0  0  0  0  0
   64.0405   56.1342  110.3954 C   0  0  0  0  0  0  0  0  0  0  0  0
   61.9966   50.0143  109.7082 C   0  0  0  0  0  0  0  0  0  0  0  0
   62.9549   49.2012  110.6071 C   0  0  0  0  0  0  0  0  0  0  0  0
   61.6361   51.2914  110.4810 C   0  0  0  0  0  0  0  0  0  0  0  0
   62.7381   52.2518  110.4476 C   0  0  0  0  0  0  0  0  0  0  0  0
   63.9915   56.7301  107.7702 C   0  0  0  0  0  0  0  0  0  0  0  0
   64.1290   57.6057  110.0372 C   0  0  0  0  0  0  0  0  0  0  0  0
   61.9833   48.7743  111.7286 C   0  0  0  0  0  0  0  0  0  0  0  0
   64.1136   51.4838  110.5406 C   0  0  0  0  0  0  0  0  0  0  0  0
   64.9348   58.1324  110.9455 O   0  0  0  0  0  0  0  0  0  0  0  0
   61.6057   56.7268  107.3475 O   0  0  0  0  0  0  0  0  0  0  0  0
   63.9159   50.1899  111.2243 C   0  0  0  0  0  0  0  0  0  0  0  0
   58.2166   55.4284  107.2040 O   0  0  0  0  0  0  0  0  0  0  0  0
   61.6949   53.6350  107.9631 C   0  0  0  0  0  0  0  0  0  0  0  0
   59.9131   54.9964  109.7614 F   0  0  0  0  0  0  0  0  0  0  0  0
   59.8086   56.1577  108.8433 C   0  0  0  0  0  0  0  0  0  0  0  0
   64.8059   52.8808  110.5129 O   0  0  0  0  0  0  0  0  0  0  0  0
   62.6682   56.2502  108.1994 C   0  0  0  0  0  0  0  0  0  0  0  0
   64.4045   59.1544  108.0922 C   0  0  0  0  0  0  0  0  0  0  0  0
   64.5294   57.8079  108.6222 C   0  0  0  0  0  0  0  0  0  0  0  0
   62.6084   54.7689  108.2779 C   0  0  0  0  0  0  0  0  0  0  0  0
   63.4712   53.6293  110.2525 C   0  0  0  0  0  0  0  0  0  0  0  0
   63.8996   54.2679  108.8673 C   0  0  0  0  0  0  0  0  0  0  0  0
  1 26  1  0
  2  8  1  0
  2 30  1  0
  3 18  1  0
  3 23  1  0
  4 13  1  0
  5 20  1  0
  5 23  1  0
  6 11  1  0
  7 30  1  0
  8 14  1  0
  9 10  1  0
  9 11  1  0
 10 15  1  0
 10 19  1  0
 11 12  1  0
 12 16  1  0
 12 29  1  0
 13 25  1  0
 13 27  1  0
 14 17  1  0
 14 27  1  0
 16 19  1  0
 16 24  1  0
 18 25  1  0
 21 28  1  0
 22 23  1  0
 24 29  1  0
 25 28  1  0
 26 27  1  0
 28 30  1  0
 29 30  1  0
M  END
>  <ID>  (1) 
conformer_0

$$$$
