
     RDKit          3D

 20 21  0  0  0  0  0  0  0  0999 V2000
   63.5805   53.9143  109.1316 C   0  0  0  0  0  0  0  0  0  0  0  0
   60.3356   54.5791  107.7738 O   0  0  0  0  0  0  0  0  0  0  0  0
   64.0443   50.1691  111.8213 C   0  0  0  0  0  0  0  0  0  0  0  0
   62.2637   48.9557  110.6705 C   0  0  0  0  0  0  0  0  0  0  0  0
   63.1796   49.0471  111.6661 C   0  0  0  0  0  0  0  0  0  0  0  0
   63.9367   51.2763  111.0191 C   0  0  0  0  0  0  0  0  0  0  0  0
   62.3717   51.9263  109.1188 N   0  0  0  0  0  0  0  0  0  0  0  0
   61.8626   56.5873  108.1043 O   0  0  0  0  0  0  0  0  0  0  0  0
   61.9822   55.7193  109.1485 C   0  0  0  0  0  0  0  0  0  0  0  0
   65.9135   54.8852  109.7599 N   0  0  0  0  0  0  0  0  0  0  0  0
   61.6814   50.6929  108.8103 C   0  0  0  0  0  0  0  0  0  0  0  0
   63.4459   55.3475  109.5289 C   0  0  0  0  0  0  0  0  0  0  0  0
   61.8997   49.6371  109.7092 C   0  0  0  0  0  3  0  0  0  0  0  0
   63.5165   55.5856  111.0036 O   0  0  0  0  0  0  0  0  0  0  0  0
   64.9493   55.8600  109.1856 C   0  0  0  0  0  0  0  0  0  0  0  0
   63.2273   51.7092  110.0624 C   0  0  0  0  0  0  0  0  0  0  0  0
   61.0290   50.5904  107.7980 O   0  0  0  0  0  0  0  0  0  0  0  0
   61.2053   54.4070  108.8595 C   0  0  0  0  0  0  0  0  0  0  0  0
   64.3999   53.6316  108.0071 O   0  0  0  0  0  0  0  0  0  0  0  0
   62.1920   53.3153  108.7258 C   0  0  0  0  0  0  0  0  0  0  0  0
  1 12  1  0
  1 19  1  0
  1 20  1  0
  2 18  1  0
  3  5  1  0
  3  6  2  0
  4  5  1  0
  4 13  2  0
  6 16  1  0
  7 11  1  0
  7 16  1  0
  7 20  1  0
  8  9  1  0
  9 12  1  0
  9 18  1  0
 10 15  1  0
 11 13  1  0
 11 17  2  0
 12 14  1  0
 12 15  1  0
 18 20  1  0
M  END
>  <ID>  (1) 
conformer_0

$$$$
