
     RDKit          3D

 27 29  0  0  0  0  0  0  0  0999 V2000
   62.0360   56.7302  107.8311 C   0  0  0  0  0  0  0  0  0  0  0  0
   60.7206   59.4553  109.8478 O   0  0  0  0  0  0  0  0  0  0  0  0
   61.8040   50.2318  108.4311 O   0  0  0  0  0  0  0  0  0  0  0  0
   61.1202   49.3351  110.3673 C   0  0  0  0  0  0  0  0  0  0  0  0
   65.1704   51.5798  110.4445 O   0  0  0  0  0  0  0  0  0  0  0  0
   63.9785   51.7905  110.8304 C   0  0  0  0  0  0  0  0  0  0  0  0
   59.5706   57.5619  108.4357 C   0  0  0  0  0  0  0  0  0  0  0  0
   62.7713   48.4732  111.8905 C   0  0  0  0  0  0  0  0  0  0  0  0
   62.4498   52.9098  109.0220 C   0  0  0  0  0  0  0  0  0  0  0  0
   63.4881   53.7739  109.7118 C   0  0  0  0  0  0  0  0  0  0  0  0
   63.6948   49.4371  111.3198 C   0  0  0  0  0  0  0  0  0  0  0  0
   61.3661   48.8948  111.7253 C   0  0  0  0  0  0  0  0  0  0  0  0
   62.0119   50.4455  109.8333 C   0  0  0  0  0  0  0  0  0  0  0  0
   64.1723   57.4735  110.4544 C   0  0  0  0  0  0  0  0  0  0  0  0
   63.2862   58.2852  109.4738 C   0  0  0  0  0  0  0  0  0  0  0  0
   61.8393   53.2716  107.8977 O   0  0  0  0  0  0  0  0  0  0  0  0
   60.2091   57.3513  110.6953 O   0  0  0  0  0  0  0  0  0  0  0  0
   63.1526   55.2786  109.5761 C   0  0  0  0  0  0  0  0  0  0  0  0
   60.6165   58.0501  109.5299 C   0  0  0  0  0  0  0  0  0  0  0  0
   61.7057   51.9416  109.8496 C   0  0  0  0  0  0  0  0  0  0  0  0
   63.0540   55.5738  108.0014 C   0  0  0  0  0  0  0  0  0  0  0  0
   62.0434   57.5913  109.0785 C   0  0  0  0  0  0  0  0  0  0  0  0
   63.5506   53.1143  111.0885 N   0  0  0  0  0  0  0  0  0  0  0  0
   64.9566   53.8569  109.3475 C   0  0  0  0  0  0  0  0  0  0  0  0
   64.3033   56.1280  109.9404 O   0  0  0  0  0  0  0  0  0  0  0  0
   63.0641   50.6595  110.8542 C   0  0  0  0  0  0  0  0  0  0  0  0
   63.7394   59.5215  109.2985 O   0  0  0  0  0  0  0  0  0  0  0  0
  1 21  1  0
  1 22  1  0
  2 19  1  0
  3 13  1  0
  4 12  1  0
  4 13  1  0
  5  6  2  0
  6 23  1  0
  6 26  1  0
  7 19  1  0
  8 11  1  0
  8 12  1  0
  9 10  1  0
  9 16  1  0
  9 20  1  0
 10 18  1  0
 10 23  1  0
 10 24  1  0
 11 26  1  0
 13 20  1  0
 13 26  1  0
 14 15  1  0
 14 25  1  0
 15 22  1  0
 15 27  1  0
 17 19  1  0
 18 21  1  0
 18 25  1  0
 19 22  1  0
M  END
>  <ID>  (1) 
conformer_0

$$$$
