
     RDKit          3D

 19 21  0  0  0  0  0  0  0  0999 V2000
   63.5343   55.4054  111.0923 C   0  0  0  0  0  0  0  0  0  0  0  0
   61.4151   51.5719  108.6851 N   0  0  0  0  0  0  0  0  0  0  0  0
   64.5743   56.9006  108.6679 C   0  0  0  0  0  0  0  0  0  0  0  0
   63.1365   51.6936  110.1669 C   0  0  0  0  0  0  0  0  0  0  0  0
   61.7209   53.4323  107.5253 O   0  0  0  0  0  0  0  0  0  0  0  0
   62.0099   49.5865  110.0276 C   0  0  0  0  0  0  0  0  0  0  0  0
   64.4652   56.6115  111.2158 C   0  0  0  0  0  0  0  0  0  0  0  0
   60.8236   50.7762  107.6789 C   0  0  0  0  0  0  0  0  0  0  0  0
   64.1242   57.5626  110.0011 C   0  0  0  0  0  0  0  0  0  0  0  0
   63.1143   53.0341  109.5641 C   0  0  0  0  0  0  0  0  0  0  0  0
   63.8269   54.4123  108.9463 C   0  0  0  0  0  0  0  0  0  0  0  0
   61.9265   52.8492  108.5984 C   0  0  0  0  0  0  0  0  0  0  0  0
   60.5317   49.4778  107.9463 O   0  0  0  0  0  0  0  0  0  0  0  0
   63.9853   51.1699  111.1586 C   0  0  0  0  0  0  0  0  0  0  0  0
   62.1717   50.8791  109.6270 C   0  0  0  0  0  0  0  0  0  0  0  0
   63.7882   49.8676  111.6041 C   0  0  0  0  0  0  0  0  0  0  0  0
   65.0188   55.4154  108.9782 N   0  0  0  0  0  0  0  0  0  0  0  0
   62.7984   49.0992  111.0612 C   0  0  0  0  0  0  0  0  0  0  0  0
   62.8175   55.3646  109.7180 N   0  0  0  0  0  0  0  0  0  0  0  0
  1  7  1  0
  1 19  1  0
  2  8  1  0
  2 12  1  0
  2 15  1  0
  3  9  1  0
  3 17  1  0
  4 10  1  0
  4 14  2  0
  4 15  1  0
  5 12  2  0
  6 15  2  0
  6 18  1  0
  7  9  1  0
  8 13  1  0
 10 11  1  0
 10 12  1  0
 11 17  1  0
 11 19  1  0
 14 16  1  0
 16 18  2  0
M  END
>  <ID>  (1) 
conformer_0

$$$$
