
     RDKit          3D

 21 23  0  0  0  0  0  0  0  0999 V2000
   61.2099   54.3747  108.6071 C   0  0  0  0  0  0  0  0  0  0  0  0
   63.3080   54.4142  110.0667 C   0  0  0  0  0  0  0  0  0  0  0  0
   63.6945   52.9742  110.2986 C   0  0  0  0  0  0  0  0  0  0  0  0
   59.1446   56.2561  109.9924 O   0  0  0  0  0  0  0  0  0  0  0  0
   64.2241   56.4764  109.0753 C   0  0  0  0  0  0  0  0  0  0  0  0
   61.7406   49.7653  109.5831 C   0  0  0  0  0  0  0  0  0  0  0  0
   61.9065   57.0218  108.4310 N   0  0  0  0  0  0  0  0  0  0  0  0
   63.2111   49.4613  111.4674 C   0  0  0  0  0  0  0  0  0  0  0  0
   62.2817   51.0290  109.4217 C   0  0  0  0  0  0  0  0  0  0  0  0
   63.2094   51.5399  110.3317 C   0  0  0  0  0  0  0  0  0  0  0  0
   62.2677   48.9646  110.6098 C   0  0  0  0  0  0  0  0  0  0  0  0
   60.4258   55.2551  107.7516 C   0  0  0  0  0  0  0  0  0  0  0  0
   63.6894   50.7346  111.3274 C   0  0  0  0  0  0  0  0  0  0  0  0
   59.4684   57.2426  108.9519 C   0  0  0  0  0  0  0  0  0  0  0  0
   65.1683   55.4626  111.1113 O   0  0  0  0  0  0  0  0  0  0  0  0
   65.0563   52.8092  109.7281 O   0  0  0  0  0  0  0  0  0  0  0  0
   64.7097   55.2349  109.8114 C   0  0  0  0  0  0  0  0  0  0  0  0
   61.8445   51.6695  108.3403 F   0  0  0  0  0  0  0  0  0  0  0  0
   62.5998   54.7196  108.7818 C   0  0  0  0  0  0  0  0  0  0  0  0
   62.9736   56.0353  108.2485 C   0  0  0  0  0  0  0  0  0  0  0  0
   60.5697   56.6859  108.0497 C   0  0  0  0  0  0  0  0  0  0  0  0
  1 12  1  0
  1 19  1  0
  2  3  1  0
  2 17  1  0
  2 19  1  0
  3 10  1  0
  3 16  1  0
  4 14  1  0
  5 17  1  0
  5 20  1  0
  6  9  2  0
  6 11  1  0
  7 20  1  0
  7 21  1  0
  8 11  2  0
  8 13  1  0
  9 10  1  0
  9 18  1  0
 10 13  2  0
 12 21  1  0
 14 21  1  0
 15 17  1  0
 19 20  1  0
M  END
>  <ID>  (1) 
conformer_0

$$$$
