
     RDKit          3D

 21 23  0  0  0  0  0  0  0  0999 V2000
   60.5859   55.8907  109.6670 O   0  0  0  0  0  1  0  0  0  0  0  0
   63.4594   53.9469  108.9858 C   0  0  0  0  0  0  0  0  0  0  0  0
   61.7599   49.4901  109.9914 C   0  0  0  0  0  0  0  0  0  0  0  0
   63.8011   51.1589  110.7391 C   0  0  0  0  0  0  0  0  0  0  0  0
   62.7241   51.7145  110.0340 C   0  0  0  0  0  0  0  0  0  0  0  0
   64.6174   54.5587  109.8950 C   0  0  0  0  0  0  0  0  0  0  0  0
   62.9983   56.0294  110.8721 C   0  0  0  0  0  0  0  0  0  0  0  0
   60.2498   55.3234  107.3885 O   0  0  0  0  0  1  0  0  0  0  0  0
   62.5165   56.4391  108.2030 C   0  0  0  0  0  0  0  0  0  0  0  0
   64.8197   51.9103  111.0072 F   0  0  0  0  0  0  0  0  0  0  0  0
   62.7612   49.0377  110.8133 C   0  0  0  0  0  0  0  0  0  0  0  0
   61.7533   50.8202  109.6200 C   0  0  0  0  0  0  0  0  0  0  0  0
   64.1849   53.5280  107.8232 O   0  0  0  0  0  0  0  0  0  0  0  0
   61.2881   55.3402  108.4531 S   0  0  0  0  0  4  0  0  0  0  0  0
   63.8004   49.8744  111.1928 C   0  0  0  0  0  0  0  0  0  0  0  0
   61.6546   53.0582  107.6202 O   0  0  0  0  0  0  0  0  0  0  0  0
   63.3742   56.5670  109.5150 C   0  0  0  0  0  0  0  0  0  0  0  0
   64.7428   56.0146  109.3247 C   0  0  0  0  0  0  0  0  0  0  0  0
   61.9711   53.8712  108.6845 C   0  0  0  0  0  0  0  0  0  0  0  0
   63.8486   54.8589  111.1604 O   0  0  0  0  0  0  0  0  0  0  0  0
   62.5699   53.1703  109.8542 C   0  0  0  0  0  0  0  0  0  0  0  0
  1 14  1  0
  2  6  1  0
  2 13  1  0
  2 21  1  0
  3 11  1  0
  3 12  2  0
  4  5  1  0
  4 10  1  0
  4 15  2  0
  5 12  1  0
  5 21  1  0
  6 18  1  0
  6 20  1  0
  7 17  1  0
  7 20  1  0
  8 14  1  0
  9 14  1  0
  9 17  1  0
 11 15  1  0
 14 19  1  0
 16 19  2  0
 17 18  1  0
 19 21  1  0
M  END
>  <ID>  (1) 
conformer_0

$$$$
