
     RDKit          3D

 12 13  0  0  0  0  0  0  0  0999 V2000
   62.2594   52.1296  109.3577 N   0  0  0  0  0  0  0  0  0  0  0  0
   64.0211   55.1984  110.1828 C   0  0  0  0  0  0  0  0  0  0  0  0
   62.9902   50.2267  110.6257 N   0  0  0  0  0  0  0  0  0  0  0  0
   63.2136   54.1958  109.5761 N   0  0  0  0  0  0  0  0  0  0  0  0
   62.0456   50.8056  109.7726 C   0  0  0  0  0  0  0  0  0  0  0  0
   61.8007   52.9528  108.2807 C   0  0  0  0  0  0  0  0  0  0  0  0
   60.9710   50.1953  109.5188 O   0  0  0  0  0  0  0  0  0  0  0  0
   64.1162   50.8668  111.0404 C   0  0  0  0  0  0  0  0  0  0  0  0
   62.3078   54.3260  108.4889 C   0  0  0  0  0  0  0  0  0  0  0  0
   64.3800   52.1716  110.6223 C   0  0  0  0  0  0  0  0  0  0  0  0
   65.2717   54.7618  110.7366 N   0  0  0  0  0  0  0  0  0  0  0  0
   63.3010   52.8727  110.0032 C   0  0  0  0  0  0  0  0  0  0  0  0
  1  5  1  0
  1  6  1  0
  1 12  1  0
  2  4  1  0
  2 11  1  0
  3  5  1  0
  3  8  2  0
  4  9  1  0
  4 12  1  0
  5  7  2  0
  6  9  1  0
  8 10  1  0
 10 12  1  0
M  END
>  <ID>  (1) 
conformer_0

$$$$
