
     RDKit          3D

 19 22  0  0  0  0  0  0  0  0999 V2000
   63.5355   49.9776  111.2092 C   0  0  0  0  0  0  0  0  0  0  0  0
   61.7331   49.4456  109.6759 C   0  0  0  0  0  0  0  0  0  0  0  0
   62.0466   54.3916  109.0296 C   0  0  0  0  0  0  0  0  0  0  0  0
   62.6817   53.0890  109.5870 C   0  0  0  0  0  0  0  0  0  0  0  0
   64.5415   52.2770  110.9710 C   0  0  0  0  0  0  0  0  0  0  0  0
   60.9034   55.3488  108.4350 C   0  0  0  0  0  0  0  0  0  0  0  0
   62.5968   49.0903  110.7155 C   0  0  0  0  0  0  0  0  0  0  0  0
   62.9369   55.4349  109.6633 N   0  0  0  0  0  0  0  0  0  0  0  0
   61.5048   56.6684  107.9291 C   0  0  0  0  0  0  0  0  0  0  0  0
   63.8769   53.5291  110.4744 C   0  0  0  0  0  0  0  0  0  0  0  0
   61.0095   51.0933  108.1056 C   0  0  0  0  0  0  0  0  0  0  0  0
   63.6056   51.2420  110.6648 C   0  0  0  0  0  0  0  0  0  0  0  0
   64.3576   55.5736  109.2060 C   0  0  0  0  0  0  0  0  0  0  0  0
   64.1726   57.0614  108.5047 C   0  0  0  0  0  0  0  0  0  0  0  0
   61.8092   50.7229  109.2012 C   0  0  0  0  0  0  0  0  0  0  0  0
   62.6501   51.6439  109.7644 C   0  0  0  0  0  0  0  0  0  0  0  0
   64.8201   54.1753  109.5899 N   0  0  0  0  0  0  0  0  0  0  0  0
   59.9548   54.7857  107.8502 O   0  0  0  0  0  0  0  0  0  0  0  0
   62.9976   56.7852  107.4263 C   0  0  0  0  0  0  0  0  0  0  0  0
  1  7  2  0
  1 12  1  0
  2  7  1  0
  2 15  2  0
  3  4  1  0
  3  6  1  0
  3  8  1  0
  4 10  1  0
  4 16  1  0
  5 10  1  0
  5 12  1  0
  6  9  1  0
  6 18  2  0
  8 13  2  0
  9 19  1  0
 10 17  1  0
 11 15  1  0
 12 16  2  0
 13 14  1  0
 13 17  1  0
 14 19  1  0
 15 16  1  0
M  END
>  <ID>  (1) 
conformer_0

$$$$
