
     RDKit          3D

 13 13  0  0  0  0  0  0  0  0999 V2000
   62.2138   52.5264  108.1770 O   0  0  0  0  0  0  0  0  0  0  0  0
   63.6657   50.0476  111.1955 C   0  0  0  0  0  0  0  0  0  0  0  0
   65.4142   54.1571  110.1061 O   0  0  0  0  0  0  0  0  0  0  0  0
   63.1709   55.0662  109.7285 C   0  0  0  0  0  0  0  0  0  0  0  0
   62.3405   52.0205  109.4095 C   0  0  0  0  0  0  0  0  0  0  0  0
   61.2776   49.8919  108.5388 C   0  0  0  0  0  0  0  0  0  0  0  0
   63.4058   52.6268  110.3284 C   0  0  0  0  0  0  0  0  0  0  0  0
   62.1764   49.9364  110.8785 C   0  0  0  0  0  0  0  0  0  0  0  0
   63.1802   55.6097  111.0030 O   0  0  0  0  0  0  0  0  0  0  0  0
   61.8878   55.0417  109.1512 O   0  0  0  0  0  0  0  0  0  0  0  0
   64.1268   53.8513  109.7030 C   0  0  0  0  0  0  0  0  0  0  0  0
   64.1402   51.4866  111.0028 C   0  0  0  0  0  0  0  0  0  0  0  0
   61.8271   50.6813  109.6565 C   0  0  0  0  0  0  0  0  0  0  0  0
  1  5  1  0
  2  8  1  0
  2 12  1  0
  3 11  1  0
  4  9  1  0
  4 10  1  0
  4 11  1  0
  5  7  1  0
  5 13  1  0
  6 13  1  0
  7 11  1  0
  7 12  1  0
  8 13  1  0
M  END
>  <ID>  (1) 
conformer_0

$$$$
