
     RDKit          3D

 15 15  0  0  0  0  0  0  0  0999 V2000
   64.5391   53.2116  110.0183 C   0  0  0  0  0  0  0  0  0  0  0  0
   60.7619   49.3054  110.6247 O   0  0  0  0  0  0  0  0  0  0  0  0
   62.3378   53.2376  108.6517 C   0  0  0  0  0  0  0  0  0  0  0  0
   62.2039   52.2519  109.8592 C   0  0  0  0  0  0  0  0  0  0  0  0
   64.2415   54.7338  110.0798 C   0  0  0  0  0  0  0  0  0  0  0  0
   61.9061   50.8828  109.4858 N   0  0  0  0  0  0  0  0  0  0  0  0
   63.2540   56.8401  109.1568 O   0  0  0  0  0  0  0  0  0  0  0  0
   63.0513   49.3008  111.0412 C   0  0  0  0  0  0  0  0  0  0  0  0
   61.6788   52.5690  107.5725 O   0  0  0  0  0  0  0  0  0  0  0  0
   63.6602   55.5439  108.8672 C   0  0  0  0  0  0  0  0  0  0  0  0
   63.5353   52.2339  110.6911 C   0  0  0  0  0  0  0  0  0  0  0  0
   65.6794   54.8531  109.9508 N   0  0  0  0  0  0  0  0  0  0  0  0
   63.6101   55.0915  111.2865 O   0  0  0  0  0  0  0  0  0  0  0  0
   62.6629   54.6858  108.0870 C   0  0  0  0  0  0  0  0  0  0  0  0
   61.8603   49.8242  110.3795 C   0  0  0  0  0  0  0  0  0  0  0  0
  1  5  1  0
  1 11  1  0
  2 15  2  0
  3  4  1  0
  3  9  1  0
  3 14  1  0
  4  6  1  0
  4 11  1  0
  5 10  1  0
  5 12  1  0
  5 13  1  0
  6 15  1  0
  7 10  1  0
  8 15  1  0
 10 14  1  0
M  END
>  <ID>  (1) 
conformer_0

$$$$
