
     RDKit          3D

 13 13  0  0  0  0  0  0  0  0999 V2000
   61.8816   51.1211  108.8110 C   0  0  0  0  0  0  0  0  0  0  0  0
   62.6818   53.4788  108.7800 C   0  0  0  0  0  0  0  0  0  0  0  0
   65.7597   54.8016  109.5456 N   0  0  0  0  0  0  0  0  0  0  0  0
   62.1336   49.7192  110.8831 C   0  0  0  0  0  0  0  0  0  0  0  0
   63.2721   49.0605  111.4807 C   0  0  0  0  0  0  0  0  0  0  0  0
   63.7893   54.3763  110.8476 C   0  0  0  0  0  0  0  0  0  0  0  0
   63.7209   53.1837  109.8021 C   0  0  0  0  0  0  0  0  0  0  0  0
   61.9790   52.3930  108.2506 N   0  0  0  0  0  0  0  0  0  0  0  0
   60.9364   49.3105  110.7855 O   0  0  0  0  0  0  0  0  0  0  0  0
   63.4479   51.9052  110.5978 C   0  0  0  0  0  0  0  0  0  0  0  0
   62.3731   54.6837  108.4984 O   0  0  0  0  0  0  0  0  0  0  0  0
   64.5312   55.4880  110.1044 C   0  0  0  0  0  0  0  0  0  0  0  0
   62.4767   50.9093  110.0874 C   0  0  0  0  0  0  0  0  0  0  0  0
  1  8  2  0
  1 13  1  0
  2  7  1  0
  2  8  1  0
  2 11  2  0
  3 12  1  0
  4  5  1  0
  4  9  2  0
  4 13  1  0
  6  7  1  0
  6 12  1  0
  7 10  1  0
 10 13  2  0
M  END
>  <ID>  (1) 
conformer_0

$$$$
