
     RDKit          3D

 29 31  0  0  0  0  0  0  0  0999 V2000
   64.2351   54.2486  109.0223 C   0  0  0  0  0  0  0  0  0  0  0  0
   60.2735   49.4652  110.1471 F   0  0  0  0  0  0  0  0  0  0  0  0
   62.8475   59.9256  110.4779 C   0  0  0  0  0  0  0  0  0  0  0  0
   62.6585   47.9104  110.3368 F   0  0  0  0  0  0  0  0  0  0  0  0
   63.6519   49.8214  111.2052 C   0  0  0  0  0  0  0  0  0  0  0  0
   63.7582   59.7838  109.4348 C   0  0  0  0  0  0  0  0  0  0  0  0
   62.2769   53.3480  110.1320 N   0  0  0  0  0  0  0  0  0  0  0  0
   61.7831   57.8637  109.9047 C   0  0  0  0  0  0  0  0  0  0  0  0
   60.8549   50.4193  107.5595 F   0  0  0  0  0  0  0  0  0  0  0  0
   64.4358   50.7541  111.3092 C   0  0  0  0  0  0  0  0  0  0  0  0
   62.4099   53.1850  107.7610 O   0  0  0  0  0  0  0  0  0  0  0  0
   62.6900   54.0091  108.8073 C   0  0  0  0  0  0  0  0  0  0  0  0
   61.7640   49.0247  112.0737 F   0  0  0  0  0  0  0  0  0  0  0  0
   63.8385   55.1020  111.3846 O   0  0  0  0  0  0  0  0  0  0  0  0
   64.1789   52.0056  110.8139 C   0  0  0  0  0  0  0  0  0  0  0  0
   61.5461   49.9214  109.8295 C   0  0  0  0  0  0  0  0  0  0  0  0
   62.4855   49.1526  110.8833 C   0  0  0  0  0  0  0  0  0  0  0  0
   62.8926   52.1990  110.2856 C   0  0  0  0  0  0  0  0  0  0  0  0
   62.6347   56.4563  107.9790 C   0  0  0  0  0  0  0  0  0  0  0  0
   61.6440   49.4288  108.3767 C   0  0  0  0  0  0  0  0  0  0  0  0
   62.0023   55.2788  108.6780 N   0  0  0  0  0  0  0  0  0  0  0  0
   63.9896   56.1102  107.2551 C   0  0  0  0  0  0  0  0  0  0  0  0
   60.5176   55.2114  108.2638 C   0  0  0  0  0  0  0  0  0  0  0  0
   64.9053   55.1089  107.9389 C   0  0  0  0  0  0  0  0  0  0  0  0
   62.0973   51.2297  109.8999 C   0  0  0  0  0  0  0  0  0  0  0  0
   61.8767   58.9753  110.7115 C   0  0  0  0  0  0  0  0  0  0  0  0
   64.8117   54.7423  110.3463 C   0  0  0  0  0  0  0  0  0  0  0  0
   63.6671   58.6674  108.6086 C   0  0  0  0  0  0  0  0  0  0  0  0
   62.7004   57.6725  108.8519 C   0  0  0  0  0  0  0  0  0  0  0  0
  1 12  1  0
  1 24  1  0
  1 27  1  0
  2 16  1  0
  3  6  2  0
  3 26  1  0
  4 17  1  0
  5 10  1  0
  5 17  1  0
  6 28  1  0
  7 12  1  0
  7 18  1  0
  8 26  2  0
  8 29  1  0
  9 20  1  0
 10 15  2  0
 11 12  1  0
 12 21  1  0
 13 17  1  0
 14 27  1  0
 15 18  1  0
 16 17  1  0
 16 20  1  0
 16 25  1  0
 18 25  1  0
 19 21  1  0
 19 22  1  0
 19 29  1  0
 21 23  1  0
 22 24  1  0
 28 29  2  0
M  END
>  <ID>  (1) 
conformer_0

$$$$
