
     RDKit          3D

 12 11  0  0  0  0  0  0  0  0999 V2000
   61.0805   51.8314  110.5551 O   0  0  0  0  0  0  0  0  0  0  0  0
   63.7698   54.0957  109.6842 C   0  0  0  0  0  0  0  0  0  0  0  0
   61.9824   49.9604  109.4358 C   0  0  0  0  0  0  0  0  0  0  0  0
   64.6344   54.7576  108.5236 C   0  0  0  0  0  0  0  0  0  0  0  0
   62.3503   53.7792  109.1469 C   0  0  0  0  0  0  0  0  0  0  0  0
   61.1351   50.0883  108.2515 O   0  0  0  0  0  0  0  0  0  0  0  0
   62.4583   53.4989  107.7384 O   0  0  0  0  0  0  0  0  0  0  0  0
   64.8044   56.4921  110.2504 N   0  0  0  0  0  0  0  0  0  0  0  0
   64.4159   52.7620  109.9935 N   0  0  0  0  0  0  0  0  0  0  0  0
   64.7934   56.2106  108.8001 C   0  0  0  0  0  0  0  0  0  0  0  0
   63.5330   51.7522  110.5677 C   0  0  0  0  0  0  0  0  0  0  0  0
   62.2404   51.2833  110.0532 C   0  0  0  0  0  0  0  0  0  0  0  0
  1 12  1  0
  2  4  1  0
  2  5  1  0
  2  9  1  0
  3  6  1  0
  3 12  1  0
  4 10  1  0
  5  7  1  0
  8 10  1  0
  9 11  1  0
 11 12  1  0
M  END
>  <ID>  (1) 
conformer_0

$$$$
