
     RDKit          3D

 13 12  0  0  0  0  0  0  0  0999 V2000
   62.2517   52.7789  109.0518 C   0  0  0  0  0  0  0  0  0  0  0  0
   63.9283   55.2630  108.1742 O   0  0  0  0  0  0  0  0  0  0  0  0
   64.2227   54.4803  109.1993 C   0  0  0  0  0  0  0  0  0  0  0  0
   63.7782   51.0106  111.0030 C   0  0  0  0  0  0  0  0  0  0  0  0
   63.3717   53.5307  111.2456 O   0  0  0  0  0  0  0  0  0  0  0  0
   61.9750   53.2323  107.7344 O   0  0  0  0  0  0  0  0  0  0  0  0
   61.3389   51.7889  111.2135 O   0  0  0  0  0  0  0  0  0  0  0  0
   65.4934   54.5883  109.7128 N   0  0  0  0  0  0  0  0  0  0  0  0
   63.4313   53.3425  109.8396 C   0  0  0  0  0  0  0  0  0  0  0  0
   61.3653   50.0824  108.5284 C   0  0  0  0  0  0  0  0  0  0  0  0
   62.0881   49.4955  111.0039 C   0  0  0  0  0  0  0  0  0  0  0  0
   62.3205   50.9567  110.6379 C   0  0  0  0  0  0  0  0  0  0  0  0
   62.2068   51.2356  109.0731 C   0  0  0  0  0  0  0  0  0  0  0  0
  1  6  1  0
  1  9  1  0
  1 13  1  0
  2  3  2  0
  3  8  1  0
  3  9  1  0
  4 12  1  0
  5  9  1  0
  7 12  1  0
 10 13  1  0
 11 12  1  0
 12 13  1  0
M  END
>  <ID>  (1) 
conformer_0

$$$$
