
     RDKit          3D

 22 24  0  0  0  0  0  0  0  0999 V2000
   62.4971   55.5804  107.9965 C   0  0  0  0  0  0  0  0  0  0  0  0
   62.4560   53.4558  109.2180 C   0  0  0  0  0  0  0  0  0  0  0  0
   61.6355   47.9606  110.8881 F   0  0  0  0  0  0  0  0  0  0  0  0
   61.4938   56.5615  110.1624 O   0  0  0  0  0  0  0  0  0  0  0  0
   63.4049   49.5964  111.6754 C   0  0  0  0  0  0  0  0  0  0  0  0
   62.4824   56.6516  109.1073 C   0  0  0  0  0  0  0  0  0  0  0  0
   61.7712   54.3119  108.3374 N   0  0  0  0  0  0  0  0  0  0  0  0
   63.8318   56.7175  109.7842 C   0  0  0  0  0  0  0  0  0  0  0  0
   61.9623   49.9420  109.7176 C   0  0  0  0  0  0  0  0  0  0  0  0
   65.6134   55.2010  110.4520 N   0  0  0  0  0  0  0  0  0  0  0  0
   64.5941   57.7248  109.8387 O   0  0  0  0  0  0  0  0  0  0  0  0
   64.0764   50.6980  111.1642 C   0  0  0  0  0  0  0  0  0  0  0  0
   62.5483   52.1201  109.5147 N   0  0  0  0  0  0  0  0  0  0  0  0
   62.2969   49.1782  110.8680 C   0  0  0  0  0  0  0  0  0  0  0  0
   63.4765   54.1625  110.0203 C   0  0  0  0  0  0  0  0  0  0  0  0
   60.4142   54.4884  107.8676 C   0  0  0  0  0  0  0  0  0  0  0  0
   61.8597   51.0867  108.8439 C   0  0  0  0  0  0  0  0  0  0  0  0
   61.4537   51.4500  107.7004 O   0  0  0  0  0  0  0  0  0  0  0  0
   64.2939   53.0394  110.6145 C   0  0  0  0  0  0  0  0  0  0  0  0
   60.9975   49.4166  108.8955 C   0  0  0  0  0  0  0  0  0  0  0  0
   64.1848   55.4393  110.4604 C   0  0  0  0  0  0  0  0  0  0  0  0
   63.5279   51.8288  110.4395 C   0  0  0  0  0  0  0  0  0  0  0  0
  1  6  1  0
  1  7  1  0
  2  7  1  0
  2 13  1  0
  2 15  2  0
  3 14  1  0
  4  6  1  0
  5 12  1  0
  5 14  1  0
  6  8  1  0
  7 16  1  0
  8 11  2  0
  8 21  1  0
  9 14  1  0
  9 17  1  0
  9 20  2  0
 10 21  1  0
 12 22  1  0
 13 17  1  0
 13 22  1  0
 15 19  1  0
 15 21  1  0
 17 18  2  0
 19 22  1  0
M  END
>  <ID>  (1) 
conformer_0

$$$$
