
     RDKit          3D

 31 34  0  0  0  0  0  0  0  0999 V2000
   61.9791   53.2342  107.6912 O   0  0  0  0  0  0  0  0  0  0  0  0
   59.9819   56.7991  108.0625 C   0  0  0  0  0  0  0  0  0  0  0  0
   61.2331   56.8745  108.8304 C   0  0  0  0  0  0  0  0  0  0  0  0
   64.5426   57.9751  107.8132 C   0  0  0  0  0  0  0  0  0  0  0  0
   62.0110   50.8534  109.9663 C   0  0  0  0  0  0  0  0  0  0  0  0
   64.0428   50.3478  111.6351 C   0  0  0  0  0  0  0  0  0  0  0  0
   63.5860   55.7817  108.8584 C   0  0  0  0  0  0  0  0  0  0  0  0
   61.8109   49.7230  110.8345 C   0  0  0  0  0  0  0  0  0  0  0  0
   61.9862   49.6174  108.0544 O   0  0  0  0  0  0  0  0  0  0  0  0
   64.7958   59.4304  108.2293 C   0  0  0  0  0  0  0  0  0  0  0  0
   62.8636   54.6902  109.5179 O   0  0  0  0  0  0  0  0  0  0  0  0
   59.8883   55.8390  107.1855 O   0  0  0  0  0  0  0  0  0  0  0  0
   61.2374   50.3817  108.7481 C   0  0  0  0  0  0  0  0  0  0  0  0
   64.3909   59.6032  109.6498 C   0  0  0  0  0  0  0  0  0  0  0  0
   60.0094   50.3235  108.6553 O   0  0  0  0  0  0  0  0  0  0  0  0
   62.5207   52.2552  109.7954 C   0  0  0  0  0  0  0  0  0  0  0  0
   63.1469   58.3010  109.6642 C   0  0  0  0  0  0  0  0  0  0  0  0
   62.7564   58.8522  111.0480 C   0  0  0  0  0  0  0  0  0  0  0  0
   63.3374   55.6270  107.3595 C   0  0  0  0  0  0  0  0  0  0  0  0
   62.6514   53.4240  108.8585 C   0  0  0  0  0  0  0  0  0  0  0  0
   60.8076   48.8501  110.7677 O   0  0  0  0  0  0  0  0  0  0  0  0
   64.0314   57.2104  109.1039 C   0  0  0  0  0  0  0  0  0  0  0  0
   62.9809   49.3308  111.6419 C   0  0  0  0  0  0  0  0  0  0  0  0
   64.6618   53.6567  110.4175 N   0  0  0  0  0  0  0  0  0  0  0  0
   59.1528   57.6105  108.3621 O   0  0  0  0  0  0  0  0  0  0  0  0
   64.5243   54.8734  109.6423 C   0  0  0  0  0  0  0  0  0  0  0  0
   63.6356   52.6437  110.8039 C   0  0  0  0  0  0  0  0  0  0  0  0
   61.1250   56.4258  110.1544 O   0  0  0  0  0  0  0  0  0  0  0  0
   64.4956   51.3664  110.8198 C   0  0  0  0  0  0  0  0  0  0  0  0
   61.8486   58.2782  108.7277 C   0  0  0  0  0  0  0  0  0  0  0  0
   63.6503   60.2393  110.7926 C   0  0  0  0  0  0  0  0  0  0  0  0
  1 20  2  0
  2  3  1  0
  2 12  2  0
  2 25  1  0
  3 28  1  0
  3 30  1  0
  4 10  1  0
  4 22  1  0
  5  8  1  0
  5 13  1  0
  5 16  1  0
  6 23  1  0
  6 29  1  0
  7 11  1  0
  7 19  1  0
  7 22  1  0
  7 26  1  0
  8 21  1  0
  8 23  1  0
  9 13  2  0
 10 14  1  0
 11 20  1  0
 13 15  1  0
 14 17  1  0
 14 31  1  0
 16 20  1  0
 16 27  1  0
 17 18  1  0
 17 22  1  0
 17 30  1  0
 18 31  1  0
 24 26  2  0
 24 27  1  0
 27 29  1  0
M  END
>  <ID>  (1) 
conformer_0

$$$$
