
     RDKit          3D

 40 43  0  0  0  0  0  0  0  0999 V2000
   63.4277   60.9276  109.0973 C   0  0  0  0  0  0  0  0  0  0  0  0
   64.3139   55.7059  111.0057 C   0  0  0  0  0  0  0  0  0  0  0  0
   64.5959   60.8745  108.1434 C   0  0  0  0  0  0  0  0  0  0  0  0
   61.5448   52.1005  108.1527 N   0  0  0  0  0  0  0  0  0  0  0  0
   62.7646   52.4519  110.0836 C   0  0  0  0  0  0  0  0  0  0  0  0
   64.3240   57.0042  106.7253 O   0  0  0  0  0  0  0  0  0  0  0  0
   66.2355   59.6780  106.8035 C   0  0  0  0  0  0  0  0  0  0  0  0
   63.2865   50.3578  111.4681 O   0  0  0  0  0  0  0  0  0  0  0  0
   63.4841   53.4341  110.8929 C   0  0  0  0  0  0  0  0  0  0  0  0
   66.8416   60.8540  106.4135 C   0  0  0  0  0  0  0  0  0  0  0  0
   65.1641   59.7015  107.6295 C   0  0  0  0  0  0  0  0  0  0  0  0
   63.3377   54.7759  110.6362 O   0  0  0  0  0  0  0  0  0  0  0  0
   66.3221   62.0940  106.9122 C   0  0  0  0  0  0  0  0  0  0  0  0
   64.5700   58.2807  110.3859 O   0  0  0  0  0  0  0  0  0  0  0  0
   60.6774   57.0733  107.9318 C   0  0  0  0  0  0  0  0  0  0  0  0
   63.3934   59.9075  111.4808 N   0  0  0  0  0  0  0  0  0  0  0  0
   62.0441   60.1329  112.0695 C   0  0  0  0  0  0  0  0  0  0  0  0
   63.5998   58.4576  111.3278 C   0  0  0  0  0  0  0  0  0  0  0  0
   65.0926   55.2799  107.6836 C   0  0  0  0  0  0  0  0  0  0  0  0
   65.2207   62.0904  107.7216 C   0  0  0  0  0  0  0  0  0  0  0  0
   63.8262   55.7341  107.2464 N   0  0  0  0  0  0  0  0  0  0  0  0
   61.3362   58.7929  111.8553 C   0  0  0  0  0  0  0  0  0  0  0  0
   62.9211   48.9656  111.4525 C   0  0  0  0  0  0  0  0  0  0  0  0
   60.5060   54.6758  108.1009 C   0  0  0  0  0  0  0  0  0  0  0  0
   61.9838   50.1807  109.5671 C   0  0  0  0  0  0  0  0  0  0  0  0
   61.4148   50.7777  108.4191 C   0  0  0  0  0  0  0  0  0  0  0  0
   65.7324   56.7563  107.2738 C   0  0  0  0  0  0  0  0  0  0  0  0
   63.1577   48.1249  110.4480 F   0  0  0  0  0  0  0  0  0  0  0  0
   64.5635   52.9690  111.3419 O   0  0  0  0  0  0  0  0  0  0  0  0
   63.6969   61.1209  110.5855 C   0  0  0  0  0  0  0  0  0  0  0  0
   62.1208   53.0970  108.9302 C   0  0  0  0  0  0  0  0  0  0  0  0
   61.9102   54.5210  108.3557 C   0  0  0  0  0  0  0  0  0  0  0  0
   62.6937   51.0427  110.3940 C   0  0  0  0  0  0  0  0  0  0  0  0
   61.8749   48.7123  112.1903 F   0  0  0  0  0  0  0  0  0  0  0  0
   62.5703   55.7957  107.9027 C   0  0  0  0  0  0  0  0  0  0  0  0
   61.9810   56.9820  107.8946 N   0  0  0  0  0  0  0  0  0  0  0  0
   59.8888   55.8700  107.9397 C   0  0  0  0  0  0  0  0  0  0  0  0
   63.6814   56.7654  111.9624 C   0  0  0  0  0  0  0  0  0  0  0  0
   60.7684   50.0211  107.5870 O   0  0  0  0  0  0  0  0  0  0  0  0
   62.3993   57.7749  111.6058 O   0  0  0  0  0  0  0  0  0  0  0  0
  1  3  1  0
  1 30  1  0
  2 12  1  0
  2 38  1  0
  3 11  1  0
  3 20  1  0
  4 26  1  0
  4 31  2  0
  5  9  1  0
  5 31  1  0
  5 33  1  0
  6 21  1  0
  6 27  1  0
  7 10  1  0
  7 11  2  0
  8 23  1  0
  8 33  1  0
  9 12  1  0
  9 29  2  0
 10 13  1  0
 13 20  2  0
 14 18  2  0
 15 36  2  0
 15 37  1  0
 16 17  1  0
 16 18  1  0
 16 30  1  0
 17 22  1  0
 18 40  1  0
 19 21  1  0
 19 27  1  0
 21 35  1  0
 23 28  1  0
 23 34  1  0
 24 32  1  0
 24 37  2  0
 25 26  1  0
 25 33  2  0
 26 39  2  0
 31 32  1  0
 32 35  1  0
 35 36  1  0
 38 40  1  0
M  END
>  <ID>  (1) 
conformer_0

$$$$
