
     RDKit          3D

 17 17  0  0  0  0  0  0  0  0999 V2000
   63.4481   53.6930  109.7168 C   0  0  0  0  0  0  0  0  0  0  0  0
   64.1518   57.1862  108.8159 C   0  0  0  0  0  0  0  0  0  0  0  0
   64.8383   55.9581  109.2036 N   0  0  0  0  0  0  0  0  0  0  0  0
   61.5532   49.8039  109.3073 C   0  0  0  0  0  0  0  0  0  0  0  0
   63.5992   52.4569  110.6280 C   0  0  0  0  0  0  0  0  0  0  0  0
   62.6901   55.3317  107.8328 N   0  0  0  0  0  0  0  0  0  0  0  0
   62.3720   51.6241  110.5735 O   0  0  0  0  0  0  0  0  0  0  0  0
   64.8718   57.9053  107.6348 C   0  0  0  0  0  0  0  0  0  0  0  0
   60.9973   54.3402  109.3261 O   0  0  0  0  0  1  0  0  0  0  0  0
   63.0885   49.4009  111.2413 C   0  0  0  0  0  0  0  0  0  0  0  0
   62.7484   56.7344  108.3464 C   0  0  0  0  0  0  0  0  0  0  0  0
   62.2199   54.0068  108.6053 S   0  0  0  0  0  4  0  0  0  0  0  0
   60.2937   49.6798  109.9292 O   0  0  0  0  0  0  0  0  0  0  0  0
   65.1651   54.6568  111.0781 N   0  0  0  0  0  0  0  0  0  0  0  0
   62.5554   50.3299  110.2313 C   0  0  0  0  0  0  0  0  0  0  0  0
   62.0427   52.8628  107.7346 O   0  0  0  0  0  1  0  0  0  0  0  0
   64.2198   54.9809  110.0720 C   0  0  0  0  0  0  0  0  0  0  0  0
  1  5  1  0
  1 12  1  0
  1 17  1  0
  2  3  1  0
  2  8  1  0
  2 11  1  0
  3 17  1  0
  4 13  1  0
  4 15  1  0
  5  7  1  0
  6 11  1  0
  6 12  1  0
  7 15  1  0
  9 12  1  0
 10 15  1  0
 12 16  1  0
 14 17  1  0
M  END
>  <ID>  (1) 
conformer_0

$$$$
