
     RDKit          3D

 30 33  0  0  0  0  0  0  0  0999 V2000
   62.2589   52.3125  110.2030 C   0  0  0  0  0  0  0  0  0  0  0  0
   64.7171   57.7374  107.1534 C   0  0  0  0  0  0  0  0  0  0  0  0
   60.9051   50.2991  107.5189 F   0  0  0  0  0  0  0  0  0  0  0  0
   61.4462   51.3313  108.1548 C   0  0  0  0  0  0  0  0  0  0  0  0
   59.6667   55.9413  108.3913 C   0  0  0  0  0  0  0  0  0  0  0  0
   60.7079   56.6813  108.8017 N   0  0  0  0  0  0  0  0  0  0  0  0
   64.2395   58.3380  108.4994 C   0  0  0  0  0  0  0  0  0  0  0  0
   63.6103   55.8432  109.0332 C   0  0  0  0  0  0  0  0  0  0  0  0
   58.5147   56.3417  109.0044 O   0  0  0  0  0  0  0  0  0  0  0  0
   64.1319   50.5442  111.0691 C   0  0  0  0  0  0  0  0  0  0  0  0
   60.7852   49.3019  110.4143 O   0  0  0  0  0  0  0  0  0  0  0  0
   58.8618   57.4846  109.9792 C   0  0  0  0  0  0  0  0  0  0  0  0
   61.9794   49.8154  110.0896 C   0  0  0  0  0  0  0  0  0  0  0  0
   62.7596   58.0919  108.7388 C   0  0  0  0  0  0  0  0  0  0  0  0
   61.6244   52.4495  107.6036 O   0  0  0  0  0  0  0  0  0  0  0  0
   64.4320   57.4261  110.9485 C   0  0  0  0  0  0  0  0  0  0  0  0
   64.5863   54.8535  111.0342 C   0  0  0  0  0  0  0  0  0  0  0  0
   60.2712   57.8193  109.6657 C   0  0  0  0  0  0  0  0  0  0  0  0
   64.4066   51.8695  111.0758 O   0  0  0  0  0  0  0  0  0  0  0  0
   62.7688   48.7781  112.1446 O   0  0  0  0  0  0  0  0  0  0  0  0
   65.0951   58.2426  109.7870 C   0  0  0  0  0  0  0  0  0  0  0  0
   63.6771   52.7781  110.2270 C   0  0  0  0  0  0  0  0  0  0  0  0
   62.2503   56.5389  108.6397 C   0  0  0  0  0  0  0  0  0  0  0  0
   64.0810   56.3574  106.6885 C   0  0  0  0  0  0  0  0  0  0  0  0
   64.3694   55.2995  107.8383 C   0  0  0  0  0  0  0  0  0  0  0  0
   59.7080   55.0460  107.5325 O   0  0  0  0  0  0  0  0  0  0  0  0
   64.6786   53.8104  109.9803 N   0  0  0  0  0  0  0  0  0  0  0  0
   62.9754   49.6587  111.1345 C   0  0  0  0  0  0  0  0  0  0  0  0
   62.0164   51.0850  109.4702 C   0  0  0  0  0  0  0  0  0  0  0  0
   63.9634   56.0698  110.4380 C   0  0  0  0  0  0  0  0  0  0  0  0
  1 22  1  0
  1 29  1  0
  2  7  1  0
  2 24  1  0
  3  4  1  0
  4 15  2  0
  4 29  1  0
  5  6  1  0
  5  9  1  0
  5 26  2  0
  6 18  1  0
  6 23  1  0
  7 14  1  0
  7 21  1  0
  8 23  1  0
  8 25  1  0
  8 30  1  0
  9 12  1  0
 10 19  1  0
 10 28  1  0
 11 13  1  0
 12 18  1  0
 13 28  1  0
 13 29  1  0
 14 23  1  0
 16 21  1  0
 16 30  1  0
 17 27  1  0
 17 30  1  0
 19 22  1  0
 20 28  1  0
 22 27  1  0
 24 25  1  0
M  END
>  <ID>  (1) 
conformer_0

$$$$
