
     RDKit          3D

 16 18  0  0  0  0  0  0  0  0999 V2000
   64.4205   55.7501  111.3197 C   0  0  0  0  0  0  0  0  0  0  0  0
   63.4503   52.2540  110.2068 C   0  0  0  0  0  0  0  0  0  0  0  0
   63.9699   51.3367  111.1271 C   0  0  0  0  0  0  0  0  0  0  0  0
   63.1743   54.4743  109.2768 C   0  0  0  0  0  0  0  0  0  0  0  0
   62.7802   53.8853  108.0290 N   0  0  0  0  0  0  0  0  0  0  0  0
   62.4753   51.8131  109.2293 C   0  0  0  0  0  0  0  0  0  0  0  0
   62.7701   49.1969  110.9180 C   0  0  0  0  0  0  0  0  0  0  0  0
   61.8328   50.5975  109.2175 C   0  0  0  0  0  0  0  0  0  0  0  0
   61.2643   52.4037  107.2954 O   0  0  0  0  0  0  0  0  0  0  0  0
   63.0318   55.8575  109.3666 C   0  0  0  0  0  0  0  0  0  0  0  0
   61.9168   49.4450  109.8781 C   0  0  0  0  0  0  0  0  0  0  0  0
   63.7413   53.6687  110.2780 C   0  0  0  0  0  0  0  0  0  0  0  0
   62.1423   52.7170  108.1627 C   0  0  0  0  0  0  0  0  0  0  0  0
   64.4589   54.3838  111.2521 C   0  0  0  0  0  0  0  0  0  0  0  0
   63.6597   50.0865  111.4173 C   0  0  0  0  0  0  0  0  0  0  0  0
   63.6466   56.5237  110.4306 C   0  0  0  0  0  0  0  0  0  0  0  0
  1 14  2  0
  1 16  1  0
  2  3  1  0
  2  6  1  0
  2 12  2  0
  3 15  2  0
  4  5  1  0
  4 10  2  0
  4 12  1  0
  5 13  1  0
  6  8  1  0
  6 13  1  0
  7 11  1  0
  7 15  1  0
  8 11  2  0
  9 13  2  0
 10 16  1  0
 12 14  1  0
M  END
>  <ID>  (1) 
conformer_0

$$$$
