
     RDKit          3D

 29 32  0  0  0  0  0  0  0  0999 V2000
   61.9233   50.8239  109.5617 C   0  0  0  0  0  0  0  0  0  0  0  0
   62.2712   59.7385  109.8706 O   0  0  0  0  0  0  0  0  0  0  0  0
   61.4698   55.1186  108.9605 C   0  0  0  0  0  0  0  0  0  0  0  0
   65.4289   56.2905  108.3974 C   0  0  0  0  0  0  0  0  0  0  0  0
   64.4312   53.8965  107.4327 O   0  0  0  0  0  0  0  0  0  0  0  0
   64.0184   55.8611  108.7757 C   0  0  0  0  0  0  0  0  0  0  0  0
   62.5005   52.5698  109.1824 C   0  0  0  0  0  0  0  0  0  0  0  0
   64.6260   57.8534  110.5100 O   0  0  0  0  0  0  0  0  0  0  0  0
   62.7850   49.1982  111.3585 C   0  0  0  0  0  0  0  0  0  0  0  0
   62.8238   50.4224  110.5290 C   0  0  0  0  0  0  0  0  0  0  0  0
   63.8560   54.4011  108.5818 C   0  0  0  0  0  0  0  0  0  0  0  0
   61.7504   56.5965  109.2809 C   0  0  0  0  0  0  0  0  0  0  0  0
   61.7198   50.1988  108.5038 O   0  0  0  0  0  0  0  0  0  0  0  0
   63.1291   57.1383  108.7697 C   0  0  0  0  0  0  0  0  0  0  0  0
   62.4216   53.9753  108.6368 C   0  0  0  0  0  0  0  0  0  0  0  0
   63.9261   48.9929  112.0452 F   0  0  0  0  0  0  0  0  0  0  0  0
   61.8168   49.2555  112.2951 F   0  0  0  0  0  0  0  0  0  0  0  0
   61.5122   56.9045  110.6137 O   0  0  0  0  0  0  0  0  0  0  0  0
   64.0535   58.3106  109.2904 C   0  0  0  0  0  0  0  0  0  0  0  0
   64.2382   60.9072  109.5291 C   0  0  0  0  0  0  0  0  0  0  0  0
   65.2440   57.1585  107.1141 C   0  0  0  0  0  0  0  0  0  0  0  0
   64.7396   58.5727  106.9856 C   0  0  0  0  0  0  0  0  0  0  0  0
   63.7711   51.3455  110.7778 O   0  0  0  0  0  0  0  0  0  0  0  0
   63.5563   59.6557  109.2361 C   0  0  0  0  0  0  0  0  0  0  0  0
   65.1134   58.8992  108.3996 C   0  0  0  0  0  0  0  0  0  0  0  0
   61.3991   52.0379  109.6495 N   0  0  0  0  0  0  0  0  0  0  0  0
   62.4814   48.1130  110.5835 F   0  0  0  0  0  0  0  0  0  0  0  0
   63.6705   52.4519  109.9630 C   0  0  0  0  0  0  0  0  0  0  0  0
   64.4984   53.6599  109.7696 C   0  0  0  0  0  0  0  0  0  0  0  0
  1 10  1  0
  1 13  2  0
  1 26  1  0
  2 24  1  0
  3 12  1  0
  3 15  1  0
  4  6  1  0
  4 21  1  0
  5 11  1  0
  6 11  1  0
  6 14  1  0
  7 15  1  0
  7 26  1  0
  7 28  1  0
  8 19  1  0
  9 10  1  0
  9 16  1  0
  9 17  1  0
  9 27  1  0
 10 23  1  0
 11 15  1  0
 11 29  1  0
 12 14  1  0
 12 18  1  0
 14 19  1  0
 19 24  1  0
 19 25  1  0
 20 24  1  0
 21 22  1  0
 22 25  1  0
 23 28  1  0
 28 29  1  0
M  END
>  <ID>  (1) 
conformer_0

$$$$
