
     RDKit          3D

 30 35  0  0  0  0  0  0  0  0999 V2000
   61.4165   57.1239  107.7661 C   0  0  0  0  0  0  0  0  0  0  0  0
   62.3200   50.9789  108.5803 C   0  0  0  0  0  0  0  0  0  0  0  0
   61.5572   55.5896  108.1725 C   0  0  0  0  0  0  0  0  0  0  0  0
   61.4491   54.7490  106.8519 C   0  0  0  0  0  0  0  0  0  0  0  0
   63.6510   56.5905  109.3551 C   0  0  0  0  0  0  0  0  0  0  0  0
   61.7783   50.9813  110.0814 C   0  0  0  0  0  0  0  0  0  0  0  0
   63.1831   58.0180  109.3222 C   0  0  0  0  0  0  0  0  0  0  0  0
   62.9185   51.4429  110.9568 C   0  0  0  0  0  0  0  0  0  0  0  0
   65.1202   50.7409  110.4523 O   0  0  0  0  0  0  0  0  0  0  0  0
   63.9715   50.4022  110.9995 C   0  0  0  0  0  0  0  0  0  0  0  0
   62.8491   55.3793  108.8964 C   0  0  0  0  0  0  0  0  0  0  0  0
   63.6961   58.7946  108.0309 C   0  0  0  0  0  0  0  0  0  0  0  0
   63.5582   49.1814  111.6851 C   0  0  0  0  0  0  0  0  0  0  0  0
   63.3379   52.7345  110.3089 C   0  0  0  0  0  0  0  0  0  0  0  0
   63.5300   58.8829  110.5484 C   0  0  0  0  0  0  0  0  0  0  0  0
   62.5829   53.3936  109.1291 C   0  0  0  0  0  0  0  0  0  0  0  0
   63.6625   54.2766  108.4675 C   0  0  0  0  0  0  0  0  0  0  0  0
   61.3149   50.0452  107.9599 C   0  0  0  0  0  0  0  0  0  0  0  0
   60.3770   55.2764  109.1283 C   0  0  0  0  0  0  0  0  0  0  0  0
   62.1297   48.7909  111.3561 C   0  0  0  0  0  0  0  0  0  0  0  0
   60.6573   51.7663  110.3168 O   0  0  0  0  0  0  0  0  0  0  0  0
   63.3705   58.0100  111.8261 C   0  0  0  0  0  0  0  0  0  0  0  0
   64.4918   56.1484  110.4843 C   0  0  0  0  0  0  0  0  0  0  0  0
   62.2559   52.3616  108.0676 C   0  0  0  0  0  0  0  0  0  0  0  0
   61.5203   49.5090  110.2767 C   0  0  0  0  0  0  0  0  0  0  0  0
   63.1348   53.8992  111.4028 C   0  0  0  0  0  0  0  0  0  0  0  0
   64.2301   54.7910  110.9099 O   0  0  0  0  0  0  0  0  0  0  0  0
   64.5296   56.9705  111.7400 C   0  0  0  0  0  0  0  0  0  0  0  0
   61.1769   48.8871  109.0067 C   0  0  0  0  0  0  0  0  0  0  0  0
   61.6011   57.9891  109.1112 C   0  0  0  0  0  0  0  0  0  0  0  0
  1  3  1  0
  1 30  1  0
  2  6  1  0
  2 18  1  0
  2 24  1  0
  3  4  1  0
  3 11  1  0
  3 19  1  0
  5  7  1  0
  5 11  1  0
  5 23  1  0
  6  8  1  0
  6 21  1  0
  6 25  1  0
  7 12  1  0
  7 15  1  0
  7 30  1  0
  8 10  1  0
  8 14  1  0
  9 10  1  0
 10 13  1  0
 11 17  1  0
 13 20  1  0
 14 16  1  0
 14 26  1  0
 15 22  1  0
 16 17  1  0
 16 24  1  0
 18 29  1  0
 20 25  1  0
 22 28  1  0
 23 27  1  0
 23 28  1  0
 25 29  1  0
 26 27  1  0
M  END
>  <ID>  (1) 
conformer_0

$$$$
