
     RDKit          3D

 26 29  0  0  0  0  0  0  0  0999 V2000
   60.3169   56.9802  108.9011 O   0  0  0  0  0  0  0  0  0  0  0  0
   65.8659   55.2712  109.7541 N   0  0  0  0  0  0  0  0  0  0  0  0
   63.1334   53.4616  110.2005 C   0  0  0  0  0  0  0  0  0  0  0  0
   63.2985   55.7628  108.9342 C   0  0  0  0  0  0  0  0  0  0  0  0
   63.5678   57.3397  111.0634 C   0  0  0  0  0  0  0  0  0  0  0  0
   61.8870   49.9368  109.6898 C   0  0  0  0  0  0  0  0  0  0  0  0
   62.5034   57.7550  111.8948 O   0  0  0  0  0  0  0  0  0  0  0  0
   63.7822   54.8432  111.0371 C   0  0  0  0  0  0  0  0  0  0  0  0
   61.7891   48.8727  110.5788 C   0  0  0  0  0  0  0  0  0  0  0  0
   64.3037   56.2242  111.5722 O   0  0  0  0  0  0  0  0  0  0  0  0
   61.5484   56.9851  109.5731 C   0  0  0  0  0  0  0  0  0  0  0  0
   64.4385   53.5460  109.2935 N   0  0  0  0  0  0  0  0  0  0  0  0
   61.1368   49.8970  108.5637 O   0  0  0  0  0  0  0  0  0  0  0  0
   63.0538   57.1220  109.6015 C   0  0  0  0  0  0  0  0  0  0  0  0
   62.7347   51.0435  110.0148 C   0  0  0  0  0  0  0  0  0  0  0  0
   62.4510   52.3256  109.4198 C   0  0  0  0  0  0  0  0  0  0  0  0
   59.8940   55.1384  107.5035 O   0  0  0  0  0  0  0  0  0  0  0  0
   61.9191   55.4161  109.3676 N   0  0  0  0  0  0  0  0  0  0  0  0
   63.5796   58.2315  108.8269 O   0  0  0  0  0  0  0  0  0  0  0  0
   63.6691   50.8897  111.0080 C   0  0  0  0  0  0  0  0  0  0  0  0
   62.0777   52.5009  108.2206 O   0  0  0  0  0  0  0  0  0  0  0  0
   63.6357   49.8094  111.8196 C   0  0  0  0  0  0  0  0  0  0  0  0
   64.5048   55.0797  109.5636 C   0  0  0  0  0  0  0  0  0  0  0  0
   59.6682   55.8031  108.6206 C   0  0  0  0  0  0  0  0  0  0  0  0
   62.6581   48.8651  111.6383 C   0  0  0  0  0  0  0  0  0  0  0  0
   63.3857   55.7358  107.5284 O   0  0  0  0  0  0  0  0  0  0  0  0
  1 11  1  0
  1 24  1  0
  2 23  1  0
  3  8  1  0
  3 12  1  0
  3 16  1  0
  4 14  1  0
  4 18  1  0
  4 23  1  0
  4 26  1  0
  5  7  1  0
  5 10  1  0
  5 14  1  0
  6  9  2  0
  6 13  1  0
  6 15  1  0
  8 10  1  0
  8 23  1  0
  9 25  1  0
 11 14  1  0
 11 18  1  0
 12 23  1  0
 14 19  1  0
 15 16  1  0
 15 20  1  0
 16 21  2  0
 17 24  1  0
 20 22  2  0
 22 25  1  0
M  END
>  <ID>  (1) 
conformer_0

$$$$
