
     RDKit          3D

 18 19  0  0  0  0  0  0  0  0999 V2000
   62.1296   58.0653  110.2246 C   0  0  0  0  0  0  0  0  0  0  0  0
   64.3070   57.6018  110.7954 C   0  0  0  0  0  0  0  0  0  0  0  0
   63.3982   58.6479  110.2593 O   0  0  0  0  0  0  0  0  0  0  0  0
   61.2631   51.1128  107.9013 O   0  0  0  0  0  0  0  0  0  0  0  0
   63.7839   55.0420  111.1037 C   0  0  0  0  0  0  0  0  0  0  0  0
   62.0519   53.1602  109.2656 N   0  0  0  0  0  0  0  0  0  0  0  0
   62.5128   51.8516  109.7230 C   0  0  0  0  0  0  0  0  0  0  0  0
   63.4448   54.5986  107.8716 O   0  0  0  0  0  0  0  0  0  0  0  0
   61.8877   50.8146  109.0173 C   0  0  0  0  0  0  0  0  0  0  0  0
   63.7417   56.3397  110.1538 C   0  0  0  0  0  0  0  0  0  0  0  0
   62.6975   49.2660  110.6458 C   0  0  0  0  0  0  0  0  0  0  0  0
   63.4332   50.2542  111.2594 C   0  0  0  0  0  0  0  0  0  0  0  0
   62.2799   56.6406  110.0441 N   0  0  0  0  0  0  0  0  0  0  0  0
   64.1735   53.8784  110.0851 C   0  0  0  0  0  0  0  0  0  0  0  0
   63.3604   51.5419  110.7934 C   0  0  0  0  0  0  0  0  0  0  0  0
   63.0999   54.0541  108.9824 C   0  0  0  0  0  0  0  0  0  0  0  0
   65.4577   54.2876  109.6407 O   0  0  0  0  0  0  0  0  0  0  0  0
   61.9322   49.5113  109.5087 C   0  0  0  0  0  0  0  0  0  0  0  0
  1  3  1  0
  1 13  1  0
  2  3  1  0
  2 10  1  0
  4  9  1  0
  5 10  1  0
  5 14  1  0
  6  7  1  0
  6 16  1  0
  7  9  1  0
  7 15  1  0
  8 16  2  0
  9 18  2  0
 10 13  1  0
 11 12  1  0
 11 18  1  0
 12 15  2  0
 14 16  1  0
 14 17  1  0
M  END
>  <ID>  (1) 
conformer_0

$$$$
