
     RDKit          3D

 25 28  0  0  0  0  0  0  0  0999 V2000
   61.6566   49.6582  110.1572 N   0  0  0  0  0  0  0  0  0  0  0  0
   60.6447   49.8665  107.7450 C   0  0  0  0  0  0  0  0  0  0  0  0
   63.8512   53.0141  109.5134 C   0  0  0  0  0  0  0  0  0  0  0  0
   63.6517   57.0188  111.9975 C   0  0  0  0  0  0  0  0  0  0  0  0
   64.6663   55.1958  108.3066 C   0  0  0  0  0  0  0  0  0  0  0  0
   65.1236   54.5368  107.0116 C   0  0  0  0  0  0  0  0  0  0  0  0
   62.4210   56.1454  109.2967 C   0  0  0  0  0  0  0  0  0  0  0  0
   62.1190   51.5157  108.7151 C   0  0  0  0  0  0  0  0  0  0  0  0
   64.5504   55.0585  110.8110 C   0  0  0  0  0  0  0  0  0  0  0  0
   64.7393   54.3169  109.4592 C   0  0  0  0  0  0  0  0  0  0  0  0
   62.0026   57.3489  110.0704 C   0  0  0  0  0  0  0  0  0  0  0  0
   61.9669   48.8967  111.2375 C   0  0  0  0  0  0  0  0  0  0  0  0
   62.4268   57.7874  111.4802 C   0  0  0  0  0  0  0  0  0  0  0  0
   62.4092   50.7071  109.8453 C   0  0  0  0  0  0  0  0  0  0  0  0
   63.5813   56.1504  108.3992 O   0  0  0  0  0  0  0  0  0  0  0  0
   60.1017   56.6378  108.8572 C   0  0  0  0  0  0  0  0  0  0  0  0
   60.5624   57.4561  109.9362 N   0  0  0  0  0  0  0  0  0  0  0  0
   64.4800   56.5292  110.8758 N   0  0  0  0  0  0  0  0  0  0  0  0
   62.8196   52.7207  108.6266 C   0  0  0  0  0  0  0  0  0  0  0  0
   61.1926   55.6555  108.5512 C   0  0  0  0  0  0  0  0  0  0  0  0
   63.4836   51.0543  110.6732 N   0  0  0  0  0  0  0  0  0  0  0  0
   63.0748   49.1647  111.9883 C   0  0  0  0  0  0  0  0  0  0  0  0
   61.2528   51.1133  107.6826 O   0  0  0  0  0  0  0  0  0  0  0  0
   63.8074   50.2496  111.7306 C   0  0  0  0  0  0  0  0  0  0  0  0
   64.2222   52.1788  110.5080 C   0  0  0  0  0  0  0  0  0  0  0  0
  1 12  1  0
  1 14  2  0
  2 23  1  0
  3 10  1  0
  3 19  1  0
  3 25  2  0
  4 13  1  0
  4 18  1  0
  5  6  1  0
  5 10  1  0
  5 15  1  0
  7 11  1  0
  7 15  1  0
  7 20  1  0
  8 14  1  0
  8 19  2  0
  8 23  1  0
  9 10  1  0
  9 18  1  0
 11 13  1  0
 11 17  1  0
 12 22  1  0
 14 21  1  0
 16 17  1  0
 16 20  1  0
 21 24  1  0
 21 25  1  0
 22 24  2  0
M  END
>  <ID>  (1) 
conformer_0

$$$$
