
     RDKit          3D

 18 19  0  0  0  0  0  0  0  0999 V2000
   64.5725   51.4134  111.0471 O   0  0  0  0  0  0  0  0  0  0  0  0
   62.4556   56.0992  108.7851 C   0  0  0  0  0  0  0  0  0  0  0  0
   61.8021   49.2173  110.7201 O   0  0  0  0  0  0  0  0  0  0  0  0
   61.7673   54.7756  108.8718 C   0  0  0  0  0  0  0  0  0  0  0  0
   62.6982   53.8072  109.5808 C   0  0  0  0  0  0  0  0  0  0  0  0
   64.1047   54.2626  109.1702 C   0  0  0  0  0  0  0  0  0  0  0  0
   60.6880   54.7367  107.9978 O   0  0  0  0  0  0  0  0  0  0  0  0
   61.4604   50.2444  109.8643 N   0  0  0  0  0  0  0  0  0  0  0  0
   63.1889   55.9752  111.3062 O   0  0  0  0  0  0  0  0  0  0  0  0
   61.9562   52.2817  107.9267 O   0  0  0  0  0  0  0  0  0  0  0  0
   63.9961   55.8207  109.0171 C   0  0  0  0  0  0  0  0  0  0  0  0
   64.2522   56.3937  110.4291 C   0  0  0  0  0  0  0  0  0  0  0  0
   65.1918   54.0580  109.9596 O   0  0  0  0  0  0  0  0  0  0  0  0
   62.3869   56.6503  107.4574 O   0  0  0  0  0  0  0  0  0  0  0  0
   63.4787   50.7306  110.7743 C   0  0  0  0  0  0  0  0  0  0  0  0
   63.1332   49.5154  111.3194 O   0  0  0  0  0  0  0  0  0  0  0  0
   62.4528   51.2071  109.9053 C   0  0  0  0  0  0  0  0  0  0  0  0
   62.3936   52.3953  109.2011 N   0  0  0  0  0  0  0  0  0  0  0  0
  1 15  2  0
  2  4  1  0
  2 11  1  0
  2 14  1  0
  3  8  1  0
  3 16  1  0
  4  5  1  0
  4  7  1  0
  5  6  1  0
  5 18  1  0
  6 11  1  0
  6 13  1  0
  8 17  2  0
  9 12  1  0
 10 18  1  0
 11 12  1  0
 15 16  1  0
 15 17  1  0
 17 18  1  0
M  END
>  <ID>  (1) 
conformer_0

$$$$
