
     RDKit          3D

 11 11  0  0  0  0  0  0  0  0999 V2000
   62.2107   51.8087  109.6161 C   0  0  0  0  0  0  0  0  0  0  0  0
   61.0752   52.1586  110.3480 O   0  0  0  0  0  0  0  0  0  0  0  0
   62.1155   52.4950  108.2719 O   0  0  0  0  0  0  0  0  0  0  0  0
   63.4534   52.1552  110.5356 C   0  0  0  0  0  0  0  0  0  0  0  0
   64.0277   50.8095  111.1141 C   0  0  0  0  0  0  0  0  0  0  0  0
   62.0938   50.3053  109.3171 C   0  0  0  0  0  0  0  0  0  0  0  0
   63.9936   53.8993  108.7321 C   0  0  0  0  0  0  0  0  0  0  0  0
   63.5288   53.5244  111.0194 O   0  0  0  0  0  0  0  0  0  0  0  0
   64.6863   54.1697  107.5940 O   0  0  0  0  0  0  0  0  0  0  0  0
   62.4648   53.9459  108.5592 C   0  0  0  0  0  0  0  0  0  0  0  0
   64.3714   54.4888  110.0373 C   0  0  0  0  0  0  0  0  0  0  0  0
  1  2  1  0
  1  3  1  0
  1  4  1  0
  1  6  1  0
  3 10  1  0
  4  5  1  0
  4  8  1  0
  7  9  1  0
  7 10  1  0
  7 11  1  0
  8 11  1  0
M  END
>  <ID>  (1) 
conformer_0

$$$$
