
     RDKit          3D

 21 24  0  0  0  0  0  0  0  0999 V2000
   63.3396   49.3118  111.9236 C   0  0  0  0  0  0  0  0  0  0  0  0
   60.9108   50.1581  107.7834 C   0  0  0  0  0  0  0  0  0  0  0  0
   63.9109   53.9317  109.7575 C   0  0  0  0  0  0  0  0  0  0  0  0
   61.7481   49.6819  109.9353 C   0  0  0  0  0  0  0  0  0  0  0  0
   62.7655   57.3189  109.0882 C   0  0  0  0  0  0  0  0  0  0  0  0
   63.7395   55.7818  107.3340 C   0  0  0  0  0  0  0  0  0  0  0  0
   64.4026   57.2726  111.0699 N   0  0  0  0  0  0  0  0  0  0  0  0
   62.3503   56.2367  108.0103 C   0  0  0  0  0  0  0  0  0  0  0  0
   64.2122   55.3988  109.6137 C   0  0  0  0  0  0  0  0  0  0  0  0
   64.2087   57.7939  108.5325 C   0  0  0  0  0  0  0  0  0  0  0  0
   62.8847   49.9403  110.6871 C   0  0  0  0  0  0  0  0  0  0  0  0
   64.8047   56.2606  108.4658 C   0  0  0  0  0  0  0  0  0  0  0  0
   63.0476   51.3840  110.6371 C   0  0  0  0  0  0  0  0  0  0  0  0
   62.3134   51.8951  109.4635 C   0  0  0  0  0  0  0  0  0  0  0  0
   64.4421   53.6451  110.9954 O   0  0  0  0  0  0  0  0  0  0  0  0
   61.6574   50.7096  108.8998 C   0  0  0  0  0  0  0  0  0  0  0  0
   62.4938   53.4172  109.5320 C   0  0  0  0  0  0  0  0  0  0  0  0
   61.6401   54.7445  108.6452 S   0  0  0  0  0  0  0  0  0  0  0  0
   63.2836   56.4155  110.3793 C   0  0  0  0  0  0  0  0  0  0  0  0
   62.6914   51.9668  111.9708 C   0  0  0  0  0  0  0  0  0  0  0  0
   60.6511   49.2237  110.3804 O   0  0  0  0  0  0  0  0  0  0  0  0
  1 11  1  0
  2 16  1  0
  3  9  1  0
  3 15  1  0
  3 17  1  0
  4 11  1  0
  4 16  1  0
  4 21  2  0
  5  8  1  0
  5 10  1  0
  5 19  1  0
  6  8  1  0
  6 12  1  0
  7 19  1  0
  8 18  1  0
  9 12  1  0
  9 19  1  0
 10 12  1  0
 11 13  1  0
 13 14  1  0
 13 20  1  0
 14 16  1  0
 14 17  1  0
 17 18  1  0
M  END
>  <ID>  (1) 
conformer_0

$$$$
