
     RDKit          3D

  9  9  0  0  0  0  0  0  0  0999 V2000
   62.3224   52.7621  108.6347 C   0  0  0  0  0  0  0  0  0  0  0  0
   62.3309   51.9835  109.7702 C   0  0  0  0  0  0  0  0  0  0  0  0
   62.3654   50.4797  109.9282 C   0  0  0  0  0  0  0  0  0  0  0  0
   63.7279   53.8362  110.0846 C   0  0  0  0  0  0  0  0  0  0  0  0
   61.6790   52.4949  107.5655 O   0  0  0  0  0  0  0  0  0  0  0  0
   63.0860   53.9061  108.8550 N   0  0  0  0  0  0  0  0  0  0  0  0
   63.4041   52.6188  110.7005 N   0  0  0  0  0  0  0  0  0  0  0  0
   64.7232   54.5964  110.5942 N   0  0  0  0  0  0  0  0  0  0  0  0
   63.2850   49.9494  111.0728 C   0  0  0  0  0  0  0  0  0  0  0  0
  1  2  1  0
  1  5  2  0
  1  6  1  0
  2  3  1  0
  2  7  1  0
  3  9  1  0
  4  6  1  0
  4  7  1  0
  4  8  2  0
M  END
>  <ID>  (1) 
conformer_0

$$$$
