
     RDKit          3D

 26 27  0  0  0  0  0  0  0  0999 V2000
   60.6412   49.8075  108.0134 O   0  0  0  0  0  0  0  0  0  0  0  0
   64.4692   51.7092  110.5875 C   0  0  0  0  0  0  0  0  0  0  0  0
   61.3263   50.7993  108.3120 C   0  0  0  0  0  0  0  0  0  0  0  0
   64.1318   55.1115  107.9367 C   0  0  0  0  0  0  0  0  0  0  0  0
   62.2088   50.8826  109.5451 C   0  0  0  0  0  0  0  0  0  0  0  0
   65.0646   56.2380  107.5813 N   0  0  0  0  0  0  0  0  0  0  0  0
   63.3536   57.5883  108.5492 C   0  0  0  0  0  0  0  0  0  0  0  0
   61.9415   57.5968  108.1238 O   0  0  0  0  0  0  0  0  0  0  0  0
   63.3713   55.2037  109.2830 C   0  0  0  0  0  0  0  0  0  0  0  0
   61.2962   48.6022  110.2474 C   0  0  0  0  0  0  0  0  0  0  0  0
   64.3779   57.4922  107.4394 C   0  0  0  0  0  0  0  0  0  0  0  0
   63.1696   49.7170  111.4486 C   0  0  0  0  0  0  0  0  0  0  0  0
   61.9600   54.7908  109.0701 O   0  0  0  0  0  0  0  0  0  0  0  0
   63.9448   54.2521  110.3172 C   0  0  0  0  0  0  0  0  0  0  0  0
   63.5121   52.7969  110.5092 C   0  0  0  0  0  0  0  0  0  0  0  0
   63.0794   56.1169  111.9582 O   0  0  0  0  0  0  0  0  0  0  0  0
   64.2327   50.6608  111.4451 C   0  0  0  0  0  0  0  0  0  0  0  0
   61.0388   57.8005  109.2408 O   0  0  0  0  0  0  0  0  0  0  0  0
   61.1021   48.0016  111.5625 F   0  0  0  0  0  0  0  0  0  0  0  0
   64.8856   58.9076  107.1759 C   0  0  0  0  0  0  0  0  0  0  0  0
   62.3191   49.6612  110.2736 C   0  0  0  0  0  0  0  0  0  0  0  0
   63.8814   56.9317  111.0837 C   0  0  0  0  0  0  0  0  0  0  0  0
   61.4549   51.8138  107.5148 O   0  0  0  0  0  0  0  0  0  0  0  0
   62.1927   52.2036  110.2029 C   0  0  0  0  0  0  0  0  0  0  0  0
   65.1570   54.5627  110.8101 O   0  0  0  0  0  0  0  0  0  0  0  0
   63.6818   56.6533  109.6510 C   0  0  0  0  0  0  0  0  0  0  0  0
  1  3  2  0
  2 15  1  0
  2 17  1  0
  3  5  1  0
  3 23  1  0
  4  6  1  0
  4  9  1  0
  5 21  1  0
  5 24  1  0
  6 11  1  0
  7  8  1  0
  7 11  1  0
  7 26  1  0
  8 18  1  0
  9 13  1  0
  9 14  1  0
  9 26  1  0
 10 19  1  0
 10 21  1  0
 11 20  1  0
 12 17  2  0
 12 21  1  0
 14 15  1  0
 14 25  1  0
 15 24  1  0
 16 22  1  0
 22 26  1  0
M  END
>  <ID>  (1) 
conformer_0

$$$$
