
     RDKit          3D

 31 36  0  0  0  0  0  0  0  0999 V2000
   63.4399   54.9922  108.7838 C   0  0  0  0  0  0  0  0  0  0  0  0
   63.6245   58.7612  109.1499 C   0  0  0  0  0  0  0  0  0  0  0  0
   59.6499   59.8200  110.1375 C   0  0  0  0  0  0  0  0  0  0  0  0
   63.7562   53.8201  110.7679 N   0  0  0  0  0  0  0  0  0  0  0  0
   63.1217   51.0438  111.3074 C   0  0  0  0  0  0  0  0  0  0  0  0
   61.6016   52.1707  107.3961 O   0  0  0  0  0  0  0  0  0  0  0  0
   62.0552   58.7320  109.2219 C   0  0  0  0  0  0  0  0  0  0  0  0
   63.6645   59.5563  110.6077 C   0  0  0  0  0  0  0  0  0  0  0  0
   63.3912   49.5448  111.2607 C   0  0  0  0  0  0  0  0  0  0  0  0
   60.6597   57.0045  107.8309 C   0  0  0  0  0  0  0  0  0  0  0  0
   65.6664   54.8397  109.7309 O   0  0  0  0  0  0  0  0  0  0  0  0
   64.3035   57.4842  109.3606 C   0  0  0  0  0  0  0  0  0  0  0  0
   59.4961   58.4386  109.5153 C   0  0  0  0  0  0  0  0  0  0  0  0
   62.0538   48.8414  111.2752 C   0  0  0  0  0  0  0  0  0  0  0  0
   64.1279   55.7832  107.6354 C   0  0  0  0  0  0  0  0  0  0  0  0
   64.2215   56.5772  110.5130 C   0  0  0  0  0  0  0  0  0  0  0  0
   64.5759   59.4003  108.1760 C   0  0  0  0  0  0  0  0  0  0  0  0
   63.1478   53.5432  108.4945 C   0  0  0  0  0  0  0  0  0  0  0  0
   61.0238   54.1975  107.7766 O   0  0  0  0  0  0  0  0  0  0  0  0
   62.0850   59.2444  110.6714 C   0  0  0  0  0  0  0  0  0  0  0  0
   65.0336   56.9746  108.1873 C   0  0  0  0  0  0  0  0  0  0  0  0
   61.8302   53.2776  107.9313 C   0  0  0  0  0  0  0  0  0  0  0  0
   64.2916   55.0845  110.0394 C   0  0  0  0  0  0  0  0  0  0  0  0
   60.7902   58.1901  108.8226 C   0  0  0  0  0  0  0  0  0  0  0  0
   62.7068   51.5253  109.9581 C   0  0  0  0  0  0  0  0  0  0  0  0
   61.1929   49.6346  110.3931 O   0  0  0  0  0  0  0  0  0  0  0  0
   60.7451   59.6125  111.2060 C   0  0  0  0  0  0  0  0  0  0  0  0
   61.9410   50.3530  109.3749 C   0  0  0  0  0  0  0  0  0  0  0  0
   63.3004   56.7598  111.5636 O   0  0  0  0  0  0  0  0  0  0  0  0
   65.2793   58.2545  107.3973 C   0  0  0  0  0  0  0  0  0  0  0  0
   63.4828   52.7838  109.7165 C   0  0  0  0  0  0  0  0  0  0  0  0
  1 15  1  0
  1 18  1  0
  1 23  1  0
  2  7  1  0
  2  8  1  0
  2 12  1  0
  2 17  1  0
  3 13  1  0
  3 27  1  0
  4 23  1  0
  4 31  1  0
  5  9  1  0
  5 25  1  0
  6 22  2  0
  7 20  1  0
  7 24  1  0
  8 20  1  0
  9 14  1  0
 10 24  1  0
 11 23  1  0
 12 16  1  0
 12 21  1  0
 13 24  1  0
 14 26  1  0
 15 21  1  0
 16 23  1  0
 16 29  1  0
 17 30  1  0
 18 22  1  0
 18 31  1  0
 19 22  1  0
 20 27  1  0
 21 30  1  0
 25 28  1  0
 25 31  1  0
 26 28  1  0
M  END
>  <ID>  (1) 
conformer_0

$$$$
