
     RDKit          3D

 21 23  0  0  0  0  0  0  0  0999 V2000
   62.6181   54.9241  109.2285 C   0  0  0  0  0  0  0  0  0  0  0  0
   61.8846   50.2837  109.5300 C   0  0  0  0  0  0  0  0  0  0  0  0
   61.6002   49.4501  110.7669 C   0  0  0  0  0  0  0  0  0  0  0  0
   61.8920   57.1711  110.6305 O   0  0  0  0  0  0  0  0  0  0  0  0
   62.2172   56.7415  107.7188 O   0  0  0  0  0  0  0  0  0  0  0  0
   63.1582   56.3098  108.7051 C   0  0  0  0  0  0  0  0  0  0  0  0
   64.0257   49.7377  111.1055 C   0  0  0  0  0  0  0  0  0  0  0  0
   64.2753   57.0403  110.9830 C   0  0  0  0  0  0  0  0  0  0  0  0
   63.5116   52.1101  110.2632 C   0  0  0  0  0  0  0  0  0  0  0  0
   61.4115   52.2725  107.2907 O   0  0  0  0  0  0  0  0  0  0  0  0
   64.3094   53.3084  110.0845 C   0  0  0  0  0  0  0  0  0  0  0  0
   60.7107   50.1012  108.7258 O   0  0  0  0  0  0  0  0  0  0  0  0
   62.0338   52.6443  108.3660 C   0  0  0  0  0  0  0  0  0  0  0  0
   63.6996   58.6864  109.2061 C   0  0  0  0  0  0  0  0  0  0  0  0
   64.2607   55.5043  111.2414 C   0  0  0  0  0  0  0  0  0  0  0  0
   63.1767   57.3833  109.8784 C   0  0  0  0  0  0  0  0  0  0  0  0
   62.8742   53.8625  108.1046 C   0  0  0  0  0  0  0  0  0  0  0  0
   64.0958   51.1809  111.1734 C   0  0  0  0  0  0  0  0  0  0  0  0
   62.3832   51.6749  109.4204 C   0  0  0  0  0  0  0  0  0  0  0  0
   63.4601   54.4943  110.4291 C   0  0  0  0  0  0  0  0  0  0  0  0
   62.7317   49.1861  111.6972 C   0  0  0  0  0  0  0  0  0  0  0  0
  1  6  1  0
  1 17  1  0
  1 20  1  0
  2  3  1  0
  2 12  1  0
  2 19  1  0
  3 21  1  0
  4 16  1  0
  5  6  1  0
  6 16  1  0
  7 18  1  0
  7 21  1  0
  8 15  1  0
  8 16  1  0
  9 11  1  0
  9 18  1  0
  9 19  2  0
 10 13  1  0
 11 20  1  0
 13 17  1  0
 13 19  1  0
 14 16  1  0
 15 20  1  0
M  END
>  <ID>  (1) 
conformer_0

$$$$
