
     RDKit          3D

 31 38  0  0  0  0  0  0  0  0999 V2000
   64.9790   53.4290  109.4673 C   0  0  0  0  0  0  0  0  0  0  0  0
   63.6448   59.3128  109.8785 C   0  0  0  0  0  0  0  0  0  0  0  0
   61.2864   57.3937  108.5725 C   0  0  0  0  0  0  0  0  0  0  0  0
   64.3679   52.2215  110.2241 C   0  0  0  0  0  0  0  0  0  0  0  0
   62.7017   56.7699  108.4484 C   0  0  0  0  0  0  0  0  0  0  0  0
   60.3806   56.2071  106.7077 O   0  0  0  0  0  0  0  0  0  0  0  0
   62.4699   58.1820  111.8716 C   0  0  0  0  0  0  0  0  0  0  0  0
   64.4502   59.1625  108.7127 C   0  0  0  0  0  0  0  0  0  0  0  0
   61.0265   48.5705  110.2510 C   0  0  0  0  0  0  0  0  0  0  0  0
   61.1787   50.1628  108.3760 C   0  0  0  0  0  0  0  0  0  0  0  0
   64.6539   54.8840  109.2913 C   0  0  0  0  0  0  0  0  0  0  0  0
   63.3605   50.2340  111.0976 C   0  0  0  0  0  0  0  0  0  0  0  0
   61.8655   49.3345  109.3918 C   0  0  0  0  0  0  0  0  0  0  0  0
   64.5526   50.9987  111.0257 O   0  0  0  0  0  0  0  0  0  0  0  0
   63.6299   57.2163  112.3165 C   0  0  0  0  0  0  0  0  0  0  0  0
   62.6262   58.2799  110.3351 C   0  0  0  0  0  0  0  0  0  0  0  0
   63.2485   56.7936  109.9654 C   0  0  0  0  0  0  0  0  0  0  0  0
   61.8298   51.4756  108.7181 C   0  0  0  0  0  0  0  0  0  0  0  0
   61.3320   58.3411  109.6395 O   0  0  0  0  0  0  0  0  0  0  0  0
   63.8912   60.1986  110.7453 O   0  0  0  0  0  0  0  0  0  0  0  0
   62.2194   54.4605  109.1767 C   0  0  0  0  0  0  0  0  0  0  0  0
   62.9000   52.4532  110.4288 C   0  0  0  0  0  0  0  0  0  0  0  0
   64.5024   56.9467  111.0132 C   0  0  0  0  0  0  0  0  0  0  0  0
   62.4536   55.3039  107.8947 C   0  0  0  0  0  0  0  0  0  0  0  0
   63.2517   55.1143  110.1419 C   0  0  0  0  0  0  0  0  0  0  0  0
   62.9380   48.9794  111.6505 N   0  0  0  0  0  0  0  0  0  0  0  0
   62.2864   52.9294  109.1387 C   0  0  0  0  0  0  0  0  0  0  0  0
   61.5305   48.5681  111.6222 C   0  0  0  0  0  0  0  0  0  0  0  0
   62.4212   50.7624  110.0190 C   0  0  0  0  0  0  0  0  0  0  0  0
   60.1405   56.6245  108.0829 C   0  0  0  0  0  0  0  0  0  0  0  0
   62.5553   52.9617  111.6208 O   0  0  0  0  0  0  0  0  0  0  0  0
  1  4  1  0
  1 11  1  0
  2  8  1  0
  2 16  1  0
  2 20  2  0
  3  5  1  0
  3 19  1  0
  3 30  1  0
  4 14  1  0
  4 22  1  0
  5 17  1  0
  5 24  1  0
  6 30  1  0
  7 15  1  0
  7 16  1  0
  9 13  1  0
  9 28  1  0
 10 13  1  0
 10 18  1  0
 11 25  1  0
 12 14  1  0
 12 26  1  0
 12 29  1  0
 13 29  1  0
 15 23  1  0
 16 17  1  0
 16 19  1  0
 17 23  1  0
 17 25  1  0
 18 27  1  0
 18 29  1  0
 21 24  1  0
 21 25  1  0
 21 27  1  0
 22 27  1  0
 22 29  1  0
 22 31  1  0
 26 28  1  0
M  END
>  <ID>  (1) 
conformer_0

$$$$
