
     RDKit          3D

 17 18  0  0  0  0  0  0  0  0999 V2000
   63.4460   51.2368  110.4331 C   0  0  0  0  0  0  0  0  0  0  0  0
   61.7590   50.1079  109.5434 O   0  0  0  0  0  0  0  0  0  0  0  0
   64.1407   55.9795  108.8202 C   0  0  0  0  0  0  0  0  0  0  0  0
   63.0165   48.8446  111.2805 C   0  0  0  0  0  0  0  0  0  0  0  0
   64.4512   55.4504  110.1620 C   0  0  0  0  0  0  0  0  0  0  0  0
   62.3639   54.3233  108.5459 C   0  0  0  0  0  0  0  0  0  0  0  0
   60.2032   54.5614  107.5418 O   0  0  0  0  0  0  0  0  0  0  0  0
   62.7636   52.1447  109.6055 C   0  0  0  0  0  0  0  0  0  0  0  0
   62.7950   55.6112  108.3598 O   0  0  0  0  0  0  0  0  0  0  0  0
   63.1535   53.5647  109.4843 C   0  0  0  0  0  0  0  0  0  0  0  0
   64.2816   54.0470  110.2201 N   0  0  0  0  0  0  0  0  0  0  0  0
   64.5497   51.5177  111.0929 O   0  0  0  0  0  0  0  0  0  0  0  0
   62.8191   49.9969  110.4669 C   0  0  0  0  0  0  0  0  0  0  0  0
   61.7185   51.4363  109.0271 N   0  0  0  0  0  0  0  0  0  0  0  0
   61.2590   53.7652  107.7384 C   0  0  0  0  0  0  0  0  0  0  0  0
   63.8760   56.1437  111.3868 C   0  0  0  0  0  0  0  0  0  0  0  0
   62.5387   56.6266  111.1157 O   0  0  0  0  0  0  0  0  0  0  0  0
  1  8  1  0
  1 12  1  0
  1 13  2  0
  2 13  1  0
  2 14  1  0
  3  5  1  0
  3  9  1  0
  4 13  1  0
  5 11  1  0
  5 16  1  0
  6  9  1  0
  6 10  2  0
  6 15  1  0
  7 15  1  0
  8 10  1  0
  8 14  1  0
 10 11  1  0
 16 17  1  0
M  END
>  <ID>  (1) 
conformer_0

$$$$
