
     RDKit          3D

 22 23  0  0  0  0  0  0  0  0999 V2000
   63.7675   52.9746  110.6023 C   0  0  0  0  0  0  0  0  0  0  0  0
   63.3610   51.5753  110.5009 C   0  0  0  0  0  0  0  0  0  0  0  0
   65.2545   54.9273  111.0383 O   0  0  0  0  0  0  0  0  0  0  0  0
   60.1711   56.6909  108.8320 O   0  0  0  0  0  0  0  0  0  0  0  0
   64.0911   54.6292  108.8099 C   0  0  0  0  0  0  0  0  0  0  0  0
   62.1909   49.1146  110.1950 C   0  0  0  0  0  0  0  0  0  0  0  0
   64.4980   57.3445  111.3353 N   0  0  0  0  0  0  0  0  0  0  0  0
   63.5101   53.3962  109.1129 N   0  0  0  0  0  0  0  0  0  0  0  0
   61.7425   55.0286  108.4029 C   0  0  0  0  0  0  0  0  0  0  0  0
   63.7776   56.6956  110.2247 C   0  0  0  0  0  0  0  0  0  0  0  0
   60.8956   49.9627  108.2691 C   0  0  0  0  0  0  0  0  0  0  0  0
   62.2986   56.9579  109.9305 C   0  0  0  0  0  0  0  0  0  0  0  0
   64.2901   55.3060  110.1481 C   0  0  0  0  0  0  0  0  0  0  0  0
   61.7852   57.8155  111.0929 C   0  0  0  0  0  0  0  0  0  0  0  0
   63.0566   55.3148  107.9830 O   0  0  0  0  0  0  0  0  0  0  0  0
   61.8882   50.1448  109.3358 C   0  0  0  0  0  0  0  0  0  0  0  0
   62.4934   51.3400  109.4913 C   0  0  0  0  0  0  0  0  0  0  0  0
   61.2004   55.9863  109.4329 C   0  0  0  0  0  0  0  0  0  0  0  0
   63.7863   50.5702  111.3619 C   0  0  0  0  0  0  0  0  0  0  0  0
   63.1266   49.3278  111.1840 C   0  0  0  0  0  0  0  0  0  0  0  0
   65.2668   54.5778  108.0598 O   0  0  0  0  0  0  0  0  0  0  0  0
   60.8978   54.1270  107.9869 O   0  0  0  0  0  0  0  0  0  0  0  0
  1  2  1  0
  1  8  1  0
  2 17  1  0
  2 19  1  0
  3 13  1  0
  4 18  1  0
  5  8  1  0
  5 13  1  0
  5 15  1  0
  5 21  1  0
  6 16  1  0
  6 20  2  0
  7 10  1  0
  9 15  1  0
  9 18  1  0
  9 22  2  0
 10 12  1  0
 10 13  1  0
 11 16  1  0
 12 14  1  0
 12 18  1  0
 16 17  2  0
 19 20  1  0
M  END
>  <ID>  (1) 
conformer_0

$$$$
