
     RDKit          3D

 22 25  0  0  0  0  0  0  0  0999 V2000
   64.5514   51.5760  111.1910 N   0  0  0  0  0  0  0  0  0  0  0  0
   63.2263   55.1425  108.1083 C   0  0  0  0  0  0  0  0  0  0  0  0
   63.9765   50.2720  111.2421 C   0  0  0  0  0  0  0  0  0  0  0  0
   60.6308   49.9719  107.6318 N   0  0  0  0  0  0  0  0  0  0  0  0
   63.7539   52.3540  110.5112 C   0  0  0  0  0  0  0  0  0  0  0  0
   62.6737   57.2321  109.1540 C   0  0  0  0  0  0  0  0  0  0  0  0
   63.9011   53.7151  110.1709 C   0  0  0  0  0  0  0  0  0  0  0  0
   61.9164   49.5197  109.6548 N   0  0  0  0  0  0  0  0  0  0  0  0
   61.7781   50.3333  111.8463 O   0  0  0  0  0  0  0  0  0  0  0  0
   61.9113   51.6248  108.8388 C   0  0  0  0  0  0  0  0  0  0  0  0
   64.5568   56.8607  110.9793 O   0  0  0  0  0  0  0  0  0  0  0  0
   63.7260   56.0948  110.2068 C   0  0  0  0  0  0  0  0  0  0  0  0
   62.8451   54.2021  109.2685 N   0  0  0  0  0  0  0  0  0  0  0  0
   61.3797   50.2504  108.6720 C   0  0  0  0  0  0  0  0  0  0  0  0
   62.3620   56.3458  110.3751 O   0  0  0  0  0  0  0  0  0  0  0  0
   62.6281   51.7061  110.0472 C   0  0  0  0  0  0  0  0  0  0  0  0
   62.5409   50.3586  110.7376 C   0  0  0  0  0  0  0  0  0  0  0  0
   60.9287   55.9052  107.8296 O   0  0  0  0  0  0  0  0  0  0  0  0
   64.0862   57.4318  108.5086 O   0  0  0  0  0  0  0  0  0  0  0  0
   61.6771   52.4324  107.8885 O   0  0  0  0  0  0  0  0  0  0  0  0
   62.2399   56.3023  108.0079 C   0  0  0  0  0  0  0  0  0  0  0  0
   64.4342   55.9390  108.7974 C   0  0  0  0  0  0  0  0  0  0  0  0
  1  3  1  0
  1  5  1  0
  2 13  1  0
  2 21  1  0
  2 22  1  0
  3 17  1  0
  4 14  2  0
  5  7  1  0
  5 16  1  0
  6 15  1  0
  6 19  1  0
  6 21  1  0
  7 13  1  0
  8 14  1  0
  8 17  1  0
  9 17  1  0
 10 14  1  0
 10 16  1  0
 10 20  2  0
 11 12  2  0
 12 15  1  0
 12 22  1  0
 16 17  1  0
 18 21  1  0
 19 22  1  0
M  END
>  <ID>  (1) 
conformer_0

$$$$
