
     RDKit          3D

 19 20  0  0  0  0  0  0  0  0999 V2000
   61.7141   52.7591  109.1411 N   0  0  0  0  0  0  0  0  0  0  0  0
   61.0913   54.9441  108.2804 C   0  0  0  0  0  0  0  0  0  0  0  0
   63.4856   54.6346  108.7021 C   0  0  0  0  0  0  0  0  0  0  0  0
   62.2465   49.2376  110.1764 C   0  0  0  0  0  0  0  0  0  0  0  0
   64.1949   53.1218  110.4894 C   0  0  0  0  0  0  0  0  0  0  0  0
   63.9534   57.1043  109.6799 O   0  0  0  0  0  0  0  0  0  0  0  0
   63.9498   56.1021  110.5714 C   0  0  0  0  0  0  0  0  0  0  0  0
   65.7295   54.7716  109.6628 O   0  0  0  0  0  0  0  0  0  0  0  0
   64.3574   54.6532  110.0754 C   0  0  0  0  0  0  0  0  0  0  0  0
   63.2278   49.4568  111.1103 C   0  0  0  0  0  0  0  0  0  0  0  0
   60.7869   49.9752  108.1300 Cl  0  0  0  0  0  0  0  0  0  0  0  0
   63.4785   51.7698  110.4178 C   0  0  0  0  0  0  0  0  0  0  0  0
   64.0417   53.8188  107.7174 O   0  0  0  0  0  0  0  0  0  0  0  0
   62.0691   54.1947  109.1864 C   0  0  0  0  0  0  0  0  0  0  0  0
   61.4676   55.5433  109.5492 O   0  0  0  0  0  0  0  0  0  0  0  0
   62.3810   51.5949  109.6173 C   0  0  0  0  0  0  0  0  0  0  0  0
   63.1356   56.1274  111.6092 O   0  0  0  0  0  0  0  0  0  0  0  0
   61.8554   50.2907  109.3683 C   0  0  0  0  0  0  0  0  0  0  0  0
   63.9150   50.7026  111.1927 C   0  0  0  0  0  0  0  0  0  0  0  0
  1 14  1  0
  1 16  2  0
  2 14  1  0
  2 15  1  0
  3  9  1  0
  3 13  1  0
  3 14  1  0
  4 10  2  0
  4 18  1  0
  5  9  1  0
  5 12  1  0
  6  7  2  0
  7  9  1  0
  7 17  1  0
  8  9  1  0
 10 19  1  0
 11 18  1  0
 12 16  1  0
 12 19  2  0
 16 18  1  0
M  END
>  <ID>  (1) 
conformer_0

$$$$
