
     RDKit          3D

 17 18  0  0  0  0  0  0  0  0999 V2000
   61.3299   50.0825  108.3729 O   0  0  0  0  0  0  0  0  0  0  0  0
   63.5438   51.1108  110.9435 C   0  0  0  0  0  0  0  0  0  0  0  0
   63.4095   53.7229  111.4453 O   0  0  0  0  0  0  0  0  0  0  0  0
   64.0154   56.1795  110.6346 C   0  0  0  0  0  0  0  0  0  0  0  0
   64.9553   52.9002  109.6448 O   0  0  0  0  0  0  0  0  0  0  0  0
   64.0602   55.1302  109.4778 C   0  0  0  0  0  0  0  0  0  0  0  0
   62.8210   55.3995  108.5774 C   0  0  0  0  0  0  0  0  0  0  0  0
   63.6022   49.6571  111.1366 C   0  0  0  0  0  0  0  0  0  0  0  0
   62.5478   53.0340  109.2513 C   0  0  0  0  0  0  0  0  0  0  0  0
   61.9989   52.6828  107.8231 O   0  0  0  0  0  0  0  0  0  0  0  0
   61.7834   54.4336  109.2578 O   0  0  0  0  0  0  0  0  0  0  0  0
   62.3493   48.9954  111.4472 C   0  0  0  0  0  0  0  0  0  0  0  0
   62.5981   51.5276  109.8691 C   0  0  0  0  0  0  0  0  0  0  0  0
   61.7231   50.4189  109.5905 C   0  0  0  0  0  0  0  0  0  0  0  0
   61.2733   49.6210  110.7171 C   0  0  0  0  0  0  0  0  0  0  0  0
   65.0596   55.8185  111.5845 O   0  0  0  0  0  0  0  0  0  0  0  0
   63.8585   53.6740  110.0920 C   0  0  0  0  0  0  0  0  0  0  0  0
  1 14  1  0
  2  8  1  0
  2 13  1  0
  3 17  1  0
  4  6  1  0
  4 16  1  0
  5 17  1  0
  6  7  1  0
  6 17  1  0
  7 11  1  0
  8 12  1  0
  9 10  1  0
  9 11  1  0
  9 13  1  0
  9 17  1  0
 12 15  1  0
 13 14  1  0
 14 15  1  0
M  END
>  <ID>  (1) 
conformer_0

$$$$
