
     RDKit          3D

 17 18  0  0  0  0  0  0  0  0999 V2000
   62.5245   56.6098  110.0479 C   0  0  0  0  0  0  0  0  0  0  0  0
   63.7559   50.7811  111.0363 C   0  0  0  0  0  0  0  0  0  0  0  0
   64.5468   57.9843  109.6794 O   0  0  0  0  0  0  0  0  0  0  0  0
   62.3999   51.5353  109.1799 C   0  0  0  0  0  0  0  0  0  0  0  0
   63.0488   49.5942  111.0108 C   0  0  0  0  0  0  0  0  0  0  0  0
   62.0392   49.3795  110.1034 C   0  0  0  0  0  0  0  0  0  0  0  0
   61.6693   50.3703  109.1811 C   0  0  0  0  0  0  0  0  0  0  0  0
   64.5572   55.2599  109.6996 C   0  0  0  0  0  0  0  0  0  0  0  0
   63.6812   57.5140  110.5114 C   0  0  0  0  0  0  0  0  0  0  0  0
   64.2082   52.9107  110.3083 N   0  0  0  0  0  0  0  0  0  0  0  0
   62.1917   52.5782  108.2410 O   0  0  0  0  0  0  0  0  0  0  0  0
   62.9829   55.0617  109.9491 C   0  0  0  0  0  0  0  0  0  0  0  0
   63.4216   51.7607  110.1137 C   0  0  0  0  0  0  0  0  0  0  0  0
   65.1523   53.9468  110.1999 C   0  0  0  0  0  0  0  0  0  0  0  0
   61.1321   54.7141  108.4219 O   0  0  0  0  0  0  0  0  0  0  0  0
   63.8795   57.5486  111.7934 O   0  0  0  0  0  0  0  0  0  0  0  0
   62.4154   54.0453  108.8180 C   0  0  0  0  0  0  0  0  0  0  0  0
  1  9  1  0
  1 12  1  0
  2  5  2  0
  2 13  1  0
  3  9  2  0
  4  7  1  0
  4 11  1  0
  4 13  2  0
  5  6  1  0
  6  7  2  0
  8 12  1  0
  8 14  1  0
  9 16  1  0
 10 13  1  0
 10 14  1  0
 11 17  1  0
 12 17  1  0
 15 17  2  0
M  END
>  <ID>  (1) 
conformer_0

$$$$
