
     RDKit          3D

 25 28  0  0  0  0  0  0  0  0999 V2000
   61.5533   51.8202  107.2960 F   0  0  0  0  0  0  0  0  0  0  0  0
   63.7386   51.5594  110.7468 C   0  0  0  0  0  0  0  0  0  0  0  0
   61.9965   50.5971  109.3174 C   0  0  0  0  0  0  0  0  0  0  0  0
   60.6816   49.6649  107.5290 F   0  0  0  0  0  0  0  0  0  0  0  0
   64.1660   57.3016  108.6579 C   0  0  0  0  0  0  0  0  0  0  0  0
   62.6142   57.2511  108.9677 C   0  0  0  0  0  0  0  0  0  0  0  0
   63.3116   59.6182  108.6654 C   0  0  0  0  0  0  0  0  0  0  0  0
   61.0554   55.4510  109.0168 O   0  0  0  0  0  0  0  0  0  0  0  0
   64.6810   56.6438  109.9274 N   0  0  0  0  0  0  0  0  0  0  0  0
   64.6756   58.8236  108.6647 C   0  0  0  0  0  0  0  0  0  0  0  0
   62.7226   51.6535  109.7945 C   0  0  0  0  0  0  0  0  0  0  0  0
   63.9144   57.1855  111.1808 C   0  0  0  0  0  0  0  0  0  0  0  0
   63.5799   58.6791  110.9033 C   0  0  0  0  0  0  0  0  0  0  0  0
   63.4549   49.3456  111.6642 C   0  0  0  0  0  0  0  0  0  0  0  0
   61.8361   49.3613  109.8891 C   0  0  0  0  0  0  0  0  0  0  0  0
   62.4831   58.7219  109.7005 C   0  0  0  0  0  0  0  0  0  0  0  0
   63.0609   54.1713  109.7473 C   0  0  0  0  0  0  0  0  0  0  0  0
   61.5690   52.9295  108.1397 C   0  0  0  0  0  0  0  0  0  0  0  0
   61.3615   50.6499  108.0512 C   0  0  0  0  0  0  0  0  0  0  0  0
   64.0615   50.5050  111.5413 C   0  0  0  0  0  0  0  0  0  0  0  0
   62.4233   52.9319  109.2763 C   0  0  0  0  0  0  0  0  0  0  0  0
   64.1308   54.1739  110.4888 N   0  0  0  0  0  0  0  0  0  0  0  0
   62.5378   55.4687  109.2911 N   0  0  0  0  0  0  0  0  0  0  0  0
   62.4565   48.7747  110.9424 C   0  0  0  0  0  0  0  0  0  0  0  0
   64.9732   59.0995  110.2024 C   0  0  0  0  0  0  0  0  0  0  0  0
  1 18  1  0
  2 11  2  0
  2 20  1  0
  3 11  1  0
  3 15  1  0
  3 19  2  3
  4 19  1  0
  5  6  1  0
  5  9  1  0
  5 10  1  0
  6 16  1  0
  6 23  1  0
  7 10  1  0
  7 16  1  0
  8 23  1  0
  9 12  1  0
 10 25  1  0
 11 21  1  0
 12 13  1  0
 13 16  1  0
 13 25  1  0
 14 20  2  0
 14 24  1  0
 15 24  2  0
 17 21  1  0
 17 22  2  0
 17 23  1  0
 18 21  1  0
M  END
>  <ID>  (1) 
conformer_0

$$$$
