
     RDKit          3D

 32 35  0  0  0  0  0  0  0  0999 V2000
   65.4934   54.2118  110.5073 N   0  0  0  0  0  0  0  0  0  0  0  0
   63.7035   57.3250  107.6291 O   0  0  0  0  0  0  0  0  0  0  0  0
   59.1422   56.9948  108.6482 N   0  0  0  0  0  0  0  0  0  0  0  0
   63.3050   57.8380  110.8833 N   0  0  0  0  0  0  0  0  0  0  0  0
   61.2682   57.5777  109.6012 C   0  0  0  0  0  0  0  0  0  0  0  0
   62.6435   49.1651  111.5455 C   0  0  0  0  0  0  0  0  0  0  0  0
   61.3711   59.3482  111.3927 C   0  0  0  0  0  0  0  0  0  0  0  0
   61.2544   49.7628  109.6369 C   0  0  0  0  0  0  0  0  0  0  0  0
   61.7822   54.6879  108.0276 N   0  0  0  0  0  0  0  0  0  0  0  0
   63.8080   51.0555  110.6254 C   0  0  0  0  0  0  0  0  0  0  0  0
   61.1615   53.6330  107.8561 N   0  0  0  0  0  0  0  0  0  0  0  0
   63.6509   50.0358  111.4262 C   0  0  0  0  0  0  0  0  0  0  0  0
   61.8730   50.8321  109.0656 C   0  0  0  0  0  0  0  0  0  0  0  0
   62.8380   59.0478  111.5099 C   0  0  0  0  0  0  0  0  0  0  0  0
   63.0561   53.0699  109.4631 C   0  0  0  0  0  0  0  0  0  0  0  0
   61.5309   51.1018  107.8314 O   0  0  0  0  0  0  0  0  0  0  0  0
   60.6168   58.4978  110.4238 C   0  0  0  0  0  0  0  0  0  0  0  0
   65.1149   54.9596  107.7793 C   0  0  0  0  0  0  0  0  0  0  0  0
   64.1225   54.0532  109.8695 C   0  0  0  0  0  0  0  0  0  0  0  0
   64.1125   56.9598  111.6422 C   0  0  0  0  0  0  0  0  0  0  0  0
   63.5582   55.7111  111.9567 O   0  0  0  0  0  0  0  0  0  0  0  0
   62.9132   51.6263  109.6949 C   0  0  0  0  0  0  0  0  0  0  0  0
   60.4990   56.8380  108.6892 C   0  0  0  0  0  0  0  0  0  0  0  0
   63.4671   56.6099  108.7732 C   0  0  0  0  0  0  0  0  0  0  0  0
   64.0811   55.2590  108.9452 C   0  0  0  0  0  0  0  0  0  0  0  0
   61.0881   55.9124  107.6994 C   0  0  0  0  0  0  0  0  0  0  0  0
   65.0269   51.6500  110.7752 F   0  0  0  0  0  0  0  0  0  0  0  0
   62.7028   57.3817  109.7335 C   0  0  0  0  0  0  0  0  0  0  0  0
   58.5795   57.8939  109.4803 C   0  0  0  0  0  0  0  0  0  0  0  0
   61.5496   49.0700  110.7589 C   0  0  0  0  0  0  0  0  0  0  0  0
   59.2488   58.6754  110.3400 N   0  0  0  0  0  0  0  0  0  0  0  0
   62.1698   53.6097  108.4613 N   0  0  0  0  0  0  0  0  0  0  0  0
  1 19  1  0
  2 24  1  0
  3 23  2  0
  3 29  1  0
  4 14  1  0
  4 20  1  0
  4 28  1  0
  5 17  2  0
  5 23  1  0
  5 28  1  0
  6 12  1  0
  6 30  2  0
  7 14  2  0
  7 17  1  0
  8 13  2  0
  8 30  1  0
  9 26  1  0
  9 32  1  0
 10 12  2  0
 10 22  1  0
 10 27  1  0
 11 32  1  0
 13 16  1  0
 13 22  1  0
 15 19  1  0
 15 22  2  3
 15 32  1  0
 17 31  1  0
 18 25  1  0
 19 25  1  0
 20 21  1  0
 23 26  1  0
 24 25  2  0
 24 28  1  0
 29 31  2  0
M  END
>  <ID>  (1) 
conformer_0

$$$$
