
     RDKit          3D

 17 18  0  0  0  0  0  0  0  0999 V2000
   65.2045   55.8667  111.4994 N   0  0  0  0  0  0  0  0  0  0  0  0
   62.7094   56.0229  108.6899 C   0  0  0  0  0  0  0  0  0  0  0  0
   63.1691   49.5182  111.1378 C   0  0  0  0  0  0  0  0  0  0  0  0
   61.3520   54.0447  109.1453 N   0  0  0  0  0  0  0  0  0  0  0  0
   61.6713   49.7091  109.3263 C   0  0  0  0  0  0  0  0  0  0  0  0
   62.5203   53.4353  108.4168 C   0  0  0  0  0  0  0  0  0  0  0  0
   63.6416   50.8139  110.9062 N   0  0  0  0  0  0  0  0  0  0  0  0
   63.5590   52.8970  109.4624 C   0  0  0  0  0  0  0  0  0  0  0  0
   63.0755   51.5475  109.8653 C   0  0  0  0  0  0  0  0  0  0  0  0
   63.5008   53.9915  110.5608 C   0  0  0  0  0  0  0  0  0  0  0  0
   62.1889   48.9343  110.3528 C   0  0  0  0  0  0  0  0  0  0  0  0
   63.9845   56.3693  110.8373 C   0  0  0  0  0  0  0  0  0  0  0  0
   61.2607   55.5082  108.8507 C   0  0  0  0  0  0  0  0  0  0  0  0
   62.0468   50.9696  109.1340 C   0  0  0  0  0  0  0  0  0  0  0  0
   65.0464   55.0795  109.0245 C   0  0  0  0  0  0  0  0  0  0  0  0
   60.7227   49.1610  108.4784 F   0  0  0  0  0  0  0  0  0  0  0  0
   63.6657   55.3339  109.7252 C   0  0  0  0  0  0  0  0  0  0  0  0
  1 12  1  0
  2 13  1  0
  2 17  1  0
  3  7  2  0
  3 11  1  0
  4  6  1  0
  4 13  1  0
  5 11  1  0
  5 14  2  0
  5 16  1  0
  6  8  1  0
  7  9  1  0
  8  9  1  0
  8 10  1  0
  9 14  1  0
 10 17  1  0
 12 17  1  0
 15 17  1  0
M  END
>  <ID>  (1) 
conformer_0

$$$$
