
     RDKit          3D

 23 26  0  0  0  0  0  0  0  0999 V2000
   61.7673   49.3310  110.0612 C   0  0  0  0  0  0  0  0  0  0  0  0
   63.9778   54.0149  108.4609 C   0  0  0  0  0  0  0  0  0  0  0  0
   62.4555   53.8382  108.4135 C   0  0  0  0  0  0  0  0  0  0  0  0
   61.8336   55.1094  108.4939 O   0  0  0  0  0  0  0  0  0  0  0  0
   61.6774   50.3096  109.1239 C   0  0  0  0  0  0  0  0  0  0  0  0
   60.8094   50.1086  108.0173 C   0  0  0  0  0  0  0  0  0  0  0  0
   60.9941   57.8730  109.6649 O   0  0  0  0  0  0  0  0  0  0  0  0
   63.9922   56.4089  107.7135 O   0  0  0  0  0  0  0  0  0  0  0  0
   61.9361   57.0019  110.2569 C   0  0  0  0  0  0  0  0  0  0  0  0
   62.4022   51.4877  109.2620 C   0  0  0  0  0  0  0  0  0  0  0  0
   63.4030   51.5427  110.2960 C   0  0  0  0  0  0  0  0  0  0  0  0
   61.4836   55.6024  109.8484 C   0  0  0  0  0  0  0  0  0  0  0  0
   62.0222   52.5487  108.4046 N   0  0  0  0  0  0  0  0  0  0  0  0
   63.3643   57.4007  109.8313 C   0  0  0  0  0  0  0  0  0  0  0  0
   63.8444   55.4787  111.2430 O   0  0  0  0  0  0  0  0  0  0  0  0
   64.9397   53.2848  109.4376 C   0  0  0  0  0  0  0  0  0  0  0  0
   63.4957   57.7023  108.3542 C   0  0  0  0  0  0  0  0  0  0  0  0
   63.4810   50.5319  111.2071 C   0  0  0  0  0  0  0  0  0  0  0  0
   64.2761   56.1602  110.0555 C   0  0  0  0  0  0  0  0  0  0  0  0
   64.4094   55.5142  108.6947 C   0  0  0  0  0  0  0  0  0  0  0  0
   62.6247   49.4710  111.1139 C   0  0  0  0  0  0  0  0  0  0  0  0
   64.3238   52.5744  110.4366 N   0  0  0  0  0  0  0  0  0  0  0  0
   62.6487   48.5413  112.1241 F   0  0  0  0  0  0  0  0  0  0  0  0
  1  5  2  0
  1 21  1  0
  2  3  1  0
  2 16  1  0
  2 20  1  0
  3  4  1  0
  3 13  1  0
  4 12  1  0
  5  6  1  0
  5 10  1  0
  7  9  1  0
  8 17  1  0
  8 20  1  0
  9 12  1  0
  9 14  1  0
 10 11  2  0
 10 13  1  0
 11 18  1  0
 11 22  1  0
 14 17  1  0
 14 19  1  0
 15 19  1  0
 16 22  1  0
 18 21  2  0
 19 20  1  0
 21 23  1  0
M  END
>  <ID>  (1) 
conformer_0

$$$$
