
     RDKit          3D

 22 24  0  0  0  0  0  0  0  0999 V2000
   63.7943   53.6479  110.4211 N   0  0  0  0  0  0  0  0  0  0  0  0
   63.4360   52.2978  110.1576 N   0  0  0  0  0  0  0  0  0  0  0  0
   64.8126   53.8582  108.1944 O   0  0  0  0  0  0  0  0  0  0  0  0
   61.6583   57.5677  109.5871 C   0  0  0  0  0  0  0  0  0  0  0  0
   62.0182   50.5289  109.3930 C   0  0  0  0  0  0  0  0  0  0  0  0
   62.0774   58.1962  110.9876 C   0  0  0  0  0  0  0  0  0  0  0  0
   63.8854   59.7778  110.7892 O   0  0  0  0  0  0  0  0  0  0  0  0
   62.1519   56.2149  108.7690 C   0  0  0  0  0  0  0  0  0  0  0  0
   63.5601   50.2229  111.2328 C   0  0  0  0  0  0  0  0  0  0  0  0
   63.5694   58.5745  111.0786 C   0  0  0  0  0  0  0  0  0  0  0  0
   62.4259   49.7606  110.5003 C   0  0  0  0  0  0  0  0  0  0  0  0
   60.7772   48.5071  109.2527 C   0  0  0  0  0  0  0  0  0  0  0  0
   64.1474   51.4383  110.9822 C   0  0  0  0  0  0  0  0  0  0  0  0
   61.9723   52.6191  108.3534 O   0  0  0  0  0  0  0  0  0  0  0  0
   62.4511   51.9095  109.2590 C   0  0  0  0  0  0  0  0  0  0  0  0
   63.6020   55.7412  109.2387 C   0  0  0  0  0  0  0  0  0  0  0  0
   63.7040   56.1554  110.7711 C   0  0  0  0  0  0  0  0  0  0  0  0
   61.2824   59.2789  111.4670 O   0  0  0  0  0  0  0  0  0  0  0  0
   61.7208   48.4379  110.3496 C   0  0  0  0  0  0  0  0  0  0  0  0
   61.0447   49.8172  108.5914 C   0  0  0  0  0  0  0  0  0  0  0  0
   64.2918   54.3594  109.2486 C   0  0  0  0  0  0  0  0  0  0  0  0
   64.4004   57.4788  110.7370 N   0  0  0  0  0  0  0  0  0  0  0  0
  1  2  1  0
  1 21  1  0
  2 13  1  0
  2 15  1  0
  3 21  2  0
  4  6  1  0
  4  8  1  0
  5 11  1  0
  5 15  1  0
  5 20  1  0
  6 10  1  0
  6 18  1  0
  7 10  2  0
  8 16  1  0
  9 11  1  0
  9 13  2  0
 10 22  1  0
 11 19  1  0
 12 19  1  0
 12 20  1  0
 14 15  2  0
 16 17  1  0
 16 21  1  0
 17 22  1  0
M  END
>  <ID>  (1) 
conformer_0

$$$$
