
     RDKit          3D

 21 22  0  0  0  0  0  0  0  0999 V2000
   62.1659   52.0642  109.3663 C   0  0  0  0  0  0  0  0  0  0  0  0
   64.0078   57.7116  108.6558 C   0  0  0  0  0  0  0  0  0  0  0  0
   62.5526   56.0200  110.8284 O   0  0  0  0  0  0  0  0  0  0  0  0
   60.6104   50.4097  110.0171 O   0  0  0  0  0  0  0  0  0  0  0  0
   62.4694   54.2483  107.6842 O   0  0  0  0  0  0  0  0  0  0  0  0
   61.5849   50.0062  108.1823 C   0  0  0  0  0  0  0  0  0  0  0  0
   63.8964   50.4989  111.1156 C   0  0  0  0  0  0  0  0  0  0  0  0
   62.3902   48.6090  111.1312 C   0  0  0  0  0  0  0  0  0  0  0  0
   62.6675   55.5107  108.4352 C   0  0  0  0  0  0  0  0  0  0  0  0
   64.5326   55.0570  109.9885 C   0  0  0  0  0  0  0  0  0  0  0  0
   64.9454   57.6482  109.7332 O   0  0  0  0  0  0  0  0  0  0  0  0
   61.8316   50.5719  109.5886 C   0  0  0  0  0  0  0  0  0  0  0  0
   63.0341   55.0352  109.8694 C   0  0  0  0  0  0  0  0  0  0  0  0
   60.7129   53.8917  109.0274 O   0  0  0  0  0  0  0  0  0  0  0  0
   63.8618   53.7847  109.5839 C   0  0  0  0  0  0  0  0  0  0  0  0
   63.3297   52.4852  110.1035 N   0  0  0  0  0  0  0  0  0  0  0  0
   65.8541   54.9325  109.8210 O   0  0  0  0  0  0  0  0  0  0  0  0
   61.7251   53.2792  108.5063 C   0  0  0  0  0  0  0  0  0  0  0  0
   63.8021   56.3839  107.8386 C   0  0  0  0  0  0  0  0  0  0  0  0
   62.8068   49.8492  110.4400 C   0  0  0  0  0  0  0  0  0  0  0  0
   64.2164   51.7590  110.8025 N   0  0  0  0  0  0  0  0  0  0  0  0
  1 12  1  0
  1 16  1  0
  1 18  1  0
  2 11  1  0
  2 19  1  0
  3 13  1  0
  4 12  1  0
  5  9  1  0
  5 18  1  0
  6 12  1  0
  7 20  2  0
  7 21  1  0
  8 20  1  0
  9 13  1  0
  9 19  1  0
 10 13  1  0
 10 15  1  0
 10 17  1  0
 12 20  1  0
 14 18  2  0
 15 16  1  0
 16 21  1  0
M  END
>  <ID>  (1) 
conformer_0

$$$$
