
     RDKit          3D

 22 24  0  0  0  0  0  0  0  0999 V2000
   64.1138   55.0725  109.9376 C   0  0  0  0  0  0  0  0  0  0  0  0
   63.4598   54.9459  108.5065 C   0  0  0  0  0  0  0  0  0  0  0  0
   63.1380   51.3558  110.2966 C   0  0  0  0  0  0  0  0  0  0  0  0
   63.6547   53.7282  110.5679 C   0  0  0  0  0  0  0  0  0  0  0  0
   60.8458   50.5045  107.7429 O   0  0  0  0  0  0  0  0  0  0  0  0
   61.9480   49.2603  110.3217 C   0  0  0  0  0  0  0  0  0  0  0  0
   62.0771   52.4262  108.5989 C   0  0  0  0  0  0  0  0  0  0  0  0
   61.6304   51.1089  108.5774 C   0  0  0  0  0  0  0  0  0  0  0  0
   62.6789   48.9391  111.4485 C   0  0  0  0  0  0  0  0  0  0  0  0
   63.0071   52.5859  109.7100 N   0  0  0  0  0  0  0  0  0  0  0  0
   63.9176   51.0179  111.2928 N   0  0  0  0  0  0  0  0  0  0  0  0
   62.0583   56.5855  110.4924 O   0  0  0  0  0  0  0  0  0  0  0  0
   64.9604   57.5168  110.6635 O   0  0  0  0  0  0  0  0  0  0  0  0
   61.5003   53.5241  108.0671 O   0  0  0  0  0  0  0  0  0  0  0  0
   63.6551   49.7964  111.8936 C   0  0  0  0  0  0  0  0  0  0  0  0
   64.0614   57.0919  111.6666 C   0  0  0  0  0  0  0  0  0  0  0  0
   63.1846   58.1197  112.3362 C   0  0  0  0  0  0  0  0  0  0  0  0
   61.9315   54.8167  108.6703 C   0  0  0  0  0  0  0  0  0  0  0  0
   64.3854   54.2450  107.6632 O   0  0  0  0  0  0  0  0  0  0  0  0
   65.5455   54.9479  109.8583 O   0  0  0  0  0  0  0  0  0  0  0  0
   62.2122   50.4407  109.7147 C   0  0  0  0  0  0  0  0  0  0  0  0
   63.2428   56.0040  110.8538 C   0  0  0  0  0  0  0  0  0  0  0  0
  1  2  1  0
  1  4  1  0
  1 20  1  0
  1 22  1  0
  2 18  1  0
  2 19  1  0
  3 10  1  0
  3 11  2  0
  3 21  1  0
  4 10  1  0
  5  8  1  0
  6  9  2  0
  6 21  1  0
  7  8  1  0
  7 10  1  0
  7 14  1  0
  8 21  2  0
  9 15  1  0
 11 15  1  0
 12 22  1  0
 13 16  1  0
 14 18  1  0
 16 17  1  0
 16 22  1  0
M  END
>  <ID>  (1) 
conformer_0

$$$$
