
     RDKit          3D

 21 22  0  0  0  0  0  0  0  0999 V2000
   62.9109   56.0536  110.7543 O   0  0  0  0  0  0  0  0  0  0  0  0
   63.2049   54.2021  108.3766 C   0  0  0  0  0  0  0  0  0  0  0  0
   61.5333   48.6360  110.4420 O   0  0  0  0  0  0  0  0  0  0  0  0
   63.1788   52.2137  109.6887 N   0  0  0  0  0  0  0  0  0  0  0  0
   61.5731   50.5109  109.1678 N   0  0  0  0  0  0  0  0  0  0  0  0
   62.0691   56.1350  108.4072 C   0  0  0  0  0  0  0  0  0  0  0  0
   60.4706   54.6343  109.2534 O   0  0  0  0  0  0  0  0  0  0  0  0
   64.6112   56.1689  107.2932 C   0  0  0  0  0  0  0  0  0  0  0  0
   62.0781   49.7688  110.1704 C   0  0  0  0  0  0  0  0  0  0  0  0
   63.0518   56.5873  109.4398 C   0  0  0  0  0  0  0  0  0  0  0  0
   63.2068   50.1694  110.8823 C   0  0  0  0  0  0  0  0  0  0  0  0
   64.5037   56.1336  108.8556 C   0  0  0  0  0  0  0  0  0  0  0  0
   61.7104   52.1393  107.7041 O   0  0  0  0  0  0  0  0  0  0  0  0
   62.1467   51.7095  108.8179 C   0  0  0  0  0  0  0  0  0  0  0  0
   64.8323   51.7220  111.1173 O   0  0  0  0  0  0  0  0  0  0  0  0
   65.2512   57.2874  109.2493 O   0  0  0  0  0  0  0  0  0  0  0  0
   63.6591   53.6474  109.7591 C   0  0  0  0  0  0  0  0  0  0  0  0
   61.7944   54.6516  108.6541 C   0  0  0  0  0  0  0  0  0  0  0  0
   60.9445   56.8676  108.0516 C   0  0  0  0  0  0  0  0  0  0  0  0
   63.7805   51.3918  110.5906 C   0  0  0  0  0  0  0  0  0  0  0  0
   64.4332   54.6633  109.1622 C   0  0  0  0  0  0  0  0  0  0  0  0
  1 10  1  0
  2 18  1  0
  2 21  1  0
  3  9  2  0
  4 14  1  0
  4 17  1  0
  4 20  1  0
  5  9  1  0
  5 14  1  0
  6 10  1  0
  6 18  1  0
  6 19  1  0
  7 18  1  0
  8 12  1  0
  9 11  1  0
 10 12  1  0
 11 20  1  0
 12 16  1  0
 12 21  1  0
 13 14  2  0
 15 20  2  0
 17 21  1  0
M  END
>  <ID>  (1) 
conformer_0

$$$$
