
     RDKit          3D

 21 24  0  0  0  0  0  0  0  0999 V2000
   61.0127   49.8716  108.6913 Cl  0  0  0  0  0  0  0  0  0  0  0  0
   63.6363   57.0308  110.6743 C   0  0  0  0  0  0  0  0  0  0  0  0
   62.3191   54.6526  108.2656 C   0  0  0  0  0  0  0  0  0  0  0  0
   60.8227   56.1586  107.1647 N   0  0  0  0  0  0  0  0  0  0  0  0
   63.6538   51.7699  110.5596 C   0  0  0  0  0  0  0  0  0  0  0  0
   63.0987   55.7470  111.2039 C   0  0  0  0  0  0  0  0  0  0  0  0
   62.5830   51.4872  109.7127 C   0  0  0  0  0  0  0  0  0  0  0  0
   64.1181   50.7870  111.4451 C   0  0  0  0  0  0  0  0  0  0  0  0
   64.2730   53.1497  110.5191 C   0  0  0  0  0  0  0  0  0  0  0  0
   62.0220   52.5848  109.0425 C   0  0  0  0  0  0  0  0  0  0  0  0
   65.9070   54.8150  109.3775 N   0  0  0  0  0  0  0  0  0  0  0  0
   61.8195   53.1023  107.6715 C   0  0  0  0  0  0  0  0  0  0  0  0
   61.0373   55.4266  108.2389 C   0  0  0  0  0  0  0  0  0  0  0  0
   62.5321   53.9742  109.5936 N   0  0  0  0  0  0  0  0  0  0  0  0
   63.4853   49.5384  111.4291 C   0  0  0  0  0  0  0  0  0  0  0  0
   62.0646   50.2029  109.6737 C   0  0  0  0  0  0  0  0  0  0  0  0
   64.6313   55.3748  109.3663 C   0  0  0  0  0  0  0  0  0  0  0  0
   63.6919   54.5768  110.3253 C   0  0  0  0  0  0  0  0  0  0  0  0
   64.3182   56.6989  109.4466 O   0  0  0  0  0  0  0  0  0  0  0  0
   62.4765   49.2083  110.5333 C   0  0  0  0  0  0  0  0  0  0  0  0
   60.2526   55.3996  109.1796 O   0  0  0  0  0  0  0  0  0  0  0  0
  1 16  1  0
  2  6  1  0
  2 19  1  0
  3 12  1  0
  3 13  1  0
  3 14  1  0
  4 13  1  0
  5  7  2  0
  5  8  1  0
  5  9  1  0
  6 18  1  0
  7 10  1  0
  7 16  1  0
  8 15  2  0
  9 18  1  0
 10 12  1  0
 10 14  1  0
 11 17  1  0
 13 21  2  0
 14 18  1  0
 15 20  1  0
 16 20  2  0
 17 18  1  0
 17 19  1  0
M  END
>  <ID>  (1) 
conformer_0

$$$$
