
     RDKit          3D

 28 32  0  0  0  0  0  0  0  0999 V2000
   65.0576   53.3459  110.3127 N   0  0  0  0  0  0  0  0  0  0  0  0
   60.9975   54.8190  108.3521 C   0  0  0  0  0  0  0  0  0  0  0  0
   62.7714   50.3990  110.0567 C   0  0  0  0  0  0  0  0  0  0  0  0
   63.4109   54.3818  109.0238 C   0  0  0  0  0  0  0  0  0  0  0  0
   64.7088   55.4903  111.1727 O   0  0  0  0  0  0  0  0  0  0  0  0
   57.4008   58.1424  110.1304 O   0  0  0  0  0  0  0  0  0  0  0  0
   61.1609   57.0740  109.6646 C   0  0  0  0  0  0  0  0  0  0  0  0
   62.0148   59.0160  110.7508 C   0  0  0  0  0  0  0  0  0  0  0  0
   64.6052   56.4879  107.3595 C   0  0  0  0  0  0  0  0  0  0  0  0
   58.5808   57.8138  109.6165 C   0  0  0  0  0  0  0  0  0  0  0  0
   59.5709   55.5635  108.3112 C   0  0  0  0  0  0  0  0  0  0  0  0
   62.5659   49.0965  110.5308 Cl  0  0  0  0  0  0  0  0  0  0  0  0
   63.7865   57.4182  109.6207 C   0  0  0  0  0  0  0  0  0  0  0  0
   64.8268   56.3572  108.9177 C   0  0  0  0  0  0  0  0  0  0  0  0
   61.9598   50.9160  109.0605 C   0  0  0  0  0  0  0  0  0  0  0  0
   64.6366   54.9603  109.7515 C   0  0  0  0  0  0  0  0  0  0  0  0
   65.0441   58.0441  110.3940 F   0  0  0  0  0  0  0  0  0  0  0  0
   63.7794   51.1964  110.5711 N   0  0  0  0  0  0  0  0  0  0  0  0
   59.6255   58.7207  109.8974 O   0  0  0  0  0  0  0  0  0  0  0  0
   60.9174   50.0308  108.3927 C   0  0  0  0  0  0  0  0  0  0  0  0
   58.6698   56.3706  109.2517 C   0  0  0  0  0  0  0  0  0  0  0  0
   63.0592   52.9747  109.2345 C   0  0  0  0  0  0  0  0  0  0  0  0
   63.0321   58.8958  109.5349 C   0  0  0  0  0  0  0  0  0  0  0  0
   62.4193   55.3552  108.6576 C   0  0  0  0  0  0  0  0  0  0  0  0
   62.5087   56.5312  109.5644 N   0  0  0  0  0  0  0  0  0  0  0  0
   63.9835   52.4368  110.0953 C   0  0  0  0  0  0  0  0  0  0  0  0
   62.0683   52.2055  108.6995 N   0  0  0  0  0  0  0  0  0  0  0  0
   60.7878   58.1139  110.5527 C   0  0  0  0  0  0  0  0  0  0  0  0
  1 16  1  0
  1 26  1  0
  2 11  1  0
  2 24  1  0
  3 12  1  0
  3 15  1  0
  3 18  1  0
  4 16  1  0
  4 22  1  0
  4 24  1  0
  5 16  1  0
  6 10  2  0
  7 25  1  0
  7 28  1  0
  8 23  1  0
  8 28  1  0
  9 14  1  0
 10 19  1  0
 10 21  1  0
 11 21  1  0
 13 14  1  0
 13 17  1  0
 13 23  1  0
 13 25  1  0
 14 16  1  0
 15 20  1  0
 15 27  2  0
 18 26  2  0
 19 28  1  0
 22 26  1  0
 22 27  1  0
 24 25  1  0
M  END
>  <ID>  (1) 
conformer_0

$$$$
