
     RDKit          3D

 27 30  0  0  0  0  0  0  0  0999 V2000
   64.0283   55.4022  111.4714 C   0  0  0  0  0  0  0  0  0  0  0  0
   62.6886   49.1198  111.8169 F   0  0  0  0  0  0  0  0  0  0  0  0
   63.1429   53.3725  110.0142 N   0  0  0  0  0  0  0  0  0  0  0  0
   63.1307   56.9043  108.1134 C   0  0  0  0  0  0  0  0  0  0  0  0
   62.7414   51.0774  110.0381 C   0  0  0  0  0  0  0  0  0  0  0  0
   61.9803   56.9028  107.2823 O   0  0  0  0  0  0  0  0  0  0  0  0
   62.6966   49.7754  110.5709 C   0  0  0  0  0  0  0  0  0  0  0  0
   60.7768   56.9330  108.1595 C   0  0  0  0  0  0  0  0  0  0  0  0
   63.5859   52.0154  110.5018 C   0  0  0  0  0  0  0  0  0  0  0  0
   61.3915   54.7197  109.1296 N   0  0  0  0  0  0  0  0  0  0  0  0
   59.6043   54.9893  107.7625 O   0  0  0  0  0  0  0  0  0  0  0  0
   61.3128   50.1229  108.7039 N   0  0  0  0  0  0  0  0  0  0  0  0
   61.8354   51.3173  109.0079 C   0  0  0  0  0  0  0  0  0  0  0  0
   63.4701   56.3415  109.3579 N   0  0  0  0  0  0  0  0  0  0  0  0
   60.4922   55.4830  108.4243 C   0  0  0  0  0  0  0  0  0  0  0  0
   60.6606   49.7419  107.6555 O   0  0  0  0  0  0  0  0  0  0  0  0
   63.9208   49.5848  111.3428 F   0  0  0  0  0  0  0  0  0  0  0  0
   63.7211   54.9864  110.0139 C   0  0  0  0  0  0  0  0  0  0  0  0
   64.3650   56.9287  111.4216 C   0  0  0  0  0  0  0  0  0  0  0  0
   64.5381   51.2037  111.3714 F   0  0  0  0  0  0  0  0  0  0  0  0
   64.5086   57.3119  109.9877 C   0  0  0  0  0  0  0  0  0  0  0  0
   61.5506   52.5013  108.5099 N   0  0  0  0  0  0  0  0  0  0  0  0
   62.0473   53.5209  109.2144 C   0  0  0  0  0  0  0  0  0  0  0  0
   64.1287   57.9890  107.5394 C   0  0  0  0  0  0  0  0  0  0  0  0
   61.7577   49.1523  109.6281 N   0  0  0  0  0  0  0  0  0  0  0  0
   65.1102   54.6715  109.3194 C   0  0  0  0  0  0  0  0  0  0  0  0
   64.8585   57.2676  106.5141 O   0  0  0  0  0  0  0  0  0  0  0  0
  1 18  1  0
  1 19  1  0
  2  7  1  0
  3  9  1  0
  3 18  1  0
  3 23  1  0
  4  6  1  0
  4 14  1  0
  4 24  1  0
  5  7  1  0
  5  9  1  0
  5 13  2  0
  6  8  1  0
  7 17  1  0
  7 25  1  0
  8 15  1  0
  9 20  1  0
 10 15  1  0
 10 23  2  0
 11 15  2  0
 12 13  1  0
 12 16  1  0
 12 25  1  0
 13 22  1  0
 14 18  1  0
 14 21  1  0
 18 26  1  0
 19 21  1  0
 22 23  1  0
 24 27  1  0
M  END
>  <ID>  (1) 
conformer_0

$$$$
