
     RDKit          3D

 12 11  0  0  0  0  0  0  0  0999 V2000
   63.4992   50.2120  111.0784 C   0  0  0  0  0  0  0  0  0  0  0  0
   61.4588   50.3561  108.7395 C   0  0  0  0  0  0  0  0  0  0  0  0
   63.8810   55.9453  110.3303 C   0  0  0  0  0  0  0  0  0  0  0  0
   63.9640   54.3846  110.4388 C   0  0  0  0  0  0  0  0  0  0  0  0
   64.5121   56.3991  109.0489 C   0  0  0  0  0  0  0  0  0  0  0  0
   65.1094   53.9282  109.7333 O   0  0  0  0  0  0  0  0  0  0  0  0
   61.6177   52.4838  107.6552 O   0  0  0  0  0  0  0  0  0  0  0  0
   63.7603   51.7450  110.7379 C   0  0  0  0  0  0  0  0  0  0  0  0
   63.0648   56.3692  111.4494 O   0  0  0  0  0  0  0  0  0  0  0  0
   62.6830   53.7673  109.9512 N   0  0  0  0  0  0  0  0  0  0  0  0
   61.8109   51.7983  108.7085 C   0  0  0  0  0  0  0  0  0  0  0  0
   62.8205   52.3157  109.6485 C   0  0  0  0  0  0  0  0  0  0  0  0
  1  8  1  0
  2 11  1  0
  3  4  1  0
  3  5  1  0
  3  9  1  0
  4  6  1  0
  4 10  1  0
  7 11  2  0
  8 12  1  0
 10 12  1  0
 11 12  1  0
M  END
>  <ID>  (1) 
conformer_0

$$$$
