
     RDKit          3D

 29 32  0  0  0  0  0  0  0  0999 V2000
   62.2976   62.4538  110.0470 C   0  0  0  0  0  0  0  0  0  0  0  0
   62.8547   58.7658  110.7799 C   0  0  0  0  0  0  0  0  0  0  0  0
   62.1692   61.1738  110.5968 C   0  0  0  0  0  0  0  0  0  0  0  0
   64.1291   61.6467  108.6647 C   0  0  0  0  0  0  0  0  0  0  0  0
   63.9997   55.5851  110.7565 C   0  0  0  0  0  0  0  0  0  0  0  0
   61.7882   56.6719  107.4594 C   0  0  0  0  0  0  0  0  0  0  0  0
   63.4260   55.0914  108.3953 C   0  0  0  0  0  0  0  0  0  0  0  0
   61.9650   51.2779  109.1284 C   0  0  0  0  0  0  0  0  0  0  0  0
   61.4281   50.0225  109.3188 C   0  0  0  0  0  0  0  0  0  0  0  0
   63.9901   60.4125  109.2297 C   0  0  0  0  0  0  0  0  0  0  0  0
   63.2185   53.3043  110.0143 C   0  0  0  0  0  0  0  0  0  0  0  0
   63.3725   50.9915  111.0099 C   0  0  0  0  0  0  0  0  0  0  0  0
   62.7462   56.4113  108.6208 C   0  0  0  0  0  0  0  0  0  0  0  0
   64.3529   56.9035  111.0710 N   0  0  0  0  0  0  0  0  0  0  0  0
   63.6400   57.4619  108.9270 N   0  0  0  0  0  0  0  0  0  0  0  0
   63.8996   57.8713  110.2348 C   0  0  0  0  0  0  0  0  0  0  0  0
   60.6488   49.5870  107.2476 C   0  0  0  0  0  0  0  0  0  0  0  0
   62.5219   53.9844  108.8683 C   0  0  0  0  0  0  0  0  0  0  0  0
   62.8596   51.8358  110.0358 C   0  0  0  0  0  0  0  0  0  0  0  0
   63.4669   54.9696  111.8339 O   0  0  0  0  0  0  0  0  0  0  0  0
   62.8804   49.7114  111.1538 C   0  0  0  0  0  0  0  0  0  0  0  0
   61.9358   49.2016  110.2923 C   0  0  0  0  0  0  0  0  0  0  0  0
   64.5986   55.0969  109.4594 C   0  0  0  0  0  0  0  0  0  0  0  0
   64.6440   53.6019  109.6769 O   0  0  0  0  0  0  0  0  0  0  0  0
   62.9972   60.1033  110.1737 C   0  0  0  0  0  0  0  0  0  0  0  0
   61.2134   54.1524  108.5079 O   0  0  0  0  0  0  0  0  0  0  0  0
   63.2834   62.7003  109.0789 C   0  0  0  0  0  0  0  0  0  0  0  0
   60.3775   49.6849  108.5751 O   0  0  0  0  0  0  0  0  0  0  0  0
   63.3277   48.9899  112.1748 F   0  0  0  0  0  0  0  0  0  0  0  0
  1  3  2  0
  1 27  1  0
  2 16  1  0
  2 25  1  0
  3 25  1  0
  4 10  2  0
  4 27  1  0
  5 14  1  0
  5 20  2  0
  5 23  1  0
  6 13  1  0
  7 13  1  0
  7 18  1  0
  7 23  1  0
  8  9  2  0
  8 19  1  0
  9 22  1  0
  9 28  1  0
 10 25  1  0
 11 18  1  0
 11 19  1  0
 11 24  1  0
 12 19  2  0
 12 21  1  0
 13 15  1  0
 14 16  1  0
 15 16  1  0
 17 28  1  0
 18 26  1  0
 21 22  2  0
 21 29  1  0
 23 24  1  0
M  END
>  <ID>  (1) 
conformer_0

$$$$
