
     RDKit          3D

 32 34  0  0  0  0  0  0  0  0999 V2000
   61.3712   50.1167  109.3414 C   0  0  0  0  0  0  0  0  0  0  0  0
   63.1543   57.4394  111.0359 C   0  0  0  0  0  0  0  0  0  0  0  0
   61.7745   54.9118  108.6238 C   0  0  0  0  0  0  0  0  0  0  0  0
   64.6221   57.7553  111.0474 O   0  0  0  0  0  0  0  0  0  0  0  0
   63.1154   56.2539  111.7820 O   0  0  0  0  0  0  0  0  0  0  0  0
   62.8387   49.2893  111.5082 C   0  0  0  0  0  0  0  0  0  0  0  0
   64.7742   52.1256  110.5621 C   0  0  0  0  0  0  0  0  0  0  0  0
   64.4069   55.8307  107.7184 S   0  0  0  0  0  4  0  0  0  0  0  0
   58.5679   57.9324  109.1950 C   0  0  0  0  0  0  0  0  0  0  0  0
   59.5564   56.9503  108.8961 C   0  0  0  0  0  0  0  0  0  0  0  0
   64.0339   57.5646  109.8233 C   0  0  0  0  0  0  0  0  0  0  0  0
   64.4786   50.9625  111.0581 N   0  0  0  0  0  0  0  0  0  0  0  0
   60.8272   57.2152  109.3228 C   0  0  0  0  0  0  0  0  0  0  0  0
   60.9854   48.9486  110.0100 C   0  0  0  0  0  0  0  0  0  0  0  0
   60.7929   50.4118  108.1471 N   0  0  0  0  0  0  0  0  0  0  0  0
   59.3358   55.7133  108.2275 C   0  0  0  0  0  0  0  0  0  0  0  0
   60.8163   58.6467  109.8835 C   0  0  0  0  0  0  0  0  0  0  0  0
   61.7880   56.2479  109.1515 C   0  0  0  0  0  0  0  0  0  0  0  0
   58.5602   60.2590  109.5586 C   0  0  0  0  0  0  0  0  0  0  0  0
   63.9094   56.8241  106.8456 O   0  0  0  0  0  1  0  0  0  0  0  0
   62.6954   52.2776  109.3380 C   0  0  0  0  0  0  0  0  0  0  0  0
   63.8398   52.8655  109.8574 N   0  0  0  0  0  0  0  0  0  0  0  0
   60.2872   54.7512  108.0393 C   0  0  0  0  0  0  0  0  0  0  0  0
   65.3242   54.8853  107.1233 O   0  0  0  0  0  1  0  0  0  0  0  0
   63.2672   50.4198  110.7843 C   0  0  0  0  0  0  0  0  0  0  0  0
   65.0402   56.6769  109.0414 N   0  0  0  0  0  0  0  0  0  0  0  0
   61.6916   48.6181  111.1310 C   0  0  0  0  0  0  0  0  0  0  0  0
   64.0224   54.2873  109.7685 C   0  0  0  0  0  0  0  0  0  0  0  0
   62.4413   50.9594  109.7810 C   0  0  0  0  0  0  0  0  0  0  0  0
   63.3126   54.8371  108.5782 N   0  0  0  0  0  0  0  0  0  0  0  0
   59.3867   59.0427  109.8054 O   0  0  0  0  0  0  0  0  0  0  0  0
   61.8984   53.0562  108.5961 O   0  0  0  0  0  0  0  0  0  0  0  0
  1 14  2  0
  1 15  1  0
  1 29  1  0
  2  5  1  0
  2 11  1  0
  3 18  2  0
  3 23  1  0
  3 30  1  0
  4 11  1  0
  6 25  2  0
  6 27  1  0
  7 12  2  0
  7 22  1  0
  8 20  1  0
  8 24  1  0
  8 26  1  0
  8 30  1  0
  9 10  1  0
 10 13  2  0
 10 16  1  0
 11 26  1  0
 12 25  1  0
 13 17  1  0
 13 18  1  0
 14 27  1  0
 16 23  2  0
 17 31  1  0
 19 31  1  0
 21 22  1  0
 21 29  1  0
 21 32  2  0
 22 28  1  0
 25 29  1  0
 28 30  1  0
M  END
>  <ID>  (1) 
conformer_0

$$$$
