
     RDKit          3D

 14 15  0  0  0  0  0  0  0  0999 V2000
   61.5563   50.1178  109.5568 C   0  0  0  0  0  0  0  0  0  0  0  0
   62.0897   53.2743  108.1832 C   0  0  0  0  0  0  0  0  0  0  0  0
   63.3668   51.1215  110.6181 C   0  0  0  0  0  0  0  0  0  0  0  0
   61.0214   53.6763  107.7333 N   0  0  0  0  0  0  0  0  0  0  0  0
   63.4955   55.4303  111.3643 O   0  0  0  0  0  0  0  0  0  0  0  0
   65.4429   54.9096  110.2685 N   0  0  0  0  0  0  0  0  0  0  0  0
   64.1377   54.7186  110.4984 C   0  0  0  0  0  0  0  0  0  0  0  0
   64.2270   52.2622  110.6911 C   0  0  0  0  0  0  0  0  0  0  0  0
   63.5362   53.4256  110.0933 C   0  0  0  0  0  0  0  0  0  0  0  0
   63.2190   49.7770  111.1571 C   0  0  0  0  0  0  0  0  0  0  0  0
   62.0426   49.1055  110.4602 C   0  0  0  0  0  0  0  0  0  0  0  0
   62.2432   51.4150  109.7535 C   0  0  0  0  0  0  0  0  0  0  0  0
   62.3435   52.8627  109.5017 N   0  0  0  0  0  0  0  0  0  0  0  0
   60.8924   49.9328  108.1002 Cl  0  0  0  0  0  0  0  0  0  0  0  0
  1 11  1  0
  1 12  1  0
  1 14  1  0
  2  4  2  0
  2 13  1  0
  3  8  1  0
  3 10  1  0
  3 12  2  0
  5  7  2  0
  6  7  1  0
  7  9  1  0
  8  9  1  0
  9 13  1  0
 10 11  1  0
 12 13  1  0
M  END
>  <ID>  (1) 
conformer_0

$$$$
