
     RDKit          3D

 20 22  0  0  0  0  0  0  0  0999 V2000
   63.4977   54.1404  108.8195 C   0  0  0  0  0  0  0  0  0  0  0  0
   63.7665   56.5853  109.2217 C   0  0  0  0  0  0  0  0  0  0  0  0
   64.2109   54.9368  110.9645 C   0  0  0  0  0  0  0  0  0  0  0  0
   63.3428   50.0573  111.3007 C   0  0  0  0  0  0  0  0  0  0  0  0
   63.2456   55.6103  111.7034 O   0  0  0  0  0  0  0  0  0  0  0  0
   64.8134   55.8508  110.0476 N   0  0  0  0  0  0  0  0  0  0  0  0
   61.8686   52.4215  108.9583 C   0  0  0  0  0  0  0  0  0  0  0  0
   64.5093   56.9092  107.8633 C   0  0  0  0  0  0  0  0  0  0  0  0
   63.0348   51.3113  110.7250 C   0  0  0  0  0  0  0  0  0  0  0  0
   61.4137   49.1826  110.0320 C   0  0  0  0  0  0  0  0  0  0  0  0
   60.0896   49.0905  110.0988 F   0  0  0  0  0  0  0  0  0  0  0  0
   62.7439   55.4857  108.8205 C   0  0  0  0  0  0  0  0  0  0  0  0
   61.1157   50.1335  107.8079 F   0  0  0  0  0  0  0  0  0  0  0  0
   62.7253   53.1619  108.0646 C   0  0  0  0  0  0  0  0  0  0  0  0
   61.9412   50.0334  108.9538 C   0  0  0  0  0  0  0  0  0  0  0  0
   62.4067   51.2663  109.5034 C   0  0  0  0  0  0  0  0  0  0  0  0
   65.0902   55.6595  107.1722 C   0  0  0  0  0  0  0  0  0  0  0  0
   63.4095   52.5734  111.2518 C   0  0  0  0  0  0  0  0  0  0  0  0
   63.6341   53.6785  110.2497 C   0  0  0  0  0  0  0  0  0  0  0  0
   62.2769   49.0776  111.1480 C   0  0  0  0  0  0  0  0  0  0  0  0
  1 12  1  0
  1 14  1  0
  1 19  1  0
  2  6  1  0
  2  8  1  0
  2 12  1  0
  3  5  1  0
  3  6  1  0
  3 19  1  0
  4  9  1  0
  4 20  1  0
  7 14  1  0
  7 16  1  0
  8 17  1  0
  9 16  1  0
  9 18  1  0
 10 11  1  0
 10 15  1  0
 10 20  1  0
 13 15  1  0
 15 16  1  0
 18 19  2  0
M  END
>  <ID>  (1) 
conformer_0

$$$$
