
     RDKit          3D

 32 34  0  0  0  0  0  0  0  0999 V2000
   64.7601   55.7210  109.7928 C   0  0  0  0  0  0  0  0  0  0  0  0
   62.0282   51.8105  108.7753 C   0  0  0  0  0  0  0  0  0  0  0  0
   64.4055   58.6267  108.1110 C   0  0  0  0  0  0  0  0  0  0  0  0
   61.6363   49.7136  109.9489 C   0  0  0  0  0  0  0  0  0  0  0  0
   61.4230   61.2344  111.1174 O   0  0  0  0  0  0  0  0  0  0  0  0
   62.6760   49.2128  111.9917 C   0  0  0  0  0  0  0  0  0  0  0  0
   63.0880   59.9450  109.6080 C   0  0  0  0  0  0  0  0  0  0  0  0
   63.4163   54.0004  107.9036 O   0  0  0  0  0  0  0  0  0  0  0  0
   64.8144   59.8020  107.4367 C   0  0  0  0  0  0  0  0  0  0  0  0
   64.8789   54.3485  110.1592 N   0  0  0  0  0  0  0  0  0  0  0  0
   63.4982   61.1186  108.9928 C   0  0  0  0  0  0  0  0  0  0  0  0
   62.6000   50.0590  110.8435 N   0  0  0  0  0  0  0  0  0  0  0  0
   60.9003   48.5137  110.0646 C   0  0  0  0  0  0  0  0  0  0  0  0
   63.5908   58.7850  109.1652 C   0  0  0  0  0  0  0  0  0  0  0  0
   63.3617   56.4977  107.7382 O   0  0  0  0  0  0  0  0  0  0  0  0
   61.5035   54.7960  109.2173 O   0  0  0  0  0  1  0  0  0  0  0  0
   64.6114   62.1412  107.1993 O   0  0  0  0  0  0  0  0  0  0  0  0
   64.3997   56.0834  108.4218 C   0  0  0  0  0  0  0  0  0  0  0  0
   62.7670   54.3584  109.1177 S   0  0  0  0  0  3  0  0  0  0  0  0
   60.7879   49.8227  107.7064 C   0  0  0  0  0  0  0  0  0  0  0  0
   64.3216   61.0238  107.8863 C   0  0  0  0  0  0  0  0  0  0  0  0
   63.4481   53.6887  110.3024 C   0  0  0  0  0  0  0  0  0  0  0  0
   63.3478   51.1994  110.6780 C   0  0  0  0  0  0  0  0  0  0  0  0
   64.5664   56.5571  110.8567 O   0  0  0  0  0  0  0  0  0  0  0  0
   60.8968   58.8726  110.4503 O   0  0  0  0  0  0  0  0  0  0  0  0
   64.6822   54.7610  107.6809 C   0  0  0  0  0  0  0  0  0  0  0  0
   61.5172   50.4973  108.7886 C   0  0  0  0  0  0  0  0  0  0  0  0
   64.8021   57.2512  107.6825 C   0  0  0  0  0  0  0  0  0  0  0  0
   61.9516   59.8690  110.9002 S   0  0  0  0  0  4  0  0  0  0  0  0
   62.7214   59.3870  112.1286 O   0  0  0  0  0  0  0  0  0  0  0  0
   64.5098   51.3602  111.1512 O   0  0  0  0  0  0  0  0  0  0  0  0
   62.8024   52.2909  109.9366 C   0  0  0  0  0  0  0  0  0  0  0  0
  1 10  1  0
  1 18  1  0
  1 24  2  0
  2 27  2  0
  2 32  1  0
  3  9  1  0
  3 14  2  0
  3 28  1  0
  4 12  1  0
  4 13  1  0
  4 27  1  0
  5 29  1  0
  6 12  1  0
  7 11  2  0
  7 14  1  0
  7 29  1  0
  8 19  1  0
  8 26  1  0
  9 21  2  0
 10 22  1  0
 11 21  1  0
 12 23  1  0
 15 18  1  0
 16 19  2  0
 17 21  1  0
 18 26  1  0
 18 28  1  0
 19 22  1  0
 20 27  1  0
 22 32  1  0
 23 31  2  0
 23 32  1  0
 25 29  1  0
 29 30  1  0
M  END
>  <ID>  (1) 
conformer_0

$$$$
