
     RDKit          3D

 15 16  0  0  0  0  0  0  0  0999 V2000
   61.9500   53.9533  109.5876 N   0  0  0  0  0  0  0  0  0  0  0  0
   64.1296   54.2636  110.6443 C   0  0  0  0  0  0  0  0  0  0  0  0
   62.6529   49.3982  110.7497 C   0  0  0  0  0  0  0  0  0  0  0  0
   62.6334   51.5610  109.9705 C   0  0  0  0  0  0  0  0  0  0  0  0
   61.2363   49.8586  108.7034 C   0  0  0  0  0  0  0  0  0  0  0  0
   63.8092   55.2990  108.4504 C   0  0  0  0  0  0  0  0  0  0  0  0
   63.7432   50.1256  111.3305 C   0  0  0  0  0  0  0  0  0  0  0  0
   64.5214   54.1116  109.1400 C   0  0  0  0  0  0  0  0  0  0  0  0
   62.2786   52.7109  109.0660 C   0  0  0  0  0  0  0  0  0  0  0  0
   61.9030   52.5239  107.8614 O   0  0  0  0  0  0  0  0  0  0  0  0
   64.0979   56.3836  109.4976 O   0  0  0  0  0  0  0  0  0  0  0  0
   63.5945   55.7107  110.7364 C   0  0  0  0  0  0  0  0  0  0  0  0
   63.7098   51.4189  110.8070 N   0  0  0  0  0  0  0  0  0  0  0  0
   62.2530   55.1672  108.6524 C   0  0  0  0  0  0  0  0  0  0  0  0
   61.9844   50.2901  109.8616 C   0  0  0  0  0  0  0  0  0  0  0  0
  1  9  1  0
  1 14  1  0
  2  8  1  0
  2 12  1  0
  3  7  1  0
  3 15  1  0
  4  9  1  0
  4 13  1  0
  4 15  1  0
  5 15  1  0
  6  8  1  0
  6 11  1  0
  6 14  1  0
  7 13  1  0
  9 10  2  0
 11 12  1  0
M  END
>  <ID>  (1) 
conformer_0

$$$$
