
     RDKit          3D

 27 31  0  0  0  0  0  0  0  0999 V2000
   63.6349   52.7923  110.4656 C   0  0  0  0  0  0  0  0  0  0  0  0
   63.2434   58.1560  109.0209 C   0  0  0  0  0  0  0  0  0  0  0  0
   65.0601   54.3054  109.7299 N   0  0  0  0  0  0  0  0  0  0  0  0
   60.9527   50.4542  107.7822 C   0  0  0  0  0  0  0  0  0  0  0  0
   62.0637   48.8596  110.6946 C   0  0  0  0  0  0  0  0  0  0  0  0
   61.0507   56.8141  108.7768 C   0  0  0  0  0  0  0  0  0  0  0  0
   63.1351   60.3977  109.9709 C   0  0  0  0  0  0  0  0  0  0  0  0
   62.2766   50.9395  109.5079 C   0  0  0  0  0  0  0  0  0  0  0  0
   61.7572   49.6286  109.6102 C   0  0  0  0  0  0  0  0  0  0  0  0
   63.7708   54.8228  109.6483 C   0  0  0  0  0  0  0  0  0  0  0  0
   61.8046   60.1686  110.3325 C   0  0  0  0  0  0  0  0  0  0  0  0
   61.8808   57.9977  109.2701 C   0  0  0  0  0  0  0  0  0  0  0  0
   63.3764   55.7237  108.5234 C   0  0  0  0  0  0  0  0  0  0  0  0
   62.8967   53.6487  109.6168 C   0  0  0  0  0  0  0  0  0  0  0  0
   63.1816   51.4169  110.4866 C   0  0  0  0  0  0  0  0  0  0  0  0
   61.1640   58.9931  109.9956 C   0  0  0  0  0  0  0  0  0  0  0  0
   63.4548   56.0376  111.7901 C   0  0  0  0  0  0  0  0  0  0  0  0
   63.2012   55.0561  110.7812 N   0  0  0  0  0  0  0  0  0  0  0  0
   64.6200   56.8352  111.7802 C   0  0  0  0  0  0  0  0  0  0  0  0
   61.8452   55.6376  108.3079 C   0  0  0  0  0  0  0  0  0  0  0  0
   64.0806   57.0454  108.4869 C   0  0  0  0  0  0  0  0  0  0  0  0
   63.5762   50.5953  111.5010 C   0  0  0  0  0  0  0  0  0  0  0  0
   64.9618   53.0994  110.3684 N   0  0  0  0  0  0  0  0  0  0  0  0
   61.7548   51.4455  108.3574 N   0  0  0  0  0  0  0  0  0  0  0  0
   63.8523   59.4035  109.3032 C   0  0  0  0  0  0  0  0  0  0  0  0
   62.9903   49.3340  111.6074 C   0  0  0  0  0  0  0  0  0  0  0  0
   60.9490   49.3015  108.5575 C   0  0  0  0  0  0  0  0  0  0  0  0
  1 14  1  0
  1 15  1  0
  1 23  1  0
  2 12  2  0
  2 21  1  0
  2 25  1  0
  3 10  1  0
  3 23  1  0
  4 24  1  0
  4 27  1  0
  5  9  1  0
  5 26  2  0
  6 12  1  0
  6 20  1  0
  7 11  1  0
  7 25  2  0
  8  9  2  0
  8 15  1  0
  8 24  1  0
  9 27  1  0
 10 13  1  0
 10 14  1  0
 10 18  1  0
 11 16  2  0
 12 16  1  0
 13 20  1  0
 13 21  1  0
 15 22  2  0
 17 18  2  3
 17 19  1  0
 22 26  1  0
M  END
>  <ID>  (1) 
conformer_0

$$$$
