
     RDKit          3D

 23 25  0  0  0  0  0  0  0  0999 V2000
   64.3288   54.2435  109.2254 C   0  0  0  0  0  0  0  0  0  0  0  0
   64.5968   55.7996  109.4530 C   0  0  0  0  0  0  0  0  0  0  0  0
   64.0844   56.4729  108.2834 C   0  0  0  0  0  0  0  0  0  0  0  0
   63.2106   51.1136  110.5286 C   0  0  0  0  0  0  0  0  0  0  0  0
   61.3287   49.9110  109.5394 N   0  0  0  0  0  0  0  0  0  0  0  0
   61.6809   48.7981  110.1584 C   0  0  0  0  0  0  0  0  0  0  0  0
   61.9811   55.2811  108.8685 C   0  0  0  0  0  0  0  0  0  0  0  0
   63.4527   49.9553  111.1427 N   0  0  0  0  0  0  0  0  0  0  0  0
   62.3796   57.9021  109.2740 C   0  0  0  0  0  0  0  0  0  0  0  0
   62.1660   51.7546  108.3796 O   0  0  0  0  0  0  0  0  0  0  0  0
   63.4921   58.8894  109.2163 C   0  0  0  0  0  0  0  0  0  0  0  0
   62.5786   56.6547  108.4247 C   0  0  0  0  0  0  0  0  0  0  0  0
   64.0672   52.2486  110.8310 C   0  0  0  0  0  0  0  0  0  0  0  0
   62.7956   54.1330  109.6076 C   0  0  0  0  0  0  0  0  0  0  0  0
   63.3408   53.5766  110.8868 C   0  0  0  0  0  0  0  0  0  0  0  0
   64.2922   58.8679  107.9258 C   0  0  0  0  0  0  0  0  0  0  0  0
   61.9743   51.2229  109.6532 C   0  0  0  0  0  0  0  0  0  0  0  0
   64.7470   57.5049  107.5397 C   0  0  0  0  0  0  0  0  0  0  0  0
   62.7129   48.8000  111.0015 C   0  0  0  0  0  0  0  0  0  0  0  0
   61.1039   52.1859  110.2167 O   0  0  0  0  0  0  0  0  0  0  0  0
   64.4682   56.0840  110.8227 O   0  0  0  0  0  0  0  0  0  0  0  0
   65.6623   53.7231  109.6463 N   0  0  0  0  0  0  0  0  0  0  0  0
   61.2974   57.8910  110.1297 N   0  0  0  0  0  0  0  0  0  0  0  0
  1  2  1  0
  1 14  1  0
  1 22  1  0
  2  3  1  0
  2 21  1  0
  3 12  1  0
  3 18  1  0
  4  8  1  0
  4 13  1  0
  4 17  1  0
  5  6  2  0
  5 17  1  0
  6 19  1  0
  7 12  1  0
  7 14  1  0
  8 19  2  0
  9 11  1  0
  9 12  1  0
  9 23  1  0
 10 17  1  0
 11 16  1  0
 13 15  1  0
 14 15  1  0
 16 18  1  0
 17 20  1  0
M  END
>  <ID>  (1) 
conformer_0

$$$$
