
     RDKit          3D

 11 11  0  0  0  0  0  0  0  0999 V2000
   61.5834   51.6743  107.7351 O   0  0  0  0  0  0  0  0  0  0  0  0
   63.8425   53.1968  110.3166 C   0  0  0  0  0  0  0  0  0  0  0  0
   61.7135   51.2293  110.0865 C   0  0  0  0  0  0  0  0  0  0  0  0
   60.6765   52.0176  110.5959 O   0  0  0  0  0  0  0  0  0  0  0  0
   64.1399   51.6713  110.7862 S   0  0  0  0  0  0  0  0  0  0  0  0
   64.7931   54.2752  110.1551 O   0  0  0  0  0  0  0  0  0  0  0  0
   62.6862   49.1912  111.4037 Cl  0  0  0  0  0  0  0  0  0  0  0  0
   62.3033   51.8259  108.8736 C   0  0  0  0  0  0  0  0  0  0  0  0
   63.7959   53.5308  107.8914 O   0  0  0  0  0  0  0  0  0  0  0  0
   62.7431   50.9605  111.1617 C   0  0  0  0  0  0  0  0  0  0  0  0
   63.0149   53.1258  109.0108 C   0  0  0  0  0  0  0  0  0  0  0  0
  1  8  1  0
  2  5  1  0
  2  6  1  0
  2 11  1  0
  3  4  1  0
  3  8  1  0
  3 10  1  0
  5 10  1  0
  7 10  1  0
  8 11  1  0
  9 11  1  0
M  END
>  <ID>  (1) 
conformer_0

$$$$
