
     RDKit          3D

 29 32  0  0  0  0  0  0  0  0999 V2000
   63.6446   53.4772  109.8718 C   0  0  0  0  0  0  0  0  0  0  0  0
   63.4684   55.3674  108.2491 C   0  0  0  0  0  0  0  0  0  0  0  0
   61.5724   57.1840  109.4376 C   0  0  0  0  0  0  0  0  0  0  0  0
   64.5407   54.4974  109.1087 C   0  0  0  0  0  0  0  0  0  0  0  0
   64.0260   56.8548  110.2079 C   0  0  0  0  0  0  0  0  0  0  0  0
   63.2272   59.0576  109.3637 C   0  0  0  0  0  0  0  0  0  0  0  0
   61.3969   52.8509  109.5895 O   0  0  0  0  0  0  0  0  0  0  0  0
   63.8364   58.5526  107.9870 C   0  0  0  0  0  0  0  0  0  0  0  0
   62.3699   50.5404  109.7820 C   0  0  0  0  0  0  0  0  0  0  0  0
   62.6136   52.9205  108.8929 C   0  0  0  0  0  0  0  0  0  0  0  0
   64.0220   52.3531  110.7665 C   0  0  0  0  0  0  0  0  0  0  0  0
   61.8927   48.5662  111.2219 C   0  0  0  0  0  0  0  0  0  0  0  0
   64.1147   55.9101  111.4607 C   0  0  0  0  0  0  0  0  0  0  0  0
   60.9082   59.5010  110.3048 C   0  0  0  0  0  0  0  0  0  0  0  0
   63.9253   58.3262  110.6023 C   0  0  0  0  0  0  0  0  0  0  0  0
   60.4783   56.9094  108.4333 C   0  0  0  0  0  0  0  0  0  0  0  0
   63.8806   50.0597  111.6437 C   0  0  0  0  0  0  0  0  0  0  0  0
   61.3707   49.5965  110.3315 C   0  0  0  0  0  0  0  0  0  0  0  0
   63.0235   48.9706  112.0353 C   0  0  0  0  0  0  0  0  0  0  0  0
   61.4084   51.2951  107.7786 O   0  0  0  0  0  0  0  0  0  0  0  0
   62.8609   56.3962  109.3069 C   0  0  0  0  0  0  0  0  0  0  0  0
   60.2171   55.4948  108.1666 C   0  0  0  0  0  0  0  0  0  0  0  0
   63.2795   51.0769  110.8039 C   0  0  0  0  0  0  0  0  0  0  0  0
   61.7680   58.6567  109.4955 C   0  0  0  0  0  0  0  0  0  0  0  0
   63.0004   58.5199  111.8948 C   0  0  0  0  0  0  0  0  0  0  0  0
   61.7955   60.6454  110.8577 C   0  0  0  0  0  0  0  0  0  0  0  0
   61.8963   51.6837  108.9176 C   0  0  0  0  0  0  0  0  0  0  0  0
   65.2226   58.1003  107.9696 C   0  0  0  0  0  0  0  0  0  0  0  0
   62.6719   60.0375  111.9835 C   0  0  0  0  0  0  0  0  0  0  0  0
  1  4  1  0
  1 10  1  0
  1 11  1  0
  2  4  1  0
  2 21  1  0
  3 16  1  0
  3 21  1  0
  3 24  1  0
  5 13  1  0
  5 15  1  0
  5 21  1  0
  6  8  1  0
  6 15  1  0
  6 24  1  0
  7 10  1  0
  8 28  1  0
  9 18  1  0
  9 23  1  0
  9 27  1  0
 10 27  1  0
 11 23  1  0
 12 18  1  0
 12 19  1  0
 14 24  1  0
 14 26  1  0
 15 25  1  0
 16 22  1  0
 17 19  1  0
 17 23  1  0
 20 27  1  0
 25 29  1  0
 26 29  1  0
M  END
>  <ID>  (1) 
conformer_0

$$$$
