
     RDKit          3D

 30 33  0  0  0  0  0  0  0  0999 V2000
   61.0360   50.0864  108.2440 F   0  0  0  0  0  0  0  0  0  0  0  0
   60.7221   55.7020  108.6385 C   0  0  0  0  0  0  0  0  0  0  0  0
   64.2248   56.7861  109.0871 C   0  0  0  0  0  0  0  0  0  0  0  0
   61.1427   53.5776  107.5124 O   0  0  0  0  0  0  0  0  0  0  0  0
   63.5792   54.4474  107.6654 O   0  0  0  0  0  0  0  0  0  0  0  0
   62.5400   60.5012  110.6909 O   0  0  0  0  0  0  0  0  0  0  0  0
   62.2916   49.7204  110.1985 C   0  0  0  0  0  0  0  0  0  0  0  0
   64.4601   58.4467  107.4570 O   0  0  0  0  0  0  0  0  0  0  0  0
   63.2091   60.1421  109.6874 C   0  0  0  0  0  0  0  0  0  0  0  0
   63.0079   58.8562  109.1761 N   0  0  0  0  0  0  0  0  0  0  0  0
   62.9420   54.5641  108.9685 C   0  0  0  0  0  0  0  0  0  0  0  0
   61.3204   52.7464  108.4673 C   0  0  0  0  0  0  0  0  0  0  0  0
   63.7189   49.2191  111.9402 F   0  0  0  0  0  0  0  0  0  0  0  0
   64.0046   58.1304  108.5658 C   0  0  0  0  0  0  0  0  0  0  0  0
   61.4392   54.2411  108.8046 C   0  0  0  0  0  0  0  0  0  0  0  0
   59.8151   55.8018  109.6421 O   0  0  0  0  0  0  0  0  0  0  0  0
   63.0128   56.0081  109.4400 C   0  0  0  0  0  0  0  0  0  0  0  0
   61.8925   50.5789  109.1862 C   0  0  0  0  0  0  0  0  0  0  0  0
   64.2418   61.0018  109.1492 C   0  0  0  0  0  0  0  0  0  0  0  0
   63.8826   51.3650  110.9060 C   0  0  0  0  0  0  0  0  0  0  0  0
   61.8381   56.7175  108.8245 C   0  0  0  0  0  0  0  0  0  0  0  0
   63.3073   50.1159  111.0303 C   0  0  0  0  0  0  0  0  0  0  0  0
   63.3340   52.3042  109.9904 C   0  0  0  0  0  0  0  0  0  0  0  0
   65.4805   56.5484  109.8112 C   0  0  0  0  0  0  0  0  0  0  0  0
   63.7383   53.6896  109.9093 C   0  0  0  0  0  0  0  0  0  0  0  0
   62.2541   51.8919  109.1904 C   0  0  0  0  0  0  0  0  0  0  0  0
   65.3954   55.6204  110.9411 N   0  0  0  0  0  0  0  0  0  0  0  0
   60.1218   55.9244  107.3948 O   0  0  0  0  0  0  0  0  0  0  0  0
   61.6391   48.5795  110.3931 F   0  0  0  0  0  0  0  0  0  0  0  0
   61.7372   58.1474  109.3197 C   0  0  0  0  0  0  0  0  0  0  0  0
  1 18  1  0
  2 15  1  0
  2 16  1  0
  2 21  1  0
  2 28  1  0
  3 14  1  0
  3 17  1  0
  3 24  1  0
  4 12  1  0
  5 11  1  0
  6  9  2  0
  7 18  1  0
  7 22  2  0
  7 29  1  0
  8 14  2  0
  9 10  1  0
  9 19  1  0
 10 14  1  0
 10 30  1  0
 11 15  1  0
 11 17  1  0
 11 25  1  0
 12 15  1  0
 12 26  1  0
 13 22  1  0
 17 21  1  0
 18 26  1  0
 20 22  1  0
 20 23  1  0
 21 30  1  0
 23 25  1  0
 23 26  2  0
 24 27  1  0
M  END
>  <ID>  (1) 
conformer_0

$$$$
