
     RDKit          3D

 24 26  0  0  0  0  0  0  0  0999 V2000
   63.1646   52.5595  109.1875 C   0  0  0  0  0  0  0  0  0  0  0  0
   64.8555   58.2866  110.0289 O   0  0  0  0  0  0  0  0  0  0  0  0
   61.7783   56.9246  107.6415 O   0  0  0  0  0  0  0  0  0  0  0  0
   62.5873   57.4963  109.9417 C   0  0  0  0  0  0  0  0  0  0  0  0
   61.2446   50.6097  108.3045 O   0  0  0  0  0  0  0  0  0  0  0  0
   59.5208   56.5548  108.1139 C   0  0  0  0  0  0  0  0  0  0  0  0
   62.4455   48.8640  111.1556 C   0  0  0  0  0  0  0  0  0  0  0  0
   61.9180   58.6418  110.2912 O   0  0  0  0  0  0  0  0  0  0  0  0
   62.8984   57.2806  108.4859 C   0  0  0  0  0  0  0  0  0  0  0  0
   64.0620   56.0382  111.3420 C   0  0  0  0  0  0  0  0  0  0  0  0
   62.5305   54.9770  109.5330 O   0  0  0  0  0  0  0  0  0  0  0  0
   64.5357   52.8598  109.2377 O   0  0  0  0  0  0  0  0  0  0  0  0
   63.9477   57.4473  110.6981 C   0  0  0  0  0  0  0  0  0  0  0  0
   63.4389   49.6515  111.5925 C   0  0  0  0  0  0  0  0  0  0  0  0
   63.9016   55.2506  109.1925 C   0  0  0  0  0  0  0  0  0  0  0  0
   64.8324   55.2414  110.2958 N   0  0  0  0  0  0  0  0  0  0  0  0
   61.7786   54.5706  108.2680 C   0  0  0  0  0  0  0  0  0  0  0  0
   62.0939   53.0569  108.3145 C   0  0  0  0  0  0  0  0  0  0  0  0
   62.9778   51.2566  109.8736 C   0  0  0  0  0  0  0  0  0  0  0  0
   63.7042   50.8634  110.9710 C   0  0  0  0  0  0  0  0  0  0  0  0
   60.8719   55.7818  107.9348 C   0  0  0  0  0  0  0  0  0  0  0  0
   64.0167   56.3527  108.3308 O   0  0  0  0  0  0  0  0  0  0  0  0
   61.6934   49.1501  110.0412 C   0  0  0  0  0  0  0  0  0  0  0  0
   61.9651   50.3733  109.4126 C   0  0  0  0  0  0  0  0  0  0  0  0
  1 12  1  0
  1 18  1  0
  1 19  1  0
  2 13  1  0
  3  9  1  0
  3 21  1  0
  4  8  1  0
  4  9  1  0
  4 13  1  0
  5 24  1  0
  6 21  1  0
  7 14  2  0
  7 23  1  0
  9 22  1  0
 10 13  1  0
 10 16  1  0
 11 15  1  0
 11 17  1  0
 14 20  1  0
 15 16  1  0
 15 22  1  0
 17 18  1  0
 17 21  1  0
 19 20  2  0
 19 24  1  0
 23 24  2  0
M  END
>  <ID>  (1) 
conformer_0

$$$$
