
     RDKit          3D

 21 24  0  0  0  0  0  0  0  0999 V2000
   64.0628   52.2977  110.8196 N   0  0  0  0  0  0  0  0  0  0  0  0
   63.3814   56.9861  109.7217 C   0  0  0  0  0  0  0  0  0  0  0  0
   65.6421   54.8318  110.3980 N   0  0  0  0  0  0  0  0  0  0  0  0
   63.6691   49.9229  111.2998 C   0  0  0  0  0  0  0  0  0  0  0  0
   63.2590   51.1634  110.6716 C   0  0  0  0  0  0  0  0  0  0  0  0
   62.6839   48.8473  111.3047 C   0  0  0  0  0  0  0  0  0  0  0  0
   63.6064   55.6753  109.4034 C   0  0  0  0  0  0  0  0  0  0  0  0
   61.3861   49.2202  110.6982 C   0  0  0  0  0  0  0  0  0  0  0  0
   61.3269   55.8385  108.7294 C   0  0  0  0  0  0  0  0  0  0  0  0
   62.5147   53.5279  109.3874 N   0  0  0  0  0  0  0  0  0  0  0  0
   62.0763   52.3290  108.8246 C   0  0  0  0  0  0  0  0  0  0  0  0
   62.3834   51.0872  109.5692 C   0  0  0  0  0  0  0  0  0  0  0  0
   64.2227   54.7649  110.4373 C   0  0  0  0  0  0  0  0  0  0  0  0
   60.7308   56.9989  108.8934 C   0  0  0  0  0  0  0  0  0  0  0  0
   61.2512   58.1638  109.4939 C   0  0  0  0  0  0  0  0  0  0  0  0
   62.3511   54.8738  108.8613 C   0  0  0  0  0  0  0  0  0  0  0  0
   61.5899   52.3086  107.6751 O   0  0  0  0  0  0  0  0  0  0  0  0
   62.6397   58.0506  109.8707 C   0  0  0  0  0  0  0  0  0  0  0  0
   61.5525   49.9146  109.4288 C   0  0  0  0  0  0  0  0  0  0  0  0
   59.5107   57.0283  108.3969 F   0  0  0  0  0  0  0  0  0  0  0  0
   63.7318   53.3858  110.0831 C   0  0  0  0  0  0  0  0  0  0  0  0
  1  5  1  0
  1 21  2  0
  2  7  1  0
  2 18  2  0
  3 13  1  0
  4  5  1  0
  4  6  1  0
  5 12  1  0
  6  8  1  0
  7 13  1  0
  7 16  1  0
  8 19  1  0
  9 14  2  0
  9 16  2  0
 10 11  1  0
 10 16  1  0
 10 21  1  0
 11 12  1  0
 11 17  2  0
 12 19  1  0
 13 21  1  0
 14 15  1  0
 14 20  1  0
 15 18  1  0
M  END
>  <ID>  (1) 
conformer_0

$$$$
