
     RDKit          3D

  6  5  0  0  0  0  0  0  0  0999 V2000
   63.6410   53.5661  108.9061 C   0  0  0  0  0  0  0  0  0  0  0  0
   63.4110   52.9767  111.1711 O   0  0  0  0  0  0  0  0  0  0  0  0
   64.7334   54.4242  109.5299 N   0  0  0  0  0  0  0  0  0  0  0  0
   61.6287   50.6171  108.8571 O   0  0  0  0  0  0  0  0  0  0  0  0
   63.0263   52.5647  109.8163 C   0  0  0  0  0  0  0  0  0  0  0  0
   62.4652   51.1941  109.8997 C   0  0  0  0  0  0  0  0  0  0  0  0
  1  3  1  0
  1  5  1  0
  2  5  1  0
  4  6  1  0
  5  6  1  0
M  END
>  <ID>  (1) 
conformer_0

$$$$
