
     RDKit          3D

 28 31  0  0  0  0  0  0  0  0999 V2000
   61.2209   60.3810  111.3463 C   0  0  0  0  0  0  0  0  0  0  0  0
   62.1184   51.7610  108.8983 C   0  0  0  0  0  0  0  0  0  0  0  0
   64.3364   54.8747  111.1593 O   0  0  0  0  0  0  0  0  0  0  0  0
   59.3435   58.2564  109.4665 C   0  0  0  0  0  0  0  0  0  0  0  0
   61.7524   54.5710  108.5342 N   0  0  0  0  0  0  0  0  0  0  0  0
   62.1171   50.6197  109.7072 N   0  0  0  0  0  0  0  0  0  0  0  0
   63.5697   59.4674  111.0023 C   0  0  0  0  0  0  0  0  0  0  0  0
   62.8966   50.9159  110.8437 C   0  0  0  0  0  0  0  0  0  0  0  0
   64.3725   58.9761  109.7678 C   0  0  0  0  0  0  0  0  0  0  0  0
   60.0300   60.0926  110.9393 N   0  0  0  0  0  0  0  0  0  0  0  0
   63.8779   56.5212  109.4248 C   0  0  0  0  0  0  0  0  0  0  0  0
   63.9759   54.9987  109.7875 C   0  0  0  0  0  0  0  0  0  0  0  0
   59.9819   56.3512  108.1138 C   0  0  0  0  0  0  0  0  0  0  0  0
   59.3881   59.1971  110.3019 C   0  0  0  0  0  0  0  0  0  0  0  0
   61.4035   48.4070  110.4386 C   0  0  0  0  0  0  0  0  0  0  0  0
   63.4182   49.6925  111.4293 C   0  0  0  0  0  0  0  0  0  0  0  0
   62.4660   60.2601  110.9965 O   0  0  0  0  0  0  0  0  0  0  0  0
   62.4681   48.5205  111.4586 C   0  0  0  0  0  0  0  0  0  0  0  0
   63.4775   57.9731  111.4796 C   0  0  0  0  0  0  0  0  0  0  0  0
   62.6422   54.2068  109.5682 C   0  0  0  0  0  0  0  0  0  0  0  0
   61.6381   51.8442  107.7345 O   0  0  0  0  0  0  0  0  0  0  0  0
   64.4750   57.4809  110.3786 N   0  0  0  0  0  0  0  0  0  0  0  0
   64.9345   54.4224  108.8784 O   0  0  0  0  0  0  0  0  0  0  0  0
   63.5892   52.1395  110.6065 O   0  0  0  0  0  0  0  0  0  0  0  0
   61.3411   49.4524  109.4854 C   0  0  0  0  0  0  0  0  0  0  0  0
   61.1231   55.6465  108.1875 N   0  0  0  0  0  0  0  0  0  0  0  0
   59.3814   57.3585  108.6468 C   0  0  0  0  0  0  0  0  0  0  0  0
   62.9584   52.7384  109.5301 C   0  0  0  0  0  0  0  0  0  0  0  0
  1 10  1  0
  1 17  1  0
  2  6  1  0
  2 21  2  0
  2 28  1  0
  3 12  1  0
  4 14  2  0
  4 27  2  0
  5 20  1  0
  5 26  1  0
  6  8  1  0
  6 25  1  0
  7  9  1  0
  7 17  1  0
  7 19  1  0
  8 16  1  0
  8 24  1  0
  9 22  1  0
 10 14  1  0
 11 12  1  0
 11 22  1  0
 12 20  1  0
 12 23  1  0
 13 26  1  0
 13 27  1  0
 15 18  1  0
 15 25  2  0
 16 18  1  0
 19 22  1  0
 20 28  1  0
 24 28  1  0
M  END
>  <ID>  (1) 
conformer_0

$$$$
