
     RDKit          3D

 15 16  0  0  0  0  0  0  0  0999 V2000
   64.2879   50.6659  111.6542 C   0  0  0  0  0  0  0  0  0  0  0  0
   63.3601   56.6933  110.9313 C   0  0  0  0  0  0  0  0  0  0  0  0
   63.8547   53.1845  110.4966 C   0  0  0  0  0  0  0  0  0  0  0  0
   60.7059   51.0726  107.4136 F   0  0  0  0  0  0  0  0  0  0  0  0
   62.5685   55.3547  109.0108 C   0  0  0  0  0  0  0  0  0  0  0  0
   64.5100   55.6773  111.1952 C   0  0  0  0  0  0  0  0  0  0  0  0
   62.5590   49.6869  110.2034 C   0  0  0  0  0  0  0  0  0  0  0  0
   61.5356   50.9678  108.4810 C   0  0  0  0  0  0  0  0  0  0  0  0
   63.6107   54.3075  109.4389 C   0  0  0  0  0  0  0  0  0  0  0  0
   63.1317   51.9635  109.9593 C   0  0  0  0  0  0  0  0  0  0  0  0
   62.2371   52.0565  108.8786 C   0  0  0  0  0  0  0  0  0  0  0  0
   63.3152   50.7630  110.5929 C   0  0  0  0  0  0  0  0  0  0  0  0
   64.8337   55.1000  109.7862 N   0  0  0  0  0  0  0  0  0  0  0  0
   61.6625   49.7698  109.1235 C   0  0  0  0  0  0  0  0  0  0  0  0
   63.0558   56.7750  109.4229 C   0  0  0  0  0  0  0  0  0  0  0  0
  1 12  1  0
  2  6  1  0
  2 15  1  0
  3  9  1  0
  3 10  1  0
  4  8  1  0
  5  9  1  0
  5 15  1  0
  6 13  1  0
  7 12  2  0
  7 14  1  0
  8 11  1  0
  8 14  2  0
  9 13  1  0
 10 11  2  0
 10 12  1  0
M  END
>  <ID>  (1) 
conformer_0

$$$$
