
     RDKit          3D

 22 23  0  0  0  0  0  0  0  0999 V2000
   64.8720   53.7131  108.7505 C   0  0  0  0  0  0  0  0  0  0  0  0
   62.3249   50.9905  109.5622 C   0  0  0  0  0  0  0  0  0  0  0  0
   61.6712   49.7680  109.8767 C   0  0  0  0  0  0  0  0  0  0  0  0
   62.0967   48.9778  110.9014 C   0  0  0  0  0  0  0  0  0  0  0  0
   64.2559   52.3381  110.4670 N   0  0  0  0  0  0  0  0  0  0  0  0
   63.8028   50.5021  111.5329 C   0  0  0  0  0  0  0  0  0  0  0  0
   61.1613   57.2286  110.4805 C   0  0  0  0  0  0  0  0  0  0  0  0
   63.4284   51.3231  110.4621 C   0  0  0  0  0  0  0  0  0  0  0  0
   64.1518   53.5580  109.9110 C   0  0  0  0  0  0  0  0  0  0  0  0
   63.7573   56.4914  109.3119 C   0  0  0  0  0  0  0  0  0  0  0  0
   62.0417   58.1376  109.7109 C   0  0  0  0  0  0  0  0  0  0  0  0
   65.4604   57.0331  107.7576 O   0  0  0  0  0  0  0  0  0  0  0  0
   64.8138   56.0598  108.3896 C   0  0  0  0  0  0  0  0  0  0  0  0
   63.2829   54.4538  110.5785 C   0  0  0  0  0  0  0  0  0  0  0  0
   65.1884   54.7606  108.1042 C   0  0  0  0  0  0  0  0  0  0  0  0
   61.9041   52.6822  107.8609 O   0  0  0  0  0  0  0  0  0  0  0  0
   63.1347   55.6843  110.2156 C   0  0  0  0  0  0  0  0  0  0  0  0
   63.4607   57.9102  109.3154 N   0  0  0  0  0  0  0  0  0  0  0  0
   61.1514   57.0959  109.0033 C   0  0  0  0  0  0  0  0  0  0  0  0
   63.1046   49.3545  111.7278 C   0  0  0  0  0  0  0  0  0  0  0  0
   61.0324   50.7490  107.5583 O   0  0  0  0  0  0  0  0  0  0  0  0
   61.6582   51.5634  108.3011 C   0  0  0  0  0  0  0  0  0  0  0  0
  1  9  1  0
  1 15  2  0
  2  3  2  0
  2  8  1  0
  2 22  1  0
  3  4  1  0
  4 20  2  0
  5  8  1  0
  5  9  1  0
  6  8  2  0
  6 20  1  0
  7 11  1  0
  7 19  1  0
  9 14  1  0
 10 13  2  0
 10 17  1  0
 10 18  1  0
 11 18  1  0
 12 13  1  0
 13 15  1  0
 14 17  2  0
 16 22  2  0
 21 22  1  0
M  END
>  <ID>  (1) 
conformer_0

$$$$
