
     RDKit          3D

 18 18  0  0  0  0  0  0  0  0999 V2000
   62.7064   48.2776  110.8452 O   0  0  0  0  0  0  0  0  0  0  0  0
   62.7408   50.6271  110.7925 C   0  0  0  0  0  0  0  0  0  0  0  0
   62.7587   53.0441  109.6798 C   0  0  0  0  0  0  0  0  0  0  0  0
   63.6067   55.4113  111.7719 O   0  0  0  0  0  0  0  0  0  0  0  0
   64.3994   55.1266  109.4206 C   0  0  0  0  0  0  0  0  0  0  0  0
   62.5121   53.8865  108.3783 C   0  0  0  0  0  0  0  0  0  0  0  0
   63.7308   54.7264  108.0953 C   0  0  0  0  0  0  0  0  0  0  0  0
   65.0047   53.9595  109.9616 N   0  0  0  0  0  0  0  0  0  0  0  0
   60.7448   52.1239  110.5207 O   0  0  0  0  0  0  0  0  0  0  0  0
   61.8973   53.1032  107.4502 O   0  0  0  0  0  0  0  0  0  0  0  0
   62.0427   54.2301  109.6676 O   0  0  0  0  0  0  0  0  0  0  0  0
   63.8334   55.9899  110.5205 C   0  0  0  0  0  0  0  0  0  0  0  0
   64.2320   52.7364  109.5881 C   0  0  0  0  0  0  0  0  0  0  0  0
   61.8135   51.8972  109.7328 C   0  0  0  0  0  0  0  0  0  0  0  0
   62.2518   49.4457  111.5727 C   0  0  0  0  0  0  0  0  0  0  0  0
   62.3333   50.6053  109.4538 C   0  0  0  0  0  0  0  0  0  0  0  0
   64.1319   50.8042  111.2133 C   0  0  0  0  0  0  0  0  0  0  0  0
   61.2662   49.7549  108.9314 C   0  0  0  0  0  0  0  0  0  0  0  0
  1 15  1  0
  2 15  1  0
  2 16  1  0
  2 17  1  0
  3 11  1  0
  3 13  1  0
  3 14  1  0
  4 12  1  0
  5  7  1  0
  5  8  1  0
  5 12  1  0
  6  7  1  0
  6 10  2  0
  6 11  1  0
  8 13  1  0
  9 14  1  0
 14 16  1  0
 16 18  1  0
M  END
>  <ID>  (1) 
conformer_0

$$$$
