
     RDKit          3D

 18 19  0  0  0  0  0  0  0  0999 V2000
   61.8692   52.8690  107.3183 O   0  0  0  0  0  0  0  0  0  0  0  0
   62.9450   57.1638  108.9189 C   0  0  0  0  0  0  0  0  0  0  0  0
   63.0280   54.0063  109.9596 C   0  0  0  0  0  0  0  0  0  0  0  0
   62.2685   49.7490  110.8236 C   0  0  0  0  0  0  0  0  0  0  0  0
   63.6368   50.1740  111.2663 C   0  0  0  0  0  0  0  0  0  0  0  0
   63.0672   52.5895  110.4290 C   0  0  0  0  0  0  0  0  0  0  0  0
   62.9535   54.6275  108.5739 C   0  0  0  0  0  0  0  0  0  0  0  0
   63.2738   56.0052  107.7884 C   0  0  0  0  0  0  0  0  0  0  0  0
   61.2822   50.0582  108.5995 O   0  0  0  0  0  0  0  0  0  0  0  0
   60.7537   54.7411  107.6073 O   0  0  0  0  0  0  0  0  0  0  0  0
   62.4209   56.6608  110.3754 C   0  0  0  0  0  0  0  0  0  0  0  0
   63.7698   56.0434  110.9610 C   0  0  0  0  0  0  0  0  0  0  0  0
   65.3698   54.5182  109.8334 N   0  0  0  0  0  0  0  0  0  0  0  0
   61.8921   51.9235  109.8426 O   0  0  0  0  0  0  0  0  0  0  0  0
   64.0260   51.5257  110.8106 C   0  0  0  0  0  0  0  0  0  0  0  0
   61.8244   50.5522  109.6927 C   0  0  0  0  0  0  0  0  0  0  0  0
   64.1184   54.9613  109.9179 C   0  0  0  0  0  0  0  0  0  0  0  0
   61.7494   54.0157  107.7610 C   0  0  0  0  0  0  0  0  0  0  0  0
  1 18  2  0
  2  8  1  0
  2 11  1  0
  3  6  1  0
  3  7  1  0
  3 17  1  0
  4  5  1  0
  4 16  1  0
  5 15  1  0
  6 14  1  0
  6 15  1  0
  7  8  1  0
  7 18  1  0
  9 16  2  0
 10 18  1  0
 11 12  1  0
 12 17  1  0
 13 17  1  0
 14 16  1  0
M  END
>  <ID>  (1) 
conformer_0

$$$$
