
     RDKit          3D

 11 11  0  0  0  0  0  0  0  0999 V2000
   62.2615   51.5888  108.9095 C   0  0  0  0  0  0  0  0  0  0  0  0
   63.6248   51.2244  110.6376 C   0  0  0  0  0  0  0  0  0  0  0  0
   63.3739   52.1264  109.6521 C   0  0  0  0  0  0  0  0  0  0  0  0
   64.0900   53.3609  109.2683 C   0  0  0  0  0  0  0  0  0  0  0  0
   61.6776   52.1323  107.8594 O   0  0  0  0  0  0  0  0  0  0  0  0
   62.9701   55.1999  110.3338 O   0  0  0  0  0  0  0  0  0  0  0  0
   62.7542   50.1093  110.5043 C   0  0  0  0  0  0  0  0  0  0  0  0
   65.2100   54.9974  110.5857 N   0  0  0  0  0  0  0  0  0  0  0  0
   64.1602   53.6426  107.9047 O   0  0  0  0  0  0  0  0  0  0  0  0
   61.9067   50.3220  109.4086 C   0  0  0  0  0  0  0  0  0  0  0  0
   64.0529   54.5638  110.0995 C   0  0  0  0  0  0  0  0  0  0  0  0
  1  3  2  0
  1  5  1  0
  1 10  1  0
  2  3  1  0
  2  7  1  0
  3  4  1  0
  4  9  1  0
  4 11  1  0
  6 11  2  0
  7 10  1  0
  8 11  1  0
M  END
>  <ID>  (1) 
conformer_0

$$$$
