
     RDKit          3D

 11 11  0  0  0  0  0  0  0  0999 V2000
   63.4025   50.4120  110.9026 C   0  0  0  0  0  0  0  0  0  0  0  0
   62.1788   49.8939  110.2825 C   0  0  0  0  0  0  0  0  0  0  0  0
   61.7895   54.3636  109.2821 O   0  0  0  0  0  0  0  0  0  0  0  0
   64.1932   55.6317  111.2903 C   0  0  0  0  0  0  0  0  0  0  0  0
   62.6610   53.3300  109.1354 C   0  0  0  0  0  0  0  0  0  0  0  0
   64.9316   53.8784  109.8176 N   0  0  0  0  0  0  0  0  0  0  0  0
   64.5789   55.3431  109.8148 C   0  0  0  0  0  0  0  0  0  0  0  0
   64.0420   51.7187  110.6444 C   0  0  0  0  0  0  0  0  0  0  0  0
   63.6420   53.1990  110.4044 C   0  0  0  0  0  0  0  0  0  0  0  0
   61.8111   50.4951  108.9948 C   0  0  0  0  0  0  0  0  0  0  0  0
   62.0677   51.9819  108.8334 C   0  0  0  0  0  0  0  0  0  0  0  0
  1  2  1  0
  1  8  1  0
  2 10  1  0
  3  5  1  0
  4  7  1  0
  5  9  1  0
  5 11  1  0
  6  7  1  0
  6  9  1  0
  8  9  1  0
 10 11  1  0
M  END
>  <ID>  (1) 
conformer_0

$$$$
