
     RDKit          3D

 27 28  0  0  0  0  0  0  0  0999 V2000
   64.0309   55.4543  109.7413 C   0  0  0  0  0  0  0  0  0  0  0  0
   63.2562   54.0172  107.3957 O   0  0  0  0  0  0  0  0  0  0  0  0
   61.7145   56.2994  109.3431 C   0  0  0  0  0  0  0  0  0  0  0  0
   63.8524   57.3766  112.2113 C   0  0  0  0  0  0  0  0  0  0  0  0
   63.1636   54.1414  109.8401 C   0  0  0  0  0  0  0  0  0  0  0  0
   60.0365   56.7653  107.5138 C   0  0  0  0  0  0  0  0  0  0  0  0
   60.2623   55.6331  106.7064 O   0  0  0  0  0  0  0  0  0  0  0  0
   62.7930   56.7644  111.4385 O   0  0  0  0  0  0  0  0  0  0  0  0
   65.2534   56.7319  107.6061 C   0  0  0  0  0  0  0  0  0  0  0  0
   63.0597   56.6088  109.9661 C   0  0  0  0  0  0  0  0  0  0  0  0
   61.3765   52.9477  107.9228 O   0  0  0  0  0  0  0  0  0  0  0  0
   59.4741   56.8823  108.9076 C   0  0  0  0  0  0  0  0  0  0  0  0
   60.9797   50.1163  108.5063 N   0  0  0  0  0  0  0  0  0  0  0  0
   64.9979   55.3515  110.8645 N   0  0  0  0  0  0  0  0  0  0  0  0
   63.5124   58.0041  109.4408 C   0  0  0  0  0  0  0  0  0  0  0  0
   61.8835   50.2038  109.5612 C   0  0  0  0  0  0  0  0  0  0  0  0
   62.6096   51.3457  109.6755 C   0  0  0  0  0  0  0  0  0  0  0  0
   63.6509   51.7504  110.4293 C   0  0  0  0  0  0  0  0  0  0  0  0
   61.2176   55.0318  108.9186 N   0  0  0  0  0  0  0  0  0  0  0  0
   61.9989   49.1344  110.3471 C   0  0  0  0  0  0  0  0  0  0  0  0
   63.8633   49.7362  111.7667 C   0  0  0  0  0  0  0  0  0  0  0  0
   64.1803   53.0852  110.3095 C   0  0  0  0  0  0  0  0  0  0  0  0
   62.8724   48.9571  111.3516 C   0  0  0  0  0  0  0  0  0  0  0  0
   65.0471   55.5938  108.5495 C   0  0  0  0  0  0  0  0  0  0  0  0
   62.2854   53.9193  108.4701 C   0  0  0  0  0  0  0  0  0  0  0  0
   64.2629   50.9543  111.3440 C   0  0  0  0  0  0  0  0  0  0  0  0
   60.6157   57.1849  109.8929 C   0  0  0  0  0  0  0  0  0  0  0  0
  1  5  1  0
  1 10  1  0
  1 14  1  0
  1 24  1  0
  2 25  1  0
  3 10  1  0
  3 19  1  0
  3 27  1  0
  4  8  1  0
  5 22  1  0
  5 25  1  0
  6  7  1  0
  6 12  1  0
  8 10  1  0
  9 24  1  0
 10 15  1  0
 11 25  1  0
 12 27  1  0
 13 16  1  0
 16 17  1  0
 16 20  2  0
 17 18  2  0
 18 22  1  0
 18 26  1  0
 19 25  1  0
 20 23  1  0
 21 23  2  0
 21 26  1  0
M  END
>  <ID>  (1) 
conformer_0

$$$$
