
     RDKit          3D

 23 26  0  0  0  0  0  0  0  0999 V2000
   61.5335   50.4148  109.3370 C   0  0  0  0  0  0  0  0  0  0  0  0
   64.9082   56.4743  108.1204 C   0  0  0  0  0  0  0  0  0  0  0  0
   65.0808   58.6945  109.0052 C   0  0  0  0  0  0  0  0  0  0  0  0
   63.4968   50.9989  110.6118 C   0  0  0  0  0  0  0  0  0  0  0  0
   64.2394   57.4793  108.8954 N   0  0  0  0  0  0  0  0  0  0  0  0
   63.9604   54.2919  110.7282 C   0  0  0  0  0  0  0  0  0  0  0  0
   60.7999   54.2657  109.2318 O   0  0  0  0  0  0  0  0  0  0  0  0
   64.5384   51.9411  110.5704 N   0  0  0  0  0  0  0  0  0  0  0  0
   62.1011   52.4138  107.6473 O   0  0  0  0  0  0  0  0  0  0  0  0
   65.3419   56.8075  106.6505 C   0  0  0  0  0  0  0  0  0  0  0  0
   62.2708   57.9132  110.1182 O   0  0  0  0  0  0  0  0  0  0  0  0
   63.2597   55.7098  110.3179 C   0  0  0  0  0  0  0  0  0  0  0  0
   63.5353   50.0468  111.5742 C   0  0  0  0  0  0  0  0  0  0  0  0
   62.5651   51.2567  109.6512 C   0  0  0  0  0  0  0  0  0  0  0  0
   62.6789   49.0044  111.7994 C   0  0  0  0  0  0  0  0  0  0  0  0
   62.7598   52.6646  109.0350 C   0  0  0  0  0  0  0  0  0  0  0  0
   61.0929   49.2891  109.9871 C   0  0  0  0  0  0  0  0  0  0  0  0
   62.0671   54.0313  109.2364 C   0  0  0  0  0  0  0  0  0  0  0  0
   63.3335   57.2084  109.9281 C   0  0  0  0  0  0  0  0  0  0  0  0
   62.9576   55.1104  108.8940 N   0  0  0  0  0  0  0  0  0  0  0  0
   64.1680   53.0563  109.6971 C   0  0  0  0  0  0  0  0  0  0  0  0
   61.5842   48.6732  111.0648 C   0  0  0  0  0  0  0  0  0  0  0  0
   64.3624   55.1086  108.2686 C   0  0  0  0  0  0  0  0  0  0  0  0
  1 14  1  0
  1 17  1  0
  2  5  1  0
  2 10  1  0
  2 23  1  0
  3  5  1  0
  4  8  1  0
  4 13  1  0
  4 14  2  0
  5 19  1  0
  6 12  1  0
  6 21  1  0
  7 18  2  0
  8 21  1  0
  9 16  1  0
 11 19  2  0
 12 19  1  0
 12 20  1  0
 13 15  2  0
 14 16  1  0
 15 22  1  0
 16 18  1  0
 16 21  1  0
 17 22  2  0
 18 20  1  0
 20 23  1  0
M  END
>  <ID>  (1) 
conformer_0

$$$$
