
     RDKit          3D

 28 31  0  0  0  0  0  0  0  0999 V2000
   64.1951   51.6541  111.0809 C   0  0  0  0  0  0  0  0  0  0  0  0
   60.8411   55.6617  109.6026 O   0  0  0  0  0  0  0  0  0  0  0  0
   63.0963   57.2029  108.0533 O   0  0  0  0  0  0  0  0  0  0  0  0
   62.5356   50.5917  109.9720 C   0  0  0  0  0  0  0  0  0  0  0  0
   61.3268   50.9393  107.6821 C   0  0  0  0  0  0  0  0  0  0  0  0
   61.7216   49.5271  109.5368 C   0  0  0  0  0  0  0  0  0  0  0  0
   62.6139   51.8517  109.4427 C   0  0  0  0  0  0  0  0  0  0  0  0
   63.5408   54.7868  111.5875 O   0  0  0  0  0  0  0  0  0  0  0  0
   60.2726   56.4213  107.4600 C   0  0  0  0  0  0  0  0  0  0  0  0
   63.5131   52.6015  110.2473 C   0  0  0  0  0  0  0  0  0  0  0  0
   64.5174   54.8307  110.5227 C   0  0  0  0  0  0  0  0  0  0  0  0
   65.1961   55.9708  108.5095 O   0  0  0  0  0  0  0  0  0  0  0  0
   61.7504   52.0610  108.3872 C   0  0  0  0  0  0  0  0  0  0  0  0
   64.3246   53.6855  108.2704 O   0  0  0  0  0  0  0  0  0  0  0  0
   64.4666   53.6031  109.6300 C   0  0  0  0  0  0  0  0  0  0  0  0
   59.7499   57.6653  109.5811 O   0  0  0  0  0  0  0  0  0  0  0  0
   64.0918   59.2994  108.4929 O   0  0  0  0  0  0  0  0  0  0  0  0
   64.3816   56.1098  109.7042 C   0  0  0  0  0  0  0  0  0  0  0  0
   62.0100   57.6252  108.8122 C   0  0  0  0  0  0  0  0  0  0  0  0
   60.9525   49.7957  108.4315 C   0  0  0  0  0  0  0  0  0  0  0  0
   65.5047   57.3335  108.0293 C   0  0  0  0  0  0  0  0  0  0  0  0
   60.6614   56.8563  108.8729 C   0  0  0  0  0  0  0  0  0  0  0  0
   63.0212   56.8107  109.5559 C   0  0  0  0  0  0  0  0  0  0  0  0
   62.0325   48.6733  111.7348 C   0  0  0  0  0  0  0  0  0  0  0  0
   61.5351   48.4354  110.3956 C   0  0  0  0  0  0  0  0  0  0  0  0
   64.2180   58.0651  107.9858 C   0  0  0  0  0  0  0  0  0  0  0  0
   63.4963   50.4652  110.9554 C   0  0  0  0  0  0  0  0  0  0  0  0
   63.3099   49.3904  111.8451 C   0  0  0  0  0  0  0  0  0  0  0  0
  1 10  1  0
  1 27  1  0
  2 22  1  0
  3 19  1  0
  3 26  1  0
  4  6  1  0
  4  7  2  0
  4 27  1  0
  5 13  1  0
  5 20  1  0
  6 20  1  0
  6 25  1  0
  7 10  1  0
  7 13  1  0
  8 11  1  0
  9 22  1  0
 10 15  1  0
 11 15  1  0
 11 18  1  0
 12 18  1  0
 12 21  1  0
 14 15  1  0
 16 22  1  0
 17 26  2  0
 18 23  1  0
 19 22  1  0
 19 23  1  0
 21 26  1  0
 24 25  1  0
 24 28  1  0
 27 28  1  0
M  END
>  <ID>  (1) 
conformer_0

$$$$
