
     RDKit          3D

 12 12  0  0  0  0  0  0  0  0999 V2000
   62.5346   50.8380  110.7199 C   0  0  0  0  0  0  0  0  0  0  0  0
   63.7096   53.1139  110.2247 C   0  0  0  0  0  0  0  0  0  0  0  0
   63.7407   51.7528  110.8562 C   0  0  0  0  0  0  0  0  0  0  0  0
   64.8170   53.1556  109.2855 O   0  0  0  0  0  0  0  0  0  0  0  0
   62.9857   49.3912  110.9584 C   0  0  0  0  0  0  0  0  0  0  0  0
   60.7308   50.1354  109.4303 O   0  0  0  0  0  0  0  0  0  0  0  0
   61.8410   50.8785  109.3801 C   0  0  0  0  0  0  0  0  0  0  0  0
   62.3249   51.9764  108.4910 C   0  0  0  0  0  0  0  0  0  0  0  0
   63.8643   54.1522  111.1283 O   0  0  0  0  0  0  0  0  0  0  0  0
   62.4169   53.3098  109.3568 C   0  0  0  0  0  0  0  0  0  0  0  0
   61.5419   52.2429  107.3901 O   0  0  0  0  0  0  0  0  0  0  0  0
   61.1900   53.3540  109.9988 O   0  0  0  0  0  0  0  0  0  0  0  0
  1  3  1  0
  1  5  1  0
  1  7  1  0
  2  3  1  0
  2  4  1  0
  2  9  1  0
  2 10  1  0
  6  7  1  0
  7  8  1  0
  8 10  1  0
  8 11  1  0
 10 12  1  0
M  END
>  <ID>  (1) 
conformer_0

$$$$
