
     RDKit          3D

 27 30  0  0  0  0  0  0  0  0999 V2000
   61.3686   50.6642  107.9514 O   0  0  0  0  0  0  0  0  0  0  0  0
   60.7617   56.6251  108.6418 C   0  0  0  0  0  0  0  0  0  0  0  0
   60.9211   49.5609  109.9704 O   0  0  0  0  0  0  0  0  0  0  0  0
   63.9286   53.0823  110.2431 C   0  0  0  0  0  0  0  0  0  0  0  0
   59.7726   56.7876  109.7790 C   0  0  0  0  0  0  0  0  0  0  0  0
   64.3785   52.0497  111.0574 N   0  0  0  0  0  0  0  0  0  0  0  0
   62.3673   57.3139  110.2782 C   0  0  0  0  0  0  0  0  0  0  0  0
   63.4845   50.9923  111.0323 C   0  0  0  0  0  0  0  0  0  0  0  0
   62.4085   53.1663  108.2797 C   0  0  0  0  0  0  0  0  0  0  0  0
   63.4609   55.6299  108.8632 C   0  0  0  0  0  0  0  0  0  0  0  0
   60.4315   55.4034  107.6899 C   0  0  0  0  0  0  0  0  0  0  0  0
   63.1670   55.9774  110.3392 C   0  0  0  0  0  0  0  0  0  0  0  0
   64.0424   49.6462  111.2758 C   0  0  0  0  0  0  0  0  0  0  0  0
   61.5936   49.5066  111.3032 C   0  0  0  0  0  0  0  0  0  0  0  0
   62.5175   51.2251  110.0060 C   0  0  0  0  0  0  0  0  0  0  0  0
   64.3899   56.2290  111.1200 O   0  0  0  0  0  0  0  0  0  0  0  0
   64.1430   58.1330  108.6110 C   0  0  0  0  0  0  0  0  0  0  0  0
   62.1410   50.9965  111.4221 C   0  0  0  0  0  0  0  0  0  0  0  0
   62.9283   58.3139  109.4906 C   0  0  0  0  0  0  0  0  0  0  0  0
   65.0048   53.7681  109.7852 O   0  0  0  0  0  0  0  0  0  0  0  0
   64.2917   56.7064  108.2511 C   0  0  0  0  0  0  0  0  0  0  0  0
   65.0701   56.3980  107.1573 O   0  0  0  0  0  0  0  0  0  0  0  0
   61.8635   57.5478  108.8242 N   0  0  0  0  0  0  0  0  0  0  0  0
   62.7379   52.6224  109.6139 C   0  0  0  0  0  0  0  0  0  0  0  0
   61.6294   50.4648  109.1651 C   0  0  0  0  0  0  0  0  0  0  0  0
   63.1472   54.4982  107.8933 C   0  0  0  0  0  0  0  0  0  0  0  0
   62.8686   48.7041  111.0641 C   0  0  0  0  0  0  0  0  0  0  0  0
  1 25  2  0
  2  5  1  0
  2 11  1  0
  2 23  1  0
  3 14  1  0
  3 25  1  0
  4  6  1  0
  4 20  2  0
  4 24  1  0
  6  8  1  0
  7 12  1  0
  7 19  1  0
  8 13  1  0
  8 15  1  0
  8 18  1  0
  9 24  1  0
  9 26  1  0
 10 12  1  0
 10 21  1  0
 10 26  2  3
 12 16  1  0
 13 27  1  0
 14 18  1  0
 14 27  1  0
 15 24  1  0
 15 25  1  0
 17 19  1  0
 17 21  1  0
 19 23  1  0
 21 22  1  0
M  END
>  <ID>  (1) 
conformer_0

$$$$
