
     RDKit          3D

 26 31  0  0  0  0  0  0  0  0999 V2000
   65.4872   54.3471  109.4394 N   0  0  0  0  0  0  0  0  0  0  0  0
   63.3624   50.8563  111.1070 C   0  0  0  0  0  0  0  0  0  0  0  0
   64.6820   61.7325  107.5182 O   0  0  0  0  0  0  0  0  0  0  0  0
   63.8356   58.1239  110.6283 C   0  0  0  0  0  0  0  0  0  0  0  0
   63.5810   59.1543  111.4791 N   0  0  0  0  0  0  0  0  0  0  0  0
   61.9661   48.8614  110.8611 C   0  0  0  0  0  0  0  0  0  0  0  0
   64.0740   58.5540  109.2481 C   0  0  0  0  0  0  0  0  0  0  0  0
   63.7091   55.1923  110.8011 C   0  0  0  0  0  0  0  0  0  0  0  0
   62.6677   53.3797  109.6220 C   0  0  0  0  0  0  0  0  0  0  0  0
   64.0613   52.1816  111.1404 N   0  0  0  0  0  0  0  0  0  0  0  0
   62.3190   52.0162  109.2431 C   0  0  0  0  0  0  0  0  0  0  0  0
   64.6441   56.3156  108.4833 C   0  0  0  0  0  0  0  0  0  0  0  0
   63.6976   60.9473  109.8192 C   0  0  0  0  0  0  0  0  0  0  0  0
   64.3783   57.6255  108.3209 N   0  0  0  0  0  0  0  0  0  0  0  0
   61.5855   51.4915  108.0936 S   0  0  0  0  0  0  0  0  0  0  0  0
   64.1907   59.9403  108.9363 C   0  0  0  0  0  0  0  0  0  0  0  0
   61.1682   50.0818  108.4352 C   0  0  0  0  0  0  0  0  0  0  0  0
   63.0922   54.3964  108.6807 O   0  0  0  0  0  0  0  0  0  0  0  0
   62.3779   50.9350  110.1179 C   0  0  0  0  0  0  0  0  0  0  0  0
   63.4621   53.5503  110.8726 C   0  0  0  0  0  0  0  0  0  0  0  0
   63.1133   49.4479  111.6465 C   0  0  0  0  0  0  0  0  0  0  0  0
   64.2564   55.1248  109.3229 C   0  0  0  0  0  0  0  0  0  0  0  0
   64.6217   60.3232  107.5850 C   0  0  0  0  0  0  0  0  0  0  0  0
   63.1912   60.4360  111.0920 C   0  0  0  0  0  0  0  0  0  0  0  0
   63.8143   56.7354  111.1004 N   0  0  0  0  0  0  0  0  0  0  0  0
   61.6703   49.7417  109.7481 C   0  0  0  0  0  0  0  0  0  0  0  0
  1 22  1  0
  2 10  1  0
  2 19  2  0
  2 21  1  0
  3 23  1  0
  4  5  2  0
  4  7  1  0
  4 25  1  0
  5 24  1  0
  6 21  1  0
  6 26  1  0
  7 14  2  0
  7 16  1  0
  8 20  1  0
  8 22  1  0
  8 25  1  0
  9 11  1  0
  9 18  1  0
  9 20  1  0
 10 20  1  0
 11 15  1  0
 11 19  1  0
 12 14  1  0
 12 22  1  0
 13 16  1  0
 13 24  1  0
 15 17  1  0
 16 23  1  0
 17 26  1  0
 18 22  1  0
 19 26  1  0
M  END
>  <ID>  (1) 
conformer_0

$$$$
