
     RDKit          3D

 15 16  0  0  0  0  0  0  0  0999 V2000
   62.8799   49.4344  110.7639 C   0  0  0  0  0  0  0  0  0  0  0  0
   61.3652   54.9508  107.8087 C   0  0  0  0  0  0  0  0  0  0  0  0
   62.5955   51.9162  109.5824 C   0  0  0  0  0  0  0  0  0  0  0  0
   64.5835   52.5858  110.7847 N   0  0  0  0  0  0  0  0  0  0  0  0
   63.0023   54.5071  109.6232 C   0  0  0  0  0  0  0  0  0  0  0  0
   62.5584   55.5903  108.5612 C   0  0  0  0  0  0  0  0  0  0  0  0
   61.7377   50.8897  109.2362 C   0  0  0  0  0  0  0  0  0  0  0  0
   63.9642   55.2714  110.5542 C   0  0  0  0  0  0  0  0  0  0  0  0
   62.4105   53.2332  109.0463 C   0  0  0  0  0  0  0  0  0  0  0  0
   61.9039   49.6314  109.8257 C   0  0  0  0  0  0  0  0  0  0  0  0
   61.3152   53.5417  108.2076 N   0  0  0  0  0  0  0  0  0  0  0  0
   63.4469   55.6217  111.6995 O   0  0  0  0  0  0  0  0  0  0  0  0
   64.9079   55.8679  110.0178 O   0  0  0  0  0  0  0  0  0  0  0  0
   63.6490   51.6467  110.4857 C   0  0  0  0  0  0  0  0  0  0  0  0
   63.7755   50.4295  111.1248 C   0  0  0  0  0  0  0  0  0  0  0  0
  1 10  2  0
  1 15  1  0
  2  6  1  0
  2 11  1  0
  3  7  2  0
  3  9  1  0
  3 14  1  0
  4 14  1  0
  5  6  1  0
  5  8  1  0
  5  9  1  0
  7 10  1  0
  8 12  2  0
  8 13  1  0
  9 11  1  0
 14 15  2  0
M  END
>  <ID>  (1) 
conformer_0

$$$$
