
     RDKit          3D

 13 13  0  0  0  0  0  0  0  0999 V2000
   64.6031   53.8393  110.7945 N   0  0  0  0  0  0  0  0  0  0  0  0
   62.0272   49.8757  109.5357 C   0  0  0  0  0  0  0  0  0  0  0  0
   63.0025   53.2502  109.1597 N   0  0  0  0  0  0  0  0  0  0  0  0
   62.1635   52.2431  108.7424 C   0  0  0  0  0  0  0  0  0  0  0  0
   64.4244   55.2619  108.9551 C   0  0  0  0  0  0  0  0  0  0  0  0
   63.3825   54.4132  108.3045 C   0  0  0  0  0  0  0  0  0  0  0  0
   61.6123   52.2035  107.6348 O   0  0  0  0  0  0  0  0  0  0  0  0
   60.8870   51.6060  110.5166 O   0  0  0  0  0  0  0  0  0  0  0  0
   62.0523   51.3304  109.8120 N   0  0  0  0  0  0  0  0  0  0  0  0
   63.1697   51.6790  110.8079 C   0  0  0  0  0  0  0  0  0  0  0  0
   64.1830   55.2214  110.4484 C   0  0  0  0  0  0  0  0  0  0  0  0
   63.7542   52.8826  110.3105 C   0  0  0  0  0  0  0  0  0  0  0  0
   64.0200   50.5183  111.1833 C   0  0  0  0  0  0  0  0  0  0  0  0
  1 11  1  0
  1 12  2  0
  2  9  1  0
  3  4  1  0
  3  6  1  0
  3 12  1  0
  4  7  2  0
  4  9  1  0
  5  6  1  0
  5 11  1  0
  8  9  1  0
 10 12  1  0
 10 13  1  0
M  END
>  <ID>  (1) 
conformer_0

$$$$
