
     RDKit          3D

 21 23  0  0  0  0  0  0  0  0999 V2000
   62.3287   56.9705  109.8514 C   0  0  0  0  0  0  0  0  0  0  0  0
   61.4745   48.7426  110.6187 C   0  0  0  0  0  0  0  0  0  0  0  0
   62.9414   55.6407  110.3962 C   0  0  0  0  0  0  0  0  0  0  0  0
   61.5973   54.7433  108.5029 C   0  0  0  0  0  0  0  0  0  0  0  0
   64.5178   57.0732  111.3197 O   0  0  0  0  0  0  0  0  0  0  0  0
   62.5634   53.0305  109.9445 C   0  0  0  0  0  0  0  0  0  0  0  0
   61.6921   52.0761  107.8412 O   0  0  0  0  0  0  0  0  0  0  0  0
   63.9344   53.4930  109.8179 C   0  0  0  0  0  0  0  0  0  0  0  0
   63.0025   54.5768  109.2541 C   0  0  0  0  0  0  0  0  0  0  0  0
   61.3351   49.5760  109.4399 C   0  0  0  0  0  0  0  0  0  0  0  0
   61.5411   55.9621  107.6698 C   0  0  0  0  0  0  0  0  0  0  0  0
   64.2700   51.2585  110.9183 C   0  0  0  0  0  0  0  0  0  0  0  0
   63.1593   50.3967  110.6595 C   0  0  0  0  0  0  0  0  0  0  0  0
   62.4381   50.5201  109.4373 C   0  0  0  0  0  0  0  0  0  0  0  0
   62.7534   49.1770  111.3029 C   0  0  0  0  0  0  0  0  0  0  0  0
   65.3728   55.1024  111.0719 N   0  0  0  0  0  0  0  0  0  0  0  0
   62.2708   51.9116  108.9751 C   0  0  0  0  0  0  0  0  0  0  0  0
   62.5282   56.9896  108.2676 C   0  0  0  0  0  0  0  0  0  0  0  0
   64.7538   52.4278  110.3673 N   0  0  0  0  0  0  0  0  0  0  0  0
   64.2866   55.8539  110.9848 C   0  0  0  0  0  0  0  0  0  0  0  0
   60.8527   56.8940  110.0616 O   0  0  0  0  0  0  0  0  0  0  0  0
  1  3  1  0
  1 18  1  0
  1 21  1  0
  2 10  1  0
  2 15  1  0
  3  9  1  0
  3 20  1  0
  4  9  1  0
  4 11  1  0
  5 20  2  0
  6  8  1  0
  6 17  1  0
  7 17  2  0
  8  9  1  0
  8 19  2  0
 10 14  1  0
 11 18  1  0
 12 13  2  0
 12 19  1  0
 13 14  1  0
 13 15  1  0
 14 17  1  0
 16 20  1  0
M  END
>  <ID>  (1) 
conformer_0

$$$$
