
     RDKit          3D

 24 26  0  0  0  0  0  0  0  0999 V2000
   65.0482   54.0052  109.8958 N   0  0  0  0  0  0  0  0  0  0  0  0
   62.1999   53.7208  108.3554 C   0  0  0  0  0  0  0  0  0  0  0  0
   63.9126   55.9904  111.0059 C   0  0  0  0  0  0  0  0  0  0  0  0
   61.8035   54.9724  107.6381 C   0  0  0  0  0  0  0  0  0  0  0  0
   61.9956   52.6293  107.6747 O   0  0  0  0  0  0  0  0  0  0  0  0
   63.9496   56.1692  108.5701 C   0  0  0  0  0  0  0  0  0  0  0  0
   64.6134   56.9964  107.5005 O   0  0  0  0  0  0  0  0  0  0  0  0
   62.8269   55.0338  110.6155 O   0  0  0  0  0  0  0  0  0  0  0  0
   64.2447   56.9919  109.8961 C   0  0  0  0  0  0  0  0  0  0  0  0
   62.2113   47.9101  111.3440 F   0  0  0  0  0  0  0  0  0  0  0  0
   63.8639   49.4957  111.3309 C   0  0  0  0  0  0  0  0  0  0  0  0
   60.9849   52.2111  110.3668 O   0  0  0  0  0  0  0  0  0  0  0  0
   64.3097   50.7831  111.0538 C   0  0  0  0  0  0  0  0  0  0  0  0
   64.9498   54.1655  107.5368 O   0  0  0  0  0  0  0  0  0  0  0  0
   63.9608   53.0573  110.1868 C   0  0  0  0  0  0  0  0  0  0  0  0
   61.6388   50.0964  110.7816 C   0  0  0  0  0  0  0  0  0  0  0  0
   62.4464   56.1815  108.3127 C   0  0  0  0  0  0  0  0  0  0  0  0
   60.2589   55.0718  107.6050 C   0  0  0  0  0  0  0  0  0  0  0  0
   62.5798   49.1608  111.1556 C   0  0  0  0  0  0  0  0  0  0  0  0
   63.4552   51.7523  110.6148 C   0  0  0  0  0  0  0  0  0  0  0  0
   62.7329   53.8505  109.7369 C   0  0  0  0  0  0  0  0  0  0  0  0
   62.0769   51.4286  110.5654 C   0  0  0  0  0  0  0  0  0  0  0  0
   61.5317   56.9367  109.3241 C   0  0  0  0  0  0  0  0  0  0  0  0
   64.7519   54.8883  108.7463 C   0  0  0  0  0  0  0  0  0  0  0  0
  1 15  1  0
  1 24  1  0
  2  4  1  0
  2  5  1  0
  2 21  1  0
  3  8  1  0
  3  9  1  0
  4 17  1  0
  4 18  1  0
  6  7  1  0
  6  9  1  0
  6 17  1  0
  6 24  1  0
  8 21  1  0
 10 19  1  0
 11 13  1  0
 11 19  2  0
 12 22  1  0
 13 20  1  0
 14 24  2  0
 15 20  1  0
 15 21  1  0
 16 19  1  0
 16 22  1  0
 17 23  1  0
 20 22  2  0
M  END
>  <ID>  (1) 
conformer_0

$$$$
