
     RDKit          3D

  9  9  0  0  0  0  0  0  0  0999 V2000
   63.4524   53.3258  108.6509 N   0  0  0  0  0  0  0  0  0  0  0  0
   65.3092   54.4138  109.6826 N   0  0  0  0  0  0  0  0  0  0  0  0
   62.4466   51.4549  109.7317 C   0  0  0  0  0  0  0  0  0  0  0  0
   62.3640   52.4744  108.7591 C   0  0  0  0  0  0  0  0  0  0  0  0
   61.8566   50.1962  109.5732 O   0  0  0  0  0  0  0  0  0  0  0  0
   64.2741   53.5726  109.7069 C   0  0  0  0  0  0  0  0  0  0  0  0
   63.4964   51.5698  110.7820 C   0  0  0  0  0  0  0  0  0  0  0  0
   64.1149   52.8733  110.8615 N   0  0  0  0  0  0  0  0  0  0  0  0
   61.5494   52.3823  107.7349 O   0  0  0  0  0  0  0  0  0  0  0  0
  1  4  1  0
  1  6  1  0
  2  6  2  0
  3  4  1  0
  3  5  1  0
  3  7  1  0
  4  9  2  0
  6  8  1  0
  7  8  1  0
M  END
>  <ID>  (1) 
conformer_0

$$$$
