
     RDKit          3D

 24 27  0  0  0  0  0  0  0  0999 V2000
   62.6122   55.4386  108.9673 C   0  0  0  0  0  0  0  0  0  0  0  0
   62.5072   56.6347  111.2878 O   0  0  0  0  0  0  0  0  0  0  0  0
   61.3057   50.7420  108.1417 C   0  0  0  0  0  0  0  0  0  0  0  0
   62.1239   50.5650  109.3238 C   0  0  0  0  0  0  0  0  0  0  0  0
   65.0495   55.4781  108.6306 O   0  0  0  0  0  0  0  0  0  0  0  0
   64.4540   52.4113  110.4284 C   0  0  0  0  0  0  0  0  0  0  0  0
   64.0685   57.4804  109.4566 C   0  0  0  0  0  0  0  0  0  0  0  0
   63.8961   56.8109  110.9003 C   0  0  0  0  0  0  0  0  0  0  0  0
   62.1996   51.7539  110.2133 C   0  0  0  0  0  0  0  0  0  0  0  0
   61.4061   55.5225  108.2553 O   0  0  0  0  0  0  0  0  0  0  0  0
   60.5300   49.1346  110.3730 O   0  0  0  0  0  0  0  0  0  0  0  0
   62.7552   54.1837  109.7834 C   0  0  0  0  0  0  0  0  0  0  0  0
   60.5757   49.5956  107.7515 O   0  0  0  0  0  0  0  0  0  0  0  0
   61.7579   49.4191  110.1605 C   0  0  0  0  0  0  0  0  0  0  0  0
   63.7484   56.7402  107.1405 O   0  0  0  0  0  0  0  0  0  0  0  0
   63.1682   58.5442  109.3795 O   0  0  0  0  0  0  0  0  0  0  0  0
   61.7120   53.0753  109.8011 C   0  0  0  0  0  0  0  0  0  0  0  0
   63.7905   56.2614  108.4951 C   0  0  0  0  0  0  0  0  0  0  0  0
   63.7902   50.2551  111.3000 C   0  0  0  0  0  0  0  0  0  0  0  0
   64.0616   53.4941  109.5188 C   0  0  0  0  0  0  0  0  0  0  0  0
   63.3758   51.6418  111.0570 C   0  0  0  0  0  0  0  0  0  0  0  0
   62.7432   49.2308  111.2605 C   0  0  0  0  0  0  0  0  0  0  0  0
   64.6367   55.4544  110.9743 C   0  0  0  0  0  0  0  0  0  0  0  0
   65.1162   54.5956  109.7948 C   0  0  0  0  0  0  0  0  0  0  0  0
  1 10  1  0
  1 12  1  0
  1 18  1  0
  2  8  1  0
  3  4  1  0
  3 13  1  0
  4  9  1  0
  4 14  1  0
  5 18  1  0
  5 24  1  0
  6 20  1  0
  6 21  1  0
  7  8  1  0
  7 16  1  0
  7 18  1  0
  8 23  1  0
  9 17  1  0
  9 21  1  0
 11 14  2  0
 12 17  1  0
 12 20  1  0
 14 22  1  0
 15 18  1  0
 19 21  1  0
 19 22  1  0
 20 24  1  0
 23 24  1  0
M  END
>  <ID>  (1) 
conformer_0

$$$$
