
     RDKit          3D

 36 38  0  0  0  0  0  0  0  0999 V2000
   32.6147   24.0210   -0.2927 C   0  0  0  0  0  0  0  0  0  0  0  0
   33.7718   28.8981    1.9222 C   0  0  0  0  0  0  0  0  0  0  0  0
   33.8901   30.8768   -9.1576 C   0  0  0  0  0  0  0  0  0  0  0  0
   32.4145   25.2603   -0.7259 C   0  0  0  0  0  0  0  0  0  0  0  0
   33.4450   29.2646    0.6397 C   0  0  0  0  0  0  0  0  0  0  0  0
   32.5277   30.5899   -1.8598 N   0  0  0  0  0  0  0  0  0  0  0  0
   32.1831   30.4135   -8.0006 C   0  0  0  0  0  0  0  0  0  0  0  0
   34.6945   22.2055   -0.0506 C   0  0  0  0  0  0  0  0  0  0  0  0
   34.3885   20.4815    2.5783 C   0  0  0  0  0  0  0  0  0  0  0  0
   33.1436   27.7879   -3.4071 O   0  0  0  0  0  0  0  0  0  0  0  0
   34.6760   25.6195   -0.7524 C   0  0  0  0  0  0  0  0  0  0  0  0
   33.1226   27.6222   -1.2883 N   0  0  0  0  0  0  0  0  0  0  0  0
   32.1884   32.1895   -8.6703 S   0  0  0  0  0  0  0  0  0  0  0  0
   32.5271   31.2362    0.7992 C   0  0  0  0  0  0  0  0  0  0  0  0
   31.7628   31.5188   -3.4210 C   0  0  0  0  0  0  0  0  0  0  0  0
   31.6198   30.2879   -3.6827 C   0  0  0  0  0  0  0  0  0  0  0  0
   32.8930   30.2855   -0.0543 C   0  0  0  0  0  0  0  0  0  0  0  0
   34.7370   21.2687   -0.5734 O   0  0  0  0  0  0  0  0  0  0  0  0
   33.4460   26.0119   -1.0598 C   0  0  0  0  0  0  0  0  0  0  0  0
   31.6233   31.1729   -5.4407 C   0  0  0  0  0  0  0  0  0  0  0  0
   29.6440   29.9529   -6.6459 O   0  0  0  0  0  1  0  0  0  0  0  0
   31.8175   33.0322   -4.5201 C   0  0  0  0  0  0  0  0  0  0  0  0
   31.0545   31.2538   -5.8924 N   0  0  0  0  0  0  0  0  0  0  0  0
   32.9198   27.9731   -2.1955 C   0  0  0  0  0  0  0  0  0  0  0  0
   31.9522   31.2843   -1.8791 N   0  0  0  0  0  0  0  0  0  0  0  0
   35.1465   24.3401   -0.5312 C   0  0  0  0  0  0  0  0  0  0  0  0
   30.4632   30.5837   -6.4835 S   0  0  0  0  0  4  0  0  0  0  0  0
   30.1415   32.1100   -7.5717 O   0  0  0  0  0  1  0  0  0  0  0  0
   33.3275   29.9924    2.7195 C   0  0  0  0  0  0  0  0  0  0  0  0
   33.1620   30.1361   -9.8032 C   0  0  0  0  0  0  0  0  0  0  0  0
   35.1147   21.8110    1.2541 O   0  0  0  0  0  0  0  0  0  0  0  0
   34.6214   21.1051    1.6031 C   0  0  0  0  0  0  0  0  0  0  0  0
   34.0543   23.5446   -0.2161 C   0  0  0  0  0  0  0  0  0  0  0  0
   32.5219   29.7523   -2.7171 C   0  0  0  0  0  0  0  0  0  0  0  0
   32.6040   31.0872    2.1505 C   0  0  0  0  0  0  0  0  0  0  0  0
   33.2906   31.5618   -9.0521 C   0  0  0  0  0  0  0  0  0  0  0  0
  4  1  2  0
  5  2  2  0
 13  7  1  0
 16 15  1  0
 17  5  1  0
 17  6  1  0
 17 14  2  0
 18  8  2  0
 19  4  1  0
 19 11  2  0
 19 12  1  0
 20 16  1  0
 22 15  1  0
 23 20  1  0
 24 10  2  0
 24 12  1  0
 25  6  1  0
 25 15  2  0
 26 11  1  0
 27  7  1  0
 27 21  1  0
 27 23  1  0
 28 27  1  0
 29  2  1  0
 30  3  2  3
 31  8  1  0
 32  9  2  3
 32 31  1  0
 33  1  1  0
 33  8  1  0
 33 26  2  0
 34  6  1  0
 34 16  2  0
 34 24  1  0
 35 14  1  0
 35 29  2  0
 36  3  1  0
 36 13  1  0
M  RAD  2  21   2  28   2
M  END
>  <ID>  (1) 
conformer_0

$$$$
