
     RDKit          3D

 31 34  0  0  0  0  0  0  0  0999 V2000
   34.7130   25.4627   -0.7421 C   0  0  0  0  0  0  0  0  0  0  0  0
   33.5724   29.0950    1.1926 C   0  0  0  0  0  0  0  0  0  0  0  0
   33.0219   23.9119   -0.2579 C   0  0  0  0  0  0  0  0  0  0  0  0
   33.2056   29.8729    2.1786 C   0  0  0  0  0  0  0  0  0  0  0  0
   33.3218   30.0680   -9.1535 C   0  0  0  0  0  0  0  0  0  0  0  0
   34.5045   20.9247    2.1825 C   0  0  0  0  0  0  0  0  0  0  0  0
   31.8030   31.5134   -3.0775 C   0  0  0  0  0  0  0  0  0  0  0  0
   32.2362   30.6644   -7.7883 C   0  0  0  0  0  0  0  0  0  0  0  0
   32.7474   32.0389   -8.3277 S   0  0  0  0  0  0  0  0  0  0  0  0
   32.5515   30.2631   -1.6095 N   0  0  0  0  0  0  0  0  0  0  0  0
   31.1741   31.0477   -5.4644 N   0  0  0  0  0  0  0  0  0  0  0  0
   32.8659   30.2110   -0.0065 C   0  0  0  0  0  0  0  0  0  0  0  0
   32.7717   27.3198   -3.6012 O   0  0  0  0  0  0  0  0  0  0  0  0
   33.2612   26.1945   -1.2539 C   0  0  0  0  0  0  0  0  0  0  0  0
   32.3478   25.1209   -0.7164 C   0  0  0  0  0  0  0  0  0  0  0  0
   31.6085   29.8262   -3.2449 C   0  0  0  0  0  0  0  0  0  0  0  0
   34.8144   21.5627    0.3170 O   0  0  0  0  0  0  0  0  0  0  0  0
   32.2674   31.4911   -1.6211 N   0  0  0  0  0  2  0  0  0  0  0  0
   32.5516   28.3302   -3.2418 C   0  0  0  0  0  0  0  0  0  0  0  0
   29.8011   30.0589   -7.1174 O   0  0  0  0  0  1  0  0  0  0  0  0
   32.5976   30.9691    1.4969 C   0  0  0  0  0  0  0  0  0  0  0  0
   31.8449   33.4786   -4.4748 C   0  0  0  0  0  0  0  0  0  0  0  0
   31.3115   31.2230   -4.7424 C   0  0  0  0  0  0  0  0  0  0  0  0
   30.7483   30.9705   -7.0509 S   0  0  0  0  0  4  0  0  0  0  0  0
   33.8174   31.3148   -9.1354 C   0  0  0  0  0  0  0  0  0  0  0  0
   34.3406   20.3777    3.2402 C   0  0  0  0  0  0  0  0  0  0  0  0
   33.2337   27.3813   -1.3712 N   0  0  0  0  0  0  0  0  0  0  0  0
   34.5210   22.0883    0.3237 C   0  0  0  0  0  0  0  0  0  0  0  0
   34.6272   24.1343   -0.3721 C   0  0  0  0  0  0  0  0  0  0  0  0
   32.2481   29.4856   -2.2005 C   0  0  0  0  0  0  0  0  0  0  0  0
   29.8050   32.0571   -7.3087 O   0  0  0  0  0  1  0  0  0  0  0  0
  4  2  2  0
  8  5  1  0
  9  8  1  0
 12  2  1  0
 12 10  1  0
 14  1  2  0
 15  3  2  0
 15 14  1  0
 16  7  1  0
 17  6  1  0
 18  7  1  0
 18 10  1  0
 19 13  1  0
 21  4  1  0
 21 12  2  0
 22  7  1  0
 23  7  1  0
 23 11  1  0
 24  8  1  0
 24 11  1  0
 24 20  1  0
 25  5  1  0
 25  9  1  0
 26  6  3  0
 27 14  1  0
 27 19  1  0
 28 17  1  0
 29  1  1  0
 29  3  1  0
 29 28  1  0
 30 10  1  0
 30 16  2  0
 30 19  1  0
 31 24  1  0
M  RAD  3  18   2  20   2  31   2
M  END
>  <ID>  (1) 
conformer_0

$$$$
