
     RDKit          3D

 34 39  0  0  0  0  0  0  0  0999 V2000
   33.1247   30.2450    2.5797 C   0  0  0  0  0  0  0  0  0  0  0  0
   34.1576   23.6884   -0.3342 C   0  0  0  0  0  0  0  0  0  0  0  0
   32.4443   25.4411   -0.8528 C   0  0  0  0  0  0  0  0  0  0  0  0
   33.7522   30.4460   -9.5426 C   0  0  0  0  0  0  0  0  0  0  0  0
   33.6284   28.7749    2.1065 C   0  0  0  0  0  0  0  0  0  0  0  0
   32.7790   32.2577   -8.4200 S   0  0  0  0  0  0  0  0  0  0  0  0
   31.9532   30.7881   -7.6728 C   0  0  0  0  0  0  0  0  0  0  0  0
   32.3074   29.4272   -2.4113 C   0  0  0  0  0  0  0  0  0  0  0  0
   30.8688   31.2847   -5.6471 N   0  0  0  0  0  0  0  0  0  0  0  0
   32.5822   29.8406   -1.7148 N   0  0  0  0  0  0  0  0  0  0  0  0
   32.8219   30.1943    0.1287 C   0  0  0  0  0  0  0  0  0  0  0  0
   34.8734   22.4243    0.0211 C   0  0  0  0  0  0  0  0  0  0  0  0
   31.4930   30.2700   -3.4063 C   0  0  0  0  0  0  0  0  0  0  0  0
   33.4186   26.1077   -1.2673 C   0  0  0  0  0  0  0  0  0  0  0  0
   32.3417   31.2144   -1.1117 N   0  0  0  0  0  0  0  0  0  0  0  0
   32.8454   27.2619   -3.7111 O   0  0  0  0  0  0  0  0  0  0  0  0
   34.4403   20.6527    2.5759 C   0  0  0  0  0  0  0  0  0  0  0  0
   35.3200   24.4808   -0.5635 C   0  0  0  0  0  0  0  0  0  0  0  0
   31.2899   32.0324   -5.0676 C   0  0  0  0  0  0  0  0  0  0  0  0
   33.2079   27.3106   -1.4623 N   0  0  0  0  0  0  0  0  0  0  0  0
   34.7684   21.5611   -0.0177 O   0  0  0  0  0  0  0  0  0  0  0  0
   32.8483   27.9904   -2.6987 C   0  0  0  0  0  0  0  0  0  0  0  0
   33.4427   28.9528    0.8551 C   0  0  0  0  0  3  0  0  0  0  0  0
   29.9230   29.9074   -7.3188 O   0  0  0  0  0  1  0  0  0  0  0  0
   31.6563   32.9804   -3.5093 C   0  0  0  0  0  0  0  0  0  0  0  0
   33.5646   31.3679   -9.0012 C   0  0  0  0  0  0  0  0  0  0  0  0
   30.7615   30.8047   -7.1792 S   0  0  0  0  0  3  0  0  0  0  0  0
   32.7163   24.1993   -0.2653 C   0  0  0  0  0  0  0  0  0  0  0  0
   31.6525   31.4065   -2.6714 C   0  0  0  0  0  0  0  0  0  0  0  0
   32.6570   31.0438    1.5440 C   0  0  0  0  0  0  0  0  0  0  0  0
   34.6535   21.1939    1.6834 C   0  0  0  0  0  0  0  0  0  0  0  0
   32.9284   29.7482   -8.3550 C   0  0  0  0  0  0  0  0  0  0  0  0
   31.4283   30.0117   -4.7505 C   0  0  0  0  0  0  0  0  0  0  0  0
   34.8196   25.7693   -0.9125 C   0  0  0  0  0  0  0  0  0  0  0  0
  5  1  2  0
  7  6  1  0
  9  7  1  0
 10  8  1  0
 11 10  1  0
 12  2  1  0
 13  8  1  0
 14  3  1  0
 15 10  1  0
 15 11  1  0
 18  2  2  0
 19  9  1  0
 20 14  1  0
 21 12  1  0
 22  8  1  0
 22 16  2  0
 22 20  1  0
 23  5  1  0
 23 11  1  0
 25 19  1  0
 26  4  1  0
 26  6  1  0
 27  7  1  0
 27 24  1  0
 28  2  1  0
 28  3  2  0
 29 13  2  0
 29 15  1  0
 29 25  1  0
 30  1  1  0
 30 11  1  0
 31 17  3  0
 31 21  1  0
 32  4  1  0
 32  7  1  0
 33  9  1  0
 33 13  1  0
 34 14  2  0
 34 18  1  0
M  RAD  3  23   2  24   2  27   2
M  END
>  <ID>  (1) 
conformer_0

$$$$
