
     RDKit          3D

 33 36  0  0  0  0  0  0  0  0999 V2000
   33.5689   28.8826    0.8167 C   0  0  0  0  0  0  0  0  0  0  0  0
   32.5977   23.8116   -0.2148 C   0  0  0  0  0  0  0  0  0  0  0  0
   32.5627   29.8008   -8.3120 C   0  0  0  0  0  0  0  0  0  0  0  0
   32.4341   25.0521   -0.7542 C   0  0  0  0  0  0  0  0  0  0  0  0
   33.7354   28.9465    2.2470 C   0  0  0  0  0  0  0  0  0  0  0  0
   31.4238   31.0376   -7.7694 C   0  0  0  0  0  0  0  0  0  0  0  0
   32.5781   30.3663   -1.4050 N   0  0  0  0  0  0  0  0  0  0  0  0
   31.4922   30.4485   -3.4956 C   0  0  0  0  0  0  0  0  0  0  0  0
   35.0700   23.9890   -0.5531 C   0  0  0  0  0  0  0  0  0  0  0  0
   34.7323   21.9696    0.0106 C   0  0  0  0  0  0  0  0  0  0  0  0
   31.7971   31.3989   -2.7595 C   0  0  0  0  0  0  0  0  0  0  0  0
   33.2292   27.4832   -1.2400 N   0  0  0  0  0  0  0  0  0  0  0  0
   31.8455   31.5035   -1.5093 N   0  0  0  0  0  0  0  0  0  0  0  0
   32.9048   27.4713   -3.4326 O   0  0  0  0  0  0  0  0  0  0  0  0
   33.4720   25.8768   -1.1155 C   0  0  0  0  0  0  0  0  0  0  0  0
   32.5317   30.8036    1.2762 C   0  0  0  0  0  0  0  0  0  0  0  0
   29.6740   30.0381   -6.6638 O   0  0  0  0  0  1  0  0  0  0  0  0
   32.8717   29.9380    0.0849 C   0  0  0  0  0  0  0  0  0  0  0  0
   30.2809   30.6887   -6.5528 S   0  0  0  0  0  3  0  0  0  0  0  0
   33.3884   30.2088   -9.3280 C   0  0  0  0  0  0  0  0  0  0  0  0
   33.0646   31.5519   -8.8784 C   0  0  0  0  0  0  0  0  0  0  0  0
   34.7336   25.2553   -0.8618 C   0  0  0  0  0  0  0  0  0  0  0  0
   32.8033   32.2652   -8.2837 S   0  0  0  0  0  0  0  0  0  0  0  0
   33.8253   20.9825    0.2647 F   0  0  0  0  0  0  0  0  0  0  0  0
   32.7798   27.7504   -2.1827 C   0  0  0  0  0  0  0  0  0  0  0  0
   30.9738   31.3888   -4.8978 C   0  0  0  0  0  0  0  0  0  0  0  0
   32.9386   30.2715    2.4891 C   0  0  0  0  0  0  0  0  0  0  0  0
   31.6571   31.8496   -4.6825 C   0  0  0  0  0  0  0  0  0  0  0  0
   32.5274   29.4582   -2.1362 C   0  0  0  0  0  0  0  0  0  0  0  0
   34.6157   20.9458    1.9782 C   0  0  0  0  0  0  0  0  0  0  0  0
   35.7966   21.4604   -0.2184 F   0  0  0  0  0  0  0  0  0  0  0  0
   35.0419   21.6465    1.8526 F   0  0  0  0  0  0  0  0  0  0  0  0
   33.9600   23.1871   -0.1792 C   0  0  0  0  0  0  0  0  0  0  0  0
  4  2  2  0
  5  1  2  0
  6  3  1  0
 11  8  1  0
 13  7  1  0
 13 11  1  0
 15  4  1  0
 15 12  1  0
 18  1  1  0
 18  7  1  0
 18 16  1  0
 19  6  1  0
 19 17  1  0
 20  3  1  0
 21  3  1  0
 21 20  1  0
 22  9  1  0
 22 15  2  0
 23  6  1  0
 23 21  1  0
 24 10  1  0
 25 12  1  0
 25 14  2  0
 26  6  1  0
 26  8  1  0
 27  5  1  0
 27 16  2  0
 28 26  1  0
 29  7  1  0
 29 25  1  0
 30 10  1  0
 31 10  1  0
 32 30  1  0
 33  2  1  0
 33  9  2  0
 33 10  1  0
M  RAD  2  17   2  19   2
M  END
>  <ID>  (1) 
conformer_0

$$$$
