
     RDKit          3D

 33 36  0  0  0  0  0  0  0  0999 V2000
   35.0354   24.0284   -0.4759 C   0  0  0  0  0  0  0  0  0  0  0  0
   33.7542   29.2446    2.1463 C   0  0  0  0  0  0  0  0  0  0  0  0
   33.7181   30.2635   -9.4490 C   0  0  0  0  0  0  0  0  0  0  0  0
   32.6103   25.1070   -0.5803 C   0  0  0  0  0  0  0  0  0  0  0  0
   33.4419   29.2229    0.7760 C   0  0  0  0  0  0  0  0  0  0  0  0
   30.7835   30.9533   -5.5800 N   0  0  0  0  0  0  0  0  0  0  0  0
   32.6374   29.9793   -1.6769 N   0  0  0  0  0  0  0  0  0  0  0  0
   31.9598   30.6119   -7.5336 C   0  0  0  0  0  0  0  0  0  0  0  0
   31.7544   29.9026   -3.4843 C   0  0  0  0  0  0  0  0  0  0  0  0
   33.1997   27.3641   -1.4306 N   0  0  0  0  0  0  0  0  0  0  0  0
   31.6946   31.3338   -2.9892 C   0  0  0  0  0  0  0  0  0  0  0  0
   32.9383   27.4924   -3.7369 O   0  0  0  0  0  0  0  0  0  0  0  0
   33.5198   25.9979   -1.1191 C   0  0  0  0  0  0  0  0  0  0  0  0
   34.9529   25.2909   -0.7859 C   0  0  0  0  0  0  0  0  0  0  0  0
   32.6979   30.3969    0.0092 C   0  0  0  0  0  0  0  0  0  0  0  0
   34.5660   20.7633    2.5814 C   0  0  0  0  0  0  0  0  0  0  0  0
   33.7421   21.2977    0.4554 O   0  0  0  0  0  0  0  0  0  0  0  0
   32.4460   31.0744    1.3248 C   0  0  0  0  0  0  0  0  0  0  0  0
   30.9418   31.8319   -4.7972 C   0  0  0  0  0  0  0  0  0  0  0  0
   31.8647   31.2809   -1.6444 N   0  0  0  0  0  0  0  0  0  0  0  0
   32.6267   32.1415   -8.4167 S   0  0  0  0  0  0  0  0  0  0  0  0
   32.9831   28.2016   -2.2534 C   0  0  0  0  0  0  0  0  0  0  0  0
   29.6985   30.4365   -7.3994 O   0  0  0  0  0  0  0  0  0  0  0  0
   31.7155   33.1752   -4.5784 C   0  0  0  0  0  0  0  0  0  0  0  0
   33.4590   31.2998   -9.0417 C   0  0  0  0  0  0  0  0  0  0  0  0
   33.2435   23.8527   -0.2093 C   0  0  0  0  0  0  0  0  0  0  0  0
   34.9536   22.0805    0.3340 C   0  0  0  0  0  0  0  0  0  0  0  0
   32.9528   30.4594    2.5164 C   0  0  0  0  0  0  0  0  0  0  0  0
   33.0324   29.5962   -8.3926 C   0  0  0  0  0  0  0  0  0  0  0  0
   30.6320   30.8118   -7.1272 S   0  0  0  0  0  0  0  0  0  0  0  0
   32.4851   29.3144   -2.4102 C   0  0  0  0  0  0  0  0  0  0  0  0
   35.3977   21.5363   -0.1008 O   0  0  0  0  0  0  0  0  0  0  0  0
   31.7534   29.7507   -4.6973 C   0  0  0  0  0  0  0  0  0  0  0  0
  5  2  2  0
 11  9  1  0
 13  4  2  0
 13 10  1  0
 14  1  2  0
 14 13  1  0
 15  5  1  0
 15  7  1  0
 18 15  2  0
 19  6  1  0
 20  7  1  0
 20 11  2  0
 21  8  1  0
 22 10  1  0
 22 12  2  0
 23  6  1  0
 24 19  1  0
 25  3  1  0
 25 21  1  0
 26  1  1  0
 26  4  1  0
 27  1  1  0
 27 16  1  0
 27 17  1  0
 28  2  1  0
 28 18  1  0
 29  3  1  0
 29  8  1  0
 30  8  1  0
 30 23  1  0
 31  7  1  0
 31  9  2  0
 31 22  1  0
 32 27  1  0
 33  6  1  0
 33  9  1  0
M  END
>  <ID>  (1) 
conformer_0

$$$$
