
     RDKit          3D

 36 40  0  0  0  0  0  0  0  0999 V2000
   32.7319   24.0060   -0.1446 C   0  0  0  0  0  0  0  0  0  0  0  0
   33.7705   28.9284    0.8570 C   0  0  0  0  0  0  0  0  0  0  0  0
   33.7950   30.2120   -9.6731 C   0  0  0  0  0  0  0  0  0  0  0  0
   35.1765   24.4117   -0.5425 C   0  0  0  0  0  0  0  0  0  0  0  0
   31.9107   29.4004   -3.1382 C   0  0  0  0  0  0  0  0  0  0  0  0
   33.8034   28.9279    2.2445 C   0  0  0  0  0  0  0  0  0  0  0  0
   35.0878   22.2352    0.0620 C   0  0  0  0  0  0  0  0  0  0  0  0
   32.9120   30.0193    0.2962 C   0  0  0  0  0  0  0  0  0  0  0  0
   32.3601   30.4110   -1.3184 N   0  0  0  0  0  0  0  0  0  0  0  0
   32.0632   30.5163   -7.8239 C   0  0  0  0  0  0  0  0  0  0  0  0
   33.1198   27.7450   -1.2943 N   0  0  0  0  0  0  0  0  0  0  0  0
   34.7038   25.6080   -0.9096 C   0  0  0  0  0  0  0  0  0  0  0  0
   32.6089   27.4430   -3.4137 O   0  0  0  0  0  0  0  0  0  0  0  0
   31.0730   31.2130   -5.7252 N   0  0  0  0  0  0  0  0  0  0  0  0
   32.7586   31.9651   -8.5184 S   0  0  0  0  0  0  0  0  0  0  0  0
   33.3842   26.0866   -1.0335 C   0  0  0  0  0  0  0  0  0  0  0  0
   31.5866   31.4382   -2.8380 C   0  0  0  0  0  0  0  0  0  0  0  0
   30.1397   29.2219   -6.6534 O   0  0  0  0  0  1  0  0  0  0  0  0
   31.2660   32.3562   -5.3110 C   0  0  0  0  0  0  0  0  0  0  0  0
   31.8155   31.2620   -1.2000 N   0  0  0  0  0  0  0  0  0  0  0  0
   35.0975   21.2043   -0.2698 O   0  0  0  0  0  0  0  0  0  0  0  0
   32.6442   30.9034    1.2482 C   0  0  0  0  0  0  0  0  0  0  0  0
   31.7796   33.6168   -4.5726 C   0  0  0  0  0  0  0  0  0  0  0  0
   32.6114   27.7973   -2.3931 C   0  0  0  0  0  0  0  0  0  0  0  0
   32.4202   25.2377   -0.6226 C   0  0  0  0  0  0  0  0  0  0  0  0
   33.6692   31.2975   -9.1580 C   0  0  0  0  0  0  0  0  0  0  0  0
   34.9870   21.3177    1.9809 F   0  0  0  0  0  0  0  0  0  0  0  0
   33.0493   29.5061   -8.6020 C   0  0  0  0  0  0  0  0  0  0  0  0
   30.5527   30.3341   -6.7040 S   0  0  0  0  0  4  0  0  0  0  0  0
   34.6784   21.1581    1.6327 C   0  0  0  0  0  0  0  0  0  0  0  0
   33.0377   30.2564    2.4586 C   0  0  0  0  0  0  0  0  0  0  0  0
   32.4986   29.5322   -1.6746 C   0  0  0  0  0  0  0  0  0  0  0  0
   29.7871   30.8538   -7.7622 O   0  0  0  0  0  1  0  0  0  0  0  0
   34.1979   23.5374   -0.2064 C   0  0  0  0  0  0  0  0  0  0  0  0
   31.6296   30.2383   -4.8997 C   0  0  0  0  0  0  0  0  0  0  0  0
   31.3504   30.9270   -3.5556 C   0  0  0  0  0  0  0  0  0  0  0  0
  6  2  2  0
  8  2  1  0
  9  8  1  0
 12  4  1  0
 15 10  1  0
 16 11  1  0
 16 12  2  0
 19 14  1  0
 20  9  1  0
 20 17  1  0
 21  7  1  0
 22  8  1  0
 23 19  1  0
 24  5  1  0
 24 11  1  0
 24 13  1  0
 25  1  2  0
 25 16  1  0
 26  3  1  0
 26 15  1  0
 28  3  1  0
 28 10  2  0
 29 10  1  0
 29 14  1  0
 29 18  1  0
 30  7  1  0
 30 27  1  0
 31  6  1  0
 31 22  2  0
 32  5  2  0
 32  9  1  0
 32 24  1  0
 33 29  1  0
 34  1  1  0
 34  4  2  0
 34  7  1  0
 35 14  1  0
 36  5  1  0
 36 17  2  0
 36 35  1  0
M  RAD  2  18   2  33   2
M  END
>  <ID>  (1) 
conformer_0

$$$$
