
     RDKit          3D

 31 34  0  0  0  0  0  0  0  0999 V2000
   33.3305   29.0962    0.6027 C   0  0  0  0  0  0  0  0  0  0  0  0
   34.5518   24.0426   -0.4288 C   0  0  0  0  0  0  0  0  0  0  0  0
   32.1999   25.0741   -0.5507 C   0  0  0  0  0  0  0  0  0  0  0  0
   32.8601   29.9303   -8.0663 C   0  0  0  0  0  0  0  0  0  0  0  0
   33.6037   28.9211    1.9940 C   0  0  0  0  0  0  0  0  0  0  0  0
   31.1177   30.7922   -5.5368 N   0  0  0  0  0  0  0  0  0  0  0  0
   32.0351   31.5293   -1.3139 N   0  0  0  0  0  0  0  0  0  0  0  0
   32.2509   31.1748   -7.6718 C   0  0  0  0  0  0  0  0  0  0  0  0
   31.8920   31.6351   -2.9413 C   0  0  0  0  0  0  0  0  0  0  0  0
   32.5715   30.3861   -1.5589 N   0  0  0  0  0  0  0  0  0  0  0  0
   32.6839   32.2175   -8.6881 S   0  0  0  0  0  0  0  0  0  0  0  0
   34.4803   21.3236    1.4831 C   0  0  0  0  0  0  0  0  0  0  0  0
   32.6154   27.0503   -3.3987 O   0  0  0  0  0  0  0  0  0  0  0  0
   33.0599   26.0188   -1.2966 C   0  0  0  0  0  0  0  0  0  0  0  0
   34.2995   21.5312    0.5021 O   0  0  0  0  0  0  0  0  0  0  0  0
   34.5093   25.3166   -0.8185 C   0  0  0  0  0  0  0  0  0  0  0  0
   34.3654   20.4695    3.3112 C   0  0  0  0  0  0  0  0  0  0  0  0
   32.5452   29.2081   -2.3263 C   0  0  0  0  0  0  0  0  0  0  0  0
   31.7999   32.8393   -4.1327 C   0  0  0  0  0  0  0  0  0  0  0  0
   31.6404   30.7644   -5.0354 C   0  0  0  0  0  0  0  0  0  0  0  0
   29.7529   29.7539   -6.8013 O   0  0  0  0  0  1  0  0  0  0  0  0
   32.0929   29.7548   -3.1339 C   0  0  0  0  0  0  0  0  0  0  0  0
   32.9911   30.2175    2.4604 C   0  0  0  0  0  0  0  0  0  0  0  0
   32.7654   27.9855   -3.0617 C   0  0  0  0  0  0  0  0  0  0  0  0
   32.7979   23.8419   -0.1442 C   0  0  0  0  0  0  0  0  0  0  0  0
   32.6919   30.2699   -0.0337 C   0  0  0  0  0  0  0  0  0  0  0  0
   33.8673   31.6057   -9.1437 C   0  0  0  0  0  0  0  0  0  0  0  0
   30.6137   30.8455   -6.8705 S   0  0  0  0  0  4  0  0  0  0  0  0
   33.7582   30.2818   -9.1084 C   0  0  0  0  0  0  0  0  0  0  0  0
   29.9982   31.6472   -7.6766 O   0  0  0  0  0  1  0  0  0  0  0  0
   32.5247   30.9892    1.4283 C   0  0  0  0  0  0  0  0  0  0  0  0
  5  1  2  0
  8  4  1  0
  9  7  1  0
 10  7  1  0
 11  8  1  0
 14  3  2  0
 14 13  1  0
 15  2  1  0
 15 12  1  0
 16  2  2  0
 16 14  1  0
 17 12  1  0
 18 10  1  0
 19  9  1  0
 20  6  1  0
 22  9  1  0
 22 18  1  0
 22 20  1  0
 23  5  1  0
 24 13  1  0
 24 18  1  0
 25  2  1  0
 25  3  1  0
 26  1  1  0
 26 10  1  0
 27 11  1  0
 28  6  1  0
 28  8  1  0
 28 21  1  0
 29  4  2  0
 29 27  1  0
 30 28  1  0
 31 23  2  0
 31 26  1  0
M  RAD  2  21   2  30   2
M  END
>  <ID>  (1) 
conformer_0

$$$$
