
     RDKit          3D

 32 35  0  0  0  0  0  0  0  0999 V2000
   34.4781   24.0290   -0.3673 C   0  0  0  0  0  0  0  0  0  0  0  0
   33.5717   28.9262    1.2004 C   0  0  0  0  0  0  0  0  0  0  0  0
   32.7433   29.8669   -8.5255 C   0  0  0  0  0  0  0  0  0  0  0  0
   32.8633   23.9252   -0.2477 C   0  0  0  0  0  0  0  0  0  0  0  0
   32.7042   29.2817   -1.6604 C   0  0  0  0  0  0  0  0  0  0  0  0
   33.3160   29.7189    2.1679 C   0  0  0  0  0  0  0  0  0  0  0  0
   31.9503   30.9652   -7.5824 C   0  0  1  0  0  0  0  0  0  0  0  0
   32.7029   32.2921   -8.2986 S   0  0  0  0  0  0  0  0  0  0  0  0
   31.8767   31.3541   -1.0916 N   0  0  0  0  0  0  0  0  0  0  0  0
   33.2568   26.1428   -1.0737 C   0  0  0  0  0  0  0  0  0  0  0  0
   31.8164   29.8250   -3.3391 C   0  0  0  0  0  0  0  0  0  0  0  0
   32.2313   25.1268   -0.6666 C   0  0  0  0  0  0  0  0  0  0  0  0
   32.9498   27.5198   -3.7423 O   0  0  0  0  0  0  0  0  0  0  0  0
   32.7901   30.2859    0.1114 C   0  0  2  0  0  0  0  0  0  0  0  0
   34.7215   21.1280    2.1781 C   0  0  0  0  0  0  0  0  0  0  0  0
   34.7556   21.3873   -0.1104 O   0  0  0  0  0  0  0  0  0  0  0  0
   30.2455   29.3856   -6.6323 O   0  0  0  0  0  1  0  0  0  0  0  0
   34.3774   20.4101    2.6935 C   0  0  0  0  0  0  0  0  0  0  0  0
   32.6071   29.6571   -1.4844 N   0  0  0  0  0  0  0  0  0  0  0  0
   31.0955   31.3253   -5.3683 N   0  0  0  0  0  0  0  0  0  0  0  0
   31.3999   31.3789   -4.7835 C   0  0  0  0  0  0  0  0  0  0  0  0
   32.6939   31.0106    1.6917 C   0  0  0  0  0  0  0  0  0  0  0  0
   30.5740   30.6768   -6.6243 S   0  0  0  0  0  4  0  0  0  0  0  0
   34.6750   25.2955   -0.7202 C   0  0  0  0  0  0  0  0  0  0  0  0
   33.5990   31.4726   -8.9751 C   0  0  0  0  0  0  0  0  0  0  0  0
   31.7568   33.4922   -4.5419 C   0  0  0  0  0  0  0  0  0  0  0  0
   32.7563   28.1627   -2.8467 C   0  0  0  0  0  0  0  0  0  0  0  0
   33.5638   30.4593   -9.6100 C   0  0  0  0  0  0  0  0  0  0  0  0
   33.2316   27.2506   -1.3709 N   0  0  0  0  0  0  0  0  0  0  0  0
   29.6392   31.2239   -7.2756 O   0  0  0  0  0  1  0  0  0  0  0  0
   31.9577   30.6932   -2.8037 C   0  0  2  0  0  0  0  0  0  0  0  0
   34.6150   22.4522    0.2169 C   0  0  0  0  0  0  0  0  0  0  0  0
  4  1  2  0
  6  2  2  0
  7  3  1  0
  8  7  1  0
 12  4  1  0
 12 10  2  0
 14  2  1  0
 14  9  1  0
 18 15  2  3
 19  5  1  0
 19 14  1  0
 21 11  2  3
 21 20  1  0
 22  6  1  0
 14 22  1  6
  7 23  1  6
 23 17  1  0
 23 20  1  0
 24  1  1  0
 24 10  1  0
 25  8  1  0
 26 21  1  0
 27  5  1  0
 27 13  2  0
 28  3  1  0
 28 25  1  0
 29 10  1  0
 29 27  1  0
 30 23  1  0
 31  9  1  1
 31 11  1  0
 31 19  1  0
 32  1  1  0
 32 15  1  0
 32 16  2  0
M  RAD  2  17   2  30   2
M  END
>  <ID>  (1) 
conformer_0

$$$$
