
     RDKit          3D

 32 33  0  0  0  0  0  0  0  0999 V2000
   34.7795   25.4066   -0.7746 C   0  0  0  0  0  0  0  0  0  0  0  0
   33.6134   29.3051    2.2792 C   0  0  0  0  0  0  0  0  0  0  0  0
   33.5624   29.0295    0.9603 C   0  0  0  0  0  0  0  0  0  0  0  0
   32.8263   29.7970   -8.1527 C   0  0  0  0  0  0  0  0  0  0  0  0
   34.8786   24.0588   -0.4855 C   0  0  0  0  0  0  0  0  0  0  0  0
   32.1385   30.9641   -7.5073 C   0  0  2  0  0  0  0  0  0  0  0  0
   31.5364   30.2375   -3.5071 C   0  0  2  0  0  0  0  0  0  0  0  0
   31.6534   30.8735   -2.8665 C   0  0  0  0  0  0  0  0  0  0  0  0
   34.7976   22.0858    0.0630 C   0  0  0  0  0  0  0  0  0  0  0  0
   32.9832   27.6294   -3.5713 O   0  0  0  0  0  0  0  0  0  0  0  0
   32.6479   30.2383   -0.3527 C   0  0  0  0  0  0  0  0  0  0  0  0
   32.9294   27.6280   -1.3368 N   0  0  0  0  0  0  0  0  0  0  0  0
   32.5118   24.9216   -0.6445 C   0  0  0  0  0  0  0  0  0  0  0  0
   33.3321   25.9982   -1.0798 C   0  0  2  0  0  0  0  0  0  0  0  0
   30.2791   29.0926   -7.0286 O   0  0  0  0  0  1  0  0  0  0  0  0
   35.6305   21.3613   -0.6475 O   0  0  0  0  0  0  0  0  0  0  0  0
   32.4869   31.1056    1.0873 C   0  0  0  0  0  0  0  0  0  0  0  0
   33.7133   31.5945   -8.9059 C   0  0  0  0  0  0  0  0  0  0  0  0
   30.6402   30.3480   -6.5040 S   0  0  0  0  0  4  0  0  0  0  0  0
   32.6914   28.0959   -2.7392 C   0  0  0  0  0  0  0  0  0  0  0  0
   31.2207   31.1885   -1.4672 N   0  0  0  0  0  0  0  0  0  0  0  0
   31.9924   30.5197   -1.4731 N   0  0  0  0  0  0  0  0  0  0  0  0
   30.6660   31.2540   -5.4572 N   0  0  0  0  0  0  0  0  0  0  0  0
   32.6722   31.9995   -8.1734 S   0  0  0  0  0  0  0  0  0  0  0  0
   31.3243   31.7657   -4.7807 C   0  0  1  0  0  0  0  0  0  0  0  0
   33.3714   23.6780   -0.2841 C   0  0  0  0  0  0  0  0  0  0  0  0
   31.8022   33.1932   -4.1678 C   0  0  0  0  0  0  0  0  0  0  0  0
   32.8144   30.6741    2.3599 C   0  0  0  0  0  0  0  0  0  0  0  0
   33.6057   30.2823   -9.3297 C   0  0  0  0  0  0  0  0  0  0  0  0
   34.7866   20.8481    1.7840 C   0  0  0  0  0  0  0  0  0  0  0  0
   29.7456   30.8956   -7.2111 O   0  0  0  0  0  1  0  0  0  0  0  0
   34.0141   21.3198    0.4601 O   0  0  0  0  0  0  0  0  0  0  0  0
  3  2  1  0
  5  1  2  0
  6  4  1  0
  7  8  1  1
  9  5  1  0
 14  1  1  0
 14 12  1  1
 14 13  1  0
 16  9  2  0
 17 11  2  3
  6 19  1  6
 19 15  1  0
 20  7  1  0
 20 10  2  0
 20 12  1  0
 22  8  1  0
 22 11  1  0
 22 21  1  0
 23 19  1  0
 24  6  1  0
 24 18  1  0
 25  7  1  0
 25 23  1  0
 26  5  1  0
 26 13  2  0
 25 27  1  1
 28  2  2  3
 28 17  1  0
 29  4  1  0
 29 18  1  0
 31 19  1  0
 32  9  1  0
 32 30  1  0
M  RAD  2  15   2  31   2
M  END
>  <ID>  (1) 
conformer_0

$$$$
