
     RDKit          3D

 30 34  0  0  0  0  0  0  0  0999 V2000
   33.6116   29.0741    2.1281 C   0  0  0  0  0  0  0  0  0  0  0  0
   32.9739   29.9120   -8.2960 C   0  0  0  0  0  0  0  0  0  0  0  0
   32.5571   24.8947   -0.6138 C   0  0  0  0  0  0  0  0  0  0  0  0
   33.3102   23.6742   -0.2605 C   0  0  0  0  0  0  0  0  0  0  0  0
   32.9468   30.4412    2.4490 C   0  0  0  0  0  0  0  0  0  0  0  0
   31.6929   30.8087   -7.5223 C   0  0  0  0  0  0  0  0  0  0  0  0
   31.9020   31.5012   -3.0656 C   0  0  0  0  0  0  0  0  0  0  0  0
   32.5642   30.1458   -1.4413 N   0  0  0  0  0  0  0  0  0  0  0  0
   32.7608   30.2788   -0.0651 C   0  0  0  0  0  0  0  0  0  0  0  0
   34.6057   20.8191    2.1763 C   0  0  0  0  0  0  0  0  0  0  0  0
   34.8458   23.8164   -0.4457 C   0  0  0  0  0  0  0  0  0  0  0  0
   31.6547   30.2128   -3.5483 C   0  0  0  0  0  0  0  0  0  0  0  0
   32.0510   31.5624   -1.6049 N   0  0  0  0  0  0  0  0  0  0  0  0
   33.0929   27.7849   -3.8720 O   0  0  0  0  0  0  0  0  0  0  0  0
   33.4300   25.9305   -1.0859 C   0  0  0  0  0  0  0  0  0  0  0  0
   32.5019   31.1348    1.3624 C   0  0  0  0  0  0  0  0  0  0  0  0
   33.1643   27.2103   -1.3617 N   0  0  0  0  0  0  0  0  0  0  0  0
   29.8586   30.3213   -7.1484 O   0  0  0  0  0  1  0  0  0  0  0  0
   32.6022   32.1121   -8.1549 S   0  0  0  0  0  0  0  0  0  0  0  0
   34.7186   21.2567    0.4368 O   0  0  0  0  0  0  0  0  0  0  0  0
   31.4803   31.5589   -5.0218 C   0  0  0  0  0  0  0  0  0  0  0  0
   33.6482   30.5547   -9.2502 C   0  0  0  0  0  0  0  0  0  0  0  0
   31.7639   33.2349   -4.4569 C   0  0  0  0  0  0  0  0  0  0  0  0
   32.8844   27.8784   -2.3194 C   0  0  0  0  0  0  0  0  0  0  0  0
   34.8776   25.1740   -0.7772 C   0  0  0  0  0  0  0  0  0  0  0  0
   32.4786   29.6056   -2.5287 C   0  0  0  0  0  0  0  0  0  0  0  0
   33.1543   31.6294   -8.7017 C   0  0  0  0  0  0  0  0  0  0  0  0
   33.4605   28.9909    0.8036 C   0  0  0  0  0  0  0  0  0  0  0  0
   34.6609   21.9911    0.3423 C   0  0  0  0  0  0  0  0  0  0  0  0
   30.4734   30.9532   -6.8457 S   0  0  0  0  0  3  0  0  0  0  0  0
  4  3  2  0
  5  1  2  0
  6  2  1  0
  9  8  1  0
 11  4  1  0
 12  7  1  0
 13  7  2  0
 13  8  1  0
 15  3  1  0
 16  5  1  0
 16  9  2  0
 17 15  1  0
 19  6  1  0
 20 10  1  0
 21  6  1  0
 21  7  1  0
 22  2  1  0
 23 21  1  0
 24 14  2  0
 24 17  1  0
 25 11  2  0
 25 15  1  0
 26  8  1  0
 26 12  2  0
 26 24  1  0
 27  2  1  0
 27 19  1  0
 27 22  2  0
 28  1  1  0
 28  9  1  0
 29 11  1  0
 29 20  1  0
 30  6  1  0
 30 18  1  0
M  RAD  2  18   2  30   2
M  END
>  <ID>  (1) 
conformer_0

$$$$
