
     RDKit          3D

 36 39  0  0  0  0  0  0  0  0999 V2000
   34.6817   25.4757   -0.5975 C   0  0  0  0  0  0  0  0  0  0  0  0
   33.7043   29.1269    0.8511 C   0  0  0  0  0  0  0  0  0  0  0  0
   32.8484   30.1221   -8.3996 C   0  0  0  0  0  0  0  0  0  0  0  0
   33.0849   23.8507   -0.2130 C   0  0  0  0  0  0  0  0  0  0  0  0
   33.7753   29.3634    2.2888 C   0  0  0  0  0  0  0  0  0  0  0  0
   31.8326   30.9013   -7.4121 C   0  0  0  0  0  0  0  0  0  0  0  0
   32.8222   30.2105   -1.5893 N   0  0  0  0  0  0  0  0  0  0  0  0
   31.9644   31.6322   -3.2090 C   0  0  0  0  0  0  0  0  0  0  0  0
   34.4675   21.8636    0.4567 C   0  0  0  0  0  0  0  0  0  0  0  0
   32.9001   27.4411   -3.9048 O   0  0  0  0  0  0  0  0  0  0  0  0
   32.2061   31.4006   -1.7696 N   0  0  0  0  0  0  0  0  0  0  0  0
   32.0255   30.0994   -3.5385 C   0  0  0  0  0  0  0  0  0  0  0  0
   32.9388   29.9864    0.0276 C   0  0  0  0  0  0  0  0  0  0  0  0
   33.1116   27.3942   -1.4615 N   0  0  0  0  0  0  0  0  0  0  0  0
   32.9489   27.9275   -2.9493 C   0  0  0  0  0  0  0  0  0  0  0  0
   32.3688   25.0752   -0.6587 C   0  0  0  0  0  0  0  0  0  0  0  0
   31.7310   33.2262   -4.3080 C   0  0  0  0  0  0  0  0  0  0  0  0
   33.2765   26.1895   -1.0714 C   0  0  0  0  0  0  0  0  0  0  0  0
   35.2928   21.1938    1.9076 O   0  0  0  0  0  0  0  0  0  0  0  0
   30.0410   29.4192   -6.5704 O   0  0  0  0  0  1  0  0  0  0  0  0
   32.4461   30.8791    1.1052 C   0  0  0  0  0  0  0  0  0  0  0  0
   30.3885   30.7356   -6.4602 S   0  0  0  0  0  4  0  0  0  0  0  0
   30.8839   31.5571   -5.6268 N   0  0  0  0  0  0  0  0  0  0  0  0
   34.5739   20.7142    2.6478 C   0  0  0  0  0  0  0  0  0  0  0  0
   33.5466   30.7702   -9.2072 C   0  0  0  0  0  0  0  0  0  0  0  0
   31.0631   32.1713   -5.0907 C   0  0  0  0  0  0  0  0  0  0  0  0
   32.4005   29.3379   -5.4318 N   0  0  0  0  0  0  0  0  0  0  0  0
   33.1423   32.0384   -8.5390 C   0  0  0  0  0  0  0  0  0  0  0  0
   32.3695   32.2755   -7.9750 S   0  0  0  0  0  3  0  0  0  0  0  0
   34.5971   24.0919   -0.2014 C   0  0  0  0  0  0  0  0  0  0  0  0
   32.6195   29.6185   -2.3037 C   0  0  0  0  0  0  0  0  0  0  0  0
   34.0122   21.4667    0.4636 O   0  0  0  0  0  0  0  0  0  0  0  0
   33.2182   33.1695   -8.3531 F   0  0  0  0  0  0  0  0  0  0  0  0
   29.3546   31.3201   -6.9735 O   0  0  0  0  0  1  0  0  0  0  0  0
   32.8225   30.5090    2.3571 C   0  0  0  0  0  0  0  0  0  0  0  0
   32.1291   29.3294   -4.6821 C   0  0  0  0  0  0  0  0  0  0  0  0
  5  2  2  0
  6  3  1  0
 11  7  1  0
 11  8  2  0
 12  8  1  0
 13  2  1  0
 13  7  1  0
 15 10  2  0
 15 14  1  0
 16  4  2  0
 17  8  1  0
 18  1  2  0
 18 14  1  0
 18 16  1  0
 19  9  1  0
 21 13  1  0
 22  6  1  0
 22 20  1  0
 23 22  1  0
 24 19  1  0
 25  3  2  0
 26 17  1  0
 26 23  1  0
 28 25  1  0
 29  6  1  0
 29 28  1  0
 30  1  1  0
 30  4  1  0
 30  9  1  0
 31  7  1  0
 31 12  2  0
 31 15  1  0
 32  9  2  0
 33 29  1  0
 34 22  1  0
 35  5  1  0
 35 21  2  0
 36 12  1  0
 36 27  1  0
M  RAD  3  20   2  29   2  34   2
M  END
>  <ID>  (1) 
conformer_0

$$$$
