
     RDKit          3D

 34 37  0  0  0  0  0  0  0  0999 V2000
   33.6229   29.3278    2.2085 C   0  0  0  0  0  0  0  0  0  0  0  0
   34.9539   24.2069   -0.5508 C   0  0  0  0  0  0  0  0  0  0  0  0
   32.9530   29.9710   -8.4897 C   0  0  0  0  0  0  0  0  0  0  0  0
   32.4431   24.0568   -0.2475 C   0  0  0  0  0  0  0  0  0  0  0  0
   33.6497   29.1093    0.9212 C   0  0  0  0  0  0  0  0  0  0  0  0
   32.4568   30.4622   -1.4714 N   0  0  0  0  0  0  0  0  0  0  0  0
   31.9446   30.9771   -7.5025 C   0  0  0  0  0  0  0  0  0  0  0  0
   34.5601   20.8000    1.9992 C   0  0  0  0  0  0  0  0  0  0  0  0
   31.4704   30.9657   -3.4374 C   0  0  0  0  0  0  0  0  0  0  0  0
   33.1559   27.4417   -1.2657 N   0  0  0  0  0  0  0  0  0  0  0  0
   33.1358   27.4464   -3.6317 O   0  0  0  0  0  0  0  0  0  0  0  0
   33.3549   25.9995   -0.9825 C   0  0  0  0  0  0  0  0  0  0  0  0
   33.7105   21.4732    0.5623 O   0  0  0  0  0  0  0  0  0  0  0  0
   31.8650   31.5128   -3.0105 C   0  0  0  0  0  0  0  0  0  0  0  0
   29.8819   30.2451   -6.9407 O   0  0  0  0  0  1  0  0  0  0  0  0
   34.6401   25.5670   -0.7164 C   0  0  0  0  0  0  0  0  0  0  0  0
   32.8977   30.7633    2.2352 C   0  0  0  0  0  0  0  0  0  0  0  0
   32.6896   32.3182   -8.2809 S   0  0  0  0  0  0  0  0  0  0  0  0
   32.9060   30.2690    0.0542 C   0  0  0  0  0  0  0  0  0  0  0  0
   32.9069   28.2733   -2.9656 C   0  0  0  0  0  0  0  0  0  0  0  0
   32.3128   30.5904   -5.4899 N   0  0  0  0  0  0  0  0  0  0  0  0
   31.8214   32.4663   -4.0036 C   0  0  0  0  0  0  0  0  0  0  0  0
   31.6754   30.7165   -5.0280 C   0  0  0  0  0  0  0  0  0  0  0  0
   30.6736   30.7946   -6.8578 S   0  0  0  0  0  3  0  0  0  0  0  0
   33.4194   30.4575   -9.5994 C   0  0  0  0  0  0  0  0  0  0  0  0
   32.1614   25.3775   -0.6274 C   0  0  0  0  0  0  0  0  0  0  0  0
   34.5030   22.0687    0.2173 C   0  0  0  0  0  0  0  0  0  0  0  0
   33.0854   31.7348   -8.9956 C   0  0  0  0  0  0  0  0  0  0  0  0
   31.9686   30.9397   -1.4575 N   0  0  0  0  0  0  0  0  0  0  0  0
   32.6357   31.1717    0.9305 C   0  0  0  0  0  0  0  0  0  0  0  0
   32.4816   29.5412   -2.1843 C   0  0  0  0  0  0  0  0  0  0  0  0
   35.6039   21.4808    0.2306 O   0  0  0  0  0  0  0  0  0  0  0  0
   33.8333   23.5275   -0.1766 C   0  0  0  0  0  0  0  0  0  0  0  0
   32.3021   29.2234   -3.0962 C   0  0  0  0  0  0  0  0  0  0  0  0
  5  1  2  0
  7  3  1  0
 12 10  1  0
 13  8  1  0
 14  9  2  0
 16  2  2  0
 16 12  1  0
 17  1  1  0
 18  7  1  0
 19  5  1  0
 19  6  1  0
 20 10  1  0
 20 11  2  0
 22  7  1  0
 22 14  1  0
 23  9  1  0
 23 21  1  0
 24  7  1  0
 24 15  1  0
 25  3  1  0
 26  4  1  0
 26 12  2  0
 27 13  1  0
 28 18  1  0
 28 25  2  0
 29  6  1  0
 29 14  1  0
 30 17  1  0
 30 19  2  0
 31  6  1  0
 32 27  2  0
 33  2  1  0
 33  4  2  0
 33 27  1  0
 34  9  1  0
 34 20  1  0
 34 31  2  0
M  RAD  2  15   2  24   2
M  END
>  <ID>  (1) 
conformer_0

$$$$
