
     RDKit          3D

 33 37  0  0  0  0  0  0  0  0999 V2000
   34.7151   25.5665   -0.7131 C   0  0  0  0  0  0  0  0  0  0  0  0
   33.5993   29.0209    0.9048 C   0  0  0  0  0  0  0  0  0  0  0  0
   32.8821   29.8275   -8.4239 C   0  0  1  0  0  0  0  0  0  0  0  0
   34.7627   24.1789   -0.3928 C   0  0  0  0  0  0  0  0  0  0  0  0
   32.9298   30.4776    2.4211 C   0  0  0  0  0  0  0  0  0  0  0  0
   32.0017   30.6073   -7.5957 C   0  0  1  0  0  0  0  0  0  0  0  0
   34.9566   20.9166    1.8696 C   0  0  0  0  0  0  0  0  0  0  0  0
   32.7366   30.0882    0.0613 C   0  0  0  0  0  0  0  0  0  0  0  0
   31.6753   31.6415   -3.1684 C   0  0  0  0  0  0  0  0  0  0  0  0
   32.4345   30.4586   -1.7715 N   0  0  0  0  0  0  0  0  0  0  0  0
   33.0722   27.7195   -1.5477 N   0  0  0  0  0  0  0  0  0  0  0  0
   32.3872   25.0617   -0.6198 C   0  0  0  0  0  0  0  0  0  0  0  0
   31.6194   30.0003   -3.4713 C   0  0  0  0  0  0  0  0  0  0  0  0
   32.9600   27.6534   -4.0458 O   0  0  0  0  0  0  0  0  0  0  0  0
   32.6888   28.3147   -3.1409 C   0  0  0  0  0  0  0  0  0  0  0  0
   33.2472   26.1887   -1.1057 C   0  0  2  0  0  0  0  0  0  0  0  0
   31.6296   33.3352   -4.3235 C   0  0  0  0  0  0  0  0  0  0  0  0
   31.8239   31.2896   -1.4396 N   0  0  0  0  0  0  0  0  0  0  0  0
   31.0892   31.4636   -5.5680 N   0  0  0  0  0  0  0  0  0  0  0  0
   31.3459   32.0616   -5.1805 C   0  0  0  0  0  0  0  0  0  0  0  0
   32.2200   31.5993   -8.4904 S   0  0  1  0  0  4  0  0  0  0  0  0
   32.5780   30.9360    1.1545 C   0  0  0  0  0  0  0  0  0  0  0  0
   29.4901   29.9490   -6.6019 O   0  0  0  0  0  1  0  0  0  0  0  0
   33.3851   31.1651   -9.1329 C   0  0  0  0  0  0  0  0  0  0  0  0
   33.2666   23.8957   -0.2599 C   0  0  0  0  0  0  0  0  0  0  0  0
   35.6039   21.2153    0.5432 O   0  0  0  0  0  0  0  0  0  0  0  0
   29.6619   31.7271   -7.5607 O   0  0  0  0  0  1  0  0  0  0  0  0
   32.3313   29.7541   -2.4707 C   0  0  0  0  0  0  0  0  0  0  0  0
   34.4575   20.8669    2.1831 C   0  0  0  0  0  0  0  0  0  0  0  0
   33.6683   29.1386    2.3189 C   0  0  0  0  0  0  0  0  0  0  0  0
   30.2027   30.8783   -6.8287 S   0  0  0  0  0  4  0  0  0  0  0  0
   33.7232   30.3741   -9.5040 C   0  0  0  0  0  0  0  0  0  0  0  0
   35.0630   21.9995    0.2861 C   0  0  0  0  0  0  0  0  0  0  0  0
  4  1  2  0
  6  3  1  0
  8  2  2  0
 10  8  1  0
 13  9  1  0
 15 11  1  0
 15 14  2  0
 16  1  1  0
 16 11  1  1
 16 12  1  0
 17  9  1  0
 18  9  2  0
 18 10  1  0
 20 17  1  0
 20 19  1  0
 21  3  1  0
 21  6  1  0
 22  5  2  0
 22  8  1  0
 21 24  1  1
 25  4  1  0
 25 12  2  0
 26  7  1  0
 28 10  1  0
 28 13  2  0
 28 15  1  0
 29  7  2  3
 30  2  1  0
 30  5  1  0
  6 31  1  6
 31 19  1  0
 31 23  1  0
 31 27  1  0
  3 32  1  1
 32 24  1  0
 33  4  1  0
 33 26  1  0
M  RAD  2  23   2  27   2
M  END
>  <ID>  (1) 
conformer_0

$$$$
