
     RDKit          3D

 33 37  0  0  0  0  0  0  0  0999 V2000
   33.6787   29.0188    1.9859 C   0  0  0  0  0  0  0  0  0  0  0  0
   32.4377   25.2065   -0.7682 C   0  0  0  0  0  0  0  0  0  0  0  0
   35.0682   24.4370   -0.4134 C   0  0  0  0  0  0  0  0  0  0  0  0
   33.6097   30.1873   -9.5835 C   0  0  0  0  0  0  0  0  0  0  0  0
   33.0128   30.4602    2.2410 C   0  0  0  0  0  0  0  0  0  0  0  0
   31.5429   30.2615   -3.5741 C   0  0  0  0  0  0  0  0  0  0  0  0
   31.9564   31.3532   -2.9811 C   0  0  0  0  0  0  0  0  0  0  0  0
   34.4754   22.0182    0.3750 C   0  0  0  0  0  0  0  0  0  0  0  0
   34.6141   25.6810   -0.7761 C   0  0  0  0  0  0  0  0  0  0  0  0
   31.9609   30.7078   -7.6973 C   0  0  0  0  0  0  0  0  0  0  0  0
   32.7855   27.4136   -3.6110 O   0  0  0  0  0  0  0  0  0  0  0  0
   32.7730   31.8196   -8.2227 S   0  0  0  0  0  0  0  0  0  0  0  0
   32.6903   29.7005   -1.6158 N   0  0  0  0  0  0  0  0  0  0  0  0
   31.1772   32.0463   -5.0899 C   0  0  0  0  0  0  0  0  0  0  0  0
   32.6605   31.0833    1.0068 C   0  0  0  0  0  3  0  0  0  0  0  0
   30.9410   31.8643   -5.8711 N   0  0  0  0  0  0  0  0  0  0  0  0
   32.8570   30.2031   -0.2126 C   0  0  0  0  0  0  0  0  0  0  0  0
   29.8824   29.5474   -6.5879 O   0  0  0  0  0  1  0  0  0  0  0  0
   33.0610   27.3558   -1.3040 N   0  0  0  0  0  0  0  0  0  0  0  0
   32.0416   31.1906   -1.4948 N   0  0  0  0  0  0  0  0  0  0  0  0
   32.7929   28.0242   -2.3457 C   0  0  0  0  0  0  0  0  0  0  0  0
   35.1002   21.3362    0.4799 O   0  0  0  0  0  0  0  0  0  0  0  0
   33.3094   26.1346   -1.0628 C   0  0  0  0  0  0  0  0  0  0  0  0
   33.8425   31.2358   -9.1431 C   0  0  0  0  0  0  0  0  0  0  0  0
   32.6711   23.9998   -0.3131 C   0  0  0  0  0  0  0  0  0  0  0  0
   30.5452   30.8193   -7.0737 S   0  0  0  0  0  4  0  0  0  0  0  0
   34.3932   20.8134    2.3621 C   0  0  0  0  0  0  0  0  0  0  0  0
   32.8326   29.6095   -8.2834 C   0  0  0  0  0  0  0  0  0  0  0  0
   33.5644   29.0284    0.6941 C   0  0  0  0  0  0  0  0  0  0  0  0
   31.9867   33.2376   -4.1090 C   0  0  0  0  0  0  0  0  0  0  0  0
   32.3959   29.4421   -2.4101 C   0  0  0  0  0  0  0  0  0  0  0  0
   29.6668   30.9044   -7.9481 O   0  0  0  0  0  1  0  0  0  0  0  0
   34.1034   23.4557   -0.2026 C   0  0  0  0  0  0  0  0  0  0  0  0
  5  1  2  0
  7  6  1  0
  9  3  2  0
 12 10  1  0
 15  5  1  0
 16 14  1  0
 17 13  1  0
 17 15  1  0
 20  7  1  0
 20 13  1  0
 20 17  1  0
 21 11  2  0
 21 19  1  0
 22  8  1  0
 23  2  2  0
 23  9  1  0
 23 19  1  0
 24  4  1  0
 24 12  1  0
 25  2  1  0
 26 10  1  0
 26 16  1  0
 26 18  1  0
 27 22  1  0
 28  4  1  0
 28 10  1  0
 29  1  1  0
 29 17  1  0
 30  7  1  0
 30 14  1  0
 31  6  2  0
 31 13  1  0
 31 21  1  0
 32 26  1  0
 33  3  1  0
 33  8  1  0
 33 25  2  0
M  RAD  3  15   2  18   2  32   2
M  END
>  <ID>  (1) 
conformer_0

$$$$
