
     RDKit          3D

 31 34  0  0  0  0  0  0  0  0999 V2000
   33.2366   29.6256    0.5504 C   0  0  0  0  0  0  0  0  0  0  0  0
   32.7148   29.8959   -8.3059 C   0  0  0  0  0  0  0  0  0  0  0  0
   34.6099   23.9404   -0.4466 C   0  0  0  0  0  0  0  0  0  0  0  0
   32.4051   25.1504   -0.6760 C   0  0  0  0  0  0  0  0  0  0  0  0
   33.6734   28.9602    1.7852 C   0  0  0  0  0  0  0  0  0  0  0  0
   31.9487   30.7373   -2.7883 C   0  0  0  0  0  3  0  0  0  0  0  0
   31.8625   31.6657   -1.2828 N   0  0  0  0  0  0  0  0  0  0  0  0
   34.6624   22.2330    0.1287 C   0  0  0  0  0  0  0  0  0  0  0  0
   31.8068   30.8831   -7.6896 C   0  0  0  0  0  0  0  0  0  0  0  0
   31.3217   30.5563   -3.5689 C   0  0  0  0  0  0  0  0  0  0  0  0
   32.2427   32.0579   -8.5265 S   0  0  0  0  0  0  0  0  0  0  0  0
   33.4643   26.1483   -1.0859 C   0  0  0  0  0  0  0  0  0  0  0  0
   33.2922   27.6002   -1.3800 N   0  0  0  0  0  0  0  0  0  0  0  0
   32.6467   31.2313    1.4893 C   0  0  0  0  0  0  0  0  0  0  0  0
   34.8524   25.2705   -0.7495 C   0  0  0  0  0  0  0  0  0  0  0  0
   32.8364   28.1513   -4.0741 O   0  0  0  0  0  0  0  0  0  0  0  0
   32.5531   30.5429   -0.7483 C   0  0  0  0  0  0  0  0  0  0  0  0
   29.9745   29.4190   -6.9122 O   0  0  0  0  0  1  0  0  0  0  0  0
   32.8706   28.3852   -2.4838 C   0  0  0  0  0  0  0  0  0  0  0  0
   34.6635   21.1001   -0.1028 O   0  0  0  0  0  0  0  0  0  0  0  0
   31.5370   30.7623   -4.8274 C   0  0  0  0  0  0  0  0  0  0  0  0
   33.6110   31.4198   -9.1583 C   0  0  0  0  0  0  0  0  0  0  0  0
   32.6133   30.0999   -1.7615 N   0  0  0  0  0  0  0  0  0  0  0  0
   30.5210   30.6789   -6.7425 S   0  0  0  0  0  4  0  0  0  0  0  0
   34.4911   21.0584    2.1360 C   0  0  0  0  0  0  0  0  0  0  0  0
   30.5716   31.1163   -5.5532 N   0  0  0  0  0  0  0  0  0  0  0  0
   31.7881   32.7252   -3.9100 C   0  0  0  0  0  0  0  0  0  0  0  0
   33.1187   30.2127    2.5153 C   0  0  0  0  0  0  0  0  0  0  0  0
   32.9874   23.9213   -0.3020 C   0  0  0  0  0  0  0  0  0  0  0  0
   33.4614   30.2443   -9.3830 C   0  0  0  0  0  0  0  0  0  0  0  0
   29.6105   31.5090   -7.3757 O   0  0  0  0  0  1  0  0  0  0  0  0
  5  1  1  0
  7  6  1  0
  8  3  1  0
  9  2  1  0
 10  6  1  0
 11  9  1  0
 12  4  2  0
 13 12  1  0
 14  1  1  0
 15  3  2  0
 15 12  1  0
 17  1  1  0
 17  7  2  0
 19  1  1  0
 19 13  1  0
 19 16  2  0
 20  8  2  0
 21 10  1  0
 22 11  1  0
 23  6  1  0
 23 17  1  0
 24  9  1  0
 24 18  1  0
 25  8  1  0
 26 21  1  0
 26 24  1  0
 27 10  1  0
 28  5  2  0
 28 14  1  0
 29  3  1  0
 29  4  1  0
 30  2  1  0
 30 22  1  0
 31 24  1  0
M  RAD  3   6   2  18   2  31   2
M  END
>  <ID>  (1) 
conformer_0

$$$$
