
     RDKit          3D

 35 38  0  0  0  0  0  0  0  0999 V2000
   33.7121   30.3125   -9.4909 C   0  0  0  0  0  0  0  0  0  0  0  0
   32.5760   24.9148   -0.5371 C   0  0  0  0  0  0  0  0  0  0  0  0
   33.6272   29.0857    0.8062 C   0  0  0  0  0  0  0  0  0  0  0  0
   34.8934   24.0814   -0.2445 C   0  0  0  0  0  0  0  0  0  0  0  0
   33.5729   29.3345    2.1381 C   0  0  0  0  0  0  0  0  0  0  0  0
   31.9990   31.0753   -3.1202 C   0  0  0  0  0  0  0  0  0  0  0  0
   31.7069   29.9995   -3.7027 C   0  0  0  0  0  0  0  0  0  0  0  0
   32.6259   30.0857   -1.5770 N   0  0  0  0  0  0  0  0  0  0  0  0
   32.4415   30.3234   -7.3916 C   0  0  1  0  0  0  0  0  0  0  0  0
   34.7665   22.3123    0.2679 C   0  0  0  0  0  0  0  0  0  0  0  0
   33.1354   27.3326   -1.4526 N   0  0  0  0  0  0  0  0  0  0  0  0
   34.8527   25.4580   -0.6194 C   0  0  0  0  0  0  0  0  0  0  0  0
   33.4061   26.0994   -1.0381 C   0  0  0  0  0  0  0  0  0  0  0  0
   32.7844   30.1308   -0.0741 C   0  0  0  0  0  0  0  0  0  0  0  0
   34.2659   20.4227    2.9601 C   0  0  0  0  0  0  0  0  0  0  0  0
   32.7716   27.6313   -3.9438 O   0  0  0  0  0  0  0  0  0  0  0  0
   32.7059   30.5301    2.1577 C   0  0  0  0  0  0  0  0  0  0  0  0
   30.5366   29.2872   -6.5271 O   0  0  0  0  0  0  0  0  0  0  0  0
   31.7250   31.3272   -1.6561 N   0  0  0  0  0  0  0  0  0  0  0  0
   30.8638   30.6470   -6.5625 S   0  0  0  0  0  6  0  0  0  0  0  0
   31.0608   32.4237   -5.5012 C   0  0  0  0  0  0  0  0  0  0  0  0
   31.2876   31.4810   -5.8070 N   0  0  0  0  0  0  0  0  0  0  0  0
   33.1876   29.5788   -8.4843 C   0  0  0  0  0  0  0  0  0  0  0  0
   33.3677   23.7988   -0.1332 C   0  0  0  0  0  0  0  0  0  0  0  0
   35.0492   21.4139   -0.0182 O   0  0  0  0  0  0  0  0  0  0  0  0
   31.8153   29.6767   -4.9268 C   0  0  0  0  0  0  0  0  0  0  0  0
   31.6857   33.0524   -4.6549 C   0  0  0  0  0  0  0  0  0  0  0  0
   33.5463   31.4383   -8.7685 C   0  0  0  0  0  0  0  0  0  0  0  0
   32.4912   29.2855   -2.0979 C   0  0  0  0  0  0  0  0  0  0  0  0
   29.9137   31.0725   -7.3106 O   0  0  0  0  0  0  0  0  0  0  0  0
   35.1193   21.4117    1.2643 F   0  0  0  0  0  0  0  0  0  0  0  0
   32.8895   27.9093   -2.5776 C   0  0  0  0  0  0  0  0  0  0  0  0
   32.7039   31.9736   -8.0288 S   0  0  0  0  0  0  0  0  0  0  0  0
   32.4435   31.1083    1.0445 C   0  0  0  0  0  0  0  0  0  0  0  0
   34.6210   20.9726    1.9907 C   0  0  0  0  0  0  0  0  0  0  0  0
  5  3  2  0
  7  6  1  0
 10  4  1  0
 12  4  2  0
 13  2  2  0
 13 11  1  0
 13 12  1  0
 14  3  1  0
 14  8  1  0
 17  5  1  0
 19  6  2  0
 19  8  1  0
  9 20  1  6
 20 18  1  0
 22 20  1  0
 22 21  2  3
 23  1  2  0
 23  9  1  0
 24  2  1  0
 24  4  1  0
 25 10  2  0
 26  7  1  0
 26 20  1  0
 27 21  1  0
 28  1  1  0
 29  7  2  0
 29  8  1  0
 30 20  1  0
 32 11  1  0
 32 16  2  0
 32 29  1  0
 33  9  1  0
 33 28  1  0
 34 14  1  0
 34 17  2  0
 35 10  1  0
 35 15  2  3
 35 31  1  0
M  END
>  <ID>  (1) 
conformer_0

$$$$
