
     RDKit          3D

 36 42  0  0  0  0  0  0  0  0999 V2000
   32.9101   30.3436    2.4381 C   0  0  0  0  0  0  0  0  0  0  0  0
   32.4447   25.2273   -0.8410 C   0  0  0  0  0  0  0  0  0  0  0  0
   32.8709   29.7469   -8.5607 C   0  0  0  0  0  0  0  0  0  0  0  0
   32.5498   24.0772   -0.1579 C   0  0  0  0  0  0  0  0  0  0  0  0
   32.5631   30.7721    1.2878 C   0  0  0  0  0  0  0  0  0  0  0  0
   31.9014   31.3142   -1.3172 N   0  0  0  0  0  0  0  0  0  0  0  0
   32.7168   30.1860   -0.2299 C   0  0  0  0  0  0  0  0  0  0  0  0
   31.8085   30.5253   -7.5786 C   0  0  0  0  0  0  0  0  0  0  0  0
   32.7210   27.2119   -3.6913 O   0  0  0  0  0  0  0  0  0  0  0  0
   34.4502   20.9280    2.5290 C   0  0  0  0  0  0  0  0  0  0  0  0
   33.3239   27.7262   -1.6186 N   0  0  0  0  0  0  0  0  0  0  0  0
   34.6677   25.3328   -1.0515 C   0  0  0  0  0  0  0  0  0  0  0  0
   31.2911   31.4005   -5.9507 N   0  0  0  0  0  0  0  0  0  0  0  0
   33.2165   29.3608    0.3590 C   0  0  0  0  0  3  0  0  0  0  0  0
   35.0842   21.5307    1.4914 O   0  0  0  0  0  0  0  0  0  0  0  0
   32.9411   27.4659   -2.2956 C   0  0  0  0  0  0  0  0  0  0  0  0
   31.4696   31.8688   -5.2414 C   0  0  0  0  0  0  0  0  0  0  0  0
   32.5772   32.1248   -8.2837 S   0  0  0  0  0  0  0  0  0  0  0  0
   33.4190   25.9451   -1.2656 C   0  0  0  0  0  0  0  0  0  0  0  0
   31.9767   31.5887   -2.9525 C   0  0  0  0  0  0  0  0  0  0  0  0
   30.1345   29.3715   -7.0510 O   0  0  0  0  0  1  0  0  0  0  0  0
   32.2172   29.9674   -3.1656 C   0  0  0  0  0  0  0  0  0  0  0  0
   35.0883   24.0872   -0.5772 C   0  0  0  0  0  0  0  0  0  0  0  0
   32.7845   30.1611   -1.6027 N   0  0  0  0  0  0  0  0  0  0  0  0
   31.8874   33.0978   -4.2941 C   0  0  0  0  0  0  0  0  0  0  0  0
   33.7215   29.1725    2.6291 C   0  0  0  0  0  0  0  0  0  0  0  0
   33.5136   30.4465   -9.6483 C   0  0  0  0  0  0  0  0  0  0  0  0
   32.2508   30.2917   -4.3746 C   0  0  0  0  0  0  0  0  0  0  0  0
   33.2751   31.5476   -8.8330 C   0  0  0  0  0  0  0  0  0  0  0  0
   34.5036   22.0265    0.5985 C   0  0  0  0  0  0  0  0  0  0  0  0
   30.8250   30.2392   -6.8962 S   0  0  0  0  0  3  0  0  0  0  0  0
   32.6132   29.6647   -2.2843 C   0  0  0  0  0  3  0  0  0  0  0  0
   33.8755   23.3795   -0.1446 C   0  0  0  0  0  0  0  0  0  0  0  0
   34.8376   21.0301   -0.3323 O   0  0  0  0  0  0  0  0  0  0  0  0
   33.9806   28.5223    1.3539 C   0  0  0  0  0  0  0  0  0  0  0  0
   32.7134   29.1242   -4.0996 C   0  0  0  0  0  0  0  0  0  0  0  0
  4  2  2  0
  5  1  2  0
  7  5  1  0
  7  6  1  0
  8  3  1  0
 13  8  1  0
 14  7  1  0
 15 10  1  0
 16  9  1  0
 16 11  1  0
 17 13  1  0
 18  8  1  0
 19  2  1  0
 19 11  1  0
 19 12  2  0
 20  6  1  0
 22 20  1  0
 23 12  1  0
 24  6  1  0
 24  7  1  0
 25 17  1  0
 26  1  1  0
 27  3  1  0
 28 17  1  0
 28 22  1  0
 29  3  1  0
 29 18  1  0
 29 27  1  0
 30 15  1  0
 31  8  1  0
 31 21  1  0
 32 22  1  0
 32 24  1  0
 33  4  1  0
 33 23  2  0
 33 30  1  0
 34 30  2  0
 35 14  2  0
 35 26  1  0
 36  9  1  0
 36 22  1  0
 36 28  1  0
M  RAD  4  14   2  21   2  31   2  32   2
M  END
>  <ID>  (1) 
conformer_0

$$$$
