
     RDKit          3D

 33 37  0  0  0  0  0  0  0  0999 V2000
   34.7385   24.2972   -0.3599 C   0  0  0  0  0  0  0  0  0  0  0  0
   33.6845   29.1974    2.2202 C   0  0  0  0  0  0  0  0  0  0  0  0
   32.9870   29.7678   -8.3831 C   0  0  0  0  0  0  0  0  0  0  0  0
   33.4806   29.1066    0.8351 C   0  0  0  0  0  0  0  0  0  0  0  0
   32.4166   25.2853   -0.6837 C   0  0  0  0  0  0  0  0  0  0  0  0
   32.6263   30.1498   -1.6756 N   0  0  0  0  0  0  0  0  0  0  0  0
   32.0845   30.9299   -7.7033 C   0  0  0  0  0  0  0  0  0  0  0  0
   32.1652   32.0713   -8.3540 S   0  0  0  0  0  0  0  0  0  0  0  0
   34.4149   20.8596    2.3729 C   0  0  0  0  0  0  0  0  0  0  0  0
   33.2126   27.4540   -3.5742 O   0  0  0  0  0  0  0  0  0  0  0  0
   32.2097   31.3950   -1.8084 N   0  0  0  0  0  2  0  0  0  0  0  0
   31.9242   31.3346   -3.3505 C   0  0  0  0  0  0  0  0  0  0  0  0
   33.3876   26.1804   -1.2256 C   0  0  0  0  0  0  0  0  0  0  0  0
   31.8118   29.7286   -3.5565 C   0  0  0  0  0  0  0  0  0  0  0  0
   32.9100   30.4602    2.4471 C   0  0  0  0  0  0  0  0  0  0  0  0
   32.8216   30.2329   -0.0608 C   0  0  0  0  0  0  0  0  0  0  0  0
   30.3946   29.2139   -6.7799 O   0  0  0  0  0  1  0  0  0  0  0  0
   34.8154   25.5792   -0.7903 C   0  0  0  0  0  0  0  0  0  0  0  0
   32.9561   28.2923   -2.6186 C   0  0  0  0  0  0  0  0  0  0  0  0
   33.0524   27.5411   -1.3977 N   0  0  0  0  0  0  0  0  0  0  0  0
   34.7275   21.3906   -0.3328 O   0  0  0  0  0  0  0  0  0  0  0  0
   30.6411   30.4278   -6.5303 S   0  0  0  0  0  4  0  0  0  0  0  0
   31.8615   32.7860   -4.5583 C   0  0  0  0  0  0  0  0  0  0  0  0
   35.4329   21.9621    1.9467 O   0  0  0  0  0  0  0  0  0  0  0  0
   31.4022   31.2112   -4.9267 C   0  0  0  0  0  0  0  0  0  0  0  0
   33.6762   31.5134   -9.1726 C   0  0  0  0  0  0  0  0  0  0  0  0
   32.5019   30.9451    1.1956 C   0  0  0  0  0  0  0  0  0  0  0  0
   33.0057   24.1061   -0.1988 C   0  0  0  0  0  0  0  0  0  0  0  0
   33.7587   30.2867   -9.5736 C   0  0  0  0  0  0  0  0  0  0  0  0
   34.4609   22.0828    0.6741 C   0  0  0  0  0  0  0  0  0  0  0  0
   30.7867   31.0585   -5.3972 N   0  0  0  0  0  0  0  0  0  0  0  0
   32.3566   29.3869   -2.4097 C   0  0  0  0  0  0  0  0  0  0  0  0
   29.6538   30.8588   -6.9571 O   0  0  0  0  0  1  0  0  0  0  0  0
  4  2  2  0
  7  3  2  0
  8  7  1  0
 11  6  1  0
 12 11  1  0
 13  5  2  0
 14 12  1  0
 15  2  1  0
 16  4  1  0
 16  6  1  0
 18  1  2  0
 18 13  1  0
 19 10  2  0
 20 13  1  0
 20 19  1  0
 22  7  1  0
 22 17  1  0
 23 12  1  0
 24  9  1  0
 25 12  1  0
 25 23  1  0
 26  8  1  0
 27 15  1  0
 27 16  2  0
 28  1  1  0
 28  5  1  0
 29  3  1  0
 29 26  1  0
 30  1  1  0
 30 21  1  0
 30 24  1  0
 31 22  1  0
 31 25  1  0
 32  6  1  0
 32 14  2  0
 32 19  1  0
 33 22  1  0
M  RAD  3  11   2  17   2  33   2
M  END
>  <ID>  (1) 
conformer_0

$$$$
