
     RDKit          3D

 31 33  0  0  0  0  0  0  0  0999 V2000
   33.6536   30.3655   -9.2050 C   0  0  0  0  0  0  0  0  0  0  0  0
   33.6333   29.1877    2.2355 C   0  0  0  0  0  0  0  0  0  0  0  0
   32.1117   25.3005   -0.8776 C   0  0  0  0  0  0  0  0  0  0  0  0
   34.5787   24.3223   -0.4949 C   0  0  0  0  0  0  0  0  0  0  0  0
   32.8598   30.5259    2.3348 C   0  0  0  0  0  0  0  0  0  0  0  0
   31.8887   30.6617   -7.7419 C   0  0  0  0  0  0  0  0  0  0  0  0
   32.1658   31.6122   -2.8181 C   0  0  0  0  0  0  0  0  0  0  0  0
   32.4917   30.2904   -1.4494 N   0  0  0  0  0  0  0  0  0  0  0  0
   32.9583   27.8949   -3.8518 O   0  0  0  0  0  0  0  0  0  0  0  0
   32.9681   27.7391   -1.4805 N   0  0  0  0  0  0  0  0  0  0  0  0
   31.8298   30.3504   -3.4165 C   0  0  0  0  0  0  0  0  0  0  0  0
   33.1214   26.2538   -1.1768 C   0  0  0  0  0  0  0  0  0  0  0  0
   32.0910   31.4903   -1.5248 N   0  0  0  0  0  0  0  0  0  0  0  0
   31.1424   31.4168   -5.7050 N   0  0  0  0  0  0  0  0  0  0  0  0
   32.6983   30.0155   -0.0588 C   0  0  0  0  0  0  0  0  0  0  0  0
   34.4165   21.4550   -0.0355 O   0  0  0  0  0  0  0  0  0  0  0  0
   34.4454   21.3619    1.7847 C   0  0  0  0  0  0  0  0  0  0  0  0
   34.5706   25.6216   -0.8255 C   0  0  0  0  0  0  0  0  0  0  0  0
   32.5041   30.9351    1.0748 C   0  0  0  0  0  0  0  0  0  0  0  0
   31.4125   31.9174   -5.0760 C   0  0  0  0  0  0  0  0  0  0  0  0
   32.9505   29.6907   -8.2443 C   0  0  0  0  0  0  0  0  0  0  0  0
   31.8829   32.7113   -4.0550 C   0  0  0  0  0  0  0  0  0  0  0  0
   29.9843   30.0174   -7.0330 O   0  0  0  0  0  1  0  0  0  0  0  0
   33.6698   31.6194   -8.7616 C   0  0  0  0  0  0  0  0  0  0  0  0
   31.2777   31.0350   -7.4604 S   0  0  0  0  0  3  0  0  0  0  0  0
   33.8499   32.8102   -8.4906 F   0  0  0  0  0  0  0  0  0  0  0  0
   32.6538   28.4431   -3.1644 C   0  0  0  0  0  0  0  0  0  0  0  0
   34.7451   21.3550    2.3592 F   0  0  0  0  0  0  0  0  0  0  0  0
   32.4549   29.4832   -2.3343 C   0  0  0  0  0  0  0  0  0  0  0  0
   32.7555   24.1633   -0.3921 C   0  0  0  0  0  0  0  0  0  0  0  0
   33.4511   29.0009    0.8644 C   0  0  0  0  0  0  0  0  0  0  0  0
  5  2  2  0
 11  7  1  0
 12  3  2  0
 12 10  1  0
 13  7  2  0
 13  8  1  0
 14  6  1  0
 15  8  1  0
 16  4  1  0
 17 16  1  0
 18  4  2  0
 18 12  1  0
 19  5  1  0
 19 15  2  0
 20 14  1  0
 21  1  1  0
 21  6  1  0
 22  7  1  0
 22 20  1  0
 24  1  1  0
 25  6  1  0
 25 23  1  0
 26 24  1  0
 27  9  2  0
 27 10  1  0
 28 17  1  0
 29  8  1  0
 29 11  2  0
 29 27  1  0
 30  3  1  0
 30  4  1  0
 31  2  1  0
 31 15  1  0
M  RAD  2  23   2  25   2
M  END
>  <ID>  (1) 
conformer_0

$$$$
