
     RDKit          3D

 35 37  0  0  0  0  0  0  0  0999 V2000
   32.5828   24.9488   -0.6927 C   0  0  0  0  0  0  0  0  0  0  0  0
   33.4865   28.9143    0.8358 C   0  0  0  0  0  0  0  0  0  0  0  0
   33.5818   29.2433    2.1585 C   0  0  0  0  0  0  0  0  0  0  0  0
   31.3870   31.4994   -3.0268 C   0  0  2  0  0  0  0  0  0  0  0  0
   33.3341   23.7251   -0.3238 C   0  0  0  0  0  0  0  0  0  0  0  0
   32.8145   29.8583   -8.1144 C   0  0  0  0  0  0  0  0  0  0  0  0
   31.8147   31.0719   -8.0560 C   0  0  1  0  0  0  0  0  0  0  0  0
   34.8642   20.9475    2.0744 C   0  0  0  0  0  0  0  0  0  0  0  0
   32.8269   29.8446   -0.1985 C   0  0  0  0  0  0  0  0  0  0  0  0
   32.5994   30.1947   -1.4606 N   0  0  0  0  0  0  0  0  0  0  0  0
   33.4207   26.1823   -1.0345 C   0  0  1  0  0  0  0  0  0  0  0  0
   35.6437   21.2781   -0.4435 O   0  0  0  0  0  0  0  0  0  0  0  0
   34.9731   23.9870   -0.5314 C   0  0  0  0  0  0  0  0  0  0  0  0
   33.0662   27.7132   -3.6306 O   0  0  0  0  0  0  0  0  0  0  0  0
   33.1133   27.2765   -1.1985 N   0  0  0  0  0  0  0  0  0  0  0  0
   31.4501   33.4041   -4.7182 C   0  0  0  0  0  0  0  0  0  0  0  0
   32.5869   31.0828    0.9589 C   0  0  0  0  0  0  0  0  0  0  0  0
   30.1118   29.7771   -5.7981 O   0  0  0  0  0  1  0  0  0  0  0  0
   31.1415   32.1567   -5.2997 C   0  0  1  0  0  0  0  0  0  0  0  0
   30.4952   30.7502   -6.4113 S   0  0  0  0  0  4  0  0  0  0  0  0
   31.6139   31.8042   -1.6453 N   0  0  0  0  0  0  0  0  0  0  0  0
   32.9431   28.5059   -2.6962 C   0  0  0  0  0  0  0  0  0  0  0  0
   31.6206   29.9852   -2.9758 C   0  0  0  0  0  0  0  0  0  0  0  0
   33.4127   31.2042   -9.2042 C   0  0  0  0  0  0  0  0  0  0  0  0
   34.8202   22.0282    0.1974 C   0  0  0  0  0  0  0  0  0  0  0  0
   29.7375   30.8632   -7.5605 O   0  0  0  0  0  1  0  0  0  0  0  0
   31.0125   31.4666   -5.6495 N   0  0  0  0  0  0  0  0  0  0  0  0
   34.9198   25.3389   -0.7792 C   0  0  0  0  0  0  0  0  0  0  0  0
   32.1526   30.0557   -2.3415 C   0  0  1  0  0  0  0  0  0  0  0  0
   32.0808   31.7258   -8.4892 S   0  0  0  0  0  0  0  0  0  0  0  0
   34.5404   20.0758    2.7894 C   0  0  0  0  0  0  0  0  0  0  0  0
   35.2266   21.9317    1.9357 O   0  0  0  0  0  0  0  0  0  0  0  0
   33.5170   30.2469   -9.5191 C   0  0  0  0  0  0  0  0  0  0  0  0
   32.9544   30.6682    2.1862 C   0  0  0  0  0  0  0  0  0  0  0  0
   33.7500   21.2875    0.1724 O   0  0  0  0  0  0  0  0  0  0  0  0
  3  2  2  0
  5  1  2  0
  7  6  1  0
  9  2  1  0
 10  9  1  0
 11  1  1  0
 13  5  1  0
 11 15  1  1
 17  9  1  0
 19  4  1  0
 19 16  1  6
  7 20  1  1
 20 18  1  0
  4 21  1  6
 22 14  2  0
 22 15  1  0
 23  4  1  0
 25 12  1  0
 25 13  1  0
 26 20  1  0
 27 19  1  0
 27 20  1  0
 28 11  1  0
 28 13  2  0
 29 10  1  0
 29 22  1  0
 29 23  1  1
 30  7  1  0
 30 24  1  0
 31  8  2  3
 32  8  1  0
 32 25  1  0
 33  6  1  0
 33 24  1  0
 34  3  1  0
 34 17  2  0
 35 25  1  0
M  RAD  2  18   2  26   2
M  END
>  <ID>  (1) 
conformer_0

$$$$
