
     RDKit          3D

 36 38  0  0  0  0  0  0  0  0999 V2000
   33.6949   29.1756    2.1120 C   0  0  0  0  0  0  0  0  0  0  0  0
   32.2711   25.1751   -0.6653 C   0  0  0  0  0  0  0  0  0  0  0  0
   35.1228   24.1320   -0.5488 C   0  0  0  0  0  0  0  0  0  0  0  0
   33.3031   30.0252   -9.7535 C   0  0  0  0  0  0  0  0  0  0  0  0
   32.9148   30.5067    2.3842 C   0  0  0  0  0  0  0  0  0  0  0  0
   32.0451   29.2851   -3.0091 C   0  0  0  0  0  0  0  0  0  0  0  0
   34.8049   22.2160    0.2326 C   0  0  0  0  0  0  0  0  0  0  0  0
   32.4053   30.6609   -1.5483 N   0  0  0  0  0  0  0  0  0  0  0  0
   34.2933   20.5270    3.0313 C   0  0  0  0  0  0  0  0  0  0  0  0
   31.8953   30.7605   -7.8503 C   0  0  2  0  0  0  0  0  0  0  0  0
   32.8261   30.3599   -0.0127 C   0  0  0  0  0  0  0  0  0  0  0  0
   33.1269   27.4825   -1.3808 N   0  0  0  0  0  0  0  0  0  0  0  0
   32.9635   27.4434   -3.6313 O   0  0  0  0  0  0  0  0  0  0  0  0
   33.3237   25.9028   -1.1112 C   0  0  0  0  0  0  0  0  0  0  0  0
   34.7247   25.4069   -0.9038 C   0  0  0  0  0  0  0  0  0  0  0  0
   32.5290   31.1415    1.1734 C   0  0  0  0  0  0  0  0  0  0  0  0
   31.5787   31.6623   -3.0110 C   0  0  1  0  0  0  0  0  0  0  0  0
   32.6638   31.9678   -8.6637 S   0  0  0  0  0  0  0  0  0  0  0  0
   32.7242   28.1356   -2.8790 C   0  0  0  0  0  0  0  0  0  0  0  0
   30.2777   29.2769   -6.6882 O   0  0  0  0  0  1  0  0  0  0  0  0
   30.6157   30.6449   -6.5883 S   0  0  0  0  0  4  0  0  0  0  0  0
   34.7108   21.1175    0.0578 O   0  0  0  0  0  0  0  0  0  0  0  0
   31.5244   31.0481   -4.8625 C   0  0  0  0  0  0  0  0  0  0  0  0
   32.5708   24.0207   -0.1429 C   0  0  0  0  0  0  0  0  0  0  0  0
   33.4932   30.9066   -9.5578 C   0  0  0  0  0  0  0  0  0  0  0  0
   31.2556   31.0054   -5.8219 N   0  0  0  0  0  0  0  0  0  0  0  0
   31.6623   32.9910   -4.0369 C   0  0  0  0  0  0  0  0  0  0  0  0
   33.5728   29.2412    0.7482 C   0  0  0  0  0  0  0  0  0  0  0  0
   31.6443   31.5634   -1.3843 N   0  0  0  0  0  0  0  0  0  0  0  0
   32.8465   29.7242   -8.3529 C   0  0  0  0  0  0  0  0  0  0  0  0
   32.4483   29.6325   -2.0236 C   0  0  0  0  0  0  0  0  0  0  0  0
   31.1693   30.9292   -3.6597 C   0  0  0  0  0  0  0  0  0  0  0  0
   29.7903   31.1779   -7.3888 O   0  0  0  0  0  1  0  0  0  0  0  0
   34.5918   21.0890    1.8966 C   0  0  0  0  0  0  0  0  0  0  0  0
   35.1476   21.7773    1.6030 F   0  0  0  0  0  0  0  0  0  0  0  0
   33.9307   23.4128   -0.1639 C   0  0  0  0  0  0  0  0  0  0  0  0
  5  1  2  0
 11  8  1  0
 14  2  2  0
 14 12  1  0
 15  3  2  0
 15 14  1  0
 16  5  1  0
 16 11  2  0
 18 10  1  0
 19  6  1  0
 19 12  1  0
 19 13  2  0
 10 21  1  1
 21 20  1  0
 22  7  1  0
 24  2  1  0
 25  4  1  0
 25 18  1  0
 26 21  1  0
 26 23  1  0
 17 27  1  1
 28  1  1  0
 28 11  1  0
 29  8  1  0
 29 17  1  0
 30  4  1  0
 30 10  1  0
 31  6  2  3
 31  8  1  0
 32 17  1  0
 32 23  1  0
 33 21  1  0
 34  9  2  3
 34 22  1  0
 35 34  1  0
 36  3  1  0
 36  7  1  0
 36 24  2  0
M  RAD  2  20   2  33   2
M  END
>  <ID>  (1) 
conformer_0

$$$$
