
     RDKit          3D

 28 29  0  0  0  0  0  0  0  0999 V2000
   33.4966   29.1927    0.7358 C   0  0  0  0  0  0  0  0  0  0  0  0
   34.5413   24.0495   -0.4031 C   0  0  0  0  0  0  0  0  0  0  0  0
   33.3243   29.9893   -9.0604 C   0  0  0  0  0  0  0  0  0  0  0  0
   33.7860   29.2780    2.1174 C   0  0  0  0  0  0  0  0  0  0  0  0
   32.9391   23.9305   -0.3857 C   0  0  0  0  0  0  0  0  0  0  0  0
   32.2954   25.1513   -0.8428 C   0  0  0  0  0  0  0  0  0  0  0  0
   33.1658   27.3640   -3.6310 O   0  0  0  0  0  0  0  0  0  0  0  0
   32.0973   30.6985   -2.8853 C   0  0  0  0  0  0  0  0  0  0  0  0
   34.4912   21.6108    0.7697 C   0  0  0  0  0  0  0  0  0  0  0  0
   32.1441   30.5588   -7.7442 C   0  0  1  0  0  0  0  0  0  0  0  0
   30.9790   31.1502   -5.6027 N   0  0  0  0  0  0  0  0  0  0  0  0
   32.5867   29.8731   -1.4142 N   0  0  0  0  0  0  0  0  0  0  0  0
   32.9370   30.4938    2.4073 C   0  0  0  0  0  0  0  0  0  0  0  0
   33.3112   26.1793   -1.2071 C   0  0  0  0  0  0  0  0  0  0  0  0
   31.3829   31.4753   -5.0556 C   0  0  2  0  0  0  0  0  0  0  0  0
   32.1288   29.7204   -2.9849 C   0  0  1  0  0  0  0  0  0  0  0  0
   32.5879   32.0219   -8.5990 S   0  0  0  0  0  0  0  0  0  0  0  0
   29.9394   30.2318   -7.3045 O   0  0  0  0  0  1  0  0  0  0  0  0
   32.8295   27.9680   -2.7133 C   0  0  0  0  0  0  0  0  0  0  0  0
   31.5965   33.2369   -4.4815 C   0  0  0  0  0  0  0  0  0  0  0  0
   32.7485   29.9204   -0.7356 C   0  0  0  0  0  0  0  0  0  0  0  0
   34.1785   21.0825    1.0646 F   0  0  0  0  0  0  0  0  0  0  0  0
   35.0226   21.9703    0.2055 O   0  0  0  0  0  0  0  0  0  0  0  0
   30.5909   30.7163   -6.9944 S   0  0  0  0  0  3  0  0  0  0  0  0
   34.6748   25.3717   -0.7014 C   0  0  0  0  0  0  0  0  0  0  0  0
   32.4632   30.9761    1.1424 C   0  0  0  0  0  0  0  0  0  0  0  0
   32.2942   29.6575   -4.4540 C   0  0  0  0  0  0  0  0  0  0  0  0
   33.5817   31.3507   -9.2719 C   0  0  0  0  0  0  0  0  0  0  0  0
  4  1  1  0
  5  2  2  0
  6  5  1  0
 10  3  1  0
 13  4  2  3
 14  6  2  0
 15 10  1  0
 15 11  1  0
 16  8  1  1
 16 12  1  0
 10 17  1  6
 19  7  2  0
 19 14  1  0
 19 16  1  0
 15 20  1  1
 21  1  2  3
 21 12  1  0
 22  9  1  0
 23  2  1  0
 23  9  1  0
 24 11  1  0
 24 18  1  0
 25  2  1  0
 25 14  1  0
 26 13  1  0
 27 15  1  0
 27 16  1  0
 28  3  2  0
 28 17  1  0
M  RAD  2  18   2  24   2
M  END
>  <ID>  (1) 
conformer_0

$$$$
