
     RDKit          3D

 30 33  0  0  0  0  0  0  0  0999 V2000
   32.5931   24.8094   -0.6242 C   0  0  0  0  0  0  0  0  0  0  0  0
   32.8129   31.4291    1.5195 C   0  0  0  0  0  0  0  0  0  0  0  0
   32.6795   29.8264   -8.0457 C   0  0  0  0  0  0  0  0  0  0  0  0
   34.9294   23.9270   -0.4454 C   0  0  0  0  0  0  0  0  0  0  0  0
   33.3379   30.4899    2.4881 C   0  0  0  0  0  0  0  0  0  0  0  0
   31.8251   31.4551   -3.1975 C   0  0  0  0  0  0  0  0  0  0  0  0
   31.6620   33.3648   -4.5054 C   0  0  0  0  0  0  0  0  0  0  0  0
   31.6551   30.9825   -7.5293 C   0  0  0  0  0  0  0  0  0  0  0  0
   32.0307   31.4609   -1.3466 N   0  0  0  0  0  0  0  0  0  0  0  0
   32.9377   27.2655   -3.4765 O   0  0  0  0  0  0  0  0  0  0  0  0
   34.8906   25.2379   -0.7994 C   0  0  0  0  0  0  0  0  0  0  0  0
   31.6071   30.1174   -3.6046 C   0  0  0  0  0  0  0  0  0  0  0  0
   32.6624   30.7223   -0.1044 C   0  0  0  0  0  0  0  0  0  0  0  0
   32.7946   28.0148   -1.8241 C   0  0  0  0  0  0  0  0  0  0  0  0
   32.4835   32.2371   -8.4142 S   0  0  0  0  0  0  0  0  0  0  0  0
   34.8600   22.0802    0.2017 C   0  0  0  0  0  0  0  0  0  0  0  0
   33.6450   29.0834    1.8779 C   0  0  0  0  0  0  0  0  0  0  0  0
   33.4110   25.8517   -1.0747 C   0  0  0  0  0  0  0  0  0  0  0  0
   33.1361   27.3332   -1.2678 N   0  0  0  0  0  0  0  0  0  0  0  0
   32.4622   29.7744   -1.6351 N   0  0  0  0  0  0  0  0  0  0  0  0
   29.6878   30.1452   -7.0168 O   0  0  0  0  0  1  0  0  0  0  0  0
   35.5524   21.5932    0.0756 O   0  0  0  0  0  0  0  0  0  0  0  0
   31.4928   31.2863   -5.1553 C   0  0  0  0  0  0  0  0  0  0  0  0
   33.5655   30.3266   -9.0892 C   0  0  0  0  0  0  0  0  0  0  0  0
   30.4142   30.7379   -6.6592 S   0  0  0  0  0  3  0  0  0  0  0  0
   33.3861   23.6097   -0.2114 C   0  0  0  0  0  0  0  0  0  0  0  0
   33.3302   31.6483   -8.8275 C   0  0  0  0  0  0  0  0  0  0  0  0
   34.6220   20.7555    2.5080 C   0  0  0  0  0  0  0  0  0  0  0  0
   33.1741   29.4382    0.6082 C   0  0  0  0  0  0  0  0  0  0  0  0
   32.3240   29.6830   -2.4809 C   0  0  0  0  0  0  0  0  0  0  0  0
  5  2  2  0
  8  3  1  0
  9  6  2  0
 11  4  2  0
 12  6  1  0
 13  2  1  0
 13  9  1  0
 14 10  2  0
 15  8  1  0
 16  4  1  0
 17  5  1  0
 18  1  2  0
 18 11  1  0
 19 14  1  0
 19 18  1  0
 20 13  1  0
 20 14  1  0
 22 16  1  0
 23  7  1  0
 23  8  1  0
 23 12  1  0
 24  3  1  0
 25  8  1  0
 25 21  1  0
 26  1  1  0
 26  4  1  0
 27 15  1  0
 27 24  1  0
 28 16  1  0
 29 13  1  0
 29 17  2  0
 30 12  2  0
 30 20  1  0
M  RAD  2  21   2  25   2
M  END
>  <ID>  (1) 
conformer_0

$$$$
