
     RDKit          3D

 32 38  0  0  0  0  0  0  0  0999 V2000
   33.4775   29.2631    0.7086 C   0  0  0  0  0  0  0  0  0  0  0  0
   32.3524   25.1518   -0.6507 C   0  0  0  0  0  0  0  0  0  0  0  0
   33.0664   29.7853   -8.3867 C   0  0  0  0  0  0  0  0  0  0  0  0
   33.1261   23.8843   -0.2605 C   0  0  0  0  0  0  0  0  0  0  0  0
   33.7643   29.1987    2.0436 C   0  0  0  0  0  0  0  0  0  0  0  0
   31.8268   30.8410   -7.6541 C   0  0  0  0  0  0  0  0  0  0  0  0
   32.3586   29.3217   -2.5283 C   0  0  0  0  0  0  0  0  0  0  0  0
   31.3638   30.3793   -3.4120 C   0  0  0  0  0  0  0  0  0  0  0  0
   33.2956   26.1319   -1.2440 C   0  0  0  0  0  0  0  0  0  0  0  0
   34.7386   25.3538   -0.8156 C   0  0  0  0  0  0  0  0  0  0  0  0
   34.4916   22.1744    0.3029 C   0  0  0  0  0  0  0  0  0  0  0  0
   32.7582   30.4454   -0.1075 C   0  0  0  0  0  0  0  0  0  0  0  0
   31.8915   31.5213   -1.3691 N   0  0  0  0  0  0  0  0  0  0  0  0
   32.4312   30.3123   -1.6290 N   0  0  0  0  0  0  0  0  0  0  0  0
   33.1362   27.5763   -1.5396 N   0  0  0  0  0  0  0  0  0  0  0  0
   32.7889   27.4288   -3.7518 O   0  0  0  0  0  0  0  0  0  0  0  0
   30.2936   29.4036   -6.4865 O   0  0  0  0  0  1  0  0  0  0  0  0
   32.4815   31.2368    1.3223 C   0  0  0  0  0  0  0  0  0  0  0  0
   30.5516   30.6500   -6.4580 S   0  0  0  0  0  4  0  0  0  0  0  0
   31.6137   32.7900   -3.9749 C   0  0  0  0  0  0  0  0  0  0  0  0
   33.7148   30.4288   -9.5004 C   0  0  0  0  0  0  0  0  0  0  0  0
   32.6928   28.0700   -2.8028 C   0  0  0  0  0  0  0  0  0  0  0  0
   31.0229   31.4734   -4.8911 C   0  0  0  0  0  0  0  0  0  0  0  0
   34.7109   24.0539   -0.4593 C   0  0  0  0  0  0  0  0  0  0  0  0
   32.2408   31.9364   -8.2976 S   0  0  0  0  0  0  0  0  0  0  0  0
   31.6598   31.3553   -2.7990 C   0  0  0  0  0  0  0  0  0  0  0  0
   34.6113   21.3571    0.1645 O   0  0  0  0  0  0  0  0  0  0  0  0
   32.9339   31.6662   -8.9281 C   0  0  0  0  0  0  0  0  0  0  0  0
   32.9675   30.4478    2.4752 C   0  0  0  0  0  0  0  0  0  0  0  0
   34.6426   21.2435    1.2129 F   0  0  0  0  0  0  0  0  0  0  0  0
   34.5883   20.9176    2.2350 C   0  0  0  0  0  0  0  0  0  0  0  0
   29.7154   31.1139   -7.2633 O   0  0  0  0  0  1  0  0  0  0  0  0
  4  2  2  0
  5  1  2  0
  6  3  2  0
  8  7  1  0
  9  2  1  0
 10  9  1  0
 12  1  1  0
 13 12  1  0
 14  7  1  0
 14 12  1  0
 14 13  1  0
 15  9  1  0
 18 12  1  0
 19  6  1  0
 19 17  1  0
 21  3  1  0
 22  7  1  0
 22 15  1  0
 22 16  2  0
 23  8  1  0
 23 19  1  0
 23 20  1  0
 24  4  1  0
 24 10  2  0
 24 11  1  0
 25  6  1  0
 26  8  2  0
 26 13  1  0
 26 20  1  0
 27 11  1  0
 28  3  1  0
 28 21  2  0
 28 25  1  0
 29  5  1  0
 29 18  2  0
 31 27  1  0
 31 30  1  0
 32 19  1  0
M  RAD  2  17   2  32   2
M  END
>  <ID>  (1) 
conformer_0

$$$$
