
     RDKit          3D

 35 38  0  0  0  0  0  0  0  0999 V2000
   34.3985   25.7895   -1.1346 C   0  0  0  0  0  0  0  0  0  0  0  0
   33.7315   29.0964    0.9126 C   0  0  0  0  0  0  0  0  0  0  0  0
   33.7604   29.2370    2.2577 C   0  0  0  0  0  0  0  0  0  0  0  0
   34.9551   24.6006   -0.6699 C   0  0  0  0  0  0  0  0  0  0  0  0
   33.7033   30.1999   -9.5681 C   0  0  0  0  0  0  0  0  0  0  0  0
   34.5581   22.3399    0.2273 C   0  0  0  0  0  0  0  0  0  0  0  0
   32.1613   30.8218   -7.7116 C   0  0  0  0  0  0  0  0  0  0  0  0
   32.5866   30.4579   -1.5755 N   0  0  0  0  0  0  0  0  0  0  0  0
   32.8635   27.4651   -3.9243 O   0  0  0  0  0  0  0  0  0  0  0  0
   32.6520   32.1265   -8.5799 S   0  0  0  0  0  0  0  0  0  0  0  0
   31.8464   29.9818   -3.3706 C   0  0  0  0  0  0  0  0  0  0  0  0
   32.8112   27.6994   -2.5719 C   0  0  0  0  0  0  0  0  0  0  0  0
   32.1369   25.2584   -0.7285 C   0  0  0  0  0  0  0  0  0  0  0  0
   32.1637   31.7492   -3.1069 C   0  0  0  0  0  0  0  0  0  0  0  0
   32.9801   26.0531   -1.3964 C   0  0  0  0  0  0  0  0  0  0  0  0
   31.2806   31.4007   -5.5540 N   0  0  0  0  0  0  0  0  0  0  0  0
   32.9189   30.2973    0.0652 C   0  0  0  0  0  0  0  0  0  0  0  0
   32.4864   31.0198    1.1631 C   0  0  0  0  0  0  0  0  0  0  0  0
   32.5003   27.0473   -1.8961 N   0  0  0  0  0  0  0  0  0  0  0  0
   30.0860   29.5363   -6.0186 O   0  0  0  0  0  1  0  0  0  0  0  0
   31.5084   32.0443   -5.0151 C   0  0  0  0  0  0  0  0  0  0  0  0
   32.5399   31.5211   -1.6735 N   0  0  0  0  0  0  0  0  0  0  0  0
   31.8831   33.2066   -4.3114 C   0  0  0  0  0  0  0  0  0  0  0  0
   34.7539   21.6209    1.0586 O   0  0  0  0  0  0  0  0  0  0  0  0
   32.6054   24.1389   -0.2509 C   0  0  0  0  0  0  0  0  0  0  0  0
   30.7587   30.4595   -6.3189 S   0  0  0  0  0  4  0  0  0  0  0  0
   33.6867   31.1882   -9.2091 C   0  0  0  0  0  0  0  0  0  0  0  0
   30.0891   31.2272   -7.3886 O   0  0  0  0  0  1  0  0  0  0  0  0
   32.9634   29.5727   -8.3157 C   0  0  0  0  0  0  0  0  0  0  0  0
   34.5291   21.0044    1.8192 C   0  0  0  0  0  0  0  0  0  0  0  0
   32.9007   30.4772    2.3912 C   0  0  0  0  0  0  0  0  0  0  0  0
   32.2839   29.6076   -2.3957 C   0  0  0  0  0  0  0  0  0  0  0  0
   31.7838   29.0974   -4.1813 C   0  0  0  0  0  0  0  0  0  0  0  0
   33.8823   21.2785    0.7902 F   0  0  0  0  0  0  0  0  0  0  0  0
   34.0583   23.7040   -0.2882 C   0  0  0  0  0  0  0  0  0  0  0  0
  3  2  2  0
  4  1  2  0
 10  7  1  0
 12  9  2  0
 14 11  1  0
 15  1  1  0
 15 13  2  0
 17  2  1  0
 17  8  1  0
 18 17  1  0
 19 12  1  0
 19 15  1  0
 21 16  1  0
 22  8  1  0
 22 14  2  0
 23 14  1  0
 23 21  1  0
 25 13  1  0
 26  7  1  0
 26 16  1  0
 26 20  1  0
 27  5  1  0
 27 10  1  0
 28 26  1  0
 29  5  1  0
 29  7  2  0
 30  6  1  0
 30 24  1  0
 31  3  1  0
 31 18  2  0
 32  8  1  0
 32 11  2  0
 32 12  1  0
 33 11  1  0
 34 24  1  0
 35  4  1  0
 35  6  1  0
 35 25  2  0
M  RAD  2  20   2  28   2
M  END
>  <ID>  (1) 
conformer_0

$$$$
