
     RDKit          3D

 32 36  0  0  0  0  0  0  0  0999 V2000
   33.6213   29.0858    0.8540 C   0  0  0  0  0  0  0  0  0  0  0  0
   33.1165   29.5340   -8.5681 C   0  0  0  0  0  0  0  0  0  0  0  0
   34.5846   24.0229   -0.3956 C   0  0  0  0  0  0  0  0  0  0  0  0
   32.9981   23.9921   -0.1588 C   0  0  0  0  0  0  0  0  0  0  0  0
   33.7660   29.2474    2.2391 C   0  0  0  0  0  0  0  0  0  0  0  0
   32.5207   30.0060   -1.4570 N   0  0  0  0  0  0  0  0  0  0  0  0
   31.0061   31.0370   -5.7198 N   0  0  0  0  0  0  0  0  0  0  0  0
   32.0607   30.3318   -2.6657 C   0  0  0  0  0  0  0  0  0  0  0  0
   32.6544   31.8944   -8.4223 S   0  0  0  0  0  0  0  0  0  0  0  0
   34.5086   22.3122    0.2602 C   0  0  0  0  0  0  0  0  0  0  0  0
   32.7550   30.0601   -0.0914 C   0  0  0  0  0  0  0  0  0  0  0  0
   32.1059   30.4271   -7.6901 C   0  0  0  0  0  0  0  0  0  0  0  0
   31.5309   31.2237   -4.8792 C   0  0  0  0  0  0  0  0  0  0  0  0
   33.3533   26.1675   -1.2487 C   0  0  0  0  0  0  0  0  0  0  0  0
   34.5054   21.3186    0.0738 O   0  0  0  0  0  0  0  0  0  0  0  0
   32.3850   25.1610   -0.5707 C   0  0  0  0  0  0  0  0  0  0  0  0
   33.0187   27.6682   -3.7821 O   0  0  0  0  0  0  0  0  0  0  0  0
   33.1967   27.3995   -1.4498 N   0  0  0  0  0  0  0  0  0  0  0  0
   31.4651   30.0930   -3.2003 C   0  0  0  0  0  0  0  0  0  0  0  0
   34.1805   20.6073    3.0309 C   0  0  0  0  0  0  0  0  0  0  0  0
   29.9515   29.6317   -7.2927 O   0  0  0  0  0  1  0  0  0  0  0  0
   32.3890   30.9619    1.2570 C   0  0  0  0  0  0  0  0  0  0  0  0
   32.0860   31.2702   -1.3242 N   0  0  0  0  0  0  0  0  0  0  0  0
   32.9334   28.2095   -2.5787 C   0  0  0  0  0  0  0  0  0  0  0  0
   33.7847   30.3043   -9.5609 C   0  0  0  0  0  0  0  0  0  0  0  0
   30.7827   30.8760   -7.1492 S   0  0  0  0  0  4  0  0  0  0  0  0
   31.6417   32.8118   -4.1659 C   0  0  0  0  0  0  0  0  0  0  0  0
   34.7933   25.2812   -0.8382 C   0  0  0  0  0  0  0  0  0  0  0  0
   30.1480   31.7774   -7.9195 O   0  0  0  0  0  1  0  0  0  0  0  0
   33.6679   31.2741   -9.0235 C   0  0  0  0  0  0  0  0  0  0  0  0
   34.4741   21.0205    1.9991 C   0  0  0  0  0  0  0  0  0  0  0  0
   32.8515   30.4228    2.4624 C   0  0  0  0  0  0  0  0  0  0  0  0
  4  3  2  0
  5  1  2  0
  8  6  1  0
 10  3  1  0
 11  1  1  0
 11  6  1  0
 12  2  1  0
 12  9  1  0
 13  7  1  0
 15 10  1  0
 16  4  1  0
 16 14  2  0
 18 14  1  0
 19  8  1  0
 19 13  1  0
 22 11  1  0
 23  6  1  0
 23  8  1  0
 23 11  1  0
 24  8  1  0
 24 17  2  0
 24 18  1  0
 25  2  1  0
 26  7  1  0
 26 12  1  0
 26 21  1  0
 27 13  1  0
 28  3  1  0
 28 14  1  0
 29 26  1  0
 30  9  1  0
 30 25  1  0
 31 15  1  0
 31 20  3  0
 32  5  1  0
 32 22  2  0
M  RAD  2  21   2  29   2
M  END
>  <ID>  (1) 
conformer_0

$$$$
