
     RDKit          3D

 31 35  0  0  0  0  0  0  0  0999 V2000
   34.6625   25.2077   -0.8396 C   0  0  0  0  0  0  0  0  0  0  0  0
   32.9237   30.5048    2.2808 C   0  0  0  0  0  0  0  0  0  0  0  0
   33.0718   29.8301   -8.6028 C   0  0  0  0  0  0  0  0  0  0  0  0
   34.5255   23.9144   -0.3938 C   0  0  0  0  0  0  0  0  0  0  0  0
   33.6313   29.2221    1.9598 C   0  0  0  0  0  0  0  0  0  0  0  0
   31.5072   30.4798   -3.4744 C   0  0  0  0  0  0  0  0  0  0  0  0
   32.5718   29.2834   -2.4958 C   0  0  0  0  0  0  0  0  0  0  0  0
   32.1726   30.6632   -7.7964 C   0  0  0  0  0  0  0  0  0  0  0  0
   34.5562   21.6703    1.2383 C   0  0  0  0  0  0  0  0  0  0  0  0
   33.0157   27.4303   -3.5157 O   0  0  0  0  0  0  0  0  0  0  0  0
   32.9112   32.2429   -8.3137 S   0  0  0  0  0  0  0  0  0  0  0  0
   32.6410   30.4071   -0.0351 C   0  0  0  0  0  0  0  0  0  0  0  0
   33.2162   25.9166   -1.1831 C   0  0  0  0  0  0  0  0  0  0  0  0
   32.4024   30.2743   -1.5070 N   0  0  0  0  0  0  0  0  0  0  0  0
   32.1872   25.0041   -0.7261 C   0  0  0  0  0  0  0  0  0  0  0  0
   32.4201   31.2954    1.2440 C   0  0  0  0  0  0  0  0  0  0  0  0
   34.3702   20.8056    3.1620 C   0  0  0  0  0  0  0  0  0  0  0  0
   32.9485   27.3877   -1.3945 N   0  0  0  0  0  0  0  0  0  0  0  0
   30.6202   30.7659   -6.6423 S   0  0  0  0  0  4  0  0  0  0  0  0
   29.9391   29.7495   -6.6004 O   0  0  0  0  0  1  0  0  0  0  0  0
   31.1534   31.5851   -4.6914 C   0  0  0  0  0  0  0  0  0  0  0  0
   34.4586   21.5492    0.7488 O   0  0  0  0  0  0  0  0  0  0  0  0
   31.1136   31.3854   -5.5768 N   0  0  0  0  0  0  0  0  0  0  0  0
   32.3233   31.3449   -1.4231 N   0  0  0  0  0  0  0  0  0  0  0  0
   32.8098   27.9544   -2.5824 C   0  0  0  0  0  0  0  0  0  0  0  0
   33.9362   31.6868   -8.8706 C   0  0  0  0  0  0  0  0  0  0  0  0
   30.1406   31.7741   -7.5921 O   0  0  0  0  0  1  0  0  0  0  0  0
   33.9202   30.5973   -9.4455 C   0  0  0  0  0  0  0  0  0  0  0  0
   32.9719   23.8508   -0.2498 C   0  0  0  0  0  0  0  0  0  0  0  0
   33.3620   29.1956    0.6626 C   0  0  0  0  0  0  0  0  0  0  0  0
   31.8008   31.1673   -2.4875 C   0  0  0  0  0  0  0  0  0  0  0  0
  4  1  2  0
  5  2  2  0
  7  6  1  0
  8  3  2  0
  9  4  1  0
 11  8  1  0
 13  1  1  0
 14  7  1  0
 15 13  1  0
 16  2  1  0
 16 12  1  0
 17  9  1  0
 18 13  1  0
 19  8  1  0
 20 19  1  0
 21  6  1  0
 22  9  2  0
 23 19  1  0
 23 21  1  0
 24 12  1  0
 24 14  1  0
 25  7  1  0
 25 10  2  0
 25 18  1  0
 26 11  1  0
 27 19  1  0
 28  3  1  0
 28 26  1  0
 29  4  1  0
 29 15  2  0
 30  5  1  0
 30 12  2  0
 31  6  1  0
 31 14  1  0
 31 24  1  0
M  RAD  2  20   2  27   2
M  END
>  <ID>  (1) 
conformer_0

$$$$
