
     RDKit          3D

 37 40  0  0  0  0  0  0  0  0999 V2000
   34.6625   25.7473   -0.8087 C   0  0  0  0  0  0  0  0  0  0  0  0
   32.6636   24.0856   -0.2997 C   0  0  0  0  0  0  0  0  0  0  0  0
   32.6513   30.9464    2.0976 C   0  0  0  0  0  0  0  0  0  0  0  0
   33.8315   28.7859    1.6665 C   0  0  0  0  0  0  0  0  0  0  0  0
   33.7235   30.1586   -9.2827 C   0  0  0  0  0  0  0  0  0  0  0  0
   32.0822   31.7048   -3.1498 C   0  0  0  0  0  0  0  0  0  0  0  0
   32.6834   30.1578   -1.6601 N   0  0  0  0  0  0  0  0  0  0  0  0
   34.6393   22.2548    0.2246 C   0  0  0  0  0  0  0  0  0  0  0  0
   32.8177   27.3832   -3.8251 O   0  0  0  0  0  0  0  0  0  0  0  0
   32.7611   28.0254   -2.7241 C   0  0  0  0  0  0  0  0  0  0  0  0
   32.3085   31.7529   -8.8179 S   0  0  0  0  0  0  0  0  0  0  0  0
   32.3911   25.3112   -0.9133 C   0  0  0  0  0  0  0  0  0  0  0  0
   32.1548   30.4895   -7.5904 C   0  0  1  0  0  0  0  0  0  0  0  0
   34.3177   21.3256    0.0571 O   0  0  0  0  0  0  0  0  0  0  0  0
   32.5347   31.1849    0.8022 C   0  0  0  0  0  0  0  0  0  0  0  0
   30.7186   31.6498   -5.7923 N   0  0  0  0  0  0  0  0  0  0  0  0
   33.3729   26.0106   -1.2625 C   0  0  0  0  0  0  0  0  0  0  0  0
   31.7936   33.1307   -4.6231 C   0  0  0  0  0  0  0  0  0  0  0  0
   30.9010   32.8677   -5.5878 C   0  0  0  0  0  0  0  0  0  0  0  0
   32.7965   30.2637   -0.2596 C   0  0  0  0  0  0  0  0  0  0  0  0
   29.9173   29.6389   -6.9913 O   0  0  0  0  0  1  0  0  0  0  0  0
   31.7067   30.4712   -3.4846 C   0  0  0  0  0  0  0  0  0  0  0  0
   32.2731   31.4437   -1.7959 N   0  0  0  0  0  0  0  0  0  0  0  0
   34.5016   20.6733    3.3229 C   0  0  0  0  0  0  0  0  0  0  0  0
   33.2316   27.2046   -1.6333 N   0  0  0  0  0  0  0  0  0  0  0  0
   35.1005   24.5032   -0.3957 C   0  0  0  0  0  0  0  0  0  0  0  0
   33.3524   29.2398    0.4413 C   0  0  0  0  0  0  0  0  0  0  0  0
   30.7077   30.8381   -7.0779 S   0  0  0  0  0  4  0  0  0  0  0  0
   34.6865   20.9939    2.0436 C   0  0  0  0  0  0  0  0  0  0  0  0
   32.2913   29.7611   -2.6993 C   0  0  0  0  0  0  0  0  0  0  0  0
   33.4440   31.2258   -9.2364 C   0  0  0  0  0  0  0  0  0  0  0  0
   33.1265   29.5116   -8.1404 C   0  0  0  0  0  0  0  0  0  0  0  0
   29.9990   31.6634   -7.8751 O   0  0  0  0  0  1  0  0  0  0  0  0
   31.4610   30.7732   -5.0985 C   0  0  0  0  0  0  0  0  0  0  0  0
   33.3183   29.7382    2.5514 C   0  0  0  0  0  0  0  0  0  0  0  0
   34.0360   23.5774   -0.2214 C   0  0  0  0  0  0  0  0  0  0  0  0
   35.2826   21.4924    2.1487 F   0  0  0  0  0  0  0  0  0  0  0  0
 10  9  2  0
 12  2  2  0
 13 11  1  0
 14  8  1  0
 15  3  2  0
 17  1  2  0
 17 12  1  0
 19 16  1  0
 19 18  1  0
 20  7  1  0
 20 15  1  0
 22  6  1  0
 23  6  2  0
 23  7  1  0
 25 10  1  0
 25 17  1  0
 26  1  1  0
 27  4  1  0
 27 20  2  0
 13 28  1  6
 28 16  1  0
 28 21  1  0
 29 14  1  0
 29 24  2  3
 30  7  1  0
 30 10  1  0
 30 22  2  0
 31  5  1  0
 31 11  1  0
 32  5  2  0
 32 13  1  0
 33 28  1  0
 34 16  1  0
 34 22  1  0
 35  3  1  0
 35  4  2  0
 36  2  1  0
 36  8  1  0
 36 26  2  0
 37 29  1  0
M  RAD  2  21   2  33   2
M  END
>  <ID>  (1) 
conformer_0

$$$$
