
     RDKit          3D

 30 33  0  0  0  0  0  0  0  0999 V2000
   34.7906   23.8397   -0.3868 C   0  0  0  0  0  0  0  0  0  0  0  0
   33.2206   29.9335    2.2151 C   0  0  0  0  0  0  0  0  0  0  0  0
   33.6535   30.7895   -9.2493 C   0  0  0  0  0  0  0  0  0  0  0  0
   33.3536   23.4851   -0.1827 C   0  0  0  0  0  0  0  0  0  0  0  0
   31.8450   31.1573   -7.5765 C   0  0  0  0  0  0  0  0  0  0  0  0
   33.4422   28.9878    1.3467 C   0  0  0  0  0  0  0  0  0  0  0  0
   34.7377   21.5851    0.8569 C   0  0  0  0  0  0  0  0  0  0  0  0
   32.5269   30.1241   -1.4324 N   0  0  0  0  0  0  0  0  0  0  0  0
   32.5211   29.1469   -2.1440 C   0  0  0  0  0  0  0  0  0  0  0  0
   32.4483   24.6652   -0.5055 C   0  0  0  0  0  0  0  0  0  0  0  0
   32.2436   31.5286   -1.4922 N   0  0  0  0  0  0  0  0  0  0  0  0
   31.8851   30.1368   -3.4250 C   0  0  0  0  0  0  0  0  0  0  0  0
   33.2118   25.9080   -0.9477 C   0  0  0  0  0  0  0  0  0  0  0  0
   33.0047   27.4794   -0.9880 N   0  0  0  0  0  0  0  0  0  0  0  0
   32.0750   32.0063   -4.3066 C   0  0  0  0  0  0  0  0  0  0  0  0
   32.7013   27.3693   -3.2422 O   0  0  0  0  0  0  0  0  0  0  0  0
   32.8108   30.0810    0.0563 C   0  0  0  0  0  0  0  0  0  0  0  0
   32.7138   29.9409   -8.5817 C   0  0  0  0  0  0  0  0  0  0  0  0
   32.6926   31.0872    1.4461 C   0  0  0  0  0  0  0  0  0  0  0  0
   29.7408   29.9457   -6.4167 O   0  0  0  0  0  1  0  0  0  0  0  0
   35.0178   21.0104   -0.5836 O   0  0  0  0  0  0  0  0  0  0  0  0
   31.5149   31.0905   -5.0250 C   0  0  0  0  0  0  0  0  0  0  0  0
   35.2500   21.1611    2.1895 F   0  0  0  0  0  0  0  0  0  0  0  0
   30.4947   30.5064   -6.4247 S   0  0  0  0  0  3  0  0  0  0  0  0
   34.6930   25.2218   -0.7515 C   0  0  0  0  0  0  0  0  0  0  0  0
   32.9153   33.1203   -7.9460 F   0  0  0  0  0  0  0  0  0  0  0  0
   33.0230   32.0392   -8.4267 C   0  0  0  0  0  0  0  0  0  0  0  0
   32.2345   31.3370   -2.8321 C   0  0  0  0  0  0  0  0  0  0  0  0
   32.6391   27.8975   -2.6044 C   0  0  0  0  0  0  0  0  0  0  0  0
   33.8796   21.0762    1.1551 F   0  0  0  0  0  0  0  0  0  0  0  0
  4  1  2  0
  6  2  2  0
  7  1  1  0
  9  8  1  0
 10  4  1  0
 11  8  1  0
 12  9  2  0
 13 10  2  0
 14 13  1  0
 15  5  1  0
 17  6  1  0
 17  8  1  0
 18  3  1  0
 18  5  1  0
 19  2  1  0
 19 17  2  0
 21  7  1  0
 22 12  1  0
 23  7  1  0
 24 20  1  0
 24 22  1  0
 25  1  1  0
 25 13  1  0
 27  3  2  0
 27  5  1  0
 27 26  1  0
 28 11  2  0
 28 12  1  0
 28 15  1  0
 29  9  1  0
 29 14  1  0
 29 16  2  0
 30  7  1  0
M  RAD  2  20   2  24   2
M  END
>  <ID>  (1) 
conformer_0

$$$$
