
     RDKit          3D

 36 39  0  0  0  0  0  0  0  0999 V2000
   34.4577   25.6269   -0.9182 C   0  0  0  0  0  0  0  0  0  0  0  0
   33.5733   29.1924    0.7071 C   0  0  0  0  0  0  0  0  0  0  0  0
   34.8829   24.3833   -0.5184 C   0  0  0  0  0  0  0  0  0  0  0  0
   33.7154   30.4305   -9.5424 C   0  0  0  0  0  0  0  0  0  0  0  0
   33.7377   28.9920    1.9458 C   0  0  0  0  0  0  0  0  0  0  0  0
   31.5683   31.0712   -3.5830 C   0  0  0  0  0  0  0  0  0  0  0  0
   34.7940   22.1927    0.2170 C   0  0  0  0  0  0  0  0  0  0  0  0
   30.9256   30.8856   -5.8219 N   0  0  0  0  0  0  0  0  0  0  0  0
   32.3001   25.4462   -0.8008 C   0  0  0  0  0  0  0  0  0  0  0  0
   32.3584   32.1696   -8.7376 S   0  0  0  0  0  0  0  0  0  0  0  0
   31.8750   30.8570   -8.1370 C   0  0  2  0  0  0  0  0  0  0  0  0
   32.4183   30.5233   -1.5740 N   0  0  0  0  0  0  0  0  0  0  0  0
   32.0143   31.8382   -2.9204 C   0  0  0  0  0  0  0  0  0  0  0  0
   32.8341   27.3291   -3.5763 O   0  0  0  0  0  0  0  0  0  0  0  0
   31.8061   33.2570   -4.1553 C   0  0  0  0  0  0  0  0  0  0  0  0
   33.0780   27.7873   -1.5591 N   0  0  0  0  0  0  0  0  0  0  0  0
   32.7767   30.5405    0.0159 C   0  0  0  0  0  0  0  0  0  0  0  0
   32.0359   31.6481   -1.2927 N   0  0  0  0  0  0  0  0  0  0  0  0
   32.9298   30.2908    2.3526 C   0  0  0  0  0  0  0  0  0  0  0  0
   36.0418   21.4379    0.2413 O   0  0  0  0  0  0  0  0  0  0  0  0
   32.7192   27.8723   -2.6249 C   0  0  0  0  0  0  0  0  0  0  0  0
   29.7833   29.9204   -7.2564 O   0  0  0  0  0  1  0  0  0  0  0  0
   31.1586   30.6036   -4.9204 C   0  0  0  0  0  0  0  0  0  0  0  0
   34.3318   20.3759    2.8599 C   0  0  0  0  0  0  0  0  0  0  0  0
   32.3514   24.2684   -0.2680 C   0  0  0  0  0  0  0  0  0  0  0  0
   33.2929   26.1451   -1.1873 C   0  0  0  0  0  0  0  0  0  0  0  0
   30.5654   30.9204   -7.3872 S   0  0  0  0  0  4  0  0  0  0  0  0
   34.7084   21.0123    1.9818 C   0  0  0  0  0  0  0  0  0  0  0  0
   33.7255   31.5441   -9.1479 C   0  0  0  0  0  0  0  0  0  0  0  0
   29.9794   32.0480   -7.8434 O   0  0  0  0  0  1  0  0  0  0  0  0
   34.0492   21.5147    0.3518 O   0  0  0  0  0  0  0  0  0  0  0  0
   32.2997   29.6886   -2.2968 C   0  0  0  0  0  0  0  0  0  0  0  0
   32.4693   31.1230    1.2771 C   0  0  0  0  0  0  0  0  0  0  0  0
   32.8703   29.8652   -8.4193 C   0  0  0  0  0  0  0  0  0  0  0  0
   33.7258   23.6052   -0.1728 C   0  0  0  0  0  0  0  0  0  0  0  0
   31.9137   29.3339   -3.3522 C   0  0  0  0  0  0  0  0  0  0  0  0
  3  1  2  0
  5  2  2  0
 11 10  1  0
 13  6  2  0
 15 13  1  0
 17  2  1  0
 17 12  1  0
 18 12  1  0
 18 13  1  0
 19  5  1  0
 20  7  2  0
 21 14  2  0
 21 16  1  0
 23  6  1  0
 23  8  1  0
 25  9  1  0
 26  1  1  0
 26  9  2  0
 26 16  1  0
 27  8  1  0
 11 27  1  1
 27 22  1  0
 28 24  2  3
 29  4  1  0
 29 10  1  0
 30 27  1  0
 31  7  1  0
 31 28  1  0
 32 12  1  0
 33 17  1  0
 33 19  2  0
 34  4  1  0
 34 11  1  0
 35  3  1  0
 35  7  1  0
 35 25  2  0
 36  6  1  0
 36 21  1  0
 36 32  2  0
M  RAD  2  22   2  30   2
M  END
>  <ID>  (1) 
conformer_0

$$$$
