
     RDKit          3D

 36 40  0  0  0  0  0  0  0  0999 V2000
   32.6359   24.0120   -0.2190 C   0  0  0  0  0  0  0  0  0  0  0  0
   33.6187   29.4758    2.5618 C   0  0  0  0  0  0  0  0  0  0  0  0
   32.4549   31.1974    1.1951 C   0  0  0  0  0  0  0  0  0  0  0  0
   32.2548   25.2104   -0.6941 C   0  0  0  0  0  0  0  0  0  0  0  0
   33.4014   30.1053   -9.5269 C   0  0  0  0  0  0  0  0  0  0  0  0
   32.1042   31.2643   -3.1874 C   0  0  0  0  0  0  0  0  0  0  0  0
   32.1044   30.7416   -7.7722 C   0  0  0  0  0  0  0  0  0  0  0  0
   32.5837   30.2901   -1.7698 N   0  0  0  0  0  0  0  0  0  0  0  0
   32.1962   31.5430   -1.6970 N   0  0  0  0  0  0  0  0  0  0  0  0
   33.7649   28.9260    1.2175 C   0  0  0  0  0  0  0  0  0  0  0  0
   32.8229   27.5892   -1.4127 N   0  0  0  0  0  0  0  0  0  0  0  0
   33.1831   26.1185   -1.2564 C   0  0  0  0  0  0  0  0  0  0  0  0
   34.5476   25.7290   -0.8938 C   0  0  0  0  0  0  0  0  0  0  0  0
   32.7790   27.6281   -3.8621 O   0  0  0  0  0  0  0  0  0  0  0  0
   34.4428   22.3417    0.1126 C   0  0  0  0  0  0  0  0  0  0  0  0
   31.3581   32.2715   -5.9776 C   0  0  0  0  0  0  0  0  0  0  0  0
   33.0567   31.9174   -8.4773 S   0  0  0  0  0  0  0  0  0  0  0  0
   29.2039   30.9740   -7.0012 O   0  0  0  0  0  1  0  0  0  0  0  0
   35.1082   21.3915   -0.5021 O   0  0  0  0  0  0  0  0  0  0  0  0
   32.7993   30.7058    2.4597 C   0  0  0  0  0  0  0  0  0  0  0  0
   32.4516   29.1791   -2.6336 C   0  0  0  0  0  0  0  0  0  0  0  0
   30.4381   30.6769   -6.8446 S   0  0  0  0  0  4  0  0  0  0  0  0
   33.7583   30.9521   -9.2218 C   0  0  0  0  0  0  0  0  0  0  0  0
   31.0951   31.2963   -5.9007 N   0  0  0  0  0  0  0  0  0  0  0  0
   32.5128   27.9067   -2.8318 C   0  0  0  0  0  0  0  0  0  0  0  0
   35.0716   24.5338   -0.5660 C   0  0  0  0  0  0  0  0  0  0  0  0
   31.8720   29.9549   -3.4824 C   0  0  0  0  0  0  0  0  0  0  0  0
   32.5762   30.4087   -0.7082 C   0  0  0  0  0  0  0  0  0  0  0  0
   32.0393   31.3621   -4.7139 C   0  0  0  0  0  0  0  0  0  0  0  0
   34.0891   21.1429    1.1348 F   0  0  0  0  0  0  0  0  0  0  0  0
   32.9861   29.8612    0.4184 C   0  0  0  0  0  0  0  0  0  0  0  0
   32.6867   29.5707   -8.2256 C   0  0  0  0  0  0  0  0  0  0  0  0
   34.7301   20.7819    1.8103 C   0  0  0  0  0  0  0  0  0  0  0  0
   30.2190   29.3302   -6.8370 O   0  0  0  0  0  1  0  0  0  0  0  0
   32.1027   30.5486   -4.7943 C   0  0  0  0  0  0  0  0  0  0  0  0
   34.1399   23.6264   -0.2457 C   0  0  0  0  0  0  0  0  0  0  0  0
  4  1  2  0
  9  6  2  0
  9  8  1  0
 10  2  2  0
 12  4  1  0
 12 11  1  0
 13 12  2  0
 17  7  1  0
 19 15  1  0
 20  2  1  0
 20  3  1  0
 21  8  1  0
 22  7  1  0
 22 18  1  0
 23  5  1  0
 23 17  1  0
 24 16  1  0
 24 22  1  0
 25 11  1  0
 25 14  2  0
 25 21  1  0
 26 13  1  0
 27  6  1  0
 27 21  2  0
 28  8  1  0
 29  6  1  0
 29 24  1  0
 31  3  2  0
 31 10  1  0
 31 28  1  0
 32  5  1  0
 32  7  1  0
 33 15  1  0
 33 30  1  0
 34 22  1  0
 35 27  1  0
 35 29  1  0
 36  1  1  0
 36 15  1  0
 36 26  2  0
M  RAD  2  18   2  34   2
M  END
>  <ID>  (1) 
conformer_0

$$$$
