
     RDKit          3D

 35 38  0  0  0  0  0  0  0  0999 V2000
   34.7051   25.6459   -0.6815 C   0  0  0  0  0  0  0  0  0  0  0  0
   33.7655   28.9708    1.8845 C   0  0  0  0  0  0  0  0  0  0  0  0
   33.1130   30.0353    2.5653 C   0  0  0  0  0  0  0  0  0  0  0  0
   32.9572   29.5847   -8.0684 C   0  0  0  0  0  0  0  0  0  0  0  0
   35.0982   24.3511   -0.4272 C   0  0  0  0  0  0  0  0  0  0  0  0
   34.1554   23.4331   -0.1807 C   0  0  0  0  0  0  0  0  0  0  0  0
   31.5651   31.0056   -3.2709 C   0  0  0  0  0  0  0  0  0  0  0  0
   33.2165   27.5507   -1.3774 N   0  0  0  0  0  0  0  0  0  0  0  0
   32.3308   30.3791   -1.6547 N   0  0  0  0  0  0  0  0  0  0  0  0
   32.2880   30.4250   -7.6583 C   0  0  0  0  0  0  0  0  0  0  0  0
   33.3788   25.9998   -1.0988 C   0  0  0  0  0  0  0  0  0  0  0  0
   32.7327   30.1486   -0.2020 C   0  0  0  0  0  0  0  0  0  0  0  0
   32.8348   31.8221   -8.5293 S   0  0  0  0  0  0  0  0  0  0  0  0
   31.8126   31.2872   -1.9035 N   0  0  0  0  0  0  0  0  0  0  0  0
   32.0964   29.7395   -3.4998 C   0  0  0  0  0  0  0  0  0  0  0  0
   34.8601   22.1248    0.2462 C   0  0  0  0  0  0  0  0  0  0  0  0
   33.2999   29.2990    0.6005 C   0  0  0  0  0  0  0  0  0  0  0  0
   35.7567   21.2633   -0.5245 O   0  0  0  0  0  0  0  0  0  0  0  0
   30.0422   29.3120   -6.4000 O   0  0  0  0  0  1  0  0  0  0  0  0
   32.0511   29.0963   -4.7178 C   0  0  0  0  0  0  0  0  0  0  0  0
   31.0798   32.0568   -4.7361 C   0  0  0  0  0  0  0  0  0  0  0  0
   31.5679   33.3049   -4.3181 C   0  0  0  0  0  0  0  0  0  0  0  0
   32.9470   27.8432   -4.1472 O   0  0  0  0  0  0  0  0  0  0  0  0
   31.0017   30.2154   -6.7693 S   0  0  0  0  0  4  0  0  0  0  0  0
   32.5921   29.1619   -2.4078 C   0  0  0  0  0  0  0  0  0  0  0  0
   33.7977   31.2287   -9.1950 C   0  0  0  0  0  0  0  0  0  0  0  0
   32.3714   25.1757   -0.7467 C   0  0  0  0  0  0  0  0  0  0  0  0
   31.2777   31.0344   -5.7268 N   0  0  0  0  0  0  0  0  0  0  0  0
   34.4189   20.7788    2.3050 C   0  0  0  0  0  0  0  0  0  0  0  0
   32.5081   31.1752    1.9839 C   0  0  0  0  0  0  0  0  0  0  0  0
   32.4280   31.3066    0.5996 C   0  0  0  0  0  0  0  0  0  0  0  0
   33.6827   30.0943   -9.3263 C   0  0  0  0  0  0  0  0  0  0  0  0
   30.1832   30.7078   -7.7534 O   0  0  0  0  0  1  0  0  0  0  0  0
   32.7489   23.8372   -0.3031 C   0  0  0  0  0  0  0  0  0  0  0  0
   34.8807   21.5239    1.0178 O   0  0  0  0  0  0  0  0  0  0  0  0
  3  2  2  0
  5  1  2  0
  6  5  1  0
 10  4  1  0
 11  1  1  0
 11  8  1  0
 12  9  1  0
 13 10  1  0
 14  7  2  0
 14  9  1  0
 15  7  1  0
 16  6  1  0
 17  2  1  0
 17 12  2  0
 18 16  2  0
 20 15  1  0
 21  7  1  0
 22 21  1  0
 23 20  1  0
 24 10  1  0
 24 19  1  0
 25  8  1  0
 25  9  1  0
 25 15  2  0
 26 13  1  0
 27 11  2  0
 28 21  1  0
 28 24  1  0
 30  3  1  0
 31 12  1  0
 31 30  2  0
 32  4  1  0
 32 26  1  0
 33 24  1  0
 34  6  2  0
 34 27  1  0
 35 16  1  0
 35 29  1  0
M  RAD  2  19   2  33   2
M  END
>  <ID>  (1) 
conformer_0

$$$$
