
     RDKit          3D

 34 39  0  0  0  0  0  0  0  0999 V2000
   34.9297   23.7557   -0.4065 C   0  0  0  0  0  0  0  0  0  0  0  0
   33.6704   29.2992    2.4015 C   0  0  0  0  0  0  0  0  0  0  0  0
   33.4425   29.1545    1.0637 C   0  0  0  0  0  0  0  0  0  0  0  0
   32.5712   24.7588   -0.6737 C   0  0  0  0  0  0  0  0  0  0  0  0
   33.0803   29.5247   -8.5776 C   0  0  0  0  0  0  0  0  0  0  0  0
   34.8616   21.9791    0.3602 C   0  0  0  0  0  0  0  0  0  0  0  0
   31.6869   29.9654   -3.5919 C   0  0  0  0  0  3  0  0  0  0  0  0
   32.1743   30.6230   -8.0715 C   0  0  0  0  0  0  0  0  0  0  0  0
   32.4035   31.3353    1.6779 C   0  0  0  0  0  0  0  0  0  0  0  0
   32.3451   29.5515   -2.6334 C   0  0  0  0  0  0  0  0  0  0  0  0
   32.5223   30.2535   -1.7209 N   0  0  0  0  0  0  0  0  0  0  0  0
   33.1089   27.2799   -1.4283 N   0  0  0  0  0  0  0  0  0  0  0  0
   32.0365   31.5347   -1.6457 N   0  0  0  0  0  0  0  0  0  0  0  0
   31.0187   31.1104   -5.6944 N   0  0  0  0  0  0  0  0  0  0  0  0
   32.8337   27.3601   -3.6993 O   0  0  0  0  0  0  0  0  0  0  0  0
   34.8363   25.2053   -0.7219 C   0  0  0  0  0  0  0  0  0  0  0  0
   33.4297   25.8622   -1.1675 C   0  0  0  0  0  0  0  0  0  0  0  0
   32.7822   31.9616   -8.5408 S   0  0  0  0  0  0  0  0  0  0  0  0
   32.7197   28.0603   -2.6127 C   0  0  0  0  0  0  0  0  0  0  0  0
   31.1779   31.2671   -4.8826 C   0  0  0  0  0  0  0  0  0  0  0  0
   30.3656   29.1560   -7.2176 O   0  0  0  0  0  1  0  0  0  0  0  0
   32.9744   30.5055    2.7892 C   0  0  0  0  0  0  0  0  0  0  0  0
   33.6873   21.2258    0.8273 O   0  0  0  0  0  0  0  0  0  0  0  0
   31.7670   33.2462   -4.2350 C   0  0  0  0  0  0  0  0  0  0  0  0
   34.5296   20.8347    2.4122 C   0  0  0  0  0  0  0  0  0  0  0  0
   31.6866   31.6465   -3.1162 C   0  0  0  0  0  0  0  0  0  0  0  0
   30.8315   30.6707   -7.2307 S   0  0  0  0  0  4  0  0  0  0  0  0
   33.3756   23.5670   -0.3116 C   0  0  0  0  0  0  0  0  0  0  0  0
   33.6918   31.0612   -9.4793 C   0  0  0  0  0  0  0  0  0  0  0  0
   29.9576   31.1873   -7.8634 O   0  0  0  0  0  1  0  0  0  0  0  0
   32.7291   30.3992    0.6127 C   0  0  0  0  0  0  0  0  0  0  0  0
   35.3147   20.8421    2.0562 F   0  0  0  0  0  0  0  0  0  0  0  0
   33.6189   30.0255   -9.9863 C   0  0  0  0  0  0  0  0  0  0  0  0
   32.6004   30.5483   -0.5994 C   0  0  0  0  0  0  0  0  0  0  0  0
  3  2  2  0
  6  1  1  0
  8  5  1  0
 10  7  1  0
 11 10  1  0
 13 11  1  0
 16  1  2  0
 17  4  2  0
 17 12  1  0
 17 16  1  0
 18  8  1  0
 19 10  1  0
 19 12  1  0
 19 15  2  0
 20  7  1  0
 20 14  1  0
 22  2  1  0
 22  9  1  0
 23  6  1  0
 25 23  1  0
 26  7  1  0
 26 13  1  0
 26 20  1  0
 26 24  1  0
 27  8  1  0
 27 14  1  0
 27 21  1  0
 28  1  1  0
 28  4  1  0
 29 18  1  0
 30 27  1  0
 31  3  1  0
 31  9  2  0
 32 25  1  0
 33  5  1  0
 33 29  1  0
 34 11  1  0
 34 13  1  0
 34 31  1  0
M  RAD  3   7   2  21   2  30   2
M  END
>  <ID>  (1) 
conformer_0

$$$$
