
     RDKit          3D

 28 29  0  0  0  0  0  0  0  0999 V2000
   33.3983   23.6292   -0.2518 C   0  0  0  0  0  0  0  0  0  0  0  0
   33.3640   29.2750    0.5295 C   0  0  0  0  0  0  0  0  0  0  0  0
   32.6895   30.0844   -8.3738 C   0  0  0  0  0  0  0  0  0  0  0  0
   33.7999   29.0553    1.8931 C   0  0  0  0  0  0  0  0  0  0  0  0
   34.8502   23.9577   -0.4601 C   0  0  0  0  0  0  0  0  0  0  0  0
   31.6726   29.8709   -3.1683 C   0  0  0  0  0  0  0  0  0  0  0  0
   31.7528   31.0880   -7.5521 C   0  0  2  0  0  0  0  0  0  0  0  0
   30.6754   30.9074   -5.6018 N   0  0  0  0  0  0  0  0  0  0  0  0
   34.6922   21.6076    0.8689 C   0  0  0  0  0  0  0  0  0  0  0  0
   32.4328   24.8030   -0.5648 C   0  0  0  0  0  0  0  0  0  0  0  0
   32.5549   31.1120    1.3654 C   0  0  0  0  0  0  0  0  0  0  0  0
   33.2476   25.9555   -1.0892 C   0  0  0  0  0  0  0  0  0  0  0  0
   31.8857   30.8439   -2.9576 C   0  0  0  0  0  0  0  0  0  0  0  0
   31.9615   33.5570   -4.6650 C   0  0  0  0  0  0  0  0  0  0  0  0
   33.1529   27.4081   -1.1841 N   0  0  0  0  0  0  0  0  0  0  0  0
   32.9754   28.3666   -1.8624 C   0  0  0  0  0  0  0  0  0  0  0  0
   33.4577   30.5141   -9.3134 C   0  0  0  0  0  0  0  0  0  0  0  0
   31.4112   30.7090   -4.9363 C   0  0  1  0  0  0  0  0  0  0  0  0
   35.3386   21.2706   -0.0678 O   0  0  0  0  0  0  0  0  0  0  0  0
   32.7236   30.0494   -1.6122 N   0  0  0  0  0  0  0  0  0  0  0  0
   32.6192   30.2909   -0.6082 C   0  0  0  0  0  0  0  0  0  0  0  0
   32.7751   27.5575   -3.6314 O   0  0  0  0  0  0  0  0  0  0  0  0
   29.4218   30.3789   -6.8403 O   0  0  0  0  0  1  0  0  0  0  0  0
   33.1109   30.3042    2.4431 C   0  0  0  0  0  0  0  0  0  0  0  0
   34.7142   25.3302   -0.8040 C   0  0  0  0  0  0  0  0  0  0  0  0
   34.3362   20.3085    2.9058 C   0  0  0  0  0  0  0  0  0  0  0  0
   32.8882   31.9880   -8.7801 C   0  0  0  0  0  0  0  0  0  0  0  0
   30.4501   30.4259   -6.5568 S   0  0  0  0  0  3  0  0  0  0  0  0
  4  2  1  0
  5  1  2  0
  7  3  1  0
  9  5  1  0
 10  1  1  0
 12 10  1  0
 13  6  1  0
  7 14  1  1
 15 12  1  0
 16 15  1  0
 17  3  2  0
 18  6  1  6
 18  7  1  0
 18  8  1  0
 19  9  2  0
 20 13  1  0
 20 16  1  0
 21  2  2  3
 21 20  1  0
 22 16  2  0
 24  4  2  3
 24 11  1  0
 25  5  1  0
 25 12  2  0
 26  9  1  0
 27  7  1  0
 27 17  1  0
 28  8  1  0
 28 23  1  0
M  RAD  2  23   2  28   2
M  END
>  <ID>  (1) 
conformer_0

$$$$
