
     RDKit          3D

 32 35  0  0  0  0  0  0  0  0999 V2000
   34.7515   25.2261   -0.9102 C   0  0  0  0  0  0  0  0  0  0  0  0
   32.9768   29.7948   -8.4958 C   0  0  0  0  0  0  0  0  0  0  0  0
   33.5260   29.0593    0.8114 C   0  0  0  0  0  0  0  0  0  0  0  0
   34.7282   23.9357   -0.5131 C   0  0  0  0  0  0  0  0  0  0  0  0
   32.9541   30.4702    2.4621 C   0  0  0  0  0  0  0  0  0  0  0  0
   31.6135   29.5408   -3.3860 C   0  0  0  0  0  0  0  0  0  0  0  0
   32.5183   30.4474   -1.4920 N   0  0  0  0  0  0  0  0  0  0  0  0
   32.9948   27.4161   -3.4968 O   0  0  0  0  0  0  0  0  0  0  0  0
   31.9495   30.8592   -7.5406 C   0  0  0  0  0  0  0  0  0  0  0  0
   34.9668   22.0085    0.0978 C   0  0  0  0  0  0  0  0  0  0  0  0
   32.0144   31.7059   -3.0482 C   0  0  0  0  0  0  0  0  0  0  0  0
   33.0693   27.5043   -1.2139 N   0  0  0  0  0  0  0  0  0  0  0  0
   32.8632   30.2127    0.1372 C   0  0  0  0  0  0  0  0  0  0  0  0
   32.7769   32.2886   -8.3132 S   0  0  0  0  0  0  0  0  0  0  0  0
   32.3461   24.9399   -0.6881 C   0  0  0  0  0  0  0  0  0  0  0  0
   34.4270   21.5516    0.2676 O   0  0  0  0  0  0  0  0  0  0  0  0
   30.1059   29.5198   -6.7190 O   0  0  0  0  0  1  0  0  0  0  0  0
   33.3279   25.8937   -1.0537 C   0  0  0  0  0  0  0  0  0  0  0  0
   32.4235   31.4204   -1.5310 N   0  0  0  0  0  0  0  0  0  0  0  0
   32.5687   31.0873    1.2456 C   0  0  0  0  0  0  0  0  0  0  0  0
   31.3978   31.7814   -4.9935 C   0  0  0  0  0  0  0  0  0  0  0  0
   32.8104   27.8708   -2.2927 C   0  0  0  0  0  0  0  0  0  0  0  0
   30.6069   30.7187   -6.7310 S   0  0  0  0  0  4  0  0  0  0  0  0
   33.7972   30.4723   -9.3652 C   0  0  0  0  0  0  0  0  0  0  0  0
   33.0626   23.7830   -0.2585 C   0  0  0  0  0  0  0  0  0  0  0  0
   33.5902   31.5796   -8.9278 C   0  0  0  0  0  0  0  0  0  0  0  0
   32.3291   29.5684   -2.1893 C   0  0  0  0  0  0  0  0  0  0  0  0
   32.0286   33.7053   -4.1318 C   0  0  0  0  0  0  0  0  0  0  0  0
   34.6875   20.9607    1.7652 C   0  0  0  0  0  0  0  0  0  0  0  0
   33.6160   29.0408    2.1782 C   0  0  0  0  0  0  0  0  0  0  0  0
   29.7538   31.2012   -7.4430 O   0  0  0  0  0  1  0  0  0  0  0  0
   31.3581   31.1129   -3.7106 C   0  0  0  0  0  0  0  0  0  0  0  0
  4  1  2  0
  9  2  1  0
 10  4  1  0
 13  3  2  0
 13  7  1  0
 14  9  1  0
 16 10  1  0
 18  1  1  0
 18 12  1  0
 18 15  1  0
 19  7  1  0
 19 11  1  0
 20  5  2  0
 20 13  1  0
 22  8  2  0
 22 12  1  0
 23  9  1  0
 23 17  1  0
 23 21  1  0
 24  2  2  0
 25  4  1  0
 25 15  2  0
 26 14  1  0
 26 24  1  0
 27  6  2  0
 27  7  1  0
 27 22  1  0
 28 21  1  0
 29 16  1  0
 30  3  1  0
 30  5  1  0
 31 23  1  0
 32  6  1  0
 32 11  2  0
 32 21  1  0
M  RAD  2  17   2  31   2
M  END
>  <ID>  (1) 
conformer_0

$$$$
