
     RDKit          3D

 32 35  0  0  0  0  0  0  0  0999 V2000
   33.6749   30.3120   -9.3380 C   0  0  0  0  0  0  0  0  0  0  0  0
   32.8689   30.5313    2.3898 C   0  0  0  0  0  0  0  0  0  0  0  0
   33.0007   24.0050   -0.2830 C   0  0  0  0  0  0  0  0  0  0  0  0
   34.5716   24.1840   -0.4411 C   0  0  0  0  0  0  0  0  0  0  0  0
   33.4371   29.1582    0.7780 C   0  0  0  0  0  0  0  0  0  0  0  0
   31.8833   31.6146   -2.8777 C   0  0  0  0  0  0  0  0  0  0  0  0
   31.9716   30.9811   -7.6232 C   0  0  0  0  0  0  0  0  0  0  0  0
   34.5740   22.1471    0.2252 C   0  0  0  0  0  0  0  0  0  0  0  0
   33.1129   26.2159   -1.1240 C   0  0  0  0  0  0  0  0  0  0  0  0
   32.1185   25.1853   -0.6719 C   0  0  0  0  0  0  0  0  0  0  0  0
   33.0288   27.5704   -3.7743 O   0  0  0  0  0  0  0  0  0  0  0  0
   32.8123   30.4130   -0.2306 C   0  0  0  0  0  0  0  0  0  0  0  0
   32.1631   31.4766   -1.5824 N   0  0  0  0  0  0  0  0  0  0  0  0
   33.0324   27.8194   -1.3583 N   0  0  0  0  0  0  0  0  0  0  0  0
   30.9599   31.5606   -5.5693 N   0  0  0  0  0  0  0  0  0  0  0  0
   29.8990   30.0352   -7.0999 O   0  0  0  0  0  1  0  0  0  0  0  0
   32.8077   32.3419   -8.2177 S   0  0  0  0  0  0  0  0  0  0  0  0
   31.4416   31.8783   -4.9732 C   0  0  0  0  0  0  0  0  0  0  0  0
   32.5195   31.0777    1.1633 C   0  0  0  0  0  0  0  0  0  0  0  0
   30.6337   30.7023   -6.8657 S   0  0  0  0  0  3  0  0  0  0  0  0
   32.8623   28.2302   -2.8706 C   0  0  0  0  0  0  0  0  0  0  0  0
   33.8654   21.7022    0.1207 O   0  0  0  0  0  0  0  0  0  0  0  0
   33.5951   31.6806   -8.7986 C   0  0  0  0  0  0  0  0  0  0  0  0
   32.7957   29.8042   -8.3704 C   0  0  0  0  0  0  0  0  0  0  0  0
   31.9943   32.5341   -4.1042 C   0  0  0  0  0  0  0  0  0  0  0  0
   32.2355   30.3268   -1.4559 N   0  0  0  0  0  0  0  0  0  0  0  0
   34.6320   25.4942   -0.7407 C   0  0  0  0  0  0  0  0  0  0  0  0
   35.0803   21.1044    1.7080 F   0  0  0  0  0  0  0  0  0  0  0  0
   31.8194   30.2092   -3.2007 C   0  0  0  0  0  0  0  0  0  0  0  0
   33.5818   29.1212    2.1239 C   0  0  0  0  0  0  0  0  0  0  0  0
   34.6563   20.9109    1.7328 C   0  0  0  0  0  0  0  0  0  0  0  0
   32.3284   29.9282   -2.4538 C   0  0  0  0  0  0  0  0  0  0  0  0
  4  3  2  0
  8  4  1  0
 10  3  1  0
 10  9  1  0
 12  5  2  0
 13  6  2  0
 14  9  1  0
 15  7  1  0
 17  7  1  0
 18 15  1  0
 19  2  2  0
 19 12  1  0
 20  7  1  0
 20 16  1  0
 21 11  2  0
 21 14  1  0
 22  8  1  0
 23  1  1  0
 23 17  1  0
 24  1  1  0
 24  7  1  0
 25  6  1  0
 25 18  1  0
 26 12  1  0
 26 13  1  0
 27  4  1  0
 27  9  2  0
 29  6  1  0
 30  2  1  0
 30  5  1  0
 31  8  1  0
 31 28  1  0
 32 21  1  0
 32 26  1  0
 32 29  2  0
M  RAD  2  16   2  20   2
M  END
>  <ID>  (1) 
conformer_0

$$$$
