
     RDKit          3D

 31 34  0  0  0  0  0  0  0  0999 V2000
   35.0254   24.2482   -0.5055 C   0  0  0  0  0  0  0  0  0  0  0  0
   33.4490   29.0408    0.6799 C   0  0  0  0  0  0  0  0  0  0  0  0
   32.5083   24.0720   -0.0893 C   0  0  0  0  0  0  0  0  0  0  0  0
   33.0557   30.3210    2.4108 C   0  0  0  0  0  0  0  0  0  0  0  0
   33.0457   29.8654   -8.7338 C   0  0  0  0  0  0  0  0  0  0  0  0
   32.4559   30.6178   -1.6382 N   0  0  0  0  0  0  0  0  0  0  0  0
   31.9320   30.7447   -7.9486 C   0  0  2  0  0  0  0  0  0  0  0  0
   32.2965   25.2819   -0.5420 C   0  0  0  0  0  0  0  0  0  0  0  0
   32.8603   27.4625   -3.3826 O   0  0  0  0  0  0  0  0  0  0  0  0
   32.1335   31.2077   -3.2292 C   0  0  2  0  0  0  0  0  0  0  0  0
   34.4684   20.8837    1.9114 C   0  0  0  0  0  0  0  0  0  0  0  0
   33.0137   27.7010   -1.2392 N   0  0  0  0  0  0  0  0  0  0  0  0
   32.7203   32.0372   -8.4984 S   0  0  0  0  0  0  0  0  0  0  0  0
   32.6692   30.1340   -0.4953 C   0  0  0  0  0  0  0  0  0  0  0  0
   31.9228   30.0215   -3.5576 C   0  0  0  0  0  0  0  0  0  0  0  0
   32.5763   30.9701    1.2086 C   0  0  0  0  0  0  0  0  0  0  0  0
   29.9872   29.6138   -7.0515 O   0  0  0  0  0  1  0  0  0  0  0  0
   30.8346   31.1050   -5.9508 N   0  0  0  0  0  0  0  0  0  0  0  0
   31.4534   33.1853   -4.6327 C   0  0  0  0  0  0  0  0  0  0  0  0
   32.1190   31.7445   -1.9967 N   0  0  0  0  0  0  0  0  0  0  0  0
   33.2844   26.0472   -0.9947 C   0  0  0  0  0  0  0  0  0  0  0  0
   34.3884   21.1968    0.0858 O   0  0  0  0  0  0  0  0  0  0  0  0
   32.7871   28.1848   -2.6273 C   0  0  0  0  0  0  0  0  0  0  0  0
   34.2900   20.2222    2.7719 C   0  0  0  0  0  0  0  0  0  0  0  0
   30.6134   30.6699   -6.8292 S   0  0  0  0  0  3  0  0  0  0  0  0
   31.0166   31.4596   -5.1743 C   0  0  2  0  0  0  0  0  0  0  0  0
   33.8914   23.5050   -0.1123 C   0  0  0  0  0  0  0  0  0  0  0  0
   34.5599   25.5032   -0.7980 C   0  0  0  0  0  0  0  0  0  0  0  0
   33.6939   30.8515   -9.2826 C   0  0  0  0  0  0  0  0  0  0  0  0
   33.7101   28.9607    2.0185 C   0  0  0  0  0  0  0  0  0  0  0  0
   34.2953   22.1423    0.2192 C   0  0  0  0  0  0  0  0  0  0  0  0
  7  5  1  0
  8  3  2  0
 10  6  1  0
  7 13  1  1
 14  2  2  0
 14  6  1  0
 10 15  1  1
 16  4  2  0
 16 14  1  0
 20  6  1  0
 20 10  1  0
 21  8  1  0
 21 12  1  0
 22 11  1  0
 23  9  2  0
 23 12  1  0
 23 15  1  0
 24 11  2  3
 25 17  1  0
 25 18  1  0
 26  7  1  0
 26 10  1  0
 26 18  1  0
 26 19  1  6
 27  1  2  0
 27  3  1  0
 28  1  1  0
 28 21  2  0
 29  5  2  0
 29 13  1  0
 30  2  1  0
 30  4  1  0
 31 22  1  0
 31 27  1  0
M  RAD  2  17   2  25   2
M  END
>  <ID>  (1) 
conformer_0

$$$$
