
     RDKit          3D

 29 31  0  0  0  0  0  0  0  0999 V2000
   33.6488   28.8342    1.3111 C   0  0  0  0  0  0  0  0  0  0  0  0
   34.5499   25.6999   -0.8308 C   0  0  0  0  0  0  0  0  0  0  0  0
   34.6292   24.4091   -0.5150 C   0  0  0  0  0  0  0  0  0  0  0  0
   32.8426   29.7127   -8.4682 C   0  0  0  0  0  0  0  0  0  0  0  0
   33.3523   29.6775    2.3071 C   0  0  0  0  0  0  0  0  0  0  0  0
   32.8429   29.9971    0.2367 C   0  0  0  0  0  0  0  0  0  0  0  0
   32.0446   30.7687   -7.5067 C   0  0  0  0  0  0  0  0  0  0  0  0
   32.5845   29.9419   -1.3757 N   0  0  0  0  0  0  0  0  0  0  0  0
   34.7926   21.3607    1.2769 C   0  0  0  0  0  0  0  0  0  0  0  0
   32.9099   32.1711   -8.2116 S   0  0  0  0  0  0  0  0  0  0  0  0
   31.3237   30.2118   -3.3384 C   0  0  0  0  0  0  0  0  0  0  0  0
   31.7468   31.2599   -1.2703 N   0  0  0  0  0  0  0  0  0  0  0  0
   31.3098   31.0746   -2.7850 C   0  0  0  0  0  0  0  0  0  0  0  0
   33.1679   26.4701   -1.1255 C   0  0  0  0  0  0  0  0  0  0  0  0
   31.3388   31.6811   -4.8801 C   0  0  0  0  0  0  0  0  0  0  0  0
   35.1754   21.7395   -0.3581 O   0  0  0  0  0  0  0  0  0  0  0  0
   29.9872   29.9061   -6.6286 O   0  0  0  0  0  1  0  0  0  0  0  0
   31.1944   31.4352   -5.5178 N   0  0  0  0  0  0  0  0  0  0  0  0
   32.1988   25.3503   -0.7112 C   0  0  0  0  0  0  0  0  0  0  0  0
   30.6855   30.3686   -6.2922 S   0  0  0  0  0  3  0  0  0  0  0  0
   32.7466   30.7962    1.6208 C   0  0  0  0  0  0  0  0  0  0  0  0
   33.6846   30.2997   -9.5146 C   0  0  0  0  0  0  0  0  0  0  0  0
   33.5196   31.5325   -8.8533 C   0  0  0  0  0  0  0  0  0  0  0  0
   33.1029   27.7412   -1.3027 N   0  0  0  0  0  0  0  0  0  0  0  0
   35.5192   21.5330    1.7262 O   0  0  0  0  0  0  0  0  0  0  0  0
   34.2031   23.4881   -0.3207 C   0  0  0  0  0  0  0  0  0  0  0  0
   32.6706   24.0998   -0.2654 C   0  0  0  0  0  0  0  0  0  0  0  0
   32.9397   28.0239   -3.8762 O   0  0  0  0  0  0  0  0  0  0  0  0
   32.3914   29.5497   -1.7875 C   0  0  0  0  0  0  0  0  0  0  0  0
  3  2  2  0
  5  1  2  0
  6  1  1  0
  7  4  1  0
  8  6  1  0
 10  7  1  0
 12  8  1  0
 13 11  1  0
 13 12  1  0
 14  2  1  0
 15 11  1  0
 16  9  1  0
 18  7  1  0
 18 15  1  0
 19 14  2  0
 20 17  1  0
 20 18  1  0
 21  5  1  0
 21  6  2  0
 22  4  2  0
 23 10  1  0
 23 22  1  0
 24 14  1  0
 25  9  1  0
 26  3  1  0
 26 16  1  0
 27 19  1  0
 27 26  2  0
 28 11  1  0
 29  8  1  0
 29 24  1  0
M  RAD  2  17   2  20   2
M  END
>  <ID>  (1) 
conformer_0

$$$$
