
     RDKit          3D

 31 34  0  0  0  0  0  0  0  0999 V2000
   33.4447   29.0442    0.8084 C   0  0  0  0  0  0  0  0  0  0  0  0
   34.6767   24.0873   -0.3970 C   0  0  0  0  0  0  0  0  0  0  0  0
   34.6384   25.4183   -0.7659 C   0  0  0  0  0  0  0  0  0  0  0  0
   33.6727   30.2412   -9.4602 C   0  0  0  0  0  0  0  0  0  0  0  0
   33.7167   29.1210    2.2122 C   0  0  0  0  0  0  0  0  0  0  0  0
   34.5655   21.6961    0.7278 C   0  0  0  0  0  0  0  0  0  0  0  0
   32.5517   30.3963   -1.3787 N   0  0  0  0  0  0  0  0  0  0  0  0
   32.1295   30.6276   -7.5213 C   0  0  0  0  0  0  0  0  0  0  0  0
   31.4142   31.2494   -5.7472 N   0  0  0  0  0  0  0  0  0  0  0  0
   32.0523   31.5965   -2.8655 C   0  0  0  0  0  0  0  0  0  0  0  0
   33.1450   23.8190   -0.2896 C   0  0  0  0  0  0  0  0  0  0  0  0
   33.2050   32.2539   -8.4711 S   0  0  0  0  0  0  0  0  0  0  0  0
   32.8657   27.5561   -3.6203 O   0  0  0  0  0  0  0  0  0  0  0  0
   31.9756   30.1722   -3.2915 C   0  0  0  0  0  0  0  0  0  0  0  0
   33.2135   26.0810   -1.1229 C   0  0  0  0  0  0  0  0  0  0  0  0
   32.0505   31.3326   -1.3738 N   0  0  0  0  0  0  0  0  0  0  0  0
   32.9058   30.4471    2.4552 C   0  0  0  0  0  0  0  0  0  0  0  0
   32.9459   27.3739   -1.3166 N   0  0  0  0  0  0  0  0  0  0  0  0
   32.8333   30.0745    0.0228 C   0  0  0  0  0  0  0  0  0  0  0  0
   31.7099   31.5502   -5.0839 C   0  0  0  0  0  0  0  0  0  0  0  0
   30.1836   29.9936   -7.2834 O   0  0  0  0  0  1  0  0  0  0  0  0
   35.1073   21.6627   -0.3069 O   0  0  0  0  0  0  0  0  0  0  0  0
   32.0173   32.7813   -4.1142 C   0  0  0  0  0  0  0  0  0  0  0  0
   34.9829   20.9022    1.5284 F   0  0  0  0  0  0  0  0  0  0  0  0
   32.3028   24.9768   -0.6561 C   0  0  0  0  0  0  0  0  0  0  0  0
   32.4997   29.3534   -2.1955 C   0  0  0  0  0  0  0  0  0  0  0  0
   32.4493   28.2798   -3.0740 C   0  0  0  0  0  0  0  0  0  0  0  0
   33.0051   29.5998   -8.4085 C   0  0  0  0  0  0  0  0  0  0  0  0
   33.5864   31.2857   -8.9936 C   0  0  0  0  0  0  0  0  0  0  0  0
   32.4627   30.9690    1.2654 C   0  0  0  0  0  0  0  0  0  0  0  0
   31.1974   30.8853   -7.1854 S   0  0  0  0  0  3  0  0  0  0  0  0
  3  2  2  0
  5  1  2  0
  9  8  1  0
 11  2  1  0
 12  8  1  0
 14 10  1  0
 15  3  1  0
 16  7  1  0
 16 10  2  0
 17  5  1  0
 18 15  1  0
 19  1  1  0
 19  7  1  0
 20  9  1  0
 22  2  1  0
 22  6  1  0
 23 10  1  0
 23 20  1  0
 24  6  1  0
 25 11  1  0
 25 15  2  0
 26  7  1  0
 26 14  2  0
 27 13  1  0
 27 18  1  0
 27 26  1  0
 28  4  1  0
 28  8  1  0
 29  4  1  0
 29 12  1  0
 30 17  2  0
 30 19  1  0
 31  8  1  0
 31 21  1  0
M  RAD  2  21   2  31   2
M  END
>  <ID>  (1) 
conformer_0

$$$$
