
     RDKit          3D

 34 38  0  0  0  0  0  0  0  0999 V2000
   33.7420   29.1538    1.9138 C   0  0  0  0  0  0  0  0  0  0  0  0
   34.4641   23.6923   -0.3550 C   0  0  0  0  0  0  0  0  0  0  0  0
   32.3429   25.0103   -0.6128 C   0  0  0  0  0  0  0  0  0  0  0  0
   32.8445   29.8714   -8.2714 C   0  0  0  0  0  0  0  0  0  0  0  0
   33.4805   29.3239    0.5605 C   0  0  0  0  0  0  0  0  0  0  0  0
   31.7188   31.4226   -2.9677 C   0  0  0  0  0  0  0  0  0  0  0  0
   31.7878   30.2095   -3.5050 C   0  0  0  0  0  0  0  0  0  0  0  0
   32.9217   32.3861   -8.2948 S   0  0  0  0  0  0  0  0  0  0  0  0
   31.6618   31.5012   -1.3620 N   0  0  0  0  0  0  0  0  0  0  0  0
   32.0675   30.8896   -7.6847 C   0  0  0  0  0  0  0  0  0  0  0  0
   33.3180   26.6670   -1.6476 N   0  0  0  0  0  0  0  0  0  0  0  0
   33.4967   25.7120   -1.1396 C   0  0  0  0  0  0  0  0  0  0  0  0
   33.0041   27.6284   -3.9263 O   0  0  0  0  0  0  0  0  0  0  0  0
   32.6685   30.5811   -0.0414 C   0  0  0  0  0  0  0  0  0  0  0  0
   33.0384   27.7729   -2.5527 C   0  0  0  0  0  0  0  0  0  0  0  0
   32.9255   30.3122    2.3304 C   0  0  0  0  0  0  0  0  0  0  0  0
   34.4966   20.5977    2.7279 C   0  0  0  0  0  0  0  0  0  0  0  0
   34.8394   24.9048   -0.8420 C   0  0  0  0  0  0  0  0  0  0  0  0
   34.8360   21.3128    0.1118 O   0  0  0  0  0  0  0  0  0  0  0  0
   30.3850   29.0673   -6.6734 O   0  0  0  0  0  1  0  0  0  0  0  0
   32.2806   30.4236   -1.6181 N   0  0  0  0  0  0  0  0  0  0  0  0
   30.8217   30.5149   -6.8014 S   0  0  0  0  0  4  0  0  0  0  0  0
   31.3959   31.6106   -5.1491 C   0  0  0  0  0  0  0  0  0  0  0  0
   31.3395   30.8900   -5.8936 N   0  0  0  0  0  0  0  0  0  0  0  0
   31.9377   33.1892   -4.3761 C   0  0  0  0  0  0  0  0  0  0  0  0
   33.8366   31.5043   -9.0422 C   0  0  0  0  0  0  0  0  0  0  0  0
   32.7835   23.7488   -0.1023 C   0  0  0  0  0  0  0  0  0  0  0  0
   33.2946   28.7593   -1.8032 N   0  0  0  0  0  0  0  0  0  0  0  0
   32.4264   31.1422    1.2808 C   0  0  0  0  0  0  0  0  0  0  0  0
   34.4133   21.7244    0.6523 C   0  0  0  0  0  0  0  0  0  0  0  0
   33.7762   30.4169   -9.3398 C   0  0  0  0  0  0  0  0  0  0  0  0
   29.8355   30.8251   -7.5299 O   0  0  0  0  0  1  0  0  0  0  0  0
   32.6248   29.7230   -2.2066 C   0  0  0  0  0  3  0  0  0  0  0  0
   32.2432   29.2093   -4.4033 C   0  0  0  0  0  0  0  0  0  0  0  0
  5  1  2  0
  7  6  1  0
  9  6  2  0
 10  4  2  0
 10  8  1  0
 12  3  2  0
 12 11  1  0
 14  5  1  0
 15 11  1  0
 15 13  1  0
 16  1  1  0
 18  2  2  0
 18 12  1  0
 21  9  1  0
 21 14  1  0
 22 10  1  0
 22 20  1  0
 23  7  1  0
 24 22  1  0
 24 23  1  0
 25 23  1  0
 26  8  1  0
 27  2  1  0
 27  3  1  0
 28 15  1  0
 29 14  2  0
 29 16  1  0
 30  2  1  0
 30 17  1  0
 30 19  2  0
 31  4  1  0
 31 26  1  0
 32 22  1  0
 33  7  1  0
 33 21  1  0
 33 28  1  0
 34  7  1  0
 34 13  1  0
M  RAD  3  20   2  32   2  33   2
M  END
>  <ID>  (1) 
conformer_0

$$$$
