
     RDKit          3D

 33 36  0  0  0  0  0  0  0  0999 V2000
   33.6908   30.5861   -9.3309 C   0  0  0  0  0  0  0  0  0  0  0  0
   32.8999   30.4911    2.6401 C   0  0  0  0  0  0  0  0  0  0  0  0
   32.4375   25.2525   -0.6627 C   0  0  0  0  0  0  0  0  0  0  0  0
   32.5775   24.0124   -0.2308 C   0  0  0  0  0  0  0  0  0  0  0  0
   31.7755   31.0435   -7.5711 C   0  0  0  0  0  0  0  0  0  0  0  0
   33.6000   29.0771    1.0338 C   0  0  0  0  0  0  0  0  0  0  0  0
   34.4987   21.5658    0.9165 C   0  0  0  0  0  0  0  0  0  0  0  0
   32.5013   30.4624   -1.2001 N   0  0  0  0  0  0  0  0  0  0  0  0
   31.7012   31.3989   -2.9446 C   0  0  0  0  0  0  0  0  0  0  0  0
   33.2890   27.7091   -1.2164 N   0  0  0  0  0  0  0  0  0  0  0  0
   35.0977   24.1970   -0.4641 C   0  0  0  0  0  0  0  0  0  0  0  0
   32.7426   30.0014    0.1178 C   0  0  0  0  0  0  0  0  0  0  0  0
   31.9132   31.5443   -1.3289 N   0  0  0  0  0  0  0  0  0  0  0  0
   31.8849   30.1290   -3.0290 C   0  0  0  0  0  0  0  0  0  0  0  0
   32.9848   27.3739   -3.3600 O   0  0  0  0  0  0  0  0  0  0  0  0
   33.4621   26.0916   -0.9719 C   0  0  0  0  0  0  0  0  0  0  0  0
   30.2196   29.4794   -6.5290 O   0  0  0  0  0  1  0  0  0  0  0  0
   34.6108   21.3124    0.3264 O   0  0  0  0  0  0  0  0  0  0  0  0
   32.4234   30.9734    1.4461 C   0  0  0  0  0  0  0  0  0  0  0  0
   30.7810   31.3668   -5.6946 N   0  0  0  0  0  0  0  0  0  0  0  0
   34.0979   20.5367    2.8684 C   0  0  0  0  0  0  0  0  0  0  0  0
   30.5034   30.5423   -6.6201 S   0  0  0  0  0  4  0  0  0  0  0  0
   31.1316   31.0341   -4.9147 C   0  0  0  0  0  0  0  0  0  0  0  0
   32.9775   29.9141   -8.3952 C   0  0  0  0  0  0  0  0  0  0  0  0
   32.9192   27.8227   -2.3456 C   0  0  0  0  0  0  0  0  0  0  0  0
   33.9585   23.4510   -0.2119 C   0  0  0  0  0  0  0  0  0  0  0  0
   34.7228   25.4439   -0.7821 C   0  0  0  0  0  0  0  0  0  0  0  0
   31.3517   32.7077   -3.9740 C   0  0  0  0  0  0  0  0  0  0  0  0
   32.6525   29.5057   -2.3522 C   0  0  0  0  0  0  0  0  0  0  0  0
   32.8565   31.9263   -8.7235 C   0  0  0  0  0  0  0  0  0  0  0  0
   32.0302   32.1354   -8.3125 S   0  0  0  0  0  0  0  0  0  0  0  0
   33.8245   29.2431    2.4398 C   0  0  0  0  0  0  0  0  0  0  0  0
   29.4131   31.1979   -7.2642 O   0  0  0  0  0  1  0  0  0  0  0  0
  4  3  2  0
 12  6  2  0
 12  8  1  0
 13  8  1  0
 13  9  2  0
 14  9  1  0
 16  3  1  0
 16 10  1  0
 18  7  2  0
 19  2  2  0
 19 12  1  0
 21  7  1  0
 22  5  1  0
 22 17  1  0
 22 20  1  0
 23 20  1  0
 24  1  1  0
 24  5  2  0
 25 10  1  0
 25 15  2  0
 26  4  1  0
 26  7  1  0
 26 11  2  0
 27 11  1  0
 27 16  2  0
 28  9  1  0
 28 23  1  0
 29  8  1  0
 29 14  2  0
 29 25  1  0
 30  1  1  0
 31  5  1  0
 31 30  1  0
 32  2  1  0
 32  6  1  0
 33 22  1  0
M  RAD  2  17   2  33   2
M  END
>  <ID>  (1) 
conformer_0

$$$$
