
     RDKit          3D

 37 41  0  0  0  0  0  0  0  0999 V2000
   32.7900   23.8169   -0.2305 C   0  0  0  0  0  0  0  0  0  0  0  0
   33.7700   28.6883    1.7241 C   0  0  0  0  0  0  0  0  0  0  0  0
   33.8321   30.4410   -9.4777 C   0  0  0  0  0  0  0  0  0  0  0  0
   32.4516   25.0461   -0.7105 C   0  0  0  0  0  0  0  0  0  0  0  0
   33.4362   29.8004    2.7220 C   0  0  0  0  0  0  0  0  0  0  0  0
   32.0793   30.7525   -7.5753 C   0  0  0  0  0  0  0  0  0  0  0  0
   31.9596   28.8417   -3.0076 C   0  0  0  0  0  0  0  0  0  0  0  0
   32.4962   32.2486   -8.4648 S   0  0  0  0  0  0  0  0  0  0  0  0
   32.2453   31.1456   -1.6012 N   0  0  0  0  0  0  0  0  0  0  0  0
   35.2190   24.1591   -0.5197 C   0  0  0  0  0  0  0  0  0  0  0  0
   32.6645   29.8193   -1.5540 N   0  0  0  0  0  0  0  0  0  0  0  0
   31.6516   30.8178   -3.2313 C   0  0  0  0  0  0  0  0  0  0  0  0
   34.3998   20.8059    2.3796 C   0  0  0  0  0  0  0  0  0  0  0  0
   33.1021   27.3074   -3.5684 O   0  0  0  0  0  0  0  0  0  0  0  0
   33.1880   27.7297   -1.3793 C   0  0  0  0  0  0  0  0  0  0  0  0
   32.8710   30.4433    0.1517 C   0  0  0  0  0  0  0  0  0  0  0  0
   32.5620   31.2908    1.0417 C   0  0  0  0  0  0  0  0  0  0  0  0
   34.2121   21.4409    1.1871 O   0  0  0  0  0  0  0  0  0  0  0  0
   33.1701   27.1980   -1.2884 N   0  0  0  0  0  0  0  0  0  0  0  0
   30.4456   29.0740   -6.6122 O   0  0  0  0  0  1  0  0  0  0  0  0
   33.4156   25.7317   -1.1856 C   0  0  0  0  0  0  0  0  0  0  0  0
   31.2963   31.2038   -5.0680 C   0  0  0  0  0  0  0  0  0  0  0  0
   31.0043   30.9890   -5.7826 N   0  0  0  0  0  0  0  0  0  0  0  0
   31.7505   32.7677   -5.0344 C   0  0  0  0  0  0  0  0  0  0  0  0
   30.7539   30.4608   -6.5608 S   0  0  0  0  0  4  0  0  0  0  0  0
   34.7547   25.3799   -0.8444 C   0  0  0  0  0  0  0  0  0  0  0  0
   33.1620   29.6788   -8.5919 C   0  0  0  0  0  0  0  0  0  0  0  0
   33.3645   31.4454   -8.8177 C   0  0  0  0  0  0  0  0  0  0  0  0
   34.4370   21.8161    0.4048 C   0  0  0  0  0  0  0  0  0  0  0  0
   32.7934   30.9554    2.2629 C   0  0  0  0  0  0  0  0  0  0  0  0
   33.3501   29.1856    0.5061 C   0  0  0  0  0  0  0  0  0  0  0  0
   29.6850   30.8049   -7.2931 O   0  0  0  0  0  1  0  0  0  0  0  0
   34.1760   23.2936   -0.2307 C   0  0  0  0  0  0  0  0  0  0  0  0
   32.6645   28.3735   -3.4624 C   0  0  0  0  0  0  0  0  0  0  0  0
   35.4803   21.1479   -0.0430 O   0  0  0  0  0  0  0  0  0  0  0  0
   32.3740   29.4368   -1.8879 C   0  0  0  0  0  0  0  0  0  0  0  0
   30.9500   30.1884   -3.4425 C   0  0  0  0  0  0  0  0  0  0  0  0
  4  1  2  0
  5  2  2  0
  8  6  1  0
 11  9  1  0
 12  9  1  0
 16 11  1  0
 17 16  1  0
 18 13  1  0
 19 15  1  0
 21  4  1  0
 21 19  1  0
 22 12  1  0
 23 22  1  0
 24 22  1  0
 25  6  1  0
 25 20  1  0
 25 23  1  0
 26 10  1  0
 26 21  2  0
 27  3  2  0
 27  6  1  0
 28  3  1  0
 28  8  1  0
 28 27  1  0
 29 18  1  0
 30  5  1  0
 30 17  2  0
 31  2  1  0
 31 16  2  0
 32 25  1  0
 33  1  1  0
 33 10  2  0
 33 29  1  0
 34  7  1  0
 34 14  1  0
 34 15  1  0
 35 29  2  0
 36  7  1  0
 36 11  1  0
 37  7  1  0
 37 12  1  0
M  RAD  2  20   2  32   2
M  END
>  <ID>  (1) 
conformer_0

$$$$
