
     RDKit          3D

 36 38  0  0  0  0  0  0  0  0999 V2000
   33.5718   29.0630    1.0121 C   0  0  0  0  0  0  0  0  0  0  0  0
   34.6678   25.5101   -0.7636 C   0  0  0  0  0  0  0  0  0  0  0  0
   34.9333   24.2618   -0.4618 C   0  0  0  0  0  0  0  0  0  0  0  0
   33.0175   29.9637   -8.5558 C   0  0  0  0  0  0  0  0  0  0  0  0
   32.9537   30.4968    2.5789 C   0  0  0  0  0  0  0  0  0  0  0  0
   32.6050   29.9319   -1.3524 N   0  0  0  0  0  0  0  0  0  0  0  0
   32.6945   32.2429   -8.4103 S   0  0  0  0  0  0  0  0  0  0  0  0
   31.8371   29.7149   -3.3113 C   0  0  0  0  0  0  0  0  0  0  0  0
   31.4700   30.8084   -2.9035 C   0  0  0  0  0  0  0  0  0  0  0  0
   32.1241   30.8497   -7.7058 C   0  0  0  0  0  0  0  0  0  0  0  0
   34.6415   22.3221    0.1085 C   0  0  2  0  0  0  0  0  0  0  0  0
   32.8008   30.2064    0.2700 C   0  0  0  0  0  0  0  0  0  0  0  0
   33.1270   27.4538   -1.3560 N   0  0  0  0  0  0  0  0  0  0  0  0
   32.1887   31.1785   -1.1327 N   0  0  0  0  0  0  0  0  0  0  0  0
   32.2621   25.3511   -0.7657 C   0  0  0  0  0  0  0  0  0  0  0  0
   31.2543   30.6781   -5.7681 N   0  0  0  0  0  0  0  0  0  0  0  0
   33.3467   26.0477   -1.1055 C   0  0  0  0  0  0  0  0  0  0  0  0
   32.4558   31.1172    1.4880 C   0  0  0  0  0  0  0  0  0  0  0  0
   33.0691   27.7300   -3.8610 O   0  0  0  0  0  0  0  0  0  0  0  0
   30.3244   29.0852   -6.6362 O   0  0  0  0  0  1  0  0  0  0  0  0
   31.3463   31.5896   -5.3953 C   0  0  0  0  0  0  0  0  0  0  0  0
   31.7096   33.1171   -4.9034 C   0  0  0  0  0  0  0  0  0  0  0  0
   34.1710   21.0251   -0.2419 O   0  0  0  0  0  0  0  0  0  0  0  0
   32.4225   24.1201   -0.2666 C   0  0  0  0  0  0  0  0  0  0  0  0
   30.7085   30.2813   -6.5625 S   0  0  0  0  0  4  0  0  0  0  0  0
   33.7846   31.4677   -9.0453 C   0  0  0  0  0  0  0  0  0  0  0  0
   33.0239   28.0386   -2.0573 C   0  0  0  0  0  0  0  0  0  0  0  0
   33.7819   30.6018   -9.6149 C   0  0  0  0  0  0  0  0  0  0  0  0
   33.7204   29.1860    2.3163 C   0  0  0  0  0  0  0  0  0  0  0  0
   32.5191   29.3096   -2.0884 C   0  0  0  0  0  0  0  0  0  0  0  0
   34.6744   21.3538    1.7820 F   0  0  0  0  0  0  0  0  0  0  0  0
   29.8703   30.8399   -7.6448 O   0  0  0  0  0  1  0  0  0  0  0  0
   34.5518   20.9966    1.9400 C   0  0  0  0  0  0  0  0  0  0  0  0
   32.1488   29.4211   -4.7928 C   0  0  0  0  0  0  0  0  0  0  0  0
   33.7182   23.5193   -0.2102 C   0  0  0  0  0  0  0  0  0  0  0  0
   35.1434   21.5704   -0.2114 F   0  0  0  0  0  0  0  0  0  0  0  0
  3  2  2  0
  9  8  2  3
 10  4  2  0
 10  7  1  0
 12  1  2  0
 12  6  1  0
 14  6  1  0
 17  2  1  0
 17 13  1  0
 17 15  2  0
 18  5  2  0
 18 12  1  0
 21 16  1  0
 22 21  1  0
 23 11  1  0
 24 15  1  0
 25 10  1  0
 25 16  1  0
 25 20  1  0
 26  7  1  0
 27 13  1  0
 27 19  2  0
 28  4  1  0
 28 26  1  0
 29  1  1  0
 29  5  1  0
 30  6  1  0
 30  8  1  0
 30 27  1  0
 32 25  1  0
 33 23  1  0
 33 31  1  0
 34  8  1  0
 34 16  1  0
 35  3  1  0
 35 11  1  0
 35 24  2  0
 11 36  1  6
M  RAD  2  20   2  32   2
M  END
>  <ID>  (1) 
conformer_0

$$$$
