
     RDKit          3D

 34 37  0  0  0  0  0  0  0  0999 V2000
   34.7589   25.2907   -0.7859 C   0  0  0  0  0  0  0  0  0  0  0  0
   33.4144   29.2607    0.7116 C   0  0  0  0  0  0  0  0  0  0  0  0
   33.0770   29.8487   -8.8267 C   0  0  0  0  0  0  0  0  0  0  0  0
   35.0082   24.0688   -0.4127 C   0  0  0  0  0  0  0  0  0  0  0  0
   32.8246   30.4710    2.4692 C   0  0  0  0  0  0  0  0  0  0  0  0
   32.3702   31.0730   -8.1226 C   0  0  0  0  0  0  0  0  0  0  0  0
   31.6873   31.3083   -3.1212 C   0  0  0  0  0  0  0  0  0  0  0  0
   32.5802   23.8850   -0.2025 C   0  0  0  0  0  0  0  0  0  0  0  0
   34.8246   21.6672    0.7973 C   0  0  0  0  0  0  0  0  0  0  0  0
   31.8095   29.8905   -3.4329 C   0  0  0  0  0  0  0  0  0  0  0  0
   31.8981   31.3616   -1.5789 N   0  0  0  0  0  0  0  0  0  0  0  0
   32.3070   31.9518   -8.3254 S   0  0  0  0  0  0  0  0  0  0  0  0
   33.3877   25.8452   -1.0857 C   0  0  0  0  0  0  0  0  0  0  0  0
   32.7536   27.2259   -3.3814 O   0  0  0  0  0  0  0  0  0  0  0  0
   31.7532   33.3523   -4.5539 C   0  0  0  0  0  0  0  0  0  0  0  0
   32.4951   29.8926   -1.4974 N   0  0  0  0  0  0  0  0  0  0  0  0
   32.4889   31.0970    1.2549 C   0  0  0  0  0  0  0  0  0  0  0  0
   33.1804   27.1300   -1.3172 N   0  0  0  0  0  0  0  0  0  0  0  0
   30.1392   29.6154   -6.8397 O   0  0  0  0  0  1  0  0  0  0  0  0
   32.6995   30.3259   -0.0995 C   0  0  0  0  0  0  0  0  0  0  0  0
   32.8616   27.8665   -2.2920 C   0  0  0  0  0  0  0  0  0  0  0  0
   31.0136   31.4304   -5.6281 N   0  0  0  0  0  0  0  0  0  0  0  0
   34.8189   21.5111    2.2182 F   0  0  0  0  0  0  0  0  0  0  0  0
   31.1978   32.3031   -5.1960 C   0  0  0  0  0  0  0  0  0  0  0  0
   33.8784   30.7889   -9.4416 C   0  0  0  0  0  0  0  0  0  0  0  0
   32.2448   25.1134   -0.7298 C   0  0  0  0  0  0  0  0  0  0  0  0
   29.8756   31.6813   -7.7411 O   0  0  0  0  0  1  0  0  0  0  0  0
   33.7459   21.0634    0.6103 F   0  0  0  0  0  0  0  0  0  0  0  0
   33.5680   29.1184    2.1632 C   0  0  0  0  0  0  0  0  0  0  0  0
   35.7180   21.6016    0.2939 F   0  0  0  0  0  0  0  0  0  0  0  0
   32.3835   29.5238   -2.1994 C   0  0  0  0  0  0  0  0  0  0  0  0
   31.7544   29.6436   -4.5454 C   0  0  0  0  0  0  0  0  0  0  0  0
   33.8654   23.3076   -0.1498 C   0  0  0  0  0  0  0  0  0  0  0  0
   30.6897   30.8655   -6.9287 S   0  0  0  0  0  4  0  0  0  0  0  0
  4  1  2  0
  6  3  1  0
 10  7  1  0
 11  7  2  0
 12  6  1  0
 13  1  1  0
 16 11  1  0
 17  5  2  0
 18 13  1  0
 20  2  2  0
 20 16  1  0
 20 17  1  0
 21 14  2  0
 21 18  1  0
 23  9  1  0
 24 15  1  0
 24 22  1  0
 25  3  2  0
 25 12  1  0
 26  8  1  0
 26 13  2  0
 28  9  1  0
 29  2  1  0
 29  5  1  0
 30  9  1  0
 31 10  2  0
 31 16  1  0
 31 21  1  0
 32 10  1  0
 32 22  1  0
 33  4  1  0
 33  8  2  0
 33  9  1  0
 34  6  1  0
 34 19  1  0
 34 22  1  0
 34 27  1  0
M  RAD  2  19   2  27   2
M  END
>  <ID>  (1) 
conformer_0

$$$$
