
     RDKit          3D

 35 38  0  0  0  0  0  0  0  0999 V2000
   32.7788   24.0858   -0.2593 C   0  0  0  0  0  0  0  0  0  0  0  0
   33.3378   29.2987    0.7420 C   0  0  0  0  0  0  0  0  0  0  0  0
   33.6985   29.1790    2.0671 C   0  0  0  0  0  0  0  0  0  0  0  0
   33.6288   29.9964   -9.4455 C   0  0  0  0  0  0  0  0  0  0  0  0
   32.4668   25.3868   -0.7890 C   0  0  0  0  0  0  0  0  0  0  0  0
   31.9107   31.3659   -1.1142 N   0  0  0  0  0  0  0  0  0  0  0  0
   34.7380   22.1123    0.1522 C   0  0  0  0  0  0  0  0  0  0  0  0
   31.3232   31.2165   -2.6799 C   0  0  0  0  0  0  0  0  0  0  0  0
   33.1491   27.7851   -1.4533 N   0  0  0  0  0  0  0  0  0  0  0  0
   32.2256   30.5041   -7.6014 C   0  0  2  0  0  0  0  0  0  0  0  0
   32.5737   30.4751    0.1270 C   0  0  0  0  0  0  0  0  0  0  0  0
   32.1561   30.4751   -1.4867 N   0  0  0  0  0  0  0  0  0  0  0  0
   35.1767   24.4624   -0.5671 C   0  0  0  0  0  0  0  0  0  0  0  0
   32.4764   31.8692   -8.7965 S   0  0  0  0  0  0  0  0  0  0  0  0
   32.5622   31.3012    1.5127 C   0  0  0  0  0  0  0  0  0  0  0  0
   33.4222   26.1950   -1.1780 C   0  0  0  0  0  0  0  0  0  0  0  0
   31.2540   31.9188   -4.9015 C   0  0  0  0  0  0  0  0  0  0  0  0
   32.8943   27.5879   -3.7420 O   0  0  0  0  0  0  0  0  0  0  0  0
   31.0486   31.0965   -5.6487 N   0  0  0  0  0  0  0  0  0  0  0  0
   31.5138   30.2842   -3.1272 C   0  0  2  0  0  0  0  0  0  0  0  0
   29.8354   30.0465   -7.1009 O   0  0  0  0  0  1  0  0  0  0  0  0
   34.5165   21.5021    1.2665 O   0  0  0  0  0  0  0  0  0  0  0  0
   34.7030   20.8235    2.2167 C   0  0  0  0  0  0  0  0  0  0  0  0
   34.7271   25.6912   -0.8934 C   0  0  0  0  0  0  0  0  0  0  0  0
   32.7761   28.1091   -2.5825 C   0  0  0  0  0  0  0  0  0  0  0  0
   33.0476   30.4586    2.5381 C   0  0  0  0  0  0  0  0  0  0  0  0
   33.5332   31.2138   -9.2017 C   0  0  0  0  0  0  0  0  0  0  0  0
   32.4351   29.4615   -2.3453 C   0  0  2  0  0  0  0  0  0  0  0  0
   32.9816   29.4581   -8.2742 C   0  0  0  0  0  0  0  0  0  0  0  0
   35.4465   21.4422   -0.5081 O   0  0  0  0  0  0  0  0  0  0  0  0
   30.8474   30.9193   -7.2731 S   0  0  0  0  0  4  0  0  0  0  0  0
   30.4179   31.8972   -8.3685 O   0  0  0  0  0  1  0  0  0  0  0  0
   31.9879   29.8641   -5.0619 C   0  0  0  0  0  0  0  0  0  0  0  0
   31.9217   31.6037   -4.4998 C   0  0  1  0  0  0  0  0  0  0  0  0
   34.1632   23.6216   -0.2526 C   0  0  0  0  0  0  0  0  0  0  0  0
  3  2  2  0
  5  1  2  0
 11  2  1  0
 11  6  2  3
 12  6  1  0
 12  8  1  0
 14 10  1  0
 15 11  1  0
 16  5  1  0
 16  9  1  0
 19 17  1  0
 20  8  1  1
 22  7  1  0
 23 22  1  0
 24 13  1  0
 24 16  2  0
 25  9  1  0
 25 18  2  0
 26  3  1  0
 26 15  2  0
 27  4  1  0
 27 14  1  0
 28 12  1  0
 28 20  1  0
 28 25  1  1
 29  4  1  0
 29 10  1  0
 30  7  2  0
 10 31  1  6
 31 19  1  0
 31 21  1  0
 32 31  1  0
 34 17  1  0
 34 20  1  0
 34 33  1  6
 35  1  1  0
 35  7  1  0
 35 13  2  0
M  RAD  2  21   2  32   2
M  END
>  <ID>  (1) 
conformer_0

$$$$
