
     RDKit          3D

 34 37  0  0  0  0  0  0  0  0999 V2000
   34.6060   23.9737   -0.3939 C   0  0  0  0  0  0  0  0  0  0  0  0
   33.7010   29.0987    0.8013 C   0  0  0  0  0  0  0  0  0  0  0  0
   33.6309   29.1115    2.1153 C   0  0  0  0  0  0  0  0  0  0  0  0
   33.0189   24.0730   -0.4013 C   0  0  0  0  0  0  0  0  0  0  0  0
   33.5179   30.3077   -9.2875 C   0  0  0  0  0  0  0  0  0  0  0  0
   32.7031   30.3931   -1.6845 N   0  0  0  0  0  0  0  0  0  0  0  0
   32.0353   30.7762   -7.4871 C   0  0  0  0  0  0  0  0  0  0  0  0
   34.6133   21.8894    0.6633 C   0  0  1  0  0  0  0  0  0  0  0  0
   31.7390   30.4487   -3.6453 C   0  0  0  0  0  3  0  0  0  0  0  0
   32.5797   29.7186   -2.8817 C   0  0  2  0  0  0  0  0  0  0  0  0
   32.4468   32.1614   -8.5515 S   0  0  0  0  0  0  0  0  0  0  0  0
   33.0574   27.5167   -3.8498 O   0  0  0  0  0  0  0  0  0  0  0  0
   34.8018   25.3700   -0.8018 C   0  0  0  0  0  0  0  0  0  0  0  0
   32.4728   31.0602    1.1381 C   0  0  0  0  0  0  0  0  0  0  0  0
   32.8476   30.4055   -0.1299 C   0  0  0  0  0  0  0  0  0  0  0  0
   33.4536   26.0428   -1.4727 C   0  0  0  0  0  0  0  0  0  0  0  0
   33.1520   28.0524   -2.1870 C   0  0  2  0  0  0  0  0  0  0  0  0
   31.2487   31.5396   -5.2685 C   0  0  1  0  0  0  0  0  0  0  0  0
   35.3893   21.3000   -0.2501 O   0  0  0  0  0  0  0  0  0  0  0  0
   34.2709   20.6783    2.9248 C   0  0  0  0  0  0  0  0  0  0  0  0
   29.8029   30.3461   -7.0377 O   0  0  0  0  0  1  0  0  0  0  0  0
   33.2794   27.4096   -1.8957 N   0  0  0  0  0  0  0  0  0  0  0  0
   33.7453   21.3797    0.9497 F   0  0  0  0  0  0  0  0  0  0  0  0
   32.1094   31.6271   -1.8027 N   0  0  0  0  0  0  0  0  0  0  0  0
   31.0917   31.1016   -5.8612 N   0  0  0  0  0  0  0  0  0  0  0  0
   32.4613   25.2962   -0.8563 C   0  0  0  0  0  0  0  0  0  0  0  0
   32.8009   30.3759    2.2997 C   0  0  0  0  0  0  0  0  0  0  0  0
   33.3155   31.2418   -9.0249 C   0  0  0  0  0  0  0  0  0  0  0  0
   30.6401   30.8431   -6.7221 S   0  0  0  0  0  3  0  0  0  0  0  0
   33.9322   30.2468  -10.5876 C   0  0  0  0  0  0  0  0  0  0  0  0
   31.8174   31.4887   -2.9261 C   0  0  0  0  0  0  0  0  0  0  0  0
   32.2599   30.9275   -4.7346 C   0  0  0  0  0  0  0  0  0  0  0  0
   32.5911   28.9364   -4.4163 C   0  0  0  0  0  0  0  0  0  0  0  0
   32.7626   29.5650   -8.1377 C   0  0  0  0  0  0  0  0  0  0  0  0
  3  2  2  0
  4  1  2  0
  8  1  1  0
 10  6  1  0
 10  9  1  0
 11  7  1  0
 13  1  1  0
 15  2  1  0
 15  6  1  0
 15 14  1  0
 16 13  1  0
 17 10  1  0
 17 12  1  0
 19  8  1  0
  8 20  1  1
 22 16  1  0
 17 22  1  1
 23  8  1  0
 24  6  1  0
 25 18  1  0
 26  4  1  0
 26 16  2  0
 27  3  1  0
 27 14  2  0
 28  5  1  0
 28 11  1  0
 29 21  1  0
 29 25  1  0
 30  5  2  3
 31  9  1  0
 31 24  2  0
 32  9  1  0
 18 32  1  1
 10 33  1  6
 33 12  1  0
 34  5  1  0
 34 18  1  0
M  RAD  3   9   2  21   2  29   2
M  END
>  <ID>  (1) 
conformer_0

$$$$
