
     RDKit          3D

 35 39  0  0  0  0  0  0  0  0999 V2000
   35.0202   24.2596   -0.3962 C   0  0  0  0  0  0  0  0  0  0  0  0
   34.6751   25.5315   -0.6981 C   0  0  0  0  0  0  0  0  0  0  0  0
   33.6540   29.2157    1.9864 C   0  0  0  0  0  0  0  0  0  0  0  0
   32.8593   30.0220   -8.2104 C   0  0  0  0  0  0  0  0  0  0  0  0
   33.4025   29.3524    0.6739 C   0  0  0  0  0  0  0  0  0  0  0  0
   31.6310   30.0942   -3.6740 C   0  0  1  0  0  0  0  0  0  0  0  0
   31.4753   31.0476   -2.9518 C   0  0  1  0  0  0  0  0  0  0  0  0
   32.6316   32.1994   -8.6489 S   0  0  0  0  0  0  0  0  0  0  0  0
   31.9185   30.9325   -7.8027 C   0  0  1  0  0  0  0  0  0  0  0  0
   32.7083   30.5394   -0.1703 C   0  0  0  0  0  0  0  0  0  0  0  0
   32.3418   25.2073   -0.6236 C   0  0  0  0  0  0  0  0  0  0  0  0
   33.1923   27.6412   -1.3012 N   0  0  0  0  0  0  0  0  0  0  0  0
   34.4452   21.9438    0.1409 C   0  0  0  0  0  0  0  0  0  0  0  0
   32.3207   30.3235   -1.7549 N   0  0  0  0  0  0  0  0  0  0  0  0
   32.8928   30.4526    2.4334 C   0  0  0  0  0  0  0  0  0  0  0  0
   33.3669   25.9705   -1.0425 C   0  0  0  0  0  0  0  0  0  0  0  0
   32.8779   27.4801   -3.6665 O   0  0  0  0  0  0  0  0  0  0  0  0
   29.8661   29.4997   -6.9298 O   0  0  0  0  0  1  0  0  0  0  0  0
   34.3394   21.1207    0.7624 O   0  0  0  0  0  0  0  0  0  0  0  0
   31.5681   30.7526   -5.3330 C   0  0  2  0  0  0  0  0  0  0  0  0
   31.7179   31.3650   -1.4011 N   0  0  0  0  0  0  0  0  0  0  0  0
   32.8768   28.0203   -2.1769 C   0  0  0  0  0  0  0  0  0  0  0  0
   33.7532   31.2730   -9.1612 C   0  0  0  0  0  0  0  0  0  0  0  0
   30.5649   30.8325   -7.1995 S   0  0  0  0  0  4  0  0  0  0  0  0
   34.2428   20.6779    2.9827 C   0  0  0  0  0  0  0  0  0  0  0  0
   34.0776   23.3928   -0.1787 C   0  0  0  0  0  0  0  0  0  0  0  0
   32.6834   23.8991   -0.2323 C   0  0  0  0  0  0  0  0  0  0  0  0
   32.4097   31.1848    1.2950 C   0  0  0  0  0  0  0  0  0  0  0  0
   32.7739   30.5087   -5.1804 N   0  0  0  0  0  0  0  0  0  0  0  0
   33.5704   30.2744   -9.5377 C   0  0  0  0  0  0  0  0  0  0  0  0
   29.6681   31.3561   -7.6890 O   0  0  0  0  0  1  0  0  0  0  0  0
   32.4963   29.5874   -2.6944 C   0  0  1  0  0  0  0  0  0  0  0  0
   31.7769   32.3161   -4.6081 C   0  0  0  0  0  0  0  0  0  0  0  0
   34.6764   20.8182    1.9650 C   0  0  0  0  0  0  0  0  0  0  0  0
   30.1960   30.9431   -3.6446 C   0  0  0  0  0  0  0  0  0  0  0  0
  2  1  2  0
  5  3  2  0
  7  6  1  0
  9  4  1  0
  9  8  1  0
 10  5  1  0
 14  7  1  0
 15  3  1  0
 16  2  1  0
 16 11  2  0
 16 12  1  0
 19 13  1  0
  6 20  1  6
 21  7  1  0
 21 10  1  0
 21 14  1  0
 22 12  1  0
 22 17  2  0
 23  8  1  0
  9 24  1  6
 24 18  1  0
 24 20  1  0
 26  1  1  0
 26 13  1  0
 27 11  1  0
 27 26  2  0
 28 10  2  0
 28 15  1  0
 29 20  1  0
 30  4  1  0
 30 23  1  0
 31 24  1  0
 32  6  1  0
 32 14  1  0
 32 22  1  1
 20 33  1  1
 34 19  1  0
 34 25  2  3
  7 35  1  6
M  RAD  2  18   2  31   2
M  END
>  <ID>  (1) 
conformer_0

$$$$
