
     RDKit          3D

 30 33  0  0  0  0  0  0  0  0999 V2000
   33.5754   29.0413    1.3710 C   0  0  0  0  0  0  0  0  0  0  0  0
   32.4868   25.0889   -0.7016 C   0  0  0  0  0  0  0  0  0  0  0  0
   32.8496   23.8451   -0.2674 C   0  0  0  0  0  0  0  0  0  0  0  0
   33.1253   29.4756   -8.3543 C   0  0  0  0  0  0  0  0  0  0  0  0
   33.1482   29.9701    2.2516 C   0  0  0  0  0  0  0  0  0  0  0  0
   31.6922   31.2629   -3.0569 C   0  0  0  0  0  0  0  0  0  0  0  0
   32.1499   30.5985   -7.6786 C   0  0  0  0  0  0  0  0  0  0  0  0
   32.0447   33.4609   -4.2252 C   0  0  0  0  0  0  0  0  0  0  0  0
   34.2791   23.3772   -0.2110 C   0  0  0  0  0  0  0  0  0  0  0  0
   31.6620   31.5476   -1.7894 N   0  0  0  0  0  0  0  0  0  0  0  0
   31.5570   29.7655   -3.4956 C   0  0  0  0  0  0  0  0  0  0  0  0
   33.0622   27.4141   -1.3864 N   0  0  0  0  0  0  0  0  0  0  0  0
   34.5263   20.7728    2.5281 C   0  0  0  0  0  0  0  0  0  0  0  0
   32.4319   30.0935   -1.5494 N   0  0  0  0  0  0  0  0  0  0  0  0
   32.7114   29.8063   -0.0111 C   0  0  0  0  0  0  0  0  0  0  0  0
   35.2063   21.3314    0.5971 O   0  0  0  0  0  0  0  0  0  0  0  0
   30.3012   29.4067   -6.6789 O   0  0  0  0  0  1  0  0  0  0  0  0
   33.2984   26.1596   -1.0942 C   0  0  0  0  0  0  0  0  0  0  0  0
   32.8951   31.7745   -8.6050 S   0  0  0  0  0  0  0  0  0  0  0  0
   32.5076   30.8435    1.3789 C   0  0  0  0  0  0  0  0  0  0  0  0
   31.4857   31.5694   -5.6333 N   0  0  0  0  0  0  0  0  0  0  0  0
   31.8234   32.2102   -5.2353 C   0  0  0  0  0  0  0  0  0  0  0  0
   30.2659   31.8471   -7.2874 O   0  0  0  0  0  1  0  0  0  0  0  0
   30.8768   30.4530   -6.4867 S   0  0  0  0  0  4  0  0  0  0  0  0
   34.6528   25.5630   -0.8193 C   0  0  0  0  0  0  0  0  0  0  0  0
   35.1777   24.3490   -0.5136 C   0  0  0  0  0  0  0  0  0  0  0  0
   34.7284   21.9931    0.4465 C   0  0  0  0  0  0  0  0  0  0  0  0
   33.3449   30.8463   -9.4067 C   0  0  0  0  0  0  0  0  0  0  0  0
   32.2923   29.4515   -2.1495 C   0  0  0  0  0  0  0  0  0  0  0  0
   33.4724   29.9875   -9.8413 C   0  0  0  0  0  0  0  0  0  0  0  0
  3  2  2  0
  5  1  2  0
  7  4  1  0
  9  3  1  0
 10  6  2  0
 11  6  1  0
 14 10  1  0
 15  1  1  0
 15 14  1  0
 16 13  1  0
 18  2  1  0
 18 12  1  0
 19  7  1  0
 20  5  1  0
 20 15  2  0
 22  6  1  0
 22  8  1  0
 22 21  1  0
 24  7  1  0
 24 17  1  0
 24 21  1  0
 24 23  1  0
 25 18  2  0
 26  9  2  0
 26 25  1  0
 27  9  1  0
 27 16  1  0
 28 19  1  0
 29 11  2  0
 29 12  1  0
 29 14  1  0
 30  4  1  0
 30 28  1  0
M  RAD  2  17   2  23   2
M  END
>  <ID>  (1) 
conformer_0

$$$$
