
     RDKit          3D

 32 36  0  0  0  0  0  0  0  0999 V2000
   33.5316   29.2667    2.1675 C   0  0  0  0  0  0  0  0  0  0  0  0
   32.3473   25.2208   -0.5620 C   0  0  0  0  0  0  0  0  0  0  0  0
   34.6177   24.0768   -0.4055 C   0  0  0  0  0  0  0  0  0  0  0  0
   33.5508   30.1430   -9.1315 C   0  0  0  0  0  0  0  0  0  0  0  0
   33.4522   29.1064    0.8250 C   0  0  0  0  0  0  0  0  0  0  0  0
   32.6978   30.4377   -1.6982 N   0  0  0  0  0  0  0  0  0  0  0  0
   32.1186   31.0993   -3.2841 C   0  0  0  0  0  0  0  0  0  0  0  0
   32.2207   30.8169   -7.3361 C   0  0  0  0  0  0  0  0  0  0  0  0
   34.6703   25.3714   -0.8213 C   0  0  0  0  0  0  0  0  0  0  0  0
   34.5908   21.8118    0.8955 C   0  0  0  0  0  0  0  0  0  0  0  0
   33.2612   26.1268   -1.2671 C   0  0  0  0  0  0  0  0  0  0  0  0
   32.5857   27.0592   -3.4631 O   0  0  0  0  0  0  0  0  0  0  0  0
   32.5697   31.0284    0.9040 C   0  0  0  0  0  0  0  0  0  0  0  0
   31.2467   30.8887   -5.5166 N   0  0  0  0  0  0  0  0  0  0  0  0
   34.0479   21.3227    0.3215 F   0  0  0  0  0  0  0  0  0  0  0  0
   32.8858   32.2948   -8.2898 S   0  0  0  0  0  0  0  0  0  0  0  0
   30.2786   29.0004   -6.7351 O   0  0  0  0  0  1  0  0  0  0  0  0
   32.4193   28.3803   -3.7193 C   0  0  0  0  0  0  0  0  0  0  0  0
   32.0626   29.8683   -3.4185 C   0  0  0  0  0  0  0  0  0  0  0  0
   33.8104   31.4491   -8.9040 C   0  0  0  0  0  0  0  0  0  0  0  0
   31.9544   33.2896   -4.5883 C   0  0  0  0  0  0  0  0  0  0  0  0
   32.7859   30.2086   -0.4559 C   0  0  0  0  0  0  0  0  0  0  0  0
   31.6667   31.6058   -4.9719 C   0  0  0  0  0  0  0  0  0  0  0  0
   34.2738   20.4996    3.0523 C   0  0  0  0  0  0  0  0  0  0  0  0
   30.6636   30.2873   -6.5792 S   0  0  0  0  0  4  0  0  0  0  0  0
   33.0613   23.9592   -0.1792 C   0  0  0  0  0  0  0  0  0  0  0  0
   32.8190   30.6778    2.2125 C   0  0  0  0  0  0  0  0  0  0  0  0
   32.7767   29.7744   -8.0161 C   0  0  0  0  0  0  0  0  0  0  0  0
   33.2066   27.6914   -1.4587 N   0  0  0  0  0  0  0  0  0  0  0  0
   35.2519   21.5894    1.5594 F   0  0  0  0  0  0  0  0  0  0  0  0
   32.5401   29.1471   -2.4417 C   0  0  0  0  0  0  0  0  0  0  0  0
   29.8377   30.8762   -7.3546 O   0  0  0  0  0  1  0  0  0  0  0  0
  5  1  2  0
  7  6  1  0
  9  3  2  0
 10  3  1  0
 11  2  2  0
 11  9  1  0
 15 10  1  0
 16  8  1  0
 18 12  1  0
 19  7  1  0
 19 18  1  0
 20  4  1  0
 20 16  1  0
 22  5  1  0
 22  6  1  0
 22 13  2  0
 23  7  1  0
 23 14  1  0
 23 21  1  0
 24 10  1  0
 25  8  1  0
 25 14  1  0
 25 17  1  0
 26  2  1  0
 26  3  1  0
 27  1  1  0
 27 13  1  0
 28  4  1  0
 28  8  1  0
 29 11  1  0
 30 10  1  0
 31  6  1  0
 31 18  1  0
 31 19  1  0
 31 29  1  0
 32 25  1  0
M  RAD  2  17   2  32   2
M  END
>  <ID>  (1) 
conformer_0

$$$$
