
     RDKit          3D

 34 37  0  0  0  0  0  0  0  0999 V2000
   34.8031   24.1516   -0.4134 C   0  0  0  0  0  0  0  0  0  0  0  0
   33.6994   29.3646    2.1911 C   0  0  0  0  0  0  0  0  0  0  0  0
   33.1674   29.7260   -8.4217 C   0  0  0  0  0  0  0  0  0  0  0  0
   33.4717   29.2283    0.8278 C   0  0  0  0  0  0  0  0  0  0  0  0
   32.3881   25.0544   -0.5596 C   0  0  0  0  0  0  0  0  0  0  0  0
   32.5593   30.3631   -1.6500 N   0  0  0  0  0  0  0  0  0  0  0  0
   32.2176   30.7997   -7.9009 C   0  0  2  0  0  0  0  0  0  0  0  0
   31.9983   31.5906   -2.9308 C   0  0  0  0  0  0  0  0  0  0  0  0
   31.0561   31.1796   -5.8241 N   0  0  0  0  0  0  0  0  0  0  0  0
   32.8073   32.1300   -8.4755 S   0  0  0  0  0  0  0  0  0  0  0  0
   32.7644   27.6025   -4.1183 O   0  0  0  0  0  0  0  0  0  0  0  0
   32.7438   30.4791   -0.0767 C   0  0  0  0  0  0  0  0  0  0  0  0
   33.2779   25.9217   -1.2910 C   0  0  0  0  0  0  0  0  0  0  0  0
   32.9412   27.9081   -2.7022 C   0  0  0  0  0  0  0  0  0  0  0  0
   31.9383   29.8797   -3.5222 C   0  0  0  0  0  0  0  0  0  0  0  0
   33.0748   27.1264   -1.9593 N   0  0  0  0  0  0  0  0  0  0  0  0
   32.8764   30.5587    2.4701 C   0  0  0  0  0  0  0  0  0  0  0  0
   34.7882   25.4239   -0.8851 C   0  0  0  0  0  0  0  0  0  0  0  0
   34.1433   20.5305    2.7938 C   0  0  0  0  0  0  0  0  0  0  0  0
   36.2053   21.4692    0.5818 O   0  0  0  0  0  1  0  0  0  0  0  0
   30.0069   30.2589   -7.4559 O   0  0  0  0  0  1  0  0  0  0  0  0
   31.3258   31.9963   -5.2602 C   0  0  1  0  0  0  0  0  0  0  0  0
   35.1818   21.4503    0.3779 S   0  0  0  0  0  4  0  0  0  0  0  0
   31.8177   31.4944   -1.5098 N   0  0  0  0  0  0  0  0  0  0  0  0
   31.9241   32.7362   -4.0938 C   0  0  0  0  0  0  0  0  0  0  0  0
   34.4779   21.2480    1.6687 C   0  0  0  0  0  0  0  0  0  0  0  0
   30.7444   30.6947   -7.1195 S   0  0  0  0  0  3  0  0  0  0  0  0
   33.8201   31.4035   -9.1575 C   0  0  0  0  0  0  0  0  0  0  0  0
   32.4305   31.1458    1.2353 C   0  0  0  0  0  0  0  0  0  0  0  0
   32.4553   29.6076   -2.4995 C   0  0  0  0  0  0  0  0  0  0  0  0
   33.1517   23.8915   -0.1639 C   0  0  0  0  0  0  0  0  0  0  0  0
   33.8742   30.3115   -9.6215 C   0  0  0  0  0  0  0  0  0  0  0  0
   31.9961   29.3222   -4.7320 C   0  0  0  0  0  0  0  0  0  0  0  0
   34.6250   21.1118   -0.3515 O   0  0  0  0  0  1  0  0  0  0  0  0
  4  2  2  0
  7  3  1  1
 10  7  1  0
 12  4  1  0
 12  6  1  0
 13  5  2  0
 14 11  2  0
 15  8  1  0
 16 13  1  0
 16 14  1  0
 17  2  1  0
 18  1  2  0
 18 13  1  0
 22  7  1  0
 22  9  1  0
 23  1  1  0
 23 20  1  0
 24  6  1  0
 24  8  2  0
 25  8  1  0
 22 25  1  1
 26 19  2  3
 26 23  1  0
 27  9  1  0
 27 21  1  0
 28 10  1  0
 29 12  2  0
 29 17  1  0
 30  6  1  0
 30 14  1  0
 30 15  2  0
 31  1  1  0
 31  5  1  0
 32  3  1  0
 32 28  1  0
 33 15  1  0
 34 23  1  0
M  RAD  4  20   2  21   2  27   2  34   2
M  END
>  <ID>  (1) 
conformer_0

$$$$
