
     RDKit          3D

 33 36  0  0  0  0  0  0  0  0999 V2000
   33.5427   28.9664    0.8455 C   0  0  0  0  0  0  0  0  0  0  0  0
   33.0243   29.8893   -8.7850 C   0  0  0  0  0  0  0  0  0  0  0  0
   33.0028   23.8891   -0.2302 C   0  0  0  0  0  0  0  0  0  0  0  0
   34.5455   24.0808   -0.4031 C   0  0  0  0  0  0  0  0  0  0  0  0
   32.8870   30.5666    2.3467 C   0  0  0  0  0  0  0  0  0  0  0  0
   31.8461   31.4703   -2.9069 C   0  0  0  0  0  0  0  0  0  0  0  0
   34.7025   22.2169    0.2677 C   0  0  0  0  0  0  0  0  0  0  0  0
   31.9509   30.9455   -7.8955 C   0  0  0  0  0  0  0  0  0  0  0  0
   32.2668   25.0796   -0.6041 C   0  0  0  0  0  0  0  0  0  0  0  0
   32.7245   30.0027   -0.1811 C   0  0  0  0  0  0  0  0  0  0  0  0
   31.6373   30.3986   -3.5051 C   0  0  0  0  0  0  0  0  0  0  0  0
   32.9673   27.7079   -3.9893 O   0  0  0  0  0  0  0  0  0  0  0  0
   33.0095   27.6398   -1.4332 N   0  0  0  0  0  0  0  0  0  0  0  0
   33.9950   21.4829    0.6748 O   0  0  0  0  0  0  0  0  0  0  0  0
   33.1869   26.2397   -1.0004 C   0  0  0  0  0  0  0  0  0  0  0  0
   32.4643   30.1583   -1.5193 N   0  0  0  0  0  0  0  0  0  0  0  0
   31.3549   31.7166   -5.3099 C   0  0  0  0  0  0  0  0  0  0  0  0
   32.6561   32.0292   -8.4371 S   0  0  0  0  0  0  0  0  0  0  0  0
   29.9337   29.8972   -6.8577 O   0  0  0  0  0  1  0  0  0  0  0  0
   32.7076   28.5768   -3.6313 C   0  0  0  0  0  0  0  0  0  0  0  0
   32.5011   30.8493    1.0543 C   0  0  0  0  0  0  0  0  0  0  0  0
   34.5956   20.8873    2.1064 C   0  0  0  0  0  0  0  0  0  0  0  0
   31.0029   31.4156   -5.7901 N   0  0  0  0  0  0  0  0  0  0  0  0
   34.6063   25.3855   -0.7700 C   0  0  0  0  0  3  0  0  0  0  0  0
   33.7090   30.3768   -9.6872 C   0  0  0  0  0  0  0  0  0  0  0  0
   31.6226   32.5677   -4.6402 C   0  0  0  0  0  0  0  0  0  0  0  0
   32.3824   29.6727   -2.4386 C   0  0  0  0  0  0  0  0  0  0  0  0
   31.8082   31.3507   -1.7882 N   0  0  0  0  0  0  0  0  0  0  0  0
   30.6084   30.9848   -6.9009 S   0  0  0  0  0  4  0  0  0  0  0  0
   35.3908   20.7970    1.9626 F   0  0  0  0  0  0  0  0  0  0  0  0
   33.4644   31.7083   -8.9661 C   0  0  0  0  0  0  0  0  0  0  0  0
   33.7274   29.2266    2.2720 C   0  0  0  0  0  0  0  0  0  0  0  0
   30.0495   31.8876   -7.9620 O   0  0  0  0  0  1  0  0  0  0  0  0
  4  3  2  0
  7  4  1  0
  8  2  1  0
  9  3  1  0
 10  1  2  0
 11  6  1  0
 14  7  1  0
 15  1  1  0
 15  9  1  0
 15 13  1  0
 16 10  1  0
 18  8  1  0
 20 12  2  0
 21  5  2  0
 21 10  1  0
 22 14  1  0
 23 17  1  0
 24  4  1  0
 24 15  1  0
 25  2  1  0
 26  6  1  0
 26 17  1  0
 27 11  1  0
 27 16  1  0
 27 20  2  0
 28  6  1  0
 28 16  1  0
 29  8  1  0
 29 19  1  0
 29 23  1  0
 30 22  1  0
 31 18  1  0
 31 25  1  0
 32  1  1  0
 32  5  1  0
 33 29  1  0
M  RAD  3  19   2  24   2  33   2
M  END
>  <ID>  (1) 
conformer_0

$$$$
