
     RDKit          3D

 36 39  0  0  0  0  0  0  0  0999 V2000
   33.7757   29.0760    1.7870 C   0  0  0  0  0  0  0  0  0  0  0  0
   34.5567   25.7526   -0.9408 C   0  0  0  0  0  0  0  0  0  0  0  0
   35.0982   24.4942   -0.5817 C   0  0  0  0  0  0  0  0  0  0  0  0
   33.9400   30.5349   -9.4618 C   0  0  0  0  0  0  0  0  0  0  0  0
   33.1560   30.0969    2.4495 C   0  0  0  0  0  0  0  0  0  0  0  0
   31.7517   33.5912   -4.3817 C   0  0  0  0  0  0  0  0  0  0  0  0
   32.2424   30.6353   -7.6777 C   0  0  0  0  0  0  0  0  0  0  0  0
   31.9847   31.3376   -2.8491 C   0  0  0  0  0  0  0  0  0  0  0  0
   32.6398   30.4192   -1.6176 N   0  0  0  0  0  0  0  0  0  0  0  0
   34.5616   22.0372    0.3098 C   0  0  0  0  0  0  0  0  0  0  0  0
   32.3258   25.2672   -0.9273 C   0  0  0  0  0  0  0  0  0  0  0  0
   32.7009   27.3086   -3.7455 O   0  0  0  0  0  0  0  0  0  0  0  0
   30.6703   30.7763   -5.5738 N   0  0  0  0  0  0  0  0  0  0  0  0
   31.6757   30.0720   -3.4044 C   0  0  0  0  0  0  0  0  0  0  0  0
   32.7830   30.4710   -0.0357 C   0  0  0  0  0  0  0  0  0  0  0  0
   34.5641   21.6823    1.5436 O   0  0  0  0  0  0  0  0  0  0  0  0
   33.2705   26.0280   -1.3646 C   0  0  0  0  0  0  0  0  0  0  0  0
   32.6315   27.7364   -2.7827 C   0  0  0  0  0  0  0  0  0  0  0  0
   29.8396   31.5706   -7.5479 O   0  0  0  0  0  1  0  0  0  0  0  0
   32.6009   32.0416   -8.3522 S   0  0  0  0  0  0  0  0  0  0  0  0
   30.9066   31.6614   -5.1453 C   0  0  0  0  0  0  0  0  0  0  0  0
   31.9326   31.5300   -1.3718 N   0  0  0  0  0  0  0  0  0  0  0  0
   33.3919   29.3101    0.3701 C   0  0  0  0  0  0  0  0  0  0  0  0
   34.6441   20.8199    2.5258 C   0  0  0  0  0  0  0  0  0  0  0  0
   33.2068   29.6783   -8.5820 C   0  0  0  0  0  0  0  0  0  0  0  0
   33.7118   31.6567   -8.9328 C   0  0  0  0  0  0  0  0  0  0  0  0
   32.6691   24.0338   -0.3673 C   0  0  0  0  0  0  0  0  0  0  0  0
   33.1909   27.3284   -1.7038 N   0  0  0  0  0  0  0  0  0  0  0  0
   30.4065   30.7353   -6.7594 S   0  0  0  0  0  4  0  0  0  0  0  0
   32.5616   30.9614    1.4315 C   0  0  0  0  0  0  0  0  0  0  0  0
   30.1170   29.4714   -7.2365 O   0  0  0  0  0  1  0  0  0  0  0  0
   32.3208   29.4240   -2.2408 C   0  0  0  0  0  0  0  0  0  0  0  0
   35.0712   21.3974   -0.1774 O   0  0  0  0  0  0  0  0  0  0  0  0
   31.8773   29.5384   -4.5929 C   0  0  0  0  0  0  0  0  0  0  0  0
   31.6539   31.8995   -4.0353 C   0  0  0  0  0  0  0  0  0  0  0  0
   34.0643   23.6057   -0.3149 C   0  0  0  0  0  0  0  0  0  0  0  0
  3  2  2  0
  5  1  2  0
 14  8  1  0
 15  9  1  0
 16 10  1  0
 17  2  1  0
 17 11  2  0
 18 12  2  0
 20  7  1  0
 21 13  1  0
 22  8  2  0
 22  9  1  0
 23  1  1  0
 23 15  1  0
 24 16  1  0
 25  4  2  0
 25  7  1  0
 26  4  1  0
 26 20  1  0
 27 11  1  0
 28 17  1  0
 28 18  1  0
 29  7  1  0
 29 13  1  0
 29 19  1  0
 30  5  1  0
 30 15  2  0
 31 29  1  0
 32  9  1  0
 32 14  2  0
 32 18  1  0
 33 10  2  0
 34 14  1  0
 35  6  1  0
 35  8  1  0
 35 21  1  0
 36  3  1  0
 36 10  1  0
 36 27  2  0
M  RAD  2  19   2  31   2
M  END
>  <ID>  (1) 
conformer_0

$$$$
