
     RDKit          3D

 31 32  0  0  0  0  0  0  0  0999 V2000
   33.4221   29.1975    0.7369 C   0  0  0  0  0  0  0  0  0  0  0  0
   34.8608   24.1341   -0.3969 C   0  0  0  0  0  0  0  0  0  0  0  0
   33.6542   29.2691    2.0849 C   0  0  0  0  0  0  0  0  0  0  0  0
   32.6629   29.6217   -8.2367 C   0  0  0  0  0  0  0  0  0  0  0  0
   32.3837   24.9082   -0.5519 C   0  0  0  0  0  0  0  0  0  0  0  0
   31.9715   31.5013   -3.4089 C   0  0  1  0  0  0  0  0  0  0  0  0
   32.4928   30.4115   -1.4849 N   0  0  0  0  0  0  0  0  0  0  0  0
   31.7162   30.7849   -7.6300 C   0  0  0  0  0  0  0  0  0  0  0  0
   31.8442   33.2917   -4.4601 C   0  0  0  0  0  0  0  0  0  0  0  0
   32.5618   27.3081   -3.6554 O   0  0  0  0  0  0  0  0  0  0  0  0
   33.0625   27.2872   -1.2880 N   0  0  0  0  0  0  0  0  0  0  0  0
   33.3243   25.8464   -1.0799 C   0  0  0  0  0  0  0  0  0  0  0  0
   32.8657   30.5750    2.2963 C   0  0  0  0  0  0  0  0  0  0  0  0
   32.7279   30.2327   -0.1334 C   0  0  0  0  0  0  0  0  0  0  0  0
   31.9737   29.5407   -3.1860 C   0  0  0  0  0  0  0  0  0  0  0  0
   34.7235   25.4038   -0.7385 C   0  0  0  0  0  0  0  0  0  0  0  0
   32.1030   31.5246   -1.8479 N   0  0  0  0  0  0  0  0  0  0  0  0
   33.9997   21.3035    0.3485 O   0  0  0  0  0  0  0  0  0  0  0  0
   29.6703   29.6465   -6.8515 O   0  0  0  0  0  1  0  0  0  0  0  0
   32.4858   27.8633   -2.7346 C   0  0  0  0  0  0  0  0  0  0  0  0
   31.3785   31.3398   -7.4279 S   0  0  0  0  0  4  0  0  0  0  0  0
   35.1291   21.7533    0.8478 C   0  0  0  0  0  0  0  0  0  0  0  0
   33.4506   30.1731   -9.3046 C   0  0  0  0  0  0  0  0  0  0  0  0
   30.9837   31.0200   -5.6419 N   0  0  0  0  0  0  0  0  0  0  0  0
   29.7598   31.7506   -7.4022 O   0  0  0  0  0  1  0  0  0  0  0  0
   33.0455   23.7351   -0.1607 C   0  0  1  0  0  0  0  0  0  0  0  0
   31.3583   30.4886   -4.9700 C   0  0  0  0  0  0  0  0  0  0  0  0
   33.2880   31.5235   -8.8562 C   0  0  0  0  0  0  0  0  0  0  0  0
   32.4443   31.1567    1.1322 C   0  0  0  0  0  0  0  0  0  0  0  0
   32.3713   29.6372   -2.3628 C   0  0  0  0  0  0  0  0  0  0  0  0
   35.2673   21.5511    2.0402 F   0  0  0  0  0  0  0  0  0  0  0  0
  3  1  2  0
  8  4  1  0
  6  9  1  1
 12  5  2  0
 12 11  1  0
 13  3  1  0
 14  1  1  0
 14  7  1  0
 16  2  2  0
 16 12  1  0
 17  6  1  0
 17  7  1  0
 20 10  2  0
 20 11  1  0
 20 15  1  0
 21  8  1  0
 21 19  1  0
 22 18  1  0
 23  4  1  0
 24 21  1  0
 25 21  1  0
 26  2  1  0
 26  5  1  0
 26 18  1  6
 27  6  1  0
 27 24  1  0
 28 23  1  0
 29 13  2  0
 29 14  1  0
 30  7  1  0
 30 15  2  3
 31 22  1  0
M  RAD  2  19   2  25   2
M  END
>  <ID>  (1) 
conformer_0

$$$$
