
     RDKit          3D

 33 37  0  0  0  0  0  0  0  0999 V2000
   33.5675   28.9502    0.9312 C   0  0  0  0  0  0  0  0  0  0  0  0
   34.5451   24.1370   -0.3832 C   0  0  0  0  0  0  0  0  0  0  0  0
   33.7899   30.4678   -9.6196 C   0  0  0  0  0  0  0  0  0  0  0  0
   32.2257   25.1038   -0.4938 C   0  0  0  0  0  0  0  0  0  0  0  0
   33.7989   29.1951    2.1893 C   0  0  0  0  0  0  0  0  0  0  0  0
   32.1409   30.8051   -7.6213 C   0  0  0  0  0  0  0  0  0  0  0  0
   34.5461   20.9563    1.8862 C   0  0  0  0  0  0  0  0  0  0  0  0
   31.6565   31.2886   -2.5508 C   0  0  0  0  0  0  0  0  0  0  0  0
   32.6165   30.1973   -1.2584 N   0  0  0  0  0  0  0  0  0  0  0  0
   32.6940   32.1395   -8.5392 S   0  0  0  0  0  0  0  0  0  0  0  0
   31.5417   31.5315   -1.2602 N   0  0  0  0  0  0  0  0  0  0  0  0
   33.1787   26.1700   -1.0773 C   0  0  0  0  0  0  0  0  0  0  0  0
   32.8069   30.0742    0.0962 C   0  0  0  0  0  0  0  0  0  0  0  0
   34.6238   25.4072   -0.7523 C   0  0  0  0  0  0  0  0  0  0  0  0
   31.7629   30.1920   -3.1906 C   0  0  0  0  0  0  0  0  0  0  0  0
   32.7428   27.5140   -3.7317 O   0  0  0  0  0  0  0  0  0  0  0  0
   31.5024   31.4382   -5.3099 C   0  0  0  0  0  0  0  0  0  0  0  0
   31.8501   32.6843   -4.3889 C   0  0  0  0  0  0  0  0  0  0  0  0
   30.6752   31.5248   -5.7902 N   0  0  0  0  0  0  0  0  0  0  0  0
   33.0329   27.3399   -1.3322 N   0  0  0  0  0  0  0  0  0  0  0  0
   34.7113   21.5634   -0.0493 O   0  0  0  0  0  0  0  0  0  0  0  0
   32.4948   31.0934    1.3587 C   0  0  0  0  0  0  0  0  0  0  0  0
   34.0456   20.4409    2.9786 C   0  0  0  0  0  0  0  0  0  0  0  0
   29.9444   30.6503   -7.5408 O   0  0  0  0  0  0  0  0  0  0  0  0
   33.1870   29.8489   -8.6827 C   0  0  0  0  0  0  0  0  0  0  0  0
   32.6842   28.0406   -2.9241 C   0  0  0  0  0  0  0  0  0  0  0  0
   32.9631   23.9542   -0.1628 C   0  0  0  0  0  0  0  0  0  0  0  0
   32.5843   29.3430   -2.2193 C   0  0  0  0  0  0  0  0  0  0  0  0
   33.4981   31.5559   -8.9769 C   0  0  0  0  0  0  0  0  0  0  0  0
   34.6655   22.2052    0.2723 C   0  0  0  0  0  0  0  0  0  0  0  0
   30.8581   31.0249   -7.2380 S   0  0  0  0  0  0  0  0  0  0  0  0
   35.6842   21.1351    1.6297 O   0  0  0  0  0  0  0  0  0  0  0  0
   33.0139   30.5056    2.4620 C   0  0  0  0  0  0  0  0  0  0  0  0
  5  1  2  0
 10  6  1  0
 11  8  2  0
 11  9  1  0
 12  4  2  0
 13  1  1  0
 13  9  1  0
 14  2  2  0
 14 12  1  0
 15  8  1  0
 18  8  1  0
 18 17  1  0
 19 17  1  0
 20 12  1  0
 22 13  1  0
 23  7  1  0
 24 19  1  0
 25  3  1  0
 25  6  1  0
 26 16  2  0
 26 20  1  0
 27  2  1  0
 27  4  1  0
 28  9  1  0
 28 15  2  0
 28 26  1  0
 29  3  1  0
 29 10  1  0
 29 25  1  0
 30  2  1  0
 30  7  1  0
 30 21  2  0
 31  6  1  0
 31 24  1  0
 32  7  2  0
 33  5  1  0
 33 22  2  0
M  END
>  <ID>  (1) 
conformer_0

$$$$
