
     RDKit          3D

 34 38  0  0  0  0  0  0  0  0999 V2000
   34.8020   25.4395   -0.8517 C   0  0  0  0  0  0  0  0  0  0  0  0
   33.4827   29.1858    0.7251 C   0  0  0  0  0  0  0  0  0  0  0  0
   32.9033   30.1221   -8.7334 C   0  0  0  0  0  0  0  0  0  0  0  0
   35.1958   24.1821   -0.5065 C   0  0  0  0  0  0  0  0  0  0  0  0
   33.7546   29.1958    2.0609 C   0  0  0  0  0  0  0  0  0  0  0  0
   32.5937   30.2770   -1.5967 N   0  0  0  0  0  0  0  0  0  0  0  0
   32.4957   32.2446   -8.3060 S   0  0  0  0  0  0  0  0  0  0  0  0
   31.8276   31.2714   -3.3663 C   0  0  0  0  0  0  0  0  0  0  0  0
   32.1927   31.6100   -1.9824 N   0  0  0  0  0  0  0  0  0  0  0  0
   33.3142   27.5753   -1.3507 N   0  0  0  0  0  0  0  0  0  0  0  0
   34.6522   20.8423    2.4556 C   0  0  0  0  0  0  0  0  0  0  0  0
   32.5760   25.2729   -0.6262 C   0  0  0  0  0  0  0  0  0  0  0  0
   33.0313   27.4897   -3.7242 O   0  0  0  0  0  0  0  0  0  0  0  0
   31.9179   31.1169   -7.8495 C   0  0  0  0  0  0  0  0  0  0  0  0
   32.4762   31.1164    1.2295 C   0  0  0  0  0  0  0  0  0  0  0  0
   32.7887   30.3351   -0.1584 C   0  0  0  0  0  0  0  0  0  0  0  0
   31.6954   29.8487   -3.5315 C   0  0  0  0  0  0  0  0  0  0  0  0
   33.5054   26.0231   -1.1209 C   0  0  0  0  0  0  0  0  0  0  0  0
   29.9324   29.6228   -6.9740 O   0  0  0  0  0  1  0  0  0  0  0  0
   30.4828   30.9710   -6.7933 S   0  0  0  0  0  4  0  0  0  0  0  0
   35.2791   21.6247    0.8836 O   0  0  0  0  0  0  0  0  0  0  0  0
   31.2322   30.8314   -5.2222 C   0  0  0  0  0  0  0  0  0  0  0  0
   32.7615   24.0097   -0.1421 C   0  0  0  0  0  0  0  0  0  0  0  0
   33.6036   30.4724   -9.8262 C   0  0  0  0  0  0  0  0  0  0  0  0
   33.0395   27.9619   -2.2902 C   0  0  0  0  0  0  0  0  0  0  0  0
   34.9364   20.5125    2.7606 F   0  0  0  0  0  0  0  0  0  0  0  0
   32.4461   29.4476   -2.3418 C   0  0  0  0  0  0  0  0  0  0  0  0
   32.9394   30.4903    2.3692 C   0  0  0  0  0  0  0  0  0  0  0  0
   34.7161   21.9816    0.4986 C   0  0  0  0  0  0  0  0  0  0  0  0
   33.6990   31.6832   -9.2186 C   0  0  0  0  0  0  0  0  0  0  0  0
   31.6246   31.8522   -4.7976 C   0  0  0  0  0  0  0  0  0  0  0  0
   33.8451   20.9896    1.0702 F   0  0  0  0  0  0  0  0  0  0  0  0
   29.3295   31.4619   -7.1423 O   0  0  0  0  0  1  0  0  0  0  0  0
   34.1442   23.4269   -0.1528 C   0  0  0  0  0  0  0  0  0  0  0  0
  4  1  2  0
  5  2  2  0
  9  6  1  0
  9  8  2  0
 14  3  1  0
 14  7  1  0
 16  2  1  0
 16  6  1  0
 16 15  1  0
 17  8  1  0
 18  1  1  0
 18 10  1  0
 18 12  2  0
 20 14  1  0
 20 19  1  0
 21 11  1  0
 22 20  1  0
 23 12  1  0
 24  3  1  0
 25 10  1  0
 25 13  2  0
 26 11  1  0
 27  6  1  0
 27 17  2  0
 27 25  1  0
 28  5  1  0
 28 15  2  0
 29 21  1  0
 30  3  1  0
 30  7  1  0
 30 24  1  0
 31  8  1  0
 31 22  1  0
 32 29  1  0
 33 20  1  0
 34  4  1  0
 34 23  2  0
 34 29  1  0
M  RAD  2  19   2  33   2
M  END
>  <ID>  (1) 
conformer_0

$$$$
