
     RDKit          3D

 35 39  0  0  0  0  0  0  0  0999 V2000
   34.7603   24.0667   -0.5016 C   0  0  0  0  0  0  0  0  0  0  0  0
   33.5358   29.0211    0.7505 C   0  0  0  0  0  0  0  0  0  0  0  0
   32.9196   29.7972   -8.5761 C   0  0  0  0  0  0  0  0  0  0  0  0
   32.2796   24.1093   -0.1913 C   0  0  0  0  0  0  0  0  0  0  0  0
   33.9235   28.8282    2.0877 C   0  0  0  0  0  0  0  0  0  0  0  0
   32.5745   30.2584   -1.4738 N   0  0  0  0  0  0  0  0  0  0  0  0
   31.9545   30.8651   -7.7358 C   0  0  1  0  0  0  0  0  0  0  0  0
   31.4817   31.0740   -5.7124 N   0  0  0  0  0  0  0  0  0  0  0  0
   31.9713   31.5093   -2.6459 C   0  0  0  0  0  0  0  0  0  0  0  0
   32.2003   31.3980   -1.0191 N   0  0  0  0  0  0  0  0  0  0  0  0
   32.7960   27.3763   -3.7591 O   0  0  0  0  0  0  0  0  0  0  0  0
   32.8406   30.2130    0.1925 C   0  0  0  0  0  0  0  0  0  0  0  0
   33.2255   27.3584   -1.4034 N   0  0  0  0  0  0  0  0  0  0  0  0
   33.2725   25.9506   -1.1708 C   0  0  0  0  0  0  0  0  0  0  0  0
   34.4476   22.2477    0.1957 C   0  0  0  0  0  0  0  0  0  0  0  0
   32.1048   25.3589   -0.7229 C   0  0  0  0  0  0  0  0  0  0  0  0
   31.4333   31.9461   -4.9515 C   0  0  0  0  0  0  0  0  0  0  0  0
   31.7390   30.2964   -3.2372 C   0  0  0  0  0  0  0  0  0  0  0  0
   32.3951   32.2160   -8.3956 S   0  0  0  0  0  0  0  0  0  0  0  0
   30.1294   29.6910   -6.9890 O   0  0  0  0  0  0  0  0  0  0  0  0
   32.6397   30.9164    1.5921 C   0  0  0  0  0  0  0  0  0  0  0  0
   34.3025   20.9535   -0.0013 O   0  0  0  0  0  0  0  0  0  0  0  0
   34.2935   20.7977    3.4852 C   0  0  0  0  0  0  0  0  0  0  0  0
   33.6384   31.7236   -8.9311 C   0  0  0  0  0  0  0  0  0  0  0  0
   31.8319   32.7808   -3.8966 C   0  0  0  0  0  0  0  0  0  0  0  0
   32.9014   27.8559   -2.5759 C   0  0  0  0  0  0  0  0  0  0  0  0
   33.7663   30.4867   -9.6107 C   0  0  0  0  0  0  0  0  0  0  0  0
   34.5233   25.3424   -0.8403 C   0  0  0  0  0  0  0  0  0  0  0  0
   32.5346   29.4163   -2.3808 C   0  0  0  0  0  0  0  0  0  0  0  0
   30.8422   30.4436   -6.7459 S   0  0  0  0  0  0  0  0  0  0  0  0
   34.4771   20.9232    2.2132 C   0  0  0  0  0  0  0  0  0  0  0  0
   35.0904   21.4168    1.5318 F   0  0  0  0  0  0  0  0  0  0  0  0
   33.3134   30.1046    2.6324 C   0  0  0  0  0  0  0  0  0  0  0  0
   32.1122   29.7475   -4.7144 C   0  0  0  0  0  0  0  0  0  0  0  0
   33.5839   23.3623   -0.1548 C   0  0  0  0  0  0  0  0  0  0  0  0
  5  2  2  0
  7  3  1  0
 10  6  1  0
 10  9  2  0
 12  2  1  0
 12  6  1  0
 14 13  1  0
 16  4  1  0
 16 14  2  0
 17  8  1  0
 18  9  1  0
 19  7  1  0
  7 20  1  6
 21 12  1  0
 22 15  1  0
 24 19  1  0
 25  9  1  0
 25 17  1  0
 26 11  2  0
 26 13  1  0
 27  3  1  0
 27 24  1  0
 28  1  2  0
 28 14  1  0
 29  6  1  0
 29 18  2  0
 29 26  1  0
 30  8  1  0
 30 20  1  0
 31 22  1  0
 31 23  2  3
 32 31  1  0
 33  5  1  0
 33 21  2  0
 34  8  1  0
 34 18  1  0
 35  1  1  0
 35  4  2  0
 35 15  1  0
M  END
>  <ID>  (1) 
conformer_0

$$$$
