
     RDKit          3D

 33 36  0  0  0  0  0  0  0  0999 V2000
   34.9142   24.0061   -0.4196 C   0  0  0  0  0  0  0  0  0  0  0  0
   33.4532   29.2388    0.8101 C   0  0  0  0  0  0  0  0  0  0  0  0
   32.9379   29.6552   -8.5861 C   0  0  0  0  0  0  0  0  0  0  0  0
   32.5673   25.0351   -0.4855 C   0  0  0  0  0  0  0  0  0  0  0  0
   33.5925   29.3991    2.1232 C   0  0  0  0  0  0  0  0  0  0  0  0
   31.4591   29.8677   -3.3647 C   0  0  0  0  0  0  0  0  0  0  0  0
   32.5720   30.4027   -1.8913 N   0  0  0  0  0  0  0  0  0  0  0  0
   32.6677   30.3199   -0.3160 C   0  0  0  0  0  0  0  0  0  0  0  0
   34.5976   22.1145    0.1378 C   0  0  0  0  0  0  0  0  0  0  0  0
   33.4832   26.0976   -1.0220 C   0  0  0  0  0  0  0  0  0  0  0  0
   31.8730   30.5365   -7.6843 C   0  0  0  0  0  0  0  0  0  0  0  0
   32.8859   27.3894   -3.4742 O   0  0  0  0  0  0  0  0  0  0  0  0
   33.1238   27.4150   -1.2616 N   0  0  0  0  0  0  0  0  0  0  0  0
   34.9140   25.3367   -0.7601 C   0  0  0  0  0  0  0  0  0  0  0  0
   32.4713   31.3230    1.1459 C   0  0  0  0  0  0  0  0  0  0  0  0
   32.1904   31.7650   -8.6524 S   0  0  0  0  0  0  0  0  0  0  0  0
   33.0001   28.3761   -2.0307 C   0  0  0  0  0  0  0  0  0  0  0  0
   34.6051   21.3971   -0.2318 O   0  0  0  0  0  0  0  0  0  0  0  0
   31.5598   32.0010   -5.0672 C   0  0  0  0  0  0  0  0  0  0  0  0
   31.2670   30.6500   -3.8856 C   0  0  0  0  0  0  0  0  0  0  0  0
   31.7748   33.5513   -4.5841 C   0  0  0  0  0  0  0  0  0  0  0  0
   30.2964   29.3919   -6.9137 O   0  0  0  0  0  1  0  0  0  0  0  0
   31.7447   31.3614   -1.6945 N   0  0  0  0  0  0  0  0  0  0  0  0
   33.3317   23.8700   -0.2000 C   0  0  0  0  0  0  0  0  0  0  0  0
   31.3393   31.5469   -5.7588 N   0  0  0  0  0  0  0  0  0  0  0  0
   33.4845   31.3236   -9.0991 C   0  0  0  0  0  0  0  0  0  0  0  0
   33.5287   30.3082   -9.6349 C   0  0  0  0  0  0  0  0  0  0  0  0
   32.8593   30.6797    2.2878 C   0  0  0  0  0  0  0  0  0  0  0  0
   32.0378   31.4865   -3.1242 C   0  0  0  0  0  0  0  0  0  0  0  0
   34.4929   20.8959    1.9467 C   0  0  0  0  0  0  0  0  0  0  0  0
   30.8528   30.5445   -6.8608 S   0  0  0  0  0  4  0  0  0  0  0  0
   29.9324   31.6703   -7.4792 O   0  0  0  0  0  1  0  0  0  0  0  0
   34.2716   21.7127    1.5606 O   0  0  0  0  0  0  0  0  0  0  0  0
  5  2  2  0
  8  2  1  0
  8  7  1  0
  9  1  1  0
 10  4  2  0
 11  3  1  0
 13 10  1  0
 14  1  2  0
 14 10  1  0
 15  8  1  0
 16 11  1  0
 17  6  1  0
 17 12  1  0
 17 13  1  0
 18  9  2  0
 20  6  1  0
 20 19  1  0
 21 19  1  0
 23  7  1  0
 24  1  1  0
 24  4  1  0
 25 19  1  0
 26 16  1  0
 27  3  1  0
 27 26  1  0
 28  5  1  0
 28 15  2  0
 29  7  1  0
 29 20  1  0
 29 23  1  0
 31 11  1  0
 31 22  1  0
 31 25  1  0
 32 31  1  0
 33  9  1  0
 33 30  1  0
M  RAD  2  22   2  32   2
M  END
>  <ID>  (1) 
conformer_0

$$$$
