
     RDKit          3D

 34 37  0  0  0  0  0  0  0  0999 V2000
   32.7734   30.6892    2.0523 C   0  0  0  0  0  0  0  0  0  0  0  0
   33.0983   23.6744   -0.2042 C   0  0  0  0  0  0  0  0  0  0  0  0
   33.8395   30.1320   -9.4500 C   0  0  0  0  0  0  0  0  0  0  0  0
   32.4741   24.9397   -0.5716 C   0  0  0  0  0  0  0  0  0  0  0  0
   33.4804   29.1624    1.9031 C   0  0  0  0  0  0  0  0  0  0  0  0
   31.7287   30.7747   -7.5306 C   0  0  0  0  0  0  0  0  0  0  0  0
   32.6449   30.8293    0.0057 C   0  0  0  0  0  0  0  0  0  0  0  0
   32.3348   29.3710   -2.6963 C   0  0  0  0  0  0  0  0  0  0  0  0
   34.5730   21.9307    0.2945 C   0  0  0  0  0  0  0  0  0  0  0  0
   33.2345   27.4996   -1.1704 N   0  0  0  0  0  0  0  0  0  0  0  0
   33.3743   26.0359   -0.8818 C   0  0  0  0  0  0  0  0  0  0  0  0
   32.2723   31.4172   -1.3570 N   0  0  0  0  0  0  0  0  0  0  0  0
   34.8169   25.0637   -0.7530 C   0  0  0  0  0  0  0  0  0  0  0  0
   30.1804   29.3209   -6.9426 O   0  0  0  0  0  0  0  0  0  0  0  0
   31.9845   32.9888   -3.6781 C   0  0  0  0  0  0  0  0  0  0  0  0
   32.9925   27.5976   -3.6933 O   0  0  0  0  0  0  0  0  0  0  0  0
   34.7442   21.0911   -0.0813 O   0  0  0  0  0  0  0  0  0  0  0  0
   32.4756   31.4829    1.0542 C   0  0  0  0  0  0  0  0  0  0  0  0
   32.8703   29.7279   -8.0405 C   0  0  0  0  0  0  0  0  0  0  0  0
   30.8203   30.6873   -6.6937 S   0  0  0  0  0  6  0  0  0  0  0  0
   31.8408   31.2997   -4.8610 C   0  0  0  0  0  0  0  0  0  0  0  0
   32.7320   29.5020   -1.4722 C   0  0  0  0  0  0  0  0  0  0  0  0
   32.3194   30.6689   -1.6071 N   0  0  0  0  0  0  0  0  0  0  0  0
   31.3994   31.0862   -5.5794 N   0  0  0  0  0  0  0  0  0  0  0  0
   34.6678   23.7540   -0.3867 C   0  0  2  0  0  0  0  0  0  0  0  0
   29.8893   31.4052   -7.0049 O   0  0  0  0  0  0  0  0  0  0  0  0
   34.6425   21.2032    2.1206 F   0  0  0  0  0  0  0  0  0  0  0  0
   34.5210   20.8260    2.1544 C   0  0  0  0  0  0  0  0  0  0  0  0
   32.5783   28.7338   -3.6759 C   0  0  0  0  0  0  0  0  0  0  0  0
   33.2179   31.6552   -9.0366 C   0  0  0  0  0  0  0  0  0  0  0  0
   33.3730   29.1892    0.6422 C   0  0  0  0  0  0  0  0  0  0  0  0
   33.0035   31.6643   -8.6156 C   0  0  0  0  0  0  0  0  0  0  0  0
   31.7151   31.1429   -3.0758 C   0  0  0  0  0  0  0  0  0  0  0  0
   31.3192   30.9116   -3.6306 C   0  0  0  0  0  0  0  0  0  0  0  0
  4  2  2  0
  5  1  2  0
 11  4  1  0
 11 10  1  0
 12  7  1  0
 13 11  2  0
 17  9  2  0
 18  1  1  0
 18  7  1  0
 19  3  2  0
 19  6  1  0
 20  6  1  0
 20 14  1  0
 20 15  1  0
 22  8  1  0
 22 10  1  0
 23 12  1  0
 23 22  2  0
 24 20  1  0
 24 21  1  0
 25  2  1  0
 25  9  1  1
 25 13  1  0
 26 20  1  0
 28  9  1  0
 28 27  1  0
 29  8  1  0
 29 16  2  0
 30  3  1  0
 31  5  1  0
 31  7  2  0
 32  6  2  0
 32 30  1  0
 33  8  2  0
 33 12  1  0
 34 21  2  3
 34 33  1  0
M  END
>  <ID>  (1) 
conformer_0

$$$$
