
     RDKit          3D

 35 40  0  0  0  0  0  0  0  0999 V2000
   33.5814   29.1190    0.9271 C   0  0  0  0  0  0  0  0  0  0  0  0
   35.1532   24.2719   -0.4041 C   0  0  0  0  0  0  0  0  0  0  0  0
   32.4581   25.3897   -0.5417 C   0  0  0  0  0  0  0  0  0  0  0  0
   33.6454   30.1565   -9.3459 C   0  0  0  0  0  0  0  0  0  0  0  0
   32.8667   30.4671    2.4582 C   0  0  0  0  0  0  0  0  0  0  0  0
   34.7818   21.0193    2.3563 C   0  0  0  0  0  0  0  0  0  0  0  0
   32.0096   30.5878   -7.5998 C   0  0  0  0  0  0  0  0  0  0  0  0
   32.5903   30.4339   -1.5522 N   0  0  0  0  0  0  0  0  0  0  0  0
   32.0308   31.5334   -3.0724 C   0  0  0  0  0  0  0  0  0  0  0  0
   33.4925   26.1144   -1.1006 C   0  0  0  0  0  0  0  0  0  0  0  0
   34.8751   25.5391   -0.8212 C   0  0  0  0  0  0  0  0  0  0  0  0
   33.2948   27.3332   -1.5087 N   0  0  0  0  0  0  0  0  0  0  0  0
   32.8773   27.5589   -3.8924 O   0  0  0  0  0  0  0  0  0  0  0  0
   32.1630   29.7528   -3.3322 C   0  0  0  0  0  0  0  0  0  0  0  0
   33.4248   21.2414    0.6718 O   0  0  0  0  0  0  0  0  0  0  0  0
   32.8959   30.0215    0.1265 C   0  0  0  0  0  0  0  0  0  0  0  0
   31.2355   32.0095   -5.0667 C   0  0  0  0  0  0  0  0  0  0  0  0
   31.0506   30.8450   -5.8207 N   0  0  0  0  0  0  0  0  0  0  0  0
   32.6540   32.0619   -8.3701 S   0  0  0  0  0  0  0  0  0  0  0  0
   32.3929   31.2743   -1.6882 N   0  0  0  0  0  0  0  0  0  0  0  0
   32.4964   30.9616    1.2064 C   0  0  0  0  0  0  0  0  0  0  0  0
   29.5264   31.3236   -7.5537 O   0  0  0  0  0  1  0  0  0  0  0  0
   32.0040   29.4994   -4.9836 C   0  0  0  0  0  0  0  0  0  0  0  0
   30.4623   30.6818   -6.9836 S   0  0  0  0  0  4  0  0  0  0  0  0
   33.5384   31.1824   -9.0568 C   0  0  0  0  0  0  0  0  0  0  0  0
   32.6755   29.3821   -2.1915 C   0  0  0  0  0  0  0  0  0  0  0  0
   32.6991   24.1968    0.0488 C   0  0  0  0  0  0  0  0  0  0  0  0
   31.8195   32.5889   -4.5844 C   0  0  0  0  0  0  0  0  0  0  0  0
   34.4245   22.1624    0.6613 C   0  0  0  0  0  0  0  0  0  0  0  0
   33.7409   29.2715    2.3550 C   0  0  0  0  0  0  0  0  0  0  0  0
   32.9546   28.1342   -2.9279 C   0  0  0  0  0  0  0  0  0  0  0  0
   32.8869   29.5532   -8.2445 C   0  0  0  0  0  0  0  0  0  0  0  0
   29.7917   29.4594   -6.9127 O   0  0  0  0  0  1  0  0  0  0  0  0
   33.9835   23.6295   -0.0057 C   0  0  0  0  0  0  0  0  0  0  0  0
   35.1319   21.2011    0.2082 O   0  0  0  0  0  0  0  0  0  0  0  0
 10  3  2  0
 11  2  2  0
 11 10  1  0
 12 10  1  0
 14  9  1  0
 16  1  2  0
 16  8  1  0
 18 17  1  0
 19  7  1  0
 20  8  1  0
 20  9  2  0
 21  5  2  0
 21 16  1  0
 23 14  1  0
 23 18  1  0
 24  7  1  0
 24 18  1  0
 24 22  1  0
 25  4  1  0
 25 19  1  0
 26  8  1  0
 26 14  2  0
 27  3  1  0
 28  9  1  0
 28 17  1  0
 29  6  1  0
 29 15  1  0
 30  1  1  0
 30  5  1  0
 31 12  1  0
 31 13  2  0
 31 26  1  0
 32  4  1  0
 32  7  1  0
 33 24  1  0
 34  2  1  0
 34 27  2  0
 34 29  1  0
 35 15  1  0
 35 29  1  0
M  RAD  2  22   2  33   2
M  END
>  <ID>  (1) 
conformer_0

$$$$
