
     RDKit          3D

 34 38  0  0  0  0  0  0  0  0999 V2000
   32.4227   25.2185   -0.7259 C   0  0  0  0  0  0  0  0  0  0  0  0
   33.3506   29.0375    0.8187 C   0  0  0  0  0  0  0  0  0  0  0  0
   33.6883   30.3135   -9.3382 C   0  0  0  0  0  0  0  0  0  0  0  0
   34.9723   24.2818   -0.5261 C   0  0  0  0  0  0  0  0  0  0  0  0
   33.1326   30.5053    2.5350 C   0  0  0  0  0  0  0  0  0  0  0  0
   32.0534   30.6827   -7.3253 C   0  0  0  0  0  0  0  0  0  0  0  0
   32.0908   31.5055   -1.3888 N   0  0  0  0  0  0  0  0  0  0  0  0
   32.7564   30.0214    0.2915 C   0  0  0  0  0  0  0  0  0  0  0  0
   32.0312   29.8997   -3.1469 C   0  0  0  0  0  3  0  0  0  0  0  0
   33.0111   27.5569   -1.2206 N   0  0  0  0  0  0  0  0  0  0  0  0
   32.4472   30.4018   -1.3640 N   0  0  0  0  0  0  0  0  0  0  0  0
   32.8159   27.5684   -3.7947 O   0  0  0  0  0  0  0  0  0  0  0  0
   33.2886   26.2839   -1.1791 C   0  0  0  0  0  0  0  0  0  0  0  0
   34.2369   21.5081    0.1919 O   0  0  0  0  0  0  0  0  0  0  0  0
   31.8501   31.3893   -2.9190 C   0  0  0  0  0  0  0  0  0  0  0  0
   32.5937   31.0945    1.4409 C   0  0  0  0  0  0  0  0  0  0  0  0
   29.8126   29.8811   -6.7137 O   0  0  0  0  0  1  0  0  0  0  0  0
   32.9714   29.5313   -8.3618 C   0  0  0  0  0  0  0  0  0  0  0  0
   31.4299   31.7535   -4.7138 C   0  0  0  0  0  0  0  0  0  0  0  0
   34.7317   25.5845   -0.8287 C   0  0  0  0  0  0  0  0  0  0  0  0
   32.3619   32.0912   -8.1722 S   0  0  0  0  0  0  0  0  0  0  0  0
   32.4264   28.4826   -3.4479 C   0  0  0  0  0  0  0  0  0  0  0  0
   34.6066   20.4120    3.1886 C   0  0  0  0  0  0  0  0  0  0  0  0
   31.8605   33.4097   -4.6045 C   0  0  0  0  0  0  0  0  0  0  0  0
   34.0322   23.2375   -0.2128 C   0  0  0  0  0  0  0  0  0  0  0  0
   33.2635   31.5731   -8.6730 C   0  0  0  0  0  0  0  0  0  0  0  0
   30.7862   31.5952   -5.1308 N   0  0  0  0  0  0  0  0  0  0  0  0
   34.6885   21.0378    1.9550 C   0  0  0  0  0  0  0  0  0  0  0  0
   31.9632   30.7120   -5.5766 N   0  0  0  0  0  0  0  0  0  0  0  0
   32.9429   24.0478   -0.2513 C   0  0  0  0  0  0  0  0  0  0  0  0
   32.5461   29.3186   -1.7752 C   0  0  0  0  0  0  0  0  0  0  0  0
   30.5048   30.4361   -6.6105 S   0  0  0  0  0  3  0  0  0  0  0  0
   33.7234   29.1148    2.2389 C   0  0  0  0  0  0  0  0  0  0  0  0
   34.8606   21.4617    0.5324 S   0  0  0  0  0  0  0  0  0  0  0  0
  8  2  2  0
 11  7  1  0
 11  8  1  0
 13  1  2  0
 13 10  1  0
 15  7  2  0
 15  9  1  0
 16  5  2  0
 16  8  1  0
 18  3  2  0
 18  6  1  0
 19 15  1  0
 20  4  2  0
 20 13  1  0
 21  6  1  0
 22  9  1  0
 22 12  2  0
 24  6  1  0
 24 19  1  0
 25  4  1  0
 25 14  1  0
 26  3  1  0
 26 21  1  0
 27 19  1  0
 28 23  1  0
 29 19  1  0
 30  1  1  0
 30 25  2  0
 31  9  1  0
 31 10  1  0
 31 11  1  0
 31 22  1  0
 32  6  1  0
 32 17  1  0
 33  2  1  0
 33  5  1  0
 34 14  1  0
 34 28  1  0
M  RAD  3   9   2  17   2  32   2
M  END
>  <ID>  (1) 
conformer_0

$$$$
