
     RDKit          3D

 32 35  0  0  0  0  0  0  0  0999 V2000
   34.5417   23.7666   -0.4028 C   0  0  0  0  0  0  0  0  0  0  0  0
   33.4564   29.3190    0.5752 C   0  0  0  0  0  0  0  0  0  0  0  0
   33.5817   30.1424   -9.3205 C   0  0  0  0  0  0  0  0  0  0  0  0
   34.7504   25.0123   -0.7544 C   0  0  0  0  0  0  0  0  0  0  0  0
   33.7530   28.9035    1.8640 C   0  0  0  0  0  0  0  0  0  0  0  0
   32.6162   29.3047   -2.3933 C   0  0  0  0  0  3  0  0  0  0  0  0
   31.9839   30.8382   -7.3471 C   0  0  0  0  0  0  0  0  0  0  0  0
   31.4885   30.3153   -3.5504 C   0  0  0  0  0  0  0  0  0  0  0  0
   33.3187   27.5601   -1.3590 N   0  0  0  0  0  0  0  0  0  0  0  0
   32.4394   30.3500   -1.6160 N   0  0  0  0  0  0  0  0  0  0  0  0
   34.8984   21.7918    0.5154 C   0  0  0  0  0  0  0  0  0  0  0  0
   33.3397   25.9553   -1.0043 C   0  0  0  0  0  0  0  0  0  0  0  0
   32.3041   24.8927   -0.6492 C   0  0  0  0  0  0  0  0  0  0  0  0
   32.4491   32.2235   -8.6677 S   0  0  0  0  0  0  0  0  0  0  0  0
   32.8826   27.5123   -3.8507 O   0  0  0  0  0  0  0  0  0  0  0  0
   32.1312   31.4623   -1.1057 N   0  0  0  0  0  0  0  0  0  0  0  0
   32.7749   30.3775    0.0295 C   0  0  0  0  0  0  0  0  0  0  0  0
   30.8049   31.3861   -5.3669 N   0  0  0  0  0  0  0  0  0  0  0  0
   32.5555   31.1342    1.5507 C   0  0  0  0  0  0  0  0  0  0  0  0
   30.9968   31.8250   -4.6056 C   0  0  0  0  0  0  0  0  0  0  0  0
   32.1147   29.5292   -4.8179 C   0  0  0  0  0  0  0  0  0  0  0  0
   35.2771   21.4580    1.7551 F   0  0  0  0  0  0  0  0  0  0  0  0
   32.9783   23.6545   -0.2373 C   0  0  0  0  0  0  0  0  0  0  0  0
   31.7202   31.2424   -2.8615 C   0  0  0  0  0  0  0  0  0  0  0  0
   33.3566   31.2219   -9.1679 C   0  0  0  0  0  0  0  0  0  0  0  0
   33.1134   30.1691    2.5115 C   0  0  0  0  0  0  0  0  0  0  0  0
   29.6256   30.6533   -6.9295 O   0  0  0  0  0  0  0  0  0  0  0  0
   32.8296   29.7869   -8.0853 C   0  0  0  0  0  0  0  0  0  0  0  0
   33.8728   21.1498    0.2433 F   0  0  0  0  0  0  0  0  0  0  0  0
   30.7446   31.6149   -6.9986 S   0  0  0  0  0  0  0  0  0  0  0  0
   35.8289   21.6320   -0.2187 F   0  0  0  0  0  0  0  0  0  0  0  0
   32.9371   27.8596   -2.5947 C   0  0  0  0  0  0  0  0  0  0  0  0
  4  1  2  0
  5  2  2  0
  8  6  1  0
 10  6  1  0
 11  1  1  0
 12  4  1  0
 12  9  1  0
 13 12  2  0
 14  7  1  0
 16 10  1  0
 17  2  1  0
 17 10  1  0
 19 17  1  0
 20  8  1  0
 20 18  1  0
 21  8  1  0
 22 11  1  0
 23  1  1  0
 23 13  1  0
 24  8  1  0
 24 16  2  0
 25  3  1  0
 25 14  1  0
 26  5  1  0
 26 19  2  0
 27 18  1  0
 28  3  2  0
 28  7  1  0
 29 11  1  0
 30  7  1  0
 30 27  1  0
 31 11  1  0
 32  6  1  0
 32  9  1  0
 32 15  2  0
M  RAD  1   6   2
M  END
>  <ID>  (1) 
conformer_0

$$$$
