
     RDKit          3D

 29 31  0  0  0  0  0  0  0  0999 V2000
   34.7906   24.0985   -0.4234 C   0  0  0  0  0  0  0  0  0  0  0  0
   33.0640   29.7768   -8.7366 C   0  0  0  0  0  0  0  0  0  0  0  0
   33.3021   29.1431    0.6487 C   0  0  0  0  0  0  0  0  0  0  0  0
   33.7149   28.9567    1.9394 C   0  0  0  0  0  0  0  0  0  0  0  0
   32.4050   25.0659   -0.5661 C   0  0  0  0  0  3  0  0  0  0  0  0
   31.6714   30.4079   -3.5142 C   0  0  0  0  0  0  0  0  0  0  0  0
   32.4623   31.0661   -8.2177 C   0  0  2  0  0  0  0  0  0  0  0  0
   33.0747   27.5006   -3.5040 O   0  0  0  0  0  0  0  0  0  0  0  0
   32.2777   31.5882   -1.4954 N   0  0  0  0  0  0  0  0  0  0  0  0
   31.8397   30.9757   -2.8701 C   0  0  0  0  0  0  0  0  0  0  0  0
   32.7504   32.0144   -8.3919 S   0  0  0  0  0  0  0  0  0  0  0  0
   30.6043   31.5790   -6.1743 N   0  0  0  0  0  0  0  0  0  0  0  0
   34.4689   21.4344    0.2745 O   0  0  0  0  0  0  0  0  0  0  0  0
   34.6735   25.3897   -0.7379 C   0  0  0  0  0  0  0  0  0  0  0  0
   32.9531   27.7118   -1.2979 N   0  0  0  0  0  0  0  0  0  0  0  0
   32.6047   30.2780   -0.4103 C   0  0  0  0  0  0  0  0  0  0  0  0
   32.5070   30.9980    1.3493 C   0  0  0  0  0  0  0  0  0  0  0  0
   34.4950   21.4160    1.5159 C   0  0  0  0  0  0  0  0  0  0  0  0
   32.3541   30.4875   -1.5957 N   0  0  0  0  0  0  0  0  0  0  0  0
   32.8503   28.0811   -2.2436 C   0  0  0  0  0  0  0  0  0  0  0  0
   31.5577   32.6032   -4.4910 C   0  0  0  0  0  0  0  0  0  0  0  0
   33.3376   25.9338   -0.9952 C   0  0  2  0  0  0  0  0  0  0  0  0
   29.8031   30.8321   -7.8312 O   0  0  0  0  0  1  0  0  0  0  0  0
   34.2326   20.5277    3.0215 C   0  0  0  0  0  0  0  0  0  0  0  0
   33.6668   30.4319   -9.7069 C   0  0  0  0  0  0  0  0  0  0  0  0
   31.0757   31.5642   -5.5194 C   0  0  2  0  0  0  0  0  0  0  0  0
   32.9363   23.8689   -0.2381 C   0  0  0  0  0  0  0  0  0  0  0  0
   33.0491   30.2432    2.4612 C   0  0  0  0  0  0  0  0  0  0  0  0
   30.6804   31.1107   -7.5317 S   0  0  0  0  0  3  0  0  0  0  0  0
  4  3  2  0
  7  2  1  0
 10  6  2  3
  7 11  1  1
 13  1  1  0
 14  1  2  0
 16  3  1  0
 17 16  1  0
 18 13  1  0
 19  9  1  0
 19 10  1  0
 19 16  1  0
 20  8  1  0
 20 15  1  0
 21 10  1  0
 22  3  1  0
 22  5  1  0
 22 14  1  0
 22 15  1  6
 24 18  1  0
 25  2  2  0
 25 11  1  0
 26  7  1  0
 26 12  1  0
 26 21  1  6
 27  1  1  0
 27  5  1  0
 28  4  1  0
 28 17  2  0
 29 12  1  0
 29 23  1  0
M  RAD  3   5   2  23   2  29   2
M  END
>  <ID>  (1) 
conformer_0

$$$$
