
     RDKit          3D

 33 36  0  0  0  0  0  0  0  0999 V2000
   33.2763   29.1689    0.7470 C   0  0  0  0  0  0  0  0  0  0  0  0
   34.0761   23.4106   -0.2077 C   0  0  0  0  0  0  0  0  0  0  0  0
   33.7282   30.4306   -9.5628 C   0  0  0  0  0  0  0  0  0  0  0  0
   32.4160   25.2244   -0.7591 C   0  0  0  0  0  0  0  0  0  0  0  0
   33.0249   30.4519    2.4619 C   0  0  0  0  0  0  0  0  0  0  0  0
   31.8645   30.8457   -7.7197 C   0  0  0  0  0  0  0  0  0  0  0  0
   32.0093   29.3508   -2.3074 C   0  0  0  0  0  0  0  0  0  0  0  0
   32.2923   31.4880   -1.6518 N   0  0  0  0  0  0  0  0  0  0  0  0
   35.0865   24.3241   -0.3311 C   0  0  0  0  0  0  0  0  0  0  0  0
   32.9918   27.6222   -1.3757 N   0  0  0  0  0  0  0  0  0  0  0  0
   31.5947   29.9873   -3.3557 C   0  0  0  0  0  0  0  0  0  0  0  0
   32.3584   30.2399   -1.5160 N   0  0  0  0  0  0  0  0  0  0  0  0
   34.7111   22.1749    0.3825 C   0  0  0  0  0  0  0  0  0  0  0  0
   32.7351   30.2433   -0.0833 C   0  0  0  0  0  0  0  0  0  0  0  0
   32.4715   31.0690    1.3277 C   0  0  0  0  0  0  0  0  0  0  0  0
   32.8656   26.9261   -3.4874 O   0  0  0  0  0  0  0  0  0  0  0  0
   30.3758   29.3668   -6.5963 O   0  0  0  0  0  1  0  0  0  0  0  0
   33.4109   26.0174   -1.1789 C   0  0  0  0  0  0  0  0  0  0  0  0
   35.1617   21.6732    1.3101 O   0  0  0  0  0  0  0  0  0  0  0  0
   33.0785   29.8008   -8.5894 C   0  0  0  0  0  0  0  0  0  0  0  0
   31.9131   32.3535   -4.7509 C   0  0  0  0  0  0  0  0  0  0  0  0
   31.5168   31.2304   -4.9934 C   0  0  0  0  0  0  0  0  0  0  0  0
   30.6516   30.5341   -6.5569 S   0  0  0  0  0  4  0  0  0  0  0  0
   32.7099   23.9702   -0.3180 C   0  0  0  0  0  0  0  0  0  0  0  0
   34.6636   25.6142   -0.6865 C   0  0  0  0  0  0  0  0  0  0  0  0
   32.4559   32.1024   -8.3281 S   0  0  0  0  0  0  0  0  0  0  0  0
   30.7296   31.1185   -5.4118 N   0  0  0  0  0  0  0  0  0  0  0  0
   33.6928   29.0790    2.0598 C   0  0  0  0  0  0  0  0  0  0  0  0
   32.9561   31.6333   -8.9039 C   0  0  0  0  0  0  0  0  0  0  0  0
   29.7795   31.2291   -7.1767 O   0  0  0  0  0  1  0  0  0  0  0  0
   34.7207   20.9444    2.5358 C   0  0  0  0  0  0  0  0  0  0  0  0
   32.8436   27.5606   -1.8393 C   0  0  0  0  0  0  0  0  0  0  0  0
   31.9125   31.2823   -3.0252 C   0  0  0  0  0  0  0  0  0  0  0  0
  9  2  2  0
 11  7  2  0
 12  7  1  0
 12  8  1  0
 13  2  1  0
 14  1  2  0
 14 12  1  0
 15  5  2  0
 15 14  1  0
 18  4  1  0
 18 10  1  0
 19 13  1  0
 20  3  2  0
 20  6  1  0
 22 21  1  0
 23  6  1  0
 23 17  1  0
 24  2  1  0
 24  4  2  0
 25  9  1  0
 25 18  2  0
 26  6  1  0
 27 22  1  0
 27 23  1  0
 28  1  1  0
 28  5  1  0
 29  3  1  0
 29 26  1  0
 30 23  1  0
 31 19  1  0
 32  7  1  0
 32 10  1  0
 32 16  2  0
 33  8  2  0
 33 11  1  0
 33 22  1  0
M  RAD  2  17   2  30   2
M  END
>  <ID>  (1) 
conformer_0

$$$$
