
     RDKit          3D

 32 36  0  0  0  0  0  0  0  0999 V2000
   33.4935   29.1302    0.8938 C   0  0  0  0  0  0  0  0  0  0  0  0
   34.8363   24.1602   -0.3625 C   0  0  0  0  0  0  0  0  0  0  0  0
   32.8123   29.7298   -8.3946 C   0  0  0  0  0  0  0  0  0  0  0  0
   32.5287   25.1655   -0.6587 C   0  0  0  0  0  0  0  0  0  0  0  0
   33.6073   29.2292    2.1690 C   0  0  0  0  0  0  0  0  0  0  0  0
   31.7407   30.8413   -7.6241 C   0  0  0  0  0  0  0  0  0  0  0  0
   31.6477   30.2167   -3.6208 C   0  0  0  0  0  0  0  0  0  0  0  0
   32.5054   30.1084   -1.5837 N   0  0  0  0  0  0  0  0  0  0  0  0
   31.8582   31.7392   -2.9507 C   0  0  0  0  0  0  0  0  0  0  0  0
   34.6263   22.0277    0.3926 C   0  0  0  0  0  0  0  0  0  0  0  0
   34.7615   25.5251   -0.7220 C   0  0  0  0  0  0  0  0  0  0  0  0
   32.7760   27.2298   -3.5543 O   0  0  0  0  0  0  0  0  0  0  0  0
   32.0498   31.6176   -1.5963 N   0  0  0  0  0  0  0  0  0  0  0  0
   33.1764   27.6960   -1.4153 N   0  0  0  0  0  0  0  0  0  0  0  0
   32.4136   31.1103    1.0921 C   0  0  0  0  0  0  0  0  0  0  0  0
   34.0159   21.4725    0.3698 O   0  0  0  0  0  0  0  0  0  0  0  0
   32.9684   32.2254   -8.2067 S   0  0  0  0  0  0  0  0  0  0  0  0
   32.7252   27.9802   -2.5777 C   0  0  0  0  0  0  0  0  0  0  0  0
   32.6408   30.3556   -0.1299 C   0  0  0  0  0  0  0  0  0  0  0  0
   31.0313   31.8226   -5.1957 C   0  0  0  0  0  0  0  0  0  0  0  0
   34.4912   20.8051    2.7471 C   0  0  0  0  0  0  0  0  0  0  0  0
   29.8757   29.5785   -6.8770 O   0  0  0  0  0  1  0  0  0  0  0  0
   33.5654   30.2393   -9.5137 C   0  0  0  0  0  0  0  0  0  0  0  0
   33.3642   26.2909   -1.1605 C   0  0  0  0  0  0  0  0  0  0  0  0
   31.7278   32.7844   -4.4173 C   0  0  0  0  0  0  0  0  0  0  0  0
   30.6872   31.5999   -5.7810 N   0  0  0  0  0  0  0  0  0  0  0  0
   30.3177   30.9412   -6.8720 S   0  0  0  0  0  4  0  0  0  0  0  0
   33.2523   23.9838   -0.2701 C   0  0  0  0  0  0  0  0  0  0  0  0
   33.3265   31.3851   -8.8244 C   0  0  0  0  0  0  0  0  0  0  0  0
   32.7531   30.5468    2.2848 C   0  0  0  0  0  0  0  0  0  0  0  0
   32.3268   29.6970   -2.4446 C   0  0  0  0  0  0  0  0  0  0  0  0
   29.6054   31.5034   -7.5588 O   0  0  0  0  0  1  0  0  0  0  0  0
  5  1  2  0
  6  3  1  0
  9  7  1  0
 10  2  1  0
 11  2  2  0
 13  8  1  0
 13  9  2  0
 16 10  1  0
 17  6  1  0
 18 12  2  0
 18 14  1  0
 19  1  1  0
 19  8  1  0
 19 15  1  0
 21 16  1  0
 23  3  1  0
 24  4  2  0
 24 11  1  0
 24 14  1  0
 25  9  1  0
 25 20  1  0
 26 20  1  0
 27  6  1  0
 27 22  1  0
 27 26  1  0
 28  2  1  0
 28  4  1  0
 29  3  1  0
 29 17  1  0
 29 23  1  0
 30  5  1  0
 30 15  2  0
 31  7  2  0
 31  8  1  0
 31 18  1  0
 32 27  1  0
M  RAD  2  22   2  32   2
M  END
>  <ID>  (1) 
conformer_0

$$$$
