
     RDKit          3D

 31 35  0  0  0  0  0  0  0  0999 V2000
   34.3157   23.9721   -0.3347 C   0  0  0  0  0  0  0  0  0  0  0  0
   33.5384   29.0263    0.9344 C   0  0  0  0  0  0  0  0  0  0  0  0
   32.1390   25.1783   -0.6450 C   0  0  0  0  0  0  0  0  0  0  0  0
   33.5716   30.5542   -9.4023 C   0  0  0  0  0  0  0  0  0  0  0  0
   33.5770   29.1308    2.3219 C   0  0  0  0  0  0  0  0  0  0  0  0
   31.9120   31.1347   -7.5102 C   0  0  0  0  0  0  0  0  0  0  0  0
   32.6488   30.4281   -1.4837 N   0  0  0  0  0  0  0  0  0  0  0  0
   31.7909   30.0529   -3.3628 C   0  0  0  0  0  0  0  0  0  0  0  0
   34.6512   22.2717    0.3884 C   0  0  0  0  0  0  0  0  0  0  0  0
   34.5902   25.1326   -0.8486 C   0  0  0  0  0  0  0  0  0  0  0  0
   33.1931   26.0348   -1.3300 C   0  0  0  0  0  0  0  0  0  0  0  0
   32.0304   31.6480   -3.1291 C   0  0  0  0  0  0  0  0  0  0  0  0
   32.7863   27.2673   -3.6786 O   0  0  0  0  0  0  0  0  0  0  0  0
   33.1570   27.5713   -1.5845 N   0  0  0  0  0  0  0  0  0  0  0  0
   32.9352   30.1680    0.0689 C   0  0  0  0  0  0  0  0  0  0  0  0
   29.8795   29.8533   -6.5551 O   0  0  0  0  0  1  0  0  0  0  0  0
   33.5347   31.8445   -8.7401 C   0  0  0  0  0  0  0  0  0  0  0  0
   32.5362   31.0194    1.1875 C   0  0  0  0  0  0  0  0  0  0  0  0
   32.3091   32.4028   -8.1757 S   0  0  0  0  0  0  0  0  0  0  0  0
   32.6050   28.0776   -3.0895 C   0  0  0  0  0  0  0  0  0  0  0  0
   34.9428   21.3671   -0.0532 O   0  0  0  0  0  0  0  0  0  0  0  0
   31.3210   30.9757   -4.6169 C   0  0  0  0  0  0  0  0  0  0  0  0
   31.8712   33.4069   -4.2579 C   0  0  0  0  0  0  0  0  0  0  0  0
   30.5001   30.2933   -6.3442 S   0  0  0  0  0  3  0  0  0  0  0  0
   32.6997   24.0230   -0.1444 C   0  0  0  0  0  0  0  0  0  0  0  0
   34.7103   20.8388    2.2639 C   0  0  0  0  0  0  0  0  0  0  0  0
   34.9914   21.9278    2.3696 O   0  0  0  0  0  0  0  0  0  0  0  0
   32.4031   31.5594   -1.9215 N   0  0  0  0  0  2  0  0  0  0  0  0
   32.6723   29.8780   -8.4810 C   0  0  0  0  0  0  0  0  0  0  0  0
   32.4917   29.4449   -2.3262 C   0  0  0  0  0  0  0  0  0  0  0  0
   32.8844   30.5238    2.4850 C   0  0  0  0  0  0  0  0  0  0  0  0
  5  2  2  0
  9  1  1  0
 10  1  2  0
 11  3  2  0
 11 10  1  0
 12  8  1  0
 14 11  1  0
 15  2  1  0
 15  7  1  0
 17  4  1  0
 18 15  1  0
 19  6  1  0
 19 17  1  0
 20 13  2  0
 20 14  1  0
 21  9  2  0
 22  6  1  0
 22  8  1  0
 22 12  1  0
 23 12  1  0
 24  6  1  0
 24 16  1  0
 25  1  1  0
 25  3  1  0
 27  9  1  0
 27 26  1  0
 28  7  1  0
 28 12  1  0
 29  4  2  0
 29  6  1  0
 30  7  1  0
 30  8  2  0
 30 20  1  0
 31  5  1  0
 31 18  2  0
M  RAD  3  16   2  24   2  28   2
M  END
>  <ID>  (1) 
conformer_0

$$$$
