
     RDKit          3D

 32 34  0  0  0  0  0  0  0  0999 V2000
   33.5648   29.2102    2.1243 C   0  0  0  0  0  0  0  0  0  0  0  0
   33.1273   23.9115   -0.0594 C   0  0  0  0  0  0  0  0  0  0  0  0
   33.0783   29.7505   -8.3096 C   0  0  0  0  0  0  0  0  0  0  0  0
   34.7185   24.1392   -0.4286 C   0  0  0  0  0  0  0  0  0  0  0  0
   33.4114   29.1245    0.7989 C   0  0  0  0  0  0  0  0  0  0  0  0
   31.9383   31.5938   -2.8607 C   0  0  0  0  0  0  0  0  0  0  0  0
   31.6590   30.1083   -3.2786 C   0  0  2  0  0  0  0  0  0  0  0  0
   32.0092   30.7295   -7.6731 C   0  0  1  0  0  0  0  0  0  0  0  0
   33.1234   26.0883   -1.1985 C   0  0  0  0  0  0  0  0  0  0  0  0
   32.1513   32.0885   -8.7061 S   0  0  0  0  0  0  0  0  0  0  0  0
   32.6294   30.4126   -0.0593 C   0  0  0  0  0  0  0  0  0  0  0  0
   34.6514   25.4059   -0.9057 C   0  0  0  0  0  0  0  0  0  0  0  0
   32.4537   31.2303    1.1377 C   0  0  0  0  0  0  0  0  0  0  0  0
   32.4320   30.2666   -1.4295 N   0  0  0  0  0  0  0  0  0  0  0  0
   32.8724   27.7396   -3.9953 O   0  0  0  0  0  0  0  0  0  0  0  0
   29.9305   29.6144   -6.7558 O   0  0  0  0  0  1  0  0  0  0  0  0
   32.6707   28.0485   -2.5176 C   0  0  0  0  0  0  0  0  0  0  0  0
   36.1401   21.5454    0.3772 O   0  0  0  0  0  0  0  0  0  0  0  0
   31.3730   31.4295   -5.6055 N   0  0  0  0  0  0  0  0  0  0  0  0
   31.5087   32.2108   -4.8188 C   0  0  0  0  0  0  0  0  0  0  0  0
   32.8769   27.3836   -1.3796 N   0  0  0  0  0  0  0  0  0  0  0  0
   34.8069   22.5367    0.1516 C   0  0  0  0  0  0  0  0  0  0  0  0
   30.7258   30.7074   -6.8901 S   0  0  0  0  0  4  0  0  0  0  0  0
   33.6564   30.2512   -9.5711 C   0  0  0  0  0  0  0  0  0  0  0  0
   32.3378   25.0842   -0.4644 C   0  0  0  0  0  0  0  0  0  0  0  0
   32.2646   29.5980   -2.2706 C   0  0  0  0  0  0  0  0  0  0  0  0
   33.1679   31.4232   -9.2923 C   0  0  0  0  0  0  0  0  0  0  0  0
   32.8427   30.5618    2.3104 C   0  0  0  0  0  0  0  0  0  0  0  0
   29.8356   31.5046   -7.5467 O   0  0  0  0  0  1  0  0  0  0  0  0
   34.2491   21.1121   -0.1594 O   0  0  0  0  0  0  0  0  0  0  0  0
   34.6660   21.0444    2.2376 C   0  0  0  0  0  0  0  0  0  0  0  0
   31.7748   29.6085   -4.6972 C   0  0  0  0  0  0  0  0  0  0  0  0
  4  2  2  0
  5  1  2  0
  7  6  1  0
  8  3  1  0
 10  8  1  0
 11  5  1  0
 12  4  1  0
 12  9  2  0
 13 11  2  0
 14 11  1  0
 17 15  2  0
 20  6  2  3
 20 19  1  0
 21  9  1  0
 21 17  1  0
 22  4  1  0
 22 18  1  0
  8 23  1  6
 23 16  1  0
 23 19  1  0
 24  3  2  0
 25  2  1  0
 25  9  1  0
 26  7  1  0
 26 14  1  0
 26 17  1  0
 27 10  1  0
 27 24  1  0
 28  1  1  0
 28 13  1  0
 29 23  1  0
 30 22  1  0
 31 22  1  0
  7 32  1  6
M  RAD  2  16   2  29   2
M  END
>  <ID>  (1) 
conformer_0

$$$$
