
     RDKit          3D

 34 38  0  0  0  0  0  0  0  0999 V2000
   32.9690   30.4396    2.5073 C   0  0  0  0  0  0  0  0  0  0  0  0
   32.3257   25.2293   -0.6745 C   0  0  0  0  0  0  0  0  0  0  0  0
   32.4776   24.1139   -0.2509 C   0  0  0  0  0  0  0  0  0  0  0  0
   33.6331   30.5334   -9.2231 C   0  0  0  0  0  0  0  0  0  0  0  0
   32.5551   30.9068    1.2733 C   0  0  0  0  0  0  0  0  0  0  0  0
   31.7209   30.7971   -7.8657 C   0  0  0  0  0  0  0  0  0  0  0  0
   34.6294   22.1580    0.2147 C   0  0  0  0  0  0  0  0  0  0  0  0
   31.3877   30.0283   -3.3823 C   0  0  0  0  0  3  0  0  0  0  0  0
   31.3409   31.2627   -2.9034 C   0  0  0  0  0  0  0  0  0  0  0  0
   34.9354   24.4470   -0.5135 C   0  0  0  0  0  0  0  0  0  0  0  0
   32.3826   30.3412   -1.4373 N   0  0  0  0  0  0  0  0  0  0  0  0
   32.8892   30.0788    0.0781 C   0  0  0  0  0  0  0  0  0  0  0  0
   32.0821   31.5265   -1.3969 N   0  0  0  0  0  0  0  0  0  0  0  0
   34.1556   20.6146    2.8642 C   0  0  0  0  0  0  0  0  0  0  0  0
   30.8617   31.3438   -5.5113 N   0  0  0  0  0  0  0  0  0  0  0  0
   32.9233   27.8426   -4.0568 O   0  0  0  0  0  0  0  0  0  0  0  0
   33.8105   29.1018    2.3212 C   0  0  0  0  0  0  0  0  0  0  0  0
   33.0060   27.9205   -1.4723 N   0  0  0  0  0  0  0  0  0  0  0  0
   31.2844   31.5955   -4.9838 C   0  0  0  0  0  0  0  0  0  0  0  0
   32.4620   28.6199   -3.8025 C   0  0  0  0  0  0  0  0  0  0  0  0
   35.3688   21.0602   -0.1710 O   0  0  0  0  0  0  0  0  0  0  0  0
   30.9110   30.7621   -7.1535 S   0  0  0  0  0  3  0  0  0  0  0  0
   33.0763   33.0330   -8.5656 F   0  0  0  0  0  0  0  0  0  0  0  0
   33.1089   26.1658   -1.1368 C   0  0  0  0  0  0  0  0  0  0  0  0
   34.4313   25.6349   -0.8527 C   0  0  0  0  0  0  0  0  0  0  0  0
   32.9635   29.7975   -8.3436 C   0  0  0  0  0  0  0  0  0  0  0  0
   30.0560   29.5744   -6.9930 O   0  0  0  0  0  1  0  0  0  0  0  0
   31.8441   33.2861   -4.5404 C   0  0  0  0  0  0  0  0  0  0  0  0
   32.8590   31.9450   -8.6875 C   0  0  0  0  0  0  0  0  0  0  0  0
   32.4418   29.6032   -2.3034 C   0  0  0  0  0  0  0  0  0  0  0  0
   33.6242   29.0402    0.9123 C   0  0  0  0  0  0  0  0  0  0  0  0
   33.9231   23.5415   -0.1570 C   0  0  0  0  0  0  0  0  0  0  0  0
   35.1013   21.3214    1.4586 F   0  0  0  0  0  0  0  0  0  0  0  0
   34.5793   20.9883    1.6697 C   0  0  0  0  0  0  0  0  0  0  0  0
  3  2  2  0
  5  1  2  0
  9  8  1  0
 12  5  1  0
 12 11  1  0
 13  9  2  0
 13 11  1  0
 17  1  1  0
 19  6  1  0
 19  9  1  0
 19 15  1  0
 20  8  1  0
 20 16  2  0
 21  7  1  0
 22  6  1  0
 24  2  1  0
 24 18  1  0
 25 10  1  0
 25 24  2  0
 26  4  1  0
 26  6  1  0
 27 22  1  0
 28 19  1  0
 29  4  1  0
 29  6  1  0
 29 23  1  0
 30  8  1  0
 30 11  1  0
 30 18  1  0
 30 20  1  0
 31 12  2  0
 31 17  1  0
 32  3  1  0
 32  7  1  0
 32 10  2  0
 34  7  1  0
 34 14  1  0
 34 33  1  0
M  RAD  3   8   2  22   2  27   2
M  END
>  <ID>  (1) 
conformer_0

$$$$
