
     RDKit          3D

 35 38  0  0  0  0  0  0  0  0999 V2000
   32.7833   30.8650    2.3912 C   0  0  0  0  0  0  0  0  0  0  0  0
   32.6045   25.1508   -0.7757 C   0  0  0  0  0  0  0  0  0  0  0  0
   33.5547   30.2489   -9.3111 C   0  0  0  0  0  0  0  0  0  0  0  0
   32.5407   30.9713    1.1254 C   0  0  0  0  0  0  0  0  0  0  0  0
   33.1917   23.9563   -0.3106 C   0  0  0  0  0  0  0  0  0  0  0  0
   31.6986   30.1393   -3.4347 C   0  0  0  0  0  0  0  0  0  0  0  0
   31.8863   30.8387   -7.5132 C   0  0  0  0  0  0  0  0  0  0  0  0
   34.5761   22.2305    0.0894 C   0  0  0  0  0  0  0  0  0  0  0  0
   32.9447   27.4883   -3.8705 O   0  0  0  0  0  0  0  0  0  0  0  0
   31.8139   31.4537   -2.7283 C   0  0  0  0  0  0  0  0  0  0  0  0
   32.7811   29.7447   -1.5952 N   0  0  0  0  0  0  0  0  0  0  0  0
   31.8122   31.2868   -1.2801 N   0  0  0  0  0  0  0  0  0  0  0  0
   34.7970   23.9452   -0.5436 C   0  0  0  0  0  0  0  0  0  0  0  0
   32.5166   32.1753   -8.3122 S   0  0  0  0  0  0  0  0  0  0  0  0
   34.6702   21.2719   -0.1432 O   0  0  0  0  0  0  0  0  0  0  0  0
   31.1599   31.5352   -5.5518 N   0  0  0  0  0  0  0  0  0  0  0  0
   33.4798   26.0961   -1.3303 C   0  0  2  0  0  0  0  0  0  0  0  0
   33.9041   28.6143    1.9044 C   0  0  0  0  0  0  0  0  0  0  0  0
   32.9711   27.9798   -2.4285 C   0  0  0  0  0  0  0  0  0  0  0  0
   29.9349   29.4711   -6.0050 O   0  0  0  0  0  0  0  0  0  0  0  0
   32.7900   30.2211    0.0475 C   0  0  0  0  0  0  0  0  0  0  0  0
   31.3625   32.2868   -4.9605 C   0  0  0  0  0  0  0  0  0  0  0  0
   30.6318   30.4484   -6.3255 S   0  0  0  0  0  6  0  0  0  0  0  0
   32.0105   33.3266   -4.4027 C   0  0  0  0  0  0  0  0  0  0  0  0
   33.5089   31.3833   -9.0422 C   0  0  0  0  0  0  0  0  0  0  0  0
   32.7927   29.6734   -8.2409 C   0  0  0  0  0  0  0  0  0  0  0  0
   34.9131   25.2762   -0.9554 C   0  0  0  0  0  0  0  0  0  0  0  0
   33.6136   29.7517    2.8431 C   0  0  0  0  0  0  0  0  0  0  0  0
   29.6755   31.0930   -7.2547 O   0  0  0  0  0  0  0  0  0  0  0  0
   33.2233   27.1430   -1.5792 N   0  0  0  0  0  0  0  0  0  0  0  0
   34.1613   21.0237    1.8635 C   0  0  0  0  0  0  0  0  0  0  0  0
   34.4796   20.7188    3.1373 C   0  0  0  0  0  0  0  0  0  0  0  0
   32.3784   29.4547   -2.3673 C   0  0  0  0  0  0  0  0  0  0  0  0
   31.6198   29.7057   -4.3558 C   0  0  0  0  0  0  0  0  0  0  0  0
   33.4198   29.0537    0.7008 C   0  0  0  0  0  0  0  0  0  0  0  0
  4  1  2  0
  5  2  2  0
 10  6  1  0
 12 10  2  0
 12 11  1  0
 13  5  1  0
 13  8  1  0
 14  7  1  0
 15  8  1  0
 17  2  1  0
 19  9  2  0
 21  4  1  0
 21 11  1  0
 22 16  1  0
 23  7  1  0
 23 16  1  0
 23 20  1  0
 24 22  1  0
 25  3  1  0
 25 14  1  0
 26  3  1  0
 26  7  2  0
 27 13  2  0
 27 17  1  0
 28  1  1  0
 28 18  2  0
 29 23  1  0
 17 30  1  1
 30 19  1  0
 31 15  1  0
 32 31  2  3
 33  6  2  0
 33 11  1  0
 33 19  1  0
 34  6  1  0
 34 23  1  0
 35 18  1  0
 35 21  2  0
M  END
>  <ID>  (1) 
conformer_0

$$$$
