
     RDKit          3D

 32 33  0  0  0  0  0  0  0  0999 V2000
   33.8528   29.2039    2.3194 C   0  0  0  0  0  0  0  0  0  0  0  0
   32.4813   25.0448   -0.5787 C   0  0  0  0  0  0  0  0  0  0  0  0
   33.1709   23.8559   -0.1945 C   0  0  0  0  0  0  0  0  0  0  0  0
   32.8279   29.5757   -8.3465 C   0  0  0  0  0  0  0  0  0  0  0  0
   33.7579   28.9875    0.9039 C   0  0  0  0  0  0  0  0  0  0  0  0
   34.7530   22.0975    0.1727 C   0  0  0  0  0  0  0  0  0  0  0  0
   31.9906   30.5584   -7.4340 C   0  0  0  0  0  0  0  0  0  0  0  0
   32.1222   31.7540   -2.7857 C   0  0  0  0  0  0  0  0  0  0  0  0
   31.9714   32.9702   -4.4648 C   0  0  0  0  0  0  0  0  0  0  0  0
   32.7243   29.9008   -1.7098 N   0  0  0  0  0  0  0  0  0  0  0  0
   32.1377   31.6868   -1.6999 N   0  0  0  0  0  0  0  0  0  0  0  0
   32.8359   32.1936   -8.3252 S   0  0  0  0  0  3  0  0  0  0  0  0
   34.8177   25.3600   -0.7623 C   0  0  0  0  0  0  0  0  0  0  0  0
   31.8921   30.3747   -3.7094 C   0  0  1  0  0  0  0  0  0  0  0  0
   32.8161   30.1810   -0.2855 C   0  0  0  0  0  0  0  0  0  0  0  0
   32.7338   27.3980   -3.7097 O   0  0  0  0  0  0  0  0  0  0  0  0
   33.0979   27.2739   -1.4727 N   0  0  0  0  0  0  0  0  0  0  0  0
   33.3800   26.1109   -1.1542 C   0  0  2  0  0  0  0  0  0  0  0  0
   32.5484   30.7361    1.0388 C   0  0  0  0  0  0  0  0  0  0  0  0
   35.2371   21.1606   -0.2271 O   0  0  0  0  0  0  0  0  0  0  0  0
   31.7221   30.9428   -5.0356 C   0  0  0  0  0  0  0  0  0  0  0  0
   32.8768   28.0207   -2.3488 C   0  0  0  0  0  0  0  0  0  0  0  0
   33.4000   31.2690   -8.9492 C   0  0  0  0  0  3  0  0  0  0  0  0
   30.1291   29.6327   -6.8140 O   0  0  0  0  0  0  0  0  0  0  0  0
   34.7965   24.0155   -0.3536 C   0  0  0  0  0  0  0  0  0  0  0  0
   32.3122   29.6683   -2.8186 C   0  0  1  0  0  0  0  0  0  0  0  0
   31.5722   31.0177   -5.8565 N   0  0  0  0  0  0  0  0  0  0  0  0
   32.9203   30.3737    2.3196 C   0  0  0  0  0  0  0  0  0  0  0  0
   30.9743   30.6542   -6.8020 S   0  0  0  0  0  0  0  0  0  0  0  0
   34.4355   20.9091    1.6923 C   0  0  0  0  0  0  0  0  0  0  0  0
   33.5196   30.2724   -9.5022 C   0  0  0  0  0  0  0  0  0  0  0  0
   34.0205   21.2522    1.3908 F   0  0  0  0  0  0  0  0  0  0  0  0
  3  2  2  0
  5  1  2  0
  7  4  1  0
  9  8  1  0
 11  8  2  3
 14  8  1  0
 15  5  1  0
 15 10  1  0
 18  2  1  0
 18 13  1  0
 18 17  1  1
 19 15  2  0
 20  6  2  0
 14 21  1  6
 22 16  2  0
 22 17  1  0
 23 12  2  3
 24  7  2  0
 25  3  1  0
 25  6  1  0
 25 13  2  0
 26 10  1  6
 26 14  1  0
 26 22  1  0
 27 21  1  0
 28  1  1  0
 28 19  1  0
 29  7  1  0
 29 27  1  0
 30  6  1  0
 31  4  1  0
 31 23  1  0
 32 30  1  0
M  RAD  2  12   2  23   2
M  END
>  <ID>  (1) 
conformer_0

$$$$
