
     RDKit          3D

 30 33  0  0  0  0  0  0  0  0999 V2000
   34.5294   23.8886   -0.3793 C   0  0  0  0  0  0  0  0  0  0  0  0
   32.2753   24.9199   -0.6244 C   0  0  0  0  0  0  0  0  0  0  0  0
   33.7300   29.1341    2.2569 C   0  0  0  0  0  0  0  0  0  0  0  0
   32.8999   30.4213    2.3911 C   0  0  0  0  0  0  0  0  0  0  0  0
   33.1194   29.8772   -8.2557 C   0  0  0  0  0  0  0  0  0  0  0  0
   32.5188   30.1449   -1.2597 N   0  0  0  0  0  0  0  0  0  0  0  0
   31.7688   30.9778   -3.0279 C   0  0  0  0  0  0  0  0  0  0  0  0
   31.9861   30.6842   -7.9008 C   0  0  0  0  0  0  0  0  0  0  0  0
   31.9352   31.5014   -9.0517 S   0  0  0  0  0  0  0  0  0  0  0  0
   34.6017   25.1820   -0.8022 C   0  0  0  0  0  0  0  0  0  0  0  0
   32.7769   29.9822    0.1729 C   0  0  0  0  0  0  0  0  0  0  0  0
   34.6417   21.9784    0.3662 C   0  0  0  0  0  0  0  0  0  0  0  0
   31.5583   29.7408   -3.0712 C   0  0  0  0  0  0  0  0  0  0  0  0
   32.9871   27.3792   -1.5049 N   0  0  0  0  0  0  0  0  0  0  0  0
   33.1636   27.7502   -3.8999 O   0  0  0  0  0  0  0  0  0  0  0  0
   34.5916   21.2928    0.5310 O   0  0  0  0  0  0  0  0  0  0  0  0
   33.1920   25.9212   -1.2651 C   0  0  0  0  0  0  0  0  0  0  0  0
   32.4550   30.9387    1.2987 C   0  0  0  0  0  0  0  0  0  0  0  0
   29.9004   30.1031   -7.0818 O   0  0  0  0  0  1  0  0  0  0  0  0
   31.6401   31.1228   -4.8981 C   0  0  0  0  0  0  0  0  0  0  0  0
   32.7131   28.0615   -3.0654 C   0  0  0  0  0  0  0  0  0  0  0  0
   30.4848   30.5542   -6.8648 S   0  0  0  0  0  3  0  0  0  0  0  0
   32.9697   23.7253   -0.2019 C   0  0  0  0  0  0  0  0  0  0  0  0
   31.1192   31.1414   -5.5486 N   0  0  0  0  0  0  0  0  0  0  0  0
   33.6155   31.1730   -9.3768 C   0  0  0  0  0  0  0  0  0  0  0  0
   34.5665   20.8676    2.6210 C   0  0  0  0  0  0  0  0  0  0  0  0
   32.1834   31.4124   -1.7899 N   0  0  0  0  0  0  0  0  0  0  0  0
   33.6103   28.8233    0.9524 C   0  0  0  0  0  0  0  0  0  0  0  0
   33.7594   30.2270   -9.6314 C   0  0  0  0  0  0  0  0  0  0  0  0
   32.4788   29.3762   -2.0352 C   0  0  0  0  0  0  0  0  0  0  0  0
  4  3  2  0
  8  5  1  0
  9  8  1  0
 10  1  2  0
 11  6  1  0
 12  1  1  0
 13  7  1  0
 16 12  1  0
 17  2  2  0
 17 10  1  0
 17 14  1  0
 18  4  1  0
 18 11  2  0
 20  7  1  0
 20  8  1  0
 21 14  1  0
 21 15  2  0
 22 19  1  0
 23  1  1  0
 23  2  1  0
 24 20  1  0
 24 22  1  0
 25  9  1  0
 26 16  1  0
 27  6  1  0
 27  7  2  0
 28  3  1  0
 28 11  1  0
 29  5  1  0
 29 25  1  0
 30  6  1  0
 30 13  2  0
 30 21  1  0
M  RAD  2  19   2  22   2
M  END
>  <ID>  (1) 
conformer_0

$$$$
