
     RDKit          3D

 34 37  0  0  0  0  0  0  0  0999 V2000
   34.7614   23.9960   -0.2708 C   0  0  0  0  0  0  0  0  0  0  0  0
   33.6533   29.0211    0.7528 C   0  0  0  0  0  0  0  0  0  0  0  0
   32.7401   29.6156   -8.3085 C   0  0  0  0  0  0  0  0  0  0  0  0
   33.6781   29.1421    2.0655 C   0  0  0  0  0  0  0  0  0  0  0  0
   33.2347   23.7209   -0.2348 C   0  0  0  0  0  0  0  0  0  0  0  0
   31.9122   31.5503   -3.2240 C   0  0  1  0  0  0  0  0  0  0  0  0
   34.9671   22.2463    0.2801 C   0  0  0  0  0  0  0  0  0  0  0  0
   32.0117   30.7085   -7.6473 C   0  0  2  0  0  0  0  0  0  0  0  0
   31.8513   30.0777   -3.4778 C   0  0  1  0  0  0  0  0  0  0  0  0
   34.3542   20.4870    3.0940 C   0  0  0  0  0  0  0  0  0  0  0  0
   32.8792   30.3866   -0.0873 C   0  0  0  0  0  0  0  0  0  0  0  0
   33.0127   27.7807   -2.5262 C   0  0  0  0  0  0  0  0  0  0  0  0
   33.3957   26.0418   -1.0832 C   0  0  0  0  0  0  0  0  0  0  0  0
   32.8137   32.1458   -8.4397 S   0  0  0  0  0  0  0  0  0  0  0  0
   32.5292   24.9635   -0.6607 C   0  0  0  0  0  0  0  0  0  0  0  0
   32.9696   27.7323   -4.1388 O   0  0  0  0  0  0  0  0  0  0  0  0
   32.7659   29.7729   -1.6965 N   0  0  0  0  0  0  0  0  0  0  0  0
   32.9032   30.4046    2.2671 C   0  0  0  0  0  0  0  0  0  0  0  0
   30.0031   29.8386   -6.8544 O   0  0  0  0  0  1  0  0  0  0  0  0
   35.6460   21.4317   -0.2186 O   0  0  0  0  0  0  0  0  0  0  0  0
   31.1994   32.0271   -5.1851 C   0  0  1  0  0  0  0  0  0  0  0  0
   31.0923   31.1110   -5.6899 N   0  0  0  0  0  0  0  0  0  0  0  0
   31.7552   33.1064   -4.6058 C   0  0  0  0  0  0  0  0  0  0  0  0
   33.0675   27.0638   -1.5560 N   0  0  0  0  0  0  0  0  0  0  0  0
   31.8963   31.2840   -1.5205 N   0  0  0  0  0  0  0  0  0  0  0  0
   30.5760   30.4808   -6.5176 S   0  0  0  0  0  3  0  0  0  0  0  0
   34.7969   25.3835   -0.5837 C   0  0  0  0  0  0  0  0  0  0  0  0
   33.6626   31.2493   -9.1712 C   0  0  0  0  0  0  0  0  0  0  0  0
   33.4787   30.1753   -9.4879 C   0  0  0  0  0  0  0  0  0  0  0  0
   32.2626   29.0989   -4.3803 C   0  0  0  0  0  0  0  0  0  0  0  0
   34.6961   21.0741    2.0761 C   0  0  0  0  0  0  0  0  0  0  0  0
   32.5700   31.1180    1.1460 C   0  0  0  0  0  0  0  0  0  0  0  0
   35.1552   21.8555    1.5922 O   0  0  0  0  0  0  0  0  0  0  0  0
   32.3482   29.7419   -2.3507 C   0  0  0  0  0  0  0  0  0  0  0  0
  4  2  2  0
  5  1  2  0
  7  1  1  0
  8  3  1  1
  9  6  1  0
 11  2  1  0
 14  8  1  0
 15  5  1  0
 15 13  2  0
 16 12  1  0
 17 11  1  0
 18  4  1  0
 20  7  2  0
 21  8  1  0
 22 21  1  0
  6 23  1  6
 21 23  1  1
 24 12  1  0
 24 13  1  0
 25  6  1  0
 25 17  1  0
 26 19  1  0
 26 22  1  0
 27  1  1  0
 27 13  1  0
 28 14  1  0
 29  3  1  0
 29 28  1  0
  9 30  1  6
 30 16  1  0
 31 10  2  3
 32 11  1  0
 32 18  2  0
 33  7  1  0
 33 31  1  0
 34  9  1  0
 34 17  1  0
M  RAD  2  19   2  26   2
M  END
>  <ID>  (1) 
conformer_0

$$$$
