
     RDKit          3D

 34 37  0  0  0  0  0  0  0  0999 V2000
   32.8537   30.5263    2.3934 C   0  0  0  0  0  0  0  0  0  0  0  0
   34.6468   24.2688   -0.3690 C   0  0  0  0  0  0  0  0  0  0  0  0
   33.4218   28.9317    0.8855 C   0  0  0  0  0  0  0  0  0  0  0  0
   32.9571   29.7503   -8.6784 C   0  0  0  0  0  0  0  0  0  0  0  0
   32.3075   25.2128   -0.7734 C   0  0  0  0  0  0  0  0  0  0  0  0
   31.5081   30.8107   -3.4287 C   0  0  0  0  0  0  0  0  0  0  0  0
   32.0475   30.6192   -7.6619 C   0  0  0  0  0  0  0  0  0  0  0  0
   32.8855   27.2604   -3.5364 O   0  0  0  0  0  0  0  0  0  0  0  0
   32.7812   30.1478   -0.1707 C   0  0  0  0  0  0  0  0  0  0  0  0
   33.0745   27.5571   -1.4168 N   0  0  0  0  0  0  0  0  0  0  0  0
   34.6754   25.5472   -0.7649 C   0  0  0  0  0  0  0  0  0  0  0  0
   30.1093   29.6441   -6.7887 O   0  0  0  0  0  1  0  0  0  0  0  0
   32.3896   30.1290   -1.7535 N   0  0  0  0  0  0  0  0  0  0  0  0
   33.3351   26.1787   -1.2005 C   0  0  0  0  0  0  0  0  0  0  0  0
   34.7804   21.4461    0.4769 S   0  0  0  0  0  4  0  0  0  0  0  0
   31.6407   29.4890   -3.3597 C   0  0  0  0  0  0  0  0  0  0  0  0
   32.5046   31.0061    1.1289 C   0  0  0  0  0  0  0  0  0  0  0  0
   32.7388   31.9073   -8.3928 S   0  0  0  0  0  0  0  0  0  0  0  0
   35.7001   21.0638   -0.3532 O   0  0  0  0  0  1  0  0  0  0  0  0
   31.7211   32.2337   -4.7239 C   0  0  0  0  0  0  0  0  0  0  0  0
   31.8373   33.7278   -4.4229 C   0  0  0  0  0  0  0  0  0  0  0  0
   35.6488   21.9284    2.3747 O   0  0  0  0  0  0  0  0  0  0  0  0
   30.1665   31.8061   -7.3130 O   0  0  0  0  0  1  0  0  0  0  0  0
   30.7015   30.6218   -6.5090 S   0  0  0  0  0  4  0  0  0  0  0  0
   31.2402   31.1878   -5.3895 N   0  0  0  0  0  0  0  0  0  0  0  0
   32.7645   27.8549   -2.2920 C   0  0  0  0  0  0  0  0  0  0  0  0
   32.7559   24.1210   -0.3417 C   0  0  0  0  0  0  0  0  0  0  0  0
   31.5873   31.1255   -1.7514 N   0  0  0  0  0  0  0  0  0  0  0  0
   33.4897   31.1515   -9.1135 C   0  0  0  0  0  0  0  0  0  0  0  0
   33.5359   29.1180    2.2749 C   0  0  0  0  0  0  0  0  0  0  0  0
   34.4149   21.7052    1.3698 C   0  0  0  0  0  0  0  0  0  0  0  0
   32.2222   29.4837   -2.4404 C   0  0  0  0  0  0  0  0  0  0  0  0
   33.6783   30.3938   -9.8273 C   0  0  0  0  0  0  0  0  0  0  0  0
   33.6063   20.9650   -0.1154 O   0  0  0  0  0  1  0  0  0  0  0  0
  7  4  1  0
  9  3  2  0
 11  2  2  0
 13  9  1  0
 14  5  2  0
 14 10  1  0
 14 11  1  0
 16  6  1  0
 17  1  2  0
 17  9  1  0
 18  7  1  0
 19 15  1  0
 20  6  1  0
 21 20  1  0
 24  7  1  0
 24 12  1  0
 24 23  1  0
 25 20  1  0
 25 24  1  0
 26  8  2  0
 26 10  1  0
 27  2  1  0
 27  5  1  0
 27 15  1  0
 28  6  2  0
 28 13  1  0
 29 18  1  0
 30  1  1  0
 30  3  1  0
 31 15  1  0
 31 22  1  0
 32 13  1  0
 32 16  2  0
 32 26  1  0
 33  4  1  0
 33 29  1  0
 34 15  1  0
M  RAD  4  12   2  19   2  23   2  34   2
M  END
>  <ID>  (1) 
conformer_0

$$$$
