
     RDKit          3D

 27 30  0  0  0  0  0  0  0  0999 V2000
   34.7613   24.1522   -0.4308 C   0  0  0  0  0  0  0  0  0  0  0  0
   33.5489   28.8160    1.3450 C   0  0  0  0  0  0  0  0  0  0  0  0
   32.5499   29.7220   -8.1869 C   0  0  0  0  0  0  0  0  0  0  0  0
   34.8009   25.5165   -0.7042 C   0  0  0  0  0  0  0  0  0  0  0  0
   31.2766   30.3608   -3.3778 C   0  0  0  0  0  0  0  0  0  0  0  0
   33.2972   29.7016    2.3573 C   0  0  0  0  0  0  0  0  0  0  0  0
   32.8405   30.1091    0.1077 C   0  0  2  0  0  0  0  0  0  0  0  0
   31.7281   30.9089   -7.6324 C   0  0  0  0  0  0  0  0  0  0  0  0
   32.4717   30.0919   -1.2980 N   0  0  0  0  0  0  0  0  0  0  0  0
   35.0035   21.7867    0.6754 C   0  0  0  0  0  0  0  0  0  0  0  0
   32.5028   25.2313   -0.6214 C   0  0  0  0  0  0  0  0  0  0  0  0
   32.7742   27.6426   -3.5096 O   0  0  0  0  0  0  0  0  0  0  0  0
   33.1585   27.6753   -1.3632 N   0  0  0  0  0  0  0  0  0  0  0  0
   32.0435   30.4119   -2.4327 C   0  0  2  0  0  0  0  0  0  0  0  0
   31.4575   31.4391   -5.0541 C   0  0  0  0  0  0  0  0  0  0  0  0
   32.3116   31.3308   -1.0312 N   0  0  0  0  0  0  0  0  0  0  0  0
   33.3867   26.3839   -1.1189 C   0  0  0  0  0  0  0  0  0  0  0  0
   29.7462   29.9819   -6.7103 O   0  0  0  0  0  1  0  0  0  0  0  0
   32.7585   30.9898    1.8619 C   0  0  0  0  0  0  0  0  0  0  0  0
   35.0219   21.5401    0.0253 O   0  0  0  0  0  0  0  0  0  0  0  0
   33.4024   31.5886   -8.8766 C   0  0  0  0  0  0  0  0  0  0  0  0
   34.2293   20.8335    2.5711 C   0  0  0  0  0  0  0  0  0  0  0  0
   30.5678   30.4824   -6.5558 S   0  0  0  0  0  3  0  0  0  0  0  0
   33.1767   24.0150   -0.2995 C   0  0  0  0  0  0  0  0  0  0  0  0
   33.5880   30.1455   -9.2627 C   0  0  0  0  0  0  0  0  0  0  0  0
   31.3174   31.4331   -6.0203 N   0  0  0  0  0  0  0  0  0  0  0  0
   32.8039   28.1209   -2.2166 C   0  0  0  0  0  0  0  0  0  0  0  0
  4  1  2  0
  6  2  2  0
  7  2  1  0
  8  3  1  0
  9  7  1  0
 10  1  1  0
 14  5  1  1
 14  9  1  0
 15  5  1  0
 16  7  1  0
 16  9  1  0
 16 14  1  0
 17  4  1  0
 17 11  2  0
 17 13  1  0
 19  6  1  0
  7 19  1  1
 20 10  2  0
 22 10  1  0
 23 18  1  0
 24  1  1  0
 24 11  1  0
 25  3  2  3
 25 21  1  0
 26  8  1  0
 26 15  1  0
 26 23  1  0
 27 12  2  0
 27 13  1  0
 27 14  1  0
M  RAD  2  18   2  23   2
M  END
>  <ID>  (1) 
conformer_0

$$$$
