
     RDKit          3D

 34 37  0  0  0  0  0  0  0  0999 V2000
   33.3552   29.2938    0.6577 C   0  0  0  0  0  0  0  0  0  0  0  0
   32.4289   24.1137   -0.3721 C   0  0  0  0  0  0  0  0  0  0  0  0
   32.1154   25.2956   -0.9747 C   0  0  0  0  0  0  0  0  0  0  0  0
   33.2042   29.5402   -8.4031 C   0  0  0  0  0  0  0  0  0  0  0  0
   33.6264   29.0394    1.9652 C   0  0  0  0  0  0  0  0  0  0  0  0
   32.0130   30.6559   -7.6697 C   0  0  1  0  0  0  0  0  0  0  0  0
   34.5215   22.1535    0.3046 C   0  0  0  0  0  0  0  0  0  0  0  0
   32.1856   31.4484   -1.2204 N   0  0  0  0  0  0  0  0  0  0  0  0
   31.6902   30.1407   -3.5505 C   0  0  0  0  0  0  0  0  0  0  0  0
   32.7337   30.5241    0.1318 C   0  0  0  0  0  0  0  0  0  0  0  0
   31.7205   31.6332   -3.4663 C   0  0  2  0  0  0  0  0  0  0  0  0
   32.9581   27.5645   -3.8044 O   0  0  0  0  0  0  0  0  0  0  0  0
   33.3667   25.8932   -1.2492 C   0  0  0  0  0  0  0  0  0  0  0  0
   34.9422   24.1350   -0.4673 C   0  0  0  0  0  0  0  0  0  0  0  0
   33.2029   27.3944   -1.4679 N   0  0  0  0  0  0  0  0  0  0  0  0
   32.4107   30.6693   -1.7515 N   0  0  0  0  0  0  0  0  0  0  0  0
   32.7462   28.1058   -2.9157 C   0  0  0  0  0  0  0  0  0  0  0  0
   30.2751   29.2270   -6.5956 O   0  0  0  0  0  1  0  0  0  0  0  0
   30.9116   31.5825   -5.9962 N   0  0  0  0  0  0  0  0  0  0  0  0
   33.0104   30.3157    2.5650 C   0  0  0  0  0  0  0  0  0  0  0  0
   32.7581   31.9899   -8.3304 S   0  0  0  0  0  0  0  0  0  0  0  0
   31.2156   31.6405   -5.2257 C   0  0  1  0  0  0  0  0  0  0  0  0
   31.8334   33.2229   -4.3139 C   0  0  0  0  0  0  0  0  0  0  0  0
   30.5724   30.5556   -6.6811 S   0  0  0  0  0  4  0  0  0  0  0  0
   34.8022   21.3693    0.2081 O   0  0  0  0  0  0  0  0  0  0  0  0
   34.7093   25.4165   -0.8125 C   0  0  0  0  0  0  0  0  0  0  0  0
   32.2610   29.8043   -2.4887 C   0  0  2  0  0  0  0  0  0  0  0  0
   33.2195   31.2530   -9.1383 C   0  0  0  0  0  0  0  0  0  0  0  0
   32.5186   31.2510    1.5780 C   0  0  0  0  0  0  0  0  0  0  0  0
   33.5988   30.3264   -9.6592 C   0  0  0  0  0  0  0  0  0  0  0  0
   34.5645   21.3500    1.6464 F   0  0  0  0  0  0  0  0  0  0  0  0
   34.6473   20.9697    1.9574 C   0  0  0  0  0  0  0  0  0  0  0  0
   29.5770   30.8120   -7.3388 O   0  0  0  0  0  1  0  0  0  0  0  0
   33.7198   23.4807   -0.2703 C   0  0  0  0  0  0  0  0  0  0  0  0
  3  2  2  0
  5  1  2  0
  6  4  1  0
 10  1  1  0
 10  8  2  3
 11  9  1  6
 13  3  1  0
 15 13  1  0
 16  8  1  0
 17 12  2  0
 17 15  1  0
 20  5  1  0
 21  6  1  0
 22 11  1  0
 22 19  1  1
 23 11  1  0
 23 22  1  0
  6 24  1  6
 24 18  1  0
 24 19  1  0
 25  7  1  0
 26 13  2  0
 26 14  1  0
 27  9  1  6
 27 16  1  0
 27 17  1  0
 28 21  1  0
 29 10  1  0
 29 20  2  0
 30  4  1  0
 30 28  1  0
 32 25  1  0
 32 31  1  0
 33 24  1  0
 34  2  1  0
 34  7  1  0
 34 14  2  0
M  RAD  2  18   2  33   2
M  END
>  <ID>  (1) 
conformer_0

$$$$
