
     RDKit          3D

 30 34  0  0  0  0  0  0  0  0999 V2000
   33.7298   29.1609    2.2570 C   0  0  0  0  0  0  0  0  0  0  0  0
   32.3291   24.9128   -0.5518 C   0  0  0  0  0  0  0  0  0  0  0  0
   34.6707   23.9466   -0.3632 C   0  0  0  0  0  0  0  0  0  0  0  0
   32.9090   30.4909    2.4423 C   0  0  0  0  0  0  0  0  0  0  0  0
   32.9765   29.8062   -8.7061 C   0  0  0  0  0  0  0  0  0  0  0  0
   32.7090   30.3264   -1.6394 N   0  0  0  0  0  0  0  0  0  0  0  0
   33.5495   30.9685   -9.2590 C   0  0  0  0  0  0  0  0  0  0  0  0
   32.0275   31.6689   -2.9373 C   0  0  0  0  0  0  0  0  0  0  0  0
   32.1969   31.6593   -1.4941 N   0  0  0  0  0  2  0  0  0  0  0  0
   34.5465   20.7078    2.8579 C   0  0  0  0  0  0  0  0  0  0  0  0
   33.0587   27.3175   -1.3621 N   0  0  0  0  0  0  0  0  0  0  0  0
   34.1961   21.2466    0.6625 O   0  0  0  0  0  0  0  0  0  0  0  0
   33.2657   25.9254   -1.0399 C   0  0  0  0  0  0  0  0  0  0  0  0
   32.6682   27.5277   -3.7264 O   0  0  0  0  0  0  0  0  0  0  0  0
   32.3131   31.9877   -8.6624 S   0  0  0  0  0  0  0  0  0  0  0  0
   32.8805   30.1144    0.0444 C   0  0  0  0  0  0  0  0  0  0  0  0
   34.7407   25.2131   -0.7966 C   0  0  0  0  0  0  0  0  0  0  0  0
   31.7897   30.1395   -3.4463 C   0  0  0  0  0  0  0  0  0  0  0  0
   32.4881   30.9640    1.2037 C   0  0  0  0  0  0  0  0  0  0  0  0
   32.0045   33.1728   -4.0235 C   0  0  0  0  0  0  0  0  0  0  0  0
   30.5961   29.4627   -5.7145 O   0  0  0  0  0  1  0  0  0  0  0  0
   34.8200   21.9474    0.5884 C   0  0  0  0  0  0  0  0  0  0  0  0
   32.8423   28.1232   -2.5040 C   0  0  0  0  0  0  0  0  0  0  0  0
   30.7887   30.6974   -6.2533 S   0  0  0  0  0  4  0  0  0  0  0  0
   31.9603   30.8884   -7.6879 C   0  0  0  0  0  0  0  0  0  0  0  0
   33.0773   23.7486   -0.1303 C   0  0  0  0  0  0  0  0  0  0  0  0
   31.3488   31.1619   -4.4751 C   0  0  0  0  0  0  0  0  0  0  0  0
   32.5648   29.4983   -2.2979 C   0  0  0  0  0  0  0  0  0  0  0  0
   33.5975   29.0784    0.8871 C   0  0  0  0  0  0  0  0  0  0  0  0
   29.5673   31.0169   -6.6109 O   0  0  0  0  0  1  0  0  0  0  0  0
  4  1  2  0
  7  5  1  0
  9  6  1  0
  9  8  1  0
 12 10  1  0
 13  2  2  0
 13 11  1  0
 15  7  1  0
 16  6  1  0
 17  3  2  0
 17 13  1  0
 18  8  1  0
 19  4  1  0
 19 16  2  0
 20  8  1  0
 22  3  1  0
 22 12  1  0
 23 11  1  0
 23 14  2  0
 24 21  1  0
 25  5  1  0
 25 15  1  0
 25 24  1  0
 26  2  1  0
 26  3  1  0
 27  8  1  0
 27 18  1  0
 27 24  1  0
 28  6  1  0
 28 18  2  0
 28 23  1  0
 29  1  1  0
 29 16  1  0
 30 24  1  0
M  RAD  3   9   2  21   2  30   2
M  END
>  <ID>  (1) 
conformer_0

$$$$
