
     RDKit          3D

 36 40  0  0  0  0  0  0  0  0999 V2000
   33.9924   23.7570   -0.2703 C   0  0  0  0  0  0  0  0  0  0  0  0
   32.9424   30.3961    2.4742 C   0  0  0  0  0  0  0  0  0  0  0  0
   32.9651   29.7303   -8.6018 C   0  0  0  0  0  0  0  0  0  0  0  0
   32.4356   25.4900   -0.8690 C   0  0  0  0  0  0  0  0  0  0  0  0
   33.7114   29.0514    2.0758 C   0  0  0  0  0  0  0  0  0  0  0  0
   32.0366   31.4511   -3.0148 C   0  0  0  0  0  0  0  0  0  0  0  0
   34.4543   22.0760    0.3713 C   0  0  0  0  0  0  0  0  0  0  0  0
   31.9991   30.7443   -7.6806 C   0  0  0  0  0  0  0  0  0  0  0  0
   31.5303   30.3292   -3.5298 C   0  0  0  0  0  3  0  0  0  0  0  0
   33.0847   27.5402   -3.8474 O   0  0  0  0  0  0  0  0  0  0  0  0
   32.2469   30.7703   -1.5578 N   0  0  0  0  0  0  0  0  0  0  0  0
   32.4754   32.2317   -8.3463 S   0  0  0  0  0  0  0  0  0  0  0  0
   31.1147   31.4461   -5.6359 N   0  0  0  0  0  0  0  0  0  0  0  0
   35.1168   24.3456   -0.5687 C   0  0  0  0  0  0  0  0  0  0  0  0
   33.4202   26.2022   -1.1845 C   0  0  0  0  0  0  0  0  0  0  0  0
   32.4415   31.0517    1.3406 C   0  0  0  0  0  0  0  0  0  0  0  0
   32.5686   30.2457   -0.0896 C   0  0  0  0  0  0  0  0  0  0  0  0
   33.7554   21.1512   -0.0286 O   0  0  0  0  0  0  0  0  0  0  0  0
   30.2354   29.4423   -6.8207 O   0  0  0  0  0  1  0  0  0  0  0  0
   32.9792   28.0835   -2.4910 C   0  0  0  0  0  0  0  0  0  0  0  0
   31.9008   31.1899   -1.4618 N   0  0  0  0  0  0  0  0  0  0  0  0
   31.2028   31.6208   -5.0742 C   0  0  0  0  0  0  0  0  0  0  0  0
   33.1332   27.2282   -1.4609 N   0  0  0  0  0  0  0  0  0  0  0  0
   34.1525   20.7860    2.7967 C   0  0  0  0  0  0  0  0  0  0  0  0
   30.8865   30.6935   -6.9454 S   0  0  0  0  0  4  0  0  0  0  0  0
   32.6299   24.2833   -0.2066 C   0  0  0  0  0  0  0  0  0  0  0  0
   31.7663   33.1522   -4.1778 C   0  0  0  0  0  0  0  0  0  0  0  0
   33.5535   31.5430   -8.9051 C   0  0  0  0  0  0  0  0  0  0  0  0
   33.6971   30.4112   -9.5300 C   0  0  0  0  0  0  0  0  0  0  0  0
   33.3639   29.1339    0.7682 C   0  0  0  0  0  0  0  0  0  0  0  0
   29.8622   31.5168   -7.5809 O   0  0  0  0  0  1  0  0  0  0  0  0
   32.4364   29.5816   -2.5185 C   0  0  0  0  0  0  0  0  0  0  0  0
   35.3348   20.6998    1.6671 O   0  0  0  0  0  0  0  0  0  0  0  0
   34.6679   21.0172    2.0613 C   0  0  0  0  0  0  0  0  0  0  0  0
   32.9019   28.9676   -1.5595 N   0  0  0  0  0  0  0  0  0  0  0  0
   34.7987   25.6902   -0.9435 C   0  0  0  0  0  0  0  0  0  0  0  0
  5  2  2  0
  7  1  1  0
  8  3  1  0
  9  6  1  0
 12  8  1  0
 14  1  2  0
 15  4  1  0
 16  2  1  0
 17 11  1  0
 17 16  1  0
 18  7  1  0
 20 10  1  0
 21  6  2  0
 21 11  1  0
 22  9  1  0
 22 13  1  0
 23 15  1  0
 23 20  1  0
 25  8  1  0
 25 13  1  0
 25 19  1  0
 26  1  1  0
 26  4  2  0
 27 22  1  0
 28 12  1  0
 29  3  1  0
 29 28  1  0
 30  5  1  0
 30 17  2  0
 31 25  1  0
 32  9  1  0
 32 11  1  0
 32 20  1  0
 34  7  1  0
 34 24  1  0
 34 33  2  0
 35 20  1  0
 35 32  1  0
 36 14  1  0
 36 15  2  0
M  RAD  3   9   2  19   2  31   2
M  END
>  <ID>  (1) 
conformer_0

$$$$
