
     RDKit          3D

 33 37  0  0  0  0  0  0  0  0999 V2000
   34.7820   23.7396   -0.4559 C   0  0  0  0  0  0  0  0  0  0  0  0
   33.5237   29.3104    2.4126 C   0  0  0  0  0  0  0  0  0  0  0  0
   33.5662   29.0215    1.0171 C   0  0  0  0  0  0  0  0  0  0  0  0
   32.9755   29.7253   -8.3653 C   0  0  0  0  0  0  0  0  0  0  0  0
   33.2681   23.6374   -0.2670 C   0  0  0  0  0  0  0  0  0  0  0  0
   31.9961   31.2862   -3.0484 C   0  0  0  0  0  0  0  0  0  0  0  0
   32.4246   30.7777   -7.5885 C   0  0  0  0  0  0  0  0  0  0  0  0
   32.8652   29.9085    0.0338 C   0  0  0  0  0  0  0  0  0  0  0  0
   34.4047   22.0358    0.3561 C   0  0  0  0  0  0  0  0  0  0  0  0
   32.7643   27.4099   -3.9043 O   0  0  0  0  0  0  0  0  0  0  0  0
   32.5667   30.3055   -1.4536 N   0  0  0  0  0  0  0  0  0  0  0  0
   33.3298   27.5456   -1.4532 N   0  0  0  0  0  0  0  0  0  0  0  0
   31.9408   29.8775   -3.5625 C   0  0  0  0  0  0  0  0  0  0  0  0
   33.4809   25.9713   -1.0823 C   0  0  0  0  0  0  0  0  0  0  0  0
   32.5027   24.8950   -0.6916 C   0  0  0  0  0  3  0  0  0  0  0  0
   33.2855   32.1555   -8.3391 S   0  0  0  0  0  0  0  0  0  0  0  0
   32.0850   31.3452   -1.7646 N   0  0  0  0  0  0  0  0  0  0  0  0
   31.4024   32.4150   -5.1324 C   0  0  0  0  0  0  0  0  0  0  0  0
   31.0578   31.6611   -5.5918 N   0  0  0  0  0  0  0  0  0  0  0  0
   32.5335   28.5285   -3.8324 C   0  0  0  0  0  0  0  0  0  0  0  0
   32.7988   30.6604    2.3673 C   0  0  0  0  0  0  0  0  0  0  0  0
   30.4571   29.3049   -6.6354 O   0  0  0  0  0  1  0  0  0  0  0  0
   31.8941   33.1104   -4.2754 C   0  0  0  0  0  0  0  0  0  0  0  0
   34.7851   20.9942    2.2810 F   0  0  0  0  0  0  0  0  0  0  0  0
   30.7106   30.6117   -6.5507 S   0  0  0  0  0  4  0  0  0  0  0  0
   34.0779   31.3780   -9.0398 C   0  0  0  0  0  0  0  0  0  0  0  0
   32.6571   29.4043   -2.2103 C   0  0  0  0  0  0  0  0  0  0  0  0
   34.8905   25.0844   -0.7978 C   0  0  0  0  0  0  0  0  0  0  0  0
   30.0231   31.2803   -7.4849 O   0  0  0  0  0  1  0  0  0  0  0  0
   33.7698   30.2097   -9.4492 C   0  0  0  0  0  0  0  0  0  0  0  0
   34.5718   20.7657    2.3832 C   0  0  0  0  0  0  0  0  0  0  0  0
   32.5268   31.0753    1.1444 C   0  0  0  0  0  0  0  0  0  0  0  0
   33.8817   21.0366    0.4745 F   0  0  0  0  0  0  0  0  0  0  0  0
  3  2  2  0
  5  1  2  0
  7  4  1  0
  8  3  1  0
  9  1  1  0
 11  8  1  0
 13  6  1  0
 14  3  1  0
 14 12  1  0
 15  5  1  0
 15 14  1  0
 16  7  1  0
 17  6  2  0
 17 11  1  0
 19 18  1  0
 20 10  1  0
 20 13  1  0
 21  2  1  0
 23  6  1  0
 23 18  1  0
 25  7  1  0
 25 19  1  0
 25 22  1  0
 26 16  1  0
 27 11  1  0
 27 13  2  0
 27 20  1  0
 28  1  1  0
 28 14  1  0
 29 25  1  0
 30  4  1  0
 30 26  1  0
 31  9  1  0
 31 24  1  0
 32  8  2  0
 32 21  1  0
 33  9  1  0
M  RAD  3  15   2  22   2  29   2
M  END
>  <ID>  (1) 
conformer_0

$$$$
