
     RDKit          3D

 32 35  0  0  0  0  0  0  0  0999 V2000
   34.6333   23.9609   -0.4312 C   0  0  0  0  0  0  0  0  0  0  0  0
   33.3937   29.2596    0.9731 C   0  0  0  0  0  0  0  0  0  0  0  0
   32.7880   29.7340   -8.3660 C   0  0  0  0  0  0  0  0  0  0  0  0
   33.1008   23.8440   -0.2346 C   0  0  0  0  0  0  0  0  0  0  0  0
   32.9513   30.6671    2.6302 C   0  0  0  0  0  0  0  0  0  0  0  0
   32.0560   31.5134   -1.1634 N   0  0  0  0  0  0  0  0  0  0  0  0
   32.0545   31.1972   -2.7639 C   0  0  0  0  0  0  0  0  0  0  0  0
   32.0870   30.6015   -7.5564 C   0  0  0  0  0  0  0  0  0  0  0  0
   34.7239   21.7595    0.5992 C   0  0  0  0  0  0  0  0  0  0  0  0
   32.4198   25.1633   -0.5716 C   0  0  0  0  0  0  0  0  0  0  0  0
   33.4279   26.3391   -0.8026 C   0  0  0  0  0  0  0  0  0  0  0  0
   33.1174   32.0401   -8.3606 S   0  0  0  0  0  0  0  0  0  0  0  0
   31.2318   30.9564   -5.7515 N   0  0  0  0  0  0  0  0  0  0  0  0
   32.2546   29.8388   -4.8017 C   0  0  0  0  0  0  0  0  0  0  0  0
   33.3575   27.6641   -1.0190 N   0  0  0  0  0  0  0  0  0  0  0  0
   32.8007   27.7013   -3.7407 O   0  0  0  0  0  0  0  0  0  0  0  0
   32.7688   30.2241    0.2307 C   0  0  0  0  0  0  0  0  0  0  0  0
   31.9790   29.9157   -3.0974 C   0  0  0  0  0  0  0  0  0  0  0  0
   32.7470   30.1134   -1.4686 N   0  0  0  0  0  0  0  0  0  0  0  0
   32.4758   31.2845    1.5411 C   0  0  0  0  0  0  0  0  0  0  0  0
   34.5046   20.6128    2.5564 C   0  0  0  0  0  0  0  0  0  0  0  0
   30.3563   28.9049   -6.9262 O   0  0  0  0  0  1  0  0  0  0  0  0
   35.0600   21.3586    0.1475 O   0  0  0  0  0  0  0  0  0  0  0  0
   31.7689   33.0569   -4.0757 C   0  0  0  0  0  0  0  0  0  0  0  0
   34.8208   25.2418   -0.7033 C   0  0  0  0  0  0  0  0  0  0  0  0
   33.7376   31.2436   -9.0161 C   0  0  0  0  0  0  0  0  0  0  0  0
   30.4643   30.2264   -6.6505 S   0  0  0  0  0  4  0  0  0  0  0  0
   31.3133   31.8862   -4.9396 C   0  0  0  0  0  0  0  0  0  0  0  0
   32.7194   29.3323   -1.9017 C   0  0  0  0  0  3  0  0  0  0  0  0
   33.5963   30.2142   -9.5196 C   0  0  0  0  0  0  0  0  0  0  0  0
   33.7076   29.3492    2.3675 C   0  0  0  0  0  0  0  0  0  0  0  0
   29.5974   30.8619   -7.2876 O   0  0  0  0  0  1  0  0  0  0  0  0
  4  1  2  0
  7  6  2  0
  8  3  1  0
  9  1  1  0
 10  4  1  0
 11 10  2  0
 12  8  1  0
 14 13  1  0
 15 11  1  0
 17  2  2  0
 18  7  1  0
 18 14  1  0
 18 16  1  0
 19  6  1  0
 19 17  1  0
 20  5  2  0
 20 17  1  0
 21  9  1  0
 23  9  2  0
 25  1  1  0
 25 11  1  0
 26 12  1  0
 27  8  1  0
 27 13  1  0
 27 22  1  0
 28 13  1  0
 28 24  1  0
 29 15  1  0
 29 18  1  0
 29 19  1  0
 30  3  1  0
 30 26  1  0
 31  2  1  0
 31  5  1  0
 32 27  1  0
M  RAD  3  22   2  29   2  32   2
M  END
>  <ID>  (1) 
conformer_0

$$$$
