
     RDKit          3D

 28 28  0  0  0  0  0  0  0  0999 V2000
   33.5703   29.0888    1.0428 C   0  0  0  0  0  0  0  0  0  0  0  0
   32.3816   25.0315   -0.5147 C   0  0  0  0  0  0  0  0  0  0  0  0
   34.6318   23.9753   -0.3411 C   0  0  0  0  0  0  0  0  0  0  0  0
   33.3665   30.3052   -8.9262 C   0  0  0  0  0  0  0  0  0  0  0  0
   33.4662   29.6054    2.1929 C   0  0  0  0  0  0  0  0  0  0  0  0
   31.7388   30.0952   -3.3577 C   0  0  0  0  0  0  0  0  0  0  0  0
   31.8318   30.9534   -7.4030 C   0  0  0  0  0  0  0  0  0  0  0  0
   32.0601   31.4315   -1.2500 N   0  0  0  0  0  0  0  0  0  0  0  0
   34.6160   25.2728   -0.7290 C   0  0  0  0  0  0  0  0  0  0  0  0
   32.2411   30.4146   -2.6593 C   0  0  0  0  0  0  0  0  0  0  0  0
   32.5658   30.3767   -1.5403 N   0  0  0  0  0  0  0  0  0  0  0  0
   34.3949   21.5195    0.9455 C   0  0  0  0  0  0  0  0  0  0  0  0
   32.8954   27.3718   -3.6313 O   0  0  0  0  0  0  0  0  0  0  0  0
   33.2626   27.7679   -1.4685 N   0  0  0  0  0  0  0  0  0  0  0  0
   29.8174   29.9483   -6.3731 O   0  0  0  0  0  1  0  0  0  0  0  0
   32.7495   30.8351    1.6981 C   0  0  0  0  0  0  0  0  0  0  0  0
   34.7828   21.4171    0.2686 O   0  0  0  0  0  0  0  0  0  0  0  0
   32.7963   30.1985   -0.2735 C   0  0  0  0  0  0  0  0  0  0  0  0
   33.4978   31.5057   -8.9045 C   0  0  0  0  0  0  0  0  0  0  0  0
   30.5941   30.4734   -6.3354 S   0  0  0  0  0  3  0  0  0  0  0  0
   32.8871   27.8499   -2.5071 C   0  0  0  0  0  0  0  0  0  0  0  0
   31.7874   33.2173   -4.1161 C   0  0  0  0  0  0  0  0  0  0  0  0
   31.2873   30.9553   -4.5447 C   0  0  0  0  0  0  0  0  0  0  0  0
   33.0250   23.7876   -0.1742 C   0  0  0  0  0  0  0  0  0  0  0  0
   31.1078   31.2324   -5.5819 N   0  0  0  0  0  0  0  0  0  0  0  0
   32.5829   29.8589   -7.9765 C   0  0  0  0  0  0  0  0  0  0  0  0
   33.2422   25.9632   -1.0476 C   0  0  0  0  0  0  0  0  0  0  0  0
   34.4416   32.1160   -9.2916 F   0  0  0  0  0  0  0  0  0  0  0  0
  5  1  1  0
  9  3  2  0
 10  6  1  0
 11  8  1  0
 11 10  1  0
 16  5  1  0
 17  3  1  0
 17 12  1  0
 18  1  1  0
 18 11  1  0
 19  4  1  0
 20 15  1  0
 21 13  2  0
 21 14  1  0
 23  6  1  0
 23 22  1  0
 24  2  2  0
 24  3  1  0
 25  7  1  0
 25 20  1  0
 25 23  1  0
 26  4  1  0
 26  7  1  0
 27  1  1  0
 27  2  1  0
 27  9  1  0
 27 14  1  0
 28 19  1  0
M  RAD  2  15   2  20   2
M  END
>  <ID>  (1) 
conformer_0

$$$$
