
     RDKit          3D

 34 38  0  0  0  0  0  0  0  0999 V2000
   33.3574   29.1323    0.8398 C   0  0  0  0  0  0  0  0  0  0  0  0
   32.4002   25.2234   -0.6384 C   0  0  0  0  0  0  0  0  0  0  0  0
   35.0354   24.4903   -0.4407 C   0  0  0  0  0  0  0  0  0  0  0  0
   32.9320   29.6757   -8.7218 C   0  0  0  0  0  0  0  0  0  0  0  0
   33.6135   29.2499    2.1529 C   0  0  0  0  0  0  0  0  0  0  0  0
   32.6208   29.5101   -2.7572 C   0  0  0  0  0  0  0  0  0  0  0  0
   31.9604   30.6540   -7.7645 C   0  0  0  0  0  0  0  0  0  0  0  0
   34.7241   22.0856    0.3635 C   0  0  0  0  0  0  0  0  0  0  0  0
   32.5980   30.0511   -1.4851 N   0  0  0  0  0  0  0  0  0  0  0  0
   34.5223   25.7344   -0.7628 C   0  0  0  0  0  0  0  0  0  0  0  0
   32.8816   27.8427   -2.6540 C   0  0  0  0  0  0  0  0  0  0  0  0
   32.6699   30.1560   -0.2088 C   0  0  0  0  0  0  0  0  0  0  0  0
   33.0900   27.5655   -3.8488 O   0  0  0  0  0  0  0  0  0  0  0  0
   32.4101   31.0730    1.2370 C   0  0  0  0  0  0  0  0  0  0  0  0
   30.2288   29.2323   -6.9442 O   0  0  0  0  0  1  0  0  0  0  0  0
   35.7130   21.4559    0.7906 O   0  0  0  0  0  0  0  0  0  0  0  0
   31.3680   31.8012   -5.2080 C   0  0  0  0  0  0  0  0  0  0  0  0
   33.2209   26.0079   -1.1422 C   0  0  0  0  0  0  0  0  0  0  0  0
   30.4234   30.5640   -6.7826 S   0  0  0  0  0  4  0  0  0  0  0  0
   30.8732   31.4090   -5.6317 N   0  0  0  0  0  0  0  0  0  0  0  0
   32.8945   31.6920   -8.3879 S   0  0  0  0  0  4  0  0  0  0  0  0
   32.2343   31.4299   -1.8050 N   0  0  0  0  0  0  0  0  0  0  0  0
   33.5779   31.3691   -8.9131 C   0  0  0  0  0  0  0  0  0  0  0  0
   32.6637   24.0097   -0.1748 C   0  0  0  0  0  0  0  0  0  0  0  0
   32.9637   27.3019   -1.3972 N   0  0  0  0  0  0  0  0  0  0  0  0
   34.5911   20.9405    2.4630 C   0  0  0  0  0  0  0  0  0  0  0  0
   31.8171   32.2367   -4.0696 C   0  0  0  0  0  0  0  0  0  0  0  0
   32.8597   30.5120    2.4518 C   0  0  0  0  0  0  0  0  0  0  0  0
   31.9037   30.3380   -3.3566 C   0  0  0  0  0  0  0  0  0  0  0  0
   32.1565   31.2508   -2.9356 C   0  0  0  0  0  0  0  0  0  0  0  0
   33.7981   30.3411   -9.7014 C   0  0  0  0  0  0  0  0  0  0  0  0
   33.8616   21.1483    0.6482 O   0  0  0  0  0  0  0  0  0  0  0  0
   34.0788   23.5176   -0.1437 C   0  0  0  0  0  0  0  0  0  0  0  0
   29.4682   30.9121   -7.2410 O   0  0  0  0  0  1  0  0  0  0  0  0
  5  1  2  0
  7  4  1  0
  9  6  1  0
 10  3  2  0
 11  6  1  0
 12  1  1  0
 12  9  1  0
 13 11  2  0
 14 12  1  0
 16  8  2  0
 18  2  2  0
 18 10  1  0
 19  7  1  0
 19 15  1  0
 20 17  1  0
 20 19  1  0
 21  4  1  0
 21  7  1  0
 22  9  1  0
 23 21  1  0
 24  2  1  0
 25 11  1  0
 25 18  1  0
 27 17  1  0
 28  5  1  0
 28 14  2  0
 29  6  2  0
 30 22  2  0
 30 27  1  0
 30 29  1  0
 31  4  1  0
 31 23  1  0
 32  8  1  0
 32 26  1  0
 33  3  1  0
 33  8  1  0
 33 24  2  0
 34 19  1  0
M  RAD  2  15   2  34   2
M  END
>  <ID>  (1) 
conformer_0

$$$$
