
     RDKit          3D

 32 36  0  0  0  0  0  0  0  0999 V2000
   34.7244   24.0815   -0.4726 C   0  0  0  0  0  0  0  0  0  0  0  0
   33.5417   28.8693    0.8472 C   0  0  0  0  0  0  0  0  0  0  0  0
   33.5286   30.2849   -9.4229 C   0  0  0  0  0  0  0  0  0  0  0  0
   32.3223   25.0818   -0.5692 C   0  0  0  0  0  0  0  0  0  0  0  0
   33.6150   29.1074    2.2214 C   0  0  0  0  0  0  0  0  0  0  0  0
   32.5349   30.3676   -1.3314 N   0  0  0  0  0  0  0  0  0  0  0  0
   31.7959   30.8802   -7.6436 C   0  0  0  0  0  0  0  0  0  0  0  0
   32.8509   30.0646    0.1621 C   0  0  0  0  0  0  0  0  0  0  0  0
   32.5144   32.2160   -8.3309 S   0  0  0  0  0  0  0  0  0  0  0  0
   31.9815   31.3534   -2.8826 C   0  0  0  0  0  0  0  0  0  0  0  0
   32.9821   27.6223   -1.1033 N   0  0  0  0  0  0  0  0  0  0  0  0
   32.8413   27.4713   -3.5555 O   0  0  0  0  0  0  0  0  0  0  0  0
   34.1175   21.4679    0.3558 O   0  0  0  0  0  0  0  0  0  0  0  0
   34.4945   25.3124   -0.7779 C   0  0  0  0  0  0  0  0  0  0  0  0
   30.1812   29.2383   -6.8270 O   0  0  0  0  0  1  0  0  0  0  0  0
   32.0206   29.7393   -3.0259 C   0  0  0  0  0  0  0  0  0  0  0  0
   32.0157   31.4494   -1.3448 N   0  0  0  0  0  0  0  0  0  0  0  0
   32.6314   31.1012    1.1113 C   0  0  0  0  0  0  0  0  0  0  0  0
   30.5744   30.5570   -6.7693 S   0  0  0  0  0  4  0  0  0  0  0  0
   31.3538   31.0389   -4.6002 C   0  0  0  0  0  0  0  0  0  0  0  0
   34.2851   20.7040    2.6321 C   0  0  0  0  0  0  0  0  0  0  0  0
   33.1559   26.2611   -0.9977 C   0  0  0  0  0  0  0  0  0  0  0  0
   32.7224   23.8846   -0.1938 C   0  0  0  0  0  0  0  0  0  0  0  0
   33.8758   22.8557    0.0059 C   0  0  0  0  0  0  0  0  0  0  0  0
   33.5334   31.4454   -9.0486 C   0  0  0  0  0  0  0  0  0  0  0  0
   32.6077   28.1461   -2.9271 C   0  0  0  0  0  0  0  0  0  0  0  0
   30.8811   30.9272   -5.3066 N   0  0  0  0  0  0  0  0  0  0  0  0
   32.8205   29.7073   -8.3668 C   0  0  0  0  0  0  0  0  0  0  0  0
   32.5702   29.4000   -1.8126 C   0  0  0  0  0  0  0  0  0  0  0  0
   35.1117   21.7414    0.2805 C   0  0  0  0  0  0  0  0  0  0  0  0
   32.9690   30.5401    2.3144 C   0  0  0  0  0  0  0  0  0  0  0  0
   29.4861   30.9567   -7.1196 O   0  0  0  0  0  1  0  0  0  0  0  0
  5  2  2  0
  8  2  1  0
  8  6  1  0
  9  7  1  0
 14  1  2  0
 16 10  1  0
 17  6  1  0
 17 10  2  0
 18  8  1  0
 19  7  1  0
 19 15  1  0
 20 10  1  0
 22  4  2  0
 22 11  1  0
 22 14  1  0
 23  4  1  0
 24  1  1  0
 24 13  1  0
 24 23  2  0
 25  3  1  0
 25  9  1  0
 26 11  1  0
 26 12  1  0
 26 16  1  0
 27 19  1  0
 27 20  1  0
 28  3  1  0
 28  7  1  0
 29  6  1  0
 29 16  2  0
 29 26  1  0
 30 13  1  0
 30 21  1  0
 31  5  1  0
 31 18  2  0
 32 19  1  0
M  RAD  2  15   2  32   2
M  END
>  <ID>  (1) 
conformer_0

$$$$
