
     RDKit          3D

 33 37  0  0  0  0  0  0  0  0999 V2000
   32.6285   30.9869    1.2357 C   0  0  0  0  0  0  0  0  0  0  0  0
   32.3840   25.0964   -0.8192 C   0  0  0  0  0  0  0  0  0  0  0  0
   33.6442   30.0723   -9.7146 C   0  0  0  0  0  0  0  0  0  0  0  0
   33.6586   28.9560    2.0760 C   0  0  0  0  0  0  0  0  0  0  0  0
   34.6026   23.9246   -0.3896 C   0  0  0  0  0  0  0  0  0  0  0  0
   34.7204   22.2239    0.1620 C   0  0  0  0  0  0  0  0  0  0  0  0
   32.1184   30.6305   -7.8650 C   0  0  0  0  0  0  0  0  0  0  0  0
   32.3871   30.6597   -1.6887 N   0  0  0  0  0  0  0  0  0  0  0  0
   33.4640   26.0131   -1.2515 C   0  0  0  0  0  0  0  0  0  0  0  0
   31.7270   31.6536   -3.2130 C   0  0  0  0  0  0  0  0  0  0  0  0
   33.1847   27.3054   -1.4788 N   0  0  0  0  0  0  0  0  0  0  0  0
   32.9847   27.5346   -3.6569 O   0  0  0  0  0  0  0  0  0  0  0  0
   34.8522   25.2424   -0.7159 C   0  0  0  0  0  0  0  0  0  0  0  0
   33.3159   29.1192    0.7258 C   0  0  0  0  0  0  0  0  0  0  0  0
   31.2561   30.5641   -3.5821 C   0  0  0  0  0  0  0  0  0  0  0  0
   30.6570   30.7577   -6.7737 S   0  0  0  0  0  4  0  0  0  0  0  0
   30.0158   29.5676   -6.9862 O   0  0  0  0  0  1  0  0  0  0  0  0
   32.7616   30.3160   -0.3132 C   0  0  0  0  0  0  0  0  0  0  0  0
   32.9649   28.1295   -2.2563 C   0  0  0  0  0  0  0  0  0  0  0  0
   35.1897   21.0706    2.3565 F   0  0  0  0  0  0  0  0  0  0  0  0
   32.9728   31.8747   -8.4193 S   0  0  0  0  0  0  0  0  0  0  0  0
   31.8680   31.3510   -1.5494 N   0  0  0  0  0  0  0  0  0  0  0  0
   31.3749   31.6676   -5.1214 C   0  0  0  0  0  0  0  0  0  0  0  0
   31.8999   32.9081   -4.4257 C   0  0  0  0  0  0  0  0  0  0  0  0
   34.9579   21.6309   -0.1221 O   0  0  0  0  0  0  0  0  0  0  0  0
   33.0807   30.3863    2.4801 C   0  0  0  0  0  0  0  0  0  0  0  0
   30.0243   31.6463   -7.6407 O   0  0  0  0  0  1  0  0  0  0  0  0
   33.1298   29.4380   -8.5114 C   0  0  0  0  0  0  0  0  0  0  0  0
   33.0381   23.8845   -0.3225 C   0  0  0  0  0  0  0  0  0  0  0  0
   33.7038   31.1540   -9.2416 C   0  0  0  0  0  0  0  0  0  0  0  0
   34.0424   21.0391    0.9473 F   0  0  0  0  0  0  0  0  0  0  0  0
   34.6354   21.0345    1.8690 C   0  0  0  0  0  0  0  0  0  0  0  0
   32.0179   29.6996   -2.6019 C   0  0  0  0  0  0  0  0  0  0  0  0
  6  5  1  0
  9  2  2  0
 11  9  1  0
 13  5  2  0
 13  9  1  0
 14  4  2  0
 15 10  1  0
 16  7  1  0
 17 16  1  0
 18  1  2  0
 18  8  1  0
 18 14  1  0
 19 11  1  0
 19 12  2  0
 21  7  1  0
 22  8  1  0
 22 10  2  0
 23 15  1  0
 23 16  1  0
 24 10  1  0
 24 23  1  0
 25  6  2  0
 26  1  1  0
 26  4  1  0
 27 16  1  0
 28  3  1  0
 28  7  1  0
 29  2  1  0
 29  5  1  0
 30  3  1  0
 30 21  1  0
 32  6  1  0
 32 20  1  0
 32 31  1  0
 33  8  1  0
 33 15  2  0
 33 19  1  0
M  RAD  2  17   2  27   2
M  END
>  <ID>  (1) 
conformer_0

$$$$
