
     RDKit          3D

 31 36  0  0  0  0  0  0  0  0999 V2000
   34.7092   25.0724   -0.7394 C   0  0  0  0  0  0  0  0  0  0  0  0
   33.5503   29.1430    1.1761 C   0  0  0  0  0  0  0  0  0  0  0  0
   32.8421   29.6379   -8.3909 C   0  0  0  0  0  0  0  0  0  0  0  0
   33.0852   23.6568   -0.2111 C   0  0  0  0  0  0  0  0  0  0  0  0
   33.3146   29.7369    2.2851 C   0  0  0  0  0  0  0  0  0  0  0  0
   32.0821   30.7003   -7.6864 C   0  0  0  0  0  0  0  0  0  0  0  0
   32.4901   30.2386   -1.5099 N   0  0  0  0  0  0  0  0  0  0  0  0
   31.7027   31.2228   -2.8796 C   0  0  0  0  0  0  0  0  0  0  0  0
   31.7362   29.9269   -3.2922 C   0  0  0  0  0  3  0  0  0  0  0  0
   32.4063   24.9494   -0.7350 C   0  0  0  0  0  0  0  0  0  0  0  0
   35.0980   21.7986    0.5923 C   0  0  0  0  0  0  0  0  0  0  0  0
   31.9351   31.4570   -1.1336 N   0  0  0  0  0  0  0  0  0  0  0  0
   32.6418   30.4183    0.1416 C   0  0  0  0  0  0  0  0  0  0  0  0
   33.0922   32.2312   -8.5788 S   0  0  0  0  0  0  0  0  0  0  0  0
   33.2279   27.5050   -1.3709 N   0  0  0  0  0  0  0  0  0  0  0  0
   33.3353   25.9861   -1.2701 C   0  0  0  0  0  0  0  0  0  0  0  0
   31.3015   31.1458   -5.8128 N   0  0  0  0  0  0  0  0  0  0  0  0
   35.1541   21.4591    1.9007 F   0  0  0  0  0  0  0  0  0  0  0  0
   30.7218   29.0174   -6.3683 O   0  0  0  0  0  1  0  0  0  0  0  0
   32.5629   30.9378    1.7876 C   0  0  0  0  0  0  0  0  0  0  0  0
   32.7602   27.4011   -3.7109 O   0  0  0  0  0  0  0  0  0  0  0  0
   31.4323   31.3875   -5.1746 C   0  0  0  0  0  0  0  0  0  0  0  0
   30.7481   30.4467   -6.6531 S   0  0  0  0  0  4  0  0  0  0  0  0
   34.5319   23.7142   -0.2991 C   0  0  0  0  0  0  0  0  0  0  0  0
   31.6955   32.7268   -4.0386 C   0  0  0  0  0  0  0  0  0  0  0  0
   32.5806   28.3452   -3.2053 C   0  0  0  0  0  0  0  0  0  0  0  0
   33.6893   31.2707   -9.0399 C   0  0  0  0  0  0  0  0  0  0  0  0
   32.5572   29.2404   -2.0869 C   0  0  0  0  0  0  0  0  0  0  0  0
   29.7169   30.7362   -7.3577 O   0  0  0  0  0  1  0  0  0  0  0  0
   33.6691   30.2083   -9.3618 C   0  0  0  0  0  0  0  0  0  0  0  0
   34.0154   21.1754    0.6578 F   0  0  0  0  0  0  0  0  0  0  0  0
  5  2  2  0
  6  3  2  0
  9  8  1  0
 10  4  2  0
 12  7  1  0
 12  8  1  0
 13  2  1  0
 13  7  1  0
 13 12  1  0
 14  6  1  0
 16  1  2  0
 16 10  1  0
 16 15  1  0
 18 11  1  0
 20  5  1  0
 20 13  1  0
 22 17  1  0
 23  6  1  0
 23 17  1  0
 23 19  1  0
 24  1  1  0
 24  4  1  0
 24 11  1  0
 25  8  1  0
 25 22  1  0
 26  9  1  0
 26 21  2  0
 27 14  1  0
 28  7  1  0
 28  9  1  0
 28 15  1  0
 28 26  1  0
 29 23  1  0
 30  3  1  0
 30 27  1  0
 31 11  1  0
M  RAD  3   9   2  19   2  29   2
M  END
>  <ID>  (1) 
conformer_0

$$$$
