
     RDKit          3D

 35 38  0  0  0  0  0  0  0  0999 V2000
   34.2286   23.5752   -0.1808 C   0  0  0  0  0  0  0  0  0  0  0  0
   33.6037   29.2635    2.2232 C   0  0  0  0  0  0  0  0  0  0  0  0
   32.7624   24.0664   -0.2371 C   0  0  0  0  0  0  0  0  0  0  0  0
   33.4304   29.1017    0.9075 C   0  0  0  0  0  0  0  0  0  0  0  0
   33.4415   30.0582   -9.3405 C   0  0  0  0  0  0  0  0  0  0  0  0
   31.9032   30.8968   -7.6602 C   0  0  0  0  0  0  0  0  0  0  0  0
   32.5038   30.1761   -1.7744 N   0  0  0  0  0  0  0  0  0  0  0  0
   34.8896   22.1846    0.2377 C   0  0  0  0  0  0  0  0  0  0  0  0
   31.1916   30.8173   -5.6969 N   0  0  0  0  0  0  0  0  0  0  0  0
   35.1697   24.5820   -0.4551 C   0  0  0  0  0  0  0  0  0  0  0  0
   33.0567   27.7374   -3.9906 O   0  0  0  0  0  0  0  0  0  0  0  0
   31.6163   29.6625   -3.3937 C   0  0  0  0  0  0  0  0  0  0  0  0
   32.0861   33.4452   -4.5951 C   0  0  0  0  0  0  0  0  0  0  0  0
   31.6637   31.1347   -3.2714 C   0  0  0  0  0  0  0  0  0  0  0  0
   32.6863   32.2221   -8.6757 S   0  0  0  0  0  0  0  0  0  0  0  0
   32.4985   31.0736    1.1816 C   0  0  0  0  0  0  0  0  0  0  0  0
   33.0338   27.5613   -1.4560 N   0  0  0  0  0  0  0  0  0  0  0  0
   32.7425   30.3468   -0.0251 C   0  0  0  0  0  0  0  0  0  0  0  0
   33.0878   28.1640   -2.1666 C   0  0  0  0  0  0  0  0  0  0  0  0
   31.4439   32.3559   -5.0169 C   0  0  0  0  0  0  0  0  0  0  0  0
   34.7958   21.1298   -0.0888 O   0  0  0  0  0  0  0  0  0  0  0  0
   30.3227   28.7430   -6.9840 O   0  0  0  0  0  1  0  0  0  0  0  0
   32.5786   25.3428   -0.7127 C   0  0  0  0  0  0  0  0  0  0  0  0
   34.5480   25.8328   -0.7887 C   0  0  0  0  0  0  0  0  0  0  0  0
   30.6193   30.3586   -6.8569 S   0  0  0  0  0  4  0  0  0  0  0  0
   34.5505   20.3295    2.8784 C   0  0  0  0  0  0  0  0  0  0  0  0
   33.3962   31.1215   -9.1388 C   0  0  0  0  0  0  0  0  0  0  0  0
   32.8860   30.5915    2.4697 C   0  0  0  0  0  0  0  0  0  0  0  0
   31.8396   31.3544   -1.6096 N   0  0  0  0  0  0  0  0  0  0  0  0
   31.5168   29.7962   -4.6450 C   0  0  0  0  0  0  0  0  0  0  0  0
   29.6652   30.8903   -7.3671 O   0  0  0  0  0  1  0  0  0  0  0  0
   33.3138   26.0439   -1.0787 C   0  0  0  0  0  0  0  0  0  0  0  0
   34.7556   20.9733    1.9262 C   0  0  0  0  0  0  0  0  0  0  0  0
   32.6594   29.5925   -8.0875 C   0  0  0  0  0  0  0  0  0  0  0  0
   32.2416   29.3512   -2.4693 C   0  0  0  0  0  0  0  0  0  0  0  0
  3  1  2  0
  4  2  2  0
  8  1  1  0
 10  1  1  0
 14 12  1  0
 15  6  1  0
 18  4  1  0
 18  7  1  0
 18 16  2  0
 19 11  1  0
 19 17  1  0
 20  9  1  0
 20 13  1  0
 21  8  1  0
 23  3  1  0
 24 10  2  0
 25  6  1  0
 25  9  1  0
 25 22  1  0
 27  5  1  0
 27 15  1  0
 28  2  1  0
 28 16  1  0
 29  7  1  0
 29 14  2  0
 30  9  1  0
 30 12  1  0
 31 25  1  0
 32 17  1  0
 32 23  2  0
 32 24  1  0
 33  8  1  0
 33 26  3  0
 34  5  1  0
 34  6  1  0
 35  7  1  0
 35 12  2  0
 35 19  1  0
M  RAD  2  22   2  31   2
M  END
>  <ID>  (1) 
conformer_0

$$$$
