
     RDKit          3D

 35 38  0  0  0  0  0  0  0  0999 V2000
   34.7037   24.0672   -0.4853 C   0  0  0  0  0  0  0  0  0  0  0  0
   33.4353   29.1446    0.5522 C   0  0  0  0  0  0  0  0  0  0  0  0
   32.2365   24.0982   -0.2575 C   0  0  0  0  0  0  0  0  0  0  0  0
   33.2456   30.4206   -9.8715 C   0  0  0  0  0  0  0  0  0  0  0  0
   33.8502   28.9293    1.9235 C   0  0  0  0  0  0  0  0  0  0  0  0
   32.8781   32.3594   -8.4077 S   0  0  0  0  0  0  0  0  0  0  0  0
   32.5768   30.5702   -1.6872 N   0  0  0  0  0  0  0  0  0  0  0  0
   33.1591   25.9284   -1.2426 C   0  0  0  0  0  0  0  0  0  0  0  0
   31.9302   31.6050   -3.1331 C   0  0  0  0  0  0  0  0  0  0  0  0
   32.8176   30.3632    0.1009 C   0  0  0  0  0  0  0  0  0  0  0  0
   32.1041   31.5027   -1.2494 N   0  0  0  0  0  0  0  0  0  0  0  0
   32.0444   25.3100   -0.7741 C   0  0  0  0  0  0  0  0  0  0  0  0
   34.6835   21.9787    0.1702 C   0  0  0  0  0  0  0  0  0  0  0  0
   32.8756   27.4240   -3.6736 O   0  0  0  0  0  0  0  0  0  0  0  0
   32.7096   27.9485   -2.8170 C   0  0  0  0  0  0  0  0  0  0  0  0
   31.8783   30.9070   -7.8834 C   0  0  0  0  0  0  0  0  0  0  0  0
   33.0500   27.2944   -1.4455 N   0  0  0  0  0  0  0  0  0  0  0  0
   30.0377   29.6374   -6.5772 O   0  0  0  0  0  1  0  0  0  0  0  0
   35.0490   21.3370   -0.0586 O   0  0  0  0  0  0  0  0  0  0  0  0
   33.2142   30.1312    2.5307 C   0  0  0  0  0  0  0  0  0  0  0  0
   31.8796   30.0695   -3.3422 C   0  0  0  0  0  0  0  0  0  0  0  0
   31.7770   32.8134   -4.2295 C   0  0  0  0  0  0  0  0  0  0  0  0
   31.5538   31.9920   -5.4532 C   0  0  0  0  0  0  0  0  0  0  0  0
   30.6285   30.7119   -6.6930 S   0  0  0  0  0  4  0  0  0  0  0  0
   31.2699   31.5968   -6.0344 N   0  0  0  0  0  0  0  0  0  0  0  0
   34.5044   25.3028   -0.8314 C   0  0  0  0  0  0  0  0  0  0  0  0
   29.8709   32.0185   -7.6160 O   0  0  0  0  0  1  0  0  0  0  0  0
   34.7273   20.9327    2.1910 C   0  0  0  0  0  0  0  0  0  0  0  0
   32.4831   29.6721   -2.3721 C   0  0  0  0  0  0  0  0  0  0  0  0
   35.3288   21.7520    2.0793 O   0  0  0  0  0  0  0  0  0  0  0  0
   32.5384   30.9886    1.6129 C   0  0  0  0  0  0  0  0  0  0  0  0
   34.3287   20.2589    2.7424 C   0  0  0  0  0  0  0  0  0  0  0  0
   32.7900   29.9434   -8.5588 C   0  0  0  0  0  0  0  0  0  0  0  0
   33.5599   31.2824   -9.2635 C   0  0  0  0  0  0  0  0  0  0  0  0
   33.4944   23.3803   -0.1684 C   0  0  0  0  0  0  0  0  0  0  0  0
  5  2  2  0
 10  2  1  0
 10  7  1  0
 11  7  1  0
 11  9  2  0
 12  3  1  0
 12  8  2  0
 15 14  2  0
 16  6  1  0
 17  8  1  0
 17 15  1  0
 19 13  2  0
 20  5  1  0
 21  9  1  0
 22  9  1  0
 23 22  1  0
 24 16  1  0
 24 18  1  0
 25 23  1  0
 25 24  1  0
 26  1  2  0
 26  8  1  0
 27 24  1  0
 28 13  1  0
 29  7  1  0
 29 15  1  0
 29 21  2  0
 30 28  2  0
 31 10  1  0
 31 20  2  0
 32 28  1  0
 33  4  1  0
 33 16  1  0
 34  4  1  0
 34  6  1  0
 35  1  1  0
 35  3  2  0
 35 13  1  0
M  RAD  2  18   2  27   2
M  END
>  <ID>  (1) 
conformer_0

$$$$
