
     RDKit          3D

 34 38  0  0  0  0  0  0  0  0999 V2000
   33.4212   29.1809    0.7545 C   0  0  0  0  0  0  0  0  0  0  0  0
   35.0023   24.4600   -0.5699 C   0  0  0  0  0  0  0  0  0  0  0  0
   32.3496   25.4928   -0.7658 C   0  0  0  0  0  0  0  0  0  0  0  0
   33.0687   29.7397   -8.6138 C   0  0  0  0  0  0  0  0  0  0  0  0
   33.6794   29.1265    2.0721 C   0  0  0  0  0  0  0  0  0  0  0  0
   31.7907   32.9349   -4.2714 C   0  0  0  0  0  0  0  0  0  0  0  0
   31.8099   31.2400   -3.0631 C   0  0  0  0  0  0  0  0  0  0  0  0
   34.5814   25.6689   -0.9415 C   0  0  0  0  0  0  0  0  0  0  0  0
   32.2978   31.3892   -1.5011 N   0  0  0  0  0  0  0  0  0  0  0  0
   33.2016   32.2101   -8.3352 S   0  0  0  0  0  0  0  0  0  0  0  0
   32.7643   30.2979   -0.0874 C   0  0  0  0  0  0  0  0  0  0  0  0
   34.5122   22.3184    0.1939 C   0  0  0  0  0  0  0  0  0  0  0  0
   32.1983   30.6967   -7.8184 C   0  0  0  0  0  0  0  0  0  0  0  0
   32.7917   27.4183   -3.9632 O   0  0  0  0  0  0  0  0  0  0  0  0
   31.2301   31.0499   -6.0896 N   0  0  0  0  0  0  0  0  0  0  0  0
   33.1963   27.8208   -1.5678 N   0  0  0  0  0  0  0  0  0  0  0  0
   33.1882   26.3967   -1.3509 C   0  0  0  0  0  0  0  0  0  0  0  0
   32.9375   30.3606    2.5321 C   0  0  0  0  0  0  0  0  0  0  0  0
   31.3064   31.1035   -5.2801 C   0  0  0  0  0  0  0  0  0  0  0  0
   31.9451   29.9410   -3.3590 C   0  0  0  0  0  0  0  0  0  0  0  0
   32.3895   28.7074   -3.9437 C   0  0  0  0  0  0  0  0  0  0  0  0
   32.5292   24.2495   -0.1747 C   0  0  0  0  0  0  0  0  0  0  0  0
   32.4945   29.9650   -1.5883 N   0  0  0  0  0  0  0  0  0  0  0  0
   29.9039   30.5749   -7.7274 O   0  0  0  0  0  1  0  0  0  0  0  0
   33.9230   31.4153   -9.1584 C   0  0  0  0  0  0  0  0  0  0  0  0
   32.3929   29.3445   -2.5595 C   0  0  0  0  0  0  0  0  0  0  0  0
   34.2128   20.1635    2.8590 C   0  0  0  0  0  0  0  0  0  0  0  0
   34.0814   21.1714   -0.0170 O   0  0  0  0  0  0  0  0  0  0  0  0
   34.4891   21.5433    1.1283 F   0  0  0  0  0  0  0  0  0  0  0  0
   33.7286   30.3004   -9.8137 C   0  0  0  0  0  0  0  0  0  0  0  0
   31.0446   30.9503   -7.5235 S   0  0  0  0  0  3  0  0  0  0  0  0
   32.3926   31.1352    1.4424 C   0  0  0  0  0  0  0  0  0  0  0  0
   34.5258   20.9439    1.8501 C   0  0  0  0  0  0  0  0  0  0  0  0
   33.9340   23.6934   -0.1728 C   0  0  0  0  0  0  0  0  0  0  0  0
  5  1  2  0
  7  6  1  0
  8  2  2  0
  9  7  1  0
 11  1  1  0
 11  9  1  0
 13  4  1  0
 13 10  1  0
 15 13  1  0
 17  3  2  0
 17  8  1  0
 17 16  1  0
 18  5  1  0
 19  6  1  0
 19 15  1  0
 20  7  1  0
 21 14  2  0
 21 20  2  0
 22  3  1  0
 23  9  1  0
 23 11  1  0
 25 10  1  0
 26 16  1  0
 26 20  1  0
 26 23  1  0
 28 12  1  0
 30  4  1  0
 30 25  1  0
 31 13  1  0
 31 24  1  0
 32 11  1  0
 32 18  2  0
 33 27  1  0
 33 28  1  0
 33 29  1  0
 34  2  1  0
 34 12  1  0
 34 22  2  0
M  RAD  2  24   2  31   2
M  END
>  <ID>  (1) 
conformer_0

$$$$
