
     RDKit          3D

 34 37  0  0  0  0  0  0  0  0999 V2000
   33.4227   29.4486    2.4190 C   0  0  0  0  0  0  0  0  0  0  0  0
   35.0785   24.4034   -0.5777 C   0  0  0  0  0  0  0  0  0  0  0  0
   32.6759   23.9367   -0.2340 C   0  0  0  0  0  0  0  0  0  0  0  0
   33.5742   29.0380    1.1032 C   0  0  0  0  0  0  0  0  0  0  0  0
   32.9641   30.1079   -9.0537 C   0  0  0  0  0  0  0  0  0  0  0  0
   32.6158   29.9697   -1.4147 N   0  0  0  0  0  0  0  0  0  0  0  0
   32.2043   31.3148   -3.1524 C   0  0  0  0  0  0  0  0  0  0  0  0
   34.7713   21.9061    0.0669 C   0  0  0  0  0  0  0  0  0  0  0  0
   32.1292   30.6693   -7.6680 C   0  0  0  0  0  0  0  0  0  0  0  0
   32.4338   25.1967   -0.6926 C   0  0  0  0  0  3  0  0  0  0  0  0
   32.7389   29.8174   -0.0983 C   0  0  0  0  0  0  0  0  0  0  0  0
   33.0121   27.4671   -1.2113 N   0  0  0  0  0  0  0  0  0  0  0  0
   34.7954   21.1290   -0.3378 O   0  0  0  0  0  0  0  0  0  0  0  0
   33.0986   31.8163   -8.5530 S   0  0  0  0  0  0  0  0  0  0  0  0
   32.4650   30.9598    0.8802 C   0  0  0  0  0  0  0  0  0  0  0  0
   32.1436   30.0886   -3.4874 C   0  0  0  0  0  0  0  0  0  0  0  0
   29.9224   29.7104   -6.8457 O   0  0  0  0  0  1  0  0  0  0  0  0
   31.1528   32.1885   -5.4434 C   0  0  0  0  0  0  0  0  0  0  0  0
   30.9385   31.4518   -5.8624 N   0  0  0  0  0  0  0  0  0  0  0  0
   32.3504   31.3192   -2.1030 N   0  0  0  0  0  0  0  0  0  0  0  0
   31.6564   32.9311   -4.4718 C   0  0  0  0  0  0  0  0  0  0  0  0
   32.7594   27.7281   -3.8947 O   0  0  0  0  0  0  0  0  0  0  0  0
   33.2329   26.3561   -1.1394 C   0  0  0  0  0  0  0  0  0  0  0  0
   34.5255   25.5931   -0.8564 C   0  0  0  0  0  0  0  0  0  0  0  0
   30.5290   31.0884   -7.1181 S   0  0  0  0  0  4  0  0  0  0  0  0
   32.6582   29.2683   -2.5157 C   0  0  0  0  0  0  0  0  0  0  0  0
   33.7213   30.8804   -9.2815 C   0  0  0  0  0  0  0  0  0  0  0  0
   29.5824   31.7361   -7.4219 O   0  0  0  0  0  1  0  0  0  0  0  0
   34.4837   20.8879    1.8320 C   0  0  0  0  0  0  0  0  0  0  0  0
   32.2961   29.7680   -5.2154 C   0  0  0  0  0  0  0  0  0  0  0  0
   32.6248   30.7841    2.1969 C   0  0  0  0  0  0  0  0  0  0  0  0
   32.3629   30.4518   -5.1931 C   0  0  0  0  0  0  0  0  0  0  0  0
   35.2613   21.4912    1.5704 O   0  0  0  0  0  0  0  0  0  0  0  0
   34.1086   23.4784   -0.2431 C   0  0  0  0  0  0  0  0  0  0  0  0
  4  1  2  0
  9  5  1  0
 10  3  1  0
 11  4  1  0
 11  6  1  0
 13  8  2  0
 14  9  1  0
 15 11  2  0
 16  7  1  0
 19 18  1  0
 20  6  1  0
 20  7  2  0
 21 18  1  0
 23  4  1  0
 23 10  1  0
 23 12  1  0
 24  2  2  0
 24 23  1  0
 25  9  1  0
 25 17  1  0
 25 19  1  0
 26  6  1  0
 26 16  1  0
 26 22  2  0
 27  5  1  0
 27 14  1  0
 28 25  1  0
 31  1  1  0
 31 15  1  0
 32 16  1  0
 32 19  1  0
 32 30  1  0
 33  8  1  0
 33 29  1  0
 34  2  1  0
 34  3  2  0
 34  8  1  0
M  RAD  3  10   2  17   2  28   2
M  END
>  <ID>  (1) 
conformer_0

$$$$
