
     RDKit          3D

 31 33  0  0  0  0  0  0  0  0999 V2000
   33.7968   29.1934    2.2115 C   0  0  0  0  0  0  0  0  0  0  0  0
   34.6745   25.1985   -0.8475 C   0  0  0  0  0  0  0  0  0  0  0  0
   32.9119   29.7532   -8.4956 C   0  0  0  0  0  0  0  0  0  0  0  0
   34.5332   23.9493   -0.4025 C   0  0  0  0  0  0  0  0  0  0  0  0
   32.1480   30.8650   -7.3666 C   0  0  1  0  0  0  0  0  0  0  0  0
   33.4985   29.2067    0.8434 C   0  0  0  0  0  0  0  0  0  0  0  0
   35.1719   22.2756   -0.1075 C   0  0  0  0  0  0  0  0  0  0  0  0
   32.1741   29.5802   -2.4351 C   0  0  0  0  0  0  0  0  0  0  0  0
   31.9291   31.4526   -1.3649 N   0  0  0  0  0  0  0  0  0  0  0  0
   32.6859   30.2947    0.0149 C   0  0  0  0  0  0  0  0  0  0  0  0
   33.1174   27.4254   -1.3098 N   0  0  0  0  0  0  0  0  0  0  0  0
   31.6170   30.0491   -3.4224 C   0  0  0  0  0  0  0  0  0  0  0  0
   32.4527   30.1488   -1.4999 N   0  0  0  0  0  0  0  0  0  0  0  0
   33.2736   25.9669   -1.0993 C   0  0  2  0  0  0  0  0  0  0  0  0
   32.2714   24.9831   -0.5648 C   0  0  0  0  0  0  0  0  0  0  0  0
   31.8876   32.9666   -4.0902 C   0  0  0  0  0  0  0  0  0  0  0  0
   33.7009   30.5733   -9.2955 C   0  0  0  0  0  0  0  0  0  0  0  0
   32.9496   30.4269    2.5518 C   0  0  0  0  0  0  0  0  0  0  0  0
   31.5641   31.4618   -5.6830 N   0  0  0  0  0  0  0  0  0  0  0  0
   32.8054   27.4510   -3.6457 O   0  0  0  0  0  0  0  0  0  0  0  0
   31.7680   31.8831   -5.2069 C   0  0  2  0  0  0  0  0  0  0  0  0
   33.5045   33.0665   -8.1505 F   0  0  0  0  0  0  0  0  0  0  0  0
   32.8545   28.1292   -2.3522 C   0  0  0  0  0  0  0  0  0  0  0  0
   34.9387   21.5026   -0.3128 O   0  0  0  0  0  0  0  0  0  0  0  0
   33.8877   21.1231    1.1211 F   0  0  0  0  0  0  0  0  0  0  0  0
   33.2246   31.9141   -8.3021 C   0  0  0  0  0  0  0  0  0  0  0  0
   32.9747   23.8154   -0.1538 C   0  0  0  0  0  0  0  0  0  0  0  0
   32.4293   31.0616    1.3947 C   0  0  0  0  0  0  0  0  0  0  0  0
   31.2925   30.9959   -3.3326 C   0  0  0  0  0  0  0  0  0  0  0  0
   29.6886   30.2792   -6.2150 Cl  0  0  0  0  0  0  0  0  0  0  0  0
   34.5200   21.2098    1.4667 C   0  0  0  0  0  0  0  0  0  0  0  0
  4  2  2  0
  5  3  1  0
  6  1  2  0
  7  4  1  0
 10  6  1  0
 12  8  2  3
 13  8  1  0
 13  9  1  0
 13 10  1  0
 14  2  1  0
 14 11  1  1
 15 14  1  0
 17  3  1  0
 18  1  1  0
  5 19  1  1
 21 16  1  6
 21 19  1  0
 23  8  1  0
 23 11  1  0
 23 20  2  0
 24  7  1  0
 26  5  1  0
 26 17  2  0
 26 22  1  0
 27  4  1  0
 27 15  2  0
 28 10  2  0
 28 18  1  0
 29 12  1  0
 29 21  1  0
 30 19  1  0
 31 24  1  0
 31 25  1  0
M  END
>  <ID>  (1) 
conformer_0

$$$$
