
     RDKit          3D

 34 39  0  0  0  0  0  0  0  0999 V2000
   33.4603   29.1332    1.0050 C   0  0  0  0  0  0  0  0  0  0  0  0
   34.8042   24.2508   -0.3513 C   0  0  0  0  0  0  0  0  0  0  0  0
   33.0286   29.8310   -8.7084 C   0  0  0  0  0  0  0  0  0  0  0  0
   32.5577   25.1791   -0.7132 C   0  0  0  0  0  0  0  0  0  0  0  0
   33.5729   29.4248    2.4111 C   0  0  0  0  0  0  0  0  0  0  0  0
   31.9395   31.3107   -2.9656 C   0  0  0  0  0  0  0  0  0  0  0  0
   31.8691   30.7653   -7.8537 C   0  0  0  0  0  0  0  0  0  0  0  0
   34.8559   22.2577    0.2960 C   0  0  0  0  0  0  0  0  0  0  0  0
   32.7447   28.0934   -2.8574 C   0  0  0  0  0  0  0  0  0  0  0  0
   32.9491   27.8305   -4.1320 O   0  0  0  0  0  0  0  0  0  0  0  0
   34.8052   25.6234   -0.7400 C   0  0  0  0  0  0  0  0  0  0  0  0
   32.7291   29.9805    0.0114 C   0  0  0  0  0  0  0  0  0  0  0  0
   32.5076   30.2599   -1.2974 N   0  0  0  0  0  0  0  0  0  0  0  0
   33.3037   26.3410   -1.1334 C   0  0  0  0  0  0  0  0  0  0  0  0
   32.4880   31.1186    1.1492 C   0  0  0  0  0  0  0  0  0  0  0  0
   30.4359   30.6410   -6.8264 S   0  0  0  0  0  4  0  0  0  0  0  0
   29.2423   31.2478   -6.7393 O   0  0  0  0  0  1  0  0  0  0  0  0
   31.8693   31.3504   -1.5270 N   0  0  0  0  0  0  0  0  0  0  0  0
   31.8984   30.0611   -3.0759 C   0  0  0  0  0  0  0  0  0  0  0  0
   32.5923   32.1522   -8.3176 S   0  0  0  0  0  0  0  0  0  0  0  0
   31.3144   30.9212   -5.7679 N   0  0  0  0  0  0  0  0  0  0  0  0
   33.4892   31.6752   -8.9312 C   0  0  0  0  0  0  0  0  0  0  0  0
   33.8437   30.4645   -9.6622 C   0  0  0  0  0  0  0  0  0  0  0  0
   31.8552   33.0840   -4.2178 C   0  0  0  0  0  0  0  0  0  0  0  0
   33.3443   23.9799   -0.2440 C   0  0  0  0  0  0  0  0  0  0  0  0
   33.0399   27.4466   -1.4710 N   0  0  0  0  0  0  0  0  0  0  0  0
   34.6940   21.0093    2.1673 C   0  0  0  0  0  0  0  0  0  0  0  0
   31.2560   31.9665   -5.0470 C   0  0  0  0  0  0  0  0  0  0  0  0
   34.9896   21.6127    1.5766 F   0  0  0  0  0  0  0  0  0  0  0  0
   32.6010   29.4800   -2.3129 C   0  0  0  0  0  0  0  0  0  0  0  0
   32.8081   30.7564    2.4290 C   0  0  0  0  0  0  0  0  0  0  0  0
   34.3105   20.3446    3.3477 C   0  0  0  0  0  0  0  0  0  0  0  0
   30.1106   29.2718   -7.1737 O   0  0  0  0  0  1  0  0  0  0  0  0
   32.3284   29.1823   -4.7723 C   0  0  0  0  0  0  0  0  0  0  0  0
  5  1  2  0
  7  3  1  0
  8  2  1  0
 10  9  1  0
 11  2  2  0
 12  1  1  0
 13 12  1  0
 14  4  2  0
 14 11  1  0
 15 12  1  0
 16  7  1  0
 17 16  1  0
 18  6  2  0
 18 13  1  0
 19  6  1  0
 20  7  1  0
 21 16  1  0
 22  3  1  0
 22 20  1  0
 23  3  1  0
 23 22  1  0
 24  6  1  0
 25  2  1  0
 25  4  1  0
 26  9  1  0
 26 14  1  0
 27  8  1  0
 28 21  1  0
 28 24  1  0
 29 27  1  0
 30  9  1  0
 30 13  1  0
 30 19  2  0
 31  5  1  0
 31 15  2  0
 32 27  1  0
 33 16  1  0
 34 10  1  0
 34 19  1  0
M  RAD  2  17   2  33   2
M  END
>  <ID>  (1) 
conformer_0

$$$$
