
     RDKit          3D

 33 36  0  0  0  0  0  0  0  0999 V2000
   33.7269   29.2659    2.3322 C   0  0  0  0  0  0  0  0  0  0  0  0
   34.9963   24.0625   -0.4720 C   0  0  0  0  0  0  0  0  0  0  0  0
   32.7107   29.7017   -8.0934 C   0  0  0  0  0  0  0  0  0  0  0  0
   32.6064   25.0921   -0.5948 C   0  0  0  0  0  0  0  0  0  0  0  0
   32.8868   30.5640    2.4250 C   0  0  0  0  0  0  0  0  0  0  0  0
   34.6158   20.7880    2.2418 C   0  0  0  0  0  0  0  0  0  0  0  0
   32.4605   30.6540   -1.5790 N   0  0  0  0  0  0  0  0  0  0  0  0
   31.9113   30.6728   -7.4690 C   0  0  0  0  0  0  0  0  0  0  0  0
   31.9408   30.0809   -3.5391 C   0  0  0  0  0  0  0  0  0  0  0  0
   32.1799   31.8629   -3.0655 C   0  0  0  0  0  0  0  0  0  0  0  0
   33.2143   27.6745   -1.3041 N   0  0  0  0  0  0  0  0  0  0  0  0
   32.8624   30.2716    0.1200 C   0  0  0  0  0  0  0  0  0  0  0  0
   35.7191   21.0307    0.7453 O   0  0  0  0  0  0  0  0  0  0  0  0
   32.9603   27.6261   -3.7145 O   0  0  0  0  0  0  0  0  0  0  0  0
   34.8225   25.4558   -0.6869 C   0  0  0  0  0  0  0  0  0  0  0  0
   32.2362   31.8282   -1.3584 N   0  0  0  0  0  0  0  0  0  0  0  0
   33.4907   26.2400   -0.9320 C   0  0  0  0  0  0  0  0  0  0  0  0
   32.7170   32.0580   -8.2469 S   0  0  0  0  0  0  0  0  0  0  0  0
   32.5301   31.1565    1.2356 C   0  0  0  0  0  0  0  0  0  0  0  0
   29.3069   31.4987   -7.0458 O   0  0  0  0  0  1  0  0  0  0  0  0
   31.6287   32.8015   -4.2666 C   0  0  0  0  0  0  0  0  0  0  0  0
   33.6050   31.4143   -8.8068 C   0  0  0  0  0  0  0  0  0  0  0  0
   33.5788   30.0839   -9.2063 C   0  0  0  0  0  0  0  0  0  0  0  0
   31.1107   31.0028   -4.9232 C   0  0  0  0  0  0  0  0  0  0  0  0
   32.7435   28.2045   -2.8721 C   0  0  0  0  0  0  0  0  0  0  0  0
   33.3068   23.8424   -0.3121 C   0  0  0  0  0  0  0  0  0  0  0  0
   32.5132   29.8205   -2.1700 C   0  0  0  0  0  0  0  0  0  0  0  0
   30.2121   30.6473   -6.5641 S   0  0  0  0  0  4  0  0  0  0  0  0
   34.8845   21.7893    0.4526 C   0  0  0  0  0  0  0  0  0  0  0  0
   30.7630   30.9484   -5.5088 N   0  0  0  0  0  0  0  0  0  0  0  0
   29.5562   29.5072   -6.7294 O   0  0  0  0  0  1  0  0  0  0  0  0
   33.6696   29.1314    0.8839 C   0  0  0  0  0  0  0  0  0  0  0  0
   34.0320   21.5487    0.1353 O   0  0  0  0  0  0  0  0  0  0  0  0
  5  1  2  0
  8  3  1  0
 10  9  1  0
 12  7  1  0
 13  6  1  0
 15  2  2  0
 16  7  1  0
 16 10  2  0
 17  4  2  0
 17 11  1  0
 17 15  1  0
 18  8  1  0
 19  5  1  0
 19 12  2  0
 21 10  1  0
 22 18  1  0
 23  3  1  0
 23 22  1  0
 24  9  1  0
 25 11  1  0
 25 14  2  0
 26  2  1  0
 26  4  1  0
 27  7  1  0
 27  9  2  0
 27 25  1  0
 28  8  1  0
 28 20  1  0
 29  2  1  0
 29 13  1  0
 30 24  1  0
 30 28  1  0
 31 28  1  0
 32  1  1  0
 32 12  1  0
 33 29  2  0
M  RAD  2  20   2  31   2
M  END
>  <ID>  (1) 
conformer_0

$$$$
