
     RDKit          3D

 32 34  0  0  0  0  0  0  0  0999 V2000
   32.8522   24.0386   -0.4047 C   0  0  0  0  0  0  0  0  0  0  0  0
   33.5534   28.9353    0.7787 C   0  0  0  0  0  0  0  0  0  0  0  0
   32.2836   25.2408   -0.9089 C   0  0  0  0  0  0  0  0  0  0  0  0
   32.9659   30.3793    2.3478 C   0  0  0  0  0  0  0  0  0  0  0  0
   33.4730   30.3998   -9.3787 C   0  0  0  0  0  0  0  0  0  0  0  0
   34.6762   22.1176    0.3928 C   0  0  1  0  0  0  0  0  0  0  0  0
   32.1067   30.9130   -7.9095 C   0  0  0  0  0  0  0  0  0  0  0  0
   31.9351   29.8299   -3.6114 C   0  0  0  0  0  0  0  0  0  0  0  0
   32.6791   30.0764   -1.6845 N   0  0  0  0  0  0  0  0  0  0  0  0
   32.4380   31.4262   -1.7414 N   0  0  0  0  0  0  0  0  0  0  0  0
   32.0059   31.6287   -3.0425 C   0  0  0  0  0  0  0  0  0  0  0  0
   32.8203   28.0089   -2.9688 C   0  0  0  0  0  0  0  0  0  0  0  0
   32.8267   27.2147   -3.7311 O   0  0  0  0  0  0  0  0  0  0  0  0
   31.0177   31.2675   -5.5853 N   0  0  0  0  0  0  0  0  0  0  0  0
   32.9053   30.1970   -0.0235 C   0  0  0  0  0  0  0  0  0  0  0  0
   34.6948   25.3237   -0.8608 C   0  0  0  0  0  0  0  0  0  0  0  0
   30.6550   30.6992   -6.8881 S   0  0  0  0  0  4  0  0  0  0  0  0
   33.3128   26.0704   -1.5416 C   0  0  0  0  0  0  0  0  0  0  0  0
   35.4384   21.6444   -0.1367 O   0  0  0  0  0  0  0  0  0  0  0  0
   30.3792   29.3145   -7.0971 O   0  0  0  0  0  1  0  0  0  0  0  0
   33.2050   27.4223   -1.6799 N   0  0  0  0  0  0  0  0  0  0  0  0
   32.5079   30.8739    1.1338 C   0  0  0  0  0  0  0  0  0  0  0  0
   31.4185   31.4567   -4.9962 C   0  0  0  0  0  0  0  0  0  0  0  0
   31.8887   32.9615   -4.4269 C   0  0  0  0  0  0  0  0  0  0  0  0
   35.3698   21.5954    2.1766 O   0  0  0  0  0  0  0  0  0  0  0  0
   34.5152   20.9788    2.1738 C   0  0  0  0  0  0  0  0  0  0  0  0
   33.5816   31.5724   -8.8906 C   0  0  0  0  0  0  0  0  0  0  0  0
   34.4428   24.0146   -0.4557 C   0  0  2  0  0  0  0  0  0  0  0  0
   32.4722   29.5561   -2.3035 C   0  0  0  0  0  0  0  0  0  0  0  0
   33.7479   29.0578    2.1586 C   0  0  0  0  0  0  0  0  0  0  0  0
   32.2056   31.9915   -8.2028 S   0  0  0  0  0  0  0  0  0  0  0  0
   29.7740   31.1692   -7.3222 O   0  0  0  0  0  1  0  0  0  0  0  0
  3  1  2  0
 10  9  1  0
 11  8  1  0
 11 10  2  0
 13 12  2  0
 15  2  2  0
 15  9  1  0
 17  7  1  0
 17 14  1  0
 18  3  1  0
 18 16  2  0
  6 19  1  6
 20 17  1  0
 21 12  1  0
 21 18  1  0
 22  4  2  0
 22 15  1  0
 23 14  1  0
 24 11  1  0
 24 23  1  0
 25  6  1  0
 26 25  1  0
 27  5  2  3
 28  1  1  1
 28  6  1  0
 28 16  1  0
 29  8  2  0
 29  9  1  0
 29 12  1  0
 30  2  1  0
 30  4  1  0
 31  7  1  0
 31 27  1  0
 32 17  1  0
M  RAD  2  20   2  32   2
M  END
>  <ID>  (1) 
conformer_0

$$$$
