
     RDKit          3D

 33 37  0  0  0  0  0  0  0  0999 V2000
   32.9194   23.9980   -0.2217 C   0  0  0  0  0  0  0  0  0  0  0  0
   33.3363   29.2546    0.7107 C   0  0  0  0  0  0  0  0  0  0  0  0
   32.4026   25.1422   -0.6483 C   0  0  0  0  0  0  0  0  0  0  0  0
   33.6825   29.0839    2.0996 C   0  0  0  0  0  0  0  0  0  0  0  0
   33.0826   29.7591   -8.6130 C   0  0  0  0  0  0  0  0  0  0  0  0
   31.8929   30.7723   -7.7682 C   0  0  0  0  0  0  0  0  0  0  0  0
   32.0185   31.5887   -3.1905 C   0  0  0  0  0  0  0  0  0  0  0  0
   32.5329   30.4301   -1.6180 N   0  0  0  0  0  0  0  0  0  0  0  0
   33.0706   27.5181   -1.5004 N   0  0  0  0  0  0  0  0  0  0  0  0
   31.8973   32.9661   -4.3841 C   0  0  0  0  0  0  0  0  0  0  0  0
   34.6182   20.9022    2.3642 C   0  0  0  0  0  0  0  0  0  0  0  0
   32.2523   31.5887   -1.7305 N   0  0  0  0  0  2  0  0  0  0  0  0
   32.7565   27.3427   -4.0137 O   0  0  0  0  0  0  0  0  0  0  0  0
   34.7318   25.4549   -0.7518 C   0  0  0  0  0  0  0  0  0  0  0  0
   33.2894   26.1782   -1.1778 C   0  0  0  0  0  0  0  0  0  0  0  0
   32.7281   28.0424   -3.3127 C   0  0  0  0  0  0  0  0  0  0  0  0
   31.9491   29.7054   -3.2283 C   0  0  0  0  0  0  0  0  0  0  0  0
   31.1640   30.9112   -5.6518 N   0  0  0  0  0  0  0  0  0  0  0  0
   32.5520   31.0266    1.2397 C   0  0  0  0  0  0  0  0  0  0  0  0
   35.2028   21.5829    0.3173 O   0  0  0  0  0  0  0  0  0  0  0  0
   29.9197   29.3652   -6.7886 O   0  0  0  0  0  1  0  0  0  0  0  0
   32.7555   30.2133   -0.2457 C   0  0  0  0  0  0  0  0  0  0  0  0
   32.6554   31.8919   -8.5264 S   0  0  0  0  0  0  0  0  0  0  0  0
   31.4261   31.5878   -5.0482 C   0  0  0  0  0  0  0  0  0  0  0  0
   33.5396   31.0974   -9.0457 C   0  0  0  0  0  0  0  0  0  0  0  0
   30.5251   30.6523   -6.8499 S   0  0  0  0  0  4  0  0  0  0  0  0
   34.7570   24.2291   -0.3591 C   0  0  0  0  0  0  0  0  0  0  0  0
   34.3619   20.4021    2.9958 C   0  0  0  0  0  0  0  0  0  0  0  0
   33.0071   30.4116    2.4835 C   0  0  0  0  0  0  0  0  0  0  0  0
   34.1787   32.0565   -8.8693 F   0  0  0  0  0  0  0  0  0  0  0  0
   32.5002   29.4671   -2.4397 C   0  0  0  0  0  0  0  0  0  0  0  0
   29.6207   31.3661   -7.4151 O   0  0  0  0  0  1  0  0  0  0  0  0
   34.6512   22.1679    0.4242 C   0  0  0  0  0  0  0  0  0  0  0  0
  3  1  2  0
  4  2  2  0
  6  5  2  0
 10  7  1  0
 12  7  1  0
 12  8  1  0
 15  3  1  0
 15  9  1  0
 15 14  2  0
 16  9  1  0
 16 13  2  0
 17  7  1  0
 22  2  1  0
 22  8  1  0
 22 19  1  0
 23  6  1  0
 24  7  1  0
 24 10  1  0
 24 18  1  0
 25  5  1  0
 25 23  1  0
 26  6  1  0
 26 18  1  0
 26 21  1  0
 27  1  1  0
 27 14  1  0
 28 11  3  0
 29  4  1  0
 29 19  2  0
 30 25  1  0
 31  8  1  0
 31 16  1  0
 31 17  2  0
 32 26  1  0
 33 11  1  0
 33 20  1  0
 33 27  1  0
M  RAD  3  12   2  21   2  32   2
M  END
>  <ID>  (1) 
conformer_0

$$$$
