
     RDKit          3D

 30 33  0  0  0  0  0  0  0  0999 V2000
   34.5654   25.4651   -0.7307 C   0  0  0  0  0  0  0  0  0  0  0  0
   33.6221   29.0505    0.8335 C   0  0  0  0  0  0  0  0  0  0  0  0
   34.6080   24.1442   -0.3677 C   0  0  0  0  0  0  0  0  0  0  0  0
   33.7339   29.2818    2.2109 C   0  0  0  0  0  0  0  0  0  0  0  0
   33.1541   30.0464   -9.0733 C   0  0  0  0  0  0  0  0  0  0  0  0
   31.9350   29.1864   -2.6579 C   0  0  0  0  0  0  0  0  0  0  0  0
   32.7622   29.9670   -0.1825 C   0  0  0  0  0  0  0  0  0  0  0  0
   34.4988   21.0292    1.8402 C   0  0  0  0  0  0  0  0  0  0  0  0
   32.1863   30.8399   -7.9780 C   0  0  0  0  0  0  0  0  0  0  0  0
   32.4009   30.2772   -1.7176 N   0  0  0  0  0  0  0  0  0  0  0  0
   32.3462   25.0152   -0.4887 C   0  0  0  0  0  0  0  0  0  0  0  0
   31.6872   30.2178   -3.7925 C   0  0  0  0  0  0  0  0  0  0  0  0
   30.0963   30.0648   -7.2158 O   0  0  0  0  0  1  0  0  0  0  0  0
   31.7770   31.3691   -5.1802 C   0  0  0  0  0  0  0  0  0  0  0  0
   35.1680   21.5058    0.0009 O   0  0  0  0  0  0  0  0  0  0  0  0
   32.4213   30.9730    1.1273 C   0  0  0  0  0  0  0  0  0  0  0  0
   33.0280   27.7356   -1.1139 N   0  0  0  0  0  0  0  0  0  0  0  0
   34.2988   20.3854    2.6984 C   0  0  0  0  0  0  0  0  0  0  0  0
   33.1557   26.3295   -0.8758 C   0  0  0  0  0  0  0  0  0  0  0  0
   31.8298   33.2615   -4.0958 C   0  0  0  0  0  0  0  0  0  0  0  0
   30.8213   30.6138   -6.9692 S   0  0  0  0  0  3  0  0  0  0  0  0
   32.1443   31.3076   -1.6980 N   0  0  0  0  0  0  0  0  0  0  0  0
   33.0599   23.8388   -0.1626 C   0  0  0  0  0  0  0  0  0  0  0  0
   32.6043   27.3422   -3.3679 O   0  0  0  0  0  0  0  0  0  0  0  0
   33.8339   31.0397   -9.3100 C   0  0  0  0  0  0  0  0  0  0  0  0
   32.0333   31.1424   -3.1734 C   0  0  0  0  0  0  0  0  0  0  0  0
   32.6262   27.4588   -1.8669 C   0  0  0  0  0  0  0  0  0  0  0  0
   34.5598   22.2322    0.1863 C   0  0  0  0  0  0  0  0  0  0  0  0
   32.8255   30.4703    2.3544 C   0  0  0  0  0  0  0  0  0  0  0  0
   33.0267   31.7847   -8.3262 S   0  0  0  0  0  0  0  0  0  0  0  0
  3  1  2  0
  4  2  2  0
  7  2  1  0
  9  5  1  0
 10  6  1  0
 10  7  1  0
 12  6  2  0
 14  9  1  0
 14 12  1  0
 16  7  1  0
 18  8  3  0
 19  1  1  0
 19 11  1  0
 19 17  1  0
 20 14  1  0
 21  9  1  0
 21 13  1  0
 22 10  1  0
 23  3  1  0
 23 11  2  0
 25  5  2  0
 26 12  1  0
 26 22  2  0
 27  6  1  0
 27 17  1  0
 27 24  1  0
 28  3  1  0
 28  8  1  0
 28 15  2  0
 29  4  1  0
 29 16  2  0
 30  9  1  0
 30 25  1  0
M  RAD  2  13   2  21   2
M  END
>  <ID>  (1) 
conformer_0

$$$$
