
     RDKit          3D

 31 35  0  0  0  0  0  0  0  0999 V2000
   34.7232   24.1216   -0.4331 C   0  0  0  0  0  0  0  0  0  0  0  0
   33.0307   30.4711    2.5402 C   0  0  0  0  0  0  0  0  0  0  0  0
   32.9853   29.6156   -8.4829 C   0  0  0  0  0  0  0  0  0  0  0  0
   33.1427   23.9212   -0.2094 C   0  0  0  0  0  0  0  0  0  0  0  0
   32.4811   30.9364    1.3713 C   0  0  0  0  0  0  0  0  0  0  0  0
   32.0720   30.5874   -7.4521 C   0  0  0  0  0  0  0  0  0  0  0  0
   31.8847   30.8931   -2.8976 C   0  0  0  0  0  0  0  0  0  0  0  0
   34.8155   22.2038    0.1365 C   0  0  0  0  0  0  0  0  0  0  0  0
   32.0283   31.2433   -1.3508 N   0  0  0  0  0  0  0  0  0  0  0  0
   33.0875   27.7675   -1.4533 N   0  0  0  0  0  0  0  0  0  0  0  0
   32.6778   27.1719   -3.6897 O   0  0  0  0  0  0  0  0  0  0  0  0
   34.8196   25.3641   -0.8240 C   0  0  0  0  0  0  0  0  0  0  0  0
   33.3973   26.1121   -1.1925 C   0  0  0  0  0  0  0  0  0  0  0  0
   35.7304   21.6815   -0.2418 O   0  0  0  0  0  0  0  0  0  0  0  0
   31.6456   31.4366   -5.1344 C   0  0  0  0  0  0  0  0  0  0  0  0
   32.6191   30.2667    0.0758 C   0  0  0  0  0  0  0  0  0  0  0  0
   30.0843   29.7615   -6.9712 O   0  0  0  0  0  0  0  0  0  0  0  0
   31.1210   31.1875   -5.7195 N   0  0  0  0  0  0  0  0  0  0  0  0
   33.4563   29.1487    0.8304 C   0  0  0  0  0  0  0  0  0  0  0  0
   32.3373   30.1405   -1.3882 N   0  0  0  0  0  0  0  0  0  0  0  0
   32.5729   28.1868   -3.4096 C   0  0  0  0  0  0  0  0  0  0  0  0
   32.8406   32.0474   -8.3742 S   0  0  0  0  0  0  0  0  0  0  0  0
   31.9006   31.9490   -4.4435 C   0  0  0  0  0  0  0  0  0  0  0  0
   31.8874   29.7186   -3.0899 C   0  0  0  0  0  0  0  0  0  0  0  0
   33.6199   30.2738   -9.5487 C   0  0  0  0  0  0  0  0  0  0  0  0
   32.4315   25.1643   -0.6085 C   0  0  0  0  0  0  0  0  0  0  0  0
   33.8841   29.1856    2.1942 C   0  0  0  0  0  0  0  0  0  0  0  0
   34.7831   21.0021    1.8539 C   0  0  0  0  0  0  0  0  0  0  0  0
   33.3031   31.3341   -8.6891 C   0  0  0  0  0  0  0  0  0  0  0  0
   30.4383   30.3501   -6.5688 S   0  0  0  0  0  0  0  0  0  0  0  0
   32.4869   29.3320   -1.9884 C   0  0  0  0  0  0  0  0  0  0  0  0
  4  1  2  0
  5  2  2  0
  6  3  1  0
  8  1  1  0
  9  7  1  0
 12  1  1  0
 13 10  1  0
 13 12  1  0
 14  8  2  0
 16  5  1  0
 17  6  1  0
 18 15  1  0
 19 16  2  0
 20  9  1  0
 20 16  1  0
 21 11  2  0
 22  6  1  0
 23  7  1  0
 23 15  1  0
 24  7  1  0
 24 21  2  0
 25  3  1  0
 26  4  1  0
 26 13  2  0
 27  2  1  0
 27 19  1  0
 28  8  1  0
 29  3  1  0
 29 22  1  0
 29 25  1  0
 30 17  1  0
 30 18  1  0
 31 10  1  0
 31 20  1  0
 31 24  1  0
M  END
>  <ID>  (1) 
conformer_0

$$$$
