
     RDKit          3D

 31 34  0  0  0  0  0  0  0  0999 V2000
   33.5855   29.0166    1.0499 C   0  0  0  0  0  0  0  0  0  0  0  0
   34.7332   25.2761   -0.7964 C   0  0  0  0  0  0  0  0  0  0  0  0
   32.6554   29.7806   -7.8935 C   0  0  0  0  0  0  0  0  0  0  0  0
   34.6567   23.9820   -0.4158 C   0  0  0  0  0  0  0  0  0  0  0  0
   32.8861   30.7036    2.3521 C   0  0  0  0  0  0  0  0  0  0  0  0
   34.4451   22.1241    0.1711 C   0  0  0  0  0  0  0  0  0  0  0  0
   31.9415   31.1138   -7.2786 C   0  0  0  0  0  0  0  0  0  0  0  0
   31.9441   31.2296   -3.1233 C   0  0  0  0  0  0  0  0  0  0  0  0
   32.8053   30.0573   -1.4358 N   0  0  0  0  0  0  0  0  0  0  0  0
   32.8455   30.2470    0.0663 C   0  0  0  0  0  0  0  0  0  0  0  0
   31.6563   30.2483   -3.3538 C   0  0  0  0  0  0  0  0  0  0  0  0
   32.9919   27.2797   -3.6542 O   0  0  0  0  0  0  0  0  0  0  0  0
   32.6793   32.3589   -8.2579 S   0  0  0  0  0  0  0  0  0  0  0  0
   32.4010   25.0415   -0.5663 C   0  0  0  0  0  0  0  0  0  0  0  0
   32.5304   31.2696    1.2395 C   0  0  0  0  0  0  0  0  0  0  0  0
   33.2989   26.0344   -1.1911 C   0  0  0  0  0  0  0  0  0  0  0  0
   33.0994   27.5001   -1.3747 N   0  0  0  0  0  0  0  0  0  0  0  0
   32.4767   31.3498   -1.4914 N   0  0  0  0  0  0  0  0  0  0  0  0
   31.5125   31.7819   -5.1399 C   0  0  0  0  0  0  0  0  0  0  0  0
   32.8148   27.8767   -2.6632 C   0  0  0  0  0  0  0  0  0  0  0  0
   34.4918   21.1291   -0.1583 O   0  0  0  0  0  0  0  0  0  0  0  0
   33.4559   30.1898   -8.9732 C   0  0  0  0  0  0  0  0  0  0  0  0
   30.8947   31.5239   -5.7352 N   0  0  0  0  0  0  0  0  0  0  0  0
   29.6986   29.9783   -6.3854 O   0  0  0  0  0  1  0  0  0  0  0  0
   30.4199   30.3372   -6.2223 S   0  0  0  0  0  3  0  0  0  0  0  0
   33.4913   31.6411   -8.7611 C   0  0  0  0  0  0  0  0  0  0  0  0
   33.0613   23.8738   -0.2138 C   0  0  0  0  0  0  0  0  0  0  0  0
   33.5886   29.4095    2.3397 C   0  0  0  0  0  0  0  0  0  0  0  0
   31.7530   33.1926   -4.6212 C   0  0  0  0  0  0  0  0  0  0  0  0
   32.4440   29.5015   -2.2044 C   0  0  0  0  0  0  0  0  0  0  0  0
   34.4521   21.0636    1.7186 C   0  0  0  0  0  0  0  0  0  0  0  0
  4  2  2  0
  6  4  1  0
  7  3  1  0
 10  1  2  0
 10  9  1  0
 11  8  1  0
 13  7  1  0
 15  5  2  0
 15 10  1  0
 16  2  1  0
 16 14  1  0
 17 16  1  0
 18  8  2  0
 18  9  1  0
 19  8  1  0
 20 12  2  0
 20 17  1  0
 21  6  2  0
 22  3  2  0
 23  7  1  0
 23 19  1  0
 25 23  1  0
 25 24  1  0
 26 13  1  0
 26 22  1  0
 27  4  1  0
 27 14  2  0
 28  1  1  0
 28  5  1  0
 29 19  1  0
 30  9  1  0
 30 11  2  0
 30 20  1  0
 31  6  1  0
M  RAD  2  24   2  25   2
M  END
>  <ID>  (1) 
conformer_0

$$$$
