
     RDKit          3D

 34 38  0  0  0  0  0  0  0  0999 V2000
   34.6480   25.4895   -0.8002 C   0  0  0  0  0  0  0  0  0  0  0  0
   33.5496   29.1275    0.8727 C   0  0  0  0  0  0  0  0  0  0  0  0
   33.7113   30.4128   -9.3676 C   0  0  0  0  0  0  0  0  0  0  0  0
   35.0586   24.2415   -0.5514 C   0  0  0  0  0  0  0  0  0  0  0  0
   33.6020   29.3363    2.2101 C   0  0  0  0  0  0  0  0  0  0  0  0
   32.6879   30.2481   -1.6727 N   0  0  0  0  0  0  0  0  0  0  0  0
   31.7042   30.9151   -7.7838 C   0  0  0  0  0  0  0  0  0  0  0  0
   32.3979   29.7494   -2.3854 C   0  0  0  0  0  0  0  0  0  0  0  0
   33.1226   27.5856   -3.3581 O   0  0  0  0  0  0  0  0  0  0  0  0
   34.7563   21.8265    0.2919 C   0  0  0  0  0  0  0  0  0  0  0  0
   30.3757   30.6495   -6.5605 S   0  0  0  0  0  4  0  0  0  0  0  0
   34.0965   23.3731   -0.1979 C   0  0  0  0  0  0  0  0  0  0  0  0
   32.7929   30.3212   -0.0271 C   0  0  0  0  0  0  0  0  0  0  0  0
   31.6648   30.2689   -3.6185 C   0  0  0  0  0  0  0  0  0  0  0  0
   32.0130   31.5988   -1.7203 N   0  0  0  0  0  0  0  0  0  0  0  0
   33.0442   27.3012   -1.1648 N   0  0  0  0  0  0  0  0  0  0  0  0
   32.9997   28.2060   -1.9255 C   0  0  0  0  0  0  0  0  0  0  0  0
   33.3021   25.9069   -0.9738 C   0  0  0  0  0  0  0  0  0  0  0  0
   32.4999   31.2200    1.0501 C   0  0  0  0  0  0  0  0  0  0  0  0
   31.7560   32.9105   -4.4603 C   0  0  0  0  0  0  0  0  0  0  0  0
   29.7073   29.9458   -6.4318 O   0  0  0  0  0  1  0  0  0  0  0  0
   33.4967   31.6330   -8.8749 C   0  0  0  0  0  0  0  0  0  0  0  0
   34.8288   21.0467    0.0818 O   0  0  0  0  0  0  0  0  0  0  0  0
   32.2780   25.1006   -0.7252 C   0  0  0  0  0  0  0  0  0  0  0  0
   31.8857   31.8005   -8.3227 S   0  0  0  0  0  0  0  0  0  0  0  0
   31.3523   31.7025   -4.7581 C   0  0  0  0  0  0  0  0  0  0  0  0
   33.8080   32.8351   -8.5661 F   0  0  0  0  0  0  0  0  0  0  0  0
   32.8497   29.8083   -8.3471 C   0  0  0  0  0  0  0  0  0  0  0  0
   32.8086   30.6873    2.2918 C   0  0  0  0  0  0  0  0  0  0  0  0
   29.5386   31.7645   -7.3207 O   0  0  0  0  0  1  0  0  0  0  0  0
   34.7606   20.7230    2.2947 F   0  0  0  0  0  0  0  0  0  0  0  0
   31.9709   31.6673   -3.2064 C   0  0  0  0  0  0  0  0  0  0  0  0
   34.7375   20.7781    2.0773 C   0  0  0  0  0  0  0  0  0  0  0  0
   32.6744   23.8377   -0.2342 C   0  0  0  0  0  0  0  0  0  0  0  0
  4  1  2  0
  5  2  2  0
  8  6  1  0
 11  7  1  0
 12  4  1  0
 12 10  1  0
 13  2  1  0
 13  6  1  0
 14  8  2  0
 15  6  1  0
 17  8  1  0
 17  9  2  0
 17 16  1  0
 18  1  1  0
 18 16  1  0
 19 13  1  0
 21 11  1  0
 22  3  1  0
 23 10  2  0
 24 18  2  0
 25  7  1  0
 25 22  1  0
 26 11  1  0
 26 14  1  0
 26 20  1  0
 27 22  1  0
 28  3  1  0
 28  7  2  0
 29  5  1  0
 29 19  2  0
 30 11  1  0
 32 14  1  0
 32 15  2  0
 32 26  1  0
 33 10  1  0
 33 31  1  0
 34 12  2  0
 34 24  1  0
M  RAD  2  21   2  30   2
M  END
>  <ID>  (1) 
conformer_0

$$$$
