
     RDKit          3D

 31 32  0  0  0  0  0  0  0  0999 V2000
   33.5467   29.3125    1.9537 C   0  0  0  0  0  0  0  0  0  0  0  0
   34.7060   24.0269   -0.2009 C   0  0  0  0  0  0  0  0  0  0  0  0
   33.1675   23.8429   -0.2065 C   0  0  0  0  0  0  0  0  0  0  0  0
   33.0087   29.7506   -8.8958 C   0  0  0  0  0  0  0  0  0  0  0  0
   33.3419   29.3143    0.5346 C   0  0  0  0  0  0  0  0  0  0  0  0
   32.0133   30.8646   -7.9169 C   0  0  0  0  0  0  0  0  0  0  0  0
   31.5825   29.8361   -3.4244 C   0  0  2  0  0  0  0  0  0  0  0  0
   34.3340   20.5617    3.4767 C   0  0  0  0  0  0  0  0  0  0  0  0
   34.7536   22.2309    0.4752 C   0  0  0  0  0  0  0  0  0  0  0  0
   31.6847   30.4397   -3.1278 C   0  0  0  0  0  0  0  0  0  0  0  0
   32.4680   25.0574   -0.6946 C   0  0  0  0  0  0  0  0  0  0  0  0
   33.3856   26.1412   -1.1888 C   0  0  0  0  0  0  0  0  0  0  0  0
   32.9312   27.3469   -3.4750 O   0  0  0  0  0  0  0  0  0  0  0  0
   32.8300   30.5745    2.2718 C   0  0  0  0  0  0  0  0  0  0  0  0
   34.3250   21.3278    0.5823 O   0  0  0  0  0  0  0  0  0  0  0  0
   32.6090   30.1774   -0.7494 C   0  0  0  0  0  0  0  0  0  0  0  0
   32.3592   30.3048   -1.6924 N   0  0  0  0  0  0  0  0  0  0  0  0
   30.1693   29.6026   -6.6299 O   0  0  0  0  0  0  0  0  0  0  0  0
   31.6857   32.3810   -5.9173 C   0  0  0  0  0  0  0  0  0  0  0  0
   31.6366   33.6337   -4.7245 C   0  0  0  0  0  0  0  0  0  0  0  0
   33.3190   27.5270   -1.4269 N   0  0  0  0  0  0  0  0  0  0  0  0
   32.9271   28.2249   -2.7215 C   0  0  0  0  0  0  0  0  0  0  0  0
   31.2546   31.5124   -5.8668 N   0  0  0  0  0  0  0  0  0  0  0  0
   30.1184   31.6770   -7.6648 O   0  0  0  0  0  0  0  0  0  0  0  0
   34.8247   25.3738   -0.5655 C   0  0  0  0  0  0  0  0  0  0  0  0
   30.6282   30.6722   -6.4396 S   0  0  0  0  0  6  0  0  0  0  0  0
   33.6279   30.1702  -10.0268 C   0  0  0  0  0  0  0  0  0  0  0  0
   34.7474   21.2831    2.4752 C   0  0  0  0  0  0  0  0  0  0  0  0
   32.4477   31.3426    1.1381 C   0  0  0  0  0  0  0  0  0  0  0  0
   35.3444   22.2552    2.1513 O   0  0  0  0  0  0  0  0  0  0  0  0
   33.5806   31.1830   -9.1196 C   0  0  0  0  0  0  0  0  0  0  0  0
  3  2  2  0
  5  1  1  0
  6  4  2  3
  9  2  1  0
  7 10  1  6
 11  3  1  0
 12 11  2  0
 14  1  2  3
 15  9  2  0
 16  5  2  3
 17 10  1  0
 17 16  1  0
 20 19  1  0
 21 12  1  0
 22  7  1  0
 22 13  2  0
 22 21  1  0
 23 19  1  0
 25  2  1  0
 25 12  1  0
 26  6  1  0
 26  7  1  0
 26 18  1  0
 26 23  1  0
 26 24  1  0
 27  4  1  0
 28  8  2  3
 29 14  1  0
 30  9  1  0
 30 28  1  0
 31  4  1  0
 31 27  2  0
M  END
>  <ID>  (1) 
conformer_0

$$$$
