
     RDKit          3D

  8  7  0  0  0  0  0  0  0  0999 V2000
   20.1203   23.6232   21.2008 C   0  0  0  0  0  0  0  0  0  0  0  0
   19.7203   23.5232   22.4008 O   0  0  0  0  0  0  0  0  0  0  0  0
   19.2203   23.1232   20.4008 O   0  0  0  0  0  0  0  0  0  0  0  0
   21.5203   23.4232   20.9008 C   0  0  0  0  0  0  0  0  0  0  0  0
   21.7203   22.0232   21.2008 N   0  0  0  0  0  0  0  0  0  0  0  0
   22.8203   21.3232   21.3008 C   0  0  0  0  0  0  0  0  0  0  0  0
   23.7203   20.9232   20.6008 O   0  0  0  0  0  0  0  0  0  0  0  0
   23.3203   21.2232   22.7008 C   0  0  0  0  0  0  0  0  0  0  0  0
  2  1  2  0
  3  1  1  0
  4  1  1  0
  5  4  1  0
  6  5  1  0
  7  6  2  0
  8  6  1  0
M  END
>  <ID>  (1) 
conformer_0

$$$$
