
     RDKit          3D

 13 14  0  0  0  0  0  0  0  0999 V2000
   18.7192   23.5566   20.4549 O   0  0  0  0  0  0  0  0  0  0  0  0
   19.8192   23.6566   21.0549 C   0  0  0  0  0  0  0  0  0  0  0  0
   20.9192   23.0566   20.2549 C   0  0  0  0  0  0  0  0  0  0  0  0
   19.6192   23.5566   22.2549 O   0  0  0  0  0  0  0  0  0  0  0  0
   21.2192   21.7566   20.8549 N   0  0  0  0  0  0  0  0  0  0  0  0
   22.5192   21.1566   20.7549 C   0  0  0  0  0  0  0  0  0  0  0  0
   23.3192   20.7566   21.8549 C   0  0  0  0  0  0  0  0  0  0  0  0
   23.1192   21.5566   19.4549 C   0  0  0  0  0  0  0  0  0  0  0  0
   22.1192   21.9566   18.4549 C   0  0  0  0  0  0  0  0  0  0  0  0
   20.9192   22.7566   18.8549 C   0  0  0  0  0  0  0  0  0  0  0  0
   20.8192   21.3566   18.6549 O   0  0  0  0  0  0  0  0  0  0  0  0
   23.3192   21.8566   22.8549 O   0  0  0  0  0  0  0  0  0  0  0  0
   24.2192   20.8566   18.9549 O   0  0  0  0  0  0  0  0  0  0  0  0
  2  1  2  0
  3  2  1  0
  4  2  1  0
  5  3  1  0
  6  5  1  0
  7  6  1  0
  8  6  1  0
  9  8  1  0
 10  3  1  0
 10  9  1  0
 11  9  1  0
 11 10  1  0
 12  7  1  0
 13  8  1  0
M  END
>  <ID>  (1) 
conformer_0

$$$$
