
     RDKit          3D

  9  8  0  0  0  0  0  0  0  0999 V2000
   20.0650   23.5328   20.8930 C   0  0  0  0  0  0  0  0  0  0  0  0
   19.1650   23.8328   21.5930 O   0  0  0  0  0  0  0  0  0  0  0  0
   20.1650   22.3328   20.0930 C   0  0  0  0  0  0  0  0  0  0  0  0
   21.2650   22.1328   19.0930 C   0  0  0  0  0  0  0  0  0  0  0  0
   21.9650   20.8328   19.0930 C   0  0  0  0  0  0  0  0  0  0  0  0
   21.2650   20.0328   20.0930 C   0  0  0  0  0  0  0  0  0  0  0  0
   21.7650   18.7328   20.5930 C   0  0  0  0  0  0  0  0  0  0  0  0
   21.3650   24.0328   20.8930 O   0  0  0  0  0  0  0  0  0  0  0  0
   23.0650   18.3328   20.4930 O   0  0  0  0  0  0  0  0  0  0  0  0
  2  1  2  0
  3  1  1  0
  4  3  1  0
  5  4  1  0
  6  5  1  0
  7  6  1  0
  8  1  1  0
  9  7  1  0
M  END
>  <ID>  (1) 
conformer_0

$$$$
