
     RDKit          3D

 14 15  0  0  0  0  0  0  0  0999 V2000
   19.3459   23.8003   21.9857 O   0  0  0  0  0  0  0  0  0  0  0  0
   20.0459   23.3003   21.0857 C   0  0  0  0  0  0  0  0  0  0  0  0
   19.2459   22.7003   20.1857 O   0  0  0  0  0  0  0  0  0  0  0  0
   21.4459   23.5003   20.6857 C   0  0  0  0  0  0  0  0  0  0  0  0
   21.9459   22.2003   20.3857 N   0  0  0  0  0  0  0  0  0  0  0  0
   21.5459   22.8003   19.2857 C   0  0  0  0  0  0  0  0  0  0  0  0
   22.5459   23.4003   18.3857 C   0  0  0  0  0  0  0  0  0  0  0  0
   22.4459   23.5003   16.9857 C   0  0  0  0  0  0  0  0  0  0  0  0
   23.0459   24.6003   19.0857 C   0  0  0  0  0  0  0  0  0  0  0  0
   23.3459   25.7003   18.1857 C   0  0  0  0  0  0  0  0  0  0  0  0
   23.6459   24.6003   20.2857 O   0  0  0  0  0  0  0  0  0  0  0  0
   23.5459   26.9003   18.8857 O   0  0  0  0  0  0  0  0  0  0  0  0
   22.1459   24.6003   16.3857 C   0  0  0  0  0  0  0  0  0  0  0  0
   22.7459   25.7003   16.9857 C   0  0  0  0  0  0  0  0  0  0  0  0
  2  1  2  0
  3  2  1  0
  4  2  1  0
  5  4  1  0
  6  4  1  0
  6  5  1  0
  7  6  1  0
  8  7  2  0
  9  7  1  0
 10  9  2  0
 11  9  1  0
 12 10  1  0
 13  8  1  0
 14 10  1  0
 14 13  2  0
M  END
>  <ID>  (1) 
conformer_0

$$$$
