
     RDKit          3D

 16 18  0  0  0  0  0  0  0  0999 V2000
   18.7192   23.5566   20.4549 O   0  0  0  0  0  0  0  0  0  0  0  0
   19.8192   23.6566   21.0549 C   0  0  0  0  0  0  0  0  0  0  0  0
   20.9192   23.0566   20.2549 C   0  0  0  0  0  0  0  0  0  0  0  0
   19.6192   23.5566   22.2549 O   0  0  0  0  0  0  0  0  0  0  0  0
   21.2192   21.7566   20.8549 N   0  0  0  0  0  0  0  0  0  0  0  0
   20.7192   22.9566   18.8549 C   0  0  0  0  0  0  0  0  0  0  0  0
   21.3192   21.6566   18.4549 C   0  0  0  0  0  0  0  0  0  0  0  0
   21.4192   20.7566   19.7549 C   0  0  0  0  0  0  0  0  0  0  0  0
   22.5192   19.9566   19.8549 C   0  0  0  0  0  0  0  0  0  0  0  0
   23.0192   20.0566   21.2549 C   0  0  0  0  0  0  0  0  0  0  0  0
   22.3192   22.5566   20.6549 C   0  0  0  0  0  0  0  0  0  0  0  0
   24.2192   20.8566   21.3549 O   0  0  0  0  0  0  0  0  0  0  0  0
   23.2192   20.9566   22.2549 C   0  0  0  0  0  0  0  0  0  0  0  0
   23.1192   22.0566   23.0549 C   0  0  0  0  0  0  0  0  0  0  0  0
   22.6192   21.9566   17.8549 O   0  0  0  0  0  0  0  0  0  0  0  0
   22.0192   22.6566   23.5549 O   0  0  0  0  0  0  0  0  0  0  0  0
  2  1  2  0
  3  2  1  0
  4  2  1  0
  5  3  1  0
  6  3  1  0
  7  6  1  0
  8  5  1  0
  8  7  1  0
  9  8  1  0
 10  9  1  0
 11  3  1  0
 11  5  1  0
 12 10  1  0
 13 10  1  0
 13 12  1  0
 14 13  1  0
 15  7  1  0
 16 14  1  0
M  END
>  <ID>  (1) 
conformer_0

$$$$
