
     RDKit          3D

 16 17  0  0  0  0  0  0  0  0999 V2000
   18.9870   23.3173   20.3582 O   0  0  0  0  0  0  0  0  0  0  0  0
   20.0870   23.4173   20.9582 C   0  0  0  0  0  0  0  0  0  0  0  0
   21.2870   22.9173   20.4582 C   0  0  0  0  0  0  0  0  0  0  0  0
   19.6870   23.6173   22.1582 O   0  0  0  0  0  0  0  0  0  0  0  0
   21.3870   21.6173   20.9582 N   0  0  0  0  0  0  0  0  0  0  0  0
   22.4870   23.7173   20.0582 C   0  0  0  0  0  0  0  0  0  0  0  0
   22.8870   24.0173   18.6582 C   0  0  0  0  0  0  0  0  0  0  0  0
   24.2870   23.7173   18.3582 C   0  0  0  0  0  0  0  0  0  0  0  0
   24.4870   22.9173   17.1582 C   0  0  0  0  0  0  0  0  0  0  0  0
   25.8870   22.8173   16.8582 N   0  0  0  0  0  0  0  0  0  0  0  0
   26.5870   23.7173   17.4582 C   0  0  0  0  0  0  0  0  0  0  0  0
   24.4870   24.4173   17.2582 N   0  0  0  0  0  0  0  0  0  0  0  0
   22.5870   20.8173   21.1582 C   0  0  0  0  0  0  0  0  0  0  0  0
   23.5870   21.2173   20.8582 O   0  0  0  0  0  0  0  0  0  0  0  0
   22.0870   19.4173   21.0582 C   0  0  0  0  0  0  0  0  0  0  0  0
   26.3870   22.6173   18.0582 C   0  0  0  0  0  0  0  0  0  0  0  0
  2  1  2  0
  3  2  1  0
  4  2  1  0
  5  3  1  0
  6  3  1  0
  7  6  1  0
  8  7  1  0
  9  8  1  0
 10  9  1  0
 11 10  1  0
 12  8  1  0
 12  9  1  0
 13  5  1  0
 14 13  2  0
 15 13  1  0
 16 10  1  0
 16 11  1  0
M  END
>  <ID>  (1) 
conformer_0

$$$$
