
     RDKit          3D

  9  9  0  0  0  0  0  0  0  0999 V2000
   19.4386   23.6955   22.3214 O   0  0  0  0  0  0  0  0  0  0  0  0
   19.9386   23.7955   21.2214 C   0  0  0  0  0  0  0  0  0  0  0  0
   20.9386   22.9955   20.5214 C   0  0  0  0  0  0  0  0  0  0  0  0
   21.0386   21.5955   20.9214 N   0  0  0  0  0  0  0  0  0  0  0  0
   20.8386   20.5955   19.9214 C   0  0  0  0  0  0  0  0  0  0  0  0
   20.7386   19.3955   20.3214 O   0  0  0  0  0  0  0  0  0  0  0  0
   20.7386   21.2955   18.6214 C   0  0  0  0  0  0  0  0  0  0  0  0
   18.8386   23.6955   20.4214 O   0  0  0  0  0  0  0  0  0  0  0  0
   20.8386   22.7955   19.1214 C   0  0  0  0  0  0  0  0  0  0  0  0
  2  1  1  0
  3  2  1  0
  4  3  1  0
  5  4  1  0
  6  5  2  0
  7  5  1  0
  8  2  1  0
  9  3  1  0
  9  7  2  0
M  END
>  <ID>  (1) 
conformer_0

$$$$
