
     RDKit          3D

 10  9  0  0  0  0  0  0  0  0999 V2000
   18.7221   23.1455   20.2138 O   0  0  0  0  0  0  0  0  0  0  0  0
   19.9221   22.9455   20.2138 C   0  0  0  0  0  0  0  0  0  0  0  0
   20.6221   21.9455   19.5138 C   0  0  0  0  0  0  0  0  0  0  0  0
   21.5221   21.9455   18.4137 C   0  0  0  0  0  0  0  0  0  0  0  0
   21.6221   23.0455   17.4137 C   0  0  0  0  0  0  0  0  0  0  0  0
   22.9221   23.4455   17.0138 C   0  0  0  0  0  0  0  0  0  0  0  0
   23.3221   24.8455   17.3137 C   0  0  0  0  0  0  0  0  0  0  0  0
   20.2221   23.1455   21.5138 O   0  0  0  0  0  0  0  0  0  0  0  0
   24.7221   24.9455   17.8137 C   0  0  0  0  0  0  0  0  0  0  0  0
   25.5221   23.7455   17.4137 C   0  0  0  0  0  0  0  0  0  0  0  0
  2  1  2  0
  3  2  1  0
  4  3  1  0
  5  4  1  0
  6  5  1  0
  7  6  1  0
  8  2  1  0
  9  7  1  0
 10  9  1  0
M  END
>  <ID>  (1) 
conformer_0

$$$$
