
     RDKit          3D

 15 16  0  0  0  0  0  0  0  0999 V2000
   18.7808   24.5293   21.1632 O   0  0  0  0  0  0  0  0  0  0  0  0
   19.8808   23.9293   21.2632 C   0  0  0  0  0  0  0  0  0  0  0  0
   20.3808   23.0293   20.2632 C   0  0  0  0  0  0  0  0  0  0  0  0
   19.7808   23.5293   22.5632 O   0  0  0  0  0  0  0  0  0  0  0  0
   20.6808   21.7293   20.7632 N   0  0  0  0  0  0  0  0  0  0  0  0
   20.6808   20.6293   19.7632 C   0  0  0  0  0  0  0  0  0  0  0  0
   20.7808   19.5293   20.3632 O   0  0  0  0  0  0  0  0  0  0  0  0
   21.1808   21.3293   18.5632 C   0  0  0  0  0  0  0  0  0  0  0  0
   22.1808   22.4293   18.6632 C   0  0  0  0  0  0  0  0  0  0  0  0
   21.7808   23.4293   19.6632 C   0  0  0  0  0  0  0  0  0  0  0  0
   22.8808   23.0293   17.5632 C   0  0  0  0  0  0  0  0  0  0  0  0
   24.2808   23.0293   17.3632 C   0  0  0  0  0  0  0  0  0  0  0  0
   23.7808   24.1293   18.1632 N   0  0  0  0  0  0  0  0  0  0  0  0
   25.2808   23.1293   16.8632 O   0  0  0  0  0  0  0  0  0  0  0  0
   23.5808   25.4293   17.4632 C   0  0  0  0  0  0  0  0  0  0  0  0
  2  1  1  0
  3  2  1  0
  4  2  1  0
  5  3  1  0
  6  5  1  0
  7  6  2  0
  8  6  1  0
  9  8  1  0
 10  3  1  0
 10  9  1  0
 11  9  1  0
 12 11  1  0
 13 11  1  0
 13 12  1  0
 14 12  2  0
 15 13  1  0
M  END
>  <ID>  (1) 
conformer_0

$$$$
