
     RDKit          3D

 10 10  0  0  0  0  0  0  0  0999 V2000
   20.1203   23.6232   21.2008 C   0  0  0  0  0  0  0  0  0  0  0  0
   19.4203   23.6232   22.2008 O   0  0  0  0  0  0  0  0  0  0  0  0
   20.6203   22.7232   20.3008 C   0  0  0  0  0  0  0  0  0  0  0  0
   20.9203   21.4232   20.8008 N   0  0  0  0  0  0  0  0  0  0  0  0
   21.1203   20.3232   19.9008 C   0  0  0  0  0  0  0  0  0  0  0  0
   20.7203   19.2232   20.4008 O   0  0  0  0  0  0  0  0  0  0  0  0
   21.1203   20.9232   18.6008 C   0  0  0  0  0  0  0  0  0  0  0  0
   20.8203   24.8232   21.4008 O   0  0  0  0  0  0  0  0  0  0  0  0
   21.8203   22.1232   18.2008 C   0  0  0  0  0  0  0  0  0  0  0  0
   21.3203   23.1232   19.1008 C   0  0  0  0  0  0  0  0  0  0  0  0
  2  1  2  0
  3  1  1  0
  4  3  1  0
  5  4  1  0
  6  5  2  0
  7  5  1  0
  8  1  1  0
  9  7  1  0
 10  3  1  0
 10  9  1  0
M  END
>  <ID>  (1) 
conformer_0

$$$$
