
     RDKit          3D

 10  9  0  0  0  0  0  0  0  0999 V2000
   18.9870   23.3173   20.3582 O   0  0  0  0  0  0  0  0  0  0  0  0
   19.9870   22.6173   20.0582 C   0  0  0  0  0  0  0  0  0  0  0  0
   20.1870   21.3173   19.6582 C   0  0  0  0  0  0  0  0  0  0  0  0
   21.4870   20.7173   19.5582 C   0  0  0  0  0  0  0  0  0  0  0  0
   21.8870   19.5173   20.3582 C   0  0  0  0  0  0  0  0  0  0  0  0
   21.1870   23.1173   20.4582 O   0  0  0  0  0  0  0  0  0  0  0  0
   21.5870   18.3173   20.2582 O   0  0  0  0  0  0  0  0  0  0  0  0
   22.6870   20.1173   21.4582 C   0  0  0  0  0  0  0  0  0  0  0  0
   23.3870   21.3173   21.0582 O   0  0  0  0  0  0  0  0  0  0  0  0
   23.6870   19.1173   21.8582 O   0  0  0  0  0  0  0  0  0  0  0  0
  2  1  2  0
  3  2  1  0
  4  3  1  0
  5  4  1  0
  6  2  1  0
  7  5  2  0
  8  5  1  0
  9  8  1  0
 10  8  1  0
M  END
>  <ID>  (1) 
conformer_0

$$$$
