
     RDKit          3D

 13 14  0  0  0  0  0  0  0  0999 V2000
   19.3459   23.8003   21.9857 O   0  0  0  0  0  0  0  0  0  0  0  0
   20.2459   23.5003   21.1857 C   0  0  0  0  0  0  0  0  0  0  0  0
   20.5459   22.7003   20.0857 C   0  0  0  0  0  0  0  0  0  0  0  0
   21.1459   21.4003   20.4857 N   0  0  0  0  0  0  0  0  0  0  0  0
   21.6459   20.7003   19.2857 C   0  0  0  0  0  0  0  0  0  0  0  0
   22.0459   19.5003   19.4857 O   0  0  0  0  0  0  0  0  0  0  0  0
   21.7459   21.7003   18.1857 C   0  0  0  0  0  0  0  0  0  0  0  0
   20.9459   23.0003   18.6857 C   0  0  0  0  0  0  0  0  0  0  0  0
   21.3459   23.8003   22.0857 O   0  0  0  0  0  0  0  0  0  0  0  0
   23.0459   21.9003   17.6857 O   0  0  0  0  0  0  0  0  0  0  0  0
   23.8459   22.5003   16.8857 C   0  0  0  0  0  0  0  0  0  0  0  0
   25.1459   22.9003   17.0857 C   0  0  0  0  0  0  0  0  0  0  0  0
   19.7459   21.5003   19.9857 C   0  0  0  0  0  0  0  0  0  0  0  0
  2  1  2  0
  3  2  1  0
  4  3  1  0
  5  4  1  0
  6  5  2  0
  7  5  1  0
  8  3  1  0
  8  7  1  0
  9  2  1  0
 10  7  1  0
 11 10  1  0
 12 11  2  0
 13  3  1  0
 13  4  1  0
M  END
>  <ID>  (1) 
conformer_0

$$$$
