
     RDKit          3D

 17 19  0  0  0  0  0  0  0  0999 V2000
   18.7808   24.5293   21.1632 O   0  0  0  0  0  0  0  0  0  0  0  0
   19.8808   23.9293   21.2632 C   0  0  0  0  0  0  0  0  0  0  0  0
   20.3808   23.0293   20.2632 C   0  0  0  0  0  0  0  0  0  0  0  0
   19.7808   23.5293   22.5632 O   0  0  0  0  0  0  0  0  0  0  0  0
   20.6808   21.7293   20.7632 N   0  0  0  0  0  0  0  0  0  0  0  0
   20.6808   20.6293   19.7632 C   0  0  0  0  0  0  0  0  0  0  0  0
   20.7808   19.5293   20.3632 O   0  0  0  0  0  0  0  0  0  0  0  0
   21.2808   21.2293   18.5632 C   0  0  0  0  0  0  0  0  0  0  0  0
   21.7808   22.5293   18.2632 C   0  0  0  0  0  0  0  0  0  0  0  0
   21.6808   22.5293   20.6632 C   0  0  0  0  0  0  0  0  0  0  0  0
   22.0808   23.1293   16.9632 C   0  0  0  0  0  0  0  0  0  0  0  0
   22.9808   24.2293   17.0632 C   0  0  0  0  0  0  0  0  0  0  0  0
   24.3808   23.8293   17.3632 C   0  0  0  0  0  0  0  0  0  0  0  0
   24.5808   22.4293   16.9632 C   0  0  0  0  0  0  0  0  0  0  0  0
   22.6808   21.5293   18.6632 N   0  0  0  0  0  0  0  0  0  0  0  0
   23.8808   21.4293   17.8632 C   0  0  0  0  0  0  0  0  0  0  0  0
   22.5808   23.2293   21.2632 O   0  0  0  0  0  0  0  0  0  0  0  0
  2  1  1  0
  3  2  1  0
  4  2  1  0
  5  3  1  0
  6  5  1  0
  7  6  2  0
  8  6  1  0
  9  8  1  0
 10  3  1  0
 10  5  1  0
 11  9  1  0
 12 11  1  0
 13 12  1  0
 14 13  1  0
 15  8  1  0
 15  9  1  0
 16 14  1  0
 16 15  1  0
 17 10  1  0
M  END
>  <ID>  (1) 
conformer_0

$$$$
