
     RDKit          3D

 15 15  0  0  0  0  0  0  0  0999 V2000
   18.7192   23.5566   20.4549 O   0  0  0  0  0  0  0  0  0  0  0  0
   19.8192   23.6566   21.0549 C   0  0  0  0  0  0  0  0  0  0  0  0
   20.9192   23.0566   20.2549 C   0  0  0  0  0  0  0  0  0  0  0  0
   19.6192   23.5566   22.2549 O   0  0  0  0  0  0  0  0  0  0  0  0
   21.2192   21.7566   20.8549 N   0  0  0  0  0  0  0  0  0  0  0  0
   20.7192   22.9566   18.8549 C   0  0  0  0  0  0  0  0  0  0  0  0
   21.3192   21.6566   18.4549 C   0  0  0  0  0  0  0  0  0  0  0  0
   21.8192   20.9566   19.6549 C   0  0  0  0  0  0  0  0  0  0  0  0
   21.8192   19.5566   19.7549 C   0  0  0  0  0  0  0  0  0  0  0  0
   22.9192   18.8566   19.3549 O   0  0  0  0  0  0  0  0  0  0  0  0
   21.1192   18.7566   20.7549 C   0  0  0  0  0  0  0  0  0  0  0  0
   21.7192   17.5566   21.1549 O   0  0  0  0  0  0  0  0  0  0  0  0
   24.2192   19.4566   19.1549 C   0  0  0  0  0  0  0  0  0  0  0  0
   25.3192   18.6566   19.0549 C   0  0  0  0  0  0  0  0  0  0  0  0
   24.2192   20.7566   18.7549 O   0  0  0  0  0  0  0  0  0  0  0  0
  2  1  2  0
  3  2  1  0
  4  2  1  0
  5  3  1  0
  6  3  1  0
  7  6  1  0
  8  5  1  0
  8  7  1  0
  9  8  1  0
 10  9  1  0
 11  9  1  0
 12 11  1  0
 13 10  1  0
 14 13  1  0
 15 13  2  0
M  END
>  <ID>  (1) 
conformer_0

$$$$
