
     RDKit          3D

 15 16  0  0  0  0  0  0  0  0999 V2000
   20.0650   23.5328   20.8930 C   0  0  0  0  0  0  0  0  0  0  0  0
   19.6650   23.6328   22.0930 O   0  0  0  0  0  0  0  0  0  0  0  0
   19.2650   22.8328   20.0930 O   0  0  0  0  0  0  0  0  0  0  0  0
   21.4650   23.6328   20.4930 C   0  0  0  0  0  0  0  0  0  0  0  0
   22.0650   22.3328   20.5930 N   0  0  0  0  0  0  0  0  0  0  0  0
   23.3650   22.0328   20.0930 C   0  0  0  0  0  0  0  0  0  0  0  0
   23.9650   21.2328   20.8930 O   0  0  0  0  0  0  0  0  0  0  0  0
   23.9650   23.0328   19.1930 C   0  0  0  0  0  0  0  0  0  0  0  0
   22.9650   23.9328   18.5930 C   0  0  0  0  0  0  0  0  0  0  0  0
   22.3650   24.7328   20.8930 C   0  0  0  0  0  0  0  0  0  0  0  0
   24.8650   22.4328   18.1930 C   0  0  0  0  0  0  0  0  0  0  0  0
   24.4650   22.8328   16.9930 C   0  0  0  0  0  0  0  0  0  0  0  0
   22.9650   25.1328   19.5930 O   0  0  0  0  0  0  0  0  0  0  0  0
   22.9650   24.4328   17.2930 C   0  0  0  0  0  0  0  0  0  0  0  0
   23.1650   23.2328   16.4930 C   0  0  0  0  0  0  0  0  0  0  0  0
  2  1  2  0
  3  1  1  0
  4  1  1  0
  5  4  1  0
  6  5  1  0
  7  6  2  0
  8  6  1  0
  9  8  2  0
 10  4  1  0
 11  8  1  0
 12 11  2  0
 13  9  1  0
 13 10  1  0
 14  9  1  0
 15 12  1  0
 15 14  2  0
M  END
>  <ID>  (1) 
conformer_0

$$$$
