
     RDKit          3D

 10  9  0  0  0  0  0  0  0  0999 V2000
   18.9688   23.1133   20.1256 O   0  0  0  0  0  0  0  0  0  0  0  0
   19.9688   22.5133   19.9256 C   0  0  0  0  0  0  0  0  0  0  0  0
   20.2688   21.2133   19.5256 C   0  0  0  0  0  0  0  0  0  0  0  0
   21.5688   21.0133   18.8256 C   0  0  0  0  0  0  0  0  0  0  0  0
   21.7688   22.3133   18.1256 C   0  0  0  0  0  0  0  0  0  0  0  0
   21.0688   23.3133   20.4256 O   0  0  0  0  0  0  0  0  0  0  0  0
   22.9688   22.7133   17.5256 C   0  0  0  0  0  0  0  0  0  0  0  0
   23.3688   24.0133   17.0256 C   0  0  0  0  0  0  0  0  0  0  0  0
   23.5688   25.3133   17.5256 C   0  0  0  0  0  0  0  0  0  0  0  0
   23.3688   25.6133   18.9256 C   0  0  0  0  0  0  0  0  0  0  0  0
  2  1  2  0
  3  2  1  0
  4  3  1  0
  5  4  1  0
  6  2  1  0
  7  5  2  3
  8  7  1  0
  9  8  2  3
 10  9  1  0
M  END
>  <ID>  (1) 
conformer_0

$$$$
