
     RDKit          3D

 10 11  0  0  0  0  0  0  0  0999 V2000
   18.7192   23.5566   20.4549 O   0  0  0  0  0  0  0  0  0  0  0  0
   19.8192   23.6566   21.0549 C   0  0  0  0  0  0  0  0  0  0  0  0
   20.9192   23.0566   20.2549 C   0  0  0  0  0  0  0  0  0  0  0  0
   19.6192   23.5566   22.2549 O   0  0  0  0  0  0  0  0  0  0  0  0
   21.2192   21.7566   20.8549 N   0  0  0  0  0  0  0  0  0  0  0  0
   20.7192   22.9566   18.8549 C   0  0  0  0  0  0  0  0  0  0  0  0
   21.0192   21.5566   18.4549 C   0  0  0  0  0  0  0  0  0  0  0  0
   21.0192   20.7566   19.7549 C   0  0  0  0  0  0  0  0  0  0  0  0
   22.2192   22.7566   20.5549 C   0  0  0  0  0  0  0  0  0  0  0  0
   21.3192   19.5566   19.9549 O   0  0  0  0  0  0  0  0  0  0  0  0
  2  1  2  0
  3  2  1  0
  4  2  1  0
  5  3  1  0
  6  3  1  0
  7  6  1  0
  8  5  1  0
  8  7  1  0
  9  3  1  0
  9  5  1  0
 10  8  2  0
M  END
>  <ID>  (1) 
conformer_0

$$$$
