
     RDKit          3D

 17 19  0  0  0  0  0  0  0  0999 V2000
   18.7808   24.5293   21.1632 O   0  0  0  0  0  0  0  0  0  0  0  0
   19.8808   23.9293   21.2632 C   0  0  0  0  0  0  0  0  0  0  0  0
   20.3808   23.0293   20.2632 C   0  0  0  0  0  0  0  0  0  0  0  0
   19.7808   23.5293   22.5632 O   0  0  0  0  0  0  0  0  0  0  0  0
   20.6808   21.7293   20.7632 N   0  0  0  0  0  0  0  0  0  0  0  0
   20.6808   20.6293   19.7632 C   0  0  0  0  0  0  0  0  0  0  0  0
   20.7808   19.5293   20.3632 O   0  0  0  0  0  0  0  0  0  0  0  0
   21.2808   21.2293   18.5632 C   0  0  0  0  0  0  0  0  0  0  0  0
   22.0808   22.4293   18.6632 C   0  0  0  0  0  0  0  0  0  0  0  0
   21.5808   23.5293   19.3632 C   0  0  0  0  0  0  0  0  0  0  0  0
   22.8808   22.7293   17.4632 C   0  0  0  0  0  0  0  0  0  0  0  0
   24.1808   22.4293   17.1632 C   0  0  0  0  0  0  0  0  0  0  0  0
   25.1808   23.5293   17.0632 N   0  0  0  0  0  0  0  0  0  0  0  0
   24.4808   24.5293   17.5632 C   0  0  0  0  0  0  0  0  0  0  0  0
   23.0808   24.2293   17.5632 N   0  0  0  0  0  0  0  0  0  0  0  0
   23.7808   24.3293   18.6632 C   0  0  0  0  0  0  0  0  0  0  0  0
   22.1808   24.3293   20.4632 O   0  0  0  0  0  0  0  0  0  0  0  0
  2  1  1  0
  3  2  1  0
  4  2  1  0
  5  3  1  0
  6  5  1  0
  7  6  2  0
  8  6  1  0
  9  8  1  0
 10  3  1  0
 10  9  1  0
 11  9  1  0
 12 11  1  0
 13 12  1  0
 14 13  1  0
 15 11  1  0
 15 14  1  0
 16 14  1  0
 16 15  1  0
 17 10  1  0
M  END
>  <ID>  (1) 
conformer_0

$$$$
