
     RDKit          3D

 15 16  0  0  0  0  0  0  0  0999 V2000
   20.0650   23.5328   20.8930 C   0  0  0  0  0  0  0  0  0  0  0  0
   19.6650   23.6328   22.0930 O   0  0  0  0  0  0  0  0  0  0  0  0
   19.2650   22.8328   20.0930 O   0  0  0  0  0  0  0  0  0  0  0  0
   21.4650   23.6328   20.4930 C   0  0  0  0  0  0  0  0  0  0  0  0
   22.0650   22.3328   20.8930 N   0  0  0  0  0  0  0  0  0  0  0  0
   21.6650   22.4328   19.4930 C   0  0  0  0  0  0  0  0  0  0  0  0
   22.7650   22.8328   18.5930 C   0  0  0  0  0  0  0  0  0  0  0  0
   23.7650   23.6328   19.1930 C   0  0  0  0  0  0  0  0  0  0  0  0
   22.6650   22.8328   17.1930 C   0  0  0  0  0  0  0  0  0  0  0  0
   24.2650   23.3328   20.3930 O   0  0  0  0  0  0  0  0  0  0  0  0
   24.2650   24.5328   18.1930 C   0  0  0  0  0  0  0  0  0  0  0  0
   23.2650   25.1328   17.4930 C   0  0  0  0  0  0  0  0  0  0  0  0
   23.2650   26.4328   17.0930 O   0  0  0  0  0  0  0  0  0  0  0  0
   22.3650   24.2328   16.7930 C   0  0  0  0  0  0  0  0  0  0  0  0
   22.2650   22.2328   22.2930 O   0  0  0  0  0  0  0  0  0  0  0  0
  2  1  2  0
  3  1  1  0
  4  1  1  0
  5  4  1  0
  6  4  1  0
  6  5  1  0
  7  6  1  0
  8  7  2  0
  9  7  1  0
 10  8  1  0
 11  8  1  0
 12 11  2  0
 13 12  1  0
 14  9  2  0
 14 12  1  0
 15  5  1  0
M  END
>  <ID>  (1) 
conformer_0

$$$$
