
     RDKit          3D

 15 15  0  0  0  0  0  0  0  0999 V2000
   19.3021   23.7191   21.8275 O   0  0  0  0  0  0  0  0  0  0  0  0
   19.9021   23.4191   20.8275 C   0  0  0  0  0  0  0  0  0  0  0  0
   21.3021   23.0191   20.6275 C   0  0  0  0  0  0  0  0  0  0  0  0
   21.5021   21.7191   21.2275 N   0  0  0  0  0  0  0  0  0  0  0  0
   22.3021   20.7191   20.8275 C   0  0  0  0  0  0  0  0  0  0  0  0
   19.2021   22.6191   20.0275 O   0  0  0  0  0  0  0  0  0  0  0  0
   22.4021   20.3191   19.7275 O   0  0  0  0  0  0  0  0  0  0  0  0
   23.1021   20.1191   21.9275 C   0  0  0  0  0  0  0  0  0  0  0  0
   22.4021   23.9191   20.2275 C   0  0  0  0  0  0  0  0  0  0  0  0
   23.2021   24.0191   19.0275 C   0  0  0  0  0  0  0  0  0  0  0  0
   24.6021   23.9191   19.0275 C   0  0  0  0  0  0  0  0  0  0  0  0
   22.7021   24.2191   17.6275 C   0  0  0  0  0  0  0  0  0  0  0  0
   25.2021   24.0191   17.7275 C   0  0  0  0  0  0  0  0  0  0  0  0
   23.1021   23.1191   16.8275 C   0  0  0  0  0  0  0  0  0  0  0  0
   24.6021   22.9191   16.9275 C   0  0  0  0  0  0  0  0  0  0  0  0
  2  1  2  0
  3  2  1  0
  4  3  1  0
  5  4  1  0
  6  2  1  0
  7  5  2  0
  8  5  1  0
  9  3  1  0
 10  9  1  0
 11 10  2  0
 12 10  1  0
 13 11  1  0
 14 12  2  0
 15 13  2  0
 15 14  1  0
M  END
>  <ID>  (1) 
conformer_0

$$$$
