
     RDKit          3D

  9  8  0  0  0  0  0  0  0  0999 V2000
   19.0176   23.7243   20.7783 O   0  0  0  0  0  0  0  0  0  0  0  0
   20.1176   23.3243   20.9783 C   0  0  0  0  0  0  0  0  0  0  0  0
   20.7176   22.5243   19.9783 C   0  0  0  0  0  0  0  0  0  0  0  0
   20.4176   23.5243   22.2783 O   0  0  0  0  0  0  0  0  0  0  0  0
   20.2176   21.2243   19.5783 C   0  0  0  0  0  0  0  0  0  0  0  0
   21.0176   20.0243   19.7783 C   0  0  0  0  0  0  0  0  0  0  0  0
   22.2176   19.7243   19.4783 O   0  0  0  0  0  0  0  0  0  0  0  0
   20.7176   19.1243   20.6783 N   0  0  0  0  0  0  0  0  0  0  0  0
   21.3176   17.9243   20.9783 O   0  0  0  0  0  0  0  0  0  0  0  0
  2  1  2  0
  3  2  1  0
  4  2  1  0
  5  3  1  0
  6  5  1  0
  7  6  2  0
  8  6  1  0
  9  8  1  0
M  END
>  <ID>  (1) 
conformer_0

$$$$
