
     RDKit          3D

 16 18  0  0  0  0  0  0  0  0999 V2000
   18.7192   23.5566   20.4549 O   0  0  0  0  0  0  0  0  0  0  0  0
   19.8192   23.6566   21.0549 C   0  0  0  0  0  0  0  0  0  0  0  0
   20.9192   22.8566   20.4549 C   0  0  0  0  0  0  0  0  0  0  0  0
   19.6192   23.7566   22.2549 O   0  0  0  0  0  0  0  0  0  0  0  0
   20.9192   21.4566   20.8549 N   0  0  0  0  0  0  0  0  0  0  0  0
   21.2192   22.8566   19.0549 C   0  0  0  0  0  0  0  0  0  0  0  0
   21.6192   21.5566   18.4549 C   0  0  0  0  0  0  0  0  0  0  0  0
   21.4192   20.6566   19.7549 C   0  0  0  0  0  0  0  0  0  0  0  0
   23.0192   21.6566   18.0549 C   0  0  0  0  0  0  0  0  0  0  0  0
   23.5192   23.0566   17.9549 N   0  0  0  0  0  0  0  0  0  0  0  0
   22.2192   23.2566   20.0549 C   0  0  0  0  0  0  0  0  0  0  0  0
   24.6192   23.2566   17.2549 C   0  0  0  0  0  0  0  0  0  0  0  0
   25.2192   24.4566   17.3549 N   0  0  0  0  0  0  0  0  0  0  0  0
   26.5192   24.6566   17.5549 C   0  0  0  0  0  0  0  0  0  0  0  0
   27.1192   23.4566   17.2549 N   0  0  0  0  0  0  0  0  0  0  0  0
   26.0192   22.5566   17.0549 C   0  0  0  0  0  0  0  0  0  0  0  0
  2  1  2  0
  3  2  1  0
  4  2  1  0
  5  3  1  0
  6  3  1  0
  7  6  1  0
  8  5  2  0
  8  7  1  0
  9  7  1  0
 10  9  1  0
 11  3  1  0
 11  6  1  0
 12 10  1  0
 13 12  2  0
 14 13  1  0
 15 14  1  0
 16 12  1  0
 16 15  1  0
M  END
>  <ID>  (1) 
conformer_0

$$$$
