
     RDKit          3D

 15 16  0  0  0  0  0  0  0  0999 V2000
   20.1203   23.6232   21.2008 C   0  0  0  0  0  0  0  0  0  0  0  0
   19.4203   23.6232   22.2008 O   0  0  0  0  0  0  0  0  0  0  0  0
   20.6203   22.7232   20.3008 C   0  0  0  0  0  0  0  0  0  0  0  0
   20.9203   21.4232   20.8008 N   0  0  0  0  0  0  0  0  0  0  0  0
   21.1203   20.3232   19.9008 C   0  0  0  0  0  0  0  0  0  0  0  0
   20.7203   19.2232   20.4008 O   0  0  0  0  0  0  0  0  0  0  0  0
   21.1203   20.9232   18.6008 C   0  0  0  0  0  0  0  0  0  0  0  0
   20.8203   24.8232   21.3008 O   0  0  0  0  0  0  0  0  0  0  0  0
   21.9203   22.0232   18.3008 C   0  0  0  0  0  0  0  0  0  0  0  0
   21.6203   23.1232   19.3008 C   0  0  0  0  0  0  0  0  0  0  0  0
   22.8203   22.3232   19.4008 N   0  0  0  0  0  0  0  0  0  0  0  0
   24.1203   22.6232   19.4008 C   0  0  0  0  0  0  0  0  0  0  0  0
   25.4203   22.0232   19.5008 C   0  0  0  0  0  0  0  0  0  0  0  0
   24.3203   23.7232   18.4008 C   0  0  0  0  0  0  0  0  0  0  0  0
   25.4203   23.5232   17.4008 C   0  0  0  0  0  0  0  0  0  0  0  0
  2  1  2  0
  3  1  1  0
  4  3  1  0
  5  4  1  0
  6  5  2  0
  7  5  1  0
  8  1  1  0
  9  7  1  0
 10  3  1  0
 10  9  1  0
 11  9  1  0
 11 10  1  0
 12 11  1  0
 13 12  1  0
 14 12  1  0
 15 14  1  0
M  END
>  <ID>  (1) 
conformer_0

$$$$
