
     RDKit          3D

 17 18  0  0  0  0  0  0  0  0999 V2000
   18.3612   24.5197   20.8268 O   0  0  0  0  0  0  0  0  0  0  0  0
   19.3612   23.7197   20.6268 C   0  0  0  0  0  0  0  0  0  0  0  0
   20.4612   23.5197   21.5268 C   0  0  0  0  0  0  0  0  0  0  0  0
   21.0612   22.3197   21.4268 N   0  0  0  0  0  0  0  0  0  0  0  0
   19.2612   22.7197   19.9268 O   0  0  0  0  0  0  0  0  0  0  0  0
   19.7612   23.4197   22.8268 O   0  0  0  0  0  0  0  0  0  0  0  0
   22.3612   21.9197   21.1268 C   0  0  0  0  0  0  0  0  0  0  0  0
   22.8612   20.7197   21.8268 C   0  0  0  0  0  0  0  0  0  0  0  0
   22.8612   22.0197   19.7268 C   0  0  0  0  0  0  0  0  0  0  0  0
   24.0612   21.3197   19.5268 C   0  0  0  0  0  0  0  0  0  0  0  0
   22.5612   23.2197   18.9268 C   0  0  0  0  0  0  0  0  0  0  0  0
   24.8612   20.6197   20.3268 O   0  0  0  0  0  0  0  0  0  0  0  0
   23.7612   23.6197   18.2268 C   0  0  0  0  0  0  0  0  0  0  0  0
   24.1612   22.4197   17.4268 C   0  0  0  0  0  0  0  0  0  0  0  0
   24.4612   21.3197   18.0268 C   0  0  0  0  0  0  0  0  0  0  0  0
   20.5612   24.5197   22.5268 C   0  0  0  0  0  0  0  0  0  0  0  0
   23.9612   24.9197   17.6268 N   0  0  0  0  0  0  0  0  0  0  0  0
  2  1  2  0
  3  2  1  0
  4  3  1  0
  5  2  1  0
  6  3  1  0
  7  4  1  0
  8  7  1  0
  9  7  1  0
 10  9  2  0
 11  9  1  0
 12 10  1  0
 13 11  2  0
 14 13  1  0
 15 10  1  0
 15 14  2  0
 16  3  1  0
 16  6  1  0
 17 13  1  0
M  END
>  <ID>  (1) 
conformer_0

$$$$
