
     RDKit          3D

 14 15  0  0  0  0  0  0  0  0999 V2000
   18.7221   23.1455   20.2138 O   0  0  0  0  0  0  0  0  0  0  0  0
   19.9221   22.9455   20.2138 C   0  0  0  0  0  0  0  0  0  0  0  0
   20.8221   21.8455   20.3138 C   0  0  0  0  0  0  0  0  0  0  0  0
   20.5221   20.6455   19.8138 C   0  0  0  0  0  0  0  0  0  0  0  0
   21.7221   22.0455   21.4138 N   0  0  0  0  0  0  0  0  0  0  0  0
   19.9221   23.4455   21.6138 O   0  0  0  0  0  0  0  0  0  0  0  0
   22.7221   20.9455   21.6138 C   0  0  0  0  0  0  0  0  0  0  0  0
   23.8221   21.3455   21.5138 O   0  0  0  0  0  0  0  0  0  0  0  0
   22.2221   19.6455   21.2138 C   0  0  0  0  0  0  0  0  0  0  0  0
   21.7221   21.2455   19.2138 C   0  0  0  0  0  0  0  0  0  0  0  0
   21.0221   19.3455   20.4138 O   0  0  0  0  0  0  0  0  0  0  0  0
   23.3221   18.8455   20.6138 C   0  0  0  0  0  0  0  0  0  0  0  0
   24.6221   19.1455   20.2138 O   0  0  0  0  0  0  0  0  0  0  0  0
   21.5221   21.9455   17.9138 O   0  0  0  0  0  0  0  0  0  0  0  0
  2  1  1  0
  3  2  1  0
  4  3  1  0
  5  3  1  0
  6  2  1  0
  7  5  1  0
  8  7  2  0
  9  7  1  0
 10  3  1  0
 10  4  1  0
 11  4  1  0
 11  9  1  0
 12  9  1  0
 13 12  1  0
 14 10  1  0
M  END
>  <ID>  (1) 
conformer_0

$$$$
