
     RDKit          3D

 10  9  0  0  0  0  0  0  0  0999 V2000
   18.7221   23.1455   20.2138 O   0  0  0  0  0  0  0  0  0  0  0  0
   19.9221   22.8455   20.2138 C   0  0  0  0  0  0  0  0  0  0  0  0
   20.4221   21.5455   19.8138 C   0  0  0  0  0  0  0  0  0  0  0  0
   21.4221   21.3455   18.7138 C   0  0  0  0  0  0  0  0  0  0  0  0
   21.8221   22.5455   17.9138 C   0  0  0  0  0  0  0  0  0  0  0  0
   23.2221   22.6455   17.5138 C   0  0  0  0  0  0  0  0  0  0  0  0
   24.0221   23.7455   17.5138 C   0  0  0  0  0  0  0  0  0  0  0  0
   25.4221   23.5455   17.2138 C   0  0  0  0  0  0  0  0  0  0  0  0
   25.7221   22.1455   17.1138 C   0  0  0  0  0  0  0  0  0  0  0  0
   20.2221   23.0455   21.5138 O   0  0  0  0  0  0  0  0  0  0  0  0
  2  1  1  0
  3  2  1  0
  4  3  2  3
  5  4  1  0
  6  5  1  0
  7  6  2  3
  8  7  1  0
  9  8  1  0
 10  2  1  0
M  END
>  <ID>  (1) 
conformer_0

$$$$
