
     RDKit          3D

  9  8  0  0  0  0  0  0  0  0999 V2000
   18.7221   23.1455   20.2138 O   0  0  0  0  0  0  0  0  0  0  0  0
   19.9221   22.8455   20.2138 C   0  0  0  0  0  0  0  0  0  0  0  0
   20.4221   21.5455   19.8138 C   0  0  0  0  0  0  0  0  0  0  0  0
   21.4221   21.3455   18.7138 C   0  0  0  0  0  0  0  0  0  0  0  0
   21.8221   22.5455   17.9138 C   0  0  0  0  0  0  0  0  0  0  0  0
   23.2221   22.5455   17.4138 C   0  0  0  0  0  0  0  0  0  0  0  0
   24.0221   23.7455   17.2138 C   0  0  0  0  0  0  0  0  0  0  0  0
   23.3221   25.0455   17.3138 C   0  0  0  0  0  0  0  0  0  0  0  0
   20.7221   23.5455   21.0138 O   0  0  0  0  0  0  0  0  0  0  0  0
  2  1  2  0
  3  2  1  0
  4  3  2  3
  5  4  1  0
  6  5  1  0
  7  6  2  3
  8  7  1  0
  9  2  1  0
M  END
>  <ID>  (1) 
conformer_0

$$$$
