
     RDKit          3D

 14 15  0  0  0  0  0  0  0  0999 V2000
   18.7192   23.5566   20.4549 O   0  0  0  0  0  0  0  0  0  0  0  0
   19.8192   23.6566   21.0549 C   0  0  0  0  0  0  0  0  0  0  0  0
   20.9192   23.0566   20.2549 C   0  0  0  0  0  0  0  0  0  0  0  0
   19.6192   23.5566   22.2549 O   0  0  0  0  0  0  0  0  0  0  0  0
   21.2192   21.7566   20.8549 N   0  0  0  0  0  0  0  0  0  0  0  0
   20.7192   22.9566   18.8549 C   0  0  0  0  0  0  0  0  0  0  0  0
   21.5192   21.8566   18.3549 C   0  0  0  0  0  0  0  0  0  0  0  0
   21.8192   20.6566   20.4549 C   0  0  0  0  0  0  0  0  0  0  0  0
   20.4192   20.7566   20.0549 C   0  0  0  0  0  0  0  0  0  0  0  0
   22.6192   21.2566   19.1549 C   0  0  0  0  0  0  0  0  0  0  0  0
   22.7192   19.7566   21.0549 C   0  0  0  0  0  0  0  0  0  0  0  0
   23.1192   18.5566   20.3549 O   0  0  0  0  0  0  0  0  0  0  0  0
   23.6192   20.6566   18.7549 O   0  0  0  0  0  0  0  0  0  0  0  0
   22.3192   22.4566   17.2549 O   0  0  0  0  0  0  0  0  0  0  0  0
  2  1  2  0
  3  2  1  0
  4  2  1  0
  5  3  1  0
  6  3  1  0
  7  6  1  0
  8  5  1  0
  9  5  1  0
  9  8  1  0
 10  7  1  0
 10  8  1  0
 11  8  1  0
 12 11  1  0
 13 10  2  0
 14  7  1  0
M  END
>  <ID>  (1) 
conformer_0

$$$$
