
     RDKit          3D

 10  9  0  0  0  0  0  0  0  0999 V2000
   18.9870   23.3173   20.3582 O   0  0  0  0  0  0  0  0  0  0  0  0
   19.9870   22.6173   20.0582 C   0  0  0  0  0  0  0  0  0  0  0  0
   20.0870   21.3173   19.4582 C   0  0  0  0  0  0  0  0  0  0  0  0
   21.1870   21.2173   18.4582 C   0  0  0  0  0  0  0  0  0  0  0  0
   21.7870   22.5173   18.2582 C   0  0  0  0  0  0  0  0  0  0  0  0
   21.0870   23.0173   20.7582 O   0  0  0  0  0  0  0  0  0  0  0  0
   23.1870   22.5173   17.8582 C   0  0  0  0  0  0  0  0  0  0  0  0
   23.8870   23.6173   17.3582 C   0  0  0  0  0  0  0  0  0  0  0  0
   25.2870   23.6173   17.2582 C   0  0  0  0  0  0  0  0  0  0  0  0
   25.9870   22.5173   16.9582 C   0  0  0  0  0  0  0  0  0  0  0  0
  2  1  2  0
  3  2  1  0
  4  3  1  0
  5  4  1  0
  6  2  1  0
  7  5  1  0
  8  7  2  3
  9  8  1  0
 10  9  2  0
M  END
>  <ID>  (1) 
conformer_0

$$$$
