
     RDKit          3D

 10  9  0  0  0  0  0  0  0  0999 V2000
   19.3724   23.8990   21.8360 O   0  0  0  0  0  0  0  0  0  0  0  0
   20.1724   23.5990   21.0360 C   0  0  0  0  0  0  0  0  0  0  0  0
   20.2724   22.5990   19.9360 C   0  0  0  0  0  0  0  0  0  0  0  0
   21.3724   22.7990   18.9360 C   0  0  0  0  0  0  0  0  0  0  0  0
   22.0724   21.6990   18.3360 C   0  0  0  0  0  0  0  0  0  0  0  0
   21.3724   24.3990   21.0360 O   0  0  0  0  0  0  0  0  0  0  0  0
   23.4724   21.7990   18.0360 C   0  0  0  0  0  0  0  0  0  0  0  0
   23.8724   22.8990   17.2360 C   0  0  0  0  0  0  0  0  0  0  0  0
   25.2724   23.1990   17.0360 C   0  0  0  0  0  0  0  0  0  0  0  0
   25.9724   24.2990   17.7360 C   0  0  0  0  0  0  0  0  0  0  0  0
  2  1  2  0
  3  2  1  0
  4  3  1  0
  5  4  1  0
  6  2  1  0
  7  5  1  0
  8  7  2  3
  9  8  1  0
 10  9  1  0
M  END
>  <ID>  (1) 
conformer_0

$$$$
