
     RDKit          3D

 14 15  0  0  0  0  0  0  0  0999 V2000
   18.9870   23.3173   20.3582 O   0  0  0  0  0  0  0  0  0  0  0  0
   20.0870   23.4173   20.9582 C   0  0  0  0  0  0  0  0  0  0  0  0
   21.2870   22.9173   20.4582 C   0  0  0  0  0  0  0  0  0  0  0  0
   19.6870   23.6173   22.1582 O   0  0  0  0  0  0  0  0  0  0  0  0
   21.3870   21.6173   20.9582 N   0  0  0  0  0  0  0  0  0  0  0  0
   22.4870   23.7173   20.0582 C   0  0  0  0  0  0  0  0  0  0  0  0
   22.8870   24.0173   18.6582 C   0  0  0  0  0  0  0  0  0  0  0  0
   23.0870   22.7173   17.9582 C   0  0  0  0  0  0  0  0  0  0  0  0
   24.2870   22.7173   17.0582 C   0  0  0  0  0  0  0  0  0  0  0  0
   25.0870   23.9173   17.3582 C   0  0  0  0  0  0  0  0  0  0  0  0
   21.5870   21.7173   19.6582 C   0  0  0  0  0  0  0  0  0  0  0  0
   21.8870   23.2173   17.7582 N   0  0  0  0  0  0  0  0  0  0  0  0
   26.2870   24.1173   17.4582 N   0  0  0  0  0  0  0  0  0  0  0  0
   21.3870   21.0173   18.7582 O   0  0  0  0  0  0  0  0  0  0  0  0
  2  1  2  0
  3  2  1  0
  4  2  1  0
  5  3  1  0
  6  3  1  0
  7  6  1  0
  8  7  1  0
  9  8  1  0
 10  9  1  0
 11  3  1  0
 11  5  1  0
 12  7  1  0
 12  8  1  0
 13 10  2  0
 14 11  2  0
M  END
>  <ID>  (1) 
conformer_0

$$$$
