
     RDKit          3D

  9  8  0  0  0  0  0  0  0  0999 V2000
   18.7221   23.1455   20.2138 O   0  0  0  0  0  0  0  0  0  0  0  0
   19.9221   22.8455   20.2138 C   0  0  0  0  0  0  0  0  0  0  0  0
   20.3221   21.7455   19.3138 C   0  0  0  0  0  0  0  0  0  0  0  0
   21.5221   21.9455   18.5138 C   0  0  0  0  0  0  0  0  0  0  0  0
   21.9221   23.1455   17.8138 C   0  0  0  0  0  0  0  0  0  0  0  0
   20.8221   23.7455   20.6138 O   0  0  0  0  0  0  0  0  0  0  0  0
   23.1221   23.2455   17.1138 C   0  0  0  0  0  0  0  0  0  0  0  0
   24.1221   24.2455   17.4137 C   0  0  0  0  0  0  0  0  0  0  0  0
   25.5221   23.9455   17.3137 C   0  0  0  0  0  0  0  0  0  0  0  0
  2  1  2  0
  3  2  1  0
  4  3  1  0
  5  4  2  3
  6  2  1  0
  7  5  1  0
  8  7  1  0
  9  8  1  0
M  END
>  <ID>  (1) 
conformer_0

$$$$
