
     RDKit          3D

 16 16  0  0  0  0  0  0  0  0999 V2000
   20.1203   23.6232   21.2008 C   0  0  0  0  0  0  0  0  0  0  0  0
   19.7203   23.5232   22.4008 O   0  0  0  0  0  0  0  0  0  0  0  0
   19.2203   23.1232   20.4008 O   0  0  0  0  0  0  0  0  0  0  0  0
   21.5203   23.4232   20.9008 C   0  0  0  0  0  0  0  0  0  0  0  0
   21.7203   22.0232   21.4008 N   0  0  0  0  0  0  0  0  0  0  0  0
   22.5203   21.0232   21.2008 C   0  0  0  0  0  0  0  0  0  0  0  0
   23.8203   21.0232   21.4008 O   0  0  0  0  0  0  0  0  0  0  0  0
   21.9203   19.7232   20.8008 C   0  0  0  0  0  0  0  0  0  0  0  0
   22.5203   24.1232   20.2008 C   0  0  0  0  0  0  0  0  0  0  0  0
   23.2203   23.8232   19.0008 C   0  0  0  0  0  0  0  0  0  0  0  0
   23.4203   24.2232   17.6008 C   0  0  0  0  0  0  0  0  0  0  0  0
   22.4203   23.2232   17.8008 C   0  0  0  0  0  0  0  0  0  0  0  0
   23.1203   25.6232   17.3008 C   0  0  0  0  0  0  0  0  0  0  0  0
   24.6203   23.5232   17.1008 C   0  0  0  0  0  0  0  0  0  0  0  0
   23.0203   18.9232   20.3008 C   0  0  0  0  0  0  0  0  0  0  0  0
   20.7203   19.8232   20.4008 O   0  0  0  0  0  0  0  0  0  0  0  0
  2  1  2  0
  3  1  1  0
  4  1  1  0
  5  4  1  0
  6  5  1  0
  7  6  2  0
  8  6  1  0
  9  4  1  0
 10  9  1  0
 11 10  1  0
 12 10  1  0
 12 11  1  0
 13 11  1  0
 14 11  1  0
 15  8  1  0
 16  8  2  0
M  END
>  <ID>  (1) 
conformer_0

$$$$
