
     RDKit          3D

  9  8  0  0  0  0  0  0  0  0999 V2000
   19.3021   23.7191   21.8275 O   0  0  0  0  0  0  0  0  0  0  0  0
   19.9021   23.4191   20.8275 C   0  0  0  0  0  0  0  0  0  0  0  0
   20.3021   22.7191   19.8275 C   0  0  0  0  0  0  0  0  0  0  0  0
   20.4021   21.3191   19.5275 C   0  0  0  0  0  0  0  0  0  0  0  0
   21.7021   20.8191   19.0275 C   0  0  0  0  0  0  0  0  0  0  0  0
   22.4021   22.0191   18.5275 C   0  0  0  0  0  0  0  0  0  0  0  0
   21.6021   22.8191   17.6275 C   0  0  0  0  0  0  0  0  0  0  0  0
   22.3021   23.6191   16.6275 C   0  0  0  0  0  0  0  0  0  0  0  0
   21.0021   24.4191   21.0275 O   0  0  0  0  0  0  0  0  0  0  0  0
  2  1  2  0
  3  2  1  0
  4  3  1  0
  5  4  1  0
  6  5  1  0
  7  6  1  0
  8  7  1  0
  9  2  1  0
M  END
>  <ID>  (1) 
conformer_0

$$$$
