
     RDKit          3D

 12 11  0  0  0  0  0  0  0  0999 V2000
   18.4824   24.1541   21.0028 O   0  0  0  0  0  0  0  0  0  0  0  0
   19.5824   23.6541   20.9028 C   0  0  0  0  0  0  0  0  0  0  0  0
   20.0824   22.5541   20.1028 C   0  0  0  0  0  0  0  0  0  0  0  0
   19.8824   23.4541   22.2028 O   0  0  0  0  0  0  0  0  0  0  0  0
   21.0824   22.7541   19.1028 C   0  0  0  0  0  0  0  0  0  0  0  0
   21.6824   21.6541   18.4028 C   0  0  0  0  0  0  0  0  0  0  0  0
   23.0824   21.7541   18.1028 C   0  0  0  0  0  0  0  0  0  0  0  0
   23.7824   22.1541   17.0028 C   0  0  0  0  0  0  0  0  0  0  0  0
   24.8824   23.1541   17.0028 C   0  0  0  0  0  0  0  0  0  0  0  0
   24.7824   24.5541   17.4028 C   0  0  0  0  0  0  0  0  0  0  0  0
   23.5824   25.3541   17.6028 C   0  0  0  0  0  0  0  0  0  0  0  0
   23.6824   26.3541   18.6028 C   0  0  0  0  0  0  0  0  0  0  0  0
  2  1  1  0
  3  2  1  0
  4  2  1  0
  5  3  2  3
  6  5  1  0
  7  6  1  0
  8  7  1  0
  9  8  1  0
 10  9  2  3
 11 10  1  0
 12 11  1  0
M  END
>  <ID>  (1) 
conformer_0

$$$$
