
     RDKit          3D

 13 14  0  0  0  0  0  0  0  0999 V2000
   20.1203   23.6232   21.2008 C   0  0  0  0  0  0  0  0  0  0  0  0
   19.4203   23.6232   22.2008 O   0  0  0  0  0  0  0  0  0  0  0  0
   20.6203   22.7232   20.3008 C   0  0  0  0  0  0  0  0  0  0  0  0
   20.9203   21.4232   20.8008 N   0  0  0  0  0  0  0  0  0  0  0  0
   21.7203   20.4232   20.3008 C   0  0  0  0  0  0  0  0  0  0  0  0
   21.0203   19.2232   20.4008 O   0  0  0  0  0  0  0  0  0  0  0  0
   22.4203   20.7232   19.1008 C   0  0  0  0  0  0  0  0  0  0  0  0
   20.7203   24.9232   21.2008 O   0  0  0  0  0  0  0  0  0  0  0  0
   21.8203   21.7232   18.3008 C   0  0  0  0  0  0  0  0  0  0  0  0
   21.0203   22.8232   18.9008 C   0  0  0  0  0  0  0  0  0  0  0  0
   22.8203   22.3232   17.4008 O   0  0  0  0  0  0  0  0  0  0  0  0
   22.7203   23.7232   17.2008 C   0  0  0  0  0  0  0  0  0  0  0  0
   22.2203   19.4232   21.2008 C   0  0  0  0  0  0  0  0  0  0  0  0
  2  1  2  0
  3  1  1  0
  4  3  2  0
  5  4  1  0
  6  5  1  0
  7  5  1  0
  8  1  1  0
  9  7  1  0
 10  3  1  0
 10  9  1  0
 11  9  1  0
 12 11  1  0
 13  5  1  0
 13  6  1  0
M  END
>  <ID>  (1) 
conformer_0

$$$$
