
     RDKit          3D

 11 11  0  0  0  0  0  0  0  0999 V2000
   20.1203   23.6232   21.2008 C   0  0  0  0  0  0  0  0  0  0  0  0
   19.4203   23.6232   22.2008 O   0  0  0  0  0  0  0  0  0  0  0  0
   20.6203   22.7232   20.3008 C   0  0  0  0  0  0  0  0  0  0  0  0
   20.9203   21.4232   20.8008 N   0  0  0  0  0  0  0  0  0  0  0  0
   21.1203   20.3232   19.9008 C   0  0  0  0  0  0  0  0  0  0  0  0
   20.7203   19.2232   20.4008 O   0  0  0  0  0  0  0  0  0  0  0  0
   21.2203   20.9232   18.6008 C   0  0  0  0  0  0  0  0  0  0  0  0
   20.7203   24.9232   21.3008 O   0  0  0  0  0  0  0  0  0  0  0  0
   22.3203   21.9232   18.8008 C   0  0  0  0  0  0  0  0  0  0  0  0
   21.6203   23.2232   19.3008 C   0  0  0  0  0  0  0  0  0  0  0  0
   23.4203   21.9232   18.1008 O   0  0  0  0  0  0  0  0  0  0  0  0
  2  1  2  0
  3  1  1  0
  4  3  1  0
  5  4  1  0
  6  5  2  0
  7  5  1  0
  8  1  1  0
  9  7  1  0
 10  3  1  0
 10  9  1  0
 11  9  1  0
M  END
>  <ID>  (1) 
conformer_0

$$$$
