
     RDKit          3D

 15 16  0  0  0  0  0  0  0  0999 V2000
   18.7808   24.5293   21.1632 O   0  0  0  0  0  0  0  0  0  0  0  0
   19.8808   23.9293   21.2632 C   0  0  0  0  0  0  0  0  0  0  0  0
   20.3808   23.0293   20.2632 C   0  0  0  0  0  0  0  0  0  0  0  0
   19.7808   23.5293   22.5632 O   0  0  0  0  0  0  0  0  0  0  0  0
   20.6808   21.7293   20.7632 N   0  0  0  0  0  0  0  0  0  0  0  0
   20.6808   20.6293   19.7632 C   0  0  0  0  0  0  0  0  0  0  0  0
   20.6808   19.6293   20.4632 O   0  0  0  0  0  0  0  0  0  0  0  0
   21.0808   21.2293   18.4632 C   0  0  0  0  0  0  0  0  0  0  0  0
   22.1808   22.2293   18.6632 C   0  0  0  0  0  0  0  0  0  0  0  0
   21.5808   23.3293   19.4632 C   0  0  0  0  0  0  0  0  0  0  0  0
   22.6808   22.7293   17.3632 C   0  0  0  0  0  0  0  0  0  0  0  0
   24.0808   22.6293   16.9632 C   0  0  0  0  0  0  0  0  0  0  0  0
   24.7808   23.8293   17.3632 C   0  0  0  0  0  0  0  0  0  0  0  0
   24.6808   22.8293   18.2632 N   0  0  0  0  0  0  0  0  0  0  0  0
   25.7808   24.4293   17.1632 O   0  0  0  0  0  0  0  0  0  0  0  0
  2  1  1  0
  3  2  1  0
  4  2  1  0
  5  3  1  0
  6  5  1  0
  7  6  2  0
  8  6  1  0
  9  8  1  0
 10  3  1  0
 10  9  1  0
 11  9  1  0
 12 11  1  0
 13 12  1  0
 14 12  1  0
 14 13  1  0
 15 13  1  0
M  END
>  <ID>  (1) 
conformer_0

$$$$
