
     RDKit          3D

 11 10  0  0  0  0  0  0  0  0999 V2000
   19.3021   23.7191   21.8275 O   0  0  0  0  0  0  0  0  0  0  0  0
   19.9021   23.4191   20.8275 C   0  0  0  0  0  0  0  0  0  0  0  0
   20.3021   22.7191   19.8275 C   0  0  0  0  0  0  0  0  0  0  0  0
   20.4021   21.3191   19.5275 C   0  0  0  0  0  0  0  0  0  0  0  0
   21.6021   20.8191   18.8275 C   0  0  0  0  0  0  0  0  0  0  0  0
   22.1021   22.0191   18.1275 C   0  0  0  0  0  0  0  0  0  0  0  0
   23.4021   22.2191   17.5275 C   0  0  0  0  0  0  0  0  0  0  0  0
   24.1021   23.4191   17.3275 C   0  0  0  0  0  0  0  0  0  0  0  0
   25.5021   23.0191   17.0275 C   0  0  0  0  0  0  0  0  0  0  0  0
   25.7021   21.6191   16.9275 C   0  0  0  0  0  0  0  0  0  0  0  0
   21.1021   24.2191   21.1275 O   0  0  0  0  0  0  0  0  0  0  0  0
  2  1  2  0
  3  2  1  0
  4  3  1  0
  5  4  1  0
  6  5  1  0
  7  6  1  0
  8  7  1  0
  9  8  1  0
 10  9  1  0
 11  2  1  0
M  END
>  <ID>  (1) 
conformer_0

$$$$
