
     RDKit          3D

 10  9  0  0  0  0  0  0  0  0999 V2000
   18.9688   23.1133   20.1256 O   0  0  0  0  0  0  0  0  0  0  0  0
   20.0688   22.6133   19.9256 C   0  0  0  0  0  0  0  0  0  0  0  0
   20.1688   21.2133   19.5256 C   0  0  0  0  0  0  0  0  0  0  0  0
   21.5688   20.8133   19.2256 C   0  0  0  0  0  0  0  0  0  0  0  0
   21.2688   23.2133   20.1256 O   0  0  0  0  0  0  0  0  0  0  0  0
   22.0688   19.5133   19.7256 C   0  0  0  0  0  0  0  0  0  0  0  0
   22.9688   19.4133   20.8256 C   0  0  0  0  0  0  0  0  0  0  0  0
   24.1688   19.9133   20.6256 O   0  0  0  0  0  0  0  0  0  0  0  0
   22.3688   19.7133   21.9256 N   0  0  0  0  0  0  0  0  0  0  0  0
   21.0688   18.5133   19.7256 O   0  0  0  0  0  0  0  0  0  0  0  0
  2  1  2  0
  3  2  1  0
  4  3  1  0
  5  2  1  0
  6  4  1  0
  7  6  1  0
  8  7  1  0
  9  7  1  0
 10  6  1  0
M  END
>  <ID>  (1) 
conformer_0

$$$$
