
     RDKit          3D

 16 17  0  0  0  0  0  0  0  0999 V2000
   20.0650   23.5328   20.8930 C   0  0  0  0  0  0  0  0  0  0  0  0
   19.6650   23.6328   22.0930 O   0  0  0  0  0  0  0  0  0  0  0  0
   19.2650   22.8328   20.0930 O   0  0  0  0  0  0  0  0  0  0  0  0
   21.4650   23.6328   20.4930 C   0  0  0  0  0  0  0  0  0  0  0  0
   22.0650   22.3328   20.5930 N   0  0  0  0  0  0  0  0  0  0  0  0
   23.3650   22.0328   20.0930 C   0  0  0  0  0  0  0  0  0  0  0  0
   23.9650   21.2328   20.8930 O   0  0  0  0  0  0  0  0  0  0  0  0
   23.9650   23.0328   19.1930 C   0  0  0  0  0  0  0  0  0  0  0  0
   22.9650   23.9328   18.5930 C   0  0  0  0  0  0  0  0  0  0  0  0
   22.3650   24.7328   20.8930 C   0  0  0  0  0  0  0  0  0  0  0  0
   25.2650   23.4328   19.0930 C   0  0  0  0  0  0  0  0  0  0  0  0
   23.5650   24.6328   17.4930 C   0  0  0  0  0  0  0  0  0  0  0  0
   25.7650   23.7328   17.7930 C   0  0  0  0  0  0  0  0  0  0  0  0
   24.8650   24.7328   17.2930 C   0  0  0  0  0  0  0  0  0  0  0  0
   21.7650   25.8328   21.4930 O   0  0  0  0  0  0  0  0  0  0  0  0
   23.2650   25.2328   18.6930 O   0  0  0  0  0  0  0  0  0  0  0  0
  2  1  2  0
  3  1  1  0
  4  1  1  0
  5  4  1  0
  6  5  1  0
  7  6  2  0
  8  6  1  0
  9  8  2  0
 10  4  1  0
 11  8  1  0
 12  9  1  0
 13 11  2  0
 14 12  2  0
 14 13  1  0
 15 10  1  0
 16  9  1  0
 16 12  1  0
M  END
>  <ID>  (1) 
conformer_0

$$$$
