
     RDKit          3D

 17 19  0  0  0  0  0  0  0  0999 V2000
   18.7808   24.5293   21.1632 O   0  0  0  0  0  0  0  0  0  0  0  0
   19.8808   23.9293   21.2632 C   0  0  0  0  0  0  0  0  0  0  0  0
   20.3808   23.0293   20.2632 C   0  0  0  0  0  0  0  0  0  0  0  0
   19.7808   23.5293   22.5632 O   0  0  0  0  0  0  0  0  0  0  0  0
   20.6808   21.7293   20.7632 N   0  0  0  0  0  0  0  0  0  0  0  0
   20.6808   20.6293   19.7632 C   0  0  0  0  0  0  0  0  0  0  0  0
   20.7808   19.5293   20.3632 O   0  0  0  0  0  0  0  0  0  0  0  0
   21.2808   21.2293   18.5632 C   0  0  0  0  0  0  0  0  0  0  0  0
   21.5808   22.6293   18.2632 C   0  0  0  0  0  0  0  0  0  0  0  0
   20.7808   23.5293   19.0632 C   0  0  0  0  0  0  0  0  0  0  0  0
   22.3808   21.9293   19.1632 N   0  0  0  0  0  0  0  0  0  0  0  0
   23.6808   22.0293   18.8632 C   0  0  0  0  0  0  0  0  0  0  0  0
   24.2808   21.5293   17.8632 O   0  0  0  0  0  0  0  0  0  0  0  0
   24.0808   22.8293   17.6632 C   0  0  0  0  0  0  0  0  0  0  0  0
   25.0808   23.8293   17.5632 N   0  0  0  0  0  0  0  0  0  0  0  0
   24.9808   25.1293   17.6632 C   0  0  0  0  0  0  0  0  0  0  0  0
   23.5808   25.6293   17.6632 C   0  0  0  0  0  0  0  0  0  0  0  0
  2  1  1  0
  3  2  1  0
  4  2  1  0
  5  3  1  0
  6  5  1  0
  7  6  2  0
  8  6  1  0
  9  8  1  0
 10  3  1  0
 10  9  1  0
 11  8  1  0
 11  9  1  0
 12 11  1  0
 13 12  1  0
 14 12  1  0
 14 13  1  0
 15 14  1  0
 16 15  1  0
 17 16  1  0
M  END
>  <ID>  (1) 
conformer_0

$$$$
