
     RDKit          3D

  9  9  0  0  0  0  0  0  0  0999 V2000
   20.1203   23.6232   21.2008 C   0  0  0  0  0  0  0  0  0  0  0  0
   19.4203   23.6232   22.2008 O   0  0  0  0  0  0  0  0  0  0  0  0
   20.2203   22.6232   20.3008 C   0  0  0  0  0  0  0  0  0  0  0  0
   21.0203   21.4232   20.6008 N   0  0  0  0  0  0  0  0  0  0  0  0
   21.5203   20.6232   19.6008 C   0  0  0  0  0  0  0  0  0  0  0  0
   21.8203   19.4232   19.8008 O   0  0  0  0  0  0  0  0  0  0  0  0
   21.3203   21.4232   18.4008 C   0  0  0  0  0  0  0  0  0  0  0  0
   21.1203   24.5232   21.2008 O   0  0  0  0  0  0  0  0  0  0  0  0
   20.8203   22.7232   18.8008 C   0  0  0  0  0  0  0  0  0  0  0  0
  2  1  2  0
  3  1  1  0
  4  3  1  0
  5  4  1  0
  6  5  2  0
  7  5  1  0
  8  1  1  0
  9  3  1  0
  9  7  1  0
M  END
>  <ID>  (1) 
conformer_0

$$$$
