
     RDKit          3D

 14 15  0  0  0  0  0  0  0  0999 V2000
   19.3459   23.8003   21.9857 O   0  0  0  0  0  0  0  0  0  0  0  0
   20.0459   23.3003   21.0857 C   0  0  0  0  0  0  0  0  0  0  0  0
   19.2459   22.7003   20.1857 O   0  0  0  0  0  0  0  0  0  0  0  0
   21.4459   23.5003   20.6857 C   0  0  0  0  0  0  0  0  0  0  0  0
   21.9459   22.2003   20.3857 N   0  0  0  0  0  0  0  0  0  0  0  0
   21.5459   22.8003   19.2857 C   0  0  0  0  0  0  0  0  0  0  0  0
   22.6459   23.4003   18.4857 C   0  0  0  0  0  0  0  0  0  0  0  0
   22.4459   23.8003   17.0857 C   0  0  0  0  0  0  0  0  0  0  0  0
   23.9459   23.2003   18.9857 C   0  0  0  0  0  0  0  0  0  0  0  0
   24.1459   23.4003   20.3857 O   0  0  0  0  0  0  0  0  0  0  0  0
   21.4459   23.4003   16.3857 O   0  0  0  0  0  0  0  0  0  0  0  0
   24.8459   23.8003   17.9857 C   0  0  0  0  0  0  0  0  0  0  0  0
   23.1459   25.1003   16.9857 C   0  0  0  0  0  0  0  0  0  0  0  0
   24.4459   24.9003   17.4857 C   0  0  0  0  0  0  0  0  0  0  0  0
  2  1  2  0
  3  2  1  0
  4  2  1  0
  5  4  1  0
  6  4  1  0
  6  5  1  0
  7  6  1  0
  8  7  2  0
  9  7  1  0
 10  9  1  0
 11  8  1  0
 12  9  2  0
 13  8  1  0
 14 12  1  0
 14 13  2  0
M  END
>  <ID>  (1) 
conformer_0

$$$$
