
     RDKit          3D

 12 12  0  0  0  0  0  0  0  0999 V2000
   18.7808   24.5293   21.1632 O   0  0  0  0  0  0  0  0  0  0  0  0
   19.8808   23.9293   21.2632 C   0  0  0  0  0  0  0  0  0  0  0  0
   20.3808   23.0293   20.2632 C   0  0  0  0  0  0  0  0  0  0  0  0
   19.7808   23.5293   22.5632 O   0  0  0  0  0  0  0  0  0  0  0  0
   20.6808   21.7293   20.7632 N   0  0  0  0  0  0  0  0  0  0  0  0
   20.6808   20.6293   19.7632 C   0  0  0  0  0  0  0  0  0  0  0  0
   20.7808   19.5293   20.3632 O   0  0  0  0  0  0  0  0  0  0  0  0
   21.2808   21.2293   18.5632 C   0  0  0  0  0  0  0  0  0  0  0  0
   21.5808   22.6293   18.2632 C   0  0  0  0  0  0  0  0  0  0  0  0
   21.5808   23.4293   19.4632 C   0  0  0  0  0  0  0  0  0  0  0  0
   21.5808   23.0293   16.8632 O   0  0  0  0  0  0  0  0  0  0  0  0
   21.8808   24.2293   16.2632 C   0  0  0  0  0  0  0  0  0  0  0  0
  2  1  1  0
  3  2  1  0
  4  2  1  0
  5  3  1  0
  6  5  1  0
  7  6  2  0
  8  6  1  0
  9  8  1  0
 10  3  1  0
 10  9  1  0
 11  9  1  0
 12 11  1  0
M  END
>  <ID>  (1) 
conformer_0

$$$$
