
     RDKit          3D

 11 11  0  0  0  0  0  0  0  0999 V2000
   19.8695   22.9660   20.7600 C   0  0  0  0  0  0  0  0  0  0  0  0
   19.6695   23.3660   21.9600 O   0  0  0  0  0  0  0  0  0  0  0  0
   20.5695   21.9660   20.2600 C   0  0  0  0  0  0  0  0  0  0  0  0
   18.6695   23.3660   20.1600 O   0  0  0  0  0  0  0  0  0  0  0  0
   21.4695   21.1660   21.0600 N   0  0  0  0  0  0  0  0  0  0  0  0
   21.0695   22.0660   18.8600 C   0  0  0  0  0  0  0  0  0  0  0  0
   22.3695   21.3660   18.7600 C   0  0  0  0  0  0  0  0  0  0  0  0
   23.5695   21.8660   18.1600 C   0  0  0  0  0  0  0  0  0  0  0  0
   24.1695   22.2660   16.9600 C   0  0  0  0  0  0  0  0  0  0  0  0
   22.5695   20.7660   20.1600 C   0  0  0  0  0  0  0  0  0  0  0  0
   23.7695   20.7660   20.6600 O   0  0  0  0  0  0  0  0  0  0  0  0
  2  1  2  0
  3  1  1  0
  4  1  1  0
  5  3  1  0
  6  3  1  0
  7  6  1  0
  8  7  1  0
  9  8  1  0
 10  5  1  0
 10  7  1  0
 11 10  2  0
M  END
>  <ID>  (1) 
conformer_0

$$$$
