
     RDKit          3D

 13 12  0  0  0  0  0  0  0  0999 V2000
   19.3021   23.7191   21.8275 O   0  0  0  0  0  0  0  0  0  0  0  0
   19.9021   23.4191   20.8275 C   0  0  0  0  0  0  0  0  0  0  0  0
   21.3021   23.0191   20.6275 C   0  0  0  0  0  0  0  0  0  0  0  0
   21.5021   21.7191   21.2275 N   0  0  0  0  0  0  0  0  0  0  0  0
   22.3021   20.7191   20.8275 C   0  0  0  0  0  0  0  0  0  0  0  0
   22.0021   20.1191   19.8275 O   0  0  0  0  0  0  0  0  0  0  0  0
   19.1021   23.1191   19.9275 O   0  0  0  0  0  0  0  0  0  0  0  0
   23.3021   20.2191   21.8275 C   0  0  0  0  0  0  0  0  0  0  0  0
   21.7021   23.1191   19.2275 C   0  0  0  0  0  0  0  0  0  0  0  0
   22.8021   23.5191   18.5275 C   0  0  0  0  0  0  0  0  0  0  0  0
   22.7021   24.0191   17.1275 C   0  0  0  0  0  0  0  0  0  0  0  0
   21.7021   23.3191   16.3275 C   0  0  0  0  0  0  0  0  0  0  0  0
   23.0021   25.4191   17.0275 C   0  0  0  0  0  0  0  0  0  0  0  0
  2  1  2  0
  3  2  1  0
  4  3  1  0
  5  4  1  0
  6  5  2  0
  7  2  1  0
  8  5  1  0
  9  3  1  0
 10  9  1  0
 11 10  1  0
 12 11  1  0
 13 11  1  0
M  END
>  <ID>  (1) 
conformer_0

$$$$
