
     RDKit          3D

  4  3  0  0  0  0  0  0  0  0999 V2000
   35.4698   21.1665    2.3193 O   0  0  0  0  0  0  0  0  0  0  0  0
   34.4937   20.9794    2.7395 C   0  0  0  0  0  0  0  0  0  0  0  0
   33.3844   21.1402    1.9102 F   0  0  0  0  0  0  0  0  0  0  0  0
   34.1833   21.1717    4.1197 C   0  0  0  0  0  0  0  0  0  0  0  0
  1  2  2  0
  2  3  1  0
  2  4  1  0
M  END
>  <ID>  (1) 
conformer_0

$$$$
