
     RDKit          3D

 35 41  0  0  0  0  0  0  0  0999 V2000
   34.9864   24.3542   -0.4391 C   0  0  0  0  0  0  0  0  0  0  0  0
   34.0787   25.2897   -0.7166 C   0  0  0  0  0  0  0  0  0  0  0  0
   32.6980   24.8911   -0.6459 C   0  0  0  0  0  0  0  0  0  0  0  0
   34.3948   26.6219   -1.1076 O   0  0  0  0  0  0  0  0  0  0  0  0
   34.7349   23.0995   -0.1287 C   0  0  0  0  0  0  0  0  0  0  0  0
   33.7256   27.6293   -0.4104 C   0  0  0  0  0  0  0  0  0  0  0  0
   32.8950   28.3736   -1.0052 C   0  0  0  0  0  0  0  0  0  0  0  0
   32.3134   29.5239   -0.4691 C   0  0  0  0  0  0  0  0  0  0  0  0
   32.9212   28.3095   -2.5595 C   0  0  0  0  0  0  0  0  0  0  0  0
   32.5708   29.4263   -3.3026 C   0  0  0  0  0  0  0  0  0  0  0  0
   32.9854   29.9866    0.7107 C   0  0  0  0  0  0  0  0  0  0  0  0
   31.9920   30.5602   -2.5642 C   0  0  0  0  0  0  0  0  0  0  0  0
   33.7891   27.8919    1.0129 C   0  0  0  0  0  0  0  0  0  0  0  0
   31.6410   31.7086   -3.3368 C   0  0  0  0  0  0  0  0  0  0  0  0
   35.8188   22.1544    0.2033 C   0  0  0  0  0  0  0  0  0  0  0  0
   32.2019   30.7981   -1.2732 C   0  0  0  0  0  0  0  0  0  0  0  0
   31.2681   31.7121   -0.6904 C   0  0  0  0  0  0  0  0  0  0  0  0
   31.6421   25.8493   -0.8803 F   0  0  0  0  0  0  0  0  0  0  0  0
   35.4040   21.0110    0.9629 C   0  0  0  0  0  0  0  0  0  0  0  0
   32.4375   29.4649   -4.6557 C   0  0  0  0  0  0  0  0  0  0  0  0
   31.1479   32.8910   -2.6452 O   0  0  0  0  0  0  0  0  0  0  0  0
   31.5573   31.6890   -4.7195 C   0  0  0  0  0  0  0  0  0  0  0  0
   32.0164   30.5880   -5.3622 C   0  0  0  0  0  0  0  0  0  0  0  0
   31.9614   30.5854   -6.8624 C   0  0  0  0  0  0  0  0  0  0  0  0
   34.1423   20.8500    1.3929 C   0  0  0  0  0  0  0  0  0  0  0  0
   33.4975   28.9756    1.5996 C   0  0  0  0  0  0  0  0  0  0  0  0
   32.4722   31.5931   -7.5250 C   0  0  0  0  0  0  0  0  0  0  0  0
   32.3459   23.7373   -0.1037 C   0  0  0  0  0  0  0  0  0  0  0  0
   32.5762   31.5538   -8.9578 C   0  0  0  0  0  0  0  0  0  0  0  0
   32.0222   30.3286   -9.4815 C   0  0  0  0  0  0  0  0  0  0  0  0
   33.4127   22.8174    0.1735 C   0  0  0  0  0  0  0  0  0  0  0  0
   31.4840   32.9332   -1.2929 C   0  0  0  0  0  0  0  0  0  0  0  0
   31.5830   29.3378   -8.7870 C   0  0  0  0  0  0  0  0  0  0  0  0
   33.1637   21.4177    0.7227 C   0  0  0  0  0  0  0  0  0  0  0  0
   31.5838   29.4191   -7.4039 C   0  0  0  0  0  0  0  0  0  0  0  0
  1  2  2  0
  2  3  1  0
  2  4  1  0
  1  5  1  0
  4  6  1  0
  6  7  2  0
  7  8  1  0
  7  9  1  0
  9 10  1  0
  8 11  1  0
 10 12  1  0
  6 13  1  0
 12 14  2  0
  5 15  1  0
  8 16  1  0
 12 16  1  0
 16 17  1  0
  3 18  1  0
 15 19  2  0
 10 20  2  0
 14 21  1  0
 14 22  1  0
 20 23  1  0
 22 23  2  0
 23 24  1  0
 19 25  1  0
 11 26  1  0
 13 26  2  0
 24 27  1  0
  3 28  2  0
 27 29  2  0
 29 30  1  0
  5 31  2  0
 28 31  1  0
 17 32  1  0
 21 32  1  0
 30 33  2  0
 25 34  2  0
 31 34  1  0
 24 35  2  0
 33 35  1  0
M  END
>  <ID>  (1) 
conformer_0

$$$$
