
     RDKit          3D

 26 30  0  0  0  0  0  0  0  0999 V2000
   31.6173   32.0010   -1.7156 C   0  0  0  0  0  0  0  0  0  0  0  0
   31.5297   32.0742   -3.0242 C   0  0  0  0  0  0  0  0  0  0  0  0
   31.9659   31.0850   -3.8629 C   0  0  0  0  0  0  0  0  0  0  0  0
   32.1241   30.9707   -1.0776 C   0  0  0  0  0  0  0  0  0  0  0  0
   32.4123   29.8762   -3.1956 C   0  0  0  0  0  0  0  0  0  0  0  0
   32.5818   29.8668   -1.8163 C   0  0  0  0  0  0  0  0  0  0  0  0
   32.9293   28.7382   -4.0432 C   0  0  0  0  0  0  0  0  0  0  0  0
   33.1877   28.7673   -1.2139 C   0  0  0  0  0  0  0  0  0  0  0  0
   32.2467   30.9512    0.3797 C   0  0  0  0  0  0  0  0  0  0  0  0
   32.2117   28.4672   -5.0065 F   0  0  0  0  0  0  0  0  0  0  0  0
   31.8826   31.1575   -5.2871 C   0  0  0  0  0  0  0  0  0  0  0  0
   30.6643   31.2744   -5.8330 C   0  0  0  0  0  0  0  0  0  0  0  0
   30.5983   31.2885   -7.3323 C   0  0  0  0  0  0  0  0  0  0  0  0
   31.6958   31.1806   -8.0518 C   0  0  0  0  0  0  0  0  0  0  0  0
   32.9770   27.5833   -3.1401 C   0  0  0  0  0  0  0  0  0  0  0  0
   33.4697   28.8523    0.1821 C   0  0  0  0  0  0  0  0  0  0  0  0
   32.8990   30.9392   -6.1970 C   0  0  0  0  0  0  0  0  0  0  0  0
   32.9137   26.3291   -3.6676 O   0  0  0  0  0  0  0  0  0  0  0  0
   33.5311   27.6091   -1.8738 C   0  0  0  0  0  0  0  0  0  0  0  0
   32.8820   30.9719   -7.4730 C   0  0  0  0  0  0  0  0  0  0  0  0
   34.0681   26.4788   -1.4326 C   0  0  0  0  0  0  0  0  0  0  0  0
   31.6260   31.1927   -9.4628 F   0  0  0  0  0  0  0  0  0  0  0  0
   31.9018   31.9624    1.1347 O   0  0  0  0  0  0  0  0  0  0  0  0
   34.1279   27.7672    0.8944 C   0  0  0  0  0  0  0  0  0  0  0  0
   33.0037   29.9159    1.0536 C   0  0  0  0  0  0  0  0  0  0  0  0
   34.3847   26.5733    0.0410 C   0  0  0  0  0  0  0  0  0  0  0  0
  1  2  1  0
  2  3  2  0
  1  4  2  0
  3  5  1  0
  4  6  1  0
  5  6  2  0
  5  7  1  0
  6  8  1  0
  4  9  1  0
  7 10  1  0
  3 11  1  0
 11 12  1  0
 12 13  2  0
 13 14  1  0
  7 15  1  0
  8 16  2  0
 11 17  2  0
 15 18  1  0
  8 19  1  0
 15 19  2  0
 14 20  2  0
 17 20  1  0
 19 21  1  0
 14 22  1  0
  9 23  1  0
 16 24  1  0
  9 25  2  0
 16 25  1  0
 21 26  2  0
 24 26  2  0
M  END
>  <ID>  (1) 
conformer_0

$$$$
