
     RDKit          3D

  4  3  0  0  0  0  0  0  0  0999 V2000
   35.5123   22.0330    1.1099 O   0  0  0  0  0  0  0  0  0  0  0  0
   35.1006   21.2153    1.7677 C   0  0  0  0  0  0  0  0  0  0  0  0
   33.7293   20.8866    1.5950 O   0  0  0  0  0  0  0  0  0  0  0  0
   35.3889   20.8105    3.1231 C   0  0  0  0  0  0  0  0  0  0  0  0
  1  2  2  0
  2  3  1  0
  2  4  1  0
M  END
>  <ID>  (1) 
conformer_0

$$$$
