
     RDKit          3D

 20 23  0  0  0  0  0  0  0  0999 V2000
   31.9143   32.4509   -2.6308 C   0  0  0  0  0  0  0  0  0  0  0  0
   31.6756   32.4523   -3.9704 C   0  0  0  0  0  0  0  0  0  0  0  0
   32.3784   31.2116   -2.1890 C   0  0  0  0  0  0  0  0  0  0  0  0
   32.4825   30.1288   -3.1873 C   0  0  0  0  0  0  0  0  0  0  0  0
   32.6748   30.8521   -0.7776 C   0  0  0  0  0  0  0  0  0  0  0  0
   31.7691   31.6652   -4.9166 C   0  0  0  0  0  0  0  0  0  0  0  0
   32.2677   30.3610   -4.5123 C   0  0  0  0  0  0  0  0  0  0  0  0
   33.0482   28.8188   -2.7742 C   0  0  0  0  0  0  0  0  0  0  0  0
   32.5123   29.5396   -5.6438 O   0  0  0  0  0  0  0  0  0  0  0  0
   33.1499   29.5656   -0.4587 C   0  0  0  0  0  0  0  0  0  0  0  0
   31.5219   31.7299   -6.4034 C   0  0  0  0  0  0  0  0  0  0  0  0
   33.4780   29.2918    0.8860 O   0  0  0  0  0  0  0  0  0  0  0  0
   32.9570   30.2432    1.8202 C   0  0  0  0  0  0  0  0  0  0  0  0
   32.1412   30.4107   -6.9368 C   0  0  0  0  0  0  0  0  0  0  0  0
   33.4445   30.6059   -7.7701 C   0  0  0  0  0  0  0  0  0  0  0  0
   31.2307   29.4422   -7.7034 C   0  0  0  0  0  0  0  0  0  0  0  0
   33.3209   28.5696   -1.4338 C   0  0  0  0  0  0  0  0  0  0  0  0
   30.0897   32.0103   -6.8404 C   0  0  0  0  0  0  0  0  0  0  0  0
   29.9032   30.1756   -8.0378 C   0  0  0  0  0  0  0  0  0  0  0  0
   29.5756   31.3939   -7.7499 C   0  0  0  0  0  0  0  0  0  0  0  0
  1  2  1  0
  1  3  2  0
  3  4  1  0
  3  5  1  0
  2  6  2  0
  4  7  2  0
  6  7  1  0
  4  8  1  0
  7  9  1  0
  5 10  2  0
  6 11  1  0
 10 12  1  0
 12 13  1  0
  9 14  1  0
 11 14  1  0
 14 15  1  0
 14 16  1  0
  8 17  2  0
 10 17  1  0
 11 18  1  0
 16 19  1  0
 18 20  1  0
 19 20  2  0
M  END
>  <ID>  (1) 
conformer_0

$$$$
