
     RDKit          3D

 29 34  0  0  0  0  0  0  0  0999 V2000
   31.8116   31.9379   -0.6402 C   0  0  0  0  0  0  0  0  0  0  0  0
   32.2105   31.0712   -1.5501 C   0  0  0  0  0  0  0  0  0  0  0  0
   31.7244   31.2119   -2.9004 C   0  0  0  0  0  0  0  0  0  0  0  0
   32.0729   29.6322   -1.1836 C   0  0  0  0  0  0  0  0  0  0  0  0
   32.0680   30.2020   -3.9344 C   0  0  0  0  0  0  0  0  0  0  0  0
   33.6977   31.1917   -1.4542 C   0  0  0  0  0  0  0  0  0  0  0  0
   32.4930   28.6212   -2.1718 C   0  0  0  0  0  0  0  0  0  0  0  0
   31.8249   30.5250   -5.3490 C   0  0  0  0  0  0  0  0  0  0  0  0
   32.6125   29.3179    0.1851 C   0  0  0  0  0  0  0  0  0  0  0  0
   32.0912   29.7286   -6.2643 C   0  0  0  0  0  0  0  0  0  0  0  0
   31.5482   31.9332   -5.5238 C   0  0  0  0  0  0  0  0  0  0  0  0
   32.9964   29.9558   -7.2471 C   0  0  0  0  0  0  0  0  0  0  0  0
   31.6155   32.9563   -4.7006 C   0  0  0  0  0  0  0  0  0  0  0  0
   32.4013   27.2461   -1.7285 C   0  0  0  0  0  0  0  0  0  0  0  0
   32.8730   29.0322   -3.5839 C   0  0  0  0  0  0  0  0  0  0  0  0
   33.3231   28.1430    0.4246 C   0  0  0  0  0  0  0  0  0  0  0  0
   32.6338   30.9336   -8.2379 C   0  0  0  0  0  0  0  0  0  0  0  0
   33.9274   28.0399    1.5886 C   0  0  0  0  0  0  0  0  0  0  0  0
   32.4880   30.2644   -9.5325 C   0  0  0  0  0  0  0  0  0  0  0  0
   32.5813   30.2585    1.1780 C   0  0  0  0  0  0  0  0  0  0  0  0
   32.5946   26.2306   -2.6867 C   0  0  0  0  0  0  0  0  0  0  0  0
   30.9986   32.1745   -6.8599 C   0  0  0  0  0  0  0  0  0  0  0  0
   34.8424   27.0058    1.7459 C   0  0  0  0  0  0  0  0  0  0  0  0
   32.1277   32.6833   -3.2843 C   0  0  0  0  0  0  0  0  0  0  0  0
   33.2674   27.0845   -0.5244 C   0  0  0  0  0  0  0  0  0  0  0  0
   31.8559   31.4563    0.7952 C   0  0  0  0  0  0  0  0  0  0  0  0
   33.8742   26.0071   -0.2280 C   0  0  0  0  0  0  0  0  0  0  0  0
   31.3742   31.7436   -8.0774 C   0  0  0  0  0  0  0  0  0  0  0  0
   34.6937   25.9169    0.9548 C   0  0  0  0  0  0  0  0  0  0  0  0
  1  2  1  0
  2  3  1  0
  2  4  1  0
  3  5  1  0
  2  6  1  0
  4  7  1  0
  5  8  2  0
  4  9  1  0
  8 10  1  0
  8 11  1  0
 10 12  1  0
 11 13  1  0
  7 14  1  0
  5 15  1  0
  7 15  1  0
  9 16  1  0
 12 17  1  0
 16 18  2  0
 17 19  1  0
  9 20  2  0
 14 21  1  0
 11 22  2  0
 18 23  1  0
  3 24  1  0
 13 24  1  0
 14 25  1  0
 16 25  1  0
  1 26  1  0
 20 26  1  0
 25 27  2  0
 17 28  1  0
 22 28  1  0
 23 29  2  0
 27 29  1  0
M  END
>  <ID>  (1) 
conformer_0

$$$$
