
     RDKit          3D

 35 40  0  0  0  0  0  0  0  0999 V2000
   34.9864   24.3542   -0.4391 C   0  0  0  0  0  0  0  0  0  0  0  0
   34.0787   25.2897   -0.7166 C   0  0  0  0  0  0  0  0  0  0  0  0
   32.6980   24.8911   -0.6459 C   0  0  0  0  0  0  0  0  0  0  0  0
   34.3948   26.6219   -1.1076 O   0  0  0  0  0  0  0  0  0  0  0  0
   34.7349   23.0995   -0.1287 C   0  0  0  0  0  0  0  0  0  0  0  0
   33.7256   27.6293   -0.4104 C   0  0  0  0  0  0  0  0  0  0  0  0
   32.8950   28.3736   -1.0052 C   0  0  0  0  0  0  0  0  0  0  0  0
   32.3134   29.5239   -0.4691 C   0  0  0  0  0  0  0  0  0  0  0  0
   32.9212   28.3095   -2.5595 C   0  0  0  0  0  0  0  0  0  0  0  0
   32.5708   29.4263   -3.3026 C   0  0  0  0  0  0  0  0  0  0  0  0
   32.9854   29.9866    0.7107 C   0  0  0  0  0  0  0  0  0  0  0  0
   31.6459   25.7954   -0.9643 F   0  0  0  0  0  0  0  0  0  0  0  0
   32.9047   27.1927   -3.0572 O   0  0  0  0  0  0  0  0  0  0  0  0
   33.6776   29.0107    1.5045 C   0  0  0  0  0  0  0  0  0  0  0  0
   32.2453   29.3246   -4.6332 C   0  0  0  0  0  0  0  0  0  0  0  0
   35.7898   22.1026    0.1292 C   0  0  0  0  0  0  0  0  0  0  0  0
   33.4355   22.7374    0.0515 C   0  0  0  0  0  0  0  0  0  0  0  0
   31.5416   30.3091   -5.2946 C   0  0  0  0  0  0  0  0  0  0  0  0
   35.5629   21.1829    1.1343 C   0  0  0  0  0  0  0  0  0  0  0  0
   31.2726   31.4568   -4.5142 C   0  0  0  0  0  0  0  0  0  0  0  0
   30.5638   32.5268   -5.3361 O   0  0  0  0  0  0  0  0  0  0  0  0
   31.2038   30.1350   -6.7345 C   0  0  0  0  0  0  0  0  0  0  0  0
   32.6704   31.1735    1.2853 C   0  0  0  0  0  0  0  0  0  0  0  0
   33.1472   21.3817    0.6089 C   0  0  0  0  0  0  0  0  0  0  0  0
   34.3306   20.9176    1.5602 C   0  0  0  0  0  0  0  0  0  0  0  0
   31.4802   31.5504   -3.2953 C   0  0  0  0  0  0  0  0  0  0  0  0
   33.9402   27.8981    0.9865 C   0  0  0  0  0  0  0  0  0  0  0  0
   30.5533   32.4164   -6.6621 C   0  0  0  0  0  0  0  0  0  0  0  0
   31.1229   32.7922   -2.5317 C   0  0  0  0  0  0  0  0  0  0  0  0
   31.1943   31.3944   -7.3621 C   0  0  0  0  0  0  0  0  0  0  0  0
   32.1549   30.4630   -2.5911 C   0  0  0  0  0  0  0  0  0  0  0  0
   34.1883   21.3166    2.8574 C   0  0  0  0  0  0  0  0  0  0  0  0
   32.0882   30.6533   -1.1574 N   0  0  0  0  0  0  0  0  0  0  0  0
   32.4414   23.6537   -0.1858 C   0  0  0  0  0  0  0  0  0  0  0  0
   30.6216   31.1629   -8.7464 O   0  0  0  0  0  0  0  0  0  0  0  0
  1  2  2  0
  2  3  1  0
  2  4  1  0
  1  5  1  0
  4  6  1  0
  6  7  2  0
  7  8  1  0
  7  9  1  0
  9 10  1  0
  8 11  1  0
  3 12  1  0
  9 13  2  0
 11 14  1  0
 10 15  1  0
  5 16  1  0
  5 17  2  0
 15 18  2  0
 16 19  1  0
 18 20  1  0
 20 21  1  0
 18 22  1  0
 11 23  2  0
 17 24  1  0
 19 25  1  0
 24 25  1  0
 20 26  2  0
  6 27  1  0
 14 27  2  0
 21 28  1  0
 26 29  1  0
 22 30  1  0
 28 30  1  0
 10 31  2  0
 26 31  1  0
 25 32  1  0
  8 33  1  0
 31 33  1  0
  3 34  2  0
 17 34  1  0
 30 35  1  0
M  END
>  <ID>  (1) 
conformer_0

$$$$
