
     RDKit          3D

  8  8  0  0  0  0  0  0  0  0999 V2000
   32.2551   26.2645   -2.4067 C   0  0  0  0  0  0  0  0  0  0  0  0
   32.3474   26.3026   -1.1526 C   0  0  0  0  0  0  0  0  0  0  0  0
   33.2999   27.1918   -0.6568 C   0  0  0  0  0  0  0  0  0  0  0  0
   32.5322   27.2804   -3.1373 C   0  0  0  0  0  0  0  0  0  0  0  0
   33.4225   28.3097   -2.6595 C   0  0  0  0  0  0  0  0  0  0  0  0
   33.8390   28.2271   -1.4116 C   0  0  0  0  0  0  0  0  0  0  0  0
   33.8211   27.1252    0.7083 O   0  0  0  0  0  0  0  0  0  0  0  0
   33.9615   28.3961    1.3602 C   0  0  0  0  0  0  0  0  0  0  0  0
  1  2  1  0
  2  3  2  0
  1  4  2  0
  4  5  1  0
  3  6  1  0
  5  6  2  0
  3  7  1  0
  7  8  1  0
M  END
>  <ID>  (1) 
conformer_0

$$$$
