
     RDKit          3D

 34 38  0  0  0  0  0  0  0  0999 V2000
   31.5236   32.2100   -2.9873 C   0  0  0  0  0  0  0  0  0  0  0  0
   31.9603   31.2296   -2.2971 C   0  0  0  0  0  0  0  0  0  0  0  0
   31.4650   32.1885   -4.4047 C   0  0  0  0  0  0  0  0  0  0  0  0
   32.0645   29.9448   -2.9821 C   0  0  0  0  0  0  0  0  0  0  0  0
   32.4070   28.7657   -2.1837 C   0  0  0  0  0  0  0  0  0  0  0  0
   31.9952   29.9213   -4.2470 C   0  0  0  0  0  0  0  0  0  0  0  0
   31.2256   33.4358   -5.1282 C   0  0  0  0  0  0  0  0  0  0  0  0
   32.2289   27.4916   -2.7358 C   0  0  0  0  0  0  0  0  0  0  0  0
   32.7447   26.4047   -2.1649 C   0  0  0  0  0  0  0  0  0  0  0  0
   33.5177   26.4405   -1.0997 C   0  0  0  0  0  0  0  0  0  0  0  0
   31.6942   30.9993   -5.0448 C   0  0  0  0  0  0  0  0  0  0  0  0
   31.6046   30.8557   -6.4518 C   0  0  0  0  0  0  0  0  0  0  0  0
   32.0632   31.1752   -0.7786 C   0  0  0  0  0  0  0  0  0  0  0  0
   34.0722   25.2080   -0.4983 C   0  0  0  0  0  0  0  0  0  0  0  0
   30.2838   30.8534   -7.0727 C   0  0  0  0  0  0  0  0  0  0  0  0
   33.6665   27.8184   -0.4385 C   0  0  0  0  0  0  0  0  0  0  0  0
   35.2996   24.9673   -0.4667 C   0  0  0  0  0  0  0  0  0  0  0  0
   35.4800   23.5436   -0.0628 C   0  0  0  0  0  0  0  0  0  0  0  0
   32.6927   30.7321   -7.3101 C   0  0  0  0  0  0  0  0  0  0  0  0
   32.9728   30.1907   -0.2543 C   0  0  0  0  0  0  0  0  0  0  0  0
   34.5541   22.7429    0.2949 C   0  0  0  0  0  0  0  0  0  0  0  0
   32.6733   30.6355   -8.6100 C   0  0  0  0  0  0  0  0  0  0  0  0
   34.7798   21.3284    0.7965 C   0  0  0  0  0  0  0  0  0  0  0  0
   33.1988   23.3371    0.1854 C   0  0  0  0  0  0  0  0  0  0  0  0
   31.4273   30.6056   -9.2252 C   0  0  0  0  0  0  0  0  0  0  0  0
   34.2833   27.8478    0.7045 O   0  0  0  0  0  0  0  0  0  0  0  0
   34.5651   21.1025    2.1697 C   0  0  0  0  0  0  0  0  0  0  0  0
   33.3578   30.1800    1.0094 O   0  0  0  0  0  0  0  0  0  0  0  0
   32.9567   24.3482   -0.0189 C   0  0  0  0  0  0  0  0  0  0  0  0
   34.3859   22.0986    2.9435 O   0  0  0  0  0  0  0  0  0  0  0  0
   33.0391   28.9075   -0.9828 C   0  0  0  0  0  0  0  0  0  0  0  0
   34.4648   19.9216    2.6098 O   0  0  0  0  0  0  0  0  0  0  0  0
   29.0500   31.0003   -6.3181 C   0  0  0  0  0  0  0  0  0  0  0  0
   30.3020   30.7450   -8.4946 C   0  0  0  0  0  0  0  0  0  0  0  0
  1  2  2  0
  1  3  1  0
  2  4  1  0
  4  5  1  0
  4  6  2  0
  3  7  1  0
  5  8  2  0
  8  9  1  0
  9 10  2  0
  3 11  2  0
  6 11  1  0
 11 12  1  0
  2 13  1  0
 10 14  1  0
 12 15  2  0
 10 16  1  0
 14 17  2  0
 17 18  1  0
 12 19  1  0
 13 20  1  0
 18 21  2  0
 19 22  2  0
 21 23  1  0
 21 24  1  0
 22 25  1  0
 16 26  1  0
 23 27  1  0
 20 28  2  0
 14 29  1  0
 24 29  2  0
 27 30  1  0
  5 31  1  0
 16 31  2  0
 20 31  1  0
 27 32  2  0
 15 33  1  0
 15 34  1  0
 25 34  2  0
M  END
>  <ID>  (1) 
conformer_0

$$$$
