
     RDKit          3D

  7  7  0  0  0  0  0  0  0  0999 V2000
   35.4510   22.8227    0.1823 C   0  0  0  0  0  0  0  0  0  0  0  0
   34.5555   23.6466   -0.3046 C   0  0  0  0  0  0  0  0  0  0  0  0
   35.1852   21.6175    0.7601 C   0  0  0  0  0  0  0  0  0  0  0  0
   36.2248   20.8485    1.3756 O   0  0  0  0  0  0  0  0  0  0  0  0
   33.9205   21.4668    1.1022 C   0  0  0  0  0  0  0  0  0  0  0  0
   33.1572   23.2284    0.0354 C   0  0  0  0  0  0  0  0  0  0  0  0
   32.8942   22.2237    0.6115 C   0  0  0  0  0  0  0  0  0  0  0  0
  1  2  2  0
  1  3  1  0
  3  4  1  0
  3  5  2  0
  2  6  1  0
  5  7  1  0
  6  7  2  0
M  END
>  <ID>  (1) 
conformer_0

$$$$
