
     RDKit          3D

  5  4  0  0  0  0  0  0  0  0999 V2000
   33.4415   22.7295    0.2594 O   0  0  0  0  0  0  0  0  0  0  0  0
   34.4609   22.1456    0.7151 C   0  0  0  0  0  0  0  0  0  0  0  0
   34.2706   21.2369    1.8259 C   0  0  0  0  0  0  0  0  0  0  0  0
   35.7448   22.0864    0.1502 C   0  0  0  0  0  0  0  0  0  0  0  0
   35.0496   20.3320    2.2680 C   0  0  0  0  0  0  0  0  0  0  0  0
  1  2  2  0
  2  3  1  0
  2  4  1  0
  3  5  1  0
M  END
>  <ID>  (1) 
conformer_0

$$$$
