
     RDKit          3D

 28 32  0  0  0  0  0  0  0  0999 V2000
   31.8116   31.9379   -0.6402 C   0  0  0  0  0  0  0  0  0  0  0  0
   32.2105   31.0712   -1.5501 C   0  0  0  0  0  0  0  0  0  0  0  0
   31.7244   31.2119   -2.9004 C   0  0  0  0  0  0  0  0  0  0  0  0
   32.0729   29.6322   -1.1836 C   0  0  0  0  0  0  0  0  0  0  0  0
   32.0680   30.2020   -3.9344 C   0  0  0  0  0  0  0  0  0  0  0  0
   33.6977   31.1917   -1.4542 C   0  0  0  0  0  0  0  0  0  0  0  0
   32.4930   28.6212   -2.1718 C   0  0  0  0  0  0  0  0  0  0  0  0
   31.8249   30.5250   -5.3490 C   0  0  0  0  0  0  0  0  0  0  0  0
   32.6125   29.3179    0.1851 C   0  0  0  0  0  0  0  0  0  0  0  0
   32.0912   29.7286   -6.2643 C   0  0  0  0  0  0  0  0  0  0  0  0
   31.5482   31.9332   -5.5238 C   0  0  0  0  0  0  0  0  0  0  0  0
   32.9964   29.9558   -7.2471 C   0  0  0  0  0  0  0  0  0  0  0  0
   31.6155   32.9563   -4.7006 C   0  0  0  0  0  0  0  0  0  0  0  0
   32.4013   27.2461   -1.7285 C   0  0  0  0  0  0  0  0  0  0  0  0
   32.8730   29.0322   -3.5839 C   0  0  0  0  0  0  0  0  0  0  0  0
   30.1663   31.8958   -6.1668 C   0  0  0  0  0  0  0  0  0  0  0  0
   30.0370   31.4165   -7.4736 C   0  0  0  0  0  0  0  0  0  0  0  0
   29.0247   32.1550   -5.5317 O   0  0  0  0  0  0  0  0  0  0  0  0
   30.2213   31.1596   -2.9210 C   0  0  0  0  0  0  0  0  0  0  0  0
   32.0486   32.6416   -3.4111 C   0  0  0  0  0  0  0  0  0  0  0  0
   32.6753   30.3774    1.0817 C   0  0  0  0  0  0  0  0  0  0  0  0
   30.5313   30.1972   -7.9895 C   0  0  0  0  0  0  0  0  0  0  0  0
   30.8944   29.2135   -7.0984 C   0  0  0  0  0  0  0  0  0  0  0  0
   31.7830   26.3180   -2.5088 C   0  0  0  0  0  0  0  0  0  0  0  0
   33.7189   26.7886   -1.1953 C   0  0  0  0  0  0  0  0  0  0  0  0
   32.0478   30.5318   -8.4479 C   0  0  0  0  0  0  0  0  0  0  0  0
   32.4811   31.8041    0.7696 C   0  0  0  0  0  0  0  0  0  0  0  0
   33.8575   26.5679    0.1304 C   0  0  0  0  0  0  0  0  0  0  0  0
  1  2  1  0
  2  3  1  0
  2  4  1  0
  3  5  1  0
  2  6  1  0
  4  7  1  0
  5  8  2  0
  4  9  1  0
  8 10  1  0
  8 11  1  0
 10 12  1  0
 11 13  1  0
  7 14  1  0
  5 15  1  0
  7 15  1  0
 11 16  1  0
 16 17  1  0
 16 18  2  0
  3 19  1  0
  3 20  1  0
 13 20  1  0
  9 21  1  0
 17 22  1  0
 10 23  1  0
 22 23  1  0
 14 24  1  0
 14 25  1  0
 12 26  1  0
 22 26  1  0
  1 27  1  0
 21 27  1  0
 25 28  1  0
M  END
>  <ID>  (1) 
conformer_0

$$$$
