
     RDKit          3D

  6  6  0  0  0  0  0  0  0  0999 V2000
   35.0716   20.1495    2.3730 C   0  0  0  0  0  0  0  0  0  0  0  0
   34.7383   21.2243    1.4682 C   0  0  0  0  0  0  0  0  0  0  0  0
   33.4532   21.3727    1.0192 C   0  0  0  0  0  0  0  0  0  0  0  0
   33.6877   22.4939    0.1385 C   0  0  0  0  0  0  0  0  0  0  0  0
   34.7586   23.1282   -0.2446 C   0  0  0  0  0  0  0  0  0  0  0  0
   35.8033   22.0351    0.8626 C   0  0  0  0  0  0  0  0  0  0  0  0
  1  2  1  0
  2  3  1  0
  3  4  2  0
  4  5  1  0
  2  6  2  0
  5  6  2  0
M  END
>  <ID>  (1) 
conformer_0

$$$$
