
     RDKit          3D

 23 26  0  0  0  0  0  0  0  0999 V2000
   31.6173   32.0010   -1.7156 C   0  0  0  0  0  0  0  0  0  0  0  0
   31.5297   32.0742   -3.0242 C   0  0  0  0  0  0  0  0  0  0  0  0
   31.9659   31.0850   -3.8629 C   0  0  0  0  0  0  0  0  0  0  0  0
   32.1241   30.9707   -1.0776 C   0  0  0  0  0  0  0  0  0  0  0  0
   32.5127   29.9605   -3.2374 C   0  0  0  0  0  0  0  0  0  0  0  0
   31.8196   31.1628   -5.3457 C   0  0  0  0  0  0  0  0  0  0  0  0
   32.6592   29.8959   -1.8818 C   0  0  0  0  0  0  0  0  0  0  0  0
   32.3282   30.8823    0.2348 O   0  0  0  0  0  0  0  0  0  0  0  0
   33.1358   29.8020    0.7776 C   0  0  0  0  0  0  0  0  0  0  0  0
   31.7436   32.4085   -5.9274 C   0  0  0  0  0  0  0  0  0  0  0  0
   33.5219   28.8401   -0.0052 C   0  0  0  0  0  0  0  0  0  0  0  0
   31.6328   32.4854   -7.3640 C   0  0  0  0  0  0  0  0  0  0  0  0
   31.5077   31.2406   -8.0104 C   0  0  0  0  0  0  0  0  0  0  0  0
   33.1935   28.7352   -1.2683 C   0  0  0  0  0  0  0  0  0  0  0  0
   33.3404   29.9020    2.0520 O   0  0  0  0  0  0  0  0  0  0  0  0
   34.0966   27.7060    0.6238 C   0  0  0  0  0  0  0  0  0  0  0  0
   31.7056   30.0606   -6.0822 C   0  0  0  0  0  0  0  0  0  0  0  0
   33.5261   27.6041   -2.0123 C   0  0  0  0  0  0  0  0  0  0  0  0
   31.6104   30.0212   -7.4077 C   0  0  0  0  0  0  0  0  0  0  0  0
   34.3239   26.4960    0.1266 C   0  0  0  0  0  0  0  0  0  0  0  0
   31.4693   31.2279   -9.4634 O   0  0  0  0  0  0  0  0  0  0  0  0
   33.1699   27.4574   -3.3823 O   0  0  0  0  0  0  0  0  0  0  0  0
   33.9338   26.4950   -1.3615 C   0  0  0  0  0  0  0  0  0  0  0  0
  1  2  1  0
  2  3  2  0
  1  4  2  0
  3  5  1  0
  3  6  1  0
  4  7  1  0
  5  7  2  0
  4  8  1  0
  8  9  1  0
  6 10  1  0
  9 11  1  0
 10 12  2  0
 12 13  1  0
  7 14  1  0
 11 14  1  0
  9 15  2  0
 11 16  2  0
  6 17  2  0
 14 18  2  0
 13 19  2  0
 17 19  1  0
 16 20  1  0
 13 21  1  0
 18 22  1  0
 18 23  1  0
 20 23  2  0
M  END
>  <ID>  (1) 
conformer_0

$$$$
