
     RDKit          3D

 33 37  0  0  0  0  0  0  0  0999 V2000
   31.5236   32.2100   -2.9873 C   0  0  0  0  0  0  0  0  0  0  0  0
   31.9603   31.2296   -2.2971 C   0  0  0  0  0  0  0  0  0  0  0  0
   31.4650   32.1885   -4.4047 C   0  0  0  0  0  0  0  0  0  0  0  0
   32.0645   29.9448   -2.9821 C   0  0  0  0  0  0  0  0  0  0  0  0
   32.4070   28.7657   -2.1837 C   0  0  0  0  0  0  0  0  0  0  0  0
   31.9952   29.9213   -4.2470 C   0  0  0  0  0  0  0  0  0  0  0  0
   31.2256   33.4358   -5.1282 C   0  0  0  0  0  0  0  0  0  0  0  0
   32.2289   27.4916   -2.7358 C   0  0  0  0  0  0  0  0  0  0  0  0
   32.7447   26.4047   -2.1649 C   0  0  0  0  0  0  0  0  0  0  0  0
   33.5177   26.4405   -1.0997 C   0  0  0  0  0  0  0  0  0  0  0  0
   31.6942   30.9993   -5.0448 C   0  0  0  0  0  0  0  0  0  0  0  0
   31.6046   30.8557   -6.4518 C   0  0  0  0  0  0  0  0  0  0  0  0
   32.0632   31.1752   -0.7786 C   0  0  0  0  0  0  0  0  0  0  0  0
   34.0722   25.2080   -0.4983 C   0  0  0  0  0  0  0  0  0  0  0  0
   30.2838   30.8534   -7.0727 C   0  0  0  0  0  0  0  0  0  0  0  0
   33.6665   27.8184   -0.4385 C   0  0  0  0  0  0  0  0  0  0  0  0
   35.2996   24.9673   -0.4667 C   0  0  0  0  0  0  0  0  0  0  0  0
   35.4800   23.5436   -0.0628 C   0  0  0  0  0  0  0  0  0  0  0  0
   32.6927   30.7321   -7.3101 C   0  0  0  0  0  0  0  0  0  0  0  0
   32.9728   30.1907   -0.2543 C   0  0  0  0  0  0  0  0  0  0  0  0
   34.5541   22.7429    0.2949 C   0  0  0  0  0  0  0  0  0  0  0  0
   32.6733   30.6355   -8.6100 C   0  0  0  0  0  0  0  0  0  0  0  0
   34.7798   21.3284    0.7965 C   0  0  0  0  0  0  0  0  0  0  0  0
   33.2198   23.1876    0.2588 C   0  0  0  0  0  0  0  0  0  0  0  0
   33.9099   30.4387   -9.3938 C   0  0  0  0  0  0  0  0  0  0  0  0
   34.5573   21.0877    2.1651 C   0  0  0  0  0  0  0  0  0  0  0  0
   32.8707   24.4156   -0.1326 C   0  0  0  0  0  0  0  0  0  0  0  0
   31.4168   30.7185   -9.3532 C   0  0  0  0  0  0  0  0  0  0  0  0
   30.3064   30.9297   -8.5717 C   0  0  0  0  0  0  0  0  0  0  0  0
   34.3675   22.0487    2.9827 O   0  0  0  0  0  0  0  0  0  0  0  0
   33.0786   28.8881   -0.9842 C   0  0  0  0  0  0  0  0  0  0  0  0
   33.4044   30.2569    0.9590 O   0  0  0  0  0  0  0  0  0  0  0  0
   34.4637   19.9028    2.5845 O   0  0  0  0  0  0  0  0  0  0  0  0
  1  2  2  0
  1  3  1  0
  2  4  1  0
  4  5  1  0
  4  6  2  0
  3  7  1  0
  5  8  2  0
  8  9  1  0
  9 10  2  0
  3 11  2  0
  6 11  1  0
 11 12  1  0
  2 13  1  0
 10 14  1  0
 12 15  2  0
 10 16  1  0
 14 17  2  0
 17 18  1  0
 12 19  1  0
 13 20  1  0
 18 21  2  0
 19 22  2  0
 21 23  1  0
 21 24  1  0
 22 25  1  0
 23 26  1  0
 14 27  1  0
 24 27  2  0
 22 28  1  0
 15 29  1  0
 28 29  2  0
 26 30  1  0
  5 31  1  0
 16 31  2  0
 20 31  1  0
 20 32  2  0
 26 33  2  0
M  END
>  <ID>  (1) 
conformer_0

$$$$
