
     RDKit          3D

 35 39  0  0  0  0  0  0  0  0999 V2000
   34.9864   24.3542   -0.4391 C   0  0  0  0  0  0  0  0  0  0  0  0
   34.0787   25.2897   -0.7166 C   0  0  0  0  0  0  0  0  0  0  0  0
   32.6980   24.8911   -0.6459 C   0  0  0  0  0  0  0  0  0  0  0  0
   34.3948   26.6219   -1.1076 O   0  0  0  0  0  0  0  0  0  0  0  0
   34.7349   23.0995   -0.1287 C   0  0  0  0  0  0  0  0  0  0  0  0
   33.7256   27.6293   -0.4104 C   0  0  0  0  0  0  0  0  0  0  0  0
   32.8950   28.3736   -1.0052 C   0  0  0  0  0  0  0  0  0  0  0  0
   32.3134   29.5239   -0.4691 C   0  0  0  0  0  0  0  0  0  0  0  0
   32.9212   28.3095   -2.5595 C   0  0  0  0  0  0  0  0  0  0  0  0
   32.5708   29.4263   -3.3026 C   0  0  0  0  0  0  0  0  0  0  0  0
   32.9854   29.9866    0.7107 C   0  0  0  0  0  0  0  0  0  0  0  0
   31.6459   25.7954   -0.9643 F   0  0  0  0  0  0  0  0  0  0  0  0
   32.9047   27.1927   -3.0572 O   0  0  0  0  0  0  0  0  0  0  0  0
   33.6776   29.0107    1.5045 C   0  0  0  0  0  0  0  0  0  0  0  0
   32.2453   29.3246   -4.6332 C   0  0  0  0  0  0  0  0  0  0  0  0
   35.7898   22.1026    0.1292 C   0  0  0  0  0  0  0  0  0  0  0  0
   33.4355   22.7374    0.0515 C   0  0  0  0  0  0  0  0  0  0  0  0
   31.5416   30.3091   -5.2946 C   0  0  0  0  0  0  0  0  0  0  0  0
   35.5629   21.1829    1.1343 C   0  0  0  0  0  0  0  0  0  0  0  0
   31.2726   31.4568   -4.5142 C   0  0  0  0  0  0  0  0  0  0  0  0
   30.5638   32.5268   -5.3361 O   0  0  0  0  0  0  0  0  0  0  0  0
   35.0531   20.6755    1.9922 C   0  0  0  0  0  0  0  0  0  0  0  0
   31.0338   30.1461   -6.7244 C   0  0  0  0  0  0  0  0  0  0  0  0
   30.1573   30.8931   -7.1359 O   0  0  0  0  0  0  0  0  0  0  0  0
   34.0881   27.7254    0.9669 C   0  0  0  0  0  0  0  0  0  0  0  0
   29.8838   32.0233   -6.4353 C   0  0  0  0  0  0  0  0  0  0  0  0
   31.5121   31.5427   -3.3417 C   0  0  0  0  0  0  0  0  0  0  0  0
   30.7927   28.8334   -7.0903 O   0  0  0  0  0  0  0  0  0  0  0  0
   32.2106   30.5477   -2.5513 C   0  0  0  0  0  0  0  0  0  0  0  0
   28.4159   31.8384   -6.0598 C   0  0  0  0  0  0  0  0  0  0  0  0
   32.3938   30.3415   -7.6127 C   0  0  0  0  0  0  0  0  0  0  0  0
   32.3261   23.7251   -0.2033 C   0  0  0  0  0  0  0  0  0  0  0  0
   34.6122   19.9193    3.1212 C   0  0  0  0  0  0  0  0  0  0  0  0
   32.3155   30.8331    1.4844 C   0  0  0  0  0  0  0  0  0  0  0  0
   32.7332   30.7900   -1.3615 C   0  0  0  0  0  0  0  0  0  0  0  0
  1  2  2  0
  2  3  1  0
  2  4  1  0
  1  5  1  0
  4  6  1  0
  6  7  2  0
  7  8  1  0
  7  9  1  0
  9 10  1  0
  8 11  1  0
  3 12  1  0
  9 13  2  0
 11 14  1  0
 10 15  1  0
  5 16  1  0
  5 17  2  0
 15 18  2  0
 16 19  1  0
 18 20  1  0
 20 21  1  0
 19 22  3  0
 18 23  1  0
 23 24  1  0
  6 25  1  0
 14 25  2  0
 21 26  1  0
 24 26  1  0
 20 27  2  0
 23 28  1  0
 10 29  2  0
 27 29  1  0
 26 30  1  0
 23 31  1  0
  3 32  2  0
 17 32  1  0
 22 33  1  0
 11 34  1  0
  8 35  1  0
 29 35  1  0
M  END
>  <ID>  (1) 
conformer_0

$$$$
