
     RDKit          3D

 36 42  0  0  0  0  0  0  0  0999 V2000
   34.9864   24.3542   -0.4391 C   0  0  0  0  0  0  0  0  0  0  0  0
   34.0787   25.2897   -0.7166 C   0  0  0  0  0  0  0  0  0  0  0  0
   32.6980   24.8911   -0.6459 C   0  0  0  0  0  0  0  0  0  0  0  0
   34.3948   26.6219   -1.1076 O   0  0  0  0  0  0  0  0  0  0  0  0
   34.7349   23.0995   -0.1287 C   0  0  0  0  0  0  0  0  0  0  0  0
   33.7256   27.6293   -0.4104 C   0  0  0  0  0  0  0  0  0  0  0  0
   32.8950   28.3736   -1.0052 C   0  0  0  0  0  0  0  0  0  0  0  0
   32.3134   29.5239   -0.4691 C   0  0  0  0  0  0  0  0  0  0  0  0
   32.9212   28.3095   -2.5595 C   0  0  0  0  0  0  0  0  0  0  0  0
   32.5708   29.4263   -3.3026 C   0  0  0  0  0  0  0  0  0  0  0  0
   32.9854   29.9866    0.7107 C   0  0  0  0  0  0  0  0  0  0  0  0
   31.6459   25.7954   -0.9643 F   0  0  0  0  0  0  0  0  0  0  0  0
   32.9047   27.1927   -3.0572 O   0  0  0  0  0  0  0  0  0  0  0  0
   33.6776   29.0107    1.5045 C   0  0  0  0  0  0  0  0  0  0  0  0
   32.2453   29.3246   -4.6332 C   0  0  0  0  0  0  0  0  0  0  0  0
   35.7898   22.1026    0.1292 C   0  0  0  0  0  0  0  0  0  0  0  0
   33.4355   22.7374    0.0515 C   0  0  0  0  0  0  0  0  0  0  0  0
   31.5416   30.3091   -5.2946 C   0  0  0  0  0  0  0  0  0  0  0  0
   35.5629   21.1829    1.1343 C   0  0  0  0  0  0  0  0  0  0  0  0
   31.2726   31.4568   -4.5142 C   0  0  0  0  0  0  0  0  0  0  0  0
   31.1727   30.1694   -6.7601 C   0  0  0  0  0  0  0  0  0  0  0  0
   33.1404   21.3842    0.5975 C   0  0  0  0  0  0  0  0  0  0  0  0
   34.2444   20.7183    1.2821 C   0  0  0  0  0  0  0  0  0  0  0  0
   32.5985   23.6208   -0.1547 C   0  0  0  0  0  0  0  0  0  0  0  0
   32.0240   29.6826   -7.6483 O   0  0  0  0  0  0  0  0  0  0  0  0
   30.9150   31.5916   -7.5428 C   0  0  0  0  0  0  0  0  0  0  0  0
   32.2955   30.3708   -8.8071 C   0  0  0  0  0  0  0  0  0  0  0  0
   31.4734   31.4139   -8.8192 C   0  0  0  0  0  0  0  0  0  0  0  0
   32.1486   30.5175   -2.6131 C   0  0  0  0  0  0  0  0  0  0  0  0
   30.5741   32.5577   -5.3699 C   0  0  0  0  0  0  0  0  0  0  0  0
   34.1055   27.8650    0.8956 C   0  0  0  0  0  0  0  0  0  0  0  0
   31.1752   32.6719   -6.5946 C   0  0  0  0  0  0  0  0  0  0  0  0
   32.4277   30.8198   -1.2868 C   0  0  0  0  0  0  0  0  0  0  0  0
   31.5829   31.6355   -3.3765 C   0  0  0  0  0  0  0  0  0  0  0  0
   34.2419   20.3545    2.5157 C   0  0  0  0  0  0  0  0  0  0  0  0
   32.2235   30.7699    1.4714 O   0  0  0  0  0  0  0  0  0  0  0  0
  1  2  2  0
  2  3  1  0
  2  4  1  0
  1  5  1  0
  4  6  1  0
  6  7  2  0
  7  8  1  0
  7  9  1  0
  9 10  1  0
  8 11  1  0
  3 12  1  0
  9 13  2  0
 11 14  1  0
 10 15  1  0
  5 16  1  0
  5 17  2  0
 15 18  2  0
 16 19  1  0
 18 20  1  0
 18 21  1  0
 17 22  1  0
 19 23  1  0
 22 23  1  0
  3 24  2  0
 17 24  1  0
 21 25  1  0
 21 26  1  0
 25 27  1  0
 26 28  1  0
 27 28  1  0
 10 29  2  0
 20 30  1  0
  6 31  1  0
 14 31  2  0
 26 32  1  0
 30 32  1  0
  8 33  1  0
 29 33  1  0
 20 34  2  0
 29 34  1  0
 23 35  2  0
 11 36  1  0
M  END
>  <ID>  (1) 
conformer_0

$$$$
