
     RDKit          3D

 34 40  0  0  0  0  0  0  0  0999 V2000
   34.9864   24.3542   -0.4391 C   0  0  0  0  0  0  0  0  0  0  0  0
   34.0787   25.2897   -0.7166 C   0  0  0  0  0  0  0  0  0  0  0  0
   32.6980   24.8911   -0.6459 C   0  0  0  0  0  0  0  0  0  0  0  0
   34.3948   26.6219   -1.1076 O   0  0  0  0  0  0  0  0  0  0  0  0
   34.7349   23.0995   -0.1287 C   0  0  0  0  0  0  0  0  0  0  0  0
   33.7256   27.6293   -0.4104 C   0  0  0  0  0  0  0  0  0  0  0  0
   32.8950   28.3736   -1.0052 C   0  0  0  0  0  0  0  0  0  0  0  0
   32.3134   29.5239   -0.4691 C   0  0  0  0  0  0  0  0  0  0  0  0
   32.9212   28.3095   -2.5595 C   0  0  0  0  0  0  0  0  0  0  0  0
   32.5708   29.4263   -3.3026 C   0  0  0  0  0  0  0  0  0  0  0  0
   32.9854   29.9866    0.7107 C   0  0  0  0  0  0  0  0  0  0  0  0
   31.9920   30.5602   -2.5642 C   0  0  0  0  0  0  0  0  0  0  0  0
   33.7891   27.8919    1.0129 C   0  0  0  0  0  0  0  0  0  0  0  0
   31.6410   31.7086   -3.3368 C   0  0  0  0  0  0  0  0  0  0  0  0
   35.8188   22.1544    0.2033 C   0  0  0  0  0  0  0  0  0  0  0  0
   32.2019   30.7981   -1.2732 C   0  0  0  0  0  0  0  0  0  0  0  0
   31.2681   31.7121   -0.6904 C   0  0  0  0  0  0  0  0  0  0  0  0
   31.6421   25.8493   -0.8803 F   0  0  0  0  0  0  0  0  0  0  0  0
   35.4040   21.0110    0.9629 C   0  0  0  0  0  0  0  0  0  0  0  0
   32.4375   29.4649   -4.6557 C   0  0  0  0  0  0  0  0  0  0  0  0
   31.1479   32.8910   -2.6452 O   0  0  0  0  0  0  0  0  0  0  0  0
   31.5573   31.6890   -4.7195 C   0  0  0  0  0  0  0  0  0  0  0  0
   32.0164   30.5880   -5.3622 C   0  0  0  0  0  0  0  0  0  0  0  0
   31.9614   30.5854   -6.8624 C   0  0  0  0  0  0  0  0  0  0  0  0
   34.1423   20.8500    1.3929 C   0  0  0  0  0  0  0  0  0  0  0  0
   33.6266   28.9424    1.5233 C   0  0  0  0  0  0  0  0  0  0  0  0
   32.3461   23.7387   -0.1034 C   0  0  0  0  0  0  0  0  0  0  0  0
   33.4683   22.7374    0.2494 C   0  0  0  0  0  0  0  0  0  0  0  0
   30.9433   30.6362   -7.5504 C   0  0  0  0  0  0  0  0  0  0  0  0
   33.1281   21.5884    0.9330 C   0  0  0  0  0  0  0  0  0  0  0  0
   32.9219   29.5931   -7.4333 C   0  0  0  0  0  0  0  0  0  0  0  0
   31.1938   30.5120   -8.9501 C   0  0  0  0  0  0  0  0  0  0  0  0
   32.7075   30.1637   -8.8518 C   0  0  0  0  0  0  0  0  0  0  0  0
   30.8060   32.5714   -1.4950 C   0  0  0  0  0  0  0  0  0  0  0  0
  1  2  2  0
  2  3  1  0
  2  4  1  0
  1  5  1  0
  4  6  1  0
  6  7  2  0
  7  8  1  0
  7  9  1  0
  9 10  1  0
  8 11  1  0
 10 12  1  0
  6 13  1  0
 12 14  2  0
  5 15  1  0
  8 16  1  0
 12 16  1  0
 16 17  1  0
  3 18  1  0
 15 19  2  0
 10 20  2  0
 14 21  1  0
 14 22  1  0
 20 23  1  0
 22 23  2  0
 23 24  1  0
 19 25  1  0
 11 26  1  0
 13 26  2  0
  3 27  2  0
  5 28  2  0
 27 28  1  0
 24 29  1  0
 25 30  2  0
 28 30  1  0
 24 31  1  0
 29 32  1  0
 31 33  1  0
 32 33  1  0
 17 34  1  0
 21 34  1  0
M  END
>  <ID>  (1) 
conformer_0

$$$$
