
     RDKit          3D

  5  4  0  0  0  0  0  0  0  0999 V2000
   34.0387   21.3606    0.8062 C   0  0  0  0  0  0  0  0  0  0  0  0
   34.8742   21.0847    1.7202 C   0  0  0  0  0  0  0  0  0  0  0  0
   35.1568   19.8796    2.1166 O   0  0  0  0  0  0  0  0  0  0  0  0
   34.0852   22.6573    0.0639 C   0  0  0  0  0  0  0  0  0  0  0  0
   35.3244   23.1212   -0.3048 C   0  0  0  0  0  0  0  0  0  0  0  0
  1  2  1  0
  2  3  1  0
  1  4  1  0
  4  5  1  0
M  END
>  <ID>  (1) 
conformer_0

$$$$
