
     RDKit          3D

  5  4  0  0  0  0  0  0  0  0999 V2000
   35.5123   22.0330    1.1099 O   0  0  0  0  0  0  0  0  0  0  0  0
   34.2722   21.9534    1.1749 C   0  0  0  0  0  0  0  0  0  0  0  0
   33.5487   22.5791    0.2058 O   0  0  0  0  0  0  0  0  0  0  0  0
   33.8055   21.4484    2.3731 C   0  0  0  0  0  0  0  0  0  0  0  0
   34.1766   20.1756    2.8007 C   0  0  0  0  0  0  0  0  0  0  0  0
  1  2  2  0
  2  3  1  0
  2  4  1  0
  4  5  1  0
M  END
>  <ID>  (1) 
conformer_0

$$$$
