
     RDKit          3D

 23 25  0  0  0  0  0  0  0  0999 V2000
   31.5236   32.2100   -2.9873 C   0  0  0  0  0  0  0  0  0  0  0  0
   31.7635   31.3406   -3.8910 C   0  0  0  0  0  0  0  0  0  0  0  0
   31.8125   31.9819   -1.6316 C   0  0  0  0  0  0  0  0  0  0  0  0
   32.2356   30.0424   -3.5928 C   0  0  0  0  0  0  0  0  0  0  0  0
   31.7126   32.9336   -0.7011 F   0  0  0  0  0  0  0  0  0  0  0  0
   32.5056   29.1042   -4.6670 C   0  0  0  0  0  0  0  0  0  0  0  0
   31.5042   31.6162   -5.3485 C   0  0  0  0  0  0  0  0  0  0  0  0
   32.5299   29.7579   -2.2580 C   0  0  0  0  0  0  0  0  0  0  0  0
   31.8218   30.6064   -6.3127 C   0  0  0  0  0  0  0  0  0  0  0  0
   31.0789   32.8598   -5.8219 C   0  0  0  0  0  0  0  0  0  0  0  0
   32.3410   29.3636   -5.9180 C   0  0  0  0  0  0  0  0  0  0  0  0
   32.3108   30.7302   -1.3386 C   0  0  0  0  0  0  0  0  0  0  0  0
   30.8845   33.0616   -7.1531 C   0  0  0  0  0  0  0  0  0  0  0  0
   31.7043   30.6966   -7.5786 C   0  0  0  0  0  0  0  0  0  0  0  0
   33.0029   28.5149   -1.8646 C   0  0  0  0  0  0  0  0  0  0  0  0
   31.2415   32.0193   -8.0697 C   0  0  0  0  0  0  0  0  0  0  0  0
   32.3225   27.4238   -2.0251 C   0  0  0  0  0  0  0  0  0  0  0  0
   32.7948   26.0720   -1.5912 C   0  0  0  0  0  0  0  0  0  0  0  0
   32.1980   25.4180   -0.6202 C   0  0  0  0  0  0  0  0  0  0  0  0
   32.1447   29.8462   -8.7107 C   0  0  0  0  0  0  0  0  0  0  0  0
   32.6203   30.5265    0.0191 C   0  0  0  0  0  0  0  0  0  0  0  0
   33.1386   24.3635   -0.0416 C   0  0  0  0  0  0  0  0  0  0  0  0
   34.5090   24.6270   -0.1930 C   0  0  0  0  0  0  0  0  0  0  0  0
  1  2  1  0
  1  3  2  0
  2  4  2  0
  3  5  1  0
  4  6  1  0
  2  7  1  0
  4  8  1  0
  7  9  2  0
  7 10  1  0
  6 11  2  0
  9 11  1  0
  3 12  1  0
  8 12  2  0
 10 13  2  0
  9 14  1  0
  8 15  1  0
 13 16  1  0
 14 16  2  0
 15 17  1  0
 17 18  1  0
 18 19  1  0
 14 20  1  0
 12 21  1  0
 19 22  1  0
 22 23  1  0
M  END
>  <ID>  (1) 
conformer_0

$$$$
