
     RDKit          3D

 21 23  0  0  0  0  0  0  0  0999 V2000
   31.6173   32.0010   -1.7156 C   0  0  0  0  0  0  0  0  0  0  0  0
   32.2779   30.9973   -1.0845 C   0  0  0  0  0  0  0  0  0  0  0  0
   31.6443   32.0162   -3.1573 C   0  0  0  0  0  0  0  0  0  0  0  0
   32.4256   31.1081   -3.8924 C   0  0  0  0  0  0  0  0  0  0  0  0
   32.4969   31.1826   -5.3330 C   0  0  0  0  0  0  0  0  0  0  0  0
   32.5319   29.9615   -5.9930 C   0  0  0  0  0  0  0  0  0  0  0  0
   32.9961   30.1403   -3.0115 C   0  0  0  0  0  0  0  0  0  0  0  0
   33.7096   29.0237   -3.7695 O   0  0  0  0  0  0  0  0  0  0  0  0
   32.2584   30.9485    0.3606 N   0  0  0  0  0  0  0  0  0  0  0  0
   31.9954   29.9562   -7.2421 C   0  0  0  0  0  0  0  0  0  0  0  0
   32.9490   30.1002    0.9600 C   0  0  0  0  0  0  0  0  0  0  0  0
   31.4149   31.9398   -5.8176 O   0  0  0  0  0  0  0  0  0  0  0  0
   30.5139   31.2481   -6.4944 C   0  0  0  0  0  0  0  0  0  0  0  0
   33.5788   29.0319    0.1880 C   0  0  0  0  0  0  0  0  0  0  0  0
   32.7908   29.6929   -8.2649 O   0  0  0  0  0  0  0  0  0  0  0  0
   34.1954   27.9766    1.0047 C   0  0  0  0  0  0  0  0  0  0  0  0
   32.9730   30.0681   -1.7649 C   0  0  0  0  0  0  0  0  0  0  0  0
   30.8161   30.4520   -7.4713 C   0  0  0  0  0  0  0  0  0  0  0  0
   29.7939   29.5374   -7.6789 O   0  0  0  0  0  0  0  0  0  0  0  0
   33.5766   28.9725   -1.0511 C   0  0  0  0  0  0  0  0  0  0  0  0
   29.1704   31.7081   -6.2237 C   0  0  0  0  0  0  0  0  0  0  0  0
  1  2  1  0
  1  3  2  0
  3  4  1  0
  4  5  1  0
  5  6  1  0
  4  7  2  0
  7  8  1  0
  2  9  1  0
  6 10  1  0
  9 11  2  0
  5 12  1  0
 12 13  1  0
 11 14  1  0
 10 15  2  0
 14 16  1  0
  2 17  2  0
  7 17  1  0
 10 18  1  0
 13 18  1  0
 18 19  1  0
 14 20  2  0
 17 20  1  0
 13 21  2  0
M  END
>  <ID>  (1) 
conformer_0

$$$$
