
     RDKit          3D

 34 37  0  0  0  0  0  0  0  0999 V2000
   34.9864   24.3542   -0.4391 C   0  0  0  0  0  0  0  0  0  0  0  0
   34.0787   25.2897   -0.7166 C   0  0  0  0  0  0  0  0  0  0  0  0
   32.6980   24.8911   -0.6459 C   0  0  0  0  0  0  0  0  0  0  0  0
   34.3948   26.6219   -1.1076 O   0  0  0  0  0  0  0  0  0  0  0  0
   34.7349   23.0995   -0.1287 C   0  0  0  0  0  0  0  0  0  0  0  0
   33.7256   27.6293   -0.4104 C   0  0  0  0  0  0  0  0  0  0  0  0
   32.8950   28.3736   -1.0052 C   0  0  0  0  0  0  0  0  0  0  0  0
   32.3134   29.5239   -0.4691 C   0  0  0  0  0  0  0  0  0  0  0  0
   32.9212   28.3095   -2.5595 C   0  0  0  0  0  0  0  0  0  0  0  0
   32.5708   29.4263   -3.3026 C   0  0  0  0  0  0  0  0  0  0  0  0
   32.9854   29.9866    0.7107 C   0  0  0  0  0  0  0  0  0  0  0  0
   31.6459   25.7954   -0.9643 F   0  0  0  0  0  0  0  0  0  0  0  0
   32.9047   27.1927   -3.0572 O   0  0  0  0  0  0  0  0  0  0  0  0
   33.6776   29.0107    1.5045 C   0  0  0  0  0  0  0  0  0  0  0  0
   32.2453   29.3246   -4.6332 C   0  0  0  0  0  0  0  0  0  0  0  0
   35.7898   22.1026    0.1292 C   0  0  0  0  0  0  0  0  0  0  0  0
   33.4355   22.7374    0.0515 C   0  0  0  0  0  0  0  0  0  0  0  0
   31.5416   30.3091   -5.2946 C   0  0  0  0  0  0  0  0  0  0  0  0
   35.5629   21.1829    1.1343 C   0  0  0  0  0  0  0  0  0  0  0  0
   31.2726   31.4568   -4.5142 C   0  0  0  0  0  0  0  0  0  0  0  0
   30.5638   32.5268   -5.3361 O   0  0  0  0  0  0  0  0  0  0  0  0
   35.0531   20.6755    1.9922 C   0  0  0  0  0  0  0  0  0  0  0  0
   31.0338   30.1461   -6.7244 C   0  0  0  0  0  0  0  0  0  0  0  0
   32.1849   30.6024   -2.6282 C   0  0  0  0  0  0  0  0  0  0  0  0
   31.4059   31.1720   -7.5464 N   0  0  0  0  0  0  0  0  0  0  0  0
   32.7120   31.2474   -7.8624 C   0  0  0  0  0  0  0  0  0  0  0  0
   32.2894   30.8039    1.5437 O   0  0  0  0  0  0  0  0  0  0  0  0
   34.6368   19.9241    3.1516 C   0  0  0  0  0  0  0  0  0  0  0  0
   32.3720   23.6983   -0.1786 C   0  0  0  0  0  0  0  0  0  0  0  0
   33.2604   29.9698   -8.5400 C   0  0  0  0  0  0  0  0  0  0  0  0
   34.0255   27.8619    1.0170 C   0  0  0  0  0  0  0  0  0  0  0  0
   31.6429   31.6543   -3.3529 C   0  0  0  0  0  0  0  0  0  0  0  0
   30.5954   31.0817   -8.7871 C   0  0  0  0  0  0  0  0  0  0  0  0
   32.3136   30.8175   -1.2980 O   0  0  0  0  0  0  0  0  0  0  0  0
  1  2  2  0
  2  3  1  0
  2  4  1  0
  1  5  1  0
  4  6  1  0
  6  7  2  0
  7  8  1  0
  7  9  1  0
  9 10  1  0
  8 11  1  0
  3 12  1  0
  9 13  2  0
 11 14  1  0
 10 15  1  0
  5 16  1  0
  5 17  2  0
 15 18  2  0
 16 19  1  0
 18 20  1  0
 20 21  1  0
 19 22  3  0
 18 23  1  0
 10 24  2  0
 23 25  1  0
 25 26  1  0
 11 27  1  0
 22 28  1  0
  3 29  2  0
 17 29  1  0
 26 30  1  0
  6 31  1  0
 14 31  2  0
 20 32  2  0
 24 32  1  0
 25 33  1  0
  8 34  1  0
 24 34  1  0
M  END
>  <ID>  (1) 
conformer_0

$$$$
