
     RDKit          3D

 35 41  0  0  0  0  0  0  0  0999 V2000
   34.9864   24.3542   -0.4391 C   0  0  0  0  0  0  0  0  0  0  0  0
   34.0787   25.2897   -0.7166 C   0  0  0  0  0  0  0  0  0  0  0  0
   32.6980   24.8911   -0.6459 C   0  0  0  0  0  0  0  0  0  0  0  0
   34.3948   26.6219   -1.1076 O   0  0  0  0  0  0  0  0  0  0  0  0
   34.7349   23.0995   -0.1287 C   0  0  0  0  0  0  0  0  0  0  0  0
   33.7256   27.6293   -0.4104 C   0  0  0  0  0  0  0  0  0  0  0  0
   32.8950   28.3736   -1.0052 C   0  0  0  0  0  0  0  0  0  0  0  0
   32.3134   29.5239   -0.4691 C   0  0  0  0  0  0  0  0  0  0  0  0
   32.9212   28.3095   -2.5595 C   0  0  0  0  0  0  0  0  0  0  0  0
   32.5708   29.4263   -3.3026 C   0  0  0  0  0  0  0  0  0  0  0  0
   32.9854   29.9866    0.7107 C   0  0  0  0  0  0  0  0  0  0  0  0
   31.9920   30.5602   -2.5642 C   0  0  0  0  0  0  0  0  0  0  0  0
   33.7891   27.8919    1.0129 C   0  0  0  0  0  0  0  0  0  0  0  0
   31.6410   31.7086   -3.3368 C   0  0  0  0  0  0  0  0  0  0  0  0
   35.8188   22.1544    0.2033 C   0  0  0  0  0  0  0  0  0  0  0  0
   32.2019   30.7981   -1.2732 C   0  0  0  0  0  0  0  0  0  0  0  0
   31.2681   31.7121   -0.6904 C   0  0  0  0  0  0  0  0  0  0  0  0
   31.6421   25.8493   -0.8803 F   0  0  0  0  0  0  0  0  0  0  0  0
   32.4397   29.4615   -4.6588 C   0  0  0  0  0  0  0  0  0  0  0  0
   32.3394   30.9936    1.4265 C   0  0  0  0  0  0  0  0  0  0  0  0
   32.0577   30.5128   -5.4252 C   0  0  0  0  0  0  0  0  0  0  0  0
   33.4587   22.7469    0.0968 C   0  0  0  0  0  0  0  0  0  0  0  0
   33.5249   28.9629    1.5921 C   0  0  0  0  0  0  0  0  0  0  0  0
   35.3106   21.0605    0.9890 C   0  0  0  0  0  0  0  0  0  0  0  0
   31.6192   31.6856   -4.7099 C   0  0  0  0  0  0  0  0  0  0  0  0
   33.1286   21.4375    0.6245 O   0  0  0  0  0  0  0  0  0  0  0  0
   34.2785   20.7737    1.4413 C   0  0  0  0  0  0  0  0  0  0  0  0
   31.1765   32.7852   -5.4898 C   0  0  0  0  0  0  0  0  0  0  0  0
   32.0656   30.3751   -6.7969 C   0  0  0  0  0  0  0  0  0  0  0  0
   31.8481   31.9786    0.6711 C   0  0  0  0  0  0  0  0  0  0  0  0
   32.3043   23.7262   -0.1495 C   0  0  0  0  0  0  0  0  0  0  0  0
   31.1135   32.6731   -6.8857 C   0  0  0  0  0  0  0  0  0  0  0  0
   31.6528   31.5450   -7.5085 C   0  0  0  0  0  0  0  0  0  0  0  0
   33.8199   19.6948    2.2527 C   0  0  0  0  0  0  0  0  0  0  0  0
   31.7375   31.4838   -9.3094 Cl  0  0  0  0  0  0  0  0  0  0  0  0
  1  2  2  0
  2  3  1  0
  2  4  1  0
  1  5  1  0
  4  6  1  0
  6  7  2  0
  7  8  1  0
  7  9  1  0
  9 10  1  0
  8 11  1  0
 10 12  1  0
  6 13  1  0
 12 14  2  0
  5 15  1  0
  8 16  1  0
 12 16  1  0
 16 17  1  0
  3 18  1  0
 10 19  2  0
 11 20  1  0
 19 21  1  0
  5 22  2  0
 11 23  1  0
 13 23  2  0
 15 24  1  0
 14 25  1  0
 21 25  2  0
 22 26  1  0
 24 27  2  0
 26 27  1  0
 25 28  1  0
 21 29  1  0
 17 30  1  0
 20 30  1  0
  3 31  2  0
 22 31  1  0
 28 32  2  0
 29 33  2  0
 32 33  1  0
 27 34  1  0
 33 35  1  0
M  END
>  <ID>  (1) 
conformer_0

$$$$
