
     RDKit          3D

 26 28  0  0  0  0  0  0  0  0999 V2000
   32.2434   31.5183    0.1438 O   0  0  0  0  0  0  0  0  0  0  0  0
   32.6837   30.4853   -0.4733 C   0  0  0  0  0  0  0  0  0  0  0  0
   32.3818   30.2924   -1.8511 C   0  0  0  0  0  0  0  0  0  0  0  0
   33.3054   29.4699    0.2522 C   0  0  0  0  0  0  0  0  0  0  0  0
   33.5444   29.5959    1.6302 C   0  0  0  0  0  0  0  0  0  0  0  0
   31.6426   31.4162   -2.5990 C   0  0  0  0  0  0  0  0  0  0  0  0
   32.3149   32.2499   -3.3440 C   0  0  0  0  0  0  0  0  0  0  0  0
   33.5365   28.2054   -0.4159 C   0  0  0  0  0  0  0  0  0  0  0  0
   34.0961   27.1146    0.2924 O   0  0  0  0  0  0  0  0  0  0  0  0
   31.8349   32.7201   -4.6446 C   0  0  0  0  0  0  0  0  0  0  0  0
   31.3273   31.6935   -5.4679 C   0  0  0  0  0  0  0  0  0  0  0  0
   33.2627   28.0529   -1.7976 C   0  0  0  0  0  0  0  0  0  0  0  0
   33.9732   25.8273   -0.1255 C   0  0  0  0  0  0  0  0  0  0  0  0
   31.6729   31.6611   -6.8227 C   0  0  0  0  0  0  0  0  0  0  0  0
   35.0397   25.0667   -0.0633 C   0  0  0  0  0  0  0  0  0  0  0  0
   32.7968   25.3346   -0.6099 C   0  0  0  0  0  0  0  0  0  0  0  0
   30.7032   30.4841   -5.0314 C   0  0  0  0  0  0  0  0  0  0  0  0
   32.7333   29.0948   -2.4820 C   0  0  0  0  0  0  0  0  0  0  0  0
   32.5514   32.6570   -7.4107 O   0  0  0  0  0  0  0  0  0  0  0  0
   32.8123   23.9360   -0.9143 C   0  0  0  0  0  0  0  0  0  0  0  0
   31.4453   30.7623   -7.5628 C   0  0  0  0  0  0  0  0  0  0  0  0
   35.1050   23.7320   -0.3574 C   0  0  0  0  0  0  0  0  0  0  0  0
   30.7010   29.6351   -7.1287 C   0  0  0  0  0  0  0  0  0  0  0  0
   33.9119   23.1698   -0.7591 C   0  0  0  0  0  0  0  0  0  0  0  0
   30.3745   29.5596   -6.0530 C   0  0  0  0  0  0  0  0  0  0  0  0
   31.8900   30.8178   -9.0418 C   0  0  0  0  0  0  0  0  0  0  0  0
  1  2  1  0
  2  3  2  0
  2  4  1  0
  4  5  1  0
  3  6  1  0
  6  7  1  0
  4  8  2  0
  8  9  1  0
  7 10  1  0
 10 11  1  0
  8 12  1  0
  9 13  1  0
 11 14  1  0
 13 15  1  0
 13 16  2  0
 11 17  2  0
  3 18  1  0
 12 18  2  0
 14 19  1  0
 16 20  1  0
 14 21  2  0
 15 22  2  0
 21 23  1  0
 20 24  2  0
 22 24  1  0
 17 25  1  0
 23 25  2  0
 21 26  1  0
M  END
>  <ID>  (1) 
conformer_0

$$$$
