
     RDKit          3D

 35 40  0  0  0  0  0  0  0  0999 V2000
   34.9864   24.3542   -0.4391 C   0  0  0  0  0  0  0  0  0  0  0  0
   34.0787   25.2897   -0.7166 C   0  0  0  0  0  0  0  0  0  0  0  0
   32.6980   24.8911   -0.6459 C   0  0  0  0  0  0  0  0  0  0  0  0
   34.3948   26.6219   -1.1076 O   0  0  0  0  0  0  0  0  0  0  0  0
   34.7349   23.0995   -0.1287 C   0  0  0  0  0  0  0  0  0  0  0  0
   33.7256   27.6293   -0.4104 C   0  0  0  0  0  0  0  0  0  0  0  0
   32.8950   28.3736   -1.0052 C   0  0  0  0  0  0  0  0  0  0  0  0
   32.3134   29.5239   -0.4691 C   0  0  0  0  0  0  0  0  0  0  0  0
   32.9212   28.3095   -2.5595 C   0  0  0  0  0  0  0  0  0  0  0  0
   32.5708   29.4263   -3.3026 C   0  0  0  0  0  0  0  0  0  0  0  0
   32.9854   29.9866    0.7107 C   0  0  0  0  0  0  0  0  0  0  0  0
   31.6459   25.7954   -0.9643 F   0  0  0  0  0  0  0  0  0  0  0  0
   32.9047   27.1927   -3.0572 O   0  0  0  0  0  0  0  0  0  0  0  0
   33.6776   29.0107    1.5045 C   0  0  0  0  0  0  0  0  0  0  0  0
   32.2453   29.3246   -4.6332 C   0  0  0  0  0  0  0  0  0  0  0  0
   35.7898   22.1026    0.1292 C   0  0  0  0  0  0  0  0  0  0  0  0
   33.4355   22.7374    0.0515 C   0  0  0  0  0  0  0  0  0  0  0  0
   31.5416   30.3091   -5.2946 C   0  0  0  0  0  0  0  0  0  0  0  0
   35.5629   21.1829    1.1343 C   0  0  0  0  0  0  0  0  0  0  0  0
   31.2726   31.4568   -4.5142 C   0  0  0  0  0  0  0  0  0  0  0  0
   31.1727   30.1694   -6.7601 C   0  0  0  0  0  0  0  0  0  0  0  0
   33.1404   21.3842    0.5975 C   0  0  0  0  0  0  0  0  0  0  0  0
   34.2444   20.7183    1.2821 C   0  0  0  0  0  0  0  0  0  0  0  0
   32.5985   23.6208   -0.1547 C   0  0  0  0  0  0  0  0  0  0  0  0
   32.0240   29.6826   -7.6483 O   0  0  0  0  0  0  0  0  0  0  0  0
   30.9150   31.5916   -7.5428 C   0  0  0  0  0  0  0  0  0  0  0  0
   32.2955   30.3708   -8.8071 C   0  0  0  0  0  0  0  0  0  0  0  0
   32.1746   30.6610   -2.7236 C   0  0  0  0  0  0  0  0  0  0  0  0
   29.8732   29.5361   -6.8258 O   0  0  0  0  0  0  0  0  0  0  0  0
   34.0817   20.9920    2.7442 C   0  0  0  0  0  0  0  0  0  0  0  0
   31.7129   31.6389   -8.6301 C   0  0  0  0  0  0  0  0  0  0  0  0
   32.5449   30.7407   -1.2241 O   0  0  0  0  0  0  0  0  0  0  0  0
   34.1482   27.8300    0.8926 C   0  0  0  0  0  0  0  0  0  0  0  0
   31.6051   31.6964   -3.2376 C   0  0  0  0  0  0  0  0  0  0  0  0
   33.8756   30.2378   -8.7474 C   0  0  0  0  0  0  0  0  0  0  0  0
  1  2  2  0
  2  3  1  0
  2  4  1  0
  1  5  1  0
  4  6  1  0
  6  7  2  0
  7  8  1  0
  7  9  1  0
  9 10  1  0
  8 11  1  0
  3 12  1  0
  9 13  2  0
 11 14  1  0
 10 15  1  0
  5 16  1  0
  5 17  2  0
 15 18  2  0
 16 19  1  0
 18 20  1  0
 18 21  1  0
 17 22  1  0
 19 23  1  0
 22 23  1  0
  3 24  2  0
 17 24  1  0
 21 25  1  0
 21 26  1  0
 25 27  1  0
 10 28  2  0
 21 29  1  0
 23 30  1  0
 26 31  1  0
 27 31  1  0
  8 32  1  0
 28 32  1  0
  6 33  1  0
 14 33  2  0
 20 34  2  0
 28 34  1  0
 27 35  1  0
M  END
>  <ID>  (1) 
conformer_0

$$$$
