
     RDKit          3D

 35 40  0  0  0  0  0  0  0  0999 V2000
   34.9864   24.3542   -0.4391 C   0  0  0  0  0  0  0  0  0  0  0  0
   34.0787   25.2897   -0.7166 C   0  0  0  0  0  0  0  0  0  0  0  0
   32.6980   24.8911   -0.6459 C   0  0  0  0  0  0  0  0  0  0  0  0
   34.3948   26.6219   -1.1076 O   0  0  0  0  0  0  0  0  0  0  0  0
   34.7349   23.0995   -0.1287 C   0  0  0  0  0  0  0  0  0  0  0  0
   33.7256   27.6293   -0.4104 C   0  0  0  0  0  0  0  0  0  0  0  0
   32.8950   28.3736   -1.0052 C   0  0  0  0  0  0  0  0  0  0  0  0
   32.3134   29.5239   -0.4691 C   0  0  0  0  0  0  0  0  0  0  0  0
   32.9212   28.3095   -2.5595 C   0  0  0  0  0  0  0  0  0  0  0  0
   32.5708   29.4263   -3.3026 C   0  0  0  0  0  0  0  0  0  0  0  0
   32.9854   29.9866    0.7107 C   0  0  0  0  0  0  0  0  0  0  0  0
   31.6459   25.7954   -0.9643 F   0  0  0  0  0  0  0  0  0  0  0  0
   32.9047   27.1927   -3.0572 O   0  0  0  0  0  0  0  0  0  0  0  0
   33.6776   29.0107    1.5045 C   0  0  0  0  0  0  0  0  0  0  0  0
   32.2453   29.3246   -4.6332 C   0  0  0  0  0  0  0  0  0  0  0  0
   35.7898   22.1026    0.1292 C   0  0  0  0  0  0  0  0  0  0  0  0
   33.4355   22.7374    0.0515 C   0  0  0  0  0  0  0  0  0  0  0  0
   31.5416   30.3091   -5.2946 C   0  0  0  0  0  0  0  0  0  0  0  0
   35.5629   21.1829    1.1343 C   0  0  0  0  0  0  0  0  0  0  0  0
   31.2726   31.4568   -4.5142 C   0  0  0  0  0  0  0  0  0  0  0  0
   31.1727   30.1694   -6.7601 C   0  0  0  0  0  0  0  0  0  0  0  0
   33.1404   21.3842    0.5975 C   0  0  0  0  0  0  0  0  0  0  0  0
   34.2444   20.7183    1.2821 C   0  0  0  0  0  0  0  0  0  0  0  0
   32.5985   23.6208   -0.1547 C   0  0  0  0  0  0  0  0  0  0  0  0
   32.0240   29.6826   -7.6483 O   0  0  0  0  0  0  0  0  0  0  0  0
   30.5098   32.5477   -5.2456 C   0  0  0  0  0  0  0  0  0  0  0  0
   30.8086   31.5555   -7.4298 C   0  0  0  0  0  0  0  0  0  0  0  0
   32.1208   30.5631   -2.6405 C   0  0  0  0  0  0  0  0  0  0  0  0
   30.6211   31.3621   -8.7193 O   0  0  0  0  0  0  0  0  0  0  0  0
   31.6689   31.6161   -3.2568 C   0  0  0  0  0  0  0  0  0  0  0  0
   32.6380   31.0592    1.4185 C   0  0  0  0  0  0  0  0  0  0  0  0
   32.5220   30.6812   -1.2423 O   0  0  0  0  0  0  0  0  0  0  0  0
   30.2281   32.5918   -6.6674 C   0  0  0  0  0  0  0  0  0  0  0  0
   34.1291   27.8540    0.8909 C   0  0  0  0  0  0  0  0  0  0  0  0
   34.0427   20.1315    2.5048 O   0  0  0  0  0  0  0  0  0  0  0  0
  1  2  2  0
  2  3  1  0
  2  4  1  0
  1  5  1  0
  4  6  1  0
  6  7  2  0
  7  8  1  0
  7  9  1  0
  9 10  1  0
  8 11  1  0
  3 12  1  0
  9 13  2  0
 11 14  1  0
 10 15  1  0
  5 16  1  0
  5 17  2  0
 15 18  2  0
 16 19  1  0
 18 20  1  0
 18 21  1  0
 17 22  1  0
 19 23  1  0
 22 23  1  0
  3 24  2  0
 17 24  1  0
 21 25  1  0
 20 26  1  0
 21 27  1  0
 10 28  2  0
 27 29  1  0
 20 30  2  0
 28 30  1  0
 11 31  2  0
  8 32  1  0
 28 32  1  0
 26 33  1  0
 27 33  1  0
  6 34  1  0
 14 34  2  0
 23 35  2  0
M  END
>  <ID>  (1) 
conformer_0

$$$$
