
     RDKit          3D

  8  8  0  0  0  0  0  0  0  0999 V2000
   33.9686   21.0809    1.8928 C   0  0  0  0  0  0  0  0  0  0  0  0
   34.1239   21.7464    0.7933 C   0  0  0  0  0  0  0  0  0  0  0  0
   35.3439   22.3302    0.4795 C   0  0  0  0  0  0  0  0  0  0  0  0
   36.4183   21.7924    1.2742 C   0  0  0  0  0  0  0  0  0  0  0  0
   35.5179   23.3843   -0.4997 C   0  0  0  0  0  0  0  0  0  0  0  0
   34.8998   20.5784    2.6314 C   0  0  0  0  0  0  0  0  0  0  0  0
   36.1977   20.9121    2.2924 C   0  0  0  0  0  0  0  0  0  0  0  0
   34.5684   23.9590   -0.9304 O   0  0  0  0  0  0  0  0  0  0  0  0
  1  2  1  0
  2  3  2  0
  3  4  1  0
  3  5  1  0
  1  6  2  0
  4  7  2  0
  6  7  1  0
  5  8  2  0
M  END
>  <ID>  (1) 
conformer_0

$$$$
