
     RDKit          3D

 29 34  0  0  0  0  0  0  0  0999 V2000
   31.8116   31.9379   -0.6402 C   0  0  0  0  0  0  0  0  0  0  0  0
   32.2105   31.0712   -1.5501 C   0  0  0  0  0  0  0  0  0  0  0  0
   31.7244   31.2119   -2.9004 C   0  0  0  0  0  0  0  0  0  0  0  0
   32.0729   29.6322   -1.1836 C   0  0  0  0  0  0  0  0  0  0  0  0
   32.0680   30.2020   -3.9344 C   0  0  0  0  0  0  0  0  0  0  0  0
   33.6977   31.1917   -1.4542 C   0  0  0  0  0  0  0  0  0  0  0  0
   32.4930   28.6212   -2.1718 C   0  0  0  0  0  0  0  0  0  0  0  0
   31.8249   30.5250   -5.3490 C   0  0  0  0  0  0  0  0  0  0  0  0
   32.6125   29.3179    0.1851 C   0  0  0  0  0  0  0  0  0  0  0  0
   32.0912   29.7286   -6.2643 C   0  0  0  0  0  0  0  0  0  0  0  0
   31.5482   31.9332   -5.5238 C   0  0  0  0  0  0  0  0  0  0  0  0
   32.9964   29.9558   -7.2471 C   0  0  0  0  0  0  0  0  0  0  0  0
   31.6155   32.9563   -4.7006 C   0  0  0  0  0  0  0  0  0  0  0  0
   30.2951   31.8745   -6.4428 C   0  0  0  0  0  0  0  0  0  0  0  0
   32.4057   27.2570   -1.7286 C   0  0  0  0  0  0  0  0  0  0  0  0
   32.6909   30.3714    1.0675 C   0  0  0  0  0  0  0  0  0  0  0  0
   33.1749   28.1504    0.5179 C   0  0  0  0  0  0  0  0  0  0  0  0
   32.3547   31.6928    0.8220 C   0  0  0  0  0  0  0  0  0  0  0  0
   32.0657   32.6140   -3.3719 C   0  0  0  0  0  0  0  0  0  0  0  0
   32.5807   26.2476   -2.6771 C   0  0  0  0  0  0  0  0  0  0  0  0
   32.6403   30.1751   -8.5667 C   0  0  0  0  0  0  0  0  0  0  0  0
   31.8517   28.7943   -3.5106 C   0  0  0  0  0  0  0  0  0  0  0  0
   29.1661   31.5056   -6.0273 O   0  0  0  0  0  0  0  0  0  0  0  0
   33.3621   26.9248   -0.6255 C   0  0  0  0  0  0  0  0  0  0  0  0
   31.5965   31.1092   -8.8177 C   0  0  0  0  0  0  0  0  0  0  0  0
   33.1479   25.6351   -0.1069 C   0  0  0  0  0  0  0  0  0  0  0  0
   33.4883   24.7959   -1.1899 C   0  0  0  0  0  0  0  0  0  0  0  0
   32.4542   24.9645   -2.2099 C   0  0  0  0  0  0  0  0  0  0  0  0
   30.3423   31.6657   -7.8071 C   0  0  0  0  0  0  0  0  0  0  0  0
  1  2  1  0
  2  3  1  0
  2  4  1  0
  3  5  1  0
  2  6  1  0
  4  7  1  0
  5  8  2  0
  4  9  1  0
  8 10  1  0
  8 11  1  0
 10 12  1  0
 11 13  1  0
 11 14  1  0
  7 15  1  0
  9 16  1  0
  9 17  2  0
  1 18  1  0
 16 18  1  0
  3 19  1  0
 13 19  1  0
 15 20  1  0
 12 21  1  0
  5 22  1  0
  7 22  1  0
 14 23  1  0
 15 24  1  0
 17 24  1  0
 21 25  1  0
 24 26  1  0
 26 27  1  0
 20 28  1  0
 27 28  1  0
 14 29  2  0
 25 29  1  0
M  END
>  <ID>  (1) 
conformer_0

$$$$
