
     RDKit          3D

 35 40  0  0  0  0  0  0  0  0999 V2000
   34.9864   24.3542   -0.4391 C   0  0  0  0  0  0  0  0  0  0  0  0
   34.0787   25.2897   -0.7166 C   0  0  0  0  0  0  0  0  0  0  0  0
   32.6980   24.8911   -0.6459 C   0  0  0  0  0  0  0  0  0  0  0  0
   34.3948   26.6219   -1.1076 O   0  0  0  0  0  0  0  0  0  0  0  0
   34.7349   23.0995   -0.1287 C   0  0  0  0  0  0  0  0  0  0  0  0
   33.7256   27.6293   -0.4104 C   0  0  0  0  0  0  0  0  0  0  0  0
   32.8950   28.3736   -1.0052 C   0  0  0  0  0  0  0  0  0  0  0  0
   32.3134   29.5239   -0.4691 C   0  0  0  0  0  0  0  0  0  0  0  0
   32.9212   28.3095   -2.5595 C   0  0  0  0  0  0  0  0  0  0  0  0
   32.5708   29.4263   -3.3026 C   0  0  0  0  0  0  0  0  0  0  0  0
   32.9854   29.9866    0.7107 C   0  0  0  0  0  0  0  0  0  0  0  0
   31.6459   25.7954   -0.9643 F   0  0  0  0  0  0  0  0  0  0  0  0
   32.9047   27.1927   -3.0572 O   0  0  0  0  0  0  0  0  0  0  0  0
   33.6776   29.0107    1.5045 C   0  0  0  0  0  0  0  0  0  0  0  0
   32.2453   29.3246   -4.6332 C   0  0  0  0  0  0  0  0  0  0  0  0
   35.7898   22.1026    0.1292 C   0  0  0  0  0  0  0  0  0  0  0  0
   32.3460   23.6958   -0.2754 C   0  0  0  0  0  0  0  0  0  0  0  0
   34.1143   27.8147    0.8939 C   0  0  0  0  0  0  0  0  0  0  0  0
   32.1164   30.4196   -5.4827 C   0  0  0  0  0  0  0  0  0  0  0  0
   31.8269   30.4007   -6.8520 C   0  0  0  0  0  0  0  0  0  0  0  0
   31.0036   31.2101   -7.4410 C   0  0  0  0  0  0  0  0  0  0  0  0
   31.6399   30.5002   -1.1474 C   0  0  0  0  0  0  0  0  0  0  0  0
   35.4801   21.0395    0.9451 C   0  0  0  0  0  0  0  0  0  0  0  0
   33.3699   22.7719    0.0252 C   0  0  0  0  0  0  0  0  0  0  0  0
   30.3109   32.1331   -6.6661 C   0  0  0  0  0  0  0  0  0  0  0  0
   29.4026   32.9114   -7.3977 O   0  0  0  0  0  0  0  0  0  0  0  0
   31.8335   31.6848   -4.8032 C   0  0  0  0  0  0  0  0  0  0  0  0
   30.8576   32.7835   -5.5374 C   0  0  0  0  0  0  0  0  0  0  0  0
   31.6298   30.4529   -2.6212 C   0  0  0  0  0  0  0  0  0  0  0  0
   32.5032   30.9501    1.4727 O   0  0  0  0  0  0  0  0  0  0  0  0
   33.1437   21.3776    0.7098 C   0  0  0  0  0  0  0  0  0  0  0  0
   34.1908   20.6555    1.0939 C   0  0  0  0  0  0  0  0  0  0  0  0
   32.6204   29.4775   -7.5938 O   0  0  0  0  0  0  0  0  0  0  0  0
   30.8843   31.1689   -8.8752 C   0  0  0  0  0  0  0  0  0  0  0  0
   31.5237   31.6858   -3.3513 C   0  0  0  0  0  0  0  0  0  0  0  0
  1  2  2  0
  2  3  1  0
  2  4  1  0
  1  5  1  0
  4  6  1  0
  6  7  2  0
  7  8  1  0
  7  9  1  0
  9 10  1  0
  8 11  1  0
  3 12  1  0
  9 13  2  0
 11 14  1  0
 10 15  1  0
  5 16  1  0
  3 17  2  0
  6 18  1  0
 14 18  2  0
 15 19  2  0
 19 20  1  0
 20 21  2  0
  8 22  2  0
 16 23  2  0
  5 24  2  0
 17 24  1  0
 21 25  1  0
 25 26  1  0
 19 27  1  0
 25 28  1  0
 27 28  1  0
 10 29  2  0
 22 29  1  0
 11 30  2  0
 24 31  1  0
 23 32  1  0
 31 32  2  0
 20 33  1  0
 21 34  1  0
 27 35  2  0
 29 35  1  0
M  END
>  <ID>  (1) 
conformer_0

$$$$
