
     RDKit          3D

 36 41  0  0  0  0  0  0  0  0999 V2000
   34.9864   24.3542   -0.4391 C   0  0  0  0  0  0  0  0  0  0  0  0
   34.0787   25.2897   -0.7166 C   0  0  0  0  0  0  0  0  0  0  0  0
   32.6980   24.8911   -0.6459 C   0  0  0  0  0  0  0  0  0  0  0  0
   34.3948   26.6219   -1.1076 O   0  0  0  0  0  0  0  0  0  0  0  0
   34.7349   23.0995   -0.1287 C   0  0  0  0  0  0  0  0  0  0  0  0
   33.7256   27.6293   -0.4104 C   0  0  0  0  0  0  0  0  0  0  0  0
   32.8950   28.3736   -1.0052 C   0  0  0  0  0  0  0  0  0  0  0  0
   32.3134   29.5239   -0.4691 C   0  0  0  0  0  0  0  0  0  0  0  0
   32.9212   28.3095   -2.5595 C   0  0  0  0  0  0  0  0  0  0  0  0
   32.5708   29.4263   -3.3026 C   0  0  0  0  0  0  0  0  0  0  0  0
   32.9854   29.9866    0.7107 C   0  0  0  0  0  0  0  0  0  0  0  0
   31.6459   25.7954   -0.9643 F   0  0  0  0  0  0  0  0  0  0  0  0
   32.9047   27.1927   -3.0572 O   0  0  0  0  0  0  0  0  0  0  0  0
   33.6776   29.0107    1.5045 C   0  0  0  0  0  0  0  0  0  0  0  0
   32.2453   29.3246   -4.6332 C   0  0  0  0  0  0  0  0  0  0  0  0
   35.7898   22.1026    0.1292 C   0  0  0  0  0  0  0  0  0  0  0  0
   32.3460   23.6958   -0.2754 C   0  0  0  0  0  0  0  0  0  0  0  0
   34.1143   27.8147    0.8939 C   0  0  0  0  0  0  0  0  0  0  0  0
   32.1164   30.4196   -5.4827 C   0  0  0  0  0  0  0  0  0  0  0  0
   35.4053   21.2362    1.2058 C   0  0  0  0  0  0  0  0  0  0  0  0
   33.4200   22.7130    0.0899 C   0  0  0  0  0  0  0  0  0  0  0  0
   32.3068   31.6770   -4.6589 C   0  0  0  0  0  0  0  0  0  0  0  0
   32.7508   30.6254   -2.6643 C   0  0  0  0  0  0  0  0  0  0  0  0
   32.1330   32.9138   -5.5152 O   0  0  0  0  0  0  0  0  0  0  0  0
   33.0739   21.5296    0.7152 C   0  0  0  0  0  0  0  0  0  0  0  0
   31.7379   30.4221   -6.8311 C   0  0  0  0  0  0  0  0  0  0  0  0
   31.0683   33.7238   -5.1250 C   0  0  0  0  0  0  0  0  0  0  0  0
   32.3995   30.8031   -1.2970 C   0  0  0  0  0  0  0  0  0  0  0  0
   32.4641   31.7880   -3.3430 C   0  0  0  0  0  0  0  0  0  0  0  0
   32.7171   30.2034   -7.7380 C   0  0  0  0  0  0  0  0  0  0  0  0
   34.1441   20.7527    1.2338 C   0  0  0  0  0  0  0  0  0  0  0  0
   32.4300   30.3235   -9.1382 C   0  0  0  0  0  0  0  0  0  0  0  0
   30.4867   30.8508   -7.1864 C   0  0  0  0  0  0  0  0  0  0  0  0
   30.1939   30.8732   -8.5429 C   0  0  0  0  0  0  0  0  0  0  0  0
   31.1722   30.6251   -9.4482 C   0  0  0  0  0  0  0  0  0  0  0  0
   32.6403   31.0144    1.3025 O   0  0  0  0  0  0  0  0  0  0  0  0
  1  2  2  0
  2  3  1  0
  2  4  1  0
  1  5  1  0
  4  6  1  0
  6  7  2  0
  7  8  1  0
  7  9  1  0
  9 10  1  0
  8 11  1  0
  3 12  1  0
  9 13  2  0
 11 14  1  0
 10 15  1  0
  5 16  1  0
  3 17  2  0
  6 18  1  0
 14 18  2  0
 15 19  2  0
 16 20  2  0
  5 21  2  0
 17 21  1  0
 19 22  1  0
 10 23  2  0
 22 24  1  0
 21 25  1  0
 19 26  1  0
 24 27  1  0
  8 28  1  0
 23 28  1  0
 22 29  2  0
 23 29  1  0
 26 30  1  0
 20 31  1  0
 25 31  2  0
 30 32  2  0
 26 33  2  0
 33 34  1  0
 32 35  1  0
 34 35  2  0
 11 36  2  0
M  END
>  <ID>  (1) 
conformer_0

$$$$
