
     RDKit          3D

 21 24  0  0  0  0  0  0  0  0999 V2000
   31.8116   31.9379   -0.6402 C   0  0  0  0  0  0  0  0  0  0  0  0
   32.2105   31.0712   -1.5501 C   0  0  0  0  0  0  0  0  0  0  0  0
   31.7244   31.2119   -2.9004 C   0  0  0  0  0  0  0  0  0  0  0  0
   32.0591   30.2026   -3.9153 C   0  0  0  0  0  0  0  0  0  0  0  0
   32.4616   28.9636   -3.4680 C   0  0  0  0  0  0  0  0  0  0  0  0
   31.1479   32.3805   -3.3030 C   0  0  0  0  0  0  0  0  0  0  0  0
   32.4530   31.6637    0.6604 C   0  0  0  0  0  0  0  0  0  0  0  0
   32.9457   29.8751   -1.2963 C   0  0  0  0  0  0  0  0  0  0  0  0
   33.0781   28.8645   -2.2796 C   0  0  0  0  0  0  0  0  0  0  0  0
   31.7238   30.4012   -5.2564 C   0  0  0  0  0  0  0  0  0  0  0  0
   31.2262   31.6536   -5.6979 C   0  0  0  0  0  0  0  0  0  0  0  0
   32.0244   29.4434   -6.2132 C   0  0  0  0  0  0  0  0  0  0  0  0
   33.3966   29.7294    0.0959 C   0  0  0  0  0  0  0  0  0  0  0  0
   34.1067   28.5053    0.4349 C   0  0  0  0  0  0  0  0  0  0  0  0
   32.0356   29.9147   -7.5855 C   0  0  0  0  0  0  0  0  0  0  0  0
   30.8516   32.6173   -4.6886 C   0  0  0  0  0  0  0  0  0  0  0  0
   33.6456   27.6513   -1.8675 O   0  0  0  0  0  0  0  0  0  0  0  0
   33.0532   30.5980    1.0625 C   0  0  0  0  0  0  0  0  0  0  0  0
   31.0904   31.9230   -7.0575 C   0  0  0  0  0  0  0  0  0  0  0  0
   31.5885   31.1101   -7.9929 C   0  0  0  0  0  0  0  0  0  0  0  0
   31.4980   31.4198   -9.5799 Cl  0  0  0  0  0  0  0  0  0  0  0  0
  1  2  1  0
  2  3  1  0
  3  4  1  0
  4  5  1  0
  3  6  2  0
  1  7  2  0
  2  8  2  0
  5  9  1  0
  8  9  1  0
  4 10  2  0
 10 11  1  0
 10 12  1  0
  8 13  1  0
 13 14  1  0
 12 15  2  0
  6 16  1  0
 11 16  2  0
  9 17  2  0
  7 18  1  0
 13 18  2  0
 11 19  1  0
 15 20  1  0
 19 20  2  0
 20 21  1  0
M  END
>  <ID>  (1) 
conformer_0

$$$$
