
     RDKit          3D

 36 42  0  0  0  0  0  0  0  0999 V2000
   34.9864   24.3542   -0.4391 C   0  0  0  0  0  0  0  0  0  0  0  0
   34.0787   25.2897   -0.7166 C   0  0  0  0  0  0  0  0  0  0  0  0
   32.6980   24.8911   -0.6459 C   0  0  0  0  0  0  0  0  0  0  0  0
   34.3948   26.6219   -1.1076 O   0  0  0  0  0  0  0  0  0  0  0  0
   34.7349   23.0995   -0.1287 C   0  0  0  0  0  0  0  0  0  0  0  0
   33.7256   27.6293   -0.4104 C   0  0  0  0  0  0  0  0  0  0  0  0
   32.8950   28.3736   -1.0052 C   0  0  0  0  0  0  0  0  0  0  0  0
   32.3134   29.5239   -0.4691 C   0  0  0  0  0  0  0  0  0  0  0  0
   32.9212   28.3095   -2.5595 C   0  0  0  0  0  0  0  0  0  0  0  0
   32.5708   29.4263   -3.3026 C   0  0  0  0  0  0  0  0  0  0  0  0
   32.9854   29.9866    0.7107 C   0  0  0  0  0  0  0  0  0  0  0  0
   31.9920   30.5602   -2.5642 C   0  0  0  0  0  0  0  0  0  0  0  0
   33.7891   27.8919    1.0129 C   0  0  0  0  0  0  0  0  0  0  0  0
   31.6410   31.7086   -3.3368 C   0  0  0  0  0  0  0  0  0  0  0  0
   35.8188   22.1544    0.2033 C   0  0  0  0  0  0  0  0  0  0  0  0
   32.2019   30.7981   -1.2732 C   0  0  0  0  0  0  0  0  0  0  0  0
   33.4731   22.7570    0.1295 C   0  0  0  0  0  0  0  0  0  0  0  0
   32.4307   23.6412   -0.2135 C   0  0  0  0  0  0  0  0  0  0  0  0
   32.5500   29.4139   -4.6587 C   0  0  0  0  0  0  0  0  0  0  0  0
   32.9711   28.3243   -5.3202 F   0  0  0  0  0  0  0  0  0  0  0  0
   32.1855   30.5007   -5.4085 C   0  0  0  0  0  0  0  0  0  0  0  0
   33.7484   28.8623    1.5166 C   0  0  0  0  0  0  0  0  0  0  0  0
   33.4008   21.3677    0.6277 C   0  0  0  0  0  0  0  0  0  0  0  0
   31.6690   31.7062   -4.7261 C   0  0  0  0  0  0  0  0  0  0  0  0
   32.2363   30.5162   -6.7729 C   0  0  0  0  0  0  0  0  0  0  0  0
   31.2221   32.8441   -5.4097 C   0  0  0  0  0  0  0  0  0  0  0  0
   32.6465   29.4899   -7.5478 C   0  0  0  0  0  0  0  0  0  0  0  0
   34.5012   20.8869    1.3377 C   0  0  0  0  0  0  0  0  0  0  0  0
   32.6598   29.5752   -8.7412 C   0  0  0  0  0  0  0  0  0  0  0  0
   33.2193   28.5277   -9.6151 F   0  0  0  0  0  0  0  0  0  0  0  0
   31.3361   32.7486   -6.8204 C   0  0  0  0  0  0  0  0  0  0  0  0
   31.7834   31.6041   -7.4299 C   0  0  0  0  0  0  0  0  0  0  0  0
   35.5221   20.8474    0.3962 C   0  0  0  0  0  0  0  0  0  0  0  0
   34.3757   19.7433    2.1263 O   0  0  0  0  0  0  0  0  0  0  0  0
   32.3723   30.7486   -9.5718 C   0  0  0  0  0  0  0  0  0  0  0  0
   31.9288   31.7367   -8.8279 C   0  0  0  0  0  0  0  0  0  0  0  0
  1  2  2  0
  2  3  1  0
  2  4  1  0
  1  5  1  0
  4  6  1  0
  6  7  2  0
  7  8  1  0
  7  9  1  0
  9 10  1  0
  8 11  1  0
 10 12  1  0
  6 13  1  0
 12 14  2  0
  5 15  1  0
  8 16  1  0
 12 16  1  0
  5 17  2  0
  3 18  2  0
 17 18  1  0
 10 19  2  0
 19 20  1  0
 19 21  1  0
 11 22  1  0
 13 22  2  0
 17 23  1  0
 14 24  1  0
 21 24  2  0
 21 25  1  0
 24 26  1  0
 25 27  1  0
 23 28  1  0
 27 29  2  0
 29 30  1  0
 26 31  2  0
 25 32  2  0
 31 32  1  0
 15 33  1  0
 28 33  1  0
 28 34  1  0
 29 35  1  0
 32 36  1  0
 35 36  2  0
M  END
>  <ID>  (1) 
conformer_0

$$$$
