
     RDKit          3D

  4  3  0  0  0  0  0  0  0  0999 V2000
   33.4290   22.1626    0.5854 C   0  0  0  0  0  0  0  0  0  0  0  0
   34.3520   21.4441    1.2680 C   0  0  0  0  0  0  0  0  0  0  0  0
   34.3639   21.3192    2.6060 C   0  0  0  0  0  0  0  0  0  0  0  0
   35.7265   22.0481    0.9660 C   0  0  0  0  0  0  0  0  0  0  0  0
  1  2  1  0
  2  3  1  0
  2  4  1  0
M  END
>  <ID>  (1) 
conformer_0

$$$$
