
     RDKit          3D

 25 28  0  0  0  0  0  0  0  0999 V2000
   32.7927   30.1677   -6.8530 C   0  0  0  0  0  0  0  0  0  0  0  0
   32.2230   30.7662   -5.9618 C   0  0  0  0  0  0  0  0  0  0  0  0
   32.5716   30.5451   -4.5512 C   0  0  0  0  0  0  0  0  0  0  0  0
   31.2673   31.8653   -6.1406 C   0  0  0  0  0  0  0  0  0  0  0  0
   33.1159   29.4166   -4.1867 C   0  0  0  0  0  0  0  0  0  0  0  0
   31.3692   33.0025   -5.3365 C   0  0  0  0  0  0  0  0  0  0  0  0
   31.3863   32.8246   -3.8941 C   0  0  0  0  0  0  0  0  0  0  0  0
   32.3966   31.6593   -3.5294 C   0  0  0  0  0  0  0  0  0  0  0  0
   33.2948   29.0557   -2.7668 C   0  0  0  0  0  0  0  0  0  0  0  0
   33.7723   27.9076   -2.3473 O   0  0  0  0  0  0  0  0  0  0  0  0
   32.5190   30.4174   -8.2335 C   0  0  0  0  0  0  0  0  0  0  0  0
   33.1534   29.5691   -9.2385 C   0  0  0  0  0  0  0  0  0  0  0  0
   33.3528   27.4811   -1.1163 C   0  0  0  0  0  0  0  0  0  0  0  0
   32.9595   30.0740   -1.8678 C   0  0  0  0  0  0  0  0  0  0  0  0
   34.0754   27.7517   -0.0735 C   0  0  0  0  0  0  0  0  0  0  0  0
   29.9019   31.4132   -6.1927 C   0  0  0  0  0  0  0  0  0  0  0  0
   29.5130   31.0659   -7.5284 O   0  0  0  0  0  0  0  0  0  0  0  0
   31.5320   32.3182   -7.6421 C   0  0  0  0  0  0  0  0  0  0  0  0
   32.5240   26.2693   -1.1685 C   0  0  0  0  0  0  0  0  0  0  0  0
   32.1339   31.5817   -8.3626 C   0  0  0  0  0  0  0  0  0  0  0  0
   31.9210   25.8990   -2.4351 F   0  0  0  0  0  0  0  0  0  0  0  0
   32.4372   31.2801   -2.2209 C   0  0  0  0  0  0  0  0  0  0  0  0
   32.3205   25.4494   -0.1824 C   0  0  0  0  0  0  0  0  0  0  0  0
   32.9924   25.8129    1.0220 C   0  0  0  0  0  0  0  0  0  0  0  0
   33.8755   26.9063    1.0458 C   0  0  0  0  0  0  0  0  0  0  0  0
  1  2  2  0
  2  3  1  0
  2  4  1  0
  3  5  2  0
  4  6  1  0
  6  7  1  0
  3  8  1  0
  7  8  1  0
  5  9  1  0
  9 10  1  0
  1 11  1  0
 11 12  1  0
 10 13  1  0
  9 14  2  0
 13 15  1  0
  4 16  1  0
 16 17  1  0
  4 18  1  0
 13 19  2  0
 11 20  2  0
 18 20  1  0
 19 21  1  0
  8 22  2  0
 14 22  1  0
 19 23  1  0
 23 24  2  0
 15 25  2  0
 24 25  1  0
M  END
>  <ID>  (1) 
conformer_0

$$$$
