
     RDKit          3D

 32 36  0  0  0  0  0  0  0  0999 V2000
   34.9864   24.3542   -0.4391 C   0  0  0  0  0  0  0  0  0  0  0  0
   34.0787   25.2897   -0.7166 C   0  0  0  0  0  0  0  0  0  0  0  0
   32.6980   24.8911   -0.6459 C   0  0  0  0  0  0  0  0  0  0  0  0
   34.3948   26.6219   -1.1076 O   0  0  0  0  0  0  0  0  0  0  0  0
   34.7349   23.0995   -0.1287 C   0  0  0  0  0  0  0  0  0  0  0  0
   33.7256   27.6293   -0.4104 C   0  0  0  0  0  0  0  0  0  0  0  0
   32.8950   28.3736   -1.0052 C   0  0  0  0  0  0  0  0  0  0  0  0
   32.3134   29.5239   -0.4691 C   0  0  0  0  0  0  0  0  0  0  0  0
   32.9212   28.3095   -2.5595 C   0  0  0  0  0  0  0  0  0  0  0  0
   32.5708   29.4263   -3.3026 C   0  0  0  0  0  0  0  0  0  0  0  0
   32.9854   29.9866    0.7107 C   0  0  0  0  0  0  0  0  0  0  0  0
   31.6459   25.7954   -0.9643 F   0  0  0  0  0  0  0  0  0  0  0  0
   32.3631   23.6297   -0.2597 C   0  0  0  0  0  0  0  0  0  0  0  0
   33.4300   22.7178    0.0397 C   0  0  0  0  0  0  0  0  0  0  0  0
   32.1486   30.5318   -2.6089 C   0  0  0  0  0  0  0  0  0  0  0  0
   31.8567   29.2810   -4.6128 C   0  0  0  0  0  0  0  0  0  0  0  0
   31.4390   30.4875   -5.1447 C   0  0  0  0  0  0  0  0  0  0  0  0
   31.7270   31.6252   -3.4339 C   0  0  0  0  0  0  0  0  0  0  0  0
   30.8217   30.3626   -6.5610 C   0  0  0  0  0  0  0  0  0  0  0  0
   31.6292   31.0327   -7.5193 C   0  0  0  0  0  0  0  0  0  0  0  0
   32.3765   30.7471   -1.3325 O   0  0  0  0  0  0  0  0  0  0  0  0
   30.6318   29.0129   -6.8286 O   0  0  0  0  0  0  0  0  0  0  0  0
   33.6624   29.0198    1.5073 C   0  0  0  0  0  0  0  0  0  0  0  0
   29.4476   30.9933   -6.6615 C   0  0  0  0  0  0  0  0  0  0  0  0
   32.0615   30.1227   -8.5843 O   0  0  0  0  0  0  0  0  0  0  0  0
   32.8085   31.6297   -6.9927 C   0  0  0  0  0  0  0  0  0  0  0  0
   34.1374   27.8592    0.8702 C   0  0  0  0  0  0  0  0  0  0  0  0
   33.1731   21.4202    0.3867 F   0  0  0  0  0  0  0  0  0  0  0  0
   31.5519   32.8948   -2.5557 C   0  0  0  0  0  0  0  0  0  0  0  0
   30.8880   31.9818   -8.3495 C   0  0  0  0  0  0  0  0  0  0  0  0
   31.2026   31.5472   -4.6235 C   0  0  0  0  0  0  0  0  0  0  0  0
   29.5427   31.9657   -7.6899 C   0  0  0  0  0  0  0  0  0  0  0  0
  1  2  2  0
  2  3  1  0
  2  4  1  0
  1  5  1  0
  4  6  1  0
  6  7  2  0
  7  8  1  0
  7  9  1  0
  9 10  1  0
  8 11  1  0
  3 12  1  0
  3 13  2  0
  5 14  2  0
 13 14  1  0
 10 15  1  0
 10 16  1  0
 16 17  1  0
 15 18  2  0
 17 19  1  0
 19 20  1  0
  8 21  1  0
 15 21  1  0
 19 22  1  0
 11 23  1  0
 19 24  1  0
 20 25  1  0
 20 26  1  0
  6 27  1  0
 23 27  2  0
 14 28  1  0
 18 29  1  0
 20 30  1  0
 17 31  2  0
 18 31  1  0
 24 32  1  0
 30 32  1  0
M  END
>  <ID>  (1) 
conformer_0

$$$$
