
     RDKit          3D

 35 40  0  0  0  0  0  0  0  0999 V2000
   34.9864   24.3542   -0.4391 C   0  0  0  0  0  0  0  0  0  0  0  0
   34.0787   25.2897   -0.7166 C   0  0  0  0  0  0  0  0  0  0  0  0
   32.6980   24.8911   -0.6459 C   0  0  0  0  0  0  0  0  0  0  0  0
   34.3948   26.6219   -1.1076 O   0  0  0  0  0  0  0  0  0  0  0  0
   34.7349   23.0995   -0.1287 C   0  0  0  0  0  0  0  0  0  0  0  0
   33.7256   27.6293   -0.4104 C   0  0  0  0  0  0  0  0  0  0  0  0
   32.8950   28.3736   -1.0052 C   0  0  0  0  0  0  0  0  0  0  0  0
   32.3134   29.5239   -0.4691 C   0  0  0  0  0  0  0  0  0  0  0  0
   32.9212   28.3095   -2.5595 C   0  0  0  0  0  0  0  0  0  0  0  0
   32.5708   29.4263   -3.3026 C   0  0  0  0  0  0  0  0  0  0  0  0
   32.9854   29.9866    0.7107 C   0  0  0  0  0  0  0  0  0  0  0  0
   31.6459   25.7954   -0.9643 F   0  0  0  0  0  0  0  0  0  0  0  0
   32.9047   27.1927   -3.0572 O   0  0  0  0  0  0  0  0  0  0  0  0
   33.6776   29.0107    1.5045 C   0  0  0  0  0  0  0  0  0  0  0  0
   32.2453   29.3246   -4.6332 C   0  0  0  0  0  0  0  0  0  0  0  0
   35.7898   22.1026    0.1292 C   0  0  0  0  0  0  0  0  0  0  0  0
   33.4355   22.7374    0.0515 C   0  0  0  0  0  0  0  0  0  0  0  0
   31.5416   30.3091   -5.2946 C   0  0  0  0  0  0  0  0  0  0  0  0
   35.5629   21.1829    1.1343 C   0  0  0  0  0  0  0  0  0  0  0  0
   31.2726   31.4568   -4.5142 C   0  0  0  0  0  0  0  0  0  0  0  0
   31.1727   30.1694   -6.7601 C   0  0  0  0  0  0  0  0  0  0  0  0
   32.0525   29.7294   -7.6468 C   0  0  0  0  0  0  0  0  0  0  0  0
   35.0521   20.6762    1.9925 N   0  0  0  0  0  0  0  0  0  0  0  0
   33.1587   30.5289   -8.1306 C   0  0  0  0  0  0  0  0  0  0  0  0
   32.2250   30.5528   -2.5653 C   0  0  0  0  0  0  0  0  0  0  0  0
   30.6457   32.5575   -5.3442 O   0  0  0  0  0  0  0  0  0  0  0  0
   31.7411   31.6555   -3.1523 C   0  0  0  0  0  0  0  0  0  0  0  0
   32.6726   31.1312    1.3344 C   0  0  0  0  0  0  0  0  0  0  0  0
   32.2635   30.7340   -1.2758 O   0  0  0  0  0  0  0  0  0  0  0  0
   34.1007   27.8625    0.8940 C   0  0  0  0  0  0  0  0  0  0  0  0
   32.7306   31.7761   -8.6892 C   0  0  0  0  0  0  0  0  0  0  0  0
   31.2815   32.0820   -8.4460 C   0  0  0  0  0  0  0  0  0  0  0  0
   32.3327   23.7170   -0.2158 C   0  0  0  0  0  0  0  0  0  0  0  0
   30.6418   31.5053   -7.3701 C   0  0  0  0  0  0  0  0  0  0  0  0
   29.7719   32.1992   -6.3986 C   0  0  0  0  0  0  0  0  0  0  0  0
  1  2  2  0
  2  3  1  0
  2  4  1  0
  1  5  1  0
  4  6  1  0
  6  7  2  0
  7  8  1  0
  7  9  1  0
  9 10  1  0
  8 11  1  0
  3 12  1  0
  9 13  2  0
 11 14  1  0
 10 15  1  0
  5 16  1  0
  5 17  2  0
 15 18  2  0
 16 19  1  0
 18 20  1  0
 18 21  1  0
 21 22  1  0
 19 23  3  0
 22 24  1  0
 10 25  2  0
 20 26  1  0
 20 27  2  0
 25 27  1  0
 11 28  2  0
  8 29  1  0
 25 29  1  0
  6 30  1  0
 14 30  2  0
 24 31  1  0
 31 32  1  0
  3 33  2  0
 17 33  1  0
 21 34  1  0
 32 34  2  0
 26 35  1  0
 34 35  1  0
M  END
>  <ID>  (1) 
conformer_0

$$$$
