
     RDKit          3D

  7  7  0  0  0  0  0  0  0  0999 V2000
   34.0387   21.3606    0.8062 C   0  0  0  0  0  0  0  0  0  0  0  0
   34.8742   21.0847    1.7202 C   0  0  0  0  0  0  0  0  0  0  0  0
   34.0565   22.5282    0.0213 C   0  0  0  0  0  0  0  0  0  0  0  0
   35.2656   23.0339   -0.3054 C   0  0  0  0  0  0  0  0  0  0  0  0
   36.2669   22.4427    0.7615 C   0  0  0  0  0  0  0  0  0  0  0  0
   36.1135   21.5722    1.5464 C   0  0  0  0  0  0  0  0  0  0  0  0
   34.6649   19.9308    2.5408 N   0  0  0  0  0  0  0  0  0  0  0  0
  1  2  1  0
  1  3  1  0
  3  4  2  0
  4  5  1  0
  2  6  1  0
  5  6  2  0
  2  7  1  0
M  END
>  <ID>  (1) 
conformer_0

$$$$
