
     RDKit          3D

 36 42  0  0  0  0  0  0  0  0999 V2000
   34.9864   24.3542   -0.4391 C   0  0  0  0  0  0  0  0  0  0  0  0
   34.0787   25.2897   -0.7166 C   0  0  0  0  0  0  0  0  0  0  0  0
   32.6980   24.8911   -0.6459 C   0  0  0  0  0  0  0  0  0  0  0  0
   34.3948   26.6219   -1.1076 O   0  0  0  0  0  0  0  0  0  0  0  0
   34.7349   23.0995   -0.1287 C   0  0  0  0  0  0  0  0  0  0  0  0
   33.7256   27.6293   -0.4104 C   0  0  0  0  0  0  0  0  0  0  0  0
   32.8950   28.3736   -1.0052 C   0  0  0  0  0  0  0  0  0  0  0  0
   32.3134   29.5239   -0.4691 C   0  0  0  0  0  0  0  0  0  0  0  0
   32.9212   28.3095   -2.5595 C   0  0  0  0  0  0  0  0  0  0  0  0
   32.5708   29.4263   -3.3026 C   0  0  0  0  0  0  0  0  0  0  0  0
   32.9854   29.9866    0.7107 C   0  0  0  0  0  0  0  0  0  0  0  0
   31.9920   30.5602   -2.5642 C   0  0  0  0  0  0  0  0  0  0  0  0
   33.7891   27.8919    1.0129 C   0  0  0  0  0  0  0  0  0  0  0  0
   31.6410   31.7086   -3.3368 C   0  0  0  0  0  0  0  0  0  0  0  0
   35.8188   22.1544    0.2033 C   0  0  0  0  0  0  0  0  0  0  0  0
   32.2019   30.7981   -1.2732 C   0  0  0  0  0  0  0  0  0  0  0  0
   31.2681   31.7121   -0.6904 C   0  0  0  0  0  0  0  0  0  0  0  0
   31.6421   25.8493   -0.8803 F   0  0  0  0  0  0  0  0  0  0  0  0
   35.4040   21.0110    0.9629 C   0  0  0  0  0  0  0  0  0  0  0  0
   32.4375   29.4649   -4.6557 C   0  0  0  0  0  0  0  0  0  0  0  0
   31.1479   32.8910   -2.6452 O   0  0  0  0  0  0  0  0  0  0  0  0
   31.5573   31.6890   -4.7195 C   0  0  0  0  0  0  0  0  0  0  0  0
   32.0164   30.5880   -5.3622 C   0  0  0  0  0  0  0  0  0  0  0  0
   31.9614   30.5854   -6.8624 C   0  0  0  0  0  0  0  0  0  0  0  0
   34.1423   20.8500    1.3929 C   0  0  0  0  0  0  0  0  0  0  0  0
   33.3649   28.9493    1.6788 C   0  0  0  0  0  0  0  0  0  0  0  0
   32.3477   23.7359   -0.1053 C   0  0  0  0  0  0  0  0  0  0  0  0
   32.4939   31.5762   -7.5286 C   0  0  0  0  0  0  0  0  0  0  0  0
   33.4136   22.8158    0.1729 C   0  0  0  0  0  0  0  0  0  0  0  0
   33.8443   19.6441    2.1097 O   0  0  0  0  0  0  0  0  0  0  0  0
   31.5259   29.4772   -7.5399 C   0  0  0  0  0  0  0  0  0  0  0  0
   31.7310   29.5903   -8.7783 C   0  0  0  0  0  0  0  0  0  0  0  0
   32.1960   30.5894   -9.5440 C   0  0  0  0  0  0  0  0  0  0  0  0
   32.6314   31.6641   -8.8253 C   0  0  0  0  0  0  0  0  0  0  0  0
   30.7790   32.5734   -1.5244 C   0  0  0  0  0  0  0  0  0  0  0  0
   33.1066   21.6077    0.8650 C   0  0  0  0  0  0  0  0  0  0  0  0
  1  2  2  0
  2  3  1  0
  2  4  1  0
  1  5  1  0
  4  6  1  0
  6  7  2  0
  7  8  1  0
  7  9  1  0
  9 10  1  0
  8 11  1  0
 10 12  1  0
  6 13  1  0
 12 14  2  0
  5 15  1  0
  8 16  1  0
 12 16  1  0
 16 17  1  0
  3 18  1  0
 15 19  2  0
 10 20  2  0
 14 21  1  0
 14 22  1  0
 20 23  1  0
 22 23  2  0
 23 24  1  0
 19 25  1  0
 11 26  1  0
 13 26  2  0
  3 27  2  0
 24 28  2  0
  5 29  2  0
 27 29  1  0
 25 30  1  0
 24 31  1  0
 31 32  2  0
 32 33  1  0
 28 34  1  0
 33 34  2  0
 17 35  1  0
 21 35  1  0
 25 36  2  0
 29 36  1  0
M  END
>  <ID>  (1) 
conformer_0

$$$$
