
     RDKit          3D

 32 36  0  0  0  0  0  0  0  0999 V2000
   31.5236   32.2100   -2.9873 C   0  0  0  0  0  0  0  0  0  0  0  0
   31.9603   31.2296   -2.2971 C   0  0  0  0  0  0  0  0  0  0  0  0
   31.4650   32.1885   -4.4047 C   0  0  0  0  0  0  0  0  0  0  0  0
   32.0645   29.9448   -2.9821 C   0  0  0  0  0  0  0  0  0  0  0  0
   32.4070   28.7657   -2.1837 C   0  0  0  0  0  0  0  0  0  0  0  0
   31.9952   29.9213   -4.2470 C   0  0  0  0  0  0  0  0  0  0  0  0
   31.2256   33.4358   -5.1282 C   0  0  0  0  0  0  0  0  0  0  0  0
   32.2289   27.4916   -2.7358 C   0  0  0  0  0  0  0  0  0  0  0  0
   32.7447   26.4047   -2.1649 C   0  0  0  0  0  0  0  0  0  0  0  0
   33.5177   26.4405   -1.0997 C   0  0  0  0  0  0  0  0  0  0  0  0
   31.6942   30.9993   -5.0448 C   0  0  0  0  0  0  0  0  0  0  0  0
   31.6046   30.8557   -6.4518 C   0  0  0  0  0  0  0  0  0  0  0  0
   32.0632   31.1752   -0.7786 C   0  0  0  0  0  0  0  0  0  0  0  0
   34.0722   25.2080   -0.4983 C   0  0  0  0  0  0  0  0  0  0  0  0
   30.2838   30.8534   -7.0727 C   0  0  0  0  0  0  0  0  0  0  0  0
   33.6665   27.8184   -0.4385 C   0  0  0  0  0  0  0  0  0  0  0  0
   35.2996   24.9673   -0.4667 C   0  0  0  0  0  0  0  0  0  0  0  0
   35.4800   23.5436   -0.0628 C   0  0  0  0  0  0  0  0  0  0  0  0
   32.6927   30.7321   -7.3101 C   0  0  0  0  0  0  0  0  0  0  0  0
   32.9728   30.1907   -0.2543 C   0  0  0  0  0  0  0  0  0  0  0  0
   33.0438   24.2413    0.0249 C   0  0  0  0  0  0  0  0  0  0  0  0
   34.3274   22.9063    0.2659 C   0  0  0  0  0  0  0  0  0  0  0  0
   33.0997   28.8644   -0.8526 C   0  0  0  0  0  0  0  0  0  0  0  0
   34.7485   21.3880    0.8116 C   0  0  0  0  0  0  0  0  0  0  0  0
   33.4168   30.2496    0.9784 O   0  0  0  0  0  0  0  0  0  0  0  0
   33.2047   23.1719    0.3447 N   0  0  0  0  0  0  0  0  0  0  0  0
   35.9697   21.0012    0.6972 C   0  0  0  0  0  0  0  0  0  0  0  0
   30.2470   30.6728   -8.4457 C   0  0  0  0  0  0  0  0  0  0  0  0
   34.2384   21.2637    2.2262 C   0  0  0  0  0  0  0  0  0  0  0  0
   34.6458   20.0850    2.8812 C   0  0  0  0  0  0  0  0  0  0  0  0
   31.2827   30.7603   -9.1857 C   0  0  0  0  0  0  0  0  0  0  0  0
   32.6272   30.7029   -8.6329 C   0  0  0  0  0  0  0  0  0  0  0  0
  1  2  2  0
  1  3  1  0
  2  4  1  0
  4  5  1  0
  4  6  2  0
  3  7  1  0
  5  8  2  0
  8  9  1  0
  9 10  2  0
  3 11  2  0
  6 11  1  0
 11 12  1  0
  2 13  1  0
 10 14  1  0
 12 15  2  0
 10 16  1  0
 14 17  2  0
 17 18  1  0
 12 19  1  0
 13 20  1  0
 14 21  1  0
 18 22  2  0
  5 23  1  0
 16 23  2  0
 20 23  1  0
 22 24  1  0
 20 25  2  0
 21 26  2  0
 22 26  1  0
 24 27  1  0
 15 28  1  0
 24 29  1  0
 29 30  1  0
 28 31  2  0
 19 32  2  0
 31 32  1  0
M  END
>  <ID>  (1) 
conformer_0

$$$$
