
     RDKit          3D

 36 42  0  0  0  0  0  0  0  0999 V2000
   34.9864   24.3542   -0.4391 C   0  0  0  0  0  0  0  0  0  0  0  0
   34.0787   25.2897   -0.7166 C   0  0  0  0  0  0  0  0  0  0  0  0
   32.6980   24.8911   -0.6459 C   0  0  0  0  0  0  0  0  0  0  0  0
   34.3948   26.6219   -1.1076 O   0  0  0  0  0  0  0  0  0  0  0  0
   34.7349   23.0995   -0.1287 C   0  0  0  0  0  0  0  0  0  0  0  0
   33.7256   27.6293   -0.4104 C   0  0  0  0  0  0  0  0  0  0  0  0
   32.8950   28.3736   -1.0052 C   0  0  0  0  0  0  0  0  0  0  0  0
   32.3134   29.5239   -0.4691 C   0  0  0  0  0  0  0  0  0  0  0  0
   32.9212   28.3095   -2.5595 C   0  0  0  0  0  0  0  0  0  0  0  0
   32.5708   29.4263   -3.3026 C   0  0  0  0  0  0  0  0  0  0  0  0
   32.9854   29.9866    0.7107 C   0  0  0  0  0  0  0  0  0  0  0  0
   31.9920   30.5602   -2.5642 C   0  0  0  0  0  0  0  0  0  0  0  0
   33.7891   27.8919    1.0129 C   0  0  0  0  0  0  0  0  0  0  0  0
   31.6410   31.7086   -3.3368 C   0  0  0  0  0  0  0  0  0  0  0  0
   35.8188   22.1544    0.2033 C   0  0  0  0  0  0  0  0  0  0  0  0
   32.2019   30.7981   -1.2732 C   0  0  0  0  0  0  0  0  0  0  0  0
   31.2681   31.7121   -0.6904 C   0  0  0  0  0  0  0  0  0  0  0  0
   31.6421   25.8493   -0.8803 F   0  0  0  0  0  0  0  0  0  0  0  0
   32.4397   29.4615   -4.6588 C   0  0  0  0  0  0  0  0  0  0  0  0
   32.3394   30.9936    1.4265 C   0  0  0  0  0  0  0  0  0  0  0  0
   32.0577   30.5128   -5.4252 C   0  0  0  0  0  0  0  0  0  0  0  0
   33.4587   22.7469    0.0968 C   0  0  0  0  0  0  0  0  0  0  0  0
   31.2058   32.9077   -2.6113 C   0  0  0  0  0  0  0  0  0  0  0  0
   32.0473   30.4880   -6.8311 C   0  0  0  0  0  0  0  0  0  0  0  0
   32.3558   23.7250   -0.1545 C   0  0  0  0  0  0  0  0  0  0  0  0
   35.3161   21.0729    1.0921 C   0  0  0  0  0  0  0  0  0  0  0  0
   31.2523   31.1320   -7.5829 C   0  0  0  0  0  0  0  0  0  0  0  0
   33.5399   28.9994    1.6046 C   0  0  0  0  0  0  0  0  0  0  0  0
   31.0734   32.7814   -1.1891 C   0  0  0  0  0  0  0  0  0  0  0  0
   30.4240   32.1601   -7.0158 C   0  0  0  0  0  0  0  0  0  0  0  0
   31.4638   31.6208   -4.7634 C   0  0  0  0  0  0  0  0  0  0  0  0
   31.2922   30.8567   -9.3048 Cl  0  0  0  0  0  0  0  0  0  0  0  0
   31.6571   31.8559    0.7752 C   0  0  0  0  0  0  0  0  0  0  0  0
   35.1388   21.3176    2.3920 C   0  0  0  0  0  0  0  0  0  0  0  0
   30.5880   32.5257   -5.5475 C   0  0  0  0  0  0  0  0  0  0  0  0
   34.6460   20.3063    3.1877 C   0  0  0  0  0  0  0  0  0  0  0  0
  1  2  2  0
  2  3  1  0
  2  4  1  0
  1  5  1  0
  4  6  1  0
  6  7  2  0
  7  8  1  0
  7  9  1  0
  9 10  1  0
  8 11  1  0
 10 12  1  0
  6 13  1  0
 12 14  2  0
  5 15  1  0
  8 16  1  0
 12 16  1  0
 16 17  1  0
  3 18  1  0
 10 19  2  0
 11 20  1  0
 19 21  1  0
  5 22  2  0
 14 23  1  0
 21 24  1  0
  3 25  2  0
 22 25  1  0
 15 26  1  0
 24 27  2  0
 11 28  1  0
 13 28  2  0
 17 29  1  0
 23 29  2  0
 27 30  1  0
 14 31  1  0
 21 31  2  0
 27 32  1  0
 17 33  1  0
 20 33  1  0
 26 34  1  0
 30 35  2  0
 31 35  1  0
 34 36  1  0
M  END
>  <ID>  (1) 
conformer_0

$$$$
