
     RDKit          3D

 21 23  0  0  0  0  0  0  0  0999 V2000
   -3.0750   19.6927   22.6860 C   0  0  0  0  0  0  0  0  0  0  0  0
   -6.8456   20.0683   23.6993 C   0  0  0  0  0  0  0  0  0  0  0  0
   -4.9775   20.3034   21.4302 C   0  0  0  0  0  0  0  0  0  0  0  0
   -3.2367   18.9557   23.9212 C   0  0  0  0  0  0  0  0  0  0  0  0
   -5.3610   19.1055   23.5137 C   0  0  1  0  0  0  0  0  0  0  0  0
   -9.0941   16.6436   24.8953 C   0  0  0  0  0  0  0  0  0  0  0  0
   -6.5847   19.2666   25.0415 C   0  0  2  0  0  0  0  0  0  0  0  0
   -4.6379   18.6284   25.0537 C   0  0  1  0  0  0  0  0  0  0  0  0
   -7.0977   17.6819   24.3797 C   0  0  2  0  0  0  0  0  0  0  0  0
   -2.9624   21.2010   21.0564 C   0  0  0  0  0  0  0  0  0  0  0  0
   -3.0027   21.4830   20.0277 O   0  0  0  0  0  0  0  0  0  0  0  0
   -9.0457   15.5461   26.9743 O   0  0  0  0  0  0  0  0  0  0  0  0
   -8.6034   16.2001   26.0396 C   0  0  1  0  0  0  0  0  0  0  0  0
   -4.7685   17.2973   25.2198 C   0  0  0  0  0  0  0  0  0  0  0  0
   -8.5221   18.1002   25.0120 C   0  0  0  0  0  0  0  0  0  0  0  0
   -6.1296   17.3418   26.1056 C   0  0  0  0  0  0  0  0  0  0  0  0
   -7.0066   16.3655   25.7910 C   0  0  2  0  0  0  0  0  0  0  0  0
   -5.6384   21.2955   22.1798 C   0  0  0  0  0  0  0  0  0  0  0  0
   -4.8300   20.8014   23.4845 C   0  0  0  0  0  0  0  0  0  0  0  0
   -1.7281   20.0980   22.0819 C   0  0  0  0  0  0  0  0  0  0  0  0
   -2.8964   21.7366   22.4670 C   0  0  0  0  0  0  0  0  0  0  0  0
  4  1  2  3
  5  2  1  0
  7  2  1  6
  7  5  1  0
  8  4  1  0
  8  5  1  0
  9  7  1  0
 11 10  2  0
 13  6  1  0
 13 12  1  6
  8 14  1  6
 15  6  1  0
  9 15  1  1
 16 14  1  0
 17  9  1  0
 17 13  1  0
 17 16  1  1
 18  3  1  0
  5 19  1  6
 19 18  1  0
 20  1  1  0
 20 10  1  0
 21 10  1  0
M  END
>  <ID>  (1) 
conformer_0

$$$$
