
     RDKit          3D

 23 31  0  0  0  0  0  0  0  0999 V2000
   -6.6822   19.9038   23.5052 C   0  0  0  0  0  0  0  0  0  0  0  0
   -8.9204   17.1868   24.3687 C   0  0  0  0  0  0  0  0  0  0  0  0
   -5.2600   21.3826   23.3176 C   0  0  0  0  0  0  0  0  0  0  0  0
   -5.2701   19.2799   23.4365 C   0  0  0  0  0  0  0  0  0  0  0  0
   -5.7196   20.4379   21.4743 C   0  0  0  0  0  0  0  0  0  0  0  0
   -7.5119   18.1513   23.7381 C   0  0  0  0  0  0  0  0  0  0  0  0
   -7.0232   16.4443   26.2208 C   0  0  0  0  0  0  0  0  0  0  0  0
   -7.9126   18.3453   25.1945 C   0  0  0  0  0  0  0  0  0  0  0  0
   -6.4551   19.6667   25.2634 C   0  0  0  0  0  0  0  0  0  0  0  0
   -5.2009   16.6007   25.2567 C   0  0  0  0  0  0  0  0  0  0  0  0
   -6.3003   17.5840   25.5069 C   0  0  0  0  0  0  0  0  0  0  0  0
   -8.2450   16.4053   25.7184 C   0  0  0  0  0  0  0  0  0  0  0  0
   -8.8764   15.3200   26.1589 O   0  0  0  0  0  0  0  0  0  0  0  0
   -2.8140   21.2185   20.0773 O   0  0  0  0  0  0  0  0  0  0  0  0
   -2.8800   21.1164   21.0659 C   0  0  0  0  0  0  0  0  0  0  0  0
   -3.6484   22.1711   22.9280 C   0  0  0  0  0  0  0  0  0  0  0  0
   -4.9592   18.4596   24.8868 C   0  0  0  0  0  0  0  0  0  0  0  0
   -3.7568   20.2260   23.4549 C   0  0  0  0  0  0  0  0  0  0  0  0
   -3.7196   17.8680   24.3761 C   0  0  0  0  0  0  0  0  0  0  0  0
   -2.7869   19.0955   23.2333 C   0  0  0  0  0  0  0  0  0  0  0  0
   -4.3009   20.6438   21.6331 C   0  0  0  0  0  0  0  0  0  0  0  0
   -2.2200   22.0976   22.4795 C   0  0  0  0  0  0  0  0  0  0  0  0
   -1.9762   20.2224   22.0375 C   0  0  0  0  0  0  0  0  0  0  0  0
  4  1  1  0
  6  1  1  0
  6  2  1  0
  8  2  1  0
  8  6  1  0
  9  1  1  0
  9  8  1  0
 11  7  1  0
 11  8  1  0
 11 10  1  0
 12  2  1  0
 12  7  1  0
 13 12  1  0
 15 14  1  0
 16  3  1  0
 17  4  1  0
 17 10  1  0
 17 11  1  0
 18  3  1  0
 18  4  1  0
 19 17  1  0
 20 18  1  0
 20 19  1  0
 21  5  1  0
 21 15  1  0
 21 18  1  0
 22 15  1  0
 22 16  1  0
 23 15  1  0
 23 20  1  0
 23 22  1  0
M  END
>  <ID>  (1) 
conformer_0

$$$$
