
     RDKit          3D

 21 27  0  0  0  0  0  0  0  0999 V2000
   -2.0342   20.4910   21.8860 C   0  0  0  0  0  0  0  0  0  0  0  0
   -2.7780   19.3978   22.9915 C   0  0  0  0  0  0  0  0  0  0  0  0
   -3.3852   21.8814   22.8622 C   0  0  0  0  0  0  0  0  0  0  0  0
   -4.0248   19.8328   21.8604 C   0  0  0  0  0  0  0  0  0  0  0  0
   -3.9510   18.6012   24.0544 C   0  0  0  0  0  0  0  0  0  0  0  0
   -4.9354   21.6386   23.1540 C   0  0  0  0  0  0  0  0  0  0  0  0
   -6.8317   16.3292   26.5880 C   0  0  0  0  0  0  0  0  0  0  0  0
   -4.6052   17.7768   25.1522 C   0  0  0  0  0  0  0  0  0  0  0  0
   -4.8971   19.9013   23.7680 C   0  0  0  0  0  0  0  0  0  0  0  0
   -5.6114   17.1889   25.8781 C   0  0  0  0  0  0  0  0  0  0  0  0
   -8.3196   16.0129   26.1165 C   0  0  0  0  0  0  0  0  0  0  0  0
   -3.1632   22.2627   20.3546 O   0  0  0  0  0  0  0  0  0  0  0  0
   -3.0412   21.6475   21.2642 C   0  0  0  0  0  0  0  0  0  0  0  0
   -8.9214   15.3058   26.4106 O   0  0  0  0  0  0  0  0  0  0  0  0
   -7.1083   17.4479   25.4463 C   0  0  0  0  0  0  0  0  0  0  0  0
   -6.2438   19.1042   25.2140 C   0  0  0  0  0  0  0  0  0  0  0  0
   -5.2348   20.5986   21.5507 C   0  0  0  0  0  0  0  0  0  0  0  0
   -6.3666   19.7939   22.9168 C   0  0  0  0  0  0  0  0  0  0  0  0
   -6.6609   18.5616   23.6420 C   0  0  0  0  0  0  0  0  0  0  0  0
   -8.1437   18.1218   23.8873 C   0  0  0  0  0  0  0  0  0  0  0  0
   -8.8716   17.2826   24.9138 C   0  0  0  0  0  0  0  0  0  0  0  0
  2  1  1  0
  4  2  1  0
  5  2  1  0
  6  3  1  0
  8  5  2  0
  9  5  1  0
  9  6  1  0
 10  7  1  0
 10  8  2  0
 11  7  1  0
 13  1  1  0
 13  3  1  0
 13 12  2  0
 14 11  1  0
 15  7  1  0
 15 10  1  0
 16 15  1  0
 17  4  1  0
 17  6  1  0
 18  9  1  0
 18 17  1  0
 19 16  1  0
 19 18  1  0
 20 19  1  0
 21 11  1  0
 21 15  1  0
 21 20  1  0
M  END
>  <ID>  (1) 
conformer_0

$$$$
