
     RDKit          3D

 23 29  0  0  0  0  0  0  0  0999 V2000
   -6.4414   19.8795   23.1772 C   0  0  0  0  0  0  0  0  0  0  0  0
   -6.8760   16.6331   26.1138 C   0  0  0  0  0  0  0  0  0  0  0  0
   -7.4958   18.3863   24.0231 C   0  0  0  0  0  0  0  0  0  0  0  0
   -5.0593   20.4127   21.2530 C   0  0  0  0  0  0  0  0  0  0  0  0
   -6.3256   18.3930   26.1015 C   0  0  0  0  0  0  0  0  0  0  0  0
   -7.1163   19.8053   25.0397 C   0  0  0  0  0  0  0  0  0  0  0  0
   -2.6394   19.3361   23.3233 C   0  0  0  0  0  0  0  0  0  0  0  0
   -8.4973   18.1497   25.3672 C   0  0  0  0  0  0  0  0  0  0  0  0
   -8.8090   16.8124   24.6277 C   0  0  0  0  0  0  0  0  0  0  0  0
   -8.7364   15.5718   26.7495 O   0  0  0  0  0  0  0  0  0  0  0  0
   -3.0864   21.1280   20.7074 C   0  0  0  0  0  0  0  0  0  0  0  0
   -3.0809   21.7578   19.9284 O   0  0  0  0  0  0  0  0  0  0  0  0
   -8.3414   16.3519   26.0850 C   0  0  0  0  0  0  0  0  0  0  0  0
   -5.6883   21.3691   22.7815 C   0  0  0  0  0  0  0  0  0  0  0  0
   -4.8702   17.2370   25.7606 C   0  0  0  0  0  0  0  0  0  0  0  0
   -5.3704   19.1463   23.1243 C   0  0  0  0  0  0  0  0  0  0  0  0
   -3.8522   19.7027   22.6010 C   0  0  0  0  0  0  0  0  0  0  0  0
   -4.9077   19.0437   24.6788 C   0  0  0  0  0  0  0  0  0  0  0  0
   -3.8312   18.0222   24.4166 C   0  0  0  0  0  0  0  0  0  0  0  0
   -2.3620   20.1507   20.9566 C   0  0  0  0  0  0  0  0  0  0  0  0
   -6.2283   17.3468   24.6539 C   0  0  0  0  0  0  0  0  0  0  0  0
   -3.8580   21.5561   22.5290 C   0  0  0  0  0  0  0  0  0  0  0  0
   -1.7637   20.7067   22.1758 C   0  0  0  0  0  0  0  0  0  0  0  0
  5  2  1  0
  6  3  1  0
  6  5  1  0
  8  3  1  0
  9  8  1  0
 12 11  2  0
 13  2  1  0
 13  8  1  0
 13  9  1  0
 13 10  1  0
 14  1  1  0
 14  4  1  0
 15  5  1  0
 16  1  1  0
 17  4  1  0
 17  7  1  0
 17 16  1  0
 18 16  1  0
 19 15  1  0
 19 18  1  0
 20 11  1  0
 21  2  1  0
 21  3  1  0
 21  5  1  0
 21 15  1  0
 22 14  1  0
 22 17  1  0
 23  7  1  0
 23 20  1  0
M  END
>  <ID>  (1) 
conformer_0

$$$$
