
     RDKit          3D

 22 29  0  0  0  0  0  0  0  0999 V2000
   -5.6250   21.7086   23.0773 C   0  0  0  0  0  0  0  0  0  0  0  0
   -6.3401   20.0567   22.5212 C   0  0  0  0  0  0  0  0  0  0  0  0
   -7.9505   18.4877   24.0508 C   0  0  0  0  0  0  0  0  0  0  0  0
   -5.4821   18.4060   25.4765 C   0  0  0  0  0  0  0  0  0  0  0  0
   -4.7951   16.8257   25.0692 C   0  0  0  0  0  0  0  0  0  0  0  0
   -6.8454   20.0232   24.0840 C   0  0  0  0  0  0  0  0  0  0  0  0
   -7.3821   18.6384   25.5985 C   0  0  0  0  0  0  0  0  0  0  0  0
   -6.5309   16.8086   25.0762 C   0  0  0  0  0  0  0  0  0  0  0  0
   -6.6784   16.4783   26.2660 C   0  0  0  0  0  0  0  0  0  0  0  0
   -7.9061   16.0359   25.4856 C   0  0  0  0  0  0  0  0  0  0  0  0
   -3.0570   22.1838   20.7540 O   0  0  0  0  0  0  0  0  0  0  0  0
   -8.6412   15.2133   25.8474 O   0  0  0  0  0  0  0  0  0  0  0  0
   -8.9674   17.5006   24.9518 C   0  0  0  0  0  0  0  0  0  0  0  0
   -3.2597   21.4717   21.4204 C   0  0  0  0  0  0  0  0  0  0  0  0
   -3.9504   21.8002   23.0810 C   0  0  0  0  0  0  0  0  0  0  0  0
   -5.4989   18.8837   23.8323 C   0  0  0  0  0  0  0  0  0  0  0  0
   -3.7692   18.1449   24.3910 C   0  0  0  0  0  0  0  0  0  0  0  0
   -2.7522   18.7952   23.3350 C   0  0  0  0  0  0  0  0  0  0  0  0
   -2.1510   20.1065   22.9368 C   0  0  0  0  0  0  0  0  0  0  0  0
   -4.2248   19.8715   23.5363 C   0  0  0  0  0  0  0  0  0  0  0  0
   -1.9196   20.5066   21.7174 C   0  0  0  0  0  0  0  0  0  0  0  0
   -4.3565   20.2648   21.6653 C   0  0  0  0  0  0  0  0  0  0  0  0
  2  1  1  0
  5  4  1  0
  6  2  1  0
  6  3  1  0
  7  3  1  0
  7  4  1  0
  8  4  1  0
  8  5  1  0
  9  8  1  0
 10  8  1  0
 10  9  1  0
 12 10  1  0
 13  3  1  0
 13 10  1  0
 14 11  1  0
 15  1  1  0
 15 14  1  0
 16  2  1  0
 16  4  1  0
 16  6  1  0
 17  5  1  0
 18 17  1  0
 19 18  1  0
 20 16  1  0
 20 18  1  0
 21 14  1  0
 21 19  1  0
 22 14  1  0
 22 20  1  0
M  END
>  <ID>  (1) 
conformer_0

$$$$
