
     RDKit          3D

 23 29  0  0  0  0  0  0  0  0999 V2000
   -5.3382   19.0291   23.5063 C   0  0  0  0  0  0  0  0  0  0  0  0
   -8.6124   18.0701   25.2103 C   0  0  0  0  0  0  0  0  0  0  0  0
   -4.7795   18.6703   25.1350 C   0  0  0  0  0  0  0  0  0  0  0  0
   -6.9750   16.8878   26.2459 C   0  0  0  0  0  0  0  0  0  0  0  0
   -8.3260   16.8750   24.4367 C   0  0  0  0  0  0  0  0  0  0  0  0
   -6.2139   16.0520   25.2923 C   0  0  0  0  0  0  0  0  0  0  0  0
   -4.8811   16.8850   25.0815 C   0  0  0  0  0  0  0  0  0  0  0  0
   -5.8375   20.0873   21.7696 C   0  0  0  0  0  0  0  0  0  0  0  0
   -3.3972   18.5577   24.0344 C   0  0  0  0  0  0  0  0  0  0  0  0
   -3.6877   20.1166   23.5521 C   0  0  0  0  0  0  0  0  0  0  0  0
   -8.1324   15.9690   25.7231 C   0  0  0  0  0  0  0  0  0  0  0  0
   -2.8735   21.6839   21.1103 C   0  0  0  0  0  0  0  0  0  0  0  0
   -3.0448   22.0769   20.0949 O   0  0  0  0  0  0  0  0  0  0  0  0
   -8.8079   15.1931   26.3882 O   0  0  0  0  0  0  0  0  0  0  0  0
   -2.2415   19.6452   22.8552 C   0  0  0  0  0  0  0  0  0  0  0  0
   -6.3473   20.2369   23.2948 C   0  0  0  0  0  0  0  0  0  0  0  0
   -4.9961   21.9771   22.7785 C   0  0  0  0  0  0  0  0  0  0  0  0
   -4.0641   20.4500   22.0341 C   0  0  0  0  0  0  0  0  0  0  0  0
   -1.8260   20.5625   21.7202 C   0  0  0  0  0  0  0  0  0  0  0  0
   -2.7249   22.2639   22.6154 C   0  0  0  0  0  0  0  0  0  0  0  0
   -6.3321   17.9220   25.0635 C   0  0  0  0  0  0  0  0  0  0  0  0
   -7.2570   19.2896   25.3401 C   0  0  0  0  0  0  0  0  0  0  0  0
   -7.4274   18.7446   23.5698 C   0  0  0  0  0  0  0  0  0  0  0  0
  3  1  1  0
  5  2  1  0
  6  4  1  0
  7  3  1  0
  7  6  1  0
  9  3  1  0
 10  9  1  0
 11  4  1  0
 11  5  1  0
 11  6  1  0
 13 12  1  0
 14 11  1  0
 15 10  1  0
 16  1  1  0
 16  8  1  0
 18  8  1  0
 18 10  1  0
 18 12  1  0
 18 17  1  0
 19 12  1  0
 19 15  1  0
 20 12  1  0
 21  3  1  0
 21  4  1  0
 21  7  1  0
 22  2  1  0
 22 21  1  0
 23 16  1  0
 23 22  1  0
M  END
>  <ID>  (1) 
conformer_0

$$$$
