
     RDKit          3D

 22 25  0  0  0  0  0  0  0  0999 V2000
   -4.4304   19.2492   23.3580 C   0  0  0  0  0  0  0  0  0  0  0  0
   -6.4025   19.4004   22.9947 C   0  0  0  0  0  0  0  0  0  0  0  0
   -5.7265   21.2724   22.3162 C   0  0  0  0  0  0  0  0  0  0  0  0
   -6.3900   19.4849   24.1561 C   0  0  0  0  0  0  0  0  0  0  0  0
   -4.1901   17.6369   24.5308 C   0  0  0  0  0  0  0  0  0  0  0  0
   -4.6166   20.4961   21.5324 C   0  0  2  0  0  0  0  0  0  0  0  0
   -4.2828   20.8273   23.3672 C   0  0  1  0  0  0  0  0  0  0  0  0
   -2.9541   18.9646   23.7493 C   0  0  1  0  0  0  0  0  0  0  0  0
   -3.5907   22.2518   22.9093 C   0  0  0  0  0  0  0  0  0  0  0  0
   -2.2692   19.5265   22.4563 C   0  0  0  0  0  0  0  0  0  0  0  0
   -2.1016   20.9010   22.3087 C   0  0  0  0  0  0  0  0  0  0  0  0
   -9.0186   15.2402   26.0657 O   0  0  0  0  0  0  0  0  0  0  0  0
   -8.4662   16.2105   25.8235 C   0  0  2  0  0  0  0  0  0  0  0  0
   -2.8208   21.7809   20.4893 O   0  0  0  0  0  0  0  0  0  0  0  0
   -2.8434   21.2857   21.2793 C   0  0  0  0  0  0  0  0  0  0  0  0
   -7.3390   18.3611   25.6250 C   0  0  1  0  0  0  0  0  0  0  0  0
   -5.1528   18.4776   25.1759 C   0  0  2  0  0  0  0  0  0  0  0  0
   -5.5998   16.6166   25.7417 C   0  0  0  0  0  0  0  0  0  0  0  0
   -7.1470   16.5186   26.2697 C   0  0  2  0  0  0  0  0  0  0  0  0
   -6.4183   17.3273   24.5331 C   0  0  1  0  0  0  0  0  0  0  0  0
   -8.1795   18.1675   24.0818 C   0  0  0  0  0  0  0  0  0  0  0  0
   -9.2628   17.3175   25.1683 C   0  0  0  0  0  0  0  0  0  0  0  0
  4  2  2  3
  6  3  1  6
  7  1  1  0
  7  3  1  0
  7  6  1  0
  8  1  1  0
  8  5  1  6
  7  9  1  6
 10  8  1  0
 11 10  1  0
 13 12  1  1
 15  6  1  0
 15 11  1  0
 15 14  2  0
 17  4  1  0
 17  5  1  6
 19 13  1  0
 19 16  1  0
 19 18  1  6
 20 16  1  0
 20 17  1  0
 20 18  1  1
 16 21  1  6
 22 13  1  0
 22 21  1  0
M  END
>  <ID>  (1) 
conformer_0

$$$$
