
     RDKit          3D

 23 33  0  0  0  0  0  0  0  0999 V2000
   -3.9852   17.8627   24.6737 C   0  0  0  0  0  0  0  0  0  0  0  0
   -2.0871   19.7460   22.7548 C   0  0  0  0  0  0  0  0  0  0  0  0
   -3.8503   19.3107   22.7771 C   0  0  0  0  0  0  0  0  0  0  0  0
   -4.4803   21.9073   22.8528 C   0  0  0  0  0  0  0  0  0  0  0  0
   -3.1577   19.1824   23.9696 C   0  0  0  0  0  0  0  0  0  0  0  0
   -4.5108   20.5843   21.7411 C   0  0  0  0  0  0  0  0  0  0  0  0
   -5.9967   20.4057   22.3440 C   0  0  0  0  0  0  0  0  0  0  0  0
   -2.0078   20.6529   21.5986 C   0  0  0  0  0  0  0  0  0  0  0  0
   -5.7662   18.0476   23.9381 C   0  0  0  0  0  0  0  0  0  0  0  0
   -3.2282   21.6148   20.9842 C   0  0  0  0  0  0  0  0  0  0  0  0
   -9.5713   15.1221   25.9943 O   0  0  0  0  0  0  0  0  0  0  0  0
   -2.5554   21.9198   22.6411 C   0  0  0  0  0  0  0  0  0  0  0  0
   -3.5408   21.9601   19.9844 O   0  0  0  0  0  0  0  0  0  0  0  0
   -8.9089   16.1619   25.8273 C   0  0  0  0  0  0  0  0  0  0  0  0
   -5.1896   19.7908   23.8550 C   0  0  0  0  0  0  0  0  0  0  0  0
   -9.3243   17.2405   25.3118 C   0  0  0  0  0  0  0  0  0  0  0  0
   -5.1061   18.5579   25.6824 C   0  0  0  0  0  0  0  0  0  0  0  0
   -7.3515   18.7834   24.9436 C   0  0  0  0  0  0  0  0  0  0  0  0
   -5.2687   16.5456   25.0408 C   0  0  0  0  0  0  0  0  0  0  0  0
   -6.7578   17.3098   25.9324 C   0  0  0  0  0  0  0  0  0  0  0  0
   -6.8911   19.3038   23.5196 C   0  0  0  0  0  0  0  0  0  0  0  0
   -8.5273   17.7511   24.1157 C   0  0  0  0  0  0  0  0  0  0  0  0
   -7.2861   16.3778   25.1439 C   0  0  0  0  0  0  0  0  0  0  0  0
  3  2  1  0
  5  1  1  0
  5  2  1  0
  5  3  1  0
  6  3  1  0
  6  4  1  0
  7  6  1  0
  8  2  1  0
 10  6  1  0
 10  8  1  0
 12  4  1  0
 12  8  1  0
 12 10  1  0
 13 10  1  0
 14 11  1  0
 15  3  1  0
 15  7  1  0
 15  9  1  0
 16 14  1  0
 17  1  1  0
 17  9  1  0
 19  1  1  0
 19  9  1  0
 20 18  1  0
 20 19  1  0
 21  7  1  0
 21  9  1  0
 21 15  1  0
 21 18  1  0
 22 16  1  0
 22 18  1  0
 23 14  1  0
 23 20  1  0
M  END
>  <ID>  (1) 
conformer_0

$$$$
