
     RDKit          3D

 23 27  0  0  0  0  0  0  0  0999 V2000
   -8.2886   17.2028   23.9439 C   0  0  0  0  0  0  0  0  0  0  0  0
   -5.4869   19.9772   24.0020 C   0  0  0  0  0  0  0  0  0  0  0  0
   -6.0250   20.5726   22.3365 C   0  0  0  0  0  0  0  0  0  0  0  0
   -7.2347   16.9593   26.6186 C   0  0  0  0  0  0  0  0  0  0  0  0
   -4.7216   16.4589   25.0315 C   0  0  0  0  0  0  0  0  0  0  0  0
   -6.1018   16.2730   25.6957 C   0  0  0  0  0  0  0  0  0  0  0  0
   -7.0354   19.0297   25.9188 C   0  0  0  0  0  0  0  0  0  0  0  0
   -5.6798   18.6645   23.3938 C   0  0  0  0  0  0  0  0  0  0  0  0
   -4.7772   18.0631   25.1713 C   0  0  0  0  0  0  0  0  0  0  0  0
   -3.6545   18.3278   24.0359 C   0  0  0  0  0  0  0  0  0  0  0  0
   -3.1935   21.8630   21.2077 C   0  0  0  0  0  0  0  0  0  0  0  0
   -3.3447   22.5373   20.3028 O   0  0  0  0  0  0  0  0  0  0  0  0
   -8.8541   15.3193   26.0465 O   0  0  0  0  0  0  0  0  0  0  0  0
   -2.7188   19.3036   23.3298 C   0  0  0  0  0  0  0  0  0  0  0  0
   -8.3377   16.2656   25.6738 C   0  0  0  0  0  0  0  0  0  0  0  0
   -3.9269   20.0076   22.9574 C   0  0  0  0  0  0  0  0  0  0  0  0
   -2.1478   20.2673   21.9144 C   0  0  0  0  0  0  0  0  0  0  0  0
   -4.6228   21.8563   22.8368 C   0  0  0  0  0  0  0  0  0  0  0  0
   -4.5115   20.5558   21.3982 C   0  0  0  0  0  0  0  0  0  0  0  0
   -2.6028   22.0782   22.6037 C   0  0  0  0  0  0  0  0  0  0  0  0
   -7.3271   19.1146   23.9443 C   0  0  0  0  0  0  0  0  0  0  0  0
   -6.4992   17.8299   25.1330 C   0  0  0  0  0  0  0  0  0  0  0  0
   -8.6463   17.8215   25.3392 C   0  0  0  0  0  0  0  0  0  0  0  0
  3  2  1  0
  6  4  1  0
  6  5  1  0
  8  2  1  0
  9  5  1  0
 10  9  1  0
 12 11  2  0
 14 10  1  0
 15  1  1  0
 15  4  1  0
 15 13  1  0
 16  2  1  0
 16 14  1  0
 17 14  1  0
 18  3  1  0
 19  3  1  0
 19 11  1  0
 19 16  1  0
 19 18  1  0
 20 11  1  0
 21  8  1  0
 22  4  1  0
 22  6  1  0
 22  7  1  0
 22  9  1  0
 23  1  1  0
 23 15  1  0
M  END
>  <ID>  (1) 
conformer_0

$$$$
