
     RDKit          3D

 23 28  0  0  0  0  0  0  0  0999 V2000
   -4.0386   18.9620   22.8365 C   0  0  0  0  0  0  0  0  0  0  0  0
   -4.5900   20.6837   21.6148 C   0  0  0  0  0  0  0  0  0  0  0  0
   -8.3038   18.2694   25.6159 C   0  0  0  0  0  0  0  0  0  0  0  0
   -4.4563   20.2617   23.8458 C   0  0  0  0  0  0  0  0  0  0  0  0
   -4.8047   22.0385   22.6430 C   0  0  0  0  0  0  0  0  0  0  0  0
   -3.2186   21.3988   23.0136 C   0  0  0  0  0  0  0  0  0  0  0  0
   -2.2597   19.8619   22.1508 C   0  0  0  0  0  0  0  0  0  0  0  0
   -2.7362   19.0301   23.4958 C   0  0  0  0  0  0  0  0  0  0  0  0
   -7.0037   16.4186   25.6902 C   0  0  0  0  0  0  0  0  0  0  0  0
   -4.3742   17.2689   24.5792 C   0  0  0  0  0  0  0  0  0  0  0  0
   -5.3806   16.2963   25.4816 C   0  0  0  0  0  0  0  0  0  0  0  0
   -2.6304   21.3993   21.5965 C   0  0  0  0  0  0  0  0  0  0  0  0
   -8.3491   16.1313   25.9343 C   0  0  0  0  0  0  0  0  0  0  0  0
   -8.9104   15.3838   26.3169 O   0  0  0  0  0  0  0  0  0  0  0  0
   -2.4252   21.8770   20.8401 O   0  0  0  0  0  0  0  0  0  0  0  0
   -4.3024   18.6592   24.9598 C   0  0  0  0  0  0  0  0  0  0  0  0
   -7.1247   19.5725   25.4847 C   0  0  0  0  0  0  0  0  0  0  0  0
   -6.0713   20.1888   22.1461 C   0  0  0  0  0  0  0  0  0  0  0  0
   -6.1651   18.1731   24.0837 C   0  0  0  0  0  0  0  0  0  0  0  0
   -8.7183   17.1912   24.5462 C   0  0  0  0  0  0  0  0  0  0  0  0
   -7.8358   18.4932   23.5946 C   0  0  0  0  0  0  0  0  0  0  0  0
   -6.2505   17.8399   25.7185 C   0  0  0  0  0  0  0  0  0  0  0  0
   -6.3009   19.6158   23.3375 C   0  0  0  0  0  0  0  0  0  0  0  0
  4  1  1  0
  5  2  1  0
  6  4  1  0
  6  5  1  0
  8  1  1  0
  8  7  1  0
 11  9  1  0
 11 10  1  0
 12  6  1  0
 12  7  1  0
 13  9  1  0
 14 13  1  0
 15 12  2  0
 16  4  1  0
 16 10  1  0
 17  3  1  0
 18  2  1  0
 20  3  1  0
 20 13  1  0
 21 19  1  0
 21 20  1  0
 22  9  1  0
 22 11  1  0
 22 17  1  0
 22 19  1  0
 23 18  1  0
 23 19  1  0
 23 21  1  0
M  END
>  <ID>  (1) 
conformer_0

$$$$
