
     RDKit          3D

 22 25  0  0  0  0  0  0  0  0999 V2000
   -7.3049   16.2933   26.1199 C   0  0  0  0  0  0  0  0  0  0  0  0
   -6.5768   19.7290   23.5086 C   0  0  0  0  0  0  0  0  0  0  0  0
   -8.1472   18.6581   25.3556 C   0  0  0  0  0  0  0  0  0  0  0  0
   -4.4607   20.2934   22.3537 C   0  0  0  0  0  0  0  0  0  0  0  0
   -5.2786   17.3095   24.7187 C   0  0  2  0  0  0  0  0  0  0  0  0
   -7.6410   17.7441   24.3203 C   0  0  0  0  0  0  0  0  0  0  0  0
   -6.4338   18.6327   25.2655 C   0  0  0  0  0  0  0  0  0  0  0  0
   -6.0440   16.8088   25.8716 C   0  0  1  0  0  0  0  0  0  0  0  0
   -9.3542   17.0734   25.2942 C   0  0  0  0  0  0  0  0  0  0  0  0
   -8.4799   16.1714   26.1355 C   0  0  2  0  0  0  0  0  0  0  0  0
   -3.2496   21.6110   21.5849 C   0  0  0  0  0  0  0  0  0  0  0  0
   -3.1864   22.0044   20.5351 O   0  0  0  0  0  0  0  0  0  0  0  0
   -5.8065   20.6765   21.6986 C   0  0  0  0  0  0  0  0  0  0  0  0
   -9.1170   15.7673   27.3311 O   0  0  0  0  0  0  0  0  0  0  0  0
   -5.2931   22.0543   22.5718 C   0  0  0  0  0  0  0  0  0  0  0  0
   -5.7292   18.7196   23.3877 C   0  0  0  0  0  0  0  0  0  0  0  0
   -4.2640   19.6133   23.6696 C   0  0  2  0  0  0  0  0  0  0  0  0
   -3.1839   22.0078   22.7667 C   0  0  0  0  0  0  0  0  0  0  0  0
   -4.1140   18.0292   24.8073 C   0  0  2  0  0  0  0  0  0  0  0  0
   -3.0854   18.5604   23.2499 C   0  0  2  0  0  0  0  0  0  0  0  0
   -1.7302   20.1662   21.8773 C   0  0  0  0  0  0  0  0  0  0  0  0
   -2.1768   19.6211   22.9133 C   0  0  0  0  0  0  0  0  0  0  0  0
  6  3  1  0
  7  3  1  0
  5  7  1  1
  7  6  1  0
  8  1  1  6
  8  5  1  0
  8  7  1  0
 10  1  1  0
 10  9  1  1
 11  4  1  0
 12 11  2  0
 13  4  1  0
 14 10  1  0
 15  4  1  0
 15 13  1  0
 16  2  1  0
 17  4  1  0
 17 16  1  1
 18 11  1  0
 19  5  1  6
 19 17  1  0
 20 17  1  0
 20 19  1  0
 20 22  1  1
 22 21  2  3
M  END
>  <ID>  (1) 
conformer_0

$$$$
