
     RDKit          3D

 23 26  0  0  0  0  0  0  0  0999 V2000
   -3.5855   22.1781   22.6088 C   0  0  0  0  0  0  0  0  0  0  0  0
   -4.0218   20.1597   23.5770 C   0  0  0  0  0  0  0  0  0  0  0  0
   -2.2390   20.1001   22.8362 C   0  0  0  0  0  0  0  0  0  0  0  0
   -1.8912   20.4429   21.3686 C   0  0  0  0  0  0  0  0  0  0  0  0
   -4.2410   20.4148   21.6117 C   0  0  0  0  0  0  0  0  0  0  0  0
   -4.9005   21.6167   23.3024 C   0  0  0  0  0  0  0  0  0  0  0  0
   -5.8900   20.6785   21.7414 C   0  0  0  0  0  0  0  0  0  0  0  0
   -2.6003   18.7305   23.0330 C   0  0  0  0  0  0  0  0  0  0  0  0
   -7.6740   18.4791   23.5388 C   0  0  0  0  0  0  0  0  0  0  0  0
   -6.7472   19.8620   23.5573 C   0  0  0  0  0  0  0  0  0  0  0  0
   -3.2522   21.1981   20.9377 C   0  0  0  0  0  0  0  0  0  0  0  0
   -9.1864   15.6320   26.9656 O   0  0  0  0  0  0  0  0  0  0  0  0
   -3.4091   21.6887   19.9495 O   0  0  0  0  0  0  0  0  0  0  0  0
   -8.3981   16.2356   26.2602 C   0  0  0  0  0  0  0  0  0  0  0  0
   -5.3584   19.1932   23.3284 C   0  0  0  0  0  0  0  0  0  0  0  0
   -8.7809   17.5308   24.9687 C   0  0  0  0  0  0  0  0  0  0  0  0
   -3.4881   18.3787   24.4403 C   0  0  0  0  0  0  0  0  0  0  0  0
   -5.8671   18.8033   24.9749 C   0  0  0  0  0  0  0  0  0  0  0  0
   -6.6285   17.1650   25.0740 C   0  0  0  0  0  0  0  0  0  0  0  0
   -4.5218   17.4553   24.4314 C   0  0  0  0  0  0  0  0  0  0  0  0
   -7.2046   16.6602   26.3774 C   0  0  0  0  0  0  0  0  0  0  0  0
   -5.2927   16.8953   25.8541 C   0  0  0  0  0  0  0  0  0  0  0  0
   -7.8336   18.6682   25.4132 C   0  0  0  0  0  0  0  0  0  0  0  0
  3  2  1  0
  4  3  1  0
  6  1  1  0
  6  2  1  0
  7  5  1  0
  8  3  1  0
 10  9  1  0
 11  1  1  0
 11  4  1  0
 11  5  1  0
 13 11  1  0
 14 12  1  0
 15  2  1  0
 15 10  1  0
 16 14  1  0
 17  8  1  0
 18 15  1  0
 19 18  1  0
 20 17  2  0
 21 14  1  0
 21 19  1  0
 22 19  1  0
 22 20  1  0
 23  9  1  0
 23 16  1  0
 23 19  1  0
M  END
>  <ID>  (1) 
conformer_0

$$$$
