
     RDKit          3D

 22 31  0  0  0  0  0  0  0  0999 V2000
   -3.8367   20.1504   23.2526 C   0  0  0  0  0  0  0  0  0  0  0  0
   -2.2654   19.7317   22.7348 C   0  0  0  0  0  0  0  0  0  0  0  0
   -1.8510   20.6081   21.7865 C   0  0  0  0  0  0  0  0  0  0  0  0
   -4.4068   21.8630   23.0486 C   0  0  0  0  0  0  0  0  0  0  0  0
   -4.8201   20.5244   21.8256 C   0  0  0  0  0  0  0  0  0  0  0  0
   -9.3188   17.5839   24.9442 C   0  0  0  0  0  0  0  0  0  0  0  0
   -3.1786   18.8329   24.0580 C   0  0  0  0  0  0  0  0  0  0  0  0
   -5.8960   19.5049   23.8010 C   0  0  0  0  0  0  0  0  0  0  0  0
   -6.0974   19.9463   22.3757 C   0  0  0  0  0  0  0  0  0  0  0  0
   -2.9408   21.9704   22.6579 C   0  0  0  0  0  0  0  0  0  0  0  0
   -3.1851   21.8218   20.1370 O   0  0  0  0  0  0  0  0  0  0  0  0
   -8.6552   16.4305   26.0210 C   0  0  0  0  0  0  0  0  0  0  0  0
   -9.3497   15.6899   26.5029 O   0  0  0  0  0  0  0  0  0  0  0  0
   -2.9507   21.5372   21.0377 C   0  0  0  0  0  0  0  0  0  0  0  0
   -8.0823   18.7215   24.6849 C   0  0  0  0  0  0  0  0  0  0  0  0
   -4.6278   18.4973   23.8909 C   0  0  0  0  0  0  0  0  0  0  0  0
   -7.0460   18.3934   23.7179 C   0  0  0  0  0  0  0  0  0  0  0  0
   -4.4145   17.3835   25.0674 C   0  0  0  0  0  0  0  0  0  0  0  0
   -5.9567   17.8347   25.1631 C   0  0  0  0  0  0  0  0  0  0  0  0
   -7.7230   17.1910   25.4197 C   0  0  0  0  0  0  0  0  0  0  0  0
   -5.8715   16.4356   25.5663 C   0  0  0  0  0  0  0  0  0  0  0  0
   -6.9937   16.2293   26.7071 C   0  0  0  0  0  0  0  0  0  0  0  0
  2  1  1  0
  3  2  1  0
  4  1  1  0
  5  1  1  0
  5  4  1  0
  7  1  1  0
  7  2  1  0
  9  5  1  0
  9  8  1  0
 10  3  1  0
 10  4  1  0
 12  6  1  0
 13 12  1  0
 14  3  1  0
 14 10  1  0
 14 11  2  0
 15  6  1  0
 16  7  1  0
 16  8  1  0
 17  8  1  0
 17 15  1  0
 18 16  1  0
 19 17  1  0
 19 18  1  0
 20  6  1  0
 20 12  1  0
 20 15  1  0
 21 18  1  0
 21 19  1  0
 22 20  1  0
 22 21  1  0
M  END
>  <ID>  (1) 
conformer_0

$$$$
