
     RDKit          3D

 23 30  0  0  0  0  0  0  0  0999 V2000
   -8.2663   18.2677   25.0331 C   0  0  0  0  0  0  0  0  0  0  0  0
   -6.7231   19.8131   23.4003 C   0  0  0  0  0  0  0  0  0  0  0  0
   -7.1053   17.0262   25.9883 C   0  0  0  0  0  0  0  0  0  0  0  0
   -6.0032   16.5332   25.2835 C   0  0  0  0  0  0  0  0  0  0  0  0
   -7.5080   18.1928   23.6432 C   0  0  0  0  0  0  0  0  0  0  0  0
   -9.0227   16.9942   24.6567 C   0  0  0  0  0  0  0  0  0  0  0  0
   -5.2755   21.7971   22.4727 C   0  0  0  0  0  0  0  0  0  0  0  0
   -6.6981   19.1243   25.3932 C   0  0  0  0  0  0  0  0  0  0  0  0
   -5.3367   18.3276   25.6215 C   0  0  0  0  0  0  0  0  0  0  0  0
   -1.7737   20.3093   21.4920 C   0  0  0  0  0  0  0  0  0  0  0  0
   -3.1746   21.5829   21.3172 C   0  0  0  0  0  0  0  0  0  0  0  0
   -8.9586   15.5477   26.8163 O   0  0  0  0  0  0  0  0  0  0  0  0
   -8.8180   16.3269   25.9743 C   0  0  0  0  0  0  0  0  0  0  0  0
   -3.6059   22.0089   22.8795 C   0  0  0  0  0  0  0  0  0  0  0  0
   -5.5227   18.7250   23.6560 C   0  0  0  0  0  0  0  0  0  0  0  0
   -5.7225   20.3008   21.9895 C   0  0  0  0  0  0  0  0  0  0  0  0
   -3.0248   21.9630   20.5088 O   0  0  0  0  0  0  0  0  0  0  0  0
   -4.4412   17.1849   24.8962 C   0  0  0  0  0  0  0  0  0  0  0  0
   -3.9293   20.1367   21.7901 C   0  0  0  0  0  0  0  0  0  0  0  0
   -4.4845   20.0093   23.5312 C   0  0  0  0  0  0  0  0  0  0  0  0
   -2.1371   20.0877   22.8134 C   0  0  0  0  0  0  0  0  0  0  0  0
   -2.5116   18.8185   23.2656 C   0  0  0  0  0  0  0  0  0  0  0  0
   -3.6975   18.7503   24.3796 C   0  0  0  0  0  0  0  0  0  0  0  0
  3  1  1  0
  4  3  1  0
  5  1  1  0
  5  2  1  0
  6  1  1  0
  8  1  1  0
  9  4  1  0
  9  8  1  0
 11 10  1  0
 13  3  1  0
 13  6  1  0
 13 12  1  0
 14  7  1  0
 14 11  1  0
 15  2  1  0
 16  2  1  0
 16  7  1  0
 17 11  1  0
 18  4  1  0
 18  9  1  0
 19 11  1  0
 19 16  1  0
 20 15  1  0
 20 19  1  0
 21 10  1  0
 22 21  1  0
 23 15  1  0
 23 18  1  0
 23 20  1  0
 23 22  1  0
M  END
>  <ID>  (1) 
conformer_0

$$$$
