
     RDKit          3D

 21 26  0  0  0  0  0  0  0  0999 V2000
   -5.4830   16.7201   25.9135 C   0  0  0  0  0  0  0  0  0  0  0  0
   -3.7571   20.4701   21.6203 C   0  0  0  0  0  0  0  0  0  0  0  0
   -2.5663   21.9461   22.6746 C   0  0  0  0  0  0  0  0  0  0  0  0
   -6.1736   20.3176   23.6608 C   0  0  0  0  0  0  0  0  0  0  0  0
   -4.6069   21.7928   22.5484 C   0  0  0  0  0  0  0  0  0  0  0  0
   -1.8774   20.2163   22.3929 C   0  0  0  0  0  0  0  0  0  0  0  0
   -3.9383   20.0379   23.5079 C   0  0  0  0  0  0  0  0  0  0  0  0
   -2.8303   19.0679   22.8880 C   0  0  0  0  0  0  0  0  0  0  0  0
   -4.0416   18.0626   24.5371 C   0  0  0  0  0  0  0  0  0  0  0  0
   -5.3385   17.0212   24.7619 C   0  0  0  0  0  0  0  0  0  0  0  0
   -6.9788   16.5279   26.1189 C   0  0  0  0  0  0  0  0  0  0  0  0
   -8.4383   16.3072   25.5288 C   0  0  0  0  0  0  0  0  0  0  0  0
   -8.9944   15.5834   26.1766 O   0  0  0  0  0  0  0  0  0  0  0  0
   -2.5945   21.7797   21.3835 C   0  0  0  0  0  0  0  0  0  0  0  0
   -5.7489   20.7331   21.9464 C   0  0  0  0  0  0  0  0  0  0  0  0
   -5.2575   19.0540   23.3141 C   0  0  0  0  0  0  0  0  0  0  0  0
   -7.1825   19.3623   25.1050 C   0  0  0  0  0  0  0  0  0  0  0  0
   -7.2246   18.3574   23.5263 C   0  0  0  0  0  0  0  0  0  0  0  0
   -7.6913   17.6379   25.0889 C   0  0  0  0  0  0  0  0  0  0  0  0
   -8.8839   17.2529   24.1137 C   0  0  0  0  0  0  0  0  0  0  0  0
   -5.6602   18.7012   25.3338 C   0  0  0  0  0  0  0  0  0  0  0  0
  5  2  1  0
  6  3  1  0
  7  2  1  0
  8  6  1  0
  8  7  1  0
 10  1  1  0
 10  9  1  0
 11  1  1  0
 12 11  1  0
 13 12  1  0
 14  2  1  0
 14  3  1  0
 15  4  1  0
 15  5  1  0
 16  4  1  0
 16  7  1  0
 16  9  1  0
 18 17  1  0
 19 11  1  0
 19 12  1  0
 19 18  1  0
 20 12  1  0
 20 19  1  0
 21  9  1  0
 21 10  1  0
 21 17  1  0
M  END
>  <ID>  (1) 
conformer_0

$$$$
