
     RDKit          3D

 22 29  0  0  0  0  0  0  0  0999 V2000
   -4.6868   17.0126   25.0034 C   0  0  0  0  0  0  0  0  0  0  0  0
   -5.8323   20.4169   22.0087 C   0  0  0  0  0  0  0  0  0  0  0  0
   -9.1042   17.3230   25.1424 C   0  0  0  0  0  0  0  0  0  0  0  0
   -5.3984   18.8674   23.5437 C   0  0  0  0  0  0  0  0  0  0  0  0
   -7.9115   18.2942   25.4732 C   0  0  0  0  0  0  0  0  0  0  0  0
   -6.5522   19.6050   23.5557 C   0  0  0  0  0  0  0  0  0  0  0  0
   -7.4847   18.1447   23.9951 C   0  0  0  0  0  0  0  0  0  0  0  0
   -6.0140   18.4800   25.4252 C   0  0  0  0  0  0  0  0  0  0  0  0
   -6.2778   16.8720   25.6845 C   0  0  0  0  0  0  0  0  0  0  0  0
   -7.6418   16.2826   26.1410 C   0  0  0  0  0  0  0  0  0  0  0  0
   -3.0944   21.7347   19.9217 O   0  0  0  0  0  0  0  0  0  0  0  0
   -3.0536   21.5391   20.9295 C   0  0  0  0  0  0  0  0  0  0  0  0
   -8.9852   16.0698   26.1787 C   0  0  0  0  0  0  0  0  0  0  0  0
   -9.7523   15.3276   26.3063 O   0  0  0  0  0  0  0  0  0  0  0  0
   -4.8140   21.9960   22.5816 C   0  0  0  0  0  0  0  0  0  0  0  0
   -4.1621   18.4905   25.0540 C   0  0  0  0  0  0  0  0  0  0  0  0
   -4.3346   20.3886   23.7837 C   0  0  0  0  0  0  0  0  0  0  0  0
   -3.3634   18.5691   23.5880 C   0  0  0  0  0  0  0  0  0  0  0  0
   -2.8840   21.6814   22.4309 C   0  0  0  0  0  0  0  0  0  0  0  0
   -2.7142   19.8122   22.9673 C   0  0  0  0  0  0  0  0  0  0  0  0
   -1.8489   20.2882   21.6000 C   0  0  0  0  0  0  0  0  0  0  0  0
   -4.2773   20.4324   21.6144 C   0  0  0  0  0  0  0  0  0  0  0  0
  5  3  1  0
  6  2  1  0
  6  4  1  0
  7  5  1  0
  7  6  1  0
  8  5  1  0
  9  1  1  0
  9  8  1  0
 10  9  2  0
 12 11  1  0
 13  3  1  0
 13 10  2  0
 14 13  1  0
 15  2  1  0
 16  1  1  0
 16  8  1  0
 17  4  1  0
 18 16  1  0
 19 12  1  0
 19 15  1  0
 20 17  1  0
 20 18  1  0
 20 19  1  0
 21 12  1  0
 21 19  1  0
 21 20  1  0
 22  2  1  0
 22 12  1  0
 22 15  1  0
M  END
>  <ID>  (1) 
conformer_0

$$$$
