
     RDKit          3D

 21 26  0  0  0  0  0  0  0  0999 V2000
   -5.8770   20.3992   22.1719 C   0  0  0  0  0  0  0  0  0  0  0  0
   -5.8275   18.7677   25.3332 C   0  0  0  0  0  0  0  0  0  0  0  0
   -7.4463   18.5906   23.7787 C   0  0  1  0  0  0  0  0  0  0  0  0
   -6.4042   20.1648   23.8575 C   0  0  1  0  0  0  0  0  0  0  0  0
   -6.5286   16.5283   25.9901 C   0  0  1  0  0  0  0  0  0  0  0  0
   -7.8374   19.3150   25.3072 C   0  0  0  0  0  0  0  0  0  0  0  0
   -5.5682   18.7143   23.4451 C   0  0  2  0  0  0  0  0  0  0  0  0
   -7.3004   17.3418   25.0303 C   0  0  1  0  0  0  0  0  0  0  0  0
   -9.1609   17.4574   25.0869 C   0  0  0  0  0  0  0  0  0  0  0  0
   -8.3156   16.2238   25.7153 C   0  0  2  0  0  0  0  0  0  0  0  0
   -2.9426   21.3005   21.1817 C   0  0  0  0  0  0  0  0  0  0  0  0
   -8.8790   15.1340   25.7696 O   0  0  0  0  0  0  0  0  0  0  0  0
   -2.9579   21.4739   20.1516 O   0  0  0  0  0  0  0  0  0  0  0  0
   -4.3979   20.3813   22.0915 C   0  0  2  0  0  0  0  0  0  0  0  0
   -5.2873   16.6148   24.8688 C   0  0  0  0  0  0  0  0  0  0  0  0
   -3.9978   19.8316   23.7874 C   0  0  2  0  0  0  0  0  0  0  0  0
   -4.0280   21.8684   22.8197 C   0  0  0  0  0  0  0  0  0  0  0  0
   -4.5940   17.8135   25.4149 C   0  0  1  0  0  0  0  0  0  0  0  0
   -3.6018   18.4645   24.0658 C   0  0  0  0  0  0  0  0  0  0  0  0
   -2.3073   19.4682   22.7929 C   0  0  0  0  0  0  0  0  0  0  0  0
   -2.0685   20.6733   22.1959 C   0  0  0  0  0  0  0  0  0  0  0  0
  4  1  1  6
  4  3  1  0
  3  6  1  1
  7  2  1  1
  7  3  1  0
  7  4  1  0
  8  3  1  0
  8  5  1  0
  8  9  1  1
 10  5  1  0
 10  8  1  0
 10  9  1  0
 10 12  1  6
 13 11  2  0
 14  1  1  0
 14 11  1  0
  5 15  1  6
 16  7  1  0
 16 14  1  0
 14 17  1  6
 18  2  1  0
 18 15  1  6
 16 19  1  6
 19 18  1  0
 21 11  1  0
 21 20  2  3
M  END
>  <ID>  (1) 
conformer_0

$$$$
