
     RDKit          3D

 22 25  0  0  0  0  0  0  0  0999 V2000
   -5.8294   20.7291   22.1385 C   0  0  0  0  0  0  0  0  0  0  0  0
   -4.1816   20.5758   21.3947 C   0  0  0  0  0  0  0  0  0  0  0  0
   -4.6885   22.0024   22.7763 C   0  0  0  0  0  0  0  0  0  0  0  0
   -3.1884   21.4405   22.9422 C   0  0  0  0  0  0  0  0  0  0  0  0
   -6.9912   19.4814   23.4074 C   0  0  0  0  0  0  0  0  0  0  0  0
   -6.3586   18.1471   24.2151 C   0  0  0  0  0  0  0  0  0  0  0  0
   -2.0766   19.8737   22.0295 C   0  0  0  0  0  0  0  0  0  0  0  0
   -7.1518   16.2033   25.7444 C   0  0  0  0  0  0  0  0  0  0  0  0
   -5.5984   20.2155   23.7960 C   0  0  0  0  0  0  0  0  0  0  0  0
   -2.6559   21.1675   21.0983 C   0  0  0  0  0  0  0  0  0  0  0  0
   -9.6878   15.2508   26.1074 O   0  0  0  0  0  0  0  0  0  0  0  0
   -2.6368   21.8187   20.2887 O   0  0  0  0  0  0  0  0  0  0  0  0
   -8.9095   16.1453   25.7473 C   0  0  0  0  0  0  0  0  0  0  0  0
   -4.3437   19.3731   23.4170 C   0  0  0  0  0  0  0  0  0  0  0  0
   -5.1555   16.5235   25.6048 C   0  0  0  0  0  0  0  0  0  0  0  0
   -6.5908   17.4891   25.9075 C   0  0  0  0  0  0  0  0  0  0  0  0
   -7.2220   19.4128   25.4342 C   0  0  0  0  0  0  0  0  0  0  0  0
   -8.2994   17.9723   24.3881 C   0  0  0  0  0  0  0  0  0  0  0  0
   -8.8775   17.3231   25.2685 C   0  0  0  0  0  0  0  0  0  0  0  0
   -4.9364   18.5533   25.3467 C   0  0  0  0  0  0  0  0  0  0  0  0
   -4.0210   17.6115   24.8443 C   0  0  0  0  0  0  0  0  0  0  0  0
   -2.8886   19.2132   23.3795 C   0  0  0  0  0  0  0  0  0  0  0  0
  2  1  1  0
  3  1  1  0
  4  3  1  0
  6  5  1  0
  9  1  1  0
  9  5  1  0
 10  2  1  0
 10  4  1  0
 10  7  1  0
 12 10  1  0
 13  8  1  0
 13 11  1  0
 14  9  1  0
 16  6  1  0
 16  8  1  0
 16 15  1  0
 17  5  1  0
 18  6  1  0
 19 13  1  0
 19 18  1  0
 20  6  1  0
 21 15  1  0
 21 20  1  0
 22  7  1  0
 22 14  1  0
M  END
>  <ID>  (1) 
conformer_0

$$$$
