
     RDKit          3D

 22 28  0  0  0  0  0  0  0  0999 V2000
   -6.1281   18.8683   25.6638 C   0  0  0  0  0  0  0  0  0  0  0  0
   -5.2357   19.3047   23.8340 C   0  0  0  0  0  0  0  0  0  0  0  0
   -5.6433   17.3348   25.0401 C   0  0  0  0  0  0  0  0  0  0  0  0
   -2.1007   20.3449   22.2760 C   0  0  0  0  0  0  0  0  0  0  0  0
   -7.5371   18.1133   23.8481 C   0  0  0  0  0  0  0  0  0  0  0  0
   -6.6994   16.9312   25.9975 C   0  0  0  0  0  0  0  0  0  0  0  0
   -4.1940   17.5568   25.2330 C   0  0  0  0  0  0  0  0  0  0  0  0
   -3.9495   18.5122   24.0095 C   0  0  0  0  0  0  0  0  0  0  0  0
   -2.5181   18.7056   23.4935 C   0  0  0  0  0  0  0  0  0  0  0  0
   -8.6086   15.6141   27.0957 O   0  0  0  0  0  0  0  0  0  0  0  0
   -2.7706   21.7509   21.2628 C   0  0  0  0  0  0  0  0  0  0  0  0
   -2.7667   21.9627   20.1046 O   0  0  0  0  0  0  0  0  0  0  0  0
   -8.5815   16.4977   25.9445 C   0  0  0  0  0  0  0  0  0  0  0  0
   -9.2187   17.1081   24.9856 C   0  0  0  0  0  0  0  0  0  0  0  0
   -8.1686   18.1277   25.3247 C   0  0  0  0  0  0  0  0  0  0  0  0
   -1.9117   22.5113   21.8183 O   0  0  0  0  0  0  0  0  0  0  0  0
   -6.6848   19.5427   23.8700 C   0  0  0  0  0  0  0  0  0  0  0  0
   -5.1055   20.9280   21.1700 C   0  0  0  0  0  0  0  0  0  0  0  0
   -3.7859   19.9184   22.6685 C   0  0  0  0  0  0  0  0  0  0  0  0
   -5.2906   21.3609   22.9885 C   0  0  0  0  0  0  0  0  0  0  0  0
   -3.6050   21.6552   22.3754 C   0  0  0  0  0  0  0  0  0  0  0  0
   -6.0609   19.8560   22.1594 C   0  0  0  0  0  0  0  0  0  0  0  0
  3  1  1  0
  6  3  1  0
  7  3  1  0
  8  2  1  0
  8  7  1  0
  9  8  1  0
 11  4  1  0
 12 11  1  0
 13  6  1  0
 13 10  1  0
 14 13  1  0
 15  5  1  0
 15 13  1  0
 15 14  1  0
 16 11  1  0
 17  2  1  0
 17  5  1  0
 19  4  1  0
 19  8  1  0
 19  9  1  0
 20 18  1  0
 21 11  1  0
 21 19  1  0
 21 20  1  0
 22  2  1  0
 22 17  1  0
 22 18  1  0
 22 20  1  0
M  END
>  <ID>  (1) 
conformer_0

$$$$
