
     RDKit          3D

 22 30  0  0  0  0  0  0  0  0999 V2000
   -4.2535   17.6537   25.2857 C   0  0  0  0  0  0  0  0  0  0  0  0
   -5.9620   18.5402   23.9102 C   0  0  0  0  0  0  0  0  0  0  0  0
   -6.0449   18.1124   25.4798 C   0  0  0  0  0  0  0  0  0  0  0  0
   -6.0933   19.8041   21.9653 C   0  0  0  0  0  0  0  0  0  0  0  0
   -7.8061   18.4716   23.4050 C   0  0  0  0  0  0  0  0  0  0  0  0
   -3.7631   18.2195   23.9513 C   0  0  0  0  0  0  0  0  0  0  0  0
   -7.8116   18.3247   25.0412 C   0  0  0  0  0  0  0  0  0  0  0  0
   -8.7702   17.2619   24.6695 C   0  0  0  0  0  0  0  0  0  0  0  0
   -5.4891   16.5128   25.3659 C   0  0  0  0  0  0  0  0  0  0  0  0
   -7.0670   16.6781   26.0913 C   0  0  0  0  0  0  0  0  0  0  0  0
   -8.7413   15.4290   26.6294 O   0  0  0  0  0  0  0  0  0  0  0  0
   -3.1942   21.3554   21.2136 C   0  0  0  0  0  0  0  0  0  0  0  0
   -3.4124   21.3435   20.1792 O   0  0  0  0  0  0  0  0  0  0  0  0
   -8.4220   16.2144   25.8232 C   0  0  0  0  0  0  0  0  0  0  0  0
   -3.9867   20.0142   22.5662 C   0  0  0  0  0  0  0  0  0  0  0  0
   -4.5645   19.6660   24.1659 C   0  0  0  0  0  0  0  0  0  0  0  0
   -6.5708   19.9948   23.5483 C   0  0  0  0  0  0  0  0  0  0  0  0
   -2.5740   19.3742   23.2244 C   0  0  0  0  0  0  0  0  0  0  0  0
   -5.2476   21.3445   22.2864 C   0  0  0  0  0  0  0  0  0  0  0  0
   -4.3851   21.8201   23.3948 C   0  0  0  0  0  0  0  0  0  0  0  0
   -1.9818   20.4511   22.0822 C   0  0  0  0  0  0  0  0  0  0  0  0
   -2.8156   21.9865   22.6162 C   0  0  0  0  0  0  0  0  0  0  0  0
  3  1  1  0
  3  2  1  0
  5  2  1  0
  6  1  1  0
  7  3  1  0
  7  5  1  0
  8  7  1  0
  9  1  1  0
  9  3  1  0
 10  9  1  0
 13 12  2  0
 14  8  1  0
 14 10  1  0
 14 11  1  0
 16  2  1  0
 16  6  1  0
 16 15  1  0
 17  2  1  0
 17  4  1  0
 17  5  1  0
 18  6  1  0
 18 15  1  0
 19  4  1  0
 19 15  1  0
 20 19  1  0
 21 12  1  0
 21 18  1  0
 22 12  1  0
 22 20  1  0
 22 21  1  0
M  END
>  <ID>  (1) 
conformer_0

$$$$
