
     RDKit          3D

 21 22  0  0  0  0  0  0  0  0999 V2000
   -7.3006   19.1898   25.2581 C   0  0  0  0  0  0  0  0  0  0  0  0
   -7.7593   18.2835   24.0836 C   0  0  0  0  0  0  0  0  0  0  0  0
   -8.7971   16.9245   25.2337 C   0  0  0  0  0  0  0  0  0  0  0  0
   -6.4985   19.9734   23.4884 C   0  0  0  0  0  0  0  0  0  0  0  0
   -4.9977   18.2221   25.3513 C   0  0  2  0  0  0  0  0  0  0  0  0
   -2.6387   19.2889   23.1042 C   0  0  0  0  0  0  0  0  0  0  0  0
   -5.5301   18.7966   23.6746 C   0  0  2  0  0  0  0  0  0  0  0  0
   -3.6057   18.2252   24.3966 C   0  0  0  0  0  0  0  0  0  0  0  0
   -3.2645   21.6494   21.3166 C   0  0  0  0  0  0  0  0  0  0  0  0
   -3.1455   22.2908   20.2526 O   0  0  0  0  0  0  0  0  0  0  0  0
   -3.9833   19.5909   23.3202 C   0  0  1  0  0  0  0  0  0  0  0  0
   -8.9953   15.1386   27.0102 O   0  0  0  0  0  0  0  0  0  0  0  0
   -8.5644   16.0738   26.2089 C   0  0  0  0  0  0  0  0  0  0  0  0
   -4.9065   21.6347   22.4587 C   0  0  0  0  0  0  0  0  0  0  0  0
   -1.9703   20.4483   22.1955 C   0  0  0  0  0  0  0  0  0  0  0  0
   -3.0766   22.3496   22.9168 C   0  0  0  0  0  0  0  0  0  0  0  0
   -6.7669   17.1483   25.0679 C   0  0  1  0  0  0  0  0  0  0  0  0
   -4.9150   16.7405   25.4378 C   0  0  0  0  0  0  0  0  0  0  0  0
   -6.8053   16.3435   26.2000 C   0  0  0  0  0  0  0  0  0  0  0  0
   -5.6253   20.1116   21.9120 C   0  0  1  0  0  0  0  0  0  0  0  0
   -3.9179   20.0773   21.4459 C   0  0  1  0  0  0  0  0  0  0  0  0
  2  1  1  0
  7  4  1  1
  7  5  1  0
  8  5  1  0
 10  9  2  0
 11  6  1  6
 11  7  1  0
 11  8  1  0
 13  3  2  3
 13 12  1  0
 15  6  1  0
 16  9  1  0
 17  2  1  1
  5 18  1  6
 18 17  1  0
 19 13  1  0
 19 17  1  0
 20  4  1  0
 20 14  1  1
 21  9  1  1
 21 11  1  0
 21 20  1  0
M  END
>  <ID>  (1) 
conformer_0

$$$$
