
     RDKit          3D

 23 29  0  0  0  0  0  0  0  0999 V2000
   -6.5675   20.0893   23.4586 C   0  0  0  0  0  0  0  0  0  0  0  0
   -8.8434   17.5775   24.9427 C   0  0  0  0  0  0  0  0  0  0  0  0
   -5.6646   18.7961   25.3235 C   0  0  0  0  0  0  0  0  0  0  0  0
   -5.7712   18.9092   23.6239 C   0  0  0  0  0  0  0  0  0  0  0  0
   -7.4763   19.3614   25.4428 C   0  0  0  0  0  0  0  0  0  0  0  0
   -3.5837   18.3567   24.0156 C   0  0  0  0  0  0  0  0  0  0  0  0
   -4.2596   19.8858   23.7286 C   0  0  0  0  0  0  0  0  0  0  0  0
   -2.3854   19.3247   23.2312 C   0  0  0  0  0  0  0  0  0  0  0  0
   -5.3304   20.4703   22.0279 C   0  0  0  0  0  0  0  0  0  0  0  0
   -7.8978   18.4272   24.0405 C   0  0  0  0  0  0  0  0  0  0  0  0
   -3.2018   21.9164   20.0132 O   0  0  0  0  0  0  0  0  0  0  0  0
   -8.6158   16.2567   25.6991 C   0  0  0  0  0  0  0  0  0  0  0  0
   -3.0702   21.3554   20.8935 C   0  0  0  0  0  0  0  0  0  0  0  0
   -9.2515   15.3913   26.4239 O   0  0  0  0  0  0  0  0  0  0  0  0
   -1.6750   20.4283   21.4755 C   0  0  0  0  0  0  0  0  0  0  0  0
   -3.0866   20.2345   22.1536 C   0  0  0  0  0  0  0  0  0  0  0  0
   -4.6504   21.7314   22.8496 C   0  0  0  0  0  0  0  0  0  0  0  0
   -2.9607   22.0936   22.7690 C   0  0  0  0  0  0  0  0  0  0  0  0
   -9.0910   15.5223   24.9924 O   0  0  0  0  0  0  0  0  0  0  0  0
   -4.2936   17.5759   25.0087 C   0  0  0  0  0  0  0  0  0  0  0  0
   -6.8592   17.4358   25.3245 C   0  0  0  0  0  0  0  0  0  0  0  0
   -6.9229   16.2844   26.1005 C   0  0  0  0  0  0  0  0  0  0  0  0
   -5.3465   16.5427   25.2933 C   0  0  0  0  0  0  0  0  0  0  0  0
  4  1  1  0
  4  3  1  0
  5  3  1  0
  7  4  1  0
  7  6  1  0
  8  6  1  0
  9  1  1  0
 10  2  1  0
 10  5  1  0
 12  2  1  0
 13 11  2  0
 14 12  1  0
 15 13  1  0
 16  8  1  0
 16 13  1  0
 16 15  1  0
 17  9  1  0
 18 16  1  0
 18 17  1  0
 19 12  1  0
 20  3  1  0
 20  6  1  0
 21  3  1  0
 21 10  1  0
 22 12  1  0
 22 21  1  0
 23 20  1  0
 23 21  1  0
 23 22  1  0
M  END
>  <ID>  (1) 
conformer_0

$$$$
