
     RDKit          3D

 22 29  0  0  0  0  0  0  0  0999 V2000
   -4.7950   20.4331   21.5338 C   0  0  0  0  0  0  0  0  0  0  0  0
   -3.3261   21.6948   22.4621 C   0  0  0  0  0  0  0  0  0  0  0  0
   -4.0927   18.1358   24.9509 C   0  0  0  0  0  0  0  0  0  0  0  0
   -3.8852   20.0939   23.4561 C   0  0  0  0  0  0  0  0  0  0  0  0
   -7.6357   19.2387   24.9826 C   0  0  0  0  0  0  0  0  0  0  0  0
   -6.7927   19.3759   23.3668 C   0  0  0  0  0  0  0  0  0  0  0  0
   -2.9852   18.5086   23.8973 C   0  0  0  0  0  0  0  0  0  0  0  0
   -2.4119   19.7191   22.8254 C   0  0  0  0  0  0  0  0  0  0  0  0
   -1.9128   21.1008   21.8939 C   0  0  0  0  0  0  0  0  0  0  0  0
   -8.1784   16.4316   25.9353 C   0  0  0  0  0  0  0  0  0  0  0  0
   -8.6809   15.3597   26.2472 O   0  0  0  0  0  0  0  0  0  0  0  0
   -8.9150   17.3886   25.1419 C   0  0  0  0  0  0  0  0  0  0  0  0
   -3.2627   22.2473   19.9741 O   0  0  0  0  0  0  0  0  0  0  0  0
   -3.2510   21.7016   20.8667 C   0  0  0  0  0  0  0  0  0  0  0  0
   -6.0443   18.8142   25.1768 C   0  0  0  0  0  0  0  0  0  0  0  0
   -8.1718   17.8076   24.1079 C   0  0  0  0  0  0  0  0  0  0  0  0
   -4.8480   17.0319   25.4052 C   0  0  0  0  0  0  0  0  0  0  0  0
   -6.5984   17.2837   25.1270 C   0  0  0  0  0  0  0  0  0  0  0  0
   -6.5497   16.7364   26.3433 C   0  0  0  0  0  0  0  0  0  0  0  0
   -5.0371   18.9494   23.7707 C   0  0  0  0  0  0  0  0  0  0  0  0
   -5.3145   21.6705   21.9965 C   0  0  0  0  0  0  0  0  0  0  0  0
   -5.8632   20.5764   23.3297 C   0  0  0  0  0  0  0  0  0  0  0  0
  4  2  1  0
  6  5  1  0
  7  3  1  0
  7  4  1  0
  8  4  1  0
  8  7  1  0
  9  2  1  0
  9  8  1  0
 11 10  1  0
 12 10  1  0
 14  2  1  0
 14  9  1  0
 14 13  1  0
 15  5  1  0
 16  5  1  0
 16 12  1  0
 17  3  1  0
 18 15  1  0
 18 16  1  0
 18 17  1  0
 19 10  1  0
 19 18  1  0
 20  3  1  0
 20  4  1  0
 20  6  1  0
 20 15  1  0
 21  1  1  0
 22  6  1  0
 22 21  1  0
M  END
>  <ID>  (1) 
conformer_0

$$$$
