
     RDKit          3D

 19 24  0  0  0  0  0  0  0  0999 V2000
   -6.9540   19.1923   25.7361 C   0  0  0  0  0  0  0  0  0  0  0  0
   -8.7554   17.3222   25.3531 C   0  0  0  0  0  0  0  0  0  0  0  0
   -4.3959   19.5596   23.2281 C   0  0  0  0  0  0  0  0  0  0  0  0
   -7.0563   16.6690   25.8956 C   0  0  0  0  0  0  0  0  0  0  0  0
   -2.5526   19.6107   22.7975 C   0  0  0  0  0  0  0  0  0  0  0  0
   -3.3551   18.5908   23.8611 C   0  0  0  0  0  0  0  0  0  0  0  0
   -2.0371   20.3856   22.1360 C   0  0  0  0  0  0  0  0  0  0  0  0
   -6.0054   19.8808   22.5295 C   0  0  0  0  0  0  0  0  0  0  0  0
   -5.5431   18.6704   24.7268 C   0  0  0  0  0  0  0  0  0  0  0  0
   -6.7248   19.0278   23.5615 C   0  0  0  0  0  0  0  0  0  0  0  0
   -8.6570   15.9434   25.9505 C   0  0  0  0  0  0  0  0  0  0  0  0
   -2.8326   21.8608   20.4381 O   0  0  0  0  0  0  0  0  0  0  0  0
   -2.8391   21.5307   21.3807 C   0  0  0  0  0  0  0  0  0  0  0  0
   -9.3198   15.0548   26.5689 O   0  0  0  0  0  0  0  0  0  0  0  0
   -4.4905   17.5830   24.9044 C   0  0  0  0  0  0  0  0  0  0  0  0
   -5.8016   16.9124   25.6001 C   0  0  0  0  0  0  0  0  0  0  0  0
   -7.7863   18.0859   24.7018 C   0  0  0  0  0  0  0  0  0  0  0  0
   -5.2654   20.8894   21.7117 C   0  0  0  0  0  0  0  0  0  0  0  0
   -4.1476   21.5619   22.5452 C   0  0  0  0  0  0  0  0  0  0  0  0
  4  2  1  0
  5  3  1  0
  6  3  1  0
  6  5  1  0
  7  5  1  0
  8  3  1  0
  9  1  1  0
 10  8  1  0
 10  9  1  0
 11  2  1  0
 11  4  1  0
 13  7  1  0
 13 12  2  0
 14 11  1  0
 15  6  1  0
 15  9  1  0
 16  4  1  0
 16 15  1  0
 17  1  1  0
 17  2  1  0
 17 10  1  0
 18  8  1  0
 19 13  1  0
 19 18  1  0
M  END
>  <ID>  (1) 
conformer_0

$$$$
