
     RDKit          3D

 22 29  0  0  0  0  0  0  0  0999 V2000
   -4.6836   20.7797   21.5249 C   0  0  0  0  0  0  0  0  0  0  0  0
   -1.8913   20.7217   21.7488 C   0  0  0  0  0  0  0  0  0  0  0  0
   -6.6379   19.6584   23.7128 C   0  0  0  0  0  0  0  0  0  0  0  0
   -8.9072   17.2375   24.8908 C   0  0  0  0  0  0  0  0  0  0  0  0
   -2.7830   22.1066   22.5548 C   0  0  0  0  0  0  0  0  0  0  0  0
   -2.7182   19.8251   22.7197 C   0  0  0  0  0  0  0  0  0  0  0  0
   -6.2050   20.1535   22.0656 C   0  0  0  0  0  0  0  0  0  0  0  0
   -7.5603   18.3482   23.9344 C   0  0  0  0  0  0  0  0  0  0  0  0
   -4.7027   21.5352   22.7587 C   0  0  0  0  0  0  0  0  0  0  0  0
   -3.9938   20.1198   23.5269 C   0  0  0  0  0  0  0  0  0  0  0  0
   -8.2014   16.1346   26.0849 C   0  0  0  0  0  0  0  0  0  0  0  0
   -3.1542   21.9948   19.9748 O   0  0  0  0  0  0  0  0  0  0  0  0
   -3.1651   21.7822   20.9630 C   0  0  0  0  0  0  0  0  0  0  0  0
   -8.8362   15.3523   26.8132 O   0  0  0  0  0  0  0  0  0  0  0  0
   -5.3314   19.0700   23.4720 C   0  0  0  0  0  0  0  0  0  0  0  0
   -3.5336   18.3870   24.0995 C   0  0  0  0  0  0  0  0  0  0  0  0
   -6.3616   17.8219   25.8242 C   0  0  0  0  0  0  0  0  0  0  0  0
   -7.7565   18.4052   25.7148 C   0  0  0  0  0  0  0  0  0  0  0  0
   -7.1271   16.5518   26.3857 C   0  0  0  0  0  0  0  0  0  0  0  0
   -5.4088   18.6649   25.1364 C   0  0  0  0  0  0  0  0  0  0  0  0
   -4.3337   17.2513   24.9221 C   0  0  0  0  0  0  0  0  0  0  0  0
   -5.4343   16.3879   25.3959 C   0  0  0  0  0  0  0  0  0  0  0  0
  5  2  1  0
  6  2  1  0
  7  1  1  0
  7  3  1  0
  8  3  1  0
  9  1  1  0
 10  6  1  0
 10  9  1  0
 11  4  1  0
 13  1  1  0
 13  2  1  0
 13  5  1  0
 13 12  1  0
 14 11  1  0
 15  3  1  0
 15 10  1  0
 16 10  1  0
 18  4  1  0
 18  8  1  0
 18 17  1  0
 19 11  1  0
 19 17  1  0
 20 15  1  0
 20 17  1  0
 21 16  1  0
 21 20  1  0
 22 17  1  0
 22 19  1  0
 22 21  1  0
M  END
>  <ID>  (1) 
conformer_0

$$$$
