
     RDKit          3D

 24 28  0  0  0  0  0  0  0  0999 V2000
   -7.4442   17.7515   25.7585 C   0  0  0  0  0  0  0  0  0  0  0  0
   -3.9300   18.1342   24.5119 C   0  0  0  0  0  0  0  0  0  0  0  0
   -8.1731   18.1908   23.8594 C   0  0  0  0  0  0  0  0  0  0  0  0
   -5.3336   18.9259   24.1712 C   0  0  0  0  0  0  0  0  0  0  0  0
   -6.7199   17.2547   24.4716 C   0  0  0  0  0  0  0  0  0  0  0  0
   -6.8784   16.0184   26.1449 C   0  0  0  0  0  0  0  0  0  0  0  0
   -5.1603   16.4146   25.1500 C   0  0  0  0  0  0  0  0  0  0  0  0
   -5.2545   17.8451   25.8935 C   0  0  0  0  0  0  0  0  0  0  0  0
   -2.1258   19.0075   23.2654 C   0  0  0  0  0  0  0  0  0  0  0  0
   -9.1476   17.1420   25.0351 C   0  0  0  0  0  0  0  0  0  0  0  0
   -3.1848   21.5239   21.0335 C   0  0  0  0  0  0  0  0  0  0  0  0
   -8.4846   15.9524   25.7173 C   0  0  0  0  0  0  0  0  0  0  0  0
   -9.1118   14.9984   25.8554 O   0  0  0  0  0  0  0  0  0  0  0  0
   -3.0142   22.0047   20.2026 O   0  0  0  0  0  0  0  0  0  0  0  0
   -1.9258   20.1610   21.3804 C   0  0  0  0  0  0  0  0  0  0  0  0
   -3.9821   19.9716   22.2194 C   0  0  0  0  0  0  0  0  0  0  0  0
   -7.2305   19.6621   25.4353 C   0  0  0  0  0  0  0  0  0  0  0  0
   -6.5501   19.5231   23.8162 C   0  0  0  0  0  0  0  0  0  0  0  0
   -3.8672   20.0958   23.7152 C   0  0  0  0  0  0  0  0  0  0  0  0
   -2.0783   20.6728   22.7614 C   0  0  0  0  0  0  0  0  0  0  0  0
   -3.3566   22.2339   22.8400 C   0  0  0  0  0  0  0  0  0  0  0  0
   -5.1758   21.5124   23.3322 C   0  0  0  0  0  0  0  0  0  0  0  0
   -6.2464   19.7576   22.4819 C   0  0  0  0  0  0  0  0  0  0  0  0
   -5.0942   20.9480   21.4702 C   0  0  0  0  0  0  0  0  0  0  0  0
  4  2  1  0
  5  1  1  0
  5  3  1  0
  6  1  1  0
  7  5  1  0
  8  2  1  0
  8  7  1  0
 10  1  1  0
 10  3  1  0
 12  6  1  0
 12 10  1  0
 13 12  1  0
 14 11  1  0
 15 11  1  0
 17  1  1  0
 18  4  1  0
 18 17  1  0
 19  4  1  0
 19 16  1  0
 20  9  1  0
 20 15  1  0
 21 11  1  0
 22 19  1  0
 22 21  1  0
 23 18  1  0
 24 16  1  0
 24 22  1  0
 24 23  1  0
M  END
>  <ID>  (1) 
conformer_0

$$$$
