
     RDKit          3D

 23 29  0  0  0  0  0  0  0  0999 V2000
   -3.1797   22.1311   22.7420 C   0  0  0  0  0  0  0  0  0  0  0  0
   -2.4790   19.0603   23.3057 C   0  0  0  0  0  0  0  0  0  0  0  0
   -4.8626   21.5965   22.6702 C   0  0  0  0  0  0  0  0  0  0  0  0
   -6.6097   20.0737   23.5431 C   0  0  0  0  0  0  0  0  0  0  0  0
   -1.8950   20.3362   22.2034 C   0  0  0  0  0  0  0  0  0  0  0  0
   -5.0547   21.0301   21.2027 C   0  0  0  0  0  0  0  0  0  0  0  0
   -3.6067   19.7914   22.2761 C   0  0  0  0  0  0  0  0  0  0  0  0
   -5.8502   19.7981   22.2162 C   0  0  0  0  0  0  0  0  0  0  0  0
   -3.6853   17.9861   24.0116 C   0  0  0  0  0  0  0  0  0  0  0  0
   -7.0854   19.7895   25.3226 C   0  0  0  0  0  0  0  0  0  0  0  0
   -7.5488   18.3745   23.7692 C   0  0  0  0  0  0  0  0  0  0  0  0
   -8.4821   16.0334   26.0594 C   0  0  0  0  0  0  0  0  0  0  0  0
   -9.0764   15.3844   26.9045 O   0  0  0  0  0  0  0  0  0  0  0  0
   -2.9777   21.7571   21.4558 C   0  0  0  0  0  0  0  0  0  0  0  0
   -2.7306   21.9065   20.4548 O   0  0  0  0  0  0  0  0  0  0  0  0
   -4.5146   19.5649   23.6932 C   0  0  0  0  0  0  0  0  0  0  0  0
   -8.3700   18.2817   25.2343 C   0  0  0  0  0  0  0  0  0  0  0  0
   -4.3132   17.6488   25.3569 C   0  0  0  0  0  0  0  0  0  0  0  0
   -5.6961   18.4753   24.1581 C   0  0  0  0  0  0  0  0  0  0  0  0
   -6.4119   17.9172   25.5915 C   0  0  0  0  0  0  0  0  0  0  0  0
   -5.7079   16.6140   25.5249 C   0  0  0  0  0  0  0  0  0  0  0  0
   -7.2270   16.5021   26.1829 C   0  0  0  0  0  0  0  0  0  0  0  0
   -8.6417   16.9394   24.6730 C   0  0  0  0  0  0  0  0  0  0  0  0
  3  1  1  0
  5  2  1  0
  6  3  1  0
  7  2  1  0
  7  5  1  0
  8  4  1  0
  8  6  1  0
  9  2  1  0
 10  4  1  0
 11  4  1  0
 13 12  1  0
 14  1  1  0
 14  5  1  0
 15 14  2  0
 16  7  1  0
 16  9  1  0
 17 11  1  0
 18  9  1  0
 19  4  1  0
 19 11  1  0
 19 16  1  0
 20 19  1  0
 21 18  1  0
 21 20  1  0
 22 12  1  0
 22 20  1  0
 22 21  1  0
 23 12  1  0
 23 17  1  0
M  END
>  <ID>  (1) 
conformer_0

$$$$
