
     RDKit          3D

 22 28  0  0  0  0  0  0  0  0999 V2000
   -7.4143   16.4844   25.8487 C   0  0  0  0  0  0  0  0  0  0  0  0
   -5.8860   18.5505   23.7827 C   0  0  0  0  0  0  0  0  0  0  0  0
   -4.8363   19.8551   23.8819 C   0  0  0  0  0  0  0  0  0  0  0  0
   -9.0224   17.5842   25.4822 C   0  0  0  0  0  0  0  0  0  0  0  0
   -6.2168   20.1086   22.7998 C   0  0  0  0  0  0  0  0  0  0  0  0
   -7.9284   17.5048   24.3307 C   0  0  0  0  0  0  0  0  0  0  0  0
   -5.5336   16.8040   25.3299 C   0  0  0  0  0  0  0  0  0  0  0  0
   -6.3467   18.1116   25.6488 C   0  0  0  0  0  0  0  0  0  0  0  0
   -3.8188   18.0307   24.1422 C   0  0  0  0  0  0  0  0  0  0  0  0
   -8.7580   16.0520   25.7383 C   0  0  0  0  0  0  0  0  0  0  0  0
   -9.5740   15.0147   25.6483 O   0  0  0  0  0  0  0  0  0  0  0  0
   -3.3403   21.9929   20.2378 O   0  0  0  0  0  0  0  0  0  0  0  0
   -5.1844   22.0526   23.1498 C   0  0  0  0  0  0  0  0  0  0  0  0
   -3.8132   22.0300   23.0448 C   0  0  0  0  0  0  0  0  0  0  0  0
   -3.2804   21.4343   21.0783 C   0  0  0  0  0  0  0  0  0  0  0  0
   -3.8643   19.8830   22.4432 C   0  0  0  0  0  0  0  0  0  0  0  0
   -2.2335   21.0690   22.0904 C   0  0  0  0  0  0  0  0  0  0  0  0
   -1.9595   19.6648   22.3803 C   0  0  0  0  0  0  0  0  0  0  0  0
   -2.7098   18.9459   23.5561 C   0  0  0  0  0  0  0  0  0  0  0  0
   -5.0298   20.9375   21.5595 C   0  0  0  0  0  0  0  0  0  0  0  0
   -7.4535   18.9974   24.1993 C   0  0  0  0  0  0  0  0  0  0  0  0
   -4.4610   18.1036   25.4986 C   0  0  0  0  0  0  0  0  0  0  0  0
  3  2  1  0
  5  2  1  0
  5  3  1  0
  6  1  1  0
  6  4  1  0
  8  1  1  0
  8  7  1  0
 10  1  1  0
 10  4  1  0
 11 10  1  0
 14 13  1  0
 15 12  2  0
 16  3  1  0
 17 15  1  0
 18 16  1  0
 18 17  1  0
 19  9  1  0
 19 16  1  0
 19 18  1  0
 20  5  1  0
 20 13  1  0
 20 15  1  0
 20 16  1  0
 21  2  1  0
 21  6  1  0
 22  7  1  0
 22  8  1  0
 22  9  1  0
M  END
>  <ID>  (1) 
conformer_0

$$$$
