
     RDKit          3D

 22 30  0  0  0  0  0  0  0  0999 V2000
   -7.1099   16.2675   26.2709 C   0  0  0  0  0  0  0  0  0  0  0  0
   -8.6296   17.0217   24.6064 C   0  0  0  0  0  0  0  0  0  0  0  0
   -6.2369   19.6073   24.6106 C   0  0  0  0  0  0  0  0  0  0  0  0
   -5.2543   20.7480   21.2730 C   0  0  0  0  0  0  0  0  0  0  0  0
   -6.5058   18.9430   23.5677 C   0  0  0  0  0  0  0  0  0  0  0  0
   -3.8620   17.6638   24.4513 C   0  0  0  0  0  0  0  0  0  0  0  0
   -8.0744   18.3716   24.3273 C   0  0  0  0  0  0  0  0  0  0  0  0
   -7.0714   18.0612   25.6683 C   0  0  0  0  0  0  0  0  0  0  0  0
   -5.9197   16.9847   25.4392 C   0  0  0  0  0  0  0  0  0  0  0  0
   -4.9908   18.0436   25.4719 C   0  0  0  0  0  0  0  0  0  0  0  0
   -3.0801   21.6820   20.2031 O   0  0  0  0  0  0  0  0  0  0  0  0
   -8.2851   16.1672   26.3010 C   0  0  0  0  0  0  0  0  0  0  0  0
   -3.0780   21.4011   21.1462 C   0  0  0  0  0  0  0  0  0  0  0  0
   -9.1549   15.4753   26.6032 O   0  0  0  0  0  0  0  0  0  0  0  0
   -6.3223   20.2453   22.5550 C   0  0  0  0  0  0  0  0  0  0  0  0
   -4.4047   19.1079   23.8381 C   0  0  0  0  0  0  0  0  0  0  0  0
   -5.1218   21.5704   23.0229 C   0  0  0  0  0  0  0  0  0  0  0  0
   -2.6013   18.7089   23.6316 C   0  0  0  0  0  0  0  0  0  0  0  0
   -4.1266   20.1674   22.8767 C   0  0  0  0  0  0  0  0  0  0  0  0
   -3.3547   21.8697   22.6593 C   0  0  0  0  0  0  0  0  0  0  0  0
   -2.3684   19.4038   22.4379 C   0  0  0  0  0  0  0  0  0  0  0  0
   -1.8500   20.7981   22.1484 C   0  0  0  0  0  0  0  0  0  0  0  0
  5  3  1  0
  7  2  1  0
  7  5  1  0
  8  1  1  0
  8  7  1  0
  9  1  1  0
  9  8  1  0
 10  6  1  0
 10  9  1  0
 12  1  1  0
 12  2  1  0
 13 11  2  0
 14 12  1  0
 15  4  1  0
 15  5  1  0
 16  6  1  0
 17  4  1  0
 17 15  1  0
 18  6  1  0
 18 16  1  0
 19 16  1  0
 19 17  1  0
 20 13  1  0
 20 17  1  0
 20 19  1  0
 21 18  1  0
 21 19  1  0
 22 13  1  0
 22 20  1  0
 22 21  1  0
M  END
>  <ID>  (1) 
conformer_0

$$$$
