
     RDKit          3D

 22 26  0  0  0  0  0  0  0  0999 V2000
   -4.7489   20.6137   21.5848 C   0  0  0  0  0  0  0  0  0  0  0  0
   -6.3506   20.0981   22.7779 C   0  0  0  0  0  0  0  0  0  0  0  0
   -4.3388   22.1856   22.7837 C   0  0  0  0  0  0  0  0  0  0  0  0
   -2.6859   21.1287   22.2542 C   0  0  0  0  0  0  0  0  0  0  0  0
   -1.8908   20.3391   21.4838 C   0  0  0  0  0  0  0  0  0  0  0  0
   -3.7322   19.6700   22.9023 C   0  0  0  0  0  0  0  0  0  0  0  0
   -5.2187   21.1539   23.4686 C   0  0  0  0  0  0  0  0  0  0  0  0
   -6.2220   18.8376   23.5169 C   0  0  0  0  0  0  0  0  0  0  0  0
   -8.6526   17.3699   25.1088 C   0  0  0  0  0  0  0  0  0  0  0  0
   -7.8806   18.3958   23.7442 C   0  0  0  0  0  0  0  0  0  0  0  0
   -3.1156   21.3701   20.7336 C   0  0  0  0  0  0  0  0  0  0  0  0
   -8.7082   15.9526   26.4177 C   0  0  0  0  0  0  0  0  0  0  0  0
   -2.9752   21.7710   19.7688 O   0  0  0  0  0  0  0  0  0  0  0  0
   -9.3658   14.9399   26.4219 O   0  0  0  0  0  0  0  0  0  0  0  0
   -6.2947   19.3128   25.1795 C   0  0  0  0  0  0  0  0  0  0  0  0
   -2.3696   19.1523   23.3257 C   0  0  0  0  0  0  0  0  0  0  0  0
   -3.5958   17.9762   24.3710 C   0  0  0  0  0  0  0  0  0  0  0  0
   -4.4766   19.4017   24.2472 C   0  0  0  0  0  0  0  0  0  0  0  0
   -4.8642   17.6758   25.0968 C   0  0  0  0  0  0  0  0  0  0  0  0
   -7.1040   17.7506   25.3420 C   0  0  0  0  0  0  0  0  0  0  0  0
   -5.9034   16.7717   25.5612 C   0  0  0  0  0  0  0  0  0  0  0  0
   -7.5005   16.3564   26.4143 C   0  0  0  0  0  0  0  0  0  0  0  0
  5  4  1  0
  6  1  1  0
  6  4  1  0
  7  2  1  0
  7  3  1  0
  8  2  1  0
 10  8  1  0
 10  9  1  0
 11  4  1  0
 11  5  1  0
 12  9  1  0
 13 11  1  0
 14 12  1  0
 15  8  1  0
 16  6  1  0
 18  6  1  0
 18 17  1  0
 19 17  1  0
 19 18  1  0
 20  9  1  0
 20 15  1  0
 21 19  1  0
 21 20  1  0
 22 12  1  0
 22 20  1  0
 22 21  1  0
M  END
>  <ID>  (1) 
conformer_0

$$$$
