
     RDKit          3D

 22 27  0  0  0  0  0  0  0  0999 V2000
   -4.9684   20.6966   21.2719 C   0  0  0  0  0  0  0  0  0  0  0  0
   -6.3311   18.6551   23.4344 C   0  0  0  0  0  0  0  0  0  0  0  0
   -6.2714   19.7287   24.5238 C   0  0  0  0  0  0  0  0  0  0  0  0
   -4.4572   19.2289   23.2881 C   0  0  0  0  0  0  0  0  0  0  0  0
   -4.1289   18.5135   24.6621 C   0  0  0  0  0  0  0  0  0  0  0  0
   -7.2479   17.3030   24.7267 C   0  0  0  0  0  0  0  0  0  0  0  0
   -7.3309   19.9515   26.0593 C   0  0  0  0  0  0  0  0  0  0  0  0
   -6.0236   18.0648   25.5184 C   0  0  0  0  0  0  0  0  0  0  0  0
   -7.2054   16.0218   26.4335 C   0  0  0  0  0  0  0  0  0  0  0  0
   -3.1689   22.3107   20.4236 O   0  0  0  0  0  0  0  0  0  0  0  0
   -2.9296   21.7086   21.3478 C   0  0  0  0  0  0  0  0  0  0  0  0
   -9.2421   17.3431   24.6910 C   0  0  0  0  0  0  0  0  0  0  0  0
   -8.0988   18.6179   25.3123 C   0  0  0  0  0  0  0  0  0  0  0  0
   -8.2011   16.2046   25.4716 C   0  0  0  0  0  0  0  0  0  0  0  0
   -6.0750   20.2672   22.0742 C   0  0  0  0  0  0  0  0  0  0  0  0
   -8.7715   15.4278   25.8415 O   0  0  0  0  0  0  0  0  0  0  0  0
   -4.4867   20.7845   23.1041 C   0  0  0  0  0  0  0  0  0  0  0  0
   -2.8307   19.4321   23.2252 C   0  0  0  0  0  0  0  0  0  0  0  0
   -2.0945   20.0321   21.9112 C   0  0  0  0  0  0  0  0  0  0  0  0
   -2.8521   21.7770   22.6654 C   0  0  0  0  0  0  0  0  0  0  0  0
   -4.6135   17.1418   24.8896 C   0  0  0  0  0  0  0  0  0  0  0  0
   -5.7189   16.2459   25.7082 C   0  0  0  0  0  0  0  0  0  0  0  0
  3  2  1  0
  4  2  1  0
  5  4  1  0
  7  3  1  0
  8  3  1  0
  8  6  1  0
 11 10  2  0
 13  6  1  0
 13  7  1  0
 13 12  1  0
 14  6  1  0
 14  9  1  0
 14 12  1  0
 15  1  1  0
 16 14  1  0
 17  1  1  0
 17  4  1  0
 18  4  1  0
 19 11  1  0
 19 18  1  0
 20 11  1  0
 20 17  1  0
 21  5  1  0
 21  8  1  0
 22  8  1  0
 22  9  1  0
 22 21  1  0
M  END
>  <ID>  (1) 
conformer_0

$$$$
