
     RDKit          3D

 23 26  0  0  0  0  0  0  0  0999 V2000
   -1.9659   20.2563   21.7708 C   0  0  0  0  0  0  0  0  0  0  0  0
   -5.3110   20.5856   21.1615 C   0  0  0  0  0  0  0  0  0  0  0  0
   -2.8188   22.0709   22.5447 C   0  0  0  0  0  0  0  0  0  0  0  0
   -4.8506   21.8333   22.1090 C   0  0  0  0  0  0  0  0  0  0  0  0
   -2.4630   19.3714   22.9921 C   0  0  0  0  0  0  0  0  0  0  0  0
   -4.3034   21.1605   23.7099 C   0  0  0  0  0  0  0  0  0  0  0  0
   -3.7965   20.0537   22.6666 C   0  0  0  0  0  0  0  0  0  0  0  0
   -6.0637   20.3780   24.5530 C   0  0  0  0  0  0  0  0  0  0  0  0
   -6.2018   20.0754   22.4364 C   0  0  0  0  0  0  0  0  0  0  0  0
   -3.8002   18.4751   24.3552 C   0  0  0  0  0  0  0  0  0  0  0  0
   -3.1814   21.4610   20.9861 C   0  0  0  0  0  0  0  0  0  0  0  0
   -8.6898   15.2101   26.4956 O   0  0  0  0  0  0  0  0  0  0  0  0
   -8.2290   16.2102   25.7722 C   0  0  0  0  0  0  0  0  0  0  0  0
   -2.9048   21.4571   20.0611 O   0  0  0  0  0  0  0  0  0  0  0  0
   -8.9743   16.8973   24.5183 C   0  0  0  0  0  0  0  0  0  0  0  0
   -7.1880   18.6395   23.9422 C   0  0  0  0  0  0  0  0  0  0  0  0
   -5.1634   18.4144   25.3962 C   0  0  0  0  0  0  0  0  0  0  0  0
   -8.3365   17.9352   25.2617 C   0  0  0  0  0  0  0  0  0  0  0  0
   -4.7707   16.8657   25.4369 C   0  0  0  0  0  0  0  0  0  0  0  0
   -6.6459   16.4435   26.1158 C   0  0  0  0  0  0  0  0  0  0  0  0
   -7.0021   19.4959   25.7212 C   0  0  0  0  0  0  0  0  0  0  0  0
   -5.3878   19.1476   23.6360 C   0  0  0  0  0  0  0  0  0  0  0  0
   -6.5563   17.4120   25.2712 C   0  0  0  0  0  0  0  0  0  0  0  0
  4  2  1  0
  5  1  1  0
  6  4  1  0
  7  5  1  0
  7  6  1  0
  9  2  1  0
 11  1  1  0
 11  3  1  0
 13 12  1  0
 14 11  1  0
 15 13  1  0
 17 10  1  0
 18 13  1  0
 18 15  1  0
 18 16  1  0
 19 17  1  0
 20 13  1  0
 21  8  1  0
 22  8  1  0
 22  9  1  0
 22 10  1  0
 22 16  1  0
 23 17  1  0
 23 18  1  0
 23 19  1  0
 23 20  1  0
M  END
>  <ID>  (1) 
conformer_0

$$$$
