
     RDKit          3D

 23 28  0  0  0  0  0  0  0  0999 V2000
   -6.3551   20.4417   23.7600 C   0  0  0  0  0  0  0  0  0  0  0  0
   -5.7972   20.7475   21.8554 C   0  0  0  0  0  0  0  0  0  0  0  0
   -7.5947   18.6912   24.7050 C   0  0  0  0  0  0  0  0  0  0  0  0
   -4.4300   18.2870   24.4678 C   0  0  0  0  0  0  0  0  0  0  0  0
   -5.0465   21.8496   23.2221 C   0  0  0  0  0  0  0  0  0  0  0  0
   -5.0450   19.5932   23.4314 C   0  0  0  0  0  0  0  0  0  0  0  0
   -6.8328   18.8319   23.2946 C   0  0  0  0  0  0  0  0  0  0  0  0
   -4.4809   17.0954   25.2950 C   0  0  0  0  0  0  0  0  0  0  0  0
   -5.9395   18.7547   25.2996 C   0  0  0  0  0  0  0  0  0  0  0  0
   -8.3156   16.1353   26.0977 C   0  0  0  0  0  0  0  0  0  0  0  0
   -3.0016   21.8254   21.6741 C   0  0  0  0  0  0  0  0  0  0  0  0
   -3.0723   22.2746   20.4981 O   0  0  0  0  0  0  0  0  0  0  0  0
   -8.8897   15.2706   26.4740 O   0  0  0  0  0  0  0  0  0  0  0  0
   -6.2598   17.0936   25.1084 C   0  0  0  0  0  0  0  0  0  0  0  0
   -6.4163   16.7523   26.3779 C   0  0  0  0  0  0  0  0  0  0  0  0
   -8.0581   17.0661   25.7088 C   0  0  0  0  0  0  0  0  0  0  0  0
   -8.4949   17.3681   24.1308 C   0  0  0  0  0  0  0  0  0  0  0  0
   -1.9029   22.7386   22.1666 O   0  0  0  0  0  0  0  0  0  0  0  0
   -2.9346   18.4862   23.7337 C   0  0  0  0  0  0  0  0  0  0  0  0
   -2.2238   19.9350   22.5581 C   0  0  0  0  0  0  0  0  0  0  0  0
   -3.2515   21.7667   22.6894 C   0  0  0  0  0  0  0  0  0  0  0  0
   -3.6998   19.9189   23.5389 C   0  0  0  0  0  0  0  0  0  0  0  0
   -4.3528   20.4245   21.4912 C   0  0  0  0  0  0  0  0  0  0  0  0
  5  1  1  0
  5  2  1  0
  6  1  1  0
  6  4  1  0
  7  1  1  0
  7  3  1  0
  7  6  1  0
  8  4  1  0
  9  3  1  0
  9  4  1  0
 12 11  1  0
 13 10  1  0
 14  8  1  0
 14  9  1  0
 15 14  1  0
 16 10  1  0
 16 15  1  0
 17  3  1  0
 17 16  1  0
 18 11  1  0
 19  4  1  0
 21  5  1  0
 21 11  1  0
 22  6  1  0
 22 19  1  0
 22 20  1  0
 23  2  1  0
 23 11  1  0
M  END
>  <ID>  (1) 
conformer_0

$$$$
