
     RDKit          3D

 23 29  0  0  0  0  0  0  0  0999 V2000
   -5.0429   18.3490   25.2770 C   0  0  0  0  0  0  0  0  0  0  0  0
   -5.2503   20.4874   21.4221 C   0  0  0  0  0  0  0  0  0  0  0  0
   -4.5885   19.4726   23.4355 C   0  0  0  0  0  0  0  0  0  0  0  0
   -6.4904   19.8746   22.8114 C   0  0  0  0  0  0  0  0  0  0  0  0
   -6.3080   18.4985   23.5922 C   0  0  0  0  0  0  0  0  0  0  0  0
   -7.3966   18.5282   25.4268 C   0  0  0  0  0  0  0  0  0  0  0  0
   -8.1343   18.2218   23.8899 C   0  0  0  0  0  0  0  0  0  0  0  0
   -3.9028   18.0790   24.3671 C   0  0  0  0  0  0  0  0  0  0  0  0
   -6.2832   20.0075   24.7984 C   0  0  0  0  0  0  0  0  0  0  0  0
   -3.3037   21.4474   21.0923 C   0  0  0  0  0  0  0  0  0  0  0  0
   -5.0865   16.5232   25.4713 C   0  0  0  0  0  0  0  0  0  0  0  0
   -6.7318   16.4349   26.5185 C   0  0  0  0  0  0  0  0  0  0  0  0
   -6.5094   17.0158   25.3083 C   0  0  0  0  0  0  0  0  0  0  0  0
   -3.2804   21.9148   20.1453 O   0  0  0  0  0  0  0  0  0  0  0  0
   -8.1239   15.9724   26.0782 C   0  0  0  0  0  0  0  0  0  0  0  0
   -8.3956   15.1320   26.5387 O   0  0  0  0  0  0  0  0  0  0  0  0
   -8.8882   17.2627   25.2567 C   0  0  0  0  0  0  0  0  0  0  0  0
   -5.1069   21.6581   22.5230 C   0  0  0  0  0  0  0  0  0  0  0  0
   -4.3638   21.1103   23.9167 C   0  0  0  0  0  0  0  0  0  0  0  0
   -2.7051   19.2228   23.4761 C   0  0  0  0  0  0  0  0  0  0  0  0
   -3.3931   19.7773   22.0616 C   0  0  0  0  0  0  0  0  0  0  0  0
   -3.0450   22.0435   22.7244 C   0  0  0  0  0  0  0  0  0  0  0  0
   -1.9802   20.3335   21.8076 C   0  0  0  0  0  0  0  0  0  0  0  0
  4  2  1  0
  5  4  1  0
  7  5  1  0
  7  6  1  0
  8  1  1  0
  8  3  1  0
  9  5  1  0
  9  6  1  0
 11  1  1  0
 13  6  1  0
 13 11  1  0
 13 12  1  0
 14 10  1  0
 15 12  1  0
 16 15  1  0
 17  6  1  0
 17  7  1  0
 17 15  1  0
 18  2  1  0
 19  3  1  0
 19 18  1  0
 20  3  1  0
 20  8  1  0
 21  3  1  0
 21 10  1  0
 21 20  1  0
 22 10  1  0
 23 10  1  0
 23 21  1  0
M  END
>  <ID>  (1) 
conformer_0

$$$$
