
     RDKit          3D

 23 32  0  0  0  0  0  0  0  0999 V2000
   -4.5951   16.9777   24.9630 C   0  0  0  0  0  0  0  0  0  0  0  0
   -6.8388   17.0613   24.6533 C   0  0  0  0  0  0  0  0  0  0  0  0
   -7.7269   16.5955   26.2723 C   0  0  0  0  0  0  0  0  0  0  0  0
   -6.3208   20.3338   23.1676 C   0  0  0  0  0  0  0  0  0  0  0  0
   -3.3921   18.6226   24.1677 C   0  0  0  0  0  0  0  0  0  0  0  0
   -9.0451   17.2219   25.5734 C   0  0  0  0  0  0  0  0  0  0  0  0
   -5.9643   16.7850   25.8702 C   0  0  0  0  0  0  0  0  0  0  0  0
   -4.9215   18.8543   23.5123 C   0  0  0  0  0  0  0  0  0  0  0  0
   -2.1981   19.2852   23.1968 C   0  0  0  0  0  0  0  0  0  0  0  0
   -4.3363   20.5061   23.2631 C   0  0  0  0  0  0  0  0  0  0  0  0
   -9.1372   15.9210   26.6211 C   0  0  0  0  0  0  0  0  0  0  0  0
   -2.8910   21.4776   21.0998 C   0  0  0  0  0  0  0  0  0  0  0  0
   -2.9067   21.6377   19.9021 O   0  0  0  0  0  0  0  0  0  0  0  0
   -1.6580   20.4503   21.8571 C   0  0  0  0  0  0  0  0  0  0  0  0
   -3.2665   20.0637   22.1562 C   0  0  0  0  0  0  0  0  0  0  0  0
   -4.8864   22.1306   22.3906 C   0  0  0  0  0  0  0  0  0  0  0  0
   -3.1178   22.3220   22.3925 C   0  0  0  0  0  0  0  0  0  0  0  0
   -9.4176   15.1921   26.8413 O   0  0  0  0  0  0  0  0  0  0  0  0
   -5.0738   18.5726   25.1974 C   0  0  0  0  0  0  0  0  0  0  0  0
   -5.2412   20.4979   21.6170 C   0  0  0  0  0  0  0  0  0  0  0  0
   -6.6395   18.9726   23.4048 C   0  0  0  0  0  0  0  0  0  0  0  0
   -8.4071   18.2976   24.4528 C   0  0  0  0  0  0  0  0  0  0  0  0
   -7.1179   18.8811   25.1136 C   0  0  0  0  0  0  0  0  0  0  0  0
  3  2  1  0
  6  3  1  0
  7  1  1  0
  7  2  1  0
  7  3  1  0
  8  5  1  0
  9  5  1  0
 10  8  1  0
 11  3  1  0
 11  6  1  0
 13 12  1  0
 14  9  1  0
 14 12  1  0
 15  9  1  0
 15 10  1  0
 15 12  1  0
 15 14  1  0
 16 10  1  0
 17 12  1  0
 17 16  1  0
 18 11  1  0
 19  1  1  0
 19  8  1  0
 20  4  1  0
 20 10  1  0
 20 16  1  0
 21  4  1  0
 21  8  1  0
 22  6  1  0
 23  2  1  0
 23 21  1  0
 23 22  1  0
M  END
>  <ID>  (1) 
conformer_0

$$$$
