
     RDKit          3D

 23 25  0  0  0  0  0  0  0  0999 V2000
   -6.0555   19.3816   22.7023 C   0  0  0  0  0  0  0  0  0  0  0  0
   -4.4784   21.9206   22.7654 C   0  0  0  0  0  0  0  0  0  0  0  0
   -4.9213   20.5769   21.1666 C   0  0  0  0  0  0  0  0  0  0  0  0
   -9.1276   16.9908   24.6174 C   0  0  0  0  0  0  0  0  0  0  0  0
   -2.2276   21.4020   22.1457 C   0  0  0  0  0  0  0  0  0  0  0  0
   -5.9680   21.1282   22.4590 C   0  0  0  0  0  0  0  0  0  0  0  0
   -3.7314   20.1644   22.3413 C   0  0  0  0  0  0  0  0  0  0  0  0
   -8.2173   18.0005   23.8240 C   0  0  0  0  0  0  0  0  0  0  0  0
   -1.7953   20.1551   21.7621 C   0  0  0  0  0  0  0  0  0  0  0  0
   -2.5437   19.4237   23.4592 C   0  0  0  0  0  0  0  0  0  0  0  0
   -3.0624   21.7715   19.9440 O   0  0  0  0  0  0  0  0  0  0  0  0
   -8.8078   15.4093   26.5670 O   0  0  0  0  0  0  0  0  0  0  0  0
   -3.0179   21.5020   20.9313 C   0  0  0  0  0  0  0  0  0  0  0  0
   -8.0477   16.2521   25.9741 C   0  0  0  0  0  0  0  0  0  0  0  0
   -4.7318   20.3610   24.0562 C   0  0  0  0  0  0  0  0  0  0  0  0
   -6.7250   19.7193   24.1021 C   0  0  0  0  0  0  0  0  0  0  0  0
   -8.1066   18.3755   25.4029 C   0  0  0  0  0  0  0  0  0  0  0  0
   -4.1318   18.9051   23.9339 C   0  0  0  0  0  0  0  0  0  0  0  0
   -4.2710   17.9854   25.0509 C   0  0  0  0  0  0  0  0  0  0  0  0
   -6.3632   17.9739   24.5525 C   0  0  0  0  0  0  0  0  0  0  0  0
   -6.8641   16.5763   26.0979 C   0  0  0  0  0  0  0  0  0  0  0  0
   -5.4386   16.3353   25.4907 C   0  0  0  0  0  0  0  0  0  0  0  0
   -5.9734   18.6851   25.7095 C   0  0  0  0  0  0  0  0  0  0  0  0
  6  1  1  0
  6  2  1  0
  6  3  1  0
  7  2  1  0
  7  3  1  0
  7  5  1  0
  8  4  1  0
  9  5  1  0
 10  7  1  0
 13  5  1  0
 13 11  2  0
 14  4  1  0
 14 12  1  0
 16  1  1  0
 17  4  1  0
 17  8  1  0
 18 10  1  0
 18 15  1  0
 19 18  1  0
 20 16  1  0
 20 17  1  0
 21 14  1  0
 22 21  1  0
 23 19  1  0
 23 20  1  0
M  END
>  <ID>  (1) 
conformer_0

$$$$
