
     RDKit          3D

 22 30  0  0  0  0  0  0  0  0999 V2000
   -7.5877   19.4813   25.2099 C   0  0  0  0  0  0  0  0  0  0  0  0
   -5.9372   19.0513   23.4579 C   0  0  0  0  0  0  0  0  0  0  0  0
   -8.6557   18.0059   25.1932 C   0  0  0  0  0  0  0  0  0  0  0  0
   -6.8561   19.9444   23.1984 C   0  0  0  0  0  0  0  0  0  0  0  0
   -7.7859   18.1905   23.6875 C   0  0  0  0  0  0  0  0  0  0  0  0
   -4.4458   19.7003   23.7874 C   0  0  0  0  0  0  0  0  0  0  0  0
   -1.8801   19.9900   21.7967 C   0  0  0  0  0  0  0  0  0  0  0  0
   -5.7299   20.2047   21.6910 C   0  0  0  0  0  0  0  0  0  0  0  0
   -6.1427   16.4421   25.9561 C   0  0  0  0  0  0  0  0  0  0  0  0
   -7.3100   16.8640   25.3901 C   0  0  0  0  0  0  0  0  0  0  0  0
   -8.5279   16.3652   25.7061 C   0  0  0  0  0  0  0  0  0  0  0  0
   -9.0218   15.4122   26.2184 O   0  0  0  0  0  0  0  0  0  0  0  0
   -2.9203   21.3104   21.1105 C   0  0  0  0  0  0  0  0  0  0  0  0
   -3.0274   21.6097   20.0713 O   0  0  0  0  0  0  0  0  0  0  0  0
   -4.8963   21.5995   22.3424 C   0  0  0  0  0  0  0  0  0  0  0  0
   -3.8362   20.1523   22.1333 C   0  0  0  0  0  0  0  0  0  0  0  0
   -3.1787   22.3987   22.5538 C   0  0  0  0  0  0  0  0  0  0  0  0
   -3.1851   18.5707   23.9473 C   0  0  0  0  0  0  0  0  0  0  0  0
   -2.2826   19.3889   23.1455 C   0  0  0  0  0  0  0  0  0  0  0  0
   -4.3632   18.2022   25.0563 C   0  0  0  0  0  0  0  0  0  0  0  0
   -6.1878   18.3498   25.1016 C   0  0  0  0  0  0  0  0  0  0  0  0
   -4.8552   16.7825   25.0055 C   0  0  0  0  0  0  0  0  0  0  0  0
  3  1  1  0
  4  2  1  0
  5  3  1  0
  6  2  1  0
  8  4  1  0
 10  3  1  0
 10  9  1  0
 11  3  1  0
 11 10  1  0
 12 11  1  0
 13  7  1  0
 14 13  1  0
 15  8  1  0
 16  6  1  0
 16  8  1  0
 16 13  1  0
 16 15  1  0
 17 13  1  0
 17 15  1  0
 18  6  1  0
 19  7  1  0
 19 18  1  0
 20  6  1  0
 20 18  1  0
 21  1  1  0
 21  2  1  0
 21 10  1  0
 21 20  1  0
 22  9  1  0
 22 20  1  0
M  END
>  <ID>  (1) 
conformer_0

$$$$
