
     RDKit          3D

 23 28  0  0  0  0  0  0  0  0999 V2000
   -3.9092   19.7458   21.5750 C   0  0  0  0  0  0  0  0  0  0  0  0
   -4.1545   22.1614   23.2020 C   0  0  0  0  0  0  0  0  0  0  0  0
   -1.7344   20.1527   21.5290 C   0  0  0  0  0  0  0  0  0  0  0  0
   -2.4142   21.1627   22.4101 C   0  0  0  0  0  0  0  0  0  0  0  0
   -5.2804   20.8608   21.8597 C   0  0  0  0  0  0  0  0  0  0  0  0
   -3.7473   19.5322   23.4996 C   0  0  0  0  0  0  0  0  0  0  0  0
   -9.0506   17.5832   24.9045 C   0  0  0  0  0  0  0  0  0  0  0  0
   -6.5410   19.7422   22.8993 C   0  0  0  0  0  0  0  0  0  0  0  0
   -5.2301   20.9488   23.5269 C   0  0  0  0  0  0  0  0  0  0  0  0
   -2.7003   18.7617   22.8464 C   0  0  0  0  0  0  0  0  0  0  0  0
   -8.5082   16.3129   25.8504 C   0  0  0  0  0  0  0  0  0  0  0  0
   -9.2021   15.3766   26.1098 O   0  0  0  0  0  0  0  0  0  0  0  0
   -3.1917   22.1336   20.4050 O   0  0  0  0  0  0  0  0  0  0  0  0
   -3.1454   21.3447   21.3654 C   0  0  0  0  0  0  0  0  0  0  0  0
   -7.6719   18.1719   23.8194 C   0  0  0  0  0  0  0  0  0  0  0  0
   -5.4232   19.0097   25.1248 C   0  0  0  0  0  0  0  0  0  0  0  0
   -7.2426   19.3270   24.6600 C   0  0  0  0  0  0  0  0  0  0  0  0
   -7.5442   17.5244   25.5337 C   0  0  0  0  0  0  0  0  0  0  0  0
   -3.9766   17.8258   24.7966 C   0  0  0  0  0  0  0  0  0  0  0  0
   -5.4554   16.4536   25.5367 C   0  0  0  0  0  0  0  0  0  0  0  0
   -6.8822   16.0167   26.4681 C   0  0  0  0  0  0  0  0  0  0  0  0
   -5.2072   18.7080   23.4820 C   0  0  0  0  0  0  0  0  0  0  0  0
   -5.7827   17.6269   25.7633 C   0  0  0  0  0  0  0  0  0  0  0  0
  4  3  1  0
  5  1  1  0
  6  1  1  0
  9  2  1  0
  9  5  1  0
  9  8  1  0
 10  6  1  0
 11  7  1  0
 12 11  1  0
 14  1  1  0
 14  4  1  0
 14 13  2  0
 15  7  1  0
 17  8  1  0
 17 15  1  0
 17 16  1  0
 18  7  1  0
 18 11  1  0
 18 15  1  0
 19 16  1  0
 21 11  1  0
 21 20  1  0
 22  6  1  0
 22  8  1  0
 22 16  1  0
 23 16  1  0
 23 18  1  0
 23 20  1  0
M  END
>  <ID>  (1) 
conformer_0

$$$$
