
     RDKit          3D

 24 32  0  0  0  0  0  0  0  0999 V2000
   -3.9779   22.0118   22.7417 C   0  0  0  0  0  0  0  0  0  0  0  0
   -5.1674   20.8246   21.3673 C   0  0  0  0  0  0  0  0  0  0  0  0
   -1.9702   21.0110   22.5454 C   0  0  0  0  0  0  0  0  0  0  0  0
   -1.5994   19.8747   21.9732 C   0  0  0  0  0  0  0  0  0  0  0  0
   -3.5981   19.9186   22.7253 C   0  0  0  0  0  0  0  0  0  0  0  0
   -5.5705   21.5627   22.6952 C   0  0  0  0  0  0  0  0  0  0  0  0
   -2.2133   18.8191   23.3209 C   0  0  0  0  0  0  0  0  0  0  0  0
   -6.2099   19.8154   22.4740 C   0  0  0  0  0  0  0  0  0  0  0  0
   -7.9661   17.9333   23.6725 C   0  0  0  0  0  0  0  0  0  0  0  0
   -6.9046   19.8666   24.0585 C   0  0  0  0  0  0  0  0  0  0  0  0
   -4.6711   19.8102   23.7703 C   0  0  0  0  0  0  0  0  0  0  0  0
   -9.0350   15.1828   25.9006 O   0  0  0  0  0  0  0  0  0  0  0  0
   -9.0191   16.4303   25.8461 C   0  0  0  0  0  0  0  0  0  0  0  0
   -2.8829   22.2179   20.7876 O   0  0  0  0  0  0  0  0  0  0  0  0
   -2.9785   21.6863   21.6215 C   0  0  0  0  0  0  0  0  0  0  0  0
  -10.3624   16.4462   26.6047 O   0  0  0  0  0  0  0  0  0  0  0  0
   -6.0538   18.5606   23.9993 C   0  0  0  0  0  0  0  0  0  0  0  0
   -5.6578   18.4044   25.5331 C   0  0  0  0  0  0  0  0  0  0  0  0
   -7.2393   16.9124   26.0184 C   0  0  0  0  0  0  0  0  0  0  0  0
   -3.5204   18.3757   23.9151 C   0  0  0  0  0  0  0  0  0  0  0  0
   -4.2347   17.5094   24.9519 C   0  0  0  0  0  0  0  0  0  0  0  0
   -5.8691   16.6868   25.5922 C   0  0  0  0  0  0  0  0  0  0  0  0
   -8.9648   17.3620   24.6978 C   0  0  0  0  0  0  0  0  0  0  0  0
   -7.7133   18.5351   25.2975 C   0  0  0  0  0  0  0  0  0  0  0  0
  4  3  1  0
  5  3  1  0
  6  1  1  0
  6  2  1  0
  7  4  1  0
  7  5  1  0
  8  2  1  0
  8  6  1  0
 10  8  1  0
 11  5  1  0
 13 12  1  0
 15  1  1  0
 15  3  1  0
 15 14  2  0
 16 13  1  0
 17 10  1  0
 17 11  1  0
 18 17  1  0
 19 13  1  0
 20  5  1  0
 20  7  1  0
 20 11  1  0
 21 18  1  0
 21 20  1  0
 22 18  1  0
 22 19  1  0
 22 21  1  0
 23  9  1  0
 23 13  1  0
 24  9  1  0
 24 19  1  0
 24 23  1  0
M  END
>  <ID>  (1) 
conformer_0

$$$$
