
     RDKit          3D

 24 27  0  0  0  0  0  0  0  0999 V2000
   -6.8495   18.9868   23.6132 C   0  0  0  0  0  0  0  0  0  0  0  0
   -5.8588   20.4971   21.8490 C   0  0  0  0  0  0  0  0  0  0  0  0
   -5.3549   19.2058   25.0056 C   0  0  0  0  0  0  0  0  0  0  0  0
   -4.8993   19.0984   23.2061 C   0  0  0  0  0  0  0  0  0  0  0  0
   -9.3175   17.4202   25.4269 C   0  0  0  0  0  0  0  0  0  0  0  0
   -8.5761   17.3918   24.3273 C   0  0  0  0  0  0  0  0  0  0  0  0
   -7.7345   19.0576   25.1113 C   0  0  0  0  0  0  0  0  0  0  0  0
   -5.0146   17.5392   25.8676 C   0  0  0  0  0  0  0  0  0  0  0  0
   -6.7159   17.7222   25.1251 C   0  0  0  0  0  0  0  0  0  0  0  0
   -5.9404   16.2404   25.6595 C   0  0  0  0  0  0  0  0  0  0  0  0
   -7.3938   16.5397   26.3500 C   0  0  0  0  0  0  0  0  0  0  0  0
   -3.1730   22.0808   20.2350 O   0  0  0  0  0  0  0  0  0  0  0  0
   -8.3404   16.0355   25.9240 C   0  0  0  0  0  0  0  0  0  0  0  0
   -9.1097   15.0551   26.1698 O   0  0  0  0  0  0  0  0  0  0  0  0
   -2.9408   21.7164   21.3048 C   0  0  0  0  0  0  0  0  0  0  0  0
   -6.3024   20.6100   23.7645 C   0  0  0  0  0  0  0  0  0  0  0  0
   -4.1412   17.5855   24.7250 C   0  0  0  0  0  0  0  0  0  0  0  0
   -4.0018   20.8074   23.2768 C   0  0  0  0  0  0  0  0  0  0  0  0
   -3.2677   18.9224   23.9446 C   0  0  0  0  0  0  0  0  0  0  0  0
   -2.4937   19.5036   22.6336 C   0  0  0  0  0  0  0  0  0  0  0  0
   -4.2167   20.2210   21.5974 C   0  0  0  0  0  0  0  0  0  0  0  0
   -4.7557   22.1257   22.9442 C   0  0  0  0  0  0  0  0  0  0  0  0
   -2.7160   22.2490   22.6910 C   0  0  0  0  0  0  0  0  0  0  0  0
   -1.7773   20.6673   21.8319 C   0  0  0  0  0  0  0  0  0  0  0  0
  4  3  1  0
  6  5  1  0
  7  1  1  0
  8  3  1  0
  9  7  1  0
  9  8  1  0
 10  8  1  0
 10  9  1  0
 11  9  1  0
 11 10  1  0
 13  5  1  0
 13 11  1  0
 14 13  1  0
 15 12  2  0
 16  1  1  0
 16  2  1  0
 17  8  1  0
 18  4  1  0
 19  4  1  0
 19 17  1  0
 20 19  1  0
 21  2  1  0
 21 18  1  0
 22 18  1  0
 23 15  1  0
 24 15  1  0
 24 20  1  0
M  END
>  <ID>  (1) 
conformer_0

$$$$
