
     RDKit          3D

 23 30  0  0  0  0  0  0  0  0999 V2000
   -6.3575   19.3874   23.0022 C   0  0  0  0  0  0  0  0  0  0  0  0
   -8.1071   18.2102   24.1195 C   0  0  0  0  0  0  0  0  0  0  0  0
   -6.8102   18.9475   25.9672 C   0  0  0  0  0  0  0  0  0  0  0  0
   -2.5281   21.2078   22.0445 C   0  0  0  0  0  0  0  0  0  0  0  0
   -5.7764   20.8287   22.0787 C   0  0  0  0  0  0  0  0  0  0  0  0
   -8.5718   17.4904   25.4115 C   0  0  0  0  0  0  0  0  0  0  0  0
   -7.5940   16.3644   26.1249 C   0  0  0  0  0  0  0  0  0  0  0  0
   -6.4774   17.6176   25.1233 C   0  0  0  0  0  0  0  0  0  0  0  0
   -4.2218   20.4605   21.2040 C   0  0  0  0  0  0  0  0  0  0  0  0
   -6.6933   19.7927   24.2461 C   0  0  0  0  0  0  0  0  0  0  0  0
   -9.0865   15.0878   26.9325 O   0  0  0  0  0  0  0  0  0  0  0  0
   -2.9274   21.5366   20.4460 C   0  0  0  0  0  0  0  0  0  0  0  0
   -8.3385   15.8128   26.7078 C   0  0  0  0  0  0  0  0  0  0  0  0
   -3.0123   22.0855   19.5931 O   0  0  0  0  0  0  0  0  0  0  0  0
   -3.9695   22.0695   22.6991 C   0  0  0  0  0  0  0  0  0  0  0  0
   -2.1727   20.1281   21.1197 C   0  0  0  0  0  0  0  0  0  0  0  0
   -2.5218   19.3404   22.9738 C   0  0  0  0  0  0  0  0  0  0  0  0
   -4.9271   20.9573   23.6745 C   0  0  0  0  0  0  0  0  0  0  0  0
   -5.9299   16.4641   25.6986 C   0  0  0  0  0  0  0  0  0  0  0  0
   -5.0653   18.8751   24.8601 C   0  0  0  0  0  0  0  0  0  0  0  0
   -4.0484   19.7239   22.8987 C   0  0  0  0  0  0  0  0  0  0  0  0
   -4.4483   17.2851   25.0117 C   0  0  0  0  0  0  0  0  0  0  0  0
   -3.5253   18.3134   24.0270 C   0  0  0  0  0  0  0  0  0  0  0  0
  5  1  1  0
  6  2  1  0
  7  6  1  0
  8  3  1  0
  9  5  1  0
 10  1  1  0
 10  3  1  0
 12  4  1  0
 12  9  1  0
 13  7  1  0
 13 11  1  0
 14 12  1  0
 15  4  1  0
 16  4  1  0
 16 12  1  0
 18  5  1  0
 18 15  1  0
 19  7  1  0
 19  8  1  0
 20  8  1  0
 20 10  1  0
 21  9  1  0
 21 17  1  0
 21 18  1  0
 22 19  1  0
 22 20  1  0
 23 17  1  0
 23 20  1  0
 23 21  1  0
 23 22  1  0
M  END
>  <ID>  (1) 
conformer_0

$$$$
