
     RDKit          3D

 21 26  0  0  0  0  0  0  0  0999 V2000
   -4.1129   22.1679   22.6950 C   0  0  0  0  0  0  0  0  0  0  0  0
   -2.0907   20.5199   21.7665 C   0  0  0  0  0  0  0  0  0  0  0  0
   -5.6706   21.4480   22.1943 C   0  0  0  0  0  0  0  0  0  0  0  0
   -4.5366   20.4136   21.9946 C   0  0  0  0  0  0  0  0  0  0  0  0
   -6.4257   19.6171   22.6971 C   0  0  0  0  0  0  0  0  0  0  0  0
   -2.1353   19.1592   22.8158 C   0  0  0  0  0  0  0  0  0  0  0  0
   -3.4768   19.9369   23.0959 C   0  0  0  0  0  0  0  0  0  0  0  0
   -7.5246   19.1274   24.0891 C   0  0  0  0  0  0  0  0  0  0  0  0
   -3.5558   18.3570   24.2408 C   0  0  0  0  0  0  0  0  0  0  0  0
   -3.1460   21.9270   21.4251 C   0  0  0  0  0  0  0  0  0  0  0  0
   -3.0032   22.2955   20.5419 O   0  0  0  0  0  0  0  0  0  0  0  0
   -8.4309   15.9940   26.2090 C   0  0  0  0  0  0  0  0  0  0  0  0
   -9.1093   15.0843   26.6158 O   0  0  0  0  0  0  0  0  0  0  0  0
   -5.6631   20.0965   23.9102 C   0  0  0  0  0  0  0  0  0  0  0  0
   -8.7186   17.4258   25.2293 C   0  0  0  0  0  0  0  0  0  0  0  0
   -5.0833   18.6953   24.2682 C   0  0  0  0  0  0  0  0  0  0  0  0
   -6.1242   18.4425   25.5572 C   0  0  0  0  0  0  0  0  0  0  0  0
   -7.4185   17.9130   24.7369 C   0  0  0  0  0  0  0  0  0  0  0  0
   -4.6211   17.1574   25.2567 C   0  0  0  0  0  0  0  0  0  0  0  0
   -5.7745   16.4800   25.5814 C   0  0  0  0  0  0  0  0  0  0  0  0
   -7.2621   16.5610   26.1119 C   0  0  0  0  0  0  0  0  0  0  0  0
  3  1  1  0
  4  1  1  0
  4  3  1  0
  6  2  1  0
  7  4  1  0
  7  6  1  0
  8  5  1  0
  9  7  1  0
 10  1  1  0
 10  2  1  0
 11 10  2  0
 13 12  1  0
 14  5  1  0
 15 12  1  0
 16  9  1  0
 16 14  1  0
 17 16  1  0
 18  8  1  0
 18 15  1  0
 18 17  1  0
 19  9  1  0
 19 16  1  0
 20 19  1  0
 21 12  1  0
 21 18  1  0
 21 20  1  0
M  END
>  <ID>  (1) 
conformer_0

$$$$
