
     RDKit          3D

 23 32  0  0  0  0  0  0  0  0999 V2000
   -5.9673   20.3158   22.8434 C   0  0  0  0  0  0  0  0  0  0  0  0
   -6.8844   19.5145   23.3353 C   0  0  0  0  0  0  0  0  0  0  0  0
   -5.0542   20.8064   21.5146 C   0  0  0  0  0  0  0  0  0  0  0  0
   -9.0106   17.4619   25.2170 C   0  0  0  0  0  0  0  0  0  0  0  0
   -4.7221   19.6683   24.0697 C   0  0  0  0  0  0  0  0  0  0  0  0
   -4.6865   22.0320   22.7325 C   0  0  0  0  0  0  0  0  0  0  0  0
   -3.4588   18.3515   23.6736 C   0  0  0  0  0  0  0  0  0  0  0  0
   -3.8393   20.0747   22.5911 C   0  0  0  0  0  0  0  0  0  0  0  0
   -2.3797   19.4111   23.1239 C   0  0  0  0  0  0  0  0  0  0  0  0
   -2.0125   20.2966   21.7371 C   0  0  0  0  0  0  0  0  0  0  0  0
   -8.6294   16.1575   26.0764 C   0  0  0  0  0  0  0  0  0  0  0  0
   -3.0517   21.3065   21.0303 C   0  0  0  0  0  0  0  0  0  0  0  0
   -3.0170   21.9857   20.1360 O   0  0  0  0  0  0  0  0  0  0  0  0
   -9.0405   15.0999   26.2305 O   0  0  0  0  0  0  0  0  0  0  0  0
   -3.2209   22.0747   22.6512 C   0  0  0  0  0  0  0  0  0  0  0  0
   -7.2546   19.0858   25.2418 C   0  0  0  0  0  0  0  0  0  0  0  0
   -4.0506   17.6110   24.8515 C   0  0  0  0  0  0  0  0  0  0  0  0
   -8.0359   18.1399   23.9705 C   0  0  0  0  0  0  0  0  0  0  0  0
   -5.6799   18.0881   25.6984 C   0  0  0  0  0  0  0  0  0  0  0  0
   -7.2616   17.4217   25.7746 C   0  0  0  0  0  0  0  0  0  0  0  0
   -5.4160   16.4930   25.2925 C   0  0  0  0  0  0  0  0  0  0  0  0
   -6.9225   16.2368   26.4440 C   0  0  0  0  0  0  0  0  0  0  0  0
   -5.7214   18.4121   24.0066 C   0  0  0  0  0  0  0  0  0  0  0  0
  2  1  1  0
  3  1  1  0
  5  1  1  0
  6  3  1  0
  7  5  1  0
  8  3  1  0
  8  5  1  0
  9  7  1  0
  9  8  1  0
 10  9  1  0
 11  4  1  0
 12 10  1  0
 13 12  1  0
 14 11  1  0
 15  6  1  0
 15 12  1  0
 17  7  1  0
 18  2  1  0
 18  4  1  0
 18 16  1  0
 19 17  1  0
 20  4  1  0
 20 16  1  0
 20 19  1  0
 21 17  1  0
 21 19  1  0
 22 11  1  0
 22 20  1  0
 22 21  1  0
 23  2  1  0
 23  5  1  0
 23 19  1  0
M  END
>  <ID>  (1) 
conformer_0

$$$$
