
     RDKit          3D

 22 29  0  0  0  0  0  0  0  0999 V2000
   -5.6739   16.3128   25.4805 C   0  0  0  0  0  0  0  0  0  0  0  0
   -7.2976   19.0713   23.5084 C   0  0  0  0  0  0  0  0  0  0  0  0
   -7.1649   19.0873   25.1731 C   0  0  0  0  0  0  0  0  0  0  0  0
   -7.7564   17.6333   24.2869 C   0  0  0  0  0  0  0  0  0  0  0  0
   -7.1287   16.5323   26.1908 C   0  0  0  0  0  0  0  0  0  0  0  0
   -9.0185   17.7968   24.9323 C   0  0  0  0  0  0  0  0  0  0  0  0
   -4.3555   17.1833   25.0857 C   0  0  0  0  0  0  0  0  0  0  0  0
   -6.0542   19.9198   22.6526 C   0  0  0  0  0  0  0  0  0  0  0  0
   -5.7025   17.9540   25.4393 C   0  0  0  0  0  0  0  0  0  0  0  0
   -5.2497   18.5682   24.0868 C   0  0  0  0  0  0  0  0  0  0  0  0
   -9.0796   15.3007   25.5746 O   0  0  0  0  0  0  0  0  0  0  0  0
   -8.3953   16.3224   25.4827 C   0  0  0  0  0  0  0  0  0  0  0  0
   -3.2327   22.4505   20.5346 O   0  0  0  0  0  0  0  0  0  0  0  0
   -3.2053   21.6800   21.4086 C   0  0  0  0  0  0  0  0  0  0  0  0
   -5.1441   20.9344   21.2559 C   0  0  0  0  0  0  0  0  0  0  0  0
   -5.3230   20.1697   24.4579 C   0  0  0  0  0  0  0  0  0  0  0  0
   -4.4864   20.7725   22.5984 C   0  0  0  0  0  0  0  0  0  0  0  0
   -3.4104   18.4429   23.8657 C   0  0  0  0  0  0  0  0  0  0  0  0
   -3.5636   19.7016   23.1888 C   0  0  0  0  0  0  0  0  0  0  0  0
   -4.1783   22.0186   23.3005 C   0  0  0  0  0  0  0  0  0  0  0  0
   -2.0727   19.7942   22.1921 C   0  0  0  0  0  0  0  0  0  0  0  0
   -2.2849   21.7109   22.2657 C   0  0  0  0  0  0  0  0  0  0  0  0
  3  2  1  0
  4  2  1  0
  4  3  1  0
  5  1  1  0
  6  4  1  0
  7  1  1  0
  8  2  1  0
  9  1  1  0
  9  3  1  0
  9  7  1  0
 10  7  1  0
 10  9  1  0
 12  4  1  0
 12  5  1  0
 12  6  1  0
 12 11  1  0
 14 13  2  0
 15  8  1  0
 16  8  1  0
 16 10  1  0
 17  8  1  0
 17 15  1  0
 18 10  1  0
 19 17  1  0
 19 18  1  0
 20 17  1  0
 21 19  1  0
 22 14  1  0
 22 21  1  0
M  END
>  <ID>  (1) 
conformer_0

$$$$
