
     RDKit          3D

 19 23  0  0  0  0  0  0  0  0999 V2000
   -8.3613   17.7992   24.5745 C   0  0  0  0  0  0  0  0  0  0  0  0
   -3.5995   22.0388   22.8260 C   0  0  0  0  0  0  0  0  0  0  0  0
   -5.2624   20.6449   21.6914 C   0  0  0  0  0  0  0  0  0  0  0  0
   -4.6857   21.4518   22.8073 C   0  0  0  0  0  0  0  0  0  0  0  0
   -2.7346   19.6105   22.9724 C   0  0  0  0  0  0  0  0  0  0  0  0
   -2.2333   20.3199   22.1028 C   0  0  0  0  0  0  0  0  0  0  0  0
   -4.3180   19.7831   23.5974 C   0  0  0  0  0  0  0  0  0  0  0  0
   -6.5339   19.0233   25.7521 C   0  0  0  0  0  0  0  0  0  0  0  0
   -3.7691   18.3968   24.1907 C   0  0  0  0  0  0  0  0  0  0  0  0
   -5.2136   18.3054   24.7502 C   0  0  0  0  0  0  0  0  0  0  0  0
   -8.3376   16.1362   25.9151 C   0  0  0  0  0  0  0  0  0  0  0  0
   -3.0491   21.3785   21.2115 C   0  0  0  0  0  0  0  0  0  0  0  0
   -9.0443   15.2559   25.7979 O   0  0  0  0  0  0  0  0  0  0  0  0
   -6.8026   18.8668   23.7788 C   0  0  0  0  0  0  0  0  0  0  0  0
   -5.9444   19.7962   23.0508 C   0  0  0  0  0  0  0  0  0  0  0  0
   -3.2009   21.7974   20.4479 O   0  0  0  0  0  0  0  0  0  0  0  0
   -7.7342   17.9395   25.5713 C   0  0  0  0  0  0  0  0  0  0  0  0
   -5.1167   16.9512   25.0221 C   0  0  0  0  0  0  0  0  0  0  0  0
   -6.5171   16.5644   25.5071 C   0  0  0  0  0  0  0  0  0  0  0  0
  4  2  1  0
  4  3  1  0
  6  5  2  0
  7  4  1  0
  7  5  1  0
  9  7  1  0
 10  8  1  0
 10  9  1  0
 12  2  1  0
 12  6  1  0
 13 11  1  0
 14 10  1  0
 15  3  1  0
 15  7  1  0
 15 14  1  0
 16 12  2  0
 17  1  1  0
 17  8  1  0
 17 11  1  0
 18 10  1  0
 19 11  1  0
 19 17  1  0
 19 18  1  0
M  END
>  <ID>  (1) 
conformer_0

$$$$
