
     RDKit          3D

 21 25  0  0  0  0  0  0  0  0999 V2000
   -8.0641   17.8732   24.0693 C   0  0  0  0  0  0  0  0  0  0  0  0
   -9.0112   17.4417   25.3135 C   0  0  0  0  0  0  0  0  0  0  0  0
   -6.8148   19.5540   23.9613 C   0  0  0  0  0  0  0  0  0  0  0  0
   -7.7513   19.2377   25.4346 C   0  0  0  0  0  0  0  0  0  0  0  0
   -4.7754   18.9638   24.1481 C   0  0  0  0  0  0  0  0  0  0  0  0
   -4.7625   17.3807   25.5431 C   0  0  0  0  0  0  0  0  0  0  0  0
   -5.8187   16.7931   24.7252 C   0  0  0  0  0  0  0  0  0  0  0  0
   -7.0684   16.8123   25.8611 C   0  0  0  0  0  0  0  0  0  0  0  0
   -5.8627   19.4910   22.8931 C   0  0  0  0  0  0  0  0  0  0  0  0
   -9.0269   15.1594   26.0333 O   0  0  0  0  0  0  0  0  0  0  0  0
   -2.9798   22.2866   20.3553 O   0  0  0  0  0  0  0  0  0  0  0  0
   -8.6770   16.3536   25.8001 C   0  0  0  0  0  0  0  0  0  0  0  0
   -2.9279   21.6161   21.2061 C   0  0  0  0  0  0  0  0  0  0  0  0
   -3.6570   18.2394   24.1307 C   0  0  0  0  0  0  0  0  0  0  0  0
   -3.6760   19.9167   22.7929 C   0  0  0  0  0  0  0  0  0  0  0  0
   -4.7256   20.6037   21.5396 C   0  0  0  0  0  0  0  0  0  0  0  0
   -4.8025   21.3153   23.2190 C   0  0  0  0  0  0  0  0  0  0  0  0
   -3.3631   22.1363   22.8250 C   0  0  0  0  0  0  0  0  0  0  0  0
   -2.2368   19.4497   22.9603 C   0  0  0  0  0  0  0  0  0  0  0  0
   -1.9637   20.7093   21.8844 C   0  0  0  0  0  0  0  0  0  0  0  0
   -6.3280   18.4704   25.0642 C   0  0  0  0  0  0  0  0  0  0  0  0
  2  1  1  0
  4  1  1  0
  4  3  1  0
  7  6  1  0
  8  7  1  0
  9  3  1  0
  9  5  1  0
 12  2  1  0
 12  8  1  0
 12 10  1  0
 13 11  2  0
 14  5  1  0
 15  5  1  0
 16 15  1  0
 17 15  1  0
 17 16  1  0
 18 13  1  0
 18 17  1  0
 19 15  1  0
 20 13  1  0
 20 19  1  0
 21  3  1  0
 21  4  1  0
 21  5  1  0
 21  7  1  0
M  END
>  <ID>  (1) 
conformer_0

$$$$
