
     RDKit          3D

 23 25  0  0  0  0  0  0  0  0999 V2000
   -6.8557   18.0696   24.1366 C   0  0  0  0  0  0  0  0  0  0  0  0
   -2.0773   21.7919   22.3889 C   0  0  0  0  0  0  0  0  0  0  0  0
   -5.6953   18.9607   24.9974 C   0  0  0  0  0  0  0  0  0  0  0  0
   -6.5958   17.5979   26.3443 C   0  0  0  0  0  0  0  0  0  0  0  0
   -4.5586   19.2396   23.0146 C   0  0  0  0  0  0  0  0  0  0  0  0
   -3.8313   20.3617   23.5814 C   0  0  0  0  0  0  0  0  0  0  0  0
   -5.3984   20.3859   21.4667 C   0  0  0  0  0  0  0  0  0  0  0  0
   -2.6390   20.2180   21.4391 C   0  0  0  0  0  0  0  0  0  0  0  0
   -3.3270   18.5050   24.1604 C   0  0  0  0  0  0  0  0  0  0  0  0
   -2.3041   19.6950   22.7643 C   0  0  0  0  0  0  0  0  0  0  0  0
   -8.2317   15.9386   25.8696 C   0  0  0  0  0  0  0  0  0  0  0  0
   -3.5270   22.1866   20.2366 O   0  0  0  0  0  0  0  0  0  0  0  0
   -3.5434   21.6973   21.2291 C   0  0  0  0  0  0  0  0  0  0  0  0
   -7.9853   18.5680   25.1086 C   0  0  0  0  0  0  0  0  0  0  0  0
   -8.7612   17.0068   24.6501 C   0  0  0  0  0  0  0  0  0  0  0  0
   -8.5981   15.4631   26.6420 O   0  0  0  0  0  0  0  0  0  0  0  0
   -4.4597   17.8820   25.0903 C   0  0  0  0  0  0  0  0  0  0  0  0
   -5.0394   16.6958   25.4374 C   0  0  0  0  0  0  0  0  0  0  0  0
   -6.8749   16.4088   25.5978 C   0  0  0  0  0  0  0  0  0  0  0  0
   -6.8364   19.5468   22.9522 C   0  0  0  0  0  0  0  0  0  0  0  0
   -6.0943   20.4442   23.7180 C   0  0  0  0  0  0  0  0  0  0  0  0
   -4.1044   21.9244   22.7842 C   0  0  0  0  0  0  0  0  0  0  0  0
   -5.9148   21.6402   22.1293 C   0  0  0  0  0  0  0  0  0  0  0  0
  3  1  1  0
  6  5  1  0
  8  2  1  0
  9  5  1  0
 10  6  1  0
 10  8  1  0
 13  2  1  0
 13  8  1  0
 13 12  1  0
 14  1  1  0
 15 11  1  0
 15 14  1  0
 16 11  1  0
 17  3  1  0
 17  9  1  0
 18 17  1  0
 19  4  1  0
 19 11  1  0
 19 18  1  0
 20  1  1  0
 21 20  1  0
 22  6  1  0
 22 13  1  0
 23  7  1  0
 23 22  1  0
M  END
>  <ID>  (1) 
conformer_0

$$$$
