
     RDKit          3D

 23 31  0  0  0  0  0  0  0  0999 V2000
   -5.3033   20.8011   21.3807 C   0  0  0  0  0  0  0  0  0  0  0  0
   -2.1869   20.0739   21.9928 C   0  0  0  0  0  0  0  0  0  0  0  0
   -2.3321   19.0466   23.2347 C   0  0  0  0  0  0  0  0  0  0  0  0
   -4.6777   21.8608   22.7287 C   0  0  0  0  0  0  0  0  0  0  0  0
   -2.8101   21.9713   22.8053 C   0  0  0  0  0  0  0  0  0  0  0  0
   -3.9763   19.8078   22.0256 C   0  0  0  0  0  0  0  0  0  0  0  0
   -3.5792   18.3714   24.2437 C   0  0  0  0  0  0  0  0  0  0  0  0
   -6.7677   19.6287   25.0069 C   0  0  0  0  0  0  0  0  0  0  0  0
   -4.1589   19.8058   23.6925 C   0  0  0  0  0  0  0  0  0  0  0  0
   -6.1382   20.6287   23.1210 C   0  0  0  0  0  0  0  0  0  0  0  0
   -6.9174   16.9988   26.1327 C   0  0  0  0  0  0  0  0  0  0  0  0
   -8.0927   16.2026   25.9101 C   0  0  0  0  0  0  0  0  0  0  0  0
   -8.5462   15.4196   26.7995 O   0  0  0  0  0  0  0  0  0  0  0  0
   -3.0329   21.5559   21.4048 C   0  0  0  0  0  0  0  0  0  0  0  0
   -3.1474   22.1062   20.2960 O   0  0  0  0  0  0  0  0  0  0  0  0
   -5.5492   18.5036   23.9733 C   0  0  0  0  0  0  0  0  0  0  0  0
   -5.9664   16.2934   25.6979 C   0  0  0  0  0  0  0  0  0  0  0  0
   -4.6187   17.1217   25.1475 C   0  0  0  0  0  0  0  0  0  0  0  0
   -5.4914   18.4947   25.7443 C   0  0  0  0  0  0  0  0  0  0  0  0
   -6.4637   19.4468   22.6246 C   0  0  0  0  0  0  0  0  0  0  0  0
   -7.8251   18.4078   23.5619 C   0  0  0  0  0  0  0  0  0  0  0  0
   -7.5460   18.1865   25.1644 C   0  0  0  0  0  0  0  0  0  0  0  0
   -8.9103   17.0933   24.3353 C   0  0  0  0  0  0  0  0  0  0  0  0
  3  2  1  0
  4  1  1  0
  5  4  1  0
  6  1  1  0
  6  2  1  0
  7  3  1  0
  9  6  1  0
  9  7  1  0
 10  1  1  0
 10  4  1  0
 12 11  1  0
 13 12  1  0
 14  2  1  0
 14  5  1  0
 15 14  2  0
 16  8  1  0
 16  9  1  0
 17 11  1  0
 18  7  1  0
 18 17  1  0
 19  8  1  0
 19 16  1  0
 19 18  1  0
 20 10  1  0
 20 16  1  0
 21 20  1  0
 22  8  1  0
 22 11  1  0
 22 21  1  0
 23 21  1  0
 23 22  1  0
M  END
>  <ID>  (1) 
conformer_0

$$$$
