
     RDKit          3D

 23 27  0  0  0  0  0  0  0  0999 V2000
   -3.6771   20.1253   23.1176 C   0  0  0  0  0  0  0  0  0  0  0  0
   -4.7838   19.1699   23.4853 C   0  0  0  0  0  0  0  0  0  0  0  0
   -2.0085   20.1506   21.8601 C   0  0  0  0  0  0  0  0  0  0  0  0
   -5.1091   20.5290   21.3597 C   0  0  0  0  0  0  0  0  0  0  0  0
   -7.1224   16.9682   26.2027 C   0  0  0  0  0  0  0  0  0  0  0  0
   -2.2337   19.1669   23.2000 C   0  0  0  0  0  0  0  0  0  0  0  0
   -3.4302   18.3931   24.1776 C   0  0  0  0  0  0  0  0  0  0  0  0
   -4.3578   17.2708   24.8129 C   0  0  0  0  0  0  0  0  0  0  0  0
   -5.4073   18.3965   25.5106 C   0  0  0  0  0  0  0  0  0  0  0  0
   -5.7354   16.5179   25.6859 C   0  0  0  0  0  0  0  0  0  0  0  0
   -3.2311   21.7502   19.9874 O   0  0  0  0  0  0  0  0  0  0  0  0
   -8.8937   15.6537   26.5882 O   0  0  0  0  0  0  0  0  0  0  0  0
   -3.2375   21.3374   21.0399 C   0  0  0  0  0  0  0  0  0  0  0  0
   -8.4100   16.5690   25.9852 C   0  0  0  0  0  0  0  0  0  0  0  0
   -6.7077   19.3791   22.8333 C   0  0  0  0  0  0  0  0  0  0  0  0
   -8.1679   18.0452   23.7603 C   0  0  0  0  0  0  0  0  0  0  0  0
   -8.8619   17.3399   24.8751 C   0  0  0  0  0  0  0  0  0  0  0  0
   -6.7093   18.0817   24.4681 C   0  0  0  0  0  0  0  0  0  0  0  0
   -7.3850   19.0728   25.6903 C   0  0  0  0  0  0  0  0  0  0  0  0
   -6.1474   20.0391   24.2373 C   0  0  0  0  0  0  0  0  0  0  0  0
   -5.8234   21.1774   22.4738 C   0  0  0  0  0  0  0  0  0  0  0  0
   -4.1708   21.7981   22.7016 C   0  0  0  0  0  0  0  0  0  0  0  0
   -2.0164   21.5689   22.1802 C   0  0  0  0  0  0  0  0  0  0  0  0
  2  1  1  0
  6  1  1  0
  6  3  1  0
  7  2  1  0
  7  6  1  0
  8  7  1  0
  9  8  1  0
 10  5  1  0
 10  8  1  0
 10  9  1  0
 13  3  1  0
 13 11  1  0
 14  5  1  0
 14 12  1  0
 17 14  1  0
 17 16  1  0
 18  9  1  0
 18 16  1  0
 19 18  1  0
 20  2  1  0
 20 15  1  0
 21  4  1  0
 22  1  1  0
 22 13  1  0
 22 21  1  0
 23  3  1  0
 23 13  1  0
M  END
>  <ID>  (1) 
conformer_0

$$$$
