
     RDKit          3D

 22 25  0  0  0  0  0  0  0  0999 V2000
   -6.8040   19.6794   23.0649 C   0  0  0  0  0  0  0  0  0  0  0  0
   -6.7335   20.0251   24.8956 C   0  0  0  0  0  0  0  0  0  0  0  0
   -7.8095   18.9081   25.5781 C   0  0  0  0  0  0  0  0  0  0  0  0
   -5.4324   21.3581   22.6947 C   0  0  0  0  0  0  0  0  0  0  0  0
   -8.0172   17.9324   23.7120 C   0  0  0  0  0  0  0  0  0  0  0  0
   -4.5356   20.3190   21.6855 C   0  0  0  0  0  0  0  0  0  0  0  0
   -5.4361   19.2366   23.3606 C   0  0  0  0  0  0  0  0  0  0  0  0
   -2.3710   20.2946   22.3557 C   0  0  0  0  0  0  0  0  0  0  0  0
   -2.7345   18.9416   23.4183 C   0  0  0  0  0  0  0  0  0  0  0  0
   -3.0100   21.6729   21.5645 C   0  0  0  0  0  0  0  0  0  0  0  0
   -8.7361   15.3132   26.1293 O   0  0  0  0  0  0  0  0  0  0  0  0
   -2.7509   22.1166   20.7169 O   0  0  0  0  0  0  0  0  0  0  0  0
   -3.5859   22.3593   22.7326 C   0  0  0  0  0  0  0  0  0  0  0  0
   -8.1854   16.2655   25.7629 C   0  0  0  0  0  0  0  0  0  0  0  0
   -8.9328   17.3477   25.0046 C   0  0  0  0  0  0  0  0  0  0  0  0
   -7.0494   16.7836   25.9761 C   0  0  0  0  0  0  0  0  0  0  0  0
   -6.6875   17.6477   24.5298 C   0  0  0  0  0  0  0  0  0  0  0  0
   -4.0704   19.9683   23.6214 C   0  0  0  0  0  0  0  0  0  0  0  0
   -3.6549   18.2355   24.5343 C   0  0  0  0  0  0  0  0  0  0  0  0
   -5.7000   16.1321   25.5910 C   0  0  0  0  0  0  0  0  0  0  0  0
   -4.5017   16.9142   25.0777 C   0  0  0  0  0  0  0  0  0  0  0  0
   -5.3870   18.4829   25.0630 C   0  0  0  0  0  0  0  0  0  0  0  0
  2  1  1  0
  3  2  1  0
  6  4  1  0
  7  1  1  0
  9  8  1  0
 10  8  1  0
 12 10  2  0
 13 10  1  0
 14 11  1  0
 15  5  1  0
 15 14  1  0
 16 14  1  0
 17  5  1  0
 17 16  1  0
 18  6  1  0
 18  7  1  0
 18  9  1  0
 19  9  1  0
 20 16  1  0
 21 19  1  0
 21 20  1  0
 22  7  1  0
 22 17  1  0
 22 19  1  0
 22 21  1  0
M  END
>  <ID>  (1) 
conformer_0

$$$$
