
     RDKit          3D

 24 34  0  0  0  0  0  0  0  0999 V2000
   -5.1807   19.7231   23.6174 C   0  0  0  0  0  0  0  0  0  0  0  0
   -6.3306   19.9093   22.3056 C   0  0  0  0  0  0  0  0  0  0  0  0
   -6.5505   17.1496   26.3658 C   0  0  0  0  0  0  0  0  0  0  0  0
   -5.5098   21.5636   22.5544 C   0  0  0  0  0  0  0  0  0  0  0  0
   -4.9196   20.8842   21.1353 C   0  0  0  0  0  0  0  0  0  0  0  0
   -3.7188   20.0640   22.4324 C   0  0  0  0  0  0  0  0  0  0  0  0
   -3.5418   21.9567   22.6853 C   0  0  0  0  0  0  0  0  0  0  0  0
   -8.2809   18.1405   25.2885 C   0  0  0  0  0  0  0  0  0  0  0  0
   -2.3082   19.1174   23.1601 C   0  0  0  0  0  0  0  0  0  0  0  0
   -2.2216   20.5097   21.8919 C   0  0  0  0  0  0  0  0  0  0  0  0
   -8.6666   15.6444   26.4651 O   0  0  0  0  0  0  0  0  0  0  0  0
   -9.3602   16.9063   24.6199 C   0  0  0  0  0  0  0  0  0  0  0  0
   -3.2307   22.3201   20.0951 O   0  0  0  0  0  0  0  0  0  0  0  0
   -8.3339   16.5219   25.7223 C   0  0  0  0  0  0  0  0  0  0  0  0
   -3.2528   21.5530   20.8508 C   0  0  0  0  0  0  0  0  0  0  0  0
   -3.5463   19.1370   24.1518 C   0  0  0  0  0  0  0  0  0  0  0  0
   -6.6668   16.5374   24.9896 C   0  0  0  0  0  0  0  0  0  0  0  0
   -3.7056   17.6538   24.3431 C   0  0  0  0  0  0  0  0  0  0  0  0
   -4.9032   16.4111   25.1343 C   0  0  0  0  0  0  0  0  0  0  0  0
   -4.9647   18.1576   25.7003 C   0  0  0  0  0  0  0  0  0  0  0  0
   -5.9021   18.2774   24.1170 C   0  0  0  0  0  0  0  0  0  0  0  0
   -7.8274   17.9977   23.8271 C   0  0  0  0  0  0  0  0  0  0  0  0
   -7.0953   19.8002   24.0841 C   0  0  0  0  0  0  0  0  0  0  0  0
   -6.5579   19.0379   25.9214 C   0  0  0  0  0  0  0  0  0  0  0  0
  2  1  1  0
  4  2  1  0
  5  4  1  0
  6  1  1  0
  7  6  1  0
  9  6  1  0
 10  6  1  0
 10  9  1  0
 12  8  1  0
 14  8  1  0
 14 11  1  0
 14 12  1  0
 15  5  1  0
 15  7  1  0
 15 10  1  0
 15 13  1  0
 16  1  1  0
 16  9  1  0
 17  3  1  0
 17 14  1  0
 18 16  1  0
 19 17  1  0
 19 18  1  0
 20 18  1  0
 20 19  1  0
 21  1  1  0
 21 20  1  0
 22  8  1  0
 22 21  1  0
 23  2  1  0
 23 21  1  0
 23 22  1  0
 24  3  1  0
 24 20  1  0
M  END
>  <ID>  (1) 
conformer_0

$$$$
