
     RDKit          3D

 23 31  0  0  0  0  0  0  0  0999 V2000
   -4.1523   20.7262   21.4009 C   0  0  0  0  0  0  0  0  0  0  0  0
   -5.7731   20.4459   22.1547 C   0  0  0  0  0  0  0  0  0  0  0  0
   -7.3770   18.1796   25.6068 C   0  0  0  0  0  0  0  0  0  0  0  0
   -6.5812   19.0606   22.9840 C   0  0  0  0  0  0  0  0  0  0  0  0
   -8.9159   17.3061   24.9990 C   0  0  0  0  0  0  0  0  0  0  0  0
   -8.2359   17.9926   23.9093 C   0  0  0  0  0  0  0  0  0  0  0  0
   -7.1807   19.4319   24.4622 C   0  0  0  0  0  0  0  0  0  0  0  0
   -4.4533   22.1589   22.8126 C   0  0  0  0  0  0  0  0  0  0  0  0
   -2.5221   19.2744   23.0127 C   0  0  0  0  0  0  0  0  0  0  0  0
   -8.5246   15.9926   26.0950 C   0  0  0  0  0  0  0  0  0  0  0  0
   -2.7014   22.1866   22.5530 C   0  0  0  0  0  0  0  0  0  0  0  0
   -2.0357   20.3416   21.9590 C   0  0  0  0  0  0  0  0  0  0  0  0
   -9.1853   15.0898   26.3390 O   0  0  0  0  0  0  0  0  0  0  0  0
   -2.6668   21.7958   19.9637 O   0  0  0  0  0  0  0  0  0  0  0  0
   -2.8498   21.5317   20.7771 C   0  0  0  0  0  0  0  0  0  0  0  0
   -5.2956   19.6690   23.8771 C   0  0  0  0  0  0  0  0  0  0  0  0
   -5.2898   18.8731   25.6819 C   0  0  0  0  0  0  0  0  0  0  0  0
   -3.8917   20.5765   23.2694 C   0  0  0  0  0  0  0  0  0  0  0  0
   -3.8668   18.8166   23.8392 C   0  0  0  0  0  0  0  0  0  0  0  0
   -4.0243   17.7192   25.1185 C   0  0  0  0  0  0  0  0  0  0  0  0
   -6.0424   17.4557   24.7958 C   0  0  0  0  0  0  0  0  0  0  0  0
   -7.1790   16.1677   26.0702 C   0  0  0  0  0  0  0  0  0  0  0  0
   -5.5570   16.6416   25.9886 C   0  0  0  0  0  0  0  0  0  0  0  0
  2  1  1  0
  4  2  1  0
  5  3  1  0
  6  3  1  0
  6  5  1  0
  7  3  1  0
  7  4  1  0
  7  6  1  0
 10  5  1  0
 11  8  1  0
 12  9  1  0
 13 10  1  0
 15  1  1  0
 15 11  1  0
 15 12  1  0
 15 14  1  0
 16  2  1  0
 16  4  1  0
 18  1  1  0
 18  8  1  0
 18 16  1  0
 19  9  1  0
 19 16  1  0
 19 18  1  0
 20 17  1  0
 20 19  1  0
 21  3  1  0
 21 17  1  0
 22 10  1  0
 23 21  1  0
 23 22  1  0
M  END
>  <ID>  (1) 
conformer_0

$$$$
