
     RDKit          3D

 24 30  0  0  0  0  0  0  0  0999 V2000
   -6.0590   19.8472   22.4470 C   0  0  0  0  0  0  0  0  0  0  0  0
   -7.0305   20.1708   23.9853 C   0  0  0  0  0  0  0  0  0  0  0  0
   -7.2213   19.4754   25.7388 C   0  0  0  0  0  0  0  0  0  0  0  0
   -7.9520   18.3715   23.9435 C   0  0  0  0  0  0  0  0  0  0  0  0
   -6.6613   16.4976   26.3006 C   0  0  0  0  0  0  0  0  0  0  0  0
   -7.2357   16.9070   24.6398 C   0  0  0  0  0  0  0  0  0  0  0  0
   -5.0284   16.6939   25.2177 C   0  0  0  0  0  0  0  0  0  0  0  0
   -4.0948   19.8839   21.7163 C   0  0  0  0  0  0  0  0  0  0  0  0
   -5.6189   21.6881   23.1087 C   0  0  0  0  0  0  0  0  0  0  0  0
   -6.0486   18.4790   23.6800 C   0  0  0  0  0  0  0  0  0  0  0  0
   -8.7331   15.8194   26.9195 O   0  0  0  0  0  0  0  0  0  0  0  0
   -8.2455   16.3959   25.9086 C   0  0  0  0  0  0  0  0  0  0  0  0
   -2.9757   21.1503   20.9170 C   0  0  0  0  0  0  0  0  0  0  0  0
   -2.8353   21.5384   20.0955 O   0  0  0  0  0  0  0  0  0  0  0  0
   -9.0214   17.4080   24.9534 C   0  0  0  0  0  0  0  0  0  0  0  0
   -5.7041   18.0750   25.4442 C   0  0  0  0  0  0  0  0  0  0  0  0
   -3.7250   18.2828   25.0743 C   0  0  0  0  0  0  0  0  0  0  0  0
   -5.0344   19.9206   24.2050 C   0  0  0  0  0  0  0  0  0  0  0  0
   -3.3709   20.3688   23.0947 C   0  0  0  0  0  0  0  0  0  0  0  0
   -3.7684   18.5488   23.6930 C   0  0  0  0  0  0  0  0  0  0  0  0
   -1.8444   20.5092   21.7474 C   0  0  0  0  0  0  0  0  0  0  0  0
   -2.0604   19.2024   23.0803 C   0  0  0  0  0  0  0  0  0  0  0  0
   -5.0861   21.4097   21.4941 C   0  0  0  0  0  0  0  0  0  0  0  0
   -3.8317   22.2059   22.4762 C   0  0  0  0  0  0  0  0  0  0  0  0
  2  1  1  0
  3  2  1  0
  6  4  1  0
  6  5  1  0
  7  5  1  0
 10  1  1  0
 10  4  1  0
 12  5  1  0
 12  6  1  0
 12 11  1  0
 13  8  1  0
 14 13  2  0
 15  4  1  0
 15  6  1  0
 15 12  1  0
 16  7  1  0
 16 10  1  0
 18 10  1  0
 19  8  1  0
 20 17  1  0
 20 18  1  0
 20 19  1  0
 21 13  1  0
 22 19  1  0
 22 20  1  0
 22 21  1  0
 23  8  1  0
 23  9  1  0
 24  9  1  0
 24 23  1  0
M  END
>  <ID>  (1) 
conformer_0

$$$$
