
     RDKit          3D

 21 23  0  0  0  0  0  0  0  0999 V2000
   -5.4307   20.8019   22.4947 C   0  0  0  0  0  0  0  0  0  0  0  0
   -6.6182   19.6750   24.1942 C   0  0  0  0  0  0  0  0  0  0  0  0
   -4.2631   20.1763   21.6383 C   0  0  0  0  0  0  0  0  0  0  0  0
   -3.1851   21.9464   22.5543 C   0  0  0  0  0  0  0  0  0  0  0  0
   -1.8572   20.3925   21.7303 C   0  0  0  0  0  0  0  0  0  0  0  0
   -2.4567   19.3954   22.6453 C   0  0  0  0  0  0  0  0  0  0  0  0
   -3.7423   18.3100   24.3313 C   0  0  0  0  0  0  0  0  0  0  0  0
   -3.6140   20.1226   23.3819 C   0  0  0  0  0  0  0  0  0  0  0  0
   -6.2839   19.3666   22.7140 C   0  0  0  0  0  0  0  0  0  0  0  0
   -2.7824   21.2259   20.8541 C   0  0  0  0  0  0  0  0  0  0  0  0
   -8.2438   16.7091   26.0029 C   0  0  0  0  0  0  0  0  0  0  0  0
   -3.0272   21.4570   19.8933 O   0  0  0  0  0  0  0  0  0  0  0  0
   -8.9414   16.0199   26.5157 O   0  0  0  0  0  0  0  0  0  0  0  0
   -8.9359   17.3053   24.6891 C   0  0  0  0  0  0  0  0  0  0  0  0
   -7.8805   18.1430   23.8966 C   0  0  0  0  0  0  0  0  0  0  0  0
   -5.2411   18.3413   25.7356 C   0  0  0  0  0  0  0  0  0  0  0  0
   -7.2042   18.5667   26.0461 C   0  0  0  0  0  0  0  0  0  0  0  0
   -4.8815   16.8104   25.2568 C   0  0  0  0  0  0  0  0  0  0  0  0
   -6.4032   17.6134   24.6105 C   0  0  0  0  0  0  0  0  0  0  0  0
   -6.8222   16.6053   26.1059 C   0  0  0  0  0  0  0  0  0  0  0  0
   -4.8500   18.8082   23.6288 C   0  0  0  0  0  0  0  0  0  0  0  0
  3  1  1  0
  6  5  1  0
  8  3  1  0
  8  6  1  0
  9  1  1  0
  9  2  1  0
 10  4  1  0
 10  5  1  0
 12 10  2  0
 13 11  1  0
 14 11  1  0
 15  2  1  0
 15 14  1  0
 18 16  1  0
 19 15  1  0
 19 16  1  0
 19 18  1  0
 20 11  1  0
 20 17  1  0
 20 19  1  0
 21  7  1  0
 21  8  1  0
 21  9  1  0
M  END
>  <ID>  (1) 
conformer_0

$$$$
