
     RDKit          3D

 23 29  0  0  0  0  0  0  0  0999 V2000
   -6.4428   19.7411   22.5995 C   0  0  0  0  0  0  0  0  0  0  0  0
   -5.1810   20.5643   21.6823 C   0  0  0  0  0  0  0  0  0  0  0  0
   -6.6397   18.1923   24.5870 C   0  0  0  0  0  0  0  0  0  0  0  0
   -4.6240   17.0286   24.9803 C   0  0  0  0  0  0  0  0  0  0  0  0
   -6.3721   19.9255   24.0694 C   0  0  0  0  0  0  0  0  0  0  0  0
   -5.4825   18.4815   25.5494 C   0  0  0  0  0  0  0  0  0  0  0  0
   -7.9243   18.3681   23.5495 C   0  0  0  0  0  0  0  0  0  0  0  0
   -7.9118   18.7224   25.6658 C   0  0  0  0  0  0  0  0  0  0  0  0
   -8.8303   17.3722   24.8498 C   0  0  0  0  0  0  0  0  0  0  0  0
   -6.0277   16.3773   25.7008 C   0  0  0  0  0  0  0  0  0  0  0  0
   -3.0193   21.3232   21.1332 C   0  0  0  0  0  0  0  0  0  0  0  0
   -8.2907   16.2055   25.9624 C   0  0  0  0  0  0  0  0  0  0  0  0
   -3.1061   21.6260   20.1573 O   0  0  0  0  0  0  0  0  0  0  0  0
   -7.2342   16.8946   26.2692 C   0  0  0  0  0  0  0  0  0  0  0  0
   -8.8273   15.4457   26.6759 O   0  0  0  0  0  0  0  0  0  0  0  0
   -4.1667   20.5143   23.6081 C   0  0  0  0  0  0  0  0  0  0  0  0
   -1.6941   20.5164   21.8187 C   0  0  0  0  0  0  0  0  0  0  0  0
   -3.6431   18.3690   24.4299 C   0  0  0  0  0  0  0  0  0  0  0  0
   -2.9537   19.8245   22.0701 C   0  0  0  0  0  0  0  0  0  0  0  0
   -5.4356   21.8505   22.9267 C   0  0  0  0  0  0  0  0  0  0  0  0
   -3.6372   22.0191   22.6990 C   0  0  0  0  0  0  0  0  0  0  0  0
   -2.4323   19.1619   23.2796 C   0  0  0  0  0  0  0  0  0  0  0  0
   -4.6920   19.0756   23.5637 C   0  0  0  0  0  0  0  0  0  0  0  0
  2  1  1  0
  5  1  1  0
  5  3  1  0
  6  3  1  0
  6  4  1  0
  7  3  1  0
  8  3  1  0
  9  7  1  0
  9  8  1  0
 10  4  1  0
 12  9  1  0
 13 11  1  0
 14 10  1  0
 14 12  1  0
 15 12  1  0
 17 11  1  0
 18  4  1  0
 19 11  1  0
 19 17  1  0
 20  2  1  0
 20 16  1  0
 21 11  1  0
 21 16  1  0
 21 20  1  0
 22 18  1  0
 22 19  1  0
 23  5  1  0
 23 16  1  0
 23 18  1  0
M  END
>  <ID>  (1) 
conformer_0

$$$$
