
     RDKit          3D

 25 28  0  0  0  0  0  0  0  0999 V2000
   -8.0253   18.9269   25.0280 C   0  0  0  0  0  0  0  0  0  0  0  0
   -6.3845   19.1892   25.2829 C   0  0  0  0  0  0  0  0  0  0  0  0
   -8.3416   17.4386   24.3378 C   0  0  0  0  0  0  0  0  0  0  0  0
   -7.0615   15.9580   25.7485 C   0  0  0  0  0  0  0  0  0  0  0  0
   -9.1581   17.0536   25.5360 C   0  0  0  0  0  0  0  0  0  0  0  0
   -6.8145   17.2863   26.1001 C   0  0  0  0  0  0  0  0  0  0  0  0
   -4.9443   16.8812   25.4367 C   0  0  0  0  0  0  0  0  0  0  0  0
   -6.1190   17.4886   24.5403 C   0  0  0  0  0  0  0  0  0  0  0  0
   -4.6456   20.4433   21.2302 C   0  0  0  0  0  0  0  0  0  0  0  0
   -4.4206   18.7373   24.7378 C   0  0  0  0  0  0  0  0  0  0  0  0
   -3.5008   18.0257   24.0896 C   0  0  0  0  0  0  0  0  0  0  0  0
   -6.3108   20.5675   23.6760 C   0  0  0  0  0  0  0  0  0  0  0  0
   -3.2746   22.1404   19.9548 O   0  0  0  0  0  0  0  0  0  0  0  0
   -8.5193   15.8617   26.2894 C   0  0  0  0  0  0  0  0  0  0  0  0
   -9.2482   14.8221   26.6384 O   0  0  0  0  0  0  0  0  0  0  0  0
   -3.0729   21.5204   20.8653 C   0  0  0  0  0  0  0  0  0  0  0  0
   -2.0411   18.9333   23.4168 C   0  0  0  0  0  0  0  0  0  0  0  0
   -5.1209   19.2493   23.1257 C   0  0  0  0  0  0  0  0  0  0  0  0
   -4.4668   22.0065   22.7311 C   0  0  0  0  0  0  0  0  0  0  0  0
   -2.5179   22.3502   22.4139 C   0  0  0  0  0  0  0  0  0  0  0  0
   -3.7882   20.4786   23.1707 C   0  0  0  0  0  0  0  0  0  0  0  0
   -1.9016   20.4937   21.6836 C   0  0  0  0  0  0  0  0  0  0  0  0
   -2.9031   19.3051   22.3365 C   0  0  0  0  0  0  0  0  0  0  0  0
   -7.0156   19.0736   23.3178 C   0  0  0  0  0  0  0  0  0  0  0  0
   -5.9903   20.8718   21.9468 C   0  0  0  0  0  0  0  0  0  0  0  0
  2  1  1  0
  3  1  1  0
  5  3  1  0
  6  4  1  0
  8  2  1  0
  8  6  1  0
  8  7  1  0
 11 10  1  0
 14  4  1  0
 14  5  1  0
 15 14  1  0
 16  9  1  0
 16 13  1  0
 17 11  1  0
 18 10  1  0
 18 12  1  0
 20 16  1  0
 21 18  1  0
 21 19  1  0
 22 16  1  0
 23 17  1  0
 23 21  1  0
 23 22  1  0
 24  1  1  0
 24 12  1  0
 24 18  1  0
 25  9  1  0
 25 12  1  0
M  END
>  <ID>  (1) 
conformer_0

$$$$
