
     RDKit          3D

 22 31  0  0  0  0  0  0  0  0999 V2000
   -5.3825   18.7246   23.8630 C   0  0  0  0  0  0  0  0  0  0  0  0
   -5.1936   20.9677   21.0097 C   0  0  0  0  0  0  0  0  0  0  0  0
   -9.0554   17.1763   24.3639 C   0  0  0  0  0  0  0  0  0  0  0  0
   -6.1472   20.0818   22.4853 C   0  0  0  0  0  0  0  0  0  0  0  0
   -4.9925   17.0473   25.1859 C   0  0  0  0  0  0  0  0  0  0  0  0
   -7.3851   19.2510   24.6911 C   0  0  0  0  0  0  0  0  0  0  0  0
   -5.8202   18.4669   25.5513 C   0  0  0  0  0  0  0  0  0  0  0  0
   -7.5065   18.0646   23.8131 C   0  0  0  0  0  0  0  0  0  0  0  0
   -6.3437   16.6842   25.7978 C   0  0  0  0  0  0  0  0  0  0  0  0
   -7.8983   17.4295   25.5830 C   0  0  0  0  0  0  0  0  0  0  0  0
   -3.1778   21.2972   20.8631 C   0  0  0  0  0  0  0  0  0  0  0  0
   -8.7019   15.4570   26.6338 O   0  0  0  0  0  0  0  0  0  0  0  0
   -2.9042   21.4380   19.8425 O   0  0  0  0  0  0  0  0  0  0  0  0
   -8.2868   16.3075   25.9716 C   0  0  0  0  0  0  0  0  0  0  0  0
   -3.9439   19.9023   23.4808 C   0  0  0  0  0  0  0  0  0  0  0  0
   -4.8188   21.6456   22.5819 C   0  0  0  0  0  0  0  0  0  0  0  0
   -3.8558   18.1627   24.2800 C   0  0  0  0  0  0  0  0  0  0  0  0
   -3.8708   20.0573   21.8820 C   0  0  0  0  0  0  0  0  0  0  0  0
   -2.4875   19.2103   22.9860 C   0  0  0  0  0  0  0  0  0  0  0  0
   -1.9112   20.4502   22.0143 C   0  0  0  0  0  0  0  0  0  0  0  0
   -2.7926   22.1396   22.4564 C   0  0  0  0  0  0  0  0  0  0  0  0
   -6.0686   20.3789   24.0417 C   0  0  0  0  0  0  0  0  0  0  0  0
  4  2  1  0
  7  1  1  0
  7  5  1  0
  7  6  1  0
  8  3  1  0
  8  6  1  0
  9  5  1  0
  9  7  1  0
 10  3  1  0
 10  8  1  0
 10  9  1  0
 13 11  1  0
 14 10  1  0
 14 12  1  0
 15  1  1  0
 16  2  1  0
 17  1  1  0
 17  5  1  0
 17 15  1  0
 18  2  1  0
 18 11  1  0
 18 15  1  0
 19 15  1  0
 19 18  1  0
 20 11  1  0
 20 19  1  0
 21 11  1  0
 21 20  1  0
 22  1  1  0
 22  4  1  0
 22  6  1  0
M  END
>  <ID>  (1) 
conformer_0

$$$$
