
     RDKit          3D

 22 29  0  0  0  0  0  0  0  0999 V2000
   -6.8030   19.8981   24.0594 C   0  0  0  0  0  0  0  0  0  0  0  0
   -8.8919   16.9854   24.5564 C   0  0  0  0  0  0  0  0  0  0  0  0
   -3.5105   18.3853   24.3177 C   0  0  0  0  0  0  0  0  0  0  0  0
   -6.1589   16.5495   25.4860 C   0  0  0  0  0  0  0  0  0  0  0  0
   -4.7308   16.9652   25.2267 C   0  0  0  0  0  0  0  0  0  0  0  0
   -8.7611   18.2353   25.4200 C   0  0  0  0  0  0  0  0  0  0  0  0
   -7.6408   18.4709   23.9952 C   0  0  0  0  0  0  0  0  0  0  0  0
   -7.0221   18.5470   25.3811 C   0  0  0  0  0  0  0  0  0  0  0  0
   -7.2744   16.7729   26.2381 C   0  0  0  0  0  0  0  0  0  0  0  0
   -2.9886   22.3731   20.0966 O   0  0  0  0  0  0  0  0  0  0  0  0
   -2.8036   21.5956   21.0325 C   0  0  0  0  0  0  0  0  0  0  0  0
   -5.3408   18.3492   24.9103 C   0  0  0  0  0  0  0  0  0  0  0  0
   -8.7779   15.4154   26.5116 O   0  0  0  0  0  0  0  0  0  0  0  0
   -8.3643   16.1105   25.8545 C   0  0  0  0  0  0  0  0  0  0  0  0
   -4.9741   21.5341   22.6169 C   0  0  0  0  0  0  0  0  0  0  0  0
   -3.5734   19.9741   23.1845 C   0  0  0  0  0  0  0  0  0  0  0  0
   -2.5093   22.0623   22.6046 C   0  0  0  0  0  0  0  0  0  0  0  0
   -5.0382   19.4092   23.7069 C   0  0  0  0  0  0  0  0  0  0  0  0
   -2.3488   19.3416   23.2114 C   0  0  0  0  0  0  0  0  0  0  0  0
   -5.9261   20.4251   22.5864 C   0  0  0  0  0  0  0  0  0  0  0  0
   -1.8653   20.2400   21.6846 C   0  0  0  0  0  0  0  0  0  0  0  0
   -4.0053   20.4428   21.4232 C   0  0  0  0  0  0  0  0  0  0  0  0
  5  4  1  0
  6  2  1  0
  7  1  1  0
  7  6  1  0
  8  1  1  0
  8  6  1  0
  8  7  1  0
  9  4  2  0
 11 10  1  0
 12  3  1  0
 12  5  1  0
 12  8  1  0
 14  2  1  0
 14  9  1  0
 14 13  1  0
 17 11  1  0
 18  1  1  0
 18 12  1  0
 18 16  1  0
 19  3  1  0
 19 16  1  0
 20  1  1  0
 20 15  1  0
 20 18  1  0
 21 11  1  0
 21 19  1  0
 22 11  1  0
 22 15  1  0
 22 16  1  0
M  END
>  <ID>  (1) 
conformer_0

$$$$
