
     RDKit          3D

 22 28  0  0  0  0  0  0  0  0999 V2000
   -7.3354   19.3390   24.8532 C   0  0  0  0  0  0  0  0  0  0  0  0
   -7.3039   18.5919   23.5104 C   0  0  0  0  0  0  0  0  0  0  0  0
   -5.4634   18.9352   23.6625 C   0  0  0  0  0  0  0  0  0  0  0  0
   -8.4310   17.2596   24.0344 C   0  0  0  0  0  0  0  0  0  0  0  0
   -5.4828   20.5562   21.4463 C   0  0  0  0  0  0  0  0  0  0  0  0
   -6.7104   17.5736   25.4332 C   0  0  0  0  0  0  0  0  0  0  0  0
   -7.1019   16.3595   26.2573 C   0  0  0  0  0  0  0  0  0  0  0  0
   -5.3136   18.3979   25.3549 C   0  0  0  0  0  0  0  0  0  0  0  0
   -5.3025   16.7150   25.4759 C   0  0  0  0  0  0  0  0  0  0  0  0
   -8.3918   16.1417   25.9504 C   0  0  0  0  0  0  0  0  0  0  0  0
   -9.1583   15.3332   25.9870 O   0  0  0  0  0  0  0  0  0  0  0  0
   -3.1543   22.0306   20.2775 O   0  0  0  0  0  0  0  0  0  0  0  0
   -2.9866   21.3852   21.0088 C   0  0  0  0  0  0  0  0  0  0  0  0
   -3.7780   17.8149   24.5845 C   0  0  0  0  0  0  0  0  0  0  0  0
   -6.0692   20.1808   23.0293 C   0  0  0  0  0  0  0  0  0  0  0  0
   -3.9089   19.3614   23.8661 C   0  0  0  0  0  0  0  0  0  0  0  0
   -2.5389   19.1748   23.3554 C   0  0  0  0  0  0  0  0  0  0  0  0
   -4.6603   21.6593   22.5540 C   0  0  0  0  0  0  0  0  0  0  0  0
   -1.9303   20.4643   21.9699 C   0  0  0  0  0  0  0  0  0  0  0  0
   -2.6400   21.9259   22.7601 C   0  0  0  0  0  0  0  0  0  0  0  0
   -3.7722   20.1238   22.3332 C   0  0  0  0  0  0  0  0  0  0  0  0
   -8.7811   17.9402   25.2637 C   0  0  0  0  0  0  0  0  0  0  0  0
  2  1  1  0
  3  2  1  0
  4  2  1  0
  6  1  1  0
  7  6  1  0
  8  3  1  0
  8  6  1  0
  9  6  1  0
  9  8  1  0
 10  7  1  0
 11 10  1  0
 13 12  1  0
 14  8  1  0
 15  3  1  0
 15  5  1  0
 16  3  1  0
 16 14  1  0
 17 16  1  0
 18  5  1  0
 19 13  1  0
 20 13  1  0
 20 19  1  0
 21 16  1  0
 21 17  1  0
 21 18  1  0
 21 19  1  0
 22  4  1  0
 22 10  1  0
M  END
>  <ID>  (1) 
conformer_0

$$$$
