
     RDKit          3D

 22 26  0  0  0  0  0  0  0  0999 V2000
   -4.9960   21.6123   23.1284 C   0  0  0  0  0  0  0  0  0  0  0  0
   -2.3336   19.7732   22.9463 C   0  0  0  0  0  0  0  0  0  0  0  0
   -7.3177   16.4209   26.2247 C   0  0  0  0  0  0  0  0  0  0  0  0
   -6.7369   19.8873   23.7894 C   0  0  0  0  0  0  0  0  0  0  0  0
   -9.4048   17.1428   25.5999 C   0  0  0  0  0  0  0  0  0  0  0  0
   -7.5870   18.6397   25.1457 C   0  0  0  0  0  0  0  0  0  0  0  0
   -6.2553   17.2267   25.8312 C   0  0  0  0  0  0  0  0  0  0  0  0
   -6.0733   18.3913   24.1465 C   0  0  0  0  0  0  0  0  0  0  0  0
   -5.2334   16.5285   25.1926 C   0  0  0  0  0  0  0  0  0  0  0  0
   -3.2336   22.3258   19.7890 O   0  0  0  0  0  0  0  0  0  0  0  0
   -3.3330   21.6128   20.6765 C   0  0  0  0  0  0  0  0  0  0  0  0
   -8.3553   15.9940   26.1398 C   0  0  0  0  0  0  0  0  0  0  0  0
   -8.4873   17.7120   24.5033 C   0  0  0  0  0  0  0  0  0  0  0  0
   -8.8161   14.9084   26.7650 O   0  0  0  0  0  0  0  0  0  0  0  0
   -6.1054   20.1952   22.4395 C   0  0  0  0  0  0  0  0  0  0  0  0
   -4.8059   20.7914   21.2714 C   0  0  0  0  0  0  0  0  0  0  0  0
   -4.1200   17.5401   25.0366 C   0  0  0  0  0  0  0  0  0  0  0  0
   -4.5704   19.1075   24.3281 C   0  0  0  0  0  0  0  0  0  0  0  0
   -3.0347   18.3204   24.0422 C   0  0  0  0  0  0  0  0  0  0  0  0
   -3.1085   21.9465   22.6085 C   0  0  0  0  0  0  0  0  0  0  0  0
   -2.1626   20.5276   21.3992 C   0  0  0  0  0  0  0  0  0  0  0  0
   -4.0253   19.9934   22.9096 C   0  0  0  0  0  0  0  0  0  0  0  0
  7  3  1  0
  8  4  1  0
  8  6  1  0
  9  7  1  0
 11 10  1  0
 12  3  1  0
 12  5  1  0
 13  5  1  0
 13  6  1  0
 14 12  1  0
 15  1  1  0
 15  4  1  0
 16 11  1  0
 16 15  1  0
 17  9  1  0
 18  8  1  0
 18 17  1  0
 19  2  1  0
 19 17  1  0
 19 18  1  0
 20 11  1  0
 21  2  1  0
 21 11  1  0
 22  1  1  0
 22  2  1  0
 22 18  1  0
M  END
>  <ID>  (1) 
conformer_0

$$$$
