
     RDKit          3D

 21 30  0  0  0  0  0  0  0  0999 V2000
   -4.4677   20.3351   21.6031 C   0  0  0  0  0  0  0  0  0  0  0  0
   -6.0944   18.8713   23.5855 C   0  0  0  0  0  0  0  0  0  0  0  0
   -7.9072   18.2500   23.9464 C   0  0  0  0  0  0  0  0  0  0  0  0
   -6.0819   20.3400   22.3515 C   0  0  0  0  0  0  0  0  0  0  0  0
   -6.6476   19.9536   24.1425 C   0  0  0  0  0  0  0  0  0  0  0  0
   -3.0370   18.4849   23.8287 C   0  0  0  0  0  0  0  0  0  0  0  0
   -6.7041   16.6765   25.5600 C   0  0  0  0  0  0  0  0  0  0  0  0
   -5.7020   17.7672   25.6623 C   0  0  0  0  0  0  0  0  0  0  0  0
   -4.6416   18.8171   24.3683 C   0  0  0  0  0  0  0  0  0  0  0  0
   -4.3912   17.2656   25.1374 C   0  0  0  0  0  0  0  0  0  0  0  0
   -8.5653   16.4030   25.8801 C   0  0  0  0  0  0  0  0  0  0  0  0
   -9.1289   15.7636   26.8399 O   0  0  0  0  0  0  0  0  0  0  0  0
   -2.9315   21.0143   21.1385 C   0  0  0  0  0  0  0  0  0  0  0  0
   -3.1582   21.3937   20.2372 O   0  0  0  0  0  0  0  0  0  0  0  0
   -4.8386   21.6099   22.9416 C   0  0  0  0  0  0  0  0  0  0  0  0
   -2.4317   19.4414   22.9361 C   0  0  0  0  0  0  0  0  0  0  0  0
   -2.7600   21.6652   22.7548 C   0  0  0  0  0  0  0  0  0  0  0  0
   -1.8480   20.4023   21.9762 C   0  0  0  0  0  0  0  0  0  0  0  0
   -4.0746   20.1381   23.2943 C   0  0  0  0  0  0  0  0  0  0  0  0
   -8.8073   17.3151   25.0204 C   0  0  0  0  0  0  0  0  0  0  0  0
   -7.3056   18.3693   25.6616 C   0  0  0  0  0  0  0  0  0  0  0  0
  3  2  1  0
  4  1  1  0
  5  2  1  0
  5  4  1  0
  8  7  1  0
  9  2  1  0
  9  6  1  0
 10  8  1  0
 10  9  1  0
 11  7  1  0
 12 11  1  0
 13  1  1  0
 14 13  1  0
 15  1  1  0
 15  4  1  0
 16  6  1  0
 17 13  1  0
 18 13  1  0
 18 16  1  0
 18 17  1  0
 19  1  1  0
 19  9  1  0
 19 15  1  0
 19 16  1  0
 20  3  1  0
 20 11  1  0
 21  3  1  0
 21  7  1  0
 21  8  1  0
 21 20  1  0
M  END
>  <ID>  (1) 
conformer_0

$$$$
