
     RDKit          3D

 22 27  0  0  0  0  0  0  0  0999 V2000
   -5.1067   18.5194   24.2722 C   0  0  0  0  0  0  0  0  0  0  0  0
   -5.2177   17.5882   25.6778 C   0  0  0  0  0  0  0  0  0  0  0  0
   -4.7945   20.9673   21.4389 C   0  0  0  0  0  0  0  0  0  0  0  0
   -6.8128   19.9075   24.0752 C   0  0  0  0  0  0  0  0  0  0  0  0
   -5.9173   19.9033   22.7501 C   0  0  0  0  0  0  0  0  0  0  0  0
   -7.1030   17.8410   24.4066 C   0  0  0  0  0  0  0  0  0  0  0  0
   -8.0143   18.3661   25.4799 C   0  0  0  0  0  0  0  0  0  0  0  0
   -6.4971   19.2567   25.7824 C   0  0  0  0  0  0  0  0  0  0  0  0
   -5.0403   16.1709   25.1103 C   0  0  0  0  0  0  0  0  0  0  0  0
   -6.7312   16.5091   25.6805 C   0  0  0  0  0  0  0  0  0  0  0  0
   -3.5081   21.6809   20.7580 C   0  0  0  0  0  0  0  0  0  0  0  0
   -8.2793   16.1147   25.7418 C   0  0  0  0  0  0  0  0  0  0  0  0
   -3.0569   21.7644   19.9496 O   0  0  0  0  0  0  0  0  0  0  0  0
   -9.0591   15.0584   25.8787 O   0  0  0  0  0  0  0  0  0  0  0  0
   -9.1597   17.1502   25.1685 C   0  0  0  0  0  0  0  0  0  0  0  0
   -4.4165   19.8620   23.8476 C   0  0  0  0  0  0  0  0  0  0  0  0
   -3.7761   17.8246   24.5897 C   0  0  0  0  0  0  0  0  0  0  0  0
   -2.7349   19.0867   23.5131 C   0  0  0  0  0  0  0  0  0  0  0  0
   -3.3053   20.3209   22.6183 C   0  0  0  0  0  0  0  0  0  0  0  0
   -5.3317   21.7049   22.3834 C   0  0  0  0  0  0  0  0  0  0  0  0
   -2.0548   20.5810   21.9859 C   0  0  0  0  0  0  0  0  0  0  0  0
   -3.0476   22.3391   22.4455 C   0  0  0  0  0  0  0  0  0  0  0  0
  2  1  1  0
  5  4  1  0
  7  6  1  0
  8  4  1  0
  8  7  1  0
  9  2  1  0
 10  2  1  0
 10  6  1  0
 10  9  1  0
 11  3  1  0
 12 10  1  0
 13 11  2  0
 14 12  1  0
 15  7  1  0
 15 12  1  0
 16  1  1  0
 16  5  1  0
 17  1  1  0
 17  2  1  0
 18 16  1  0
 18 17  1  0
 19 16  1  0
 19 18  1  0
 20  3  1  0
 20  5  1  0
 21 19  1  0
 22 11  1  0
M  END
>  <ID>  (1) 
conformer_0

$$$$
