
     RDKit          3D

 22 29  0  0  0  0  0  0  0  0999 V2000
   -3.3475   18.5584   24.0061 C   0  0  0  0  0  0  0  0  0  0  0  0
   -5.9569   20.7408   22.6862 C   0  0  0  0  0  0  0  0  0  0  0  0
   -6.1835   19.2840   23.0563 C   0  0  0  0  0  0  0  0  0  0  0  0
   -2.2609   19.6747   22.9823 C   0  0  0  0  0  0  0  0  0  0  0  0
   -2.3308   21.8768   22.4235 C   0  0  0  0  0  0  0  0  0  0  0  0
   -4.1040   21.7671   22.9726 C   0  0  0  0  0  0  0  0  0  0  0  0
   -4.8647   20.6946   21.4898 C   0  0  0  0  0  0  0  0  0  0  0  0
   -3.9423   19.8796   22.9284 C   0  0  0  0  0  0  0  0  0  0  0  0
   -4.8570   19.4415   24.4953 C   0  0  0  0  0  0  0  0  0  0  0  0
   -3.3439   21.2166   20.9030 C   0  0  0  0  0  0  0  0  0  0  0  0
   -8.5081   15.9009   26.5647 C   0  0  0  0  0  0  0  0  0  0  0  0
   -2.0930   20.2316   21.6070 C   0  0  0  0  0  0  0  0  0  0  0  0
   -9.2045   15.3409   26.7776 O   0  0  0  0  0  0  0  0  0  0  0  0
   -3.7234   21.5432   19.9041 O   0  0  0  0  0  0  0  0  0  0  0  0
   -6.6702   18.5791   25.8338 C   0  0  0  0  0  0  0  0  0  0  0  0
   -4.2965   17.6495   25.4224 C   0  0  0  0  0  0  0  0  0  0  0  0
   -5.5370   17.7836   24.6528 C   0  0  0  0  0  0  0  0  0  0  0  0
   -7.9152   17.9473   24.1995 C   0  0  0  0  0  0  0  0  0  0  0  0
   -8.5618   17.7958   25.4498 C   0  0  0  0  0  0  0  0  0  0  0  0
   -6.1128   16.6061   25.5010 C   0  0  0  0  0  0  0  0  0  0  0  0
   -7.6541   16.4903   25.8317 C   0  0  0  0  0  0  0  0  0  0  0  0
   -7.2186   19.3940   24.1739 C   0  0  0  0  0  0  0  0  0  0  0  0
  3  2  1  0
  4  1  1  0
  6  5  1  0
  7  2  1  0
  8  1  1  0
  8  4  1  0
  8  7  1  0
  9  1  1  0
  9  3  1  0
  9  8  1  0
 10  5  1  0
 10  7  1  0
 12  4  1  0
 12  5  1  0
 12 10  1  0
 13 11  1  0
 14 10  1  0
 16  1  1  0
 17  9  1  0
 17 15  1  0
 17 16  1  0
 19 18  1  0
 20 17  1  0
 21 11  1  0
 21 19  1  0
 21 20  2  0
 22  3  1  0
 22 15  1  0
 22 18  1  0
M  END
>  <ID>  (1) 
conformer_0

$$$$
