
     RDKit          3D

 22 30  0  0  0  0  0  0  0  0999 V2000
   -7.1637   18.8298   23.4783 C   0  0  0  0  0  0  0  0  0  0  0  0
   -6.1438   20.3649   22.1781 C   0  0  0  0  0  0  0  0  0  0  0  0
   -5.2548   18.8291   23.5804 C   0  0  0  0  0  0  0  0  0  0  0  0
   -5.8276   18.4604   25.3381 C   0  0  0  0  0  0  0  0  0  0  0  0
   -3.6319   18.8924   24.2770 C   0  0  0  0  0  0  0  0  0  0  0  0
   -7.8284   18.5016   24.9845 C   0  0  0  0  0  0  0  0  0  0  0  0
   -4.2885   17.5079   25.0045 C   0  0  0  0  0  0  0  0  0  0  0  0
   -6.9841   15.9728   26.2512 C   0  0  0  0  0  0  0  0  0  0  0  0
   -5.5388   16.4503   25.5682 C   0  0  0  0  0  0  0  0  0  0  0  0
   -8.7084   17.2709   25.2515 C   0  0  0  0  0  0  0  0  0  0  0  0
   -8.0892   15.9344   26.4046 C   0  0  0  0  0  0  0  0  0  0  0  0
   -3.0815   22.2563   20.3877 O   0  0  0  0  0  0  0  0  0  0  0  0
   -8.8336   15.4565   27.0656 O   0  0  0  0  0  0  0  0  0  0  0  0
   -3.1576   21.4422   21.1945 C   0  0  0  0  0  0  0  0  0  0  0  0
   -4.8643   20.7468   21.2748 C   0  0  0  0  0  0  0  0  0  0  0  0
   -2.5780   19.0929   23.1361 C   0  0  0  0  0  0  0  0  0  0  0  0
   -6.1552   20.0620   24.0341 C   0  0  0  0  0  0  0  0  0  0  0  0
   -4.1247   20.0430   22.7657 C   0  0  0  0  0  0  0  0  0  0  0  0
   -4.9709   21.6780   23.3680 C   0  0  0  0  0  0  0  0  0  0  0  0
   -3.2690   21.9539   22.9692 C   0  0  0  0  0  0  0  0  0  0  0  0
   -2.1463   20.3981   22.0161 C   0  0  0  0  0  0  0  0  0  0  0  0
   -6.8297   17.3151   25.4265 C   0  0  0  0  0  0  0  0  0  0  0  0
  4  3  1  0
  5  3  1  0
  6  1  1  0
  7  4  1  0
  7  5  1  0
  9  7  1  0
  9  8  1  0
 10  6  1  0
 11  8  1  0
 11 10  1  0
 13 11  1  0
 14 12  1  0
 15  2  1  0
 15 14  1  0
 16  5  1  0
 17  1  1  0
 17  2  1  0
 17  3  1  0
 18  3  1  0
 18 15  1  0
 18 16  1  0
 19 18  1  0
 20 14  1  0
 20 19  1  0
 21 14  1  0
 21 16  1  0
 22  4  1  0
 22  6  1  0
 22  8  1  0
 22  9  1  0
M  END
>  <ID>  (1) 
conformer_0

$$$$
