
     RDKit          3D

 23 27  0  0  0  0  0  0  0  0999 V2000
   -2.7343   22.1950   22.4857 C   0  0  0  0  0  0  0  0  0  0  0  0
   -4.2752   21.1565   23.1778 C   0  0  0  0  0  0  0  0  0  0  0  0
   -4.7639   21.8773   21.8544 C   0  0  0  0  0  0  0  0  0  0  0  0
   -5.7628   20.4615   21.6335 C   0  0  0  0  0  0  0  0  0  0  0  0
   -6.5361   19.9913   23.4654 C   0  0  0  0  0  0  0  0  0  0  0  0
   -1.9223   20.6579   21.6061 C   0  0  0  0  0  0  0  0  0  0  0  0
   -3.4300   19.9661   22.2337 C   0  0  0  0  0  0  0  0  0  0  0  0
   -6.0256   19.1304   25.5128 C   0  0  0  0  0  0  0  0  0  0  0  0
   -2.6475   19.0676   23.2835 C   0  0  0  0  0  0  0  0  0  0  0  0
   -5.5471   19.2176   23.1091 C   0  0  0  0  0  0  0  0  0  0  0  0
   -4.2666   19.1390   24.1352 C   0  0  0  0  0  0  0  0  0  0  0  0
   -3.0994   21.6190   20.7829 C   0  0  0  0  0  0  0  0  0  0  0  0
   -3.2884   22.0745   19.8112 O   0  0  0  0  0  0  0  0  0  0  0  0
   -8.6370   15.9733   26.0991 C   0  0  0  0  0  0  0  0  0  0  0  0
   -9.0681   15.2044   26.7536 O   0  0  0  0  0  0  0  0  0  0  0  0
   -7.4664   16.8208   26.0482 C   0  0  0  0  0  0  0  0  0  0  0  0
   -3.8088   17.9221   24.5351 C   0  0  0  0  0  0  0  0  0  0  0  0
   -6.0854   17.5487   24.8500 C   0  0  0  0  0  0  0  0  0  0  0  0
   -4.9317   17.1968   25.7283 C   0  0  0  0  0  0  0  0  0  0  0  0
   -6.3991   16.1524   26.3110 C   0  0  0  0  0  0  0  0  0  0  0  0
   -7.7074   18.7250   25.0872 C   0  0  0  0  0  0  0  0  0  0  0  0
   -7.4806   18.2181   23.3709 C   0  0  0  0  0  0  0  0  0  0  0  0
   -8.4960   16.9830   24.5036 C   0  0  0  0  0  0  0  0  0  0  0  0
  3  2  1  0
  4  3  1  0
  6  1  1  0
  7  2  1  0
  7  6  1  0
  9  7  1  0
 10  4  1  0
 10  5  1  0
 11  9  1  0
 11 10  1  0
 12  1  1  0
 12  6  1  0
 13 12  1  0
 15 14  1  0
 16 14  1  0
 17 11  1  0
 18  8  1  0
 18 16  1  0
 19 17  1  0
 19 18  1  0
 20 16  1  0
 20 19  1  0
 21  8  1  0
 22 21  1  0
 23 14  1  0
 23 16  1  0
 23 22  1  0
M  END
>  <ID>  (1) 
conformer_0

$$$$
