
     RDKit          3D

 22 30  0  0  0  0  0  0  0  0999 V2000
   -3.3957   21.5077   22.5413 C   0  0  0  0  0  0  0  0  0  0  0  0
   -8.9913   16.7645   24.3299 C   0  0  0  0  0  0  0  0  0  0  0  0
   -8.7288   17.9712   25.2600 C   0  0  0  0  0  0  0  0  0  0  0  0
   -7.3225   19.1385   25.4730 C   0  0  0  0  0  0  0  0  0  0  0  0
   -6.4134   19.9854   23.4820 C   0  0  0  0  0  0  0  0  0  0  0  0
   -4.9752   20.5404   21.6061 C   0  0  0  0  0  0  0  0  0  0  0  0
   -5.2686   21.4533   22.4826 C   0  0  0  0  0  0  0  0  0  0  0  0
   -2.7305   19.3794   22.8904 C   0  0  0  0  0  0  0  0  0  0  0  0
   -2.0070   20.5759   22.0101 C   0  0  0  0  0  0  0  0  0  0  0  0
   -4.2458   20.0799   23.5311 C   0  0  0  0  0  0  0  0  0  0  0  0
   -3.2060   21.8416   21.2026 C   0  0  0  0  0  0  0  0  0  0  0  0
   -9.0118   15.5542   26.5091 O   0  0  0  0  0  0  0  0  0  0  0  0
   -3.0233   22.1296   20.2892 O   0  0  0  0  0  0  0  0  0  0  0  0
   -8.3874   16.2147   25.8815 C   0  0  0  0  0  0  0  0  0  0  0  0
   -5.4725   18.9235   23.5634 C   0  0  0  0  0  0  0  0  0  0  0  0
   -7.6179   18.3676   23.7954 C   0  0  0  0  0  0  0  0  0  0  0  0
   -5.4188   18.3731   25.3318 C   0  0  0  0  0  0  0  0  0  0  0  0
   -6.7223   17.3363   24.7565 C   0  0  0  0  0  0  0  0  0  0  0  0
   -5.6249   16.6213   26.0054 C   0  0  0  0  0  0  0  0  0  0  0  0
   -7.0870   16.5662   26.2986 C   0  0  0  0  0  0  0  0  0  0  0  0
   -4.2569   17.4237   24.9501 C   0  0  0  0  0  0  0  0  0  0  0  0
   -3.3640   18.5743   24.1135 C   0  0  0  0  0  0  0  0  0  0  0  0
  3  2  1  0
  4  3  1  0
  7  1  1  0
  7  6  1  0
  9  1  1  0
  9  8  1  0
 10  1  1  0
 10  8  1  0
 11  1  1  0
 13 11  1  0
 14  2  1  0
 14  3  1  0
 14 12  1  0
 15  5  1  0
 15 10  1  0
 16  3  1  0
 16  4  1  0
 17 15  1  0
 18 16  1  0
 18 17  1  0
 19 17  1  0
 19 18  1  0
 20 14  1  0
 20 18  1  0
 20 19  1  0
 21 17  1  0
 21 19  1  0
 22  8  1  0
 22 10  1  0
 22 21  1  0
M  END
>  <ID>  (1) 
conformer_0

$$$$
