
     RDKit          3D

 23 31  0  0  0  0  0  0  0  0999 V2000
   -6.2649   17.9909   25.6125 C   0  0  0  0  0  0  0  0  0  0  0  0
   -8.3688   17.7647   23.7598 C   0  0  0  0  0  0  0  0  0  0  0  0
   -6.2574   20.3213   22.8219 C   0  0  0  0  0  0  0  0  0  0  0  0
   -7.7589   16.9860   24.9669 C   0  0  0  0  0  0  0  0  0  0  0  0
   -2.5551   19.0837   23.4111 C   0  0  0  0  0  0  0  0  0  0  0  0
   -6.7785   18.8248   23.4569 C   0  0  0  0  0  0  0  0  0  0  0  0
   -6.9784   16.1796   26.5693 C   0  0  0  0  0  0  0  0  0  0  0  0
   -5.5610   16.6417   25.5724 C   0  0  0  0  0  0  0  0  0  0  0  0
   -4.1368   17.5275   25.3103 C   0  0  0  0  0  0  0  0  0  0  0  0
   -3.4789   18.3449   24.2465 C   0  0  0  0  0  0  0  0  0  0  0  0
   -8.2301   16.1118   25.8388 C   0  0  0  0  0  0  0  0  0  0  0  0
   -9.1537   15.6208   26.2601 O   0  0  0  0  0  0  0  0  0  0  0  0
   -3.6371   21.5470   19.8767 O   0  0  0  0  0  0  0  0  0  0  0  0
   -5.2703   20.6793   21.4493 C   0  0  0  0  0  0  0  0  0  0  0  0
   -4.9123   21.9999   22.3815 C   0  0  0  0  0  0  0  0  0  0  0  0
   -3.2648   21.5301   20.9194 C   0  0  0  0  0  0  0  0  0  0  0  0
   -4.6861   19.9534   23.6500 C   0  0  0  0  0  0  0  0  0  0  0  0
   -3.8158   20.2838   22.7649 C   0  0  0  0  0  0  0  0  0  0  0  0
   -3.0187   22.2026   22.4357 C   0  0  0  0  0  0  0  0  0  0  0  0
   -2.2702   20.4725   21.9078 C   0  0  0  0  0  0  0  0  0  0  0  0
   -5.2570   18.7049   24.4948 C   0  0  0  0  0  0  0  0  0  0  0  0
   -8.1905   18.5933   25.4122 C   0  0  0  0  0  0  0  0  0  0  0  0
   -7.0034   19.6755   24.7384 C   0  0  0  0  0  0  0  0  0  0  0  0
  4  1  1  0
  4  2  1  0
  6  2  1  0
  6  3  1  0
  8  1  1  0
  8  7  1  0
  9  8  1  0
 10  5  1  0
 10  9  1  0
 11  4  1  0
 11  7  1  0
 12 11  1  0
 14  3  1  0
 15 14  1  0
 16 13  2  0
 17  3  1  0
 18  5  1  0
 18 17  1  0
 19 15  1  0
 19 16  1  0
 20 16  1  0
 20 18  1  0
 20 19  1  0
 21  1  1  0
 21  9  1  0
 21 10  1  0
 21 17  1  0
 22  2  1  0
 22  4  1  0
 23  6  1  0
 23 22  1  0
M  END
>  <ID>  (1) 
conformer_0

$$$$
