
     RDKit          3D

 22 29  0  0  0  0  0  0  0  0999 V2000
   -2.1240   20.0622   21.5549 C   0  0  0  0  0  0  0  0  0  0  0  0
   -4.9562   20.4675   21.6754 C   0  0  0  0  0  0  0  0  0  0  0  0
   -4.9480   21.9411   22.4702 C   0  0  0  0  0  0  0  0  0  0  0  0
   -2.7885   18.7953   23.2856 C   0  0  0  0  0  0  0  0  0  0  0  0
   -6.4040   20.3379   22.8586 C   0  0  0  0  0  0  0  0  0  0  0  0
   -4.6601   20.3558   23.6305 C   0  0  0  0  0  0  0  0  0  0  0  0
   -7.6469   18.1098   25.5485 C   0  0  0  0  0  0  0  0  0  0  0  0
   -7.0971   16.4922   26.1392 C   0  0  0  0  0  0  0  0  0  0  0  0
   -8.6980   16.8998   24.5420 C   0  0  0  0  0  0  0  0  0  0  0  0
   -3.2798   21.2071   21.1088 C   0  0  0  0  0  0  0  0  0  0  0  0
   -9.1091   15.9857   27.0429 O   0  0  0  0  0  0  0  0  0  0  0  0
   -8.7802   15.9783   25.9631 C   0  0  0  0  0  0  0  0  0  0  0  0
   -6.2369   18.9146   23.5271 C   0  0  0  0  0  0  0  0  0  0  0  0
   -7.8142   18.1039   23.6348 C   0  0  0  0  0  0  0  0  0  0  0  0
   -3.4183   21.5258   20.0903 O   0  0  0  0  0  0  0  0  0  0  0  0
   -6.7269   19.5626   24.9929 C   0  0  0  0  0  0  0  0  0  0  0  0
   -5.7277   18.2031   25.5429 C   0  0  0  0  0  0  0  0  0  0  0  0
   -4.2811   18.9002   24.2236 C   0  0  0  0  0  0  0  0  0  0  0  0
   -5.6999   16.7982   25.7118 C   0  0  0  0  0  0  0  0  0  0  0  0
   -4.1397   17.7195   25.0092 C   0  0  0  0  0  0  0  0  0  0  0  0
   -2.9611   19.9656   22.7609 C   0  0  0  0  0  0  0  0  0  0  0  0
   -3.1085   22.0601   22.8436 C   0  0  0  0  0  0  0  0  0  0  0  0
  3  2  1  0
  5  2  1  0
  6  5  1  0
  8  7  1  0
  9  7  1  0
 10  1  1  0
 10  2  1  0
 12  8  1  0
 12  9  1  0
 12 11  1  0
 13  5  1  0
 14  7  1  0
 14  9  1  0
 14 13  1  0
 15 10  1  0
 16  7  1  0
 16 13  1  0
 17 16  1  0
 18  4  1  0
 18  6  1  0
 19  8  1  0
 19 17  1  0
 20 17  1  0
 20 18  1  0
 21  1  1  0
 21  4  1  0
 21  6  1  0
 22  3  1  0
 22 10  1  0
M  END
>  <ID>  (1) 
conformer_0

$$$$
