
     RDKit          3D

 23 26  0  0  0  0  0  0  0  0999 V2000
   -5.5741   20.4841   21.2309 C   0  0  0  0  0  0  0  0  0  0  0  0
   -2.3844   19.9902   21.7040 C   0  0  0  0  0  0  0  0  0  0  0  0
   -5.6724   21.7163   22.7429 C   0  0  0  0  0  0  0  0  0  0  0  0
   -4.7028   17.3033   25.6002 C   0  0  0  0  0  0  0  0  0  0  0  0
   -6.2339   19.9976   24.0042 C   0  0  0  0  0  0  0  0  0  0  0  0
   -6.5694   19.6611   22.6424 C   0  0  0  0  0  0  0  0  0  0  0  0
   -5.7056   16.2102   25.6381 C   0  0  0  0  0  0  0  0  0  0  0  0
   -6.2405   18.8159   25.6677 C   0  0  0  0  0  0  0  0  0  0  0  0
   -7.9330   18.0542   24.2455 C   0  0  0  0  0  0  0  0  0  0  0  0
   -8.6343   15.4294   25.8912 O   0  0  0  0  0  0  0  0  0  0  0  0
   -7.9828   18.8281   25.5054 C   0  0  0  0  0  0  0  0  0  0  0  0
   -6.8999   16.8739   25.7708 C   0  0  0  0  0  0  0  0  0  0  0  0
   -8.1951   16.5859   25.5580 C   0  0  0  0  0  0  0  0  0  0  0  0
   -3.2820   21.4797   21.2790 C   0  0  0  0  0  0  0  0  0  0  0  0
   -3.3585   22.0172   20.3762 O   0  0  0  0  0  0  0  0  0  0  0  0
   -9.4517   17.4285   25.0029 C   0  0  0  0  0  0  0  0  0  0  0  0
   -5.7227   18.5114   24.3393 C   0  0  0  0  0  0  0  0  0  0  0  0
   -4.0730   21.7593   22.5661 C   0  0  0  0  0  0  0  0  0  0  0  0
   -3.8558   18.2070   24.6935 C   0  0  0  0  0  0  0  0  0  0  0  0
   -3.7704   19.6206   23.7858 C   0  0  0  0  0  0  0  0  0  0  0  0
   -2.3195   19.0302   23.3134 C   0  0  0  0  0  0  0  0  0  0  0  0
   -4.5290   19.9070   22.6079 C   0  0  0  0  0  0  0  0  0  0  0  0
   -1.8149   20.8886   22.1737 C   0  0  0  0  0  0  0  0  0  0  0  0
  3  1  1  0
  6  1  1  0
  6  5  1  0
  7  4  1  0
 11  8  1  0
 11  9  1  0
 12  7  1  0
 13 10  1  0
 13 12  1  0
 14  2  1  0
 15 14  2  0
 16  9  1  0
 16 13  1  0
 17  5  1  0
 17  8  1  0
 18  3  1  0
 18 14  1  0
 19  4  1  0
 19 17  1  0
 20 19  1  0
 21  2  1  0
 21 20  1  0
 22  1  1  0
 22 18  1  0
 22 20  1  0
 23  2  1  0
M  END
>  <ID>  (1) 
conformer_0

$$$$
