
     RDKit          3D

 23 31  0  0  0  0  0  0  0  0999 V2000
   -7.2455   18.7040   23.5760 C   0  0  0  0  0  0  0  0  0  0  0  0
   -7.4765   16.8982   25.7049 C   0  0  0  0  0  0  0  0  0  0  0  0
   -4.7480   18.4929   24.7167 C   0  0  0  0  0  0  0  0  0  0  0  0
   -8.1603   18.4137   24.7475 C   0  0  0  0  0  0  0  0  0  0  0  0
   -6.6420   20.3300   23.5664 C   0  0  0  0  0  0  0  0  0  0  0  0
   -6.0338   17.9378   25.6384 C   0  0  0  0  0  0  0  0  0  0  0  0
   -6.1580   16.3458   25.9281 C   0  0  0  0  0  0  0  0  0  0  0  0
   -4.5078   17.1030   25.2381 C   0  0  0  0  0  0  0  0  0  0  0  0
   -6.8614   19.3053   25.5201 C   0  0  0  0  0  0  0  0  0  0  0  0
   -8.8280   17.1013   24.4251 C   0  0  0  0  0  0  0  0  0  0  0  0
   -8.0920   16.0275   26.1471 C   0  0  0  0  0  0  0  0  0  0  0  0
   -2.8592   21.0262   20.9262 C   0  0  0  0  0  0  0  0  0  0  0  0
   -2.9930   21.5202   20.0048 O   0  0  0  0  0  0  0  0  0  0  0  0
   -8.9366   15.2559   26.2810 O   0  0  0  0  0  0  0  0  0  0  0  0
   -4.2817   20.1471   21.6600 C   0  0  0  0  0  0  0  0  0  0  0  0
   -3.3859   18.4980   23.8280 C   0  0  0  0  0  0  0  0  0  0  0  0
   -5.9231   20.4910   21.9960 C   0  0  0  0  0  0  0  0  0  0  0  0
   -2.5207   19.5349   22.8983 C   0  0  0  0  0  0  0  0  0  0  0  0
   -5.4149   19.2740   23.4082 C   0  0  0  0  0  0  0  0  0  0  0  0
   -3.9082   20.4074   23.1683 C   0  0  0  0  0  0  0  0  0  0  0  0
   -4.9018   21.9506   22.7782 C   0  0  0  0  0  0  0  0  0  0  0  0
   -2.6777   22.0459   22.6865 C   0  0  0  0  0  0  0  0  0  0  0  0
   -1.7841   20.5978   21.9760 C   0  0  0  0  0  0  0  0  0  0  0  0
  4  1  1  0
  5  1  1  0
  6  2  1  0
  6  3  1  0
  7  2  1  0
  7  6  1  0
  8  3  1  0
  8  7  1  0
  9  4  1  0
  9  6  1  0
 10  2  1  0
 10  4  1  0
 11  2  1  0
 13 12  2  0
 14 11  1  0
 15 12  1  0
 16  3  1  0
 17  5  1  0
 17 15  1  0
 18 16  1  0
 19  1  1  0
 19  3  1  0
 19  5  1  0
 20 15  1  0
 20 18  1  0
 20 19  1  0
 21 17  1  0
 21 20  1  0
 23 12  1  0
 23 18  1  0
 23 22  1  0
M  END
>  <ID>  (1) 
conformer_0

$$$$
