
     RDKit          3D

 21 26  0  0  0  0  0  0  0  0999 V2000
   -4.5923   19.6797   23.1522 C   0  0  0  0  0  0  0  0  0  0  0  0
   -6.2036   19.0572   23.6071 C   0  0  0  0  0  0  0  0  0  0  0  0
   -2.0229   20.6637   21.6526 C   0  0  0  0  0  0  0  0  0  0  0  0
   -3.3852   21.4683   22.4399 C   0  0  0  0  0  0  0  0  0  0  0  0
   -4.9970   20.9925   21.5457 C   0  0  0  0  0  0  0  0  0  0  0  0
   -2.6011   19.6466   22.5096 C   0  0  0  0  0  0  0  0  0  0  0  0
   -3.1851   19.1234   23.6323 C   0  0  0  0  0  0  0  0  0  0  0  0
   -4.2101   18.2642   24.3895 C   0  0  0  0  0  0  0  0  0  0  0  0
   -4.9006   17.3182   25.1289 C   0  0  0  0  0  0  0  0  0  0  0  0
   -3.1733   21.7894   21.0884 C   0  0  0  0  0  0  0  0  0  0  0  0
   -8.6440   16.2516   26.2565 C   0  0  0  0  0  0  0  0  0  0  0  0
   -9.1936   15.3204   26.3697 O   0  0  0  0  0  0  0  0  0  0  0  0
   -5.9888   16.5911   25.7040 C   0  0  0  0  0  0  0  0  0  0  0  0
   -3.3023   21.8927   19.7494 O   0  0  0  0  0  0  0  0  0  0  0  0
   -6.1027   18.7031   25.2566 C   0  0  0  0  0  0  0  0  0  0  0  0
   -7.4439   19.2921   25.7994 C   0  0  0  0  0  0  0  0  0  0  0  0
   -5.7202   20.4193   22.5089 C   0  0  0  0  0  0  0  0  0  0  0  0
   -2.6387   22.8590   20.9835 O   0  0  0  0  0  0  0  0  0  0  0  0
   -7.4359   17.0243   25.9312 C   0  0  0  0  0  0  0  0  0  0  0  0
   -7.7317   17.9067   24.1771 C   0  0  0  0  0  0  0  0  0  0  0  0
   -8.9324   17.6071   25.2075 C   0  0  0  0  0  0  0  0  0  0  0  0
  2  1  1  0
  4  3  1  0
  5  4  1  0
  6  3  1  0
  7  1  1  0
  7  6  1  0
  8  1  1  0
  8  7  1  0
  9  8  1  0
 10  3  1  0
 10  4  1  0
 12 11  1  0
 13  9  1  0
 14 10  1  0
 15  2  1  0
 15  9  1  0
 16 15  1  0
 17  1  1  0
 17  2  1  0
 17  5  1  0
 18 10  1  0
 19 11  1  0
 19 13  1  0
 21 11  1  0
 21 19  1  0
 21 20  1  0
M  END
>  <ID>  (1) 
conformer_0

$$$$
