
     RDKit          3D

 22 25  0  0  0  0  0  0  0  0999 V2000
   -2.3627   21.7703   22.2348 C   0  0  0  0  0  0  0  0  0  0  0  0
   -5.9769   20.4403   22.2988 C   0  0  0  0  0  0  0  0  0  0  0  0
   -4.5765   20.9162   21.6935 C   0  0  0  0  0  0  0  0  0  0  0  0
   -5.8169   20.7844   23.8485 C   0  0  0  0  0  0  0  0  0  0  0  0
   -4.0994   21.7339   23.1924 C   0  0  0  0  0  0  0  0  0  0  0  0
   -2.2601   20.3815   21.4173 C   0  0  0  0  0  0  0  0  0  0  0  0
   -7.1325   19.1429   23.5111 C   0  0  0  0  0  0  0  0  0  0  0  0
   -2.6682   19.5694   22.9604 C   0  0  0  0  0  0  0  0  0  0  0  0
   -4.0364   19.3869   22.7347 C   0  0  0  0  0  0  0  0  0  0  0  0
   -6.6597   19.7332   25.4155 C   0  0  0  0  0  0  0  0  0  0  0  0
   -8.2489   16.3119   25.4565 C   0  0  0  0  0  0  0  0  0  0  0  0
   -8.7726   15.2814   25.9381 O   0  0  0  0  0  0  0  0  0  0  0  0
   -3.5716   22.6546   20.1388 O   0  0  0  0  0  0  0  0  0  0  0  0
   -3.0924   22.0113   21.0277 C   0  0  0  0  0  0  0  0  0  0  0  0
   -7.9256   18.3461   25.3303 C   0  0  0  0  0  0  0  0  0  0  0  0
   -4.3536   19.1920   24.2625 C   0  0  0  0  0  0  0  0  0  0  0  0
   -5.9140   18.4628   24.0871 C   0  0  0  0  0  0  0  0  0  0  0  0
   -8.3657   17.4493   24.1611 C   0  0  0  0  0  0  0  0  0  0  0  0
   -4.0725   17.5720   24.7144 C   0  0  0  0  0  0  0  0  0  0  0  0
   -5.8951   17.6400   25.5856 C   0  0  0  0  0  0  0  0  0  0  0  0
   -6.9819   16.5734   26.1027 C   0  0  0  0  0  0  0  0  0  0  0  0
   -5.3016   16.2847   25.4311 C   0  0  0  0  0  0  0  0  0  0  0  0
  3  2  1  0
  4  2  1  0
  5  3  1  0
  6  1  1  0
  8  6  1  0
  9  3  1  0
  9  8  1  0
 12 11  1  0
 14  1  1  0
 14  3  1  0
 14  6  1  0
 14 13  1  0
 15 10  1  0
 16  9  1  0
 17  7  1  0
 17 16  1  0
 18 11  1  0
 18 15  1  0
 19 16  1  0
 20 17  1  0
 21 11  1  0
 21 20  1  0
 22 19  1  0
 22 20  1  0
 22 21  1  0
M  END
>  <ID>  (1) 
conformer_0

$$$$
