
     RDKit          3D

 22 26  0  0  0  0  0  0  0  0999 V2000
   -2.8759   19.4313   23.1460 C   0  0  0  0  0  0  0  0  0  0  0  0
   -4.1045   19.8324   23.7275 C   0  0  0  0  0  0  0  0  0  0  0  0
   -2.3027   20.4910   21.1461 C   0  0  0  0  0  0  0  0  0  0  0  0
   -5.7259   21.0365   22.5446 C   0  0  0  0  0  0  0  0  0  0  0  0
   -4.5003   20.0448   21.7569 C   0  0  0  0  0  0  0  0  0  0  0  0
   -4.3371   21.8912   22.4935 C   0  0  0  0  0  0  0  0  0  0  0  0
   -2.4373   21.2997   22.4055 C   0  0  0  0  0  0  0  0  0  0  0  0
   -8.1203   18.0991   25.4467 C   0  0  0  0  0  0  0  0  0  0  0  0
   -5.4392   18.6771   23.6763 C   0  0  0  0  0  0  0  0  0  0  0  0
   -3.5616   18.0640   24.3814 C   0  0  0  0  0  0  0  0  0  0  0  0
   -6.8620   19.3603   25.3732 C   0  0  0  0  0  0  0  0  0  0  0  0
   -3.3037   22.4037   19.9530 O   0  0  0  0  0  0  0  0  0  0  0  0
   -3.1800   21.6972   20.7193 C   0  0  0  0  0  0  0  0  0  0  0  0
   -9.0523   16.2554   25.8880 C   0  0  0  0  0  0  0  0  0  0  0  0
   -9.1565   15.3463   26.3385 O   0  0  0  0  0  0  0  0  0  0  0  0
   -4.9027   18.1793   25.2402 C   0  0  0  0  0  0  0  0  0  0  0  0
   -6.4483   17.2412   25.7259 C   0  0  0  0  0  0  0  0  0  0  0  0
   -4.9077   16.6847   25.3965 C   0  0  0  0  0  0  0  0  0  0  0  0
   -6.9281   16.3701   26.4114 C   0  0  0  0  0  0  0  0  0  0  0  0
   -6.3998   19.6315   23.1710 C   0  0  0  0  0  0  0  0  0  0  0  0
   -7.5134   18.3181   23.9975 C   0  0  0  0  0  0  0  0  0  0  0  0
   -9.1513   17.0184   24.7594 C   0  0  0  0  0  0  0  0  0  0  0  0
  2  1  1  0
  5  4  1  0
  6  4  1  0
  7  3  1  0
  7  6  1  0
  9  2  1  0
 10  2  1  0
 11  8  1  0
 13  3  1  0
 13  7  1  0
 13 12  1  0
 15 14  1  0
 16  9  1  0
 16 10  1  0
 17  8  1  0
 17 16  1  0
 18 16  1  0
 18 17  1  0
 19 17  1  0
 20  4  1  0
 20  9  1  0
 21  8  1  0
 21 11  1  0
 21 20  1  0
 22  8  1  0
 22 14  1  0
M  END
>  <ID>  (1) 
conformer_0

$$$$
