
     RDKit          3D

 23 25  0  0  0  0  0  0  0  0999 V2000
   -6.8351   16.3590   25.9021 C   0  0  0  0  0  0  0  0  0  0  0  0
   -6.7616   18.0442   25.9359 C   0  0  0  0  0  0  0  0  0  0  0  0
   -6.2788   19.6273   24.9247 C   0  0  0  0  0  0  0  0  0  0  0  0
   -6.9089   17.8132   24.1229 C   0  0  0  0  0  0  0  0  0  0  0  0
   -8.9865   17.1450   25.6598 C   0  0  0  0  0  0  0  0  0  0  0  0
   -5.2675   16.4742   25.2727 C   0  0  0  0  0  0  0  0  0  0  0  0
   -2.9303   18.8976   23.9606 C   0  0  0  0  0  0  0  0  0  0  0  0
   -4.1409   20.2361   23.1041 C   0  0  0  0  0  0  0  0  0  0  0  0
   -4.8359   18.1483   25.4555 C   0  0  0  0  0  0  0  0  0  0  0  0
   -4.1856   17.8200   24.2206 C   0  0  0  0  0  0  0  0  0  0  0  0
   -3.0213   22.1311   20.3704 O   0  0  0  0  0  0  0  0  0  0  0  0
   -2.9709   21.6503   21.3528 C   0  0  0  0  0  0  0  0  0  0  0  0
   -8.6742   14.9508   25.8779 O   0  0  0  0  0  0  0  0  0  0  0  0
   -9.2416   16.8547   24.3650 C   0  0  0  0  0  0  0  0  0  0  0  0
   -8.4092   15.9706   25.3512 C   0  0  0  0  0  0  0  0  0  0  0  0
   -2.3420   19.3740   22.5969 C   0  0  0  0  0  0  0  0  0  0  0  0
   -6.5303   19.8913   22.7953 C   0  0  0  0  0  0  0  0  0  0  0  0
   -2.1989   20.7423   22.0970 C   0  0  0  0  0  0  0  0  0  0  0  0
   -5.3288   21.9599   22.8741 C   0  0  0  0  0  0  0  0  0  0  0  0
   -3.6308   22.3308   22.9184 C   0  0  0  0  0  0  0  0  0  0  0  0
   -4.8765   20.3018   21.6203 C   0  0  0  0  0  0  0  0  0  0  0  0
   -8.0446   18.7149   24.7965 C   0  0  0  0  0  0  0  0  0  0  0  0
   -5.3393   19.1125   23.3915 C   0  0  0  0  0  0  0  0  0  0  0  0
  2  1  1  0
  3  2  1  0
  4  2  1  0
  6  1  1  0
  9  6  1  0
 10  7  1  0
 10  9  1  0
 12 11  2  0
 14  5  1  0
 15  1  1  0
 15  5  1  0
 15 13  1  0
 15 14  1  0
 16  7  1  0
 18 12  1  0
 18 16  1  0
 20 12  1  0
 20 19  1  0
 21  8  1  0
 22  2  1  0
 22  4  1  0
 23  3  1  0
 23  8  1  0
 23 10  1  0
 23 17  1  0
M  END
>  <ID>  (1) 
conformer_0

$$$$
