
     RDKit          3D

 21 27  0  0  0  0  0  0  0  0999 V2000
   -8.7705   17.3616   24.6272 C   0  0  0  0  0  0  0  0  0  0  0  0
   -5.8990   20.3539   22.3023 C   0  0  0  0  0  0  0  0  0  0  0  0
   -6.7101   19.9641   23.8478 C   0  0  0  0  0  0  0  0  0  0  0  0
   -2.0556   20.2907   22.0630 C   0  0  0  0  0  0  0  0  0  0  0  0
   -4.1855   20.1696   23.9329 C   0  0  0  0  0  0  0  0  0  0  0  0
   -2.8893   19.1186   23.2092 C   0  0  0  0  0  0  0  0  0  0  0  0
   -5.2778   18.9675   23.8247 C   0  0  0  0  0  0  0  0  0  0  0  0
   -7.5456   18.6251   23.7482 C   0  0  0  0  0  0  0  0  0  0  0  0
   -4.0752   18.2760   24.9041 C   0  0  0  0  0  0  0  0  0  0  0  0
   -2.6878   21.1590   20.9523 C   0  0  0  0  0  0  0  0  0  0  0  0
   -8.3333   16.2538   25.6525 C   0  0  0  0  0  0  0  0  0  0  0  0
   -8.9584   15.4272   26.1136 O   0  0  0  0  0  0  0  0  0  0  0  0
   -2.9113   21.2554   19.9388 O   0  0  0  0  0  0  0  0  0  0  0  0
   -5.9351   18.6937   25.3721 C   0  0  0  0  0  0  0  0  0  0  0  0
   -8.0278   18.3477   25.3725 C   0  0  0  0  0  0  0  0  0  0  0  0
   -4.8634   16.7948   25.5895 C   0  0  0  0  0  0  0  0  0  0  0  0
   -6.3619   17.0877   25.1993 C   0  0  0  0  0  0  0  0  0  0  0  0
   -6.7999   16.5051   26.2488 C   0  0  0  0  0  0  0  0  0  0  0  0
   -3.9160   19.9774   21.9678 C   0  0  0  0  0  0  0  0  0  0  0  0
   -3.5391   21.7684   22.5084 C   0  0  0  0  0  0  0  0  0  0  0  0
   -5.2547   21.7485   22.9400 C   0  0  0  0  0  0  0  0  0  0  0  0
  3  2  1  0
  6  4  1  0
  6  5  1  0
  7  3  1  0
  7  5  1  0
  8  1  1  0
  8  3  1  0
  9  7  1  0
 10  4  1  0
 11  1  1  0
 12 11  1  0
 13 10  2  0
 14  7  1  0
 14  9  1  0
 15  1  1  0
 15  8  1  0
 16  9  1  0
 17 14  1  0
 17 16  1  0
 18 11  1  0
 18 17  1  0
 19  4  1  0
 19  6  1  0
 20 10  1  0
 20 19  1  0
 21  2  1  0
 21 20  1  0
M  END
>  <ID>  (1) 
conformer_0

$$$$
