
     RDKit          3D

 22 28  0  0  0  0  0  0  0  0999 V2000
   -8.9609   17.4893   25.1086 C   0  0  0  0  0  0  0  0  0  0  0  0
   -7.7870   19.0711   25.4007 C   0  0  0  0  0  0  0  0  0  0  0  0
   -6.2196   18.4400   25.1148 C   0  0  0  0  0  0  0  0  0  0  0  0
   -7.8837   18.4076   23.9718 C   0  0  0  0  0  0  0  0  0  0  0  0
   -7.4171   16.4920   24.9120 C   0  0  0  0  0  0  0  0  0  0  0  0
   -6.7714   16.7576   26.1076 C   0  0  0  0  0  0  0  0  0  0  0  0
   -5.3444   16.7864   25.2037 C   0  0  0  0  0  0  0  0  0  0  0  0
   -4.5423   18.0914   25.1551 C   0  0  0  0  0  0  0  0  0  0  0  0
   -6.6838   19.9992   23.4791 C   0  0  0  0  0  0  0  0  0  0  0  0
   -8.3863   16.1335   25.8988 C   0  0  0  0  0  0  0  0  0  0  0  0
   -9.0125   15.3694   26.5466 O   0  0  0  0  0  0  0  0  0  0  0  0
   -2.9497   21.3990   20.1106 O   0  0  0  0  0  0  0  0  0  0  0  0
   -2.8338   20.9810   21.1757 C   0  0  0  0  0  0  0  0  0  0  0  0
   -4.2040   20.4232   22.1603 C   0  0  0  0  0  0  0  0  0  0  0  0
   -5.8471   18.9570   23.3841 C   0  0  0  0  0  0  0  0  0  0  0  0
   -3.3724   18.3111   24.1941 C   0  0  0  0  0  0  0  0  0  0  0  0
   -2.4135   19.0697   23.1321 C   0  0  0  0  0  0  0  0  0  0  0  0
   -2.0823   20.2014   22.0976 C   0  0  0  0  0  0  0  0  0  0  0  0
   -4.1483   19.8120   23.6731 C   0  0  0  0  0  0  0  0  0  0  0  0
   -3.1799   22.0906   22.8077 C   0  0  0  0  0  0  0  0  0  0  0  0
   -4.7648   22.1668   22.9274 C   0  0  0  0  0  0  0  0  0  0  0  0
   -5.6925   20.7792   21.9168 C   0  0  0  0  0  0  0  0  0  0  0  0
  3  2  1  0
  4  1  1  0
  4  2  1  0
  5  1  1  0
  6  5  1  0
  7  3  1  0
  7  6  1  0
  8  3  1  0
  8  7  1  0
 10  1  1  0
 10  5  1  0
 10  6  1  0
 11 10  1  0
 13 12  2  0
 14 13  1  0
 15  3  1  0
 15  9  1  0
 16  8  1  0
 17 16  1  0
 18 13  1  0
 18 17  1  0
 19 14  1  0
 19 15  1  0
 19 16  1  0
 19 17  1  0
 21 20  1  0
 22 14  1  0
 22 21  1  0
M  END
>  <ID>  (1) 
conformer_0

$$$$
