
     RDKit          3D

 22 25  0  0  0  0  0  0  0  0999 V2000
   -5.6585   21.6290   22.6600 C   0  0  0  0  0  0  0  0  0  0  0  0
   -1.9863   20.5064   21.3677 C   0  0  0  0  0  0  0  0  0  0  0  0
   -3.6556   21.9374   22.6326 C   0  0  0  0  0  0  0  0  0  0  0  0
   -2.1538   19.9864   22.8445 C   0  0  0  0  0  0  0  0  0  0  0  0
   -3.1256   18.7348   22.9944 C   0  0  0  0  0  0  0  0  0  0  0  0
   -4.3731   20.1912   22.0124 C   0  0  0  0  0  0  0  0  0  0  0  0
   -4.3711   20.0492   23.7121 C   0  0  0  0  0  0  0  0  0  0  0  0
   -6.3155   19.9302   22.5782 C   0  0  0  0  0  0  0  0  0  0  0  0
   -3.5123   18.7651   24.6191 C   0  0  0  0  0  0  0  0  0  0  0  0
   -5.4405   18.3927   25.3643 C   0  0  0  0  0  0  0  0  0  0  0  0
   -8.5316   16.1270   25.9788 C   0  0  0  0  0  0  0  0  0  0  0  0
   -9.2869   15.2398   26.4346 O   0  0  0  0  0  0  0  0  0  0  0  0
   -3.2436   21.6505   21.3221 C   0  0  0  0  0  0  0  0  0  0  0  0
   -3.8986   22.2208   20.2407 O   0  0  0  0  0  0  0  0  0  0  0  0
   -5.5301   18.6051   23.6467 C   0  0  0  0  0  0  0  0  0  0  0  0
   -7.1251   16.4347   26.2151 C   0  0  0  0  0  0  0  0  0  0  0  0
   -6.8116   20.2122   24.0668 C   0  0  0  0  0  0  0  0  0  0  0  0
   -7.3513   18.0630   25.1565 C   0  0  0  0  0  0  0  0  0  0  0  0
   -7.7140   18.5771   23.9661 C   0  0  0  0  0  0  0  0  0  0  0  0
   -8.6604   17.0194   24.8061 C   0  0  0  0  0  0  0  0  0  0  0  0
   -4.5614   17.1435   25.1353 C   0  0  0  0  0  0  0  0  0  0  0  0
   -6.0066   16.4977   25.7497 C   0  0  0  0  0  0  0  0  0  0  0  0
  4  2  1  0
  5  4  1  0
  7  5  1  0
  7  6  1  0
  8  1  1  0
  9  5  1  0
  9  7  1  0
 12 11  1  0
 13  2  1  0
 13  3  1  0
 14 13  1  0
 15  7  1  0
 15  8  1  0
 15 10  1  0
 16 11  1  0
 17  8  1  0
 18 10  1  0
 18 16  1  0
 19 17  1  0
 19 18  1  0
 20 11  1  0
 20 18  1  0
 21 10  1  0
 22 16  1  0
 22 21  1  0
M  END
>  <ID>  (1) 
conformer_0

$$$$
