
     RDKit          3D

 23 25  0  0  0  0  0  0  0  0999 V2000
   -2.9585   21.9979   22.7746 C   0  0  0  0  0  0  0  0  0  0  0  0
   -2.1512   20.2810   22.0168 C   0  0  0  0  0  0  0  0  0  0  0  0
   -3.9648   20.6246   23.8080 C   0  0  0  0  0  0  0  0  0  0  0  0
   -5.4155   19.5475   23.4349 C   0  0  0  0  0  0  0  0  0  0  0  0
   -4.7487   21.8674   22.8206 C   0  0  0  0  0  0  0  0  0  0  0  0
   -8.9652   17.4422   24.7803 C   0  0  0  0  0  0  0  0  0  0  0  0
   -5.7897   20.6973   21.7368 C   0  0  0  0  0  0  0  0  0  0  0  0
   -4.2367   20.2572   21.5646 C   0  0  0  0  0  0  0  0  0  0  0  0
   -6.5137   20.0424   23.5650 C   0  0  0  0  0  0  0  0  0  0  0  0
   -2.7454   19.4963   23.1542 C   0  0  0  0  0  0  0  0  0  0  0  0
   -5.9649   18.9093   25.5593 C   0  0  0  0  0  0  0  0  0  0  0  0
   -3.1473   21.1569   20.9799 C   0  0  0  0  0  0  0  0  0  0  0  0
   -8.5741   16.5904   25.7812 C   0  0  0  0  0  0  0  0  0  0  0  0
   -8.8990   15.5233   26.1633 O   0  0  0  0  0  0  0  0  0  0  0  0
   -3.1432   21.6269   20.0218 O   0  0  0  0  0  0  0  0  0  0  0  0
   -7.4315   18.5473   23.8367 C   0  0  0  0  0  0  0  0  0  0  0  0
   -3.6801   18.3489   23.6176 C   0  0  0  0  0  0  0  0  0  0  0  0
   -4.2609   19.0070   25.0859 C   0  0  0  0  0  0  0  0  0  0  0  0
   -7.8778   18.4887   25.2006 C   0  0  0  0  0  0  0  0  0  0  0  0
   -4.4215   16.9621   25.0086 C   0  0  0  0  0  0  0  0  0  0  0  0
   -5.8632   17.6428   24.7443 C   0  0  0  0  0  0  0  0  0  0  0  0
   -7.1273   16.9024   26.1997 C   0  0  0  0  0  0  0  0  0  0  0  0
   -5.9449   16.3824   25.7393 C   0  0  0  0  0  0  0  0  0  0  0  0
  4  3  1  0
  5  1  1  0
  5  3  1  0
  7  5  1  0
  8  7  1  0
  9  4  1  0
 10  2  1  0
 10  3  1  0
 12  2  1  0
 12  8  1  0
 13  6  1  0
 14 13  1  0
 15 12  2  0
 16  9  1  0
 17 10  1  0
 18 11  1  0
 18 17  1  0
 19  6  1  0
 19 16  1  0
 21 11  1  0
 21 20  1  0
 22 13  1  0
 23 20  1  0
 23 21  1  0
 23 22  1  0
M  END
>  <ID>  (1) 
conformer_0

$$$$
