
     RDKit          3D

 22 25  0  0  0  0  0  0  0  0999 V2000
   -8.8155   17.7499   25.3448 C   0  0  0  0  0  0  0  0  0  0  0  0
   -8.3173   17.4727   23.9367 C   0  0  0  0  0  0  0  0  0  0  0  0
   -6.7000   18.6314   23.3329 C   0  0  0  0  0  0  0  0  0  0  0  0
   -7.1082   16.5736   25.9869 C   0  0  0  0  0  0  0  0  0  0  0  0
   -7.6191   19.0730   24.4465 C   0  0  0  0  0  0  0  0  0  0  0  0
   -6.2478   20.2637   22.8095 C   0  0  0  0  0  0  0  0  0  0  0  0
   -6.5552   18.0310   25.6190 C   0  0  0  0  0  0  0  0  0  0  0  0
   -5.4126   16.9168   25.0085 C   0  0  0  0  0  0  0  0  0  0  0  0
   -5.3320   19.2917   24.6282 C   0  0  0  0  0  0  0  0  0  0  0  0
   -8.2431   16.1258   25.7928 C   0  0  0  0  0  0  0  0  0  0  0  0
   -3.1643   22.6027   20.5164 O   0  0  0  0  0  0  0  0  0  0  0  0
   -9.0717   15.2707   26.0071 O   0  0  0  0  0  0  0  0  0  0  0  0
   -3.1095   21.7046   21.2936 C   0  0  0  0  0  0  0  0  0  0  0  0
   -5.0685   20.4860   21.0783 C   0  0  0  0  0  0  0  0  0  0  0  0
   -4.6729   21.8986   23.0232 C   0  0  0  0  0  0  0  0  0  0  0  0
   -4.3329   17.8980   25.4712 C   0  0  0  0  0  0  0  0  0  0  0  0
   -4.5325   19.2865   23.3656 C   0  0  0  0  0  0  0  0  0  0  0  0
   -4.2382   20.6142   22.3039 C   0  0  0  0  0  0  0  0  0  0  0  0
   -3.2868   18.0264   24.1144 C   0  0  0  0  0  0  0  0  0  0  0  0
   -2.2877   19.5653   22.1500 C   0  0  0  0  0  0  0  0  0  0  0  0
   -2.1852   21.1278   22.0899 C   0  0  0  0  0  0  0  0  0  0  0  0
   -2.7539   19.5204   23.6643 C   0  0  0  0  0  0  0  0  0  0  0  0
  2  1  1  0
  5  2  1  0
  5  3  1  0
  6  3  1  0
  7  4  1  0
  7  5  1  0
  8  7  1  0
 10  1  1  0
 10  4  2  0
 12 10  1  0
 13 11  2  0
 16  8  1  0
 16  9  1  0
 17  9  1  0
 18 13  1  0
 18 14  1  0
 18 15  1  0
 18 17  1  0
 19 16  1  0
 19 17  1  0
 21 13  1  0
 21 20  1  0
 22 17  1  0
 22 19  1  0
 22 20  1  0
M  END
>  <ID>  (1) 
conformer_0

$$$$
