
     RDKit          3D

 22 26  0  0  0  0  0  0  0  0999 V2000
   -8.7401   17.9174   25.7249 C   0  0  0  0  0  0  0  0  0  0  0  0
   -6.1255   21.0687   22.8436 C   0  0  0  0  0  0  0  0  0  0  0  0
   -5.3921   20.2614   21.6609 C   0  0  0  0  0  0  0  0  0  0  0  0
   -4.4154   18.0364   25.2177 C   0  0  0  0  0  0  0  0  0  0  0  0
   -4.1490   21.8490   22.8438 C   0  0  0  0  0  0  0  0  0  0  0  0
   -3.4880   17.9891   23.8027 C   0  0  0  0  0  0  0  0  0  0  0  0
   -3.9149   20.0516   22.8753 C   0  0  0  0  0  0  0  0  0  0  0  0
   -2.1030   19.9753   22.3248 C   0  0  0  0  0  0  0  0  0  0  0  0
   -2.4957   19.1644   23.6010 C   0  0  0  0  0  0  0  0  0  0  0  0
   -2.3958   21.9498   22.6891 C   0  0  0  0  0  0  0  0  0  0  0  0
   -8.1700   16.3060   25.6717 C   0  0  0  0  0  0  0  0  0  0  0  0
   -8.9050   15.3637   25.8413 O   0  0  0  0  0  0  0  0  0  0  0  0
   -2.9696   21.2643   21.1318 C   0  0  0  0  0  0  0  0  0  0  0  0
   -6.3497   18.2250   25.6578 C   0  0  0  0  0  0  0  0  0  0  0  0
   -5.1814   16.6959   25.1757 C   0  0  0  0  0  0  0  0  0  0  0  0
   -6.7939   16.5633   25.7836 C   0  0  0  0  0  0  0  0  0  0  0  0
   -3.2381   21.2989   20.3458 O   0  0  0  0  0  0  0  0  0  0  0  0
   -7.4509   19.3218   24.9587 C   0  0  0  0  0  0  0  0  0  0  0  0
   -4.8554   19.4718   24.0303 C   0  0  0  0  0  0  0  0  0  0  0  0
   -8.1307   17.8187   24.2327 C   0  0  0  0  0  0  0  0  0  0  0  0
   -6.1497   18.5954   23.7307 C   0  0  0  0  0  0  0  0  0  0  0  0
   -6.8979   19.3272   22.7342 C   0  0  0  0  0  0  0  0  0  0  0  0
  3  2  1  0
  6  4  1  0
  7  5  1  0
  8  7  1  0
  9  6  1  0
  9  7  1  0
  9  8  1  0
 10  5  1  0
 11  1  1  0
 12 11  1  0
 13  8  1  0
 13 10  1  0
 15  4  1  0
 16 11  1  0
 16 14  1  0
 16 15  1  0
 17 13  2  0
 18 14  1  0
 19  4  1  0
 19  7  1  0
 20  1  1  0
 20 18  1  0
 21 18  1  0
 21 19  1  0
 22  2  1  0
 22 21  1  0
M  END
>  <ID>  (1) 
conformer_0

$$$$
