
     RDKit          3D

 17 20  0  0  0  0  0  0  0  0999 V2000
   -4.1698   21.3697   23.0076 C   0  0  0  0  0  0  0  0  0  0  0  0
   -6.8498   19.3583   23.2441 C   0  0  0  0  0  0  0  0  0  0  0  0
   -4.9552   20.2854   21.9621 C   0  0  0  0  0  0  0  0  0  0  0  0
   -5.8999   20.6522   22.9616 C   0  0  0  0  0  0  0  0  0  0  0  0
   -2.3077   20.5340   22.2364 C   0  0  0  0  0  0  0  0  0  0  0  0
   -2.4558   19.2006   22.9315 C   0  0  0  0  0  0  0  0  0  0  0  0
   -3.7257   19.3072   23.4929 C   0  0  0  0  0  0  0  0  0  0  0  0
   -5.5855   19.1711   24.3481 C   0  0  0  0  0  0  0  0  0  0  0  0
   -5.3630   17.4322   25.3728 C   0  0  0  0  0  0  0  0  0  0  0  0
   -4.1160   18.1522   24.6827 C   0  0  0  0  0  0  0  0  0  0  0  0
   -6.3008   16.7218   25.6132 C   0  0  0  0  0  0  0  0  0  0  0  0
   -8.3447   16.2469   25.4238 C   0  0  0  0  0  0  0  0  0  0  0  0
   -9.0896   15.4928   26.1546 O   0  0  0  0  0  0  0  0  0  0  0  0
   -2.9687   21.3830   21.5949 C   0  0  0  0  0  0  0  0  0  0  0  0
   -7.7252   17.5701   25.3159 C   0  0  0  0  0  0  0  0  0  0  0  0
   -8.1601   17.9829   24.1588 C   0  0  0  0  0  0  0  0  0  0  0  0
   -7.0367   19.1734   25.1172 C   0  0  0  0  0  0  0  0  0  0  0  0
  3  1  1  0
  4  1  1  0
  4  2  1  0
  4  3  1  0
  6  5  1  0
  7  6  1  0
  8  2  1  0
 10  7  1  0
 10  8  1  0
 10  9  1  0
 11  9  1  0
 13 12  1  0
 14  1  1  0
 14  5  1  0
 15 11  1  0
 15 12  1  0
 16 15  1  0
 17  2  1  0
 17  8  1  0
 17 15  1  0
M  END
>  <ID>  (1) 
conformer_0

$$$$
