
     RDKit          3D

 22 25  0  0  0  0  0  0  0  0999 V2000
   -4.3679   21.7238   22.7111 C   0  0  0  0  0  0  0  0  0  0  0  0
   -4.2685   20.1180   21.7807 C   0  0  0  0  0  0  0  0  0  0  0  0
   -1.9754   20.0298   22.1877 C   0  0  0  0  0  0  0  0  0  0  0  0
   -5.6723   20.7688   21.5325 C   0  0  0  0  0  0  0  0  0  0  0  0
   -2.2652   21.4157   22.2329 C   0  0  0  0  0  0  0  0  0  0  0  0
   -5.9297   20.4843   23.5106 C   0  0  0  0  0  0  0  0  0  0  0  0
   -4.0819   17.5919   25.0154 C   0  0  0  0  0  0  0  0  0  0  0  0
   -3.8725   20.0214   23.5530 C   0  0  0  0  0  0  0  0  0  0  0  0
   -2.8284   18.9830   23.4159 C   0  0  0  0  0  0  0  0  0  0  0  0
   -8.3905   16.1185   26.3332 C   0  0  0  0  0  0  0  0  0  0  0  0
   -3.2611   21.7089   21.0397 C   0  0  0  0  0  0  0  0  0  0  0  0
   -3.3021   22.1675   20.0565 O   0  0  0  0  0  0  0  0  0  0  0  0
   -9.2680   15.5035   26.7711 O   0  0  0  0  0  0  0  0  0  0  0  0
   -5.3884   16.6395   25.4914 C   0  0  0  0  0  0  0  0  0  0  0  0
   -5.1809   18.4776   23.5332 C   0  0  0  0  0  0  0  0  0  0  0  0
   -5.2884   18.6650   24.9496 C   0  0  0  0  0  0  0  0  0  0  0  0
   -6.5403   19.3066   22.7831 C   0  0  0  0  0  0  0  0  0  0  0  0
   -8.7950   17.5901   25.2341 C   0  0  0  0  0  0  0  0  0  0  0  0
   -7.6285   17.9138   24.0763 C   0  0  0  0  0  0  0  0  0  0  0  0
   -6.5974   17.6691   25.6734 C   0  0  0  0  0  0  0  0  0  0  0  0
   -7.1547   16.4178   26.0886 C   0  0  0  0  0  0  0  0  0  0  0  0
   -7.4575   19.1579   24.6233 C   0  0  0  0  0  0  0  0  0  0  0  0
  2  1  1  0
  4  2  1  0
  5  3  1  0
  6  4  1  0
  8  1  1  0
  8  2  1  0
  9  3  1  0
  9  8  1  0
 11  5  1  0
 12 11  2  0
 13 10  1  0
 14  7  1  0
 16  7  1  0
 16 15  1  0
 17  6  1  0
 17 15  1  0
 18 10  1  0
 19 18  1  0
 20 14  1  0
 20 16  1  0
 20 19  1  0
 21 10  1  0
 21 14  1  0
 21 20  1  0
 22 19  1  0
M  END
>  <ID>  (1) 
conformer_0

$$$$
