
     RDKit          3D

 21 27  0  0  0  0  0  0  0  0999 V2000
   -5.7783   18.5764   25.5967 C   0  0  0  0  0  0  0  0  0  0  0  0
   -7.1933   16.4718   26.1563 C   0  0  0  0  0  0  0  0  0  0  0  0
   -5.1133   18.6839   23.9114 C   0  0  0  0  0  0  0  0  0  0  0  0
   -8.6157   17.1619   24.7225 C   0  0  0  0  0  0  0  0  0  0  0  0
   -7.4895   18.1980   23.6679 C   0  0  0  0  0  0  0  0  0  0  0  0
   -6.2475   16.9761   25.2653 C   0  0  0  0  0  0  0  0  0  0  0  0
   -4.7328   16.9727   25.4860 C   0  0  0  0  0  0  0  0  0  0  0  0
   -6.4142   19.6399   24.0560 C   0  0  0  0  0  0  0  0  0  0  0  0
   -6.1874   19.8233   22.4897 C   0  0  0  0  0  0  0  0  0  0  0  0
   -3.0186   21.6626   21.3010 C   0  0  0  0  0  0  0  0  0  0  0  0
   -3.1467   22.1803   20.0258 O   0  0  0  0  0  0  0  0  0  0  0  0
   -8.3432   15.9768   26.1084 C   0  0  0  0  0  0  0  0  0  0  0  0
   -9.2977   15.4101   26.4317 O   0  0  0  0  0  0  0  0  0  0  0  0
   -2.5844   19.3576   22.8206 C   0  0  0  0  0  0  0  0  0  0  0  0
   -3.9612   20.0272   23.4411 C   0  0  0  0  0  0  0  0  0  0  0  0
   -4.8680   21.5551   23.1330 C   0  0  0  0  0  0  0  0  0  0  0  0
   -3.0823   22.0853   22.8383 C   0  0  0  0  0  0  0  0  0  0  0  0
   -1.9859   20.4329   21.7525 C   0  0  0  0  0  0  0  0  0  0  0  0
   -4.6791   20.3242   21.7874 C   0  0  0  0  0  0  0  0  0  0  0  0
   -3.6918   18.0703   24.5442 C   0  0  0  0  0  0  0  0  0  0  0  0
   -7.7895   18.4572   25.3625 C   0  0  0  0  0  0  0  0  0  0  0  0
  3  1  1  0
  5  4  1  0
  6  1  1  0
  6  2  1  0
  7  1  1  0
  7  6  1  0
  8  3  1  0
  8  5  1  0
  9  8  1  0
 11 10  1  0
 12  2  1  0
 12  4  1  0
 13 12  1  0
 15  3  1  0
 15 14  1  0
 16 15  1  0
 17 10  1  0
 17 16  1  0
 18 10  1  0
 18 14  1  0
 19  9  1  0
 19 15  1  0
 19 16  1  0
 20  3  1  0
 20  7  1  0
 21  4  1  0
 21  5  1  0
M  END
>  <ID>  (1) 
conformer_0

$$$$
