
     RDKit          3D

 22 27  0  0  0  0  0  0  0  0999 V2000
   -4.2872   19.7077   22.4942 C   0  0  0  0  0  0  0  0  0  0  0  0
   -5.0070   21.0293   21.4089 C   0  0  0  0  0  0  0  0  0  0  0  0
   -6.4721   19.7837   22.8456 C   0  0  0  0  0  0  0  0  0  0  0  0
   -5.1100   21.3672   22.8774 C   0  0  0  0  0  0  0  0  0  0  0  0
   -3.1671   21.8510   22.5091 C   0  0  0  0  0  0  0  0  0  0  0  0
   -3.7066   19.6606   23.9153 C   0  0  0  0  0  0  0  0  0  0  0  0
   -5.8579   19.8044   24.3473 C   0  0  0  0  0  0  0  0  0  0  0  0
   -7.5124   19.1402   24.7970 C   0  0  0  0  0  0  0  0  0  0  0  0
   -2.3493   19.5761   22.7499 C   0  0  0  0  0  0  0  0  0  0  0  0
   -2.0641   20.6854   21.8171 C   0  0  0  0  0  0  0  0  0  0  0  0
   -3.1889   21.8013   19.9536 O   0  0  0  0  0  0  0  0  0  0  0  0
   -8.2546   16.3081   25.6229 C   0  0  0  0  0  0  0  0  0  0  0  0
   -3.3010   21.5322   20.8735 C   0  0  0  0  0  0  0  0  0  0  0  0
   -8.9212   15.3466   26.0818 O   0  0  0  0  0  0  0  0  0  0  0  0
   -8.9757   17.4015   24.9064 C   0  0  0  0  0  0  0  0  0  0  0  0
   -7.8834   17.8350   24.0560 C   0  0  0  0  0  0  0  0  0  0  0  0
   -3.4945   17.9644   24.1182 C   0  0  0  0  0  0  0  0  0  0  0  0
   -5.6455   18.2958   24.1201 C   0  0  0  0  0  0  0  0  0  0  0  0
   -6.6111   17.8010   25.8426 C   0  0  0  0  0  0  0  0  0  0  0  0
   -4.6701   18.3360   25.5050 C   0  0  0  0  0  0  0  0  0  0  0  0
   -6.7315   16.4173   25.7465 C   0  0  0  0  0  0  0  0  0  0  0  0
   -4.9796   16.6878   25.3005 C   0  0  0  0  0  0  0  0  0  0  0  0
  2  1  1  0
  4  1  1  0
  4  2  1  0
  6  1  1  0
  7  3  1  0
  8  7  1  0
  9  1  1  0
  9  6  1  0
 10  5  1  0
 10  9  1  0
 13  2  1  0
 13  5  1  0
 13 10  1  0
 13 11  1  0
 14 12  1  0
 15 12  1  0
 16  8  1  0
 16 15  1  0
 17  6  1  0
 18  7  1  0
 19  8  1  0
 20 17  1  0
 20 18  1  0
 21 12  1  0
 21 19  1  0
 22 20  1  0
 22 21  1  0
M  END
>  <ID>  (1) 
conformer_0

$$$$
