
     RDKit          3D

 21 23  0  0  0  0  0  0  0  0999 V2000
   -6.6438   19.9571   23.1959 C   0  0  0  0  0  0  0  0  0  0  0  0
   -3.5906   21.9378   22.8371 C   0  0  0  0  0  0  0  0  0  0  0  0
   -5.4095   20.5318   21.6716 C   0  0  0  0  0  0  0  0  0  0  0  0
   -5.5680   21.6653   22.8442 C   0  0  0  0  0  0  0  0  0  0  0  0
   -6.4708   17.4548   25.9167 C   0  0  0  0  0  0  0  0  0  0  0  0
   -7.0991   19.1626   24.9200 C   0  0  0  0  0  0  0  0  0  0  0  0
   -6.7690   18.0372   23.7484 C   0  0  0  0  0  0  0  0  0  0  0  0
   -6.7713   16.4229   25.6282 C   0  0  0  0  0  0  0  0  0  0  0  0
   -8.6682   17.5969   25.5585 C   0  0  0  0  0  0  0  0  0  0  0  0
   -8.4696   17.7591   24.3121 C   0  0  0  0  0  0  0  0  0  0  0  0
   -8.1668   16.1778   26.1827 C   0  0  0  0  0  0  0  0  0  0  0  0
   -8.7413   15.3210   26.6476 O   0  0  0  0  0  0  0  0  0  0  0  0
   -3.1134   21.5712   21.7420 C   0  0  0  0  0  0  0  0  0  0  0  0
   -3.2989   22.2710   20.7974 O   0  0  0  0  0  0  0  0  0  0  0  0
   -4.9107   17.0888   25.0586 C   0  0  0  0  0  0  0  0  0  0  0  0
   -4.9044   18.6431   25.0420 C   0  0  0  0  0  0  0  0  0  0  0  0
   -5.1297   19.8082   23.8001 C   0  0  0  0  0  0  0  0  0  0  0  0
   -2.0911   20.3515   21.6837 C   0  0  0  0  0  0  0  0  0  0  0  0
   -3.7678   19.5559   22.7804 C   0  0  0  0  0  0  0  0  0  0  0  0
   -3.4959   18.2822   24.0122 C   0  0  0  0  0  0  0  0  0  0  0  0
   -2.2924   19.1587   22.8403 C   0  0  0  0  0  0  0  0  0  0  0  0
  4  2  1  0
  4  3  1  0
  6  1  1  0
  7  6  1  0
  8  5  1  0
 10  7  1  0
 10  9  1  0
 11  8  1  0
 11  9  1  0
 12 11  1  0
 13  2  1  0
 14 13  2  0
 15  5  1  0
 16 15  1  0
 17  1  1  0
 17 16  1  0
 18 13  1  0
 19 17  1  0
 20 16  1  0
 20 19  1  0
 21 18  1  0
 21 19  1  0
 21 20  1  0
M  END
>  <ID>  (1) 
conformer_0

$$$$
