
     RDKit          3D

 23 31  0  0  0  0  0  0  0  0999 V2000
   -8.1957   18.1049   25.5340 C   0  0  0  0  0  0  0  0  0  0  0  0
   -4.3765   21.7768   22.9486 C   0  0  0  0  0  0  0  0  0  0  0  0
   -2.6040   21.6239   22.5892 C   0  0  0  0  0  0  0  0  0  0  0  0
   -2.2977   19.4494   22.6819 C   0  0  0  0  0  0  0  0  0  0  0  0
   -1.6722   20.4134   21.5208 C   0  0  0  0  0  0  0  0  0  0  0  0
   -3.6567   19.8531   22.9806 C   0  0  0  0  0  0  0  0  0  0  0  0
   -4.6269   18.4435   24.6253 C   0  0  0  0  0  0  0  0  0  0  0  0
   -5.9214   20.4529   21.9800 C   0  0  0  0  0  0  0  0  0  0  0  0
   -3.2976   18.2195   23.8532 C   0  0  0  0  0  0  0  0  0  0  0  0
   -8.5519   16.2701   25.8356 C   0  0  0  0  0  0  0  0  0  0  0  0
   -4.6355   20.6488   21.2630 C   0  0  0  0  0  0  0  0  0  0  0  0
   -3.0252   21.3850   21.0206 C   0  0  0  0  0  0  0  0  0  0  0  0
   -9.2657   15.4507   26.3970 O   0  0  0  0  0  0  0  0  0  0  0  0
   -3.0679   21.9578   20.1394 O   0  0  0  0  0  0  0  0  0  0  0  0
   -5.7174   19.1842   23.2907 C   0  0  0  0  0  0  0  0  0  0  0  0
   -4.7685   20.6823   24.0676 C   0  0  0  0  0  0  0  0  0  0  0  0
   -6.5606   19.5657   24.5141 C   0  0  0  0  0  0  0  0  0  0  0  0
   -4.5410   17.0513   25.1947 C   0  0  0  0  0  0  0  0  0  0  0  0
   -6.1570   16.7451   25.6838 C   0  0  0  0  0  0  0  0  0  0  0  0
   -7.0910   16.3457   26.5423 C   0  0  0  0  0  0  0  0  0  0  0  0
   -6.2119   18.1877   25.5971 C   0  0  0  0  0  0  0  0  0  0  0  0
   -7.6135   18.0987   23.9874 C   0  0  0  0  0  0  0  0  0  0  0  0
   -9.1911   17.2212   24.6861 C   0  0  0  0  0  0  0  0  0  0  0  0
  3  2  1  0
  5  3  1  0
  5  4  1  0
  6  4  1  0
  9  6  1  0
  9  7  1  0
 10  1  1  0
 11  8  1  0
 12  3  1  0
 12  5  1  0
 12 11  1  0
 13 10  1  0
 14 12  1  0
 15  7  1  0
 15  8  1  0
 16  2  1  0
 16  6  1  0
 16 15  1  0
 17 15  1  0
 18  7  1  0
 19 18  1  0
 20 10  1  0
 20 19  1  0
 21  7  1  0
 21 17  1  0
 21 19  1  0
 22  1  1  0
 22 17  1  0
 23  1  1  0
 23 10  1  0
 23 22  1  0
M  END
>  <ID>  (1) 
conformer_0

$$$$
