
     RDKit          3D

 24 28  0  0  0  0  0  0  0  0999 V2000
   -6.6050   18.2965   25.9833 C   0  0  0  0  0  0  0  0  0  0  0  0
   -7.3308   19.3874   24.9536 C   0  0  0  0  0  0  0  0  0  0  0  0
   -8.8060   17.3474   25.2835 C   0  0  0  0  0  0  0  0  0  0  0  0
   -6.9358   16.4545   26.3715 C   0  0  0  0  0  0  0  0  0  0  0  0
   -8.2781   17.8932   24.1807 C   0  0  0  0  0  0  0  0  0  0  0  0
   -6.5283   16.9881   24.9186 C   0  0  0  0  0  0  0  0  0  0  0  0
   -4.9657   17.0860   25.6967 C   0  0  0  0  0  0  0  0  0  0  0  0
   -6.6625   18.7864   23.3403 C   0  0  0  0  0  0  0  0  0  0  0  0
   -2.2260   18.9679   22.9693 C   0  0  0  0  0  0  0  0  0  0  0  0
   -5.3478   19.3229   24.8693 C   0  0  0  0  0  0  0  0  0  0  0  0
   -4.4816   17.7947   24.4494 C   0  0  0  0  0  0  0  0  0  0  0  0
   -9.2126   15.3022   26.4012 O   0  0  0  0  0  0  0  0  0  0  0  0
   -3.1600   22.3426   19.9648 O   0  0  0  0  0  0  0  0  0  0  0  0
   -8.5526   16.2890   25.9173 C   0  0  0  0  0  0  0  0  0  0  0  0
   -3.1204   21.6881   20.7805 C   0  0  0  0  0  0  0  0  0  0  0  0
   -2.9230   20.2387   23.0776 C   0  0  0  0  0  0  0  0  0  0  0  0
   -6.4493   20.1905   23.0881 C   0  0  0  0  0  0  0  0  0  0  0  0
   -5.0414   21.6116   22.7363 C   0  0  0  0  0  0  0  0  0  0  0  0
   -5.5630   20.5957   21.3571 C   0  0  0  0  0  0  0  0  0  0  0  0
   -3.5098   20.4495   21.1791 C   0  0  0  0  0  0  0  0  0  0  0  0
   -1.8316   20.4556   21.6186 C   0  0  0  0  0  0  0  0  0  0  0  0
   -3.3188   18.5805   24.2953 C   0  0  0  0  0  0  0  0  0  0  0  0
   -3.4891   22.2166   22.5342 C   0  0  0  0  0  0  0  0  0  0  0  0
   -4.6906   19.6911   23.0936 C   0  0  0  0  0  0  0  0  0  0  0  0
  2  1  1  0
  4  1  1  0
  5  2  1  0
  5  3  1  0
  6  1  1  0
  6  4  1  0
  7  6  1  0
  8  2  1  0
 10  1  1  0
 11  7  1  0
 11 10  1  0
 14  3  1  0
 14  4  1  0
 14 12  1  0
 15 13  2  0
 16  9  1  0
 17  8  1  0
 19 18  1  0
 20 15  1  0
 21 16  1  0
 21 20  1  0
 22  9  1  0
 22 11  1  0
 23 15  1  0
 23 18  1  0
 24 10  1  0
 24 16  1  0
 24 17  1  0
M  END
>  <ID>  (1) 
conformer_0

$$$$
