
     RDKit          3D

 21 25  0  0  0  0  0  0  0  0999 V2000
   -5.2449   21.9039   22.3736 C   0  0  0  0  0  0  0  0  0  0  0  0
   -7.6423   19.0463   25.4937 C   0  0  0  0  0  0  0  0  0  0  0  0
   -6.0565   19.0124   23.3622 C   0  0  0  0  0  0  0  0  0  0  0  0
   -6.5204   20.3073   23.3890 C   0  0  0  0  0  0  0  0  0  0  0  0
   -7.7515   18.3010   24.1727 C   0  0  0  0  0  0  0  0  0  0  0  0
   -5.6110   20.3462   21.6127 C   0  0  0  0  0  0  0  0  0  0  0  0
   -4.4345   20.2195   23.7280 C   0  0  0  0  0  0  0  0  0  0  0  0
   -5.7916   18.9447   24.9554 C   0  0  0  0  0  0  0  0  0  0  0  0
   -7.0610   16.8083   25.9408 C   0  0  0  0  0  0  0  0  0  0  0  0
   -8.7952   17.3966   25.2239 C   0  0  0  0  0  0  0  0  0  0  0  0
   -8.8183   15.4916   26.9524 O   0  0  0  0  0  0  0  0  0  0  0  0
   -3.0279   21.1264   20.8915 C   0  0  0  0  0  0  0  0  0  0  0  0
   -8.4544   16.2868   26.0190 C   0  0  0  0  0  0  0  0  0  0  0  0
   -3.0120   21.4256   20.0345 O   0  0  0  0  0  0  0  0  0  0  0  0
   -3.3747   18.7717   23.5029 C   0  0  0  0  0  0  0  0  0  0  0  0
   -3.8017   20.8615   22.2671 C   0  0  0  0  0  0  0  0  0  0  0  0
   -2.4208   19.9684   22.8058 C   0  0  0  0  0  0  0  0  0  0  0  0
   -1.9611   20.3489   21.4993 C   0  0  0  0  0  0  0  0  0  0  0  0
   -6.0647   17.1170   25.2806 C   0  0  0  0  0  0  0  0  0  0  0  0
   -3.9419   18.5052   24.6978 C   0  0  0  0  0  0  0  0  0  0  0  0
   -4.6927   17.0250   24.8896 C   0  0  0  0  0  0  0  0  0  0  0  0
  4  3  1  0
  5  2  1  0
  6  1  1  0
  8  2  1  0
  8  3  1  0
 10  5  1  0
 10  9  1  0
 13  9  1  0
 13 10  1  0
 13 11  1  0
 14 12  2  0
 15  7  1  0
 16  1  1  0
 16  7  1  0
 16 12  1  0
 17 15  1  0
 17 16  1  0
 18 12  1  0
 18 17  1  0
 19  8  1  0
 19  9  1  0
 20  8  1  0
 20 15  1  0
 21 19  1  0
 21 20  1  0
M  END
>  <ID>  (1) 
conformer_0

$$$$
