
     RDKit          3D

 22 26  0  0  0  0  0  0  0  0999 V2000
   -6.5122   19.4275   22.4732 C   0  0  0  0  0  0  0  0  0  0  0  0
   -4.9403   18.8899   25.1879 C   0  0  0  0  0  0  0  0  0  0  0  0
   -4.9104   20.2965   21.5976 C   0  0  0  0  0  0  0  0  0  0  0  0
   -4.8133   19.2688   23.4070 C   0  0  0  0  0  0  0  0  0  0  0  0
   -6.3208   17.9933   24.3972 C   0  0  0  0  0  0  0  0  0  0  0  0
   -7.8869   18.6394   24.3255 C   0  0  0  0  0  0  0  0  0  0  0  0
   -4.4380   17.3451   24.8977 C   0  0  0  0  0  0  0  0  0  0  0  0
   -6.8956   19.1822   25.8292 C   0  0  0  0  0  0  0  0  0  0  0  0
   -8.5983   17.3239   25.0962 C   0  0  0  0  0  0  0  0  0  0  0  0
   -3.0378   21.3256   20.1916 O   0  0  0  0  0  0  0  0  0  0  0  0
   -7.0716   16.6949   25.5512 C   0  0  0  0  0  0  0  0  0  0  0  0
   -5.6796   16.5643   25.7148 C   0  0  0  0  0  0  0  0  0  0  0  0
   -8.3171   15.2322   26.8047 O   0  0  0  0  0  0  0  0  0  0  0  0
   -3.0120   21.2268   21.0774 C   0  0  0  0  0  0  0  0  0  0  0  0
   -7.7575   15.8841   25.8663 C   0  0  0  0  0  0  0  0  0  0  0  0
   -6.2062   20.1967   23.9288 C   0  0  0  0  0  0  0  0  0  0  0  0
   -5.7873   21.4626   22.0867 C   0  0  0  0  0  0  0  0  0  0  0  0
   -3.1501   18.9278   23.6569 C   0  0  0  0  0  0  0  0  0  0  0  0
   -3.4668   20.3902   22.8947 C   0  0  0  0  0  0  0  0  0  0  0  0
   -2.0153   20.0131   22.1092 C   0  0  0  0  0  0  0  0  0  0  0  0
   -4.2720   22.0277   22.8903 C   0  0  0  0  0  0  0  0  0  0  0  0
   -2.2963   21.8479   22.4721 C   0  0  0  0  0  0  0  0  0  0  0  0
  4  2  1  0
  5  2  1  0
  6  5  1  0
  7  2  1  0
  8  5  1  0
  8  6  1  0
  9  6  1  0
 11  5  1  0
 11  9  1  0
 12  7  1  0
 12 11  1  0
 14 10  1  0
 15 11  1  0
 15 13  1  0
 16  1  1  0
 16  4  1  0
 17  3  1  0
 18  4  1  0
 19  4  1  0
 19 18  1  0
 20 14  1  0
 20 19  1  0
 21 17  1  0
 21 19  1  0
 22 14  1  0
 22 20  1  0
M  END
>  <ID>  (1) 
conformer_0

$$$$
