
     RDKit          3D

 22 29  0  0  0  0  0  0  0  0999 V2000
   -4.8338   21.7069   23.0436 C   0  0  0  0  0  0  0  0  0  0  0  0
   -1.9219   20.4652   21.3341 C   0  0  0  0  0  0  0  0  0  0  0  0
   -5.2162   18.7837   23.9230 C   0  0  0  0  0  0  0  0  0  0  0  0
   -3.4700   18.2343   24.0861 C   0  0  0  0  0  0  0  0  0  0  0  0
   -2.4885   21.3900   22.5120 C   0  0  0  0  0  0  0  0  0  0  0  0
   -4.3142   20.2623   21.9580 C   0  0  0  0  0  0  0  0  0  0  0  0
   -6.2948   20.3466   23.8235 C   0  0  0  0  0  0  0  0  0  0  0  0
   -2.2808   19.4951   23.0680 C   0  0  0  0  0  0  0  0  0  0  0  0
   -3.8752   19.9108   23.6290 C   0  0  0  0  0  0  0  0  0  0  0  0
   -8.6672   16.0265   26.0456 C   0  0  0  0  0  0  0  0  0  0  0  0
   -3.1810   22.0621   20.0453 O   0  0  0  0  0  0  0  0  0  0  0  0
   -8.8642   15.2421   26.7465 O   0  0  0  0  0  0  0  0  0  0  0  0
   -2.9714   21.4497   20.7120 C   0  0  0  0  0  0  0  0  0  0  0  0
   -9.3705   17.0680   25.0340 C   0  0  0  0  0  0  0  0  0  0  0  0
   -8.0642   18.5190   24.9092 C   0  0  0  0  0  0  0  0  0  0  0  0
   -4.5779   17.7197   25.3491 C   0  0  0  0  0  0  0  0  0  0  0  0
   -7.4595   17.0513   25.3607 C   0  0  0  0  0  0  0  0  0  0  0  0
   -6.7593   16.5948   26.5752 C   0  0  0  0  0  0  0  0  0  0  0  0
   -5.4623   16.6267   25.3403 C   0  0  0  0  0  0  0  0  0  0  0  0
   -6.3277   18.5501   25.6038 C   0  0  0  0  0  0  0  0  0  0  0  0
   -6.8737   18.7791   23.5402 C   0  0  0  0  0  0  0  0  0  0  0  0
   -6.0043   20.2690   22.0560 C   0  0  0  0  0  0  0  0  0  0  0  0
  4  3  1  0
  5  2  1  0
  6  1  1  0
  8  5  1  0
  9  3  1  0
  9  4  1  0
  9  6  1  0
  9  8  1  0
 12 10  1  0
 13  2  1  0
 13  5  1  0
 13 11  1  0
 14 10  1  0
 15 14  1  0
 16  3  1  0
 16  4  1  0
 17 10  1  0
 17 15  1  0
 18 17  1  0
 19 16  1  0
 19 18  1  0
 20 15  1  0
 20 16  1  0
 20 17  1  0
 21  3  1  0
 21  7  1  0
 21 15  1  0
 22  6  1  0
 22  7  1  0
M  END
>  <ID>  (1) 
conformer_0

$$$$
