
     RDKit          3D

 22 27  0  0  0  0  0  0  0  0999 V2000
   -4.5186   22.0846   22.6928 C   0  0  0  0  0  0  0  0  0  0  0  0
   -5.5649   20.3257   21.5623 C   0  0  0  0  0  0  0  0  0  0  0  0
   -4.3892   17.2202   24.9083 C   0  0  0  0  0  0  0  0  0  0  0  0
   -4.6516   19.0372   23.5443 C   0  0  0  0  0  0  0  0  0  0  0  0
   -6.0694   17.9942   24.7441 C   0  0  0  0  0  0  0  0  0  0  0  0
   -6.8186   18.8505   23.1116 C   0  0  0  0  0  0  0  0  0  0  0  0
   -9.0626   17.4931   25.1980 C   0  0  0  0  0  0  0  0  0  0  0  0
   -8.2809   17.7104   23.8477 C   0  0  0  0  0  0  0  0  0  0  0  0
   -5.7343   16.5740   25.7152 C   0  0  0  0  0  0  0  0  0  0  0  0
   -7.0426   16.8766   26.0436 C   0  0  0  0  0  0  0  0  0  0  0  0
   -3.2297   21.4370   21.4227 C   0  0  0  0  0  0  0  0  0  0  0  0
   -8.2618   16.4727   26.1576 C   0  0  0  0  0  0  0  0  0  0  0  0
   -3.1020   22.1150   20.6739 O   0  0  0  0  0  0  0  0  0  0  0  0
   -8.6329   15.4606   26.5002 O   0  0  0  0  0  0  0  0  0  0  0  0
   -6.4676   19.2780   25.4472 C   0  0  0  0  0  0  0  0  0  0  0  0
   -7.8794   18.8845   25.1437 C   0  0  0  0  0  0  0  0  0  0  0  0
   -5.7833   19.9870   23.3103 C   0  0  0  0  0  0  0  0  0  0  0  0
   -1.7745   20.4861   21.7975 C   0  0  0  0  0  0  0  0  0  0  0  0
   -4.0678   20.2444   22.2156 C   0  0  0  0  0  0  0  0  0  0  0  0
   -3.6283   18.4705   24.3110 C   0  0  0  0  0  0  0  0  0  0  0  0
   -2.6211   20.1655   23.1658 C   0  0  0  0  0  0  0  0  0  0  0  0
   -2.2624   18.7196   23.3994 C   0  0  0  0  0  0  0  0  0  0  0  0
  5  3  1  0
  8  7  1  0
  9  3  1  0
  9  5  1  0
 10  9  1  0
 11  1  1  0
 12  7  1  0
 12 10  1  0
 13 11  1  0
 14 12  1  0
 15  5  1  0
 16  7  1  0
 16  8  1  0
 16 15  1  0
 17  2  1  0
 17  4  1  0
 17  6  1  0
 18 11  1  0
 19  2  1  0
 19  4  1  0
 19 11  1  0
 20  3  1  0
 20  4  1  0
 21 18  1  0
 21 19  1  0
 22 20  1  0
 22 21  1  0
M  END
>  <ID>  (1) 
conformer_0

$$$$
