
     RDKit          3D

 22 28  0  0  0  0  0  0  0  0999 V2000
   -4.4528   20.3110   24.2710 C   0  0  0  0  0  0  0  0  0  0  0  0
   -4.7130   21.8855   23.3412 C   0  0  0  0  0  0  0  0  0  0  0  0
   -5.1008   20.7042   21.4310 C   0  0  0  0  0  0  0  0  0  0  0  0
   -6.0757   19.9268   22.5839 C   0  0  0  0  0  0  0  0  0  0  0  0
   -3.0868   22.0780   22.6177 C   0  0  0  0  0  0  0  0  0  0  0  0
   -2.4518   19.2108   23.0141 C   0  0  0  0  0  0  0  0  0  0  0  0
   -3.9233   20.0457   22.5238 C   0  0  0  0  0  0  0  0  0  0  0  0
   -3.3241   18.3598   24.1091 C   0  0  0  0  0  0  0  0  0  0  0  0
   -1.9347   20.3635   21.5811 C   0  0  0  0  0  0  0  0  0  0  0  0
   -3.2777   21.8792   20.0439 O   0  0  0  0  0  0  0  0  0  0  0  0
   -3.2239   21.1520   21.0248 C   0  0  0  0  0  0  0  0  0  0  0  0
   -8.9051   15.3524   26.4819 O   0  0  0  0  0  0  0  0  0  0  0  0
   -7.9948   18.3355   25.4823 C   0  0  0  0  0  0  0  0  0  0  0  0
   -8.5923   16.3359   25.8689 C   0  0  0  0  0  0  0  0  0  0  0  0
   -6.4601   19.7392   24.3397 C   0  0  0  0  0  0  0  0  0  0  0  0
   -5.0996   18.5558   23.8898 C   0  0  0  0  0  0  0  0  0  0  0  0
   -7.0167   16.7635   25.8205 C   0  0  0  0  0  0  0  0  0  0  0  0
   -4.3284   17.2783   24.9434 C   0  0  0  0  0  0  0  0  0  0  0  0
   -5.5852   16.5334   25.3661 C   0  0  0  0  0  0  0  0  0  0  0  0
   -5.9758   18.4472   25.4441 C   0  0  0  0  0  0  0  0  0  0  0  0
   -7.5346   18.3154   23.9952 C   0  0  0  0  0  0  0  0  0  0  0  0
   -9.1529   17.3021   24.9106 C   0  0  0  0  0  0  0  0  0  0  0  0
  2  1  1  0
  4  3  1  0
  5  2  1  0
  7  1  1  0
  7  3  1  0
  7  6  1  0
  8  6  1  0
  9  6  1  0
 11  5  1  0
 11  9  1  0
 11 10  1  0
 14 12  1  0
 15  4  1  0
 16  8  1  0
 16 15  1  0
 17 13  1  0
 17 14  1  0
 18  8  1  0
 18 16  1  0
 19 17  1  0
 19 18  1  0
 20 15  1  0
 20 16  1  0
 20 19  1  0
 21 13  1  0
 21 15  1  0
 22 13  1  0
 22 14  1  0
M  END
>  <ID>  (1) 
conformer_0

$$$$
