
     RDKit          3D

 23 29  0  0  0  0  0  0  0  0999 V2000
   -6.8312   19.7008   25.2471 C   0  0  0  0  0  0  0  0  0  0  0  0
   -7.1119   18.6649   23.9392 C   0  0  0  0  0  0  0  0  0  0  0  0
   -6.9366   16.3562   25.7172 C   0  0  0  0  0  0  0  0  0  0  0  0
   -6.3285   20.3930   23.3147 C   0  0  0  0  0  0  0  0  0  0  0  0
   -5.3728   21.2440   21.1052 C   0  0  0  0  0  0  0  0  0  0  0  0
   -5.4834   19.8651   22.0175 C   0  0  0  0  0  0  0  0  0  0  0  0
   -6.3718   17.3861   25.8006 C   0  0  0  0  0  0  0  0  0  0  0  0
   -5.0270   16.4586   25.4048 C   0  0  0  0  0  0  0  0  0  0  0  0
   -5.5128   18.2255   24.3547 C   0  0  0  0  0  0  0  0  0  0  0  0
   -8.8538   17.1833   24.6959 C   0  0  0  0  0  0  0  0  0  0  0  0
   -3.1988   21.8616   19.9079 O   0  0  0  0  0  0  0  0  0  0  0  0
   -8.9147   15.4941   26.6102 O   0  0  0  0  0  0  0  0  0  0  0  0
   -3.3703   21.6755   20.9458 C   0  0  0  0  0  0  0  0  0  0  0  0
   -8.5031   16.2547   25.7325 C   0  0  0  0  0  0  0  0  0  0  0  0
   -4.1269   17.9157   25.1843 C   0  0  0  0  0  0  0  0  0  0  0  0
   -4.6753   21.9649   22.3478 C   0  0  0  0  0  0  0  0  0  0  0  0
   -4.6708   19.7485   23.8401 C   0  0  0  0  0  0  0  0  0  0  0  0
   -3.5919   20.4524   22.5381 C   0  0  0  0  0  0  0  0  0  0  0  0
   -1.9090   20.4623   21.7894 C   0  0  0  0  0  0  0  0  0  0  0  0
   -2.4780   22.0254   22.4999 C   0  0  0  0  0  0  0  0  0  0  0  0
   -3.3873   18.5615   23.8649 C   0  0  0  0  0  0  0  0  0  0  0  0
   -2.3711   19.6519   23.3192 C   0  0  0  0  0  0  0  0  0  0  0  0
   -8.2137   18.2961   25.1425 C   0  0  0  0  0  0  0  0  0  0  0  0
  2  1  1  0
  6  4  1  0
  6  5  1  0
  7  3  1  0
  8  7  1  0
  9  2  1  0
  9  7  1  0
 13 11  2  0
 14  3  1  0
 14 10  1  0
 14 12  1  0
 15  8  1  0
 15  9  1  0
 16  5  1  0
 16 13  1  0
 17  4  1  0
 17  9  1  0
 18 16  1  0
 18 17  1  0
 19 18  1  0
 20 13  1  0
 20 19  1  0
 21 15  1  0
 21 17  1  0
 22 18  1  0
 22 19  1  0
 22 21  1  0
 23  2  1  0
 23 10  1  0
M  END
>  <ID>  (1) 
conformer_0

$$$$
