
     RDKit          3D

 21 25  0  0  0  0  0  0  0  0999 V2000
   -8.1175   17.9049   24.0854 C   0  0  0  0  0  0  0  0  0  0  0  0
   -3.4613   19.0072   23.1232 C   0  0  0  0  0  0  0  0  0  0  0  0
   -4.2071   18.1039   24.5680 C   0  0  0  0  0  0  0  0  0  0  0  0
   -8.9591   17.1104   25.1042 C   0  0  0  0  0  0  0  0  0  0  0  0
   -5.9289   18.9800   25.4896 C   0  0  0  0  0  0  0  0  0  0  0  0
   -6.8030   19.8100   23.3234 C   0  0  0  0  0  0  0  0  0  0  0  0
   -7.4955   18.8251   25.3145 C   0  0  0  0  0  0  0  0  0  0  0  0
   -4.5767   16.9991   25.1246 C   0  0  0  0  0  0  0  0  0  0  0  0
   -5.8941   16.7399   25.6528 C   0  0  0  0  0  0  0  0  0  0  0  0
   -7.1472   17.0569   25.8714 C   0  0  0  0  0  0  0  0  0  0  0  0
   -2.9391   21.9131   21.0634 C   0  0  0  0  0  0  0  0  0  0  0  0
   -3.2363   22.4329   19.8918 O   0  0  0  0  0  0  0  0  0  0  0  0
   -8.6084   15.4624   26.9845 O   0  0  0  0  0  0  0  0  0  0  0  0
   -8.3295   16.3211   26.2291 C   0  0  0  0  0  0  0  0  0  0  0  0
   -5.0244   19.8657   23.4228 C   0  0  0  0  0  0  0  0  0  0  0  0
   -2.0020   20.3562   21.8797 C   0  0  0  0  0  0  0  0  0  0  0  0
   -5.5958   20.4670   21.8248 C   0  0  0  0  0  0  0  0  0  0  0  0
   -3.1285   22.0313   22.5817 C   0  0  0  0  0  0  0  0  0  0  0  0
   -5.0552   21.7389   22.2252 C   0  0  0  0  0  0  0  0  0  0  0  0
   -6.1148   18.4664   23.7255 C   0  0  0  0  0  0  0  0  0  0  0  0
   -3.6913   20.1235   21.8106 C   0  0  0  0  0  0  0  0  0  0  0  0
  3  2  1  0
  4  1  1  0
  7  1  1  0
  7  5  1  0
  8  3  1  0
  9  8  2  0
 10  4  1  0
 10  7  1  0
 10  9  1  0
 12 11  1  0
 14  4  1  0
 14 10  1  0
 14 13  1  0
 15  2  1  0
 15  6  1  0
 17 15  1  0
 18 11  1  0
 19 17  1  0
 19 18  1  0
 20  5  1  0
 20  6  1  0
 20 15  1  0
 21  2  1  0
 21 16  1  0
 21 17  1  0
M  END
>  <ID>  (1) 
conformer_0

$$$$
