
     RDKit          3D

 23 28  0  0  0  0  0  0  0  0999 V2000
   -5.7109   21.5129   22.6065 C   0  0  0  0  0  0  0  0  0  0  0  0
   -5.2754   20.4037   21.5158 C   0  0  0  0  0  0  0  0  0  0  0  0
   -6.3113   19.9613   24.4371 C   0  0  0  0  0  0  0  0  0  0  0  0
   -3.4379   22.1771   22.5520 C   0  0  0  0  0  0  0  0  0  0  0  0
   -8.7217   17.2920   24.5722 C   0  0  0  0  0  0  0  0  0  0  0  0
   -4.3454   17.1996   25.1391 C   0  0  0  0  0  0  0  0  0  0  0  0
   -7.6261   18.0806   23.7384 C   0  0  0  0  0  0  0  0  0  0  0  0
   -6.0108   18.3665   25.7498 C   0  0  0  0  0  0  0  0  0  0  0  0
   -7.7124   18.5200   25.5874 C   0  0  0  0  0  0  0  0  0  0  0  0
   -5.6287   16.3651   25.8897 C   0  0  0  0  0  0  0  0  0  0  0  0
   -6.9462   16.6663   26.1767 C   0  0  0  0  0  0  0  0  0  0  0  0
   -8.8161   15.6872   26.4141 O   0  0  0  0  0  0  0  0  0  0  0  0
   -8.2913   16.3917   25.8934 C   0  0  0  0  0  0  0  0  0  0  0  0
   -3.0816   21.6698   20.1450 O   0  0  0  0  0  0  0  0  0  0  0  0
   -3.0787   21.4288   21.1071 C   0  0  0  0  0  0  0  0  0  0  0  0
   -4.6963   19.3890   23.4364 C   0  0  0  0  0  0  0  0  0  0  0  0
   -4.4521   21.4640   23.5641 C   0  0  0  0  0  0  0  0  0  0  0  0
   -5.8051   17.9675   24.2649 C   0  0  0  0  0  0  0  0  0  0  0  0
   -3.3857   20.2020   22.3789 C   0  0  0  0  0  0  0  0  0  0  0  0
   -3.7139   18.4706   24.0753 C   0  0  0  0  0  0  0  0  0  0  0  0
   -2.2922   19.2248   23.0036 C   0  0  0  0  0  0  0  0  0  0  0  0
   -1.8207   20.3931   21.7318 C   0  0  0  0  0  0  0  0  0  0  0  0
   -6.5096   19.5229   22.7862 C   0  0  0  0  0  0  0  0  0  0  0  0
  2  1  1  0
  7  5  1  0
  9  5  1  0
  9  7  1  0
  9  8  1  0
 10  6  1  0
 11 10  1  0
 13  5  1  0
 13 11  1  0
 13 12  1  0
 15  4  1  0
 15 14  1  0
 17  1  1  0
 17  4  1  0
 18  6  1  0
 18  7  1  0
 18  8  1  0
 19 15  1  0
 19 16  1  0
 20  6  1  0
 20 16  1  0
 21 19  1  0
 21 20  1  0
 22 15  1  0
 22 19  1  0
 22 21  1  0
 23  3  1  0
 23 16  1  0
M  END
>  <ID>  (1) 
conformer_0

$$$$
