
     RDKit          3D

 22 31  0  0  0  0  0  0  0  0999 V2000
   -7.3477   18.4780   23.8596 C   0  0  0  0  0  0  0  0  0  0  0  0
   -7.8767   17.3276   25.1400 C   0  0  0  0  0  0  0  0  0  0  0  0
   -6.8731   16.4712   26.2111 C   0  0  0  0  0  0  0  0  0  0  0  0
   -1.9412   20.8189   21.8184 C   0  0  0  0  0  0  0  0  0  0  0  0
   -9.3844   17.3676   25.1280 C   0  0  0  0  0  0  0  0  0  0  0  0
   -7.5672   19.2571   25.4787 C   0  0  0  0  0  0  0  0  0  0  0  0
   -6.2692   20.0943   23.7139 C   0  0  0  0  0  0  0  0  0  0  0  0
   -5.6612   17.0231   25.4748 C   0  0  0  0  0  0  0  0  0  0  0  0
   -5.4287   18.7375   23.8861 C   0  0  0  0  0  0  0  0  0  0  0  0
   -3.3134   21.2634   21.1583 C   0  0  0  0  0  0  0  0  0  0  0  0
   -8.7313   16.1696   26.0678 C   0  0  0  0  0  0  0  0  0  0  0  0
   -9.2409   15.4236   26.8398 O   0  0  0  0  0  0  0  0  0  0  0  0
   -4.2280   19.6200   22.3464 C   0  0  0  0  0  0  0  0  0  0  0  0
   -3.3983   22.0723   20.3175 O   0  0  0  0  0  0  0  0  0  0  0  0
   -5.9550   18.5856   25.7625 C   0  0  0  0  0  0  0  0  0  0  0  0
   -3.8470   21.0991   22.7206 C   0  0  0  0  0  0  0  0  0  0  0  0
   -4.0960   17.6138   25.1001 C   0  0  0  0  0  0  0  0  0  0  0  0
   -2.1871   19.5835   22.6321 C   0  0  0  0  0  0  0  0  0  0  0  0
   -2.5616   18.4603   23.7136 C   0  0  0  0  0  0  0  0  0  0  0  0
   -3.8511   18.9304   24.0668 C   0  0  0  0  0  0  0  0  0  0  0  0
   -5.9907   20.0568   22.2492 C   0  0  0  0  0  0  0  0  0  0  0  0
   -5.1752   20.8145   21.1879 C   0  0  0  0  0  0  0  0  0  0  0  0
  2  1  1  0
  3  2  1  0
  5  2  1  0
  6  1  1  0
  7  1  1  0
  8  3  1  0
  9  1  1  0
  9  7  1  0
 10  4  1  0
 11  2  1  0
 11  3  1  0
 11  5  1  0
 12 11  1  0
 14 10  1  0
 15  6  1  0
 15  8  1  0
 15  9  1  0
 16 10  1  0
 16 13  1  0
 17  8  1  0
 18  4  1  0
 19 18  1  0
 20  9  1  0
 20 13  1  0
 20 17  1  0
 20 19  1  0
 21  7  1  0
 21 13  1  0
 22 10  1  0
 22 13  1  0
 22 21  1  0
M  END
>  <ID>  (1) 
conformer_0

$$$$
