
     RDKit          3D

 22 25  0  0  0  0  0  0  0  0999 V2000
   -6.6860   18.8394   23.4530 C   0  0  0  0  0  0  0  0  0  0  0  0
   -4.9923   20.4693   21.3685 C   0  0  0  0  0  0  0  0  0  0  0  0
   -7.0397   17.6085   24.9880 C   0  0  0  0  0  0  0  0  0  0  0  0
   -3.5708   18.4057   24.2627 C   0  0  0  0  0  0  0  0  0  0  0  0
   -5.5457   18.3618   25.2911 C   0  0  0  0  0  0  0  0  0  0  0  0
   -9.0991   17.1787   25.0663 C   0  0  0  0  0  0  0  0  0  0  0  0
   -6.7361   20.2588   24.3286 C   0  0  0  0  0  0  0  0  0  0  0  0
   -4.4526   17.1837   25.3025 C   0  0  0  0  0  0  0  0  0  0  0  0
   -7.2053   16.5920   26.2593 C   0  0  0  0  0  0  0  0  0  0  0  0
   -5.5929   16.3918   25.8135 C   0  0  0  0  0  0  0  0  0  0  0  0
   -2.9660   22.1696   20.4131 O   0  0  0  0  0  0  0  0  0  0  0  0
   -3.0647   21.7619   21.3169 C   0  0  0  0  0  0  0  0  0  0  0  0
   -8.8852   15.2186   26.3811 O   0  0  0  0  0  0  0  0  0  0  0  0
   -8.4190   16.1030   25.9583 C   0  0  0  0  0  0  0  0  0  0  0  0
   -6.1458   20.1473   22.4043 C   0  0  0  0  0  0  0  0  0  0  0  0
   -5.2005   21.8022   22.8271 C   0  0  0  0  0  0  0  0  0  0  0  0
   -4.8798   19.1438   23.7471 C   0  0  0  0  0  0  0  0  0  0  0  0
   -3.8674   20.0481   22.7979 C   0  0  0  0  0  0  0  0  0  0  0  0
   -2.3737   19.4064   22.9197 C   0  0  0  0  0  0  0  0  0  0  0  0
   -1.9900   20.4743   21.7124 C   0  0  0  0  0  0  0  0  0  0  0  0
   -3.2172   22.1487   22.5691 C   0  0  0  0  0  0  0  0  0  0  0  0
   -8.0772   18.6996   25.0693 C   0  0  0  0  0  0  0  0  0  0  0  0
  5  3  1  0
  7  1  1  0
  8  4  1  0
  8  5  1  0
  9  3  1  0
 10  8  1  0
 10  9  1  0
 12 11  2  0
 14  6  1  0
 14  9  1  0
 14 13  1  0
 15  1  1  0
 15  2  1  0
 16 15  1  0
 17  1  1  0
 17  4  1  0
 17  5  1  0
 18  2  1  0
 18 17  1  0
 19 18  1  0
 20 12  1  0
 20 19  1  0
 21 12  1  0
 22  3  1  0
 22  6  1  0
M  END
>  <ID>  (1) 
conformer_0

$$$$
