
     RDKit          3D

 22 25  0  0  0  0  0  0  0  0999 V2000
   -7.4398   18.9705   24.7917 C   0  0  0  0  0  0  0  0  0  0  0  0
   -5.5705   20.3812   21.2748 C   0  0  0  0  0  0  0  0  0  0  0  0
   -6.7372   19.8272   23.0426 C   0  0  0  0  0  0  0  0  0  0  0  0
   -6.3669   17.6355   24.8124 C   0  0  2  0  0  0  0  0  0  0  0  0
   -5.4027   21.5729   22.4401 C   0  0  0  0  0  0  0  0  0  0  0  0
   -8.2417   17.7551   23.9794 C   0  0  0  0  0  0  0  0  0  0  0  0
   -5.8818   19.0913   23.4719 C   0  0  0  0  0  0  0  0  0  0  0  0
   -3.1698   18.4147   23.9597 C   0  0  2  0  0  0  0  0  0  0  0  0
   -4.4915   20.7009   23.2867 C   0  0  1  0  0  0  0  0  0  0  0  0
   -8.8335   15.6657   27.3838 O   0  0  0  0  0  0  0  0  0  0  0  0
   -5.8482   16.7381   25.8609 C   0  0  1  0  0  0  0  0  0  0  0  0
   -8.7558   17.5397   25.3219 C   0  0  0  0  0  0  0  0  0  0  0  0
   -7.3365   16.3141   25.9605 C   0  0  0  0  0  0  0  0  0  0  0  0
   -3.3586   21.5351   20.3655 O   0  0  0  0  0  0  0  0  0  0  0  0
   -8.1114   16.0602   26.5127 C   0  0  0  0  0  0  0  0  0  0  0  0
   -3.1832   21.2505   21.3894 C   0  0  0  0  0  0  0  0  0  0  0  0
   -4.8165   18.8080   24.7095 C   0  0  1  0  0  0  0  0  0  0  0  0
   -4.2881   17.4353   24.8924 C   0  0  2  0  0  0  0  0  0  0  0  0
   -3.6888   19.6104   22.7750 C   0  0  1  0  0  0  0  0  0  0  0  0
   -2.1169   19.3417   22.7901 C   0  0  1  0  0  0  0  0  0  0  0  0
   -3.4356   22.1558   22.7505 C   0  0  0  0  0  0  0  0  0  0  0  0
   -1.9740   20.7215   21.9354 C   0  0  0  0  0  0  0  0  0  0  0  0
  4  1  1  1
  5  2  1  0
  6  1  1  0
  7  3  2  3
  9  5  1  6
 11  4  1  0
 12  6  1  0
 11 13  1  6
 15 10  1  0
 15 13  1  0
 16 14  2  0
 17  4  1  0
 17  7  1  1
 17  8  1  0
 18  8  1  0
 18 11  1  6
 18 17  1  0
 19  8  1  0
 19  9  1  1
  8 20  1  1
 20 19  1  0
 21  9  1  0
 21 16  1  0
 22 16  1  0
 20 22  1  1
M  END
>  <ID>  (1) 
conformer_0

$$$$
