
     RDKit          3D

 23 29  0  0  0  0  0  0  0  0999 V2000
   -3.3820   19.2902   23.9071 C   0  0  0  0  0  0  0  0  0  0  0  0
   -2.2413   19.1411   22.8723 C   0  0  0  0  0  0  0  0  0  0  0  0
   -3.2412   21.8563   22.6902 C   0  0  0  0  0  0  0  0  0  0  0  0
   -6.5642   17.5088   25.6528 C   0  0  0  0  0  0  0  0  0  0  0  0
   -1.9542   20.4791   21.7869 C   0  0  0  0  0  0  0  0  0  0  0  0
   -5.0053   20.2101   23.5909 C   0  0  0  0  0  0  0  0  0  0  0  0
   -4.6072   22.1433   22.4114 C   0  0  0  0  0  0  0  0  0  0  0  0
   -3.9814   19.7064   22.2585 C   0  0  0  0  0  0  0  0  0  0  0  0
   -3.9497   17.8106   24.3481 C   0  0  0  0  0  0  0  0  0  0  0  0
   -8.7460   16.4346   25.7727 C   0  0  0  0  0  0  0  0  0  0  0  0
   -9.2588   15.2757   25.6897 O   0  0  0  0  0  0  0  0  0  0  0  0
   -3.4891   21.7217   20.8802 C   0  0  0  0  0  0  0  0  0  0  0  0
   -3.3052   22.1275   19.9820 O   0  0  0  0  0  0  0  0  0  0  0  0
   -7.1633   19.0743   25.8306 C   0  0  0  0  0  0  0  0  0  0  0  0
   -5.3391   16.5407   25.3951 C   0  0  0  0  0  0  0  0  0  0  0  0
   -7.1549   16.2211   26.3182 C   0  0  0  0  0  0  0  0  0  0  0  0
   -4.9229   18.5850   25.6469 C   0  0  0  0  0  0  0  0  0  0  0  0
   -5.6635   18.4823   23.9871 C   0  0  0  0  0  0  0  0  0  0  0  0
   -7.2738   18.9639   24.2771 C   0  0  0  0  0  0  0  0  0  0  0  0
   -8.9434   17.6353   25.2928 C   0  0  0  0  0  0  0  0  0  0  0  0
   -8.3174   17.6727   23.9314 C   0  0  0  0  0  0  0  0  0  0  0  0
   -6.3105   19.6695   22.6737 C   0  0  0  0  0  0  0  0  0  0  0  0
   -5.1828   20.8761   21.3843 C   0  0  0  0  0  0  0  0  0  0  0  0
  2  1  1  0
  5  2  1  0
  6  1  1  0
  7  3  1  0
  8  1  1  0
  8  2  1  0
  8  6  1  0
  9  1  1  0
 11 10  1  0
 12  3  1  0
 13 12  2  0
 14  4  1  0
 15  4  1  0
 16  4  1  0
 16 10  1  0
 17  4  1  0
 17  9  1  0
 18  9  1  0
 18 17  1  0
 19 14  1  0
 19 18  1  0
 20 10  1  0
 21 19  1  0
 21 20  1  0
 22  6  1  0
 22 18  1  0
 23  7  1  0
 23  8  1  0
 23 12  1  0
M  END
>  <ID>  (1) 
conformer_0

$$$$
