
     RDKit          3D

 23 31  0  0  0  0  0  0  0  0999 V2000
   -4.5276   17.6354   25.2733 C   0  0  0  0  0  0  0  0  0  0  0  0
   -8.1974   17.0560   24.1317 C   0  0  0  0  0  0  0  0  0  0  0  0
   -2.9602   21.7654   22.5904 C   0  0  0  0  0  0  0  0  0  0  0  0
   -1.8707   20.4482   21.6255 C   0  0  0  0  0  0  0  0  0  0  0  0
   -4.4671   19.5061   23.9582 C   0  0  0  0  0  0  0  0  0  0  0  0
   -2.3343   19.4871   23.1751 C   0  0  0  0  0  0  0  0  0  0  0  0
   -3.5348   18.2794   24.0318 C   0  0  0  0  0  0  0  0  0  0  0  0
   -5.7285   16.7526   25.6195 C   0  0  0  0  0  0  0  0  0  0  0  0
   -7.0770   16.4303   26.2675 C   0  0  0  0  0  0  0  0  0  0  0  0
   -8.9528   17.6936   25.2730 C   0  0  0  0  0  0  0  0  0  0  0  0
   -3.2284   22.0704   20.1054 O   0  0  0  0  0  0  0  0  0  0  0  0
   -9.0382   15.2138   26.3856 O   0  0  0  0  0  0  0  0  0  0  0  0
   -8.5542   16.1083   25.7499 C   0  0  0  0  0  0  0  0  0  0  0  0
   -2.9078   21.5655   21.1155 C   0  0  0  0  0  0  0  0  0  0  0  0
   -7.0359   18.1806   25.7493 C   0  0  0  0  0  0  0  0  0  0  0  0
   -7.1950   19.8128   25.7964 C   0  0  0  0  0  0  0  0  0  0  0  0
   -7.8060   18.7473   23.9919 C   0  0  0  0  0  0  0  0  0  0  0  0
   -5.8688   18.4277   24.5740 C   0  0  0  0  0  0  0  0  0  0  0  0
   -3.6587   19.7756   22.5074 C   0  0  0  0  0  0  0  0  0  0  0  0
   -4.5481   21.3601   23.2585 C   0  0  0  0  0  0  0  0  0  0  0  0
   -6.3288   19.0976   23.2153 C   0  0  0  0  0  0  0  0  0  0  0  0
   -4.8332   20.5648   21.3672 C   0  0  0  0  0  0  0  0  0  0  0  0
   -6.0161   20.0181   22.4108 C   0  0  0  0  0  0  0  0  0  0  0  0
  4  3  1  0
  6  4  1  0
  7  1  1  0
  7  5  1  0
  7  6  1  0
  8  1  1  0
  9  8  1  0
 10  2  1  0
 13  2  1  0
 13  9  1  0
 13 10  1  0
 13 12  1  0
 14  3  1  0
 14  4  1  0
 14 11  2  0
 15  8  1  0
 15  9  1  0
 16 15  1  0
 17  2  1  0
 18  1  1  0
 18  5  1  0
 18 15  1  0
 19  5  1  0
 19  6  1  0
 20  3  1  0
 20 19  1  0
 21 17  1  0
 21 18  1  0
 22 19  1  0
 23 21  1  0
 23 22  1  0
M  END
>  <ID>  (1) 
conformer_0

$$$$
