
     RDKit          3D

 21 23  0  0  0  0  0  0  0  0999 V2000
  -10.6520   11.8332   15.6276 N   0  0  0  0  0  0  0  0  0  0  0  0
  -10.7226   12.6416   16.5198 C   0  0  0  0  0  0  0  0  0  0  0  0
   -9.4564   13.2341   16.9184 C   0  0  0  0  0  0  0  0  0  0  0  0
   -8.2670   12.8311   16.3349 C   0  0  0  0  0  0  0  0  0  0  0  0
   -6.9719   13.3188   16.7151 C   0  0  0  0  0  0  0  0  0  0  0  0
   -5.8646   12.5514   16.4235 C   0  0  0  0  0  0  0  0  0  0  0  0
   -9.4547   14.1893   18.0319 C   0  0  0  0  0  0  0  0  0  0  0  0
   -5.7643   11.5348   15.6643 C   0  0  0  0  0  0  0  0  0  0  0  0
   -4.6300   13.1645   16.8867 C   0  0  0  0  0  0  0  0  0  0  0  0
   -3.3330   12.5305   16.5777 C   0  0  0  0  0  0  0  0  0  0  0  0
   -8.3611   11.8929   15.2906 C   0  0  0  0  0  0  0  0  0  0  0  0
   -8.7758   14.0020   19.0791 O   0  0  0  0  0  0  0  0  0  0  0  0
   -3.3467   11.4060   15.7806 C   0  0  0  0  0  0  0  0  0  0  0  0
   -6.9345   11.0519   14.9929 C   0  0  0  0  0  0  0  0  0  0  0  0
   -4.5401   10.9141   15.2793 C   0  0  0  0  0  0  0  0  0  0  0  0
   -9.5394   11.2476   15.0917 C   0  0  0  0  0  0  0  0  0  0  0  0
   -2.1027   10.7439   15.4580 C   0  0  0  0  0  0  0  0  0  0  0  0
   -2.0310    9.8078   14.6156 O   0  0  0  0  0  0  0  0  0  0  0  0
  -11.7805   13.0806   16.9327 O   0  0  0  0  0  0  0  0  0  0  0  0
  -10.2182   15.2035   18.0207 O   0  0  0  0  0  0  0  0  0  0  0  0
   -1.0275   11.2093   15.9252 O   0  0  0  0  0  0  0  0  0  0  0  0
  1  2  1  0
  2  3  1  0
  3  4  2  0
  4  5  1  0
  5  6  1  0
  3  7  1  0
  6  8  1  0
  6  9  2  0
  9 10  1  0
  4 11  1  0
  7 12  2  0
 10 13  2  0
  8 14  1  0
 11 14  1  0
  8 15  2  0
 13 15  1  0
  1 16  1  0
 11 16  1  0
 13 17  1  0
 17 18  2  0
  2 19  2  0
  7 20  1  0
 17 21  1  0
M  END
>  <ID>  (1) 
conformer_0

$$$$
