
     RDKit          3D

 20 23  0  0  0  0  0  0  0  0999 V2000
  -10.6520   11.8332   15.6276 N   0  0  0  0  0  0  0  0  0  0  0  0
  -10.7226   12.6416   16.5198 C   0  0  0  0  0  0  0  0  0  0  0  0
   -9.4564   13.2341   16.9184 C   0  0  0  0  0  0  0  0  0  0  0  0
   -8.2670   12.8311   16.3349 C   0  0  0  0  0  0  0  0  0  0  0  0
   -6.9719   13.3188   16.7151 C   0  0  0  0  0  0  0  0  0  0  0  0
   -5.8646   12.5514   16.4235 C   0  0  0  0  0  0  0  0  0  0  0  0
   -9.4547   14.1893   18.0319 C   0  0  0  0  0  0  0  0  0  0  0  0
   -5.7643   11.5348   15.6643 C   0  0  0  0  0  0  0  0  0  0  0  0
   -4.6300   13.1645   16.8867 C   0  0  0  0  0  0  0  0  0  0  0  0
   -4.4712   14.3808   17.6659 C   0  0  0  0  0  0  0  0  0  0  0  0
   -6.8337   10.9721   15.0342 C   0  0  0  0  0  0  0  0  0  0  0  0
   -3.4043   12.4019   16.6183 C   0  0  0  0  0  0  0  0  0  0  0  0
   -2.2063   12.9252   17.1178 C   0  0  0  0  0  0  0  0  0  0  0  0
   -9.5733   11.2006   15.0092 C   0  0  0  0  0  0  0  0  0  0  0  0
   -3.5667   11.3354   15.8072 N   0  0  0  0  0  0  0  0  0  0  0  0
   -4.5715   10.8315   15.3051 N   0  0  0  0  0  0  0  0  0  0  0  0
  -11.8642   13.2855   17.0794 O   0  0  0  0  0  0  0  0  0  0  0  0
   -8.2771   11.6637   15.4380 C   0  0  0  0  0  0  0  0  0  0  0  0
   -3.2885   14.8161   18.1511 C   0  0  0  0  0  0  0  0  0  0  0  0
   -2.1115   14.0962   17.8585 C   0  0  0  0  0  0  0  0  0  0  0  0
  1  2  1  0
  2  3  1  0
  3  4  2  0
  4  5  1  0
  5  6  1  0
  3  7  1  0
  6  8  1  0
  6  9  2  0
  9 10  1  0
  8 11  1  0
  9 12  1  0
 12 13  1  0
  1 14  2  0
 12 15  2  0
  8 16  2  0
 15 16  1  0
  2 17  2  0
  4 18  1  0
 11 18  2  0
 14 18  1  0
 10 19  2  0
 13 20  2  0
 19 20  1  0
M  END
>  <ID>  (1) 
conformer_0

$$$$
