
     RDKit          3D

 18 21  0  0  0  0  0  0  0  0999 V2000
  -10.7171   13.9611   17.6842 N   0  0  0  0  0  0  0  0  0  0  0  0
  -10.4825   13.1075   16.7697 C   0  0  0  0  0  0  0  0  0  0  0  0
   -9.1779   12.8475   16.3229 C   0  0  0  0  0  0  0  0  0  0  0  0
   -9.6122   14.9371   18.0196 C   0  0  0  0  0  0  0  0  0  0  0  0
   -8.1097   13.5269   16.7017 C   0  0  0  0  0  0  0  0  0  0  0  0
   -8.2634   14.6279   17.6387 C   0  0  0  0  0  0  0  0  0  0  0  0
   -9.0236   11.7394   15.3120 C   0  0  0  0  0  0  0  0  0  0  0  0
   -9.7519   15.8016   19.0610 C   0  0  0  0  0  0  0  0  0  0  0  0
  -10.7577   16.2089   19.7179 N   0  0  0  0  0  0  0  0  0  0  0  0
  -11.5150   12.4272   16.3331 O   0  0  0  0  0  0  0  0  0  0  0  0
   -7.2212   15.1727   17.9666 N   0  0  0  0  0  0  0  0  0  0  0  0
   -6.9262   13.0570   16.0318 C   0  0  0  0  0  0  0  0  0  0  0  0
   -7.5765   11.7236   15.0647 C   0  0  0  0  0  0  0  0  0  0  0  0
   -6.8266   11.0262   14.4210 O   0  0  0  0  0  0  0  0  0  0  0  0
   -8.5251   16.4772   19.4270 C   0  0  0  0  0  0  0  0  0  0  0  0
   -8.6845   17.5443   20.3912 C   0  0  0  0  0  0  0  0  0  0  0  0
   -7.2853   16.1243   18.8095 C   0  0  0  0  0  0  0  0  0  0  0  0
  -10.3303   17.3458   20.5467 C   0  0  0  0  0  0  0  0  0  0  0  0
  1  2  1  0
  2  3  1  0
  1  4  2  0
  3  5  2  0
  4  6  1  0
  5  6  1  0
  3  7  1  0
  4  8  1  0
  8  9  1  0
  2 10  2  0
  6 11  2  0
  5 12  1  0
  7 13  1  0
 12 13  1  0
 13 14  2  0
  8 15  2  0
 15 16  1  0
 11 17  1  0
 15 17  1  0
  9 18  1  0
 16 18  2  0
M  END
>  <ID>  (1) 
conformer_0

$$$$
