
     RDKit          3D

 10 11  0  0  0  0  0  0  0  0999 V2000
  -11.0617   12.9398   16.7971 N   0  0  0  0  0  0  0  0  0  0  0  0
  -10.7071   11.9619   15.8565 C   0  0  0  0  0  0  0  0  0  0  0  0
  -10.1873   13.7164   17.3178 C   0  0  0  0  0  0  0  0  0  0  0  0
   -8.8610   13.6975   17.1256 C   0  0  0  0  0  0  0  0  0  0  0  0
   -7.8646   14.5519   17.7167 N   0  0  0  0  0  0  0  0  0  0  0  0
   -8.3876   12.7335   16.1704 C   0  0  0  0  0  0  0  0  0  0  0  0
   -9.2738   11.8827   15.5240 C   0  0  0  0  0  0  0  0  0  0  0  0
   -6.5581   14.1862   17.3570 C   0  0  0  0  0  0  0  0  0  0  0  0
   -6.1335   13.3535   16.4522 N   0  0  0  0  0  0  0  0  0  0  0  0
   -6.9883   12.5737   15.8486 C   0  0  0  0  0  0  0  0  0  0  0  0
  1  2  2  0
  1  3  1  0
  3  4  2  0
  4  5  1  0
  4  6  1  0
  2  7  1  0
  6  7  2  0
  5  8  2  0
  8  9  1  0
  6 10  1  0
  9 10  2  0
M  END
>  <ID>  (1) 
conformer_0

$$$$
