
     RDKit          3D

 17 20  0  0  0  0  0  0  0  0999 V2000
  -10.4646   14.6689   18.4989 N   0  0  0  0  0  0  0  0  0  0  0  0
   -9.4379   15.1417   18.7557 C   0  0  0  0  0  0  0  0  0  0  0  0
  -10.6318   13.7690   17.4224 C   0  0  0  0  0  0  0  0  0  0  0  0
   -8.1383   14.9692   18.2272 C   0  0  0  0  0  0  0  0  0  0  0  0
   -6.9455   15.4236   18.4764 N   0  0  0  0  0  0  0  0  0  0  0  0
   -8.2393   13.8955   17.0194 C   0  0  0  0  0  0  0  0  0  0  0  0
   -7.0787   13.5277   16.3837 N   0  0  0  0  0  0  0  0  0  0  0  0
   -5.8515   13.9753   16.8245 C   0  0  0  0  0  0  0  0  0  0  0  0
   -5.7981   14.9373   17.8121 C   0  0  0  0  0  0  0  0  0  0  0  0
   -4.5775   13.5457   16.1545 C   0  0  0  0  0  0  0  0  0  0  0  0
  -11.6694   13.1068   16.9699 N   0  0  0  0  0  0  0  0  0  0  0  0
  -11.3514   12.2702   15.8846 C   0  0  0  0  0  0  0  0  0  0  0  0
   -9.3839   13.3041   16.7561 C   0  0  0  0  0  0  0  0  0  0  0  0
   -9.8313   12.2344   15.6283 C   0  0  0  0  0  0  0  0  0  0  0  0
   -3.4804   14.1282   16.4546 C   0  0  0  0  0  0  0  0  0  0  0  0
   -4.5317   15.4560   18.2652 C   0  0  0  0  0  0  0  0  0  0  0  0
   -3.2953   15.0620   17.5896 C   0  0  0  0  0  0  0  0  0  0  0  0
  1  2  1  0
  1  3  2  0
  2  4  2  0
  4  5  1  0
  4  6  1  0
  6  7  1  0
  7  8  2  0
  5  9  2  0
  8  9  1  0
  8 10  1  0
  3 11  1  0
 11 12  2  0
  3 13  1  0
  6 13  1  0
 12 14  1  0
 13 14  2  0
 10 15  2  0
  9 16  1  0
 15 17  1  0
 16 17  2  0
M  END
>  <ID>  (1) 
conformer_0

$$$$
