
     RDKit          3D

 21 24  0  0  0  0  0  0  0  0999 V2000
  -10.2340   11.6958   15.6994 C   0  0  0  0  0  0  0  0  0  0  0  0
   -8.9576   11.7446   15.4504 N   0  0  0  0  0  0  0  0  0  0  0  0
   -8.1293   12.5830   16.0587 C   0  0  0  0  0  0  0  0  0  0  0  0
   -9.0181   13.4450   16.8979 C   0  0  0  0  0  0  0  0  0  0  0  0
   -8.5017   14.4577   17.7462 C   0  0  0  0  0  0  0  0  0  0  0  0
   -6.7641   12.6806   15.9592 N   0  0  0  0  0  0  0  0  0  0  0  0
  -10.3409   13.2543   16.9940 C   0  0  0  0  0  0  0  0  0  0  0  0
  -10.8786   10.6032   14.7995 N   0  0  0  0  0  0  0  0  0  0  0  0
   -6.0106   13.4612   16.7249 C   0  0  0  0  0  0  0  0  0  0  0  0
   -6.2431   11.6463   15.1463 C   0  0  0  0  0  0  0  0  0  0  0  0
  -10.8653   12.2906   16.2574 N   0  0  0  0  0  0  0  0  0  0  0  0
  -11.0228   14.0931   17.8250 N   0  0  0  0  0  0  0  0  0  0  0  0
   -4.7616   11.4791   15.3203 C   0  0  0  0  0  0  0  0  0  0  0  0
   -3.9501   10.4718   14.8914 N   0  0  0  0  0  0  0  0  0  0  0  0
   -9.6891   15.0318   18.4086 C   0  0  0  0  0  0  0  0  0  0  0  0
   -4.3142   12.5562   16.1250 C   0  0  0  0  0  0  0  0  0  0  0  0
   -2.6697   10.4303   15.2410 C   0  0  0  0  0  0  0  0  0  0  0  0
   -4.8229   13.4660   16.7153 C   0  0  0  0  0  0  0  0  0  0  0  0
   -1.9489    9.3090   14.7710 N   0  0  0  0  0  0  0  0  0  0  0  0
   -2.7074   12.4410   16.1487 C   0  0  0  0  0  0  0  0  0  0  0  0
   -2.0306   11.4223   15.7963 C   0  0  0  0  0  0  0  0  0  0  0  0
  1  2  1  0
  2  3  2  0
  3  4  1  0
  4  5  1  0
  3  6  1  0
  4  7  2  0
  1  8  1  0
  6  9  1  0
  6 10  1  0
  1 11  2  0
  7 11  1  0
  7 12  1  0
 10 13  1  0
 13 14  1  0
  5 15  2  0
 12 15  1  0
 13 16  2  0
 14 17  2  0
  9 18  2  0
 16 18  1  0
 17 19  1  0
 16 20  1  0
 17 21  1  0
 20 21  2  0
M  END
>  <ID>  (1) 
conformer_0

$$$$
