
     RDKit          3D

 20 24  0  0  0  0  0  0  0  0999 V2000
  -11.0294   12.1464   15.9454 N   0  0  0  0  0  0  0  0  0  0  0  0
  -10.7728   13.0630   16.7669 C   0  0  0  0  0  0  0  0  0  0  0  0
   -9.3169   13.2324   16.6933 C   0  0  0  0  0  0  0  0  0  0  0  0
   -8.8763   12.2528   15.7924 C   0  0  0  0  0  0  0  0  0  0  0  0
   -7.4822   11.9510   15.5132 C   0  0  0  0  0  0  0  0  0  0  0  0
   -6.4296   12.5776   16.2218 C   0  0  0  0  0  0  0  0  0  0  0  0
   -5.0639   12.2627   15.9467 C   0  0  0  0  0  0  0  0  0  0  0  0
   -9.9516   11.5393   15.3790 C   0  0  0  0  0  0  0  0  0  0  0  0
  -11.4853   13.8891   17.3957 N   0  0  0  0  0  0  0  0  0  0  0  0
   -8.6828   14.2122   17.4472 C   0  0  0  0  0  0  0  0  0  0  0  0
  -10.7232   14.8666   18.2190 C   0  0  0  0  0  0  0  0  0  0  0  0
   -7.2167   10.9595   14.6791 C   0  0  0  0  0  0  0  0  0  0  0  0
   -4.8185   11.2593   15.0360 C   0  0  0  0  0  0  0  0  0  0  0  0
   -7.2782   14.3754   17.4385 N   0  0  0  0  0  0  0  0  0  0  0  0
   -5.7057   10.6281   14.3890 N   0  0  0  0  0  0  0  0  0  0  0  0
   -9.3894   15.0150   18.1968 N   0  0  0  0  0  0  0  0  0  0  0  0
   -4.0997   13.0593   16.5987 C   0  0  0  0  0  0  0  0  0  0  0  0
   -2.6912   12.8900   16.4588 C   0  0  0  0  0  0  0  0  0  0  0  0
   -6.4257   13.5906   17.0393 N   0  0  0  0  0  0  0  0  0  0  0  0
   -4.8793   13.8709   17.1497 N   0  0  0  0  0  0  0  0  0  0  0  0
  1  2  1  0
  2  3  1  0
  3  4  2  0
  4  5  1  0
  5  6  1  0
  6  7  2  0
  1  8  2  0
  4  8  1  0
  2  9  2  0
  3 10  1  0
  9 11  1  0
  5 12  2  0
  7 13  1  0
 10 14  2  0
 12 15  1  0
 13 15  2  0
 10 16  1  0
 11 16  2  0
  7 17  1  0
 17 18  1  0
  6 19  1  0
 14 19  1  0
 17 20  2  0
 19 20  1  0
M  END
>  <ID>  (1) 
conformer_0

$$$$
