
     RDKit          3D

 10 11  0  0  0  0  0  0  0  0999 V2000
  -11.0617   12.9398   16.7971 N   0  0  0  0  0  0  0  0  0  0  0  0
  -10.7071   11.9619   15.8565 C   0  0  0  0  0  0  0  0  0  0  0  0
   -9.2968   11.9892   15.7053 N   0  0  0  0  0  0  0  0  0  0  0  0
   -9.8883   13.5117   17.1291 C   0  0  0  0  0  0  0  0  0  0  0  0
   -9.7754   14.6147   18.0452 C   0  0  0  0  0  0  0  0  0  0  0  0
   -8.5072   15.0662   18.3062 C   0  0  0  0  0  0  0  0  0  0  0  0
   -7.3751   14.5391   17.7585 C   0  0  0  0  0  0  0  0  0  0  0  0
   -7.6062   13.4120   16.8108 C   0  0  0  0  0  0  0  0  0  0  0  0
   -8.8382   12.9923   16.5561 C   0  0  0  0  0  0  0  0  0  0  0  0
   -8.4225   11.2133   14.9472 C   0  0  0  0  0  0  0  0  0  0  0  0
  1  2  2  0
  2  3  1  0
  1  4  1  0
  4  5  1  0
  5  6  2  0
  6  7  1  0
  7  8  2  0
  3  9  1  0
  4  9  1  0
  8  9  1  0
  3 10  1  0
M  END
>  <ID>  (1) 
conformer_0

$$$$
