
     RDKit          3D

 12 13  0  0  0  0  0  0  0  0999 V2000
  -10.8465   13.4091   17.3635 N   0  0  0  0  0  0  0  0  0  0  0  0
  -10.4018   12.6138   16.4073 C   0  0  0  0  0  0  0  0  0  0  0  0
   -8.9536   12.7186   16.2436 N   0  0  0  0  0  0  0  0  0  0  0  0
  -11.0675   11.9297   15.6249 O   0  0  0  0  0  0  0  0  0  0  0  0
   -8.4624   13.6263   17.1184 C   0  0  0  0  0  0  0  0  0  0  0  0
   -7.1123   14.1023   17.1413 N   0  0  0  0  0  0  0  0  0  0  0  0
   -9.5548   14.1676   17.8259 C   0  0  0  0  0  0  0  0  0  0  0  0
   -8.2386   12.0086   15.2200 C   0  0  0  0  0  0  0  0  0  0  0  0
   -6.3069   13.3830   16.1937 C   0  0  0  0  0  0  0  0  0  0  0  0
   -6.7283   12.3799   15.4226 C   0  0  0  0  0  0  0  0  0  0  0  0
   -4.8887   13.7432   16.2814 N   0  0  0  0  0  0  0  0  0  0  0  0
   -9.5561   15.0742   18.8978 C   0  0  0  0  0  0  0  0  0  0  0  0
  1  2  1  0
  2  3  1  0
  2  4  2  0
  3  5  1  0
  5  6  1  0
  1  7  1  0
  5  7  2  0
  3  8  1  0
  6  9  2  0
  8 10  2  0
  9 10  1  0
  9 11  1  0
  7 12  1  0
M  END
>  <ID>  (1) 
conformer_0

$$$$
