
     RDKit          3D

 12 14  0  0  0  0  0  0  0  0999 V2000
  -10.8465   13.4091   17.3635 N   0  0  0  0  0  0  0  0  0  0  0  0
  -10.4018   12.6138   16.4073 C   0  0  0  0  0  0  0  0  0  0  0  0
   -9.0394   12.5133   15.9972 C   0  0  0  0  0  0  0  0  0  0  0  0
  -10.0084   14.2715   17.8172 C   0  0  0  0  0  0  0  0  0  0  0  0
   -8.6343   11.6669   14.9113 C   0  0  0  0  0  0  0  0  0  0  0  0
   -8.5541   14.2174   17.2586 N   0  0  0  0  0  0  0  0  0  0  0  0
  -11.0102   11.7236   15.5707 N   0  0  0  0  0  0  0  0  0  0  0  0
   -7.3103   11.3882   14.7084 N   0  0  0  0  0  0  0  0  0  0  0  0
   -6.6283   12.1621   15.5735 C   0  0  0  0  0  0  0  0  0  0  0  0
  -10.3168   10.9956   14.7787 C   0  0  0  0  0  0  0  0  0  0  0  0
   -7.9647   13.2817   16.5485 C   0  0  0  0  0  0  0  0  0  0  0  0
   -6.8505   13.1044   16.3695 N   0  0  0  0  0  0  0  0  0  0  0  0
  1  2  1  0
  2  3  1  0
  1  4  2  0
  3  5  2  0
  4  6  1  0
  2  7  2  0
  5  8  1  0
  8  9  2  0
  5 10  1  0
  7 10  1  0
  3 11  1  0
  6 11  2  0
  9 12  1  0
 11 12  1  0
M  END
>  <ID>  (1) 
conformer_0

$$$$
