
     RDKit          3D

 15 17  0  0  0  0  0  0  0  0999 V2000
  -10.7171   13.9611   17.6842 N   0  0  0  0  0  0  0  0  0  0  0  0
  -10.4825   13.1075   16.7697 C   0  0  0  0  0  0  0  0  0  0  0  0
   -9.1779   12.8475   16.3229 C   0  0  0  0  0  0  0  0  0  0  0  0
   -9.6122   14.9371   18.0196 C   0  0  0  0  0  0  0  0  0  0  0  0
   -8.1097   13.5269   16.7017 C   0  0  0  0  0  0  0  0  0  0  0  0
   -8.2634   14.6279   17.6387 C   0  0  0  0  0  0  0  0  0  0  0  0
   -9.0236   11.7394   15.3120 C   0  0  0  0  0  0  0  0  0  0  0  0
   -9.7519   15.8016   19.0610 C   0  0  0  0  0  0  0  0  0  0  0  0
  -10.7577   16.2089   19.7179 N   0  0  0  0  0  0  0  0  0  0  0  0
   -8.5643   16.4636   19.4452 N   0  0  0  0  0  0  0  0  0  0  0  0
   -6.8152   13.2635   16.2179 N   0  0  0  0  0  0  0  0  0  0  0  0
  -10.0057   10.9960   14.8566 O   0  0  0  0  0  0  0  0  0  0  0  0
   -7.4921   15.5536   18.3912 N   0  0  0  0  0  0  0  0  0  0  0  0
   -6.6011   12.3152   15.3973 C   0  0  0  0  0  0  0  0  0  0  0  0
   -7.6897   11.5511   14.9140 N   0  0  0  0  0  0  0  0  0  0  0  0
  1  2  1  0
  2  3  1  0
  1  4  2  0
  3  5  2  0
  4  6  1  0
  5  6  1  0
  3  7  1  0
  4  8  1  0
  8  9  1  0
  8 10  2  0
  5 11  1  0
  7 12  2  0
  6 13  2  0
 10 13  1  0
 11 14  2  0
  7 15  1  0
 14 15  1  0
M  END
>  <ID>  (1) 
conformer_0

$$$$
