
     RDKit          3D

 19 22  0  0  0  0  0  0  0  0999 V2000
  -10.6520   11.8332   15.6276 N   0  0  0  0  0  0  0  0  0  0  0  0
  -10.7226   12.6416   16.5198 C   0  0  0  0  0  0  0  0  0  0  0  0
   -9.4564   13.2341   16.9184 C   0  0  0  0  0  0  0  0  0  0  0  0
   -8.2670   12.8311   16.3349 C   0  0  0  0  0  0  0  0  0  0  0  0
   -6.9719   13.3188   16.7151 C   0  0  0  0  0  0  0  0  0  0  0  0
   -5.8646   12.5514   16.4235 C   0  0  0  0  0  0  0  0  0  0  0  0
   -9.4547   14.1893   18.0319 C   0  0  0  0  0  0  0  0  0  0  0  0
   -5.7643   11.5348   15.6643 C   0  0  0  0  0  0  0  0  0  0  0  0
   -4.6300   13.1645   16.8867 C   0  0  0  0  0  0  0  0  0  0  0  0
   -4.4712   14.3808   17.6659 C   0  0  0  0  0  0  0  0  0  0  0  0
   -3.3097   14.7885   18.1121 O   0  0  0  0  0  0  0  0  0  0  0  0
   -5.6086   15.0173   17.9492 C   0  0  0  0  0  0  0  0  0  0  0  0
   -9.4576   11.3605   14.9948 C   0  0  0  0  0  0  0  0  0  0  0  0
   -3.4043   12.5121   16.5304 O   0  0  0  0  0  0  0  0  0  0  0  0
  -11.7478   13.0730   17.0285 O   0  0  0  0  0  0  0  0  0  0  0  0
   -8.4865   15.1404   18.1121 C   0  0  0  0  0  0  0  0  0  0  0  0
   -8.2884   11.8632   15.3991 C   0  0  0  0  0  0  0  0  0  0  0  0
   -7.0361   11.1003   14.9800 C   0  0  0  0  0  0  0  0  0  0  0  0
   -7.0277   14.4985   17.5961 C   0  0  0  0  0  0  0  0  0  0  0  0
  1  2  1  0
  2  3  1  0
  3  4  2  0
  4  5  1  0
  5  6  1  0
  3  7  1  0
  6  8  1  0
  6  9  2  0
  9 10  1  0
 10 11  1  0
 10 12  2  0
  1 13  2  0
  9 14  1  0
  2 15  2  0
  7 16  1  0
  4 17  1  0
 13 17  1  0
  8 18  2  0
 17 18  2  0
  5 19  2  0
 12 19  1  0
 16 19  1  0
M  END
>  <ID>  (1) 
conformer_0

$$$$
