
     RDKit          3D

 19 22  0  0  0  0  0  0  0  0999 V2000
  -10.8061   13.8041   17.5750 N   0  0  0  0  0  0  0  0  0  0  0  0
   -9.7984   14.4624   18.1064 C   0  0  0  0  0  0  0  0  0  0  0  0
   -8.5114   14.2532   17.6737 N   0  0  0  0  0  0  0  0  0  0  0  0
   -8.1307   13.3906   16.8172 C   0  0  0  0  0  0  0  0  0  0  0  0
  -10.2701   12.9962   16.5466 C   0  0  0  0  0  0  0  0  0  0  0  0
   -6.7135   13.2365   16.4496 N   0  0  0  0  0  0  0  0  0  0  0  0
   -5.6724   13.9621   17.0878 C   0  0  0  0  0  0  0  0  0  0  0  0
   -4.4254   13.3633   16.6084 C   0  0  0  0  0  0  0  0  0  0  0  0
   -8.9956   12.7078   16.0801 C   0  0  0  0  0  0  0  0  0  0  0  0
   -4.2680   12.3049   15.7830 C   0  0  0  0  0  0  0  0  0  0  0  0
  -11.1155   12.1218   15.7908 N   0  0  0  0  0  0  0  0  0  0  0  0
   -8.6111   11.7404   15.1798 C   0  0  0  0  0  0  0  0  0  0  0  0
   -5.4344   11.6492   15.3593 C   0  0  0  0  0  0  0  0  0  0  0  0
   -5.3302   10.4714   14.5133 O   0  0  0  0  0  0  0  0  0  0  0  0
   -6.6661   12.1572   15.7153 C   0  0  0  0  0  0  0  0  0  0  0  0
  -10.7925   11.2429   14.9076 C   0  0  0  0  0  0  0  0  0  0  0  0
   -9.4717   11.1339   14.6734 N   0  0  0  0  0  0  0  0  0  0  0  0
   -2.9335   11.7613   15.5589 C   0  0  0  0  0  0  0  0  0  0  0  0
   -7.3343   11.6238   15.0722 N   0  0  0  0  0  0  0  0  0  0  0  0
  1  2  2  0
  2  3  1  0
  3  4  2  0
  1  5  1  0
  4  6  1  0
  6  7  1  0
  7  8  2  0
  4  9  1  0
  5  9  1  0
  8 10  1  0
  5 11  2  0
  9 12  1  0
 10 13  2  0
 13 14  1  0
  6 15  1  0
 13 15  1  0
 11 16  1  0
 12 17  1  0
 16 17  2  0
 10 18  1  0
 12 19  2  0
 15 19  1  0
M  END
>  <ID>  (1) 
conformer_0

$$$$
