
     RDKit          3D

 25 29  0  0  0  0  0  0  0  0999 V2000
  -10.6520   11.8332   15.6276 N   0  0  0  0  0  0  0  0  0  0  0  0
  -10.7226   12.6416   16.5198 C   0  0  0  0  0  0  0  0  0  0  0  0
   -9.4564   13.2341   16.9184 C   0  0  0  0  0  0  0  0  0  0  0  0
   -8.2670   12.8311   16.3349 C   0  0  0  0  0  0  0  0  0  0  0  0
   -6.9719   13.3188   16.7151 C   0  0  0  0  0  0  0  0  0  0  0  0
   -5.8646   12.5514   16.4235 C   0  0  0  0  0  0  0  0  0  0  0  0
   -9.4547   14.1893   18.0319 C   0  0  0  0  0  0  0  0  0  0  0  0
   -5.7643   11.5348   15.6643 C   0  0  0  0  0  0  0  0  0  0  0  0
   -4.6300   13.1645   16.8867 C   0  0  0  0  0  0  0  0  0  0  0  0
   -4.4712   14.3808   17.6659 C   0  0  0  0  0  0  0  0  0  0  0  0
   -6.8337   10.9721   15.0342 C   0  0  0  0  0  0  0  0  0  0  0  0
  -10.4206   15.0989   17.9962 O   0  0  0  0  0  0  0  0  0  0  0  0
   -6.8625   14.5224   17.4014 C   0  0  0  0  0  0  0  0  0  0  0  0
   -8.1781   11.7902   15.3895 N   0  0  0  0  0  0  0  0  0  0  0  0
  -11.7996   12.9551   16.9757 O   0  0  0  0  0  0  0  0  0  0  0  0
   -4.5610   10.7590   15.5516 C   0  0  0  0  0  0  0  0  0  0  0  0
   -3.3213   11.2606   15.9582 C   0  0  0  0  0  0  0  0  0  0  0  0
   -2.1123   10.6033   15.8033 C   0  0  0  0  0  0  0  0  0  0  0  0
   -8.0927   15.2127   17.8461 C   0  0  0  0  0  0  0  0  0  0  0  0
   -1.3090   10.3794   16.7478 O   0  0  0  0  0  0  0  0  0  0  0  0
   -9.4426   11.2550   15.0197 C   0  0  0  0  0  0  0  0  0  0  0  0
   -3.3136   12.5180   16.7628 C   0  0  0  0  0  0  0  0  0  0  0  0
   -9.4624   10.5957   14.2200 O   0  0  0  0  0  0  0  0  0  0  0  0
   -2.0675    9.8013   14.7282 O   0  0  0  0  0  0  0  0  0  0  0  0
   -5.6931   15.0777   17.8146 C   0  0  0  0  0  0  0  0  0  0  0  0
  1  2  1  0
  2  3  1  0
  3  4  2  0
  4  5  1  0
  5  6  1  0
  3  7  1  0
  6  8  1  0
  6  9  2  0
  9 10  1  0
  8 11  1  0
  7 12  1  0
  5 13  2  0
  4 14  1  0
 11 14  1  0
  2 15  2  0
  8 16  2  0
 16 17  1  0
 17 18  1  0
  7 19  1  0
 13 19  1  0
 18 20  2  0
  1 21  1  0
 14 21  1  0
  9 22  1  0
 17 22  2  0
 21 23  2  0
 18 24  1  0
 10 25  2  0
 13 25  1  0
M  END
>  <ID>  (1) 
conformer_0

$$$$
