
     RDKit          3D

 21 24  0  0  0  0  0  0  0  0999 V2000
  -10.6520   11.8332   15.6276 N   0  0  0  0  0  0  0  0  0  0  0  0
  -10.7226   12.6416   16.5198 C   0  0  0  0  0  0  0  0  0  0  0  0
   -9.4564   13.2341   16.9184 C   0  0  0  0  0  0  0  0  0  0  0  0
   -8.2670   12.8311   16.3349 C   0  0  0  0  0  0  0  0  0  0  0  0
   -6.9719   13.3188   16.7151 C   0  0  0  0  0  0  0  0  0  0  0  0
   -5.8646   12.5514   16.4235 C   0  0  0  0  0  0  0  0  0  0  0  0
   -9.4547   14.1893   18.0319 C   0  0  0  0  0  0  0  0  0  0  0  0
   -5.7643   11.5348   15.6643 C   0  0  0  0  0  0  0  0  0  0  0  0
   -4.6300   13.1645   16.8867 C   0  0  0  0  0  0  0  0  0  0  0  0
   -4.4712   14.3808   17.6659 C   0  0  0  0  0  0  0  0  0  0  0  0
   -3.3097   14.7885   18.1121 O   0  0  0  0  0  0  0  0  0  0  0  0
   -9.4774   11.3167   15.0021 C   0  0  0  0  0  0  0  0  0  0  0  0
   -8.3460   11.8136   15.4167 C   0  0  0  0  0  0  0  0  0  0  0  0
   -7.0787   11.1766   15.0931 C   0  0  0  0  0  0  0  0  0  0  0  0
  -11.7194   13.1052   16.9786 O   0  0  0  0  0  0  0  0  0  0  0  0
   -4.6314   10.8821   15.3804 C   0  0  0  0  0  0  0  0  0  0  0  0
   -6.6661   14.5113   17.6367 C   0  0  0  0  0  0  0  0  0  0  0  0
   -4.5737    9.7440   14.6261 O   0  0  0  0  0  0  0  0  0  0  0  0
   -3.4087   12.4598   16.4544 C   0  0  0  0  0  0  0  0  0  0  0  0
   -5.4447   14.9061   17.9179 C   0  0  0  0  0  0  0  0  0  0  0  0
   -3.3647   11.3799   15.7606 C   0  0  0  0  0  0  0  0  0  0  0  0
  1  2  1  0
  2  3  1  0
  3  4  2  0
  4  5  1  0
  5  6  1  0
  3  7  1  0
  6  8  1  0
  6  9  2  0
  9 10  1  0
 10 11  1  0
  1 12  2  0
  4 13  1  0
 12 13  1  0
  8 14  1  0
 13 14  1  0
  2 15  2  0
  8 16  2  0
  5 17  2  0
 16 18  1  0
  9 19  1  0
 10 20  2  0
 17 20  1  0
 16 21  1  0
 19 21  2  0
M  END
>  <ID>  (1) 
conformer_0

$$$$
