
     RDKit          3D

 21 23  0  0  0  0  0  0  0  0999 V2000
  -10.6520   11.8332   15.6276 N   0  0  0  0  0  0  0  0  0  0  0  0
  -10.7226   12.6416   16.5198 C   0  0  0  0  0  0  0  0  0  0  0  0
   -9.4564   13.2341   16.9184 C   0  0  0  0  0  0  0  0  0  0  0  0
   -8.2670   12.8311   16.3349 C   0  0  0  0  0  0  0  0  0  0  0  0
   -6.9719   13.3188   16.7151 C   0  0  0  0  0  0  0  0  0  0  0  0
   -5.8646   12.5514   16.4235 C   0  0  0  0  0  0  0  0  0  0  0  0
   -9.4547   14.1893   18.0319 C   0  0  0  0  0  0  0  0  0  0  0  0
   -5.7643   11.5348   15.6643 C   0  0  0  0  0  0  0  0  0  0  0  0
   -4.6300   13.1645   16.8867 C   0  0  0  0  0  0  0  0  0  0  0  0
   -4.4712   14.3808   17.6659 C   0  0  0  0  0  0  0  0  0  0  0  0
   -6.8337   10.9721   15.0342 C   0  0  0  0  0  0  0  0  0  0  0  0
   -8.2495   11.6653   15.4423 C   0  0  0  0  0  0  0  0  0  0  0  0
   -9.5137   11.1958   15.1267 C   0  0  0  0  0  0  0  0  0  0  0  0
   -9.6129   10.1193   14.2474 O   0  0  0  0  0  0  0  0  0  0  0  0
   -3.4368   12.4984   16.4515 C   0  0  0  0  0  0  0  0  0  0  0  0
   -4.5364   10.9006   15.2022 N   0  0  0  0  0  0  0  0  0  0  0  0
   -3.3985   11.4781   15.7525 C   0  0  0  0  0  0  0  0  0  0  0  0
   -2.1508   10.7310   15.3233 C   0  0  0  0  0  0  0  0  0  0  0  0
  -10.6599   14.7653   18.1099 O   0  0  0  0  0  0  0  0  0  0  0  0
   -2.1663    9.6699   14.5921 O   0  0  0  0  0  0  0  0  0  0  0  0
   -1.5243    8.5087   15.0776 C   0  0  0  0  0  0  0  0  0  0  0  0
  1  2  1  0
  2  3  1  0
  3  4  2  0
  4  5  1  0
  5  6  1  0
  3  7  1  0
  6  8  1  0
  6  9  2  0
  9 10  1  0
  8 11  1  0
  4 12  1  0
 11 12  1  0
  1 13  1  0
 12 13  1  0
 13 14  2  0
  9 15  1  0
  8 16  2  0
 15 17  2  0
 16 17  1  0
 17 18  1  0
  7 19  1  0
 18 20  1  0
 20 21  1  0
M  END
>  <ID>  (1) 
conformer_0

$$$$
