
     RDKit          3D

 19 22  0  0  0  0  0  0  0  0999 V2000
  -10.8061   13.8041   17.5750 N   0  0  0  0  0  0  0  0  0  0  0  0
   -9.7984   14.4624   18.1064 C   0  0  0  0  0  0  0  0  0  0  0  0
   -8.5114   14.2532   17.6737 N   0  0  0  0  0  0  0  0  0  0  0  0
   -8.1307   13.3906   16.8172 C   0  0  0  0  0  0  0  0  0  0  0  0
  -10.2701   12.9962   16.5466 C   0  0  0  0  0  0  0  0  0  0  0  0
   -6.7135   13.2365   16.4496 N   0  0  0  0  0  0  0  0  0  0  0  0
   -5.6724   13.9621   17.0878 C   0  0  0  0  0  0  0  0  0  0  0  0
   -4.4254   13.3633   16.6084 C   0  0  0  0  0  0  0  0  0  0  0  0
   -8.9956   12.7078   16.0801 C   0  0  0  0  0  0  0  0  0  0  0  0
  -11.2984   12.2491   15.9511 N   0  0  0  0  0  0  0  0  0  0  0  0
   -3.1952   13.8340   17.0141 C   0  0  0  0  0  0  0  0  0  0  0  0
   -4.4305   12.1909   15.8931 C   0  0  0  0  0  0  0  0  0  0  0  0
   -5.6082   11.5961   15.4299 C   0  0  0  0  0  0  0  0  0  0  0  0
   -6.8025   12.1400   15.7520 C   0  0  0  0  0  0  0  0  0  0  0  0
  -10.4570   11.3316   15.0698 C   0  0  0  0  0  0  0  0  0  0  0  0
   -8.1475   11.7661   15.4042 C   0  0  0  0  0  0  0  0  0  0  0  0
   -9.1340   11.0888   14.7346 C   0  0  0  0  0  0  0  0  0  0  0  0
   -3.0518   14.9911   17.7378 O   0  0  0  0  0  0  0  0  0  0  0  0
   -2.1064   13.2192   16.7882 O   0  0  0  0  0  0  0  0  0  0  0  0
  1  2  2  0
  2  3  1  0
  3  4  2  0
  1  5  1  0
  4  6  1  0
  6  7  1  0
  7  8  2  0
  4  9  1  0
  5  9  1  0
  5 10  2  0
  8 11  1  0
  8 12  1  0
 12 13  2  0
  6 14  1  0
 13 14  1  0
 10 15  1  0
  9 16  1  0
 14 16  2  0
 15 17  2  0
 16 17  1  0
 11 18  1  0
 11 19  2  0
M  END
>  <ID>  (1) 
conformer_0

$$$$
