
     RDKit          3D

 25 28  0  0  0  0  0  0  0  0999 V2000
   -2.3731   13.5103   16.4129 C   0  0  0  0  0  0  0  0  0  0  0  0
   -3.4754   13.9112   16.8886 C   0  0  0  0  0  0  0  0  0  0  0  0
   -2.3878   12.0879   16.3020 C   0  0  0  0  0  0  0  0  0  0  0  0
   -4.6193   13.1646   16.9402 C   0  0  0  0  0  0  0  0  0  0  0  0
   -5.9471   13.7535   17.2981 N   0  0  0  0  0  0  0  0  0  0  0  0
   -4.6540   11.8727   16.6659 C   0  0  0  0  0  0  0  0  0  0  0  0
   -1.1287   11.4024   15.8382 O   0  0  0  0  0  0  0  0  0  0  0  0
   -5.9812   14.9234   17.9678 C   0  0  0  0  0  0  0  0  0  0  0  0
   -6.9537   12.9727   17.0365 C   0  0  0  0  0  0  0  0  0  0  0  0
   -1.4021   10.0025   15.5529 C   0  0  0  0  0  0  0  0  0  0  0  0
   -0.8084    9.1570   16.4481 C   0  0  0  0  0  0  0  0  0  0  0  0
   -3.4491   11.2771   16.2763 C   0  0  0  0  0  0  0  0  0  0  0  0
   -4.9269   15.6425   18.3221 O   0  0  0  0  0  0  0  0  0  0  0  0
   -7.1850   15.4107   18.3460 C   0  0  0  0  0  0  0  0  0  0  0  0
   -2.9954    9.8785   15.8330 C   0  0  0  0  0  0  0  0  0  0  0  0
   -8.2518   13.5489   17.2929 C   0  0  0  0  0  0  0  0  0  0  0  0
   -7.2832   16.6416   19.0626 O   0  0  0  0  0  0  0  0  0  0  0  0
   -0.4755    8.0263   16.0122 O   0  0  0  0  0  0  0  0  0  0  0  0
   -8.3585   14.7379   18.0340 C   0  0  0  0  0  0  0  0  0  0  0  0
   -9.4491   12.7818   16.9067 C   0  0  0  0  0  0  0  0  0  0  0  0
   -9.5782   12.2452   15.6636 N   0  0  0  0  0  0  0  0  0  0  0  0
  -10.6438   12.7480   17.5181 N   0  0  0  0  0  0  0  0  0  0  0  0
  -11.4836   12.0913   16.6914 N   0  0  0  0  0  0  0  0  0  0  0  0
  -10.7581   11.7106   15.5963 C   0  0  0  0  0  0  0  0  0  0  0  0
   -0.6927    9.2528   17.7231 O   0  0  0  0  0  0  0  0  0  0  0  0
  1  2  1  0
  1  3  2  0
  2  4  2  0
  4  5  1  0
  4  6  1  0
  3  7  1  0
  5  8  1  0
  5  9  1  0
  7 10  1  0
 10 11  1  0
  3 12  1  0
  6 12  2  0
  8 13  2  0
  8 14  1  0
 10 15  1  0
 12 15  1  0
  9 16  2  0
 14 17  1  0
 11 18  2  0
 14 19  2  0
 16 19  1  0
 16 20  1  0
 20 21  1  0
 20 22  2  0
 22 23  1  0
 21 24  2  0
 23 24  1  0
 11 25  1  0
M  END
>  <ID>  (1) 
conformer_0

$$$$
