
     RDKit          3D

 12 13  0  0  0  0  0  0  0  0999 V2000
  -10.7171   13.9611   17.6842 N   0  0  0  0  0  0  0  0  0  0  0  0
  -10.4825   13.1075   16.7697 C   0  0  0  0  0  0  0  0  0  0  0  0
  -11.4148   12.4378   16.1628 N   0  0  0  0  0  0  0  0  0  0  0  0
   -9.0746   13.0070   16.4016 C   0  0  0  0  0  0  0  0  0  0  0  0
   -8.7559   11.9810   15.4567 C   0  0  0  0  0  0  0  0  0  0  0  0
   -9.3553   14.6221   17.9056 C   0  0  0  0  0  0  0  0  0  0  0  0
  -10.9425   11.4326   15.2663 C   0  0  0  0  0  0  0  0  0  0  0  0
   -8.4239   13.9357   17.1803 N   0  0  0  0  0  0  0  0  0  0  0  0
   -9.6855   11.2385   14.9619 N   0  0  0  0  0  0  0  0  0  0  0  0
   -7.3366   11.7879   15.2502 C   0  0  0  0  0  0  0  0  0  0  0  0
   -6.7806   10.7432   15.1429 O   0  0  0  0  0  0  0  0  0  0  0  0
   -6.4581   12.8165   15.5033 N   0  0  0  0  0  0  0  0  0  0  0  0
  1  2  1  0
  2  3  2  0
  2  4  1  0
  4  5  1  0
  1  6  2  0
  3  7  1  0
  4  8  2  0
  6  8  1  0
  5  9  1  0
  7  9  2  0
  5 10  1  0
 10 11  2  0
 10 12  1  0
M  END
>  <ID>  (1) 
conformer_0

$$$$
