
     RDKit          3D

 10 11  0  0  0  0  0  0  0  0999 V2000
  -11.1051   12.7407   16.4594 N   0  0  0  0  0  0  0  0  0  0  0  0
  -10.0027   12.5178   15.9218 C   0  0  0  0  0  0  0  0  0  0  0  0
   -8.8828   12.9890   16.5215 C   0  0  0  0  0  0  0  0  0  0  0  0
   -9.9705   11.5755   14.8575 C   0  0  0  0  0  0  0  0  0  0  0  0
   -9.0519   13.8214   17.4956 N   0  0  0  0  0  0  0  0  0  0  0  0
   -8.5277   11.2899   14.6057 N   0  0  0  0  0  0  0  0  0  0  0  0
  -10.7490   13.7093   17.4954 C   0  0  0  0  0  0  0  0  0  0  0  0
   -7.5458   12.5310   15.9385 C   0  0  0  0  0  0  0  0  0  0  0  0
   -7.4799   11.6482   15.0578 C   0  0  0  0  0  0  0  0  0  0  0  0
   -8.4709   14.6414   18.3858 C   0  0  0  0  0  0  0  0  0  0  0  0
  1  2  1  0
  2  3  2  0
  2  4  1  0
  3  5  1  0
  4  6  2  0
  1  7  2  0
  5  7  1  0
  3  8  1  0
  6  9  1  0
  8  9  2  0
  5 10  1  0
M  END
>  <ID>  (1) 
conformer_0

$$$$
