
     RDKit          3D

 25 29  0  0  0  0  0  0  0  0999 V2000
  -10.8465   13.4091   17.3635 N   0  0  0  0  0  0  0  0  0  0  0  0
  -10.4018   12.6138   16.4073 C   0  0  0  0  0  0  0  0  0  0  0  0
   -8.9536   12.7186   16.2436 N   0  0  0  0  0  0  0  0  0  0  0  0
   -8.3610   11.7158   15.3526 C   0  0  0  0  0  0  0  0  0  0  0  0
   -8.0290   13.4807   16.7320 C   0  0  0  0  0  0  0  0  0  0  0  0
   -7.0329   11.7187   15.4132 C   0  0  0  0  0  0  0  0  0  0  0  0
   -8.2686   14.5481   17.4750 C   0  0  0  0  0  0  0  0  0  0  0  0
   -5.9822   11.0539   14.8461 N   0  0  0  0  0  0  0  0  0  0  0  0
   -6.8716   12.8350   16.3152 N   0  0  0  0  0  0  0  0  0  0  0  0
   -5.4098   13.2056   16.4771 C   0  0  0  0  0  0  0  0  0  0  0  0
   -4.4474   12.5392   15.9839 C   0  0  0  0  0  0  0  0  0  0  0  0
   -4.7135   11.3884   15.2194 C   0  0  0  0  0  0  0  0  0  0  0  0
   -8.9907   10.6762   14.4063 C   0  0  0  0  0  0  0  0  0  0  0  0
   -7.4352   15.4238   18.1482 C   0  0  0  0  0  0  0  0  0  0  0  0
   -7.9305   16.4413   18.8856 C   0  0  0  0  0  0  0  0  0  0  0  0
  -11.1014   12.0101   15.8934 O   0  0  0  0  0  0  0  0  0  0  0  0
   -9.2226   16.5389   19.2556 C   0  0  0  0  0  0  0  0  0  0  0  0
   -3.1154   12.7979   16.2147 C   0  0  0  0  0  0  0  0  0  0  0  0
   -3.7222   10.4226   14.8161 C   0  0  0  0  0  0  0  0  0  0  0  0
   -5.1927   14.3754   17.2119 O   0  0  0  0  0  0  0  0  0  0  0  0
   -9.7917   14.5266   17.9242 C   0  0  0  0  0  0  0  0  0  0  0  0
   -2.3813   10.7837   15.0908 C   0  0  0  0  0  0  0  0  0  0  0  0
   -2.7576   14.0046   16.9198 O   0  0  0  0  0  0  0  0  0  0  0  0
   -2.0187   11.9540   15.8312 C   0  0  0  0  0  0  0  0  0  0  0  0
  -10.1918   15.5302   18.8344 C   0  0  0  0  0  0  0  0  0  0  0  0
  1  2  1  0
  2  3  1  0
  3  4  1  0
  3  5  1  0
  4  6  2  0
  5  7  2  0
  6  8  1  0
  5  9  1  0
  6  9  1  0
  9 10  1  0
 10 11  1  0
  8 12  2  0
 11 12  1  0
  4 13  1  0
  7 14  1  0
 14 15  2  0
  2 16  2  0
 15 17  1  0
 11 18  2  0
 12 19  1  0
 10 20  2  0
  1 21  2  0
  7 21  1  0
 19 22  1  0
 18 23  1  0
 18 24  1  0
 22 24  2  0
 17 25  2  0
 21 25  1  0
M  END
>  <ID>  (1) 
conformer_0

$$$$
