
     RDKit          3D

 13 15  0  0  0  0  0  0  0  0999 V2000
  -11.0195   13.2056   16.8485 N   0  0  0  0  0  0  0  0  0  0  0  0
  -10.2943   12.4561   15.9914 C   0  0  0  0  0  0  0  0  0  0  0  0
   -8.9338   12.6281   16.1782 C   0  0  0  0  0  0  0  0  0  0  0  0
   -8.4478   13.5648   17.0184 C   0  0  0  0  0  0  0  0  0  0  0  0
   -6.9219   13.8432   16.9340 C   0  0  0  0  0  0  0  0  0  0  0  0
  -10.7094   11.5341   15.2030 N   0  0  0  0  0  0  0  0  0  0  0  0
   -8.2357   11.7023   15.3560 C   0  0  0  0  0  0  0  0  0  0  0  0
  -10.5323   14.1622   17.5419 C   0  0  0  0  0  0  0  0  0  0  0  0
   -8.9906   10.8882   14.6849 C   0  0  0  0  0  0  0  0  0  0  0  0
   -6.1907   12.9656   16.1668 C   0  0  0  0  0  0  0  0  0  0  0  0
   -9.2153   14.3782   17.7205 N   0  0  0  0  0  0  0  0  0  0  0  0
   -6.7751   11.9356   15.3539 C   0  0  0  0  0  0  0  0  0  0  0  0
   -8.8017   15.4316   18.6988 C   0  0  0  0  0  0  0  0  0  0  0  0
  1  2  1  0
  2  3  1  0
  3  4  2  0
  4  5  1  0
  2  6  2  0
  3  7  1  0
  1  8  2  0
  6  9  1  0
  7  9  1  0
  5 10  2  0
  4 11  1  0
  8 11  1  0
  7 12  2  0
 10 12  1  0
 11 13  1  0
M  END
>  <ID>  (1) 
conformer_0

$$$$
