
     RDKit          3D

 24 28  0  0  0  0  0  0  0  0999 V2000
  -10.8465   13.4091   17.3635 N   0  0  0  0  0  0  0  0  0  0  0  0
  -10.4018   12.6138   16.4073 C   0  0  0  0  0  0  0  0  0  0  0  0
   -8.9536   12.7186   16.2436 N   0  0  0  0  0  0  0  0  0  0  0  0
   -8.3610   11.7158   15.3526 C   0  0  0  0  0  0  0  0  0  0  0  0
   -8.0290   13.4807   16.7320 C   0  0  0  0  0  0  0  0  0  0  0  0
   -7.0329   11.7187   15.4132 C   0  0  0  0  0  0  0  0  0  0  0  0
   -8.2686   14.5481   17.4750 C   0  0  0  0  0  0  0  0  0  0  0  0
   -5.9822   11.0539   14.8461 N   0  0  0  0  0  0  0  0  0  0  0  0
   -6.8716   12.8350   16.3152 N   0  0  0  0  0  0  0  0  0  0  0  0
   -5.4098   13.2056   16.4771 C   0  0  0  0  0  0  0  0  0  0  0  0
   -4.4474   12.5392   15.9839 C   0  0  0  0  0  0  0  0  0  0  0  0
   -4.7135   11.3884   15.2194 C   0  0  0  0  0  0  0  0  0  0  0  0
   -8.9907   10.6762   14.4063 C   0  0  0  0  0  0  0  0  0  0  0  0
   -7.4352   15.4238   18.1482 C   0  0  0  0  0  0  0  0  0  0  0  0
   -7.9305   16.4413   18.8856 C   0  0  0  0  0  0  0  0  0  0  0  0
  -11.1014   12.0101   15.8934 O   0  0  0  0  0  0  0  0  0  0  0  0
   -9.7232   14.4604   17.9315 C   0  0  0  0  0  0  0  0  0  0  0  0
   -3.5987   10.6165   14.7781 N   0  0  0  0  0  0  0  0  0  0  0  0
   -5.2338   14.3701   17.2152 O   0  0  0  0  0  0  0  0  0  0  0  0
   -3.0347   12.5581   16.2730 C   0  0  0  0  0  0  0  0  0  0  0  0
   -2.3563   10.9733   15.1658 C   0  0  0  0  0  0  0  0  0  0  0  0
   -2.0813   11.8849   15.9071 C   0  0  0  0  0  0  0  0  0  0  0  0
  -10.1605   15.4690   18.7940 C   0  0  0  0  0  0  0  0  0  0  0  0
   -9.3737   16.4219   19.2918 C   0  0  0  0  0  0  0  0  0  0  0  0
  1  2  1  0
  2  3  1  0
  3  4  1  0
  3  5  1  0
  4  6  2  0
  5  7  2  0
  6  8  1  0
  5  9  1  0
  6  9  1  0
  9 10  1  0
 10 11  1  0
  8 12  2  0
 11 12  1  0
  4 13  1  0
  7 14  1  0
 14 15  2  0
  2 16  2  0
  1 17  1  0
  7 17  1  0
 12 18  1  0
 10 19  2  0
 11 20  2  0
 18 21  2  0
 20 22  1  0
 21 22  1  0
 17 23  1  0
 15 24  1  0
 23 24  2  0
M  END
>  <ID>  (1) 
conformer_0

$$$$
