
     RDKit          3D

 16 18  0  0  0  0  0  0  0  0999 V2000
  -11.1860   12.6091   16.3562 N   0  0  0  0  0  0  0  0  0  0  0  0
  -10.6084   13.3822   16.9904 C   0  0  0  0  0  0  0  0  0  0  0  0
   -9.1803   13.2504   16.7603 C   0  0  0  0  0  0  0  0  0  0  0  0
   -8.0765   13.9069   17.4028 C   0  0  0  0  0  0  0  0  0  0  0  0
  -10.9554   14.0859   17.9842 O   0  0  0  0  0  0  0  0  0  0  0  0
   -6.7466   13.6545   17.0420 C   0  0  0  0  0  0  0  0  0  0  0  0
   -5.6108   14.2494   17.5685 C   0  0  0  0  0  0  0  0  0  0  0  0
   -8.7151   12.2676   15.8015 C   0  0  0  0  0  0  0  0  0  0  0  0
   -9.8678   11.6394   15.2319 N   0  0  0  0  0  0  0  0  0  0  0  0
   -5.6409   15.1834   18.3702 O   0  0  0  0  0  0  0  0  0  0  0  0
   -7.4448   12.0747   15.3922 C   0  0  0  0  0  0  0  0  0  0  0  0
   -4.4546   13.7912   17.0038 N   0  0  0  0  0  0  0  0  0  0  0  0
  -10.8993   11.7838   15.4761 C   0  0  0  0  0  0  0  0  0  0  0  0
   -7.0813   11.1263   14.4172 O   0  0  0  0  0  0  0  0  0  0  0  0
   -6.4930   12.7570   16.0926 C   0  0  0  0  0  0  0  0  0  0  0  0
   -5.0329   12.7701   15.9778 N   0  0  0  0  0  0  0  0  0  0  0  0
  1  2  1  0
  2  3  1  0
  3  4  1  0
  2  5  2  0
  4  6  2  0
  6  7  1  0
  3  8  2  0
  8  9  1  0
  7 10  2  0
  8 11  1  0
  7 12  1  0
  1 13  2  0
  9 13  1  0
 11 14  1  0
  6 15  1  0
 11 15  2  0
 12 16  2  0
 15 16  1  0
M  END
>  <ID>  (1) 
conformer_0

$$$$
