
     RDKit          3D

 20 22  0  0  0  0  0  0  0  0999 V2000
  -10.6520   11.8332   15.6276 N   0  0  0  0  0  0  0  0  0  0  0  0
  -10.7226   12.6416   16.5198 C   0  0  0  0  0  0  0  0  0  0  0  0
   -9.4564   13.2341   16.9184 C   0  0  0  0  0  0  0  0  0  0  0  0
   -8.2670   12.8311   16.3349 C   0  0  0  0  0  0  0  0  0  0  0  0
   -6.9719   13.3188   16.7151 C   0  0  0  0  0  0  0  0  0  0  0  0
   -5.8646   12.5514   16.4235 C   0  0  0  0  0  0  0  0  0  0  0  0
   -5.8668   11.5609   15.6146 C   0  0  0  0  0  0  0  0  0  0  0  0
   -4.6298   13.0656   16.8798 C   0  0  0  0  0  0  0  0  0  0  0  0
   -3.3829   12.4873   16.5504 C   0  0  0  0  0  0  0  0  0  0  0  0
   -8.3575   11.7963   15.3571 C   0  0  0  0  0  0  0  0  0  0  0  0
   -7.0663   11.1861   15.0517 C   0  0  0  0  0  0  0  0  0  0  0  0
   -3.4531   11.3284   15.7368 C   0  0  0  0  0  0  0  0  0  0  0  0
   -9.5250   11.2650   15.0703 C   0  0  0  0  0  0  0  0  0  0  0  0
   -9.5378   14.2723   17.9571 C   0  0  0  0  0  0  0  0  0  0  0  0
   -9.7425   10.2964   14.1837 O   0  0  0  0  0  0  0  0  0  0  0  0
   -4.6426   10.8519   15.1264 C   0  0  0  0  0  0  0  0  0  0  0  0
  -11.6175   12.9667   17.0892 O   0  0  0  0  0  0  0  0  0  0  0  0
   -2.1132   10.6163   15.3892 C   0  0  0  0  0  0  0  0  0  0  0  0
   -2.0657    9.8333   14.5315 O   0  0  0  0  0  0  0  0  0  0  0  0
   -1.0886   11.0871   15.9193 O   0  0  0  0  0  0  0  0  0  0  0  0
  1  2  1  0
  2  3  1  0
  3  4  2  0
  4  5  1  0
  5  6  1  0
  6  7  1  0
  6  8  2  0
  8  9  1  0
  4 10  1  0
  7 11  2  0
 10 11  1  0
  9 12  2  0
  1 13  1  0
 10 13  1  0
  3 14  1  0
 13 15  2  0
  7 16  1  0
 12 16  1  0
  2 17  2  0
 12 18  1  0
 18 19  2  0
 18 20  1  0
M  END
>  <ID>  (1) 
conformer_0

$$$$
