
     RDKit          3D

 22 25  0  0  0  0  0  0  0  0999 V2000
  -10.6520   11.8332   15.6276 N   0  0  0  0  0  0  0  0  0  0  0  0
  -10.7226   12.6416   16.5198 C   0  0  0  0  0  0  0  0  0  0  0  0
   -9.4564   13.2341   16.9184 C   0  0  0  0  0  0  0  0  0  0  0  0
   -8.2670   12.8311   16.3349 C   0  0  0  0  0  0  0  0  0  0  0  0
   -6.9719   13.3188   16.7151 C   0  0  0  0  0  0  0  0  0  0  0  0
   -5.8646   12.5514   16.4235 C   0  0  0  0  0  0  0  0  0  0  0  0
   -9.4547   14.1893   18.0319 C   0  0  0  0  0  0  0  0  0  0  0  0
   -5.7643   11.5348   15.6643 C   0  0  0  0  0  0  0  0  0  0  0  0
   -4.6300   13.1645   16.8867 C   0  0  0  0  0  0  0  0  0  0  0  0
   -4.4712   14.3808   17.6659 C   0  0  0  0  0  0  0  0  0  0  0  0
   -8.9960   14.0051   19.1101 O   0  0  0  0  0  0  0  0  0  0  0  0
  -11.7486   13.0591   16.8951 O   0  0  0  0  0  0  0  0  0  0  0  0
   -9.4891   11.2282   15.0015 C   0  0  0  0  0  0  0  0  0  0  0  0
   -3.4650   12.4596   16.5120 C   0  0  0  0  0  0  0  0  0  0  0  0
   -2.1862   12.9543   16.8873 C   0  0  0  0  0  0  0  0  0  0  0  0
   -3.2610   14.7779   18.1317 C   0  0  0  0  0  0  0  0  0  0  0  0
   -8.3208   11.7418   15.4615 C   0  0  0  0  0  0  0  0  0  0  0  0
   -4.5545   11.0831   15.1964 N   0  0  0  0  0  0  0  0  0  0  0  0
   -7.0542   11.1472   15.0060 C   0  0  0  0  0  0  0  0  0  0  0  0
   -9.9273   15.4054   17.8213 O   0  0  0  0  0  0  0  0  0  0  0  0
   -2.0806   13.9808   17.7673 C   0  0  0  0  0  0  0  0  0  0  0  0
   -3.5467   11.4692   15.8538 N   0  0  0  0  0  0  0  0  0  0  0  0
  1  2  1  0
  2  3  1  0
  3  4  2  0
  4  5  1  0
  5  6  1  0
  3  7  1  0
  6  8  1  0
  6  9  2  0
  9 10  1  0
  7 11  2  0
  2 12  2  0
  1 13  1  0
  9 14  1  0
 14 15  1  0
 10 16  2  0
  4 17  1  0
 13 17  2  0
  8 18  2  0
  8 19  1  0
 17 19  1  0
  7 20  1  0
 15 21  2  0
 16 21  1  0
 14 22  2  0
 18 22  1  0
M  END
>  <ID>  (1) 
conformer_0

$$$$
