
     RDKit          3D

 15 17  0  0  0  0  0  0  0  0999 V2000
  -10.7171   13.9611   17.6842 N   0  0  0  0  0  0  0  0  0  0  0  0
  -10.4825   13.1075   16.7697 C   0  0  0  0  0  0  0  0  0  0  0  0
   -9.1779   12.8475   16.3229 C   0  0  0  0  0  0  0  0  0  0  0  0
   -9.6122   14.9371   18.0196 C   0  0  0  0  0  0  0  0  0  0  0  0
   -8.1097   13.5269   16.7017 C   0  0  0  0  0  0  0  0  0  0  0  0
   -8.2634   14.6279   17.6387 C   0  0  0  0  0  0  0  0  0  0  0  0
   -9.0236   11.7394   15.3120 C   0  0  0  0  0  0  0  0  0  0  0  0
   -9.7519   15.8016   19.0610 C   0  0  0  0  0  0  0  0  0  0  0  0
  -10.7577   16.2089   19.7179 N   0  0  0  0  0  0  0  0  0  0  0  0
  -11.5150   12.4272   16.3331 O   0  0  0  0  0  0  0  0  0  0  0  0
   -9.8381   11.0246   14.7521 O   0  0  0  0  0  0  0  0  0  0  0  0
   -8.5696   16.4810   19.3899 C   0  0  0  0  0  0  0  0  0  0  0  0
   -6.9482   12.9450   16.0125 C   0  0  0  0  0  0  0  0  0  0  0  0
   -7.3893   15.4794   18.2785 C   0  0  0  0  0  0  0  0  0  0  0  0
   -7.5096   11.8183   15.1131 C   0  0  0  0  0  0  0  0  0  0  0  0
  1  2  1  0
  2  3  1  0
  1  4  2  0
  3  5  2  0
  4  6  1  0
  5  6  1  0
  3  7  1  0
  4  8  1  0
  8  9  1  0
  2 10  2  0
  7 11  2  0
  8 12  2  0
  5 13  1  0
  6 14  2  0
 12 14  1  0
  7 15  1  0
 13 15  2  0
M  END
>  <ID>  (1) 
conformer_0

$$$$
