
     RDKit          3D

 13 15  0  0  0  0  0  0  0  0999 V2000
  -10.8465   13.4091   17.3635 N   0  0  0  0  0  0  0  0  0  0  0  0
  -10.4018   12.6138   16.4073 C   0  0  0  0  0  0  0  0  0  0  0  0
  -10.0237   14.1308   18.0359 C   0  0  0  0  0  0  0  0  0  0  0  0
   -9.0591   12.5024   15.9747 C   0  0  0  0  0  0  0  0  0  0  0  0
  -10.4364   14.9070   19.0635 N   0  0  0  0  0  0  0  0  0  0  0  0
   -8.7758   14.2538   17.7625 C   0  0  0  0  0  0  0  0  0  0  0  0
   -9.5360   15.8258   19.5143 C   0  0  0  0  0  0  0  0  0  0  0  0
   -8.3102   15.4225   18.7172 N   0  0  0  0  0  0  0  0  0  0  0  0
   -8.5156   11.7831   14.9396 N   0  0  0  0  0  0  0  0  0  0  0  0
   -7.2551   11.7540   14.9209 C   0  0  0  0  0  0  0  0  0  0  0  0
   -6.3778   12.5055   15.6031 N   0  0  0  0  0  0  0  0  0  0  0  0
   -6.8157   13.3166   16.5331 C   0  0  0  0  0  0  0  0  0  0  0  0
   -8.2257   13.3801   16.7481 C   0  0  0  0  0  0  0  0  0  0  0  0
  1  2  2  0
  1  3  1  0
  2  4  1  0
  3  5  1  0
  3  6  2  0
  5  7  2  0
  6  8  1  0
  7  8  1  0
  4  9  1  0
  9 10  2  0
 10 11  1  0
 11 12  2  0
  4 13  2  0
  6 13  1  0
 12 13  1  0
M  END
>  <ID>  (1) 
conformer_0

$$$$
