
     RDKit          3D

 23 26  0  0  0  0  0  0  0  0999 V2000
   -3.5535   14.2628   16.4868 C   0  0  0  0  0  0  0  0  0  0  0  0
   -2.8240   13.2654   16.5474 C   0  0  0  0  0  0  0  0  0  0  0  0
   -5.0054   13.9082   16.6201 C   0  0  0  0  0  0  0  0  0  0  0  0
   -5.4400   12.6161   16.3850 C   0  0  0  0  0  0  0  0  0  0  0  0
   -4.5343   11.5718   16.1468 C   0  0  0  0  0  0  0  0  0  0  0  0
   -3.1229   11.9371   16.2444 C   0  0  0  0  0  0  0  0  0  0  0  0
   -2.0760   10.7173   16.1878 C   0  0  0  0  0  0  0  0  0  0  0  0
   -6.9019   12.3775   16.3753 C   0  0  0  0  0  0  0  0  0  0  0  0
   -7.5371   11.5213   15.5029 C   0  0  0  0  0  0  0  0  0  0  0  0
   -8.9095   11.6078   15.7059 C   0  0  0  0  0  0  0  0  0  0  0  0
   -7.7990   13.1918   17.1022 C   0  0  0  0  0  0  0  0  0  0  0  0
   -9.9178   10.8911   15.0119 C   0  0  0  0  0  0  0  0  0  0  0  0
   -9.2028   12.9104   16.8953 C   0  0  0  0  0  0  0  0  0  0  0  0
   -9.6550   10.2243   14.1884 O   0  0  0  0  0  0  0  0  0  0  0  0
   -2.1915    9.9413   15.2159 C   0  0  0  0  0  0  0  0  0  0  0  0
   -0.9789   10.8068   16.9768 C   0  0  0  0  0  0  0  0  0  0  0  0
  -10.3257   13.2034   16.9949 C   0  0  0  0  0  0  0  0  0  0  0  0
  -11.3704   12.4951   16.4268 N   0  0  0  0  0  0  0  0  0  0  0  0
  -10.9834   11.5172   15.5168 N   0  0  0  0  0  0  0  0  0  0  0  0
   -0.1220    9.7196   16.9972 C   0  0  0  0  0  0  0  0  0  0  0  0
   -0.2438    8.7680   16.0019 C   0  0  0  0  0  0  0  0  0  0  0  0
   -1.2466    8.8026   15.1225 C   0  0  0  0  0  0  0  0  0  0  0  0
  -10.7103   14.1708   17.9069 N   0  0  0  0  0  0  0  0  0  0  0  0
  1  2  2  0
  1  3  1  0
  3  4  2  0
  4  5  1  0
  2  6  1  0
  5  6  2  0
  6  7  1  0
  4  8  1  0
  8  9  1  0
  9 10  2  0
  8 11  2  0
 10 12  1  0
 10 13  1  0
 11 13  1  0
 12 14  2  0
  7 15  2  0
  7 16  1  0
 13 17  1  0
 17 18  2  0
 12 19  1  0
 18 19  1  0
 16 20  2  0
 20 21  1  0
 15 22  1  0
 21 22  2  0
 17 23  1  0
M  END
>  <ID>  (1) 
conformer_0

$$$$
