
     RDKit          3D

 22 26  0  0  0  0  0  0  0  0999 V2000
  -10.6520   11.8332   15.6276 N   0  0  0  0  0  0  0  0  0  0  0  0
  -10.7226   12.6416   16.5198 C   0  0  0  0  0  0  0  0  0  0  0  0
   -9.4564   13.2341   16.9184 C   0  0  0  0  0  0  0  0  0  0  0  0
   -8.2670   12.8311   16.3349 C   0  0  0  0  0  0  0  0  0  0  0  0
   -6.9719   13.3188   16.7151 C   0  0  0  0  0  0  0  0  0  0  0  0
   -5.8646   12.5514   16.4235 C   0  0  0  0  0  0  0  0  0  0  0  0
   -9.4547   14.1893   18.0319 C   0  0  0  0  0  0  0  0  0  0  0  0
   -5.7643   11.5348   15.6643 C   0  0  0  0  0  0  0  0  0  0  0  0
   -4.6300   13.1645   16.8867 C   0  0  0  0  0  0  0  0  0  0  0  0
   -4.4712   14.3808   17.6659 C   0  0  0  0  0  0  0  0  0  0  0  0
   -6.8337   10.9721   15.0342 C   0  0  0  0  0  0  0  0  0  0  0  0
  -10.4206   15.0989   17.9962 O   0  0  0  0  0  0  0  0  0  0  0  0
   -6.8625   14.5224   17.4014 C   0  0  0  0  0  0  0  0  0  0  0  0
   -4.3973   11.2150   15.5067 N   0  0  0  0  0  0  0  0  0  0  0  0
   -3.2706   14.8431   18.0521 C   0  0  0  0  0  0  0  0  0  0  0  0
   -8.1551   14.9731   17.9296 C   0  0  0  0  0  0  0  0  0  0  0  0
   -5.7003   15.0292   17.9373 C   0  0  0  0  0  0  0  0  0  0  0  0
   -3.6391   12.2220   16.3021 N   0  0  0  0  0  0  0  0  0  0  0  0
   -2.3650   12.0240   16.3664 C   0  0  0  0  0  0  0  0  0  0  0  0
   -8.1605   11.6650   15.3896 C   0  0  0  0  0  0  0  0  0  0  0  0
   -9.4541   11.1266   14.9134 C   0  0  0  0  0  0  0  0  0  0  0  0
  -11.7931   13.0040   17.0178 O   0  0  0  0  0  0  0  0  0  0  0  0
  1  2  1  0
  2  3  1  0
  3  4  2  0
  4  5  1  0
  5  6  1  0
  3  7  1  0
  6  8  1  0
  6  9  2  0
  9 10  1  0
  8 11  1  0
  7 12  1  0
  5 13  2  0
  8 14  2  0
 10 15  1  0
  7 16  1  0
 13 16  1  0
 10 17  2  0
 13 17  1  0
  9 18  1  0
 14 18  1  0
 18 19  1  0
  4 20  1  0
 11 20  2  0
  1 21  1  0
 20 21  1  0
  2 22  2  0
M  END
>  <ID>  (1) 
conformer_0

$$$$
