
     RDKit          3D

 20 23  0  0  0  0  0  0  0  0999 V2000
  -10.6520   11.8332   15.6276 N   0  0  0  0  0  0  0  0  0  0  0  0
  -10.7226   12.6416   16.5198 C   0  0  0  0  0  0  0  0  0  0  0  0
   -9.4564   13.2341   16.9184 C   0  0  0  0  0  0  0  0  0  0  0  0
   -8.2670   12.8311   16.3349 C   0  0  0  0  0  0  0  0  0  0  0  0
   -6.9719   13.3188   16.7151 C   0  0  0  0  0  0  0  0  0  0  0  0
   -5.8646   12.5514   16.4235 C   0  0  0  0  0  0  0  0  0  0  0  0
   -5.8668   11.5609   15.6146 C   0  0  0  0  0  0  0  0  0  0  0  0
   -4.6298   13.0656   16.8798 C   0  0  0  0  0  0  0  0  0  0  0  0
   -7.0528   10.9987   15.0955 C   0  0  0  0  0  0  0  0  0  0  0  0
   -8.3577   11.6526   15.5200 C   0  0  0  0  0  0  0  0  0  0  0  0
   -4.4192   14.2734   17.6342 C   0  0  0  0  0  0  0  0  0  0  0  0
   -7.0842   14.4002   17.2347 N   0  0  0  0  0  0  0  0  0  0  0  0
   -9.5496   11.2415   15.1428 C   0  0  0  0  0  0  0  0  0  0  0  0
   -3.5046   12.3565   16.6203 N   0  0  0  0  0  0  0  0  0  0  0  0
  -11.8151   13.3245   17.0366 O   0  0  0  0  0  0  0  0  0  0  0  0
   -5.7861   14.9553   17.8004 C   0  0  0  0  0  0  0  0  0  0  0  0
   -2.2471   12.8132   17.0437 C   0  0  0  0  0  0  0  0  0  0  0  0
   -3.6166   11.3181   15.7052 C   0  0  0  0  0  0  0  0  0  0  0  0
   -4.7078   10.8035   15.2018 N   0  0  0  0  0  0  0  0  0  0  0  0
   -2.4568   10.6018   15.4529 O   0  0  0  0  0  0  0  0  0  0  0  0
  1  2  1  0
  2  3  1  0
  3  4  2  0
  4  5  1  0
  5  6  1  0
  6  7  1  0
  6  8  2  0
  7  9  1  0
  4 10  1  0
  9 10  2  0
  8 11  1  0
  5 12  2  0
  1 13  2  0
 10 13  1  0
  8 14  1  0
  2 15  2  0
 11 16  2  0
 12 16  1  0
 14 17  1  0
 14 18  1  0
  7 19  2  0
 18 19  1  0
 18 20  2  0
M  END
>  <ID>  (1) 
conformer_0

$$$$
