
     RDKit          3D

 16 18  0  0  0  0  0  0  0  0999 V2000
  -11.0195   13.2056   16.8485 N   0  0  0  0  0  0  0  0  0  0  0  0
  -10.2943   12.4561   15.9914 C   0  0  0  0  0  0  0  0  0  0  0  0
   -8.9338   12.6281   16.1782 C   0  0  0  0  0  0  0  0  0  0  0  0
   -8.4478   13.5648   17.0184 C   0  0  0  0  0  0  0  0  0  0  0  0
   -6.9219   13.8432   16.9340 C   0  0  0  0  0  0  0  0  0  0  0  0
  -10.7094   11.5341   15.2030 N   0  0  0  0  0  0  0  0  0  0  0  0
   -8.2357   11.7023   15.3560 C   0  0  0  0  0  0  0  0  0  0  0  0
  -10.5323   14.1622   17.5419 C   0  0  0  0  0  0  0  0  0  0  0  0
   -9.2054   14.3812   17.7168 N   0  0  0  0  0  0  0  0  0  0  0  0
   -9.8921   10.7168   14.5082 C   0  0  0  0  0  0  0  0  0  0  0  0
   -6.6995   11.9072   15.5740 C   0  0  0  0  0  0  0  0  0  0  0  0
   -8.7773   15.3302   18.6723 C   0  0  0  0  0  0  0  0  0  0  0  0
   -8.5361   10.8728   14.6689 C   0  0  0  0  0  0  0  0  0  0  0  0
   -7.6644   10.0197   14.1646 O   0  0  0  0  0  0  0  0  0  0  0  0
   -6.3918   14.8887   17.6603 O   0  0  0  0  0  0  0  0  0  0  0  0
   -6.1726   12.9391   16.1321 N   0  0  0  0  0  0  0  0  0  0  0  0
  1  2  1  0
  2  3  1  0
  3  4  2  0
  4  5  1  0
  2  6  2  0
  3  7  1  0
  1  8  2  0
  4  9  1  0
  8  9  1  0
  6 10  1  0
  7 11  1  0
  9 12  1  0
  7 13  1  0
 10 13  1  0
 13 14  2  0
  5 15  2  0
  5 16  1  0
 11 16  2  0
M  END
>  <ID>  (1) 
conformer_0

$$$$
