
     RDKit          3D

 12 13  0  0  0  0  0  0  0  0999 V2000
  -10.6520   11.8332   15.6276 N   0  0  0  0  0  0  0  0  0  0  0  0
  -10.7226   12.6416   16.5198 C   0  0  0  0  0  0  0  0  0  0  0  0
   -9.4564   13.2341   16.9184 C   0  0  0  0  0  0  0  0  0  0  0  0
   -8.2670   12.8311   16.3349 C   0  0  0  0  0  0  0  0  0  0  0  0
   -6.9719   13.3188   16.7151 N   0  0  0  0  0  0  0  0  0  0  0  0
   -9.4321   14.1876   18.0283 C   0  0  0  0  0  0  0  0  0  0  0  0
   -8.2844   11.8328   15.2223 C   0  0  0  0  0  0  0  0  0  0  0  0
   -9.3097   11.3544   14.9444 C   0  0  0  0  0  0  0  0  0  0  0  0
   -7.0947   14.3238   17.5935 C   0  0  0  0  0  0  0  0  0  0  0  0
  -11.7263   13.0185   16.9406 O   0  0  0  0  0  0  0  0  0  0  0  0
   -8.2900   14.6972   18.2791 C   0  0  0  0  0  0  0  0  0  0  0  0
   -9.2782   10.3590   13.9725 O   0  0  0  0  0  0  0  0  0  0  0  0
  1  2  1  0
  2  3  1  0
  3  4  2  0
  4  5  1  0
  3  6  1  0
  4  7  1  0
  1  8  1  0
  7  8  1  0
  5  9  2  0
  2 10  2  0
  6 11  2  0
  9 11  1  0
  8 12  2  0
M  END
>  <ID>  (1) 
conformer_0

$$$$
