
     RDKit          3D

 10 11  0  0  0  0  0  0  0  0999 V2000
  -10.8504   13.1372   16.7258 N   0  0  0  0  0  0  0  0  0  0  0  0
  -10.1309   13.8996   17.2950 C   0  0  0  0  0  0  0  0  0  0  0  0
   -9.9580   12.3677   15.8735 C   0  0  0  0  0  0  0  0  0  0  0  0
   -8.8423   13.7606   17.1785 N   0  0  0  0  0  0  0  0  0  0  0  0
   -8.7105   12.7722   16.2295 C   0  0  0  0  0  0  0  0  0  0  0  0
  -10.2352   11.2842   15.0424 C   0  0  0  0  0  0  0  0  0  0  0  0
   -7.6139   14.4293   17.7222 C   0  0  0  0  0  0  0  0  0  0  0  0
   -9.1392   10.6888   14.4357 C   0  0  0  0  0  0  0  0  0  0  0  0
   -7.8123   11.1211   14.7950 C   0  0  0  0  0  0  0  0  0  0  0  0
   -7.5813   12.1471   15.6460 C   0  0  0  0  0  0  0  0  0  0  0  0
  1  2  2  0
  1  3  1  0
  2  4  1  0
  3  5  1  0
  4  5  1  0
  3  6  2  0
  4  7  1  0
  6  8  1  0
  8  9  2  0
  5 10  2  0
  9 10  1  0
M  END
>  <ID>  (1) 
conformer_0

$$$$
