
     RDKit          3D

 11 12  0  0  0  0  0  0  0  0999 V2000
  -10.7171   13.9611   17.6842 N   0  0  0  0  0  0  0  0  0  0  0  0
   -9.6628   14.5201   18.1623 C   0  0  0  0  0  0  0  0  0  0  0  0
   -8.4064   14.2011   17.5661 C   0  0  0  0  0  0  0  0  0  0  0  0
  -10.9537   13.2453   16.7236 C   0  0  0  0  0  0  0  0  0  0  0  0
   -9.6530   12.7300   16.0542 C   0  0  0  0  0  0  0  0  0  0  0  0
   -8.4150   13.2040   16.5224 C   0  0  0  0  0  0  0  0  0  0  0  0
   -7.2476   12.7529   15.8728 C   0  0  0  0  0  0  0  0  0  0  0  0
   -5.9997   13.1151   16.3421 C   0  0  0  0  0  0  0  0  0  0  0  0
   -7.2795   11.7311   15.0999 C   0  0  0  0  0  0  0  0  0  0  0  0
   -5.8112   11.3603   14.7880 N   0  0  0  0  0  0  0  0  0  0  0  0
   -5.1117   12.2837   15.5370 N   0  0  0  0  0  0  0  0  0  0  0  0
  1  2  1  0
  2  3  2  0
  1  4  2  0
  4  5  1  0
  3  6  1  0
  5  6  2  0
  6  7  1  0
  7  8  1  0
  7  9  2  0
  9 10  1  0
  8 11  1  0
 10 11  2  0
M  END
>  <ID>  (1) 
conformer_0

$$$$
