
     RDKit          3D

 26 30  0  0  0  0  0  0  0  0999 V2000
  -10.6520   11.8332   15.6276 N   0  0  0  0  0  0  0  0  0  0  0  0
  -10.7226   12.6416   16.5198 C   0  0  0  0  0  0  0  0  0  0  0  0
   -9.4564   13.2341   16.9184 C   0  0  0  0  0  0  0  0  0  0  0  0
   -8.2670   12.8311   16.3349 C   0  0  0  0  0  0  0  0  0  0  0  0
   -6.9719   13.3188   16.7151 C   0  0  0  0  0  0  0  0  0  0  0  0
   -5.8646   12.5514   16.4235 C   0  0  0  0  0  0  0  0  0  0  0  0
   -9.4547   14.1893   18.0319 C   0  0  0  0  0  0  0  0  0  0  0  0
   -5.7643   11.5348   15.6643 C   0  0  0  0  0  0  0  0  0  0  0  0
   -4.6300   13.1645   16.8867 C   0  0  0  0  0  0  0  0  0  0  0  0
   -4.4712   14.3808   17.6659 C   0  0  0  0  0  0  0  0  0  0  0  0
   -6.8337   10.9721   15.0342 C   0  0  0  0  0  0  0  0  0  0  0  0
   -4.5533   10.8438   15.3641 C   0  0  0  0  0  0  0  0  0  0  0  0
   -8.1944   11.6556   15.4807 C   0  0  0  0  0  0  0  0  0  0  0  0
   -6.8559   14.4732   17.4799 C   0  0  0  0  0  0  0  0  0  0  0  0
  -10.5913   14.6493   18.5428 O   0  0  0  0  0  0  0  0  0  0  0  0
   -4.4029    9.7080   14.6878 O   0  0  0  0  0  0  0  0  0  0  0  0
   -3.3671   11.4119   15.7962 C   0  0  0  0  0  0  0  0  0  0  0  0
   -9.5353   11.2009   15.0468 C   0  0  0  0  0  0  0  0  0  0  0  0
   -5.6951   15.0502   17.9239 C   0  0  0  0  0  0  0  0  0  0  0  0
   -3.3877   12.5831   16.5978 C   0  0  0  0  0  0  0  0  0  0  0  0
  -11.8070   13.0645   16.9389 O   0  0  0  0  0  0  0  0  0  0  0  0
   -2.0884   10.6516   15.5815 C   0  0  0  0  0  0  0  0  0  0  0  0
   -1.1922   10.6578   16.3342 O   0  0  0  0  0  0  0  0  0  0  0  0
   -8.1811   15.0417   18.0590 C   0  0  0  0  0  0  0  0  0  0  0  0
   -2.0715   10.0105   14.4387 O   0  0  0  0  0  0  0  0  0  0  0  0
   -9.7312   10.3367   14.0985 O   0  0  0  0  0  0  0  0  0  0  0  0
  1  2  1  0
  2  3  1  0
  3  4  2  0
  4  5  1  0
  5  6  1  0
  3  7  1  0
  6  8  1  0
  6  9  2  0
  9 10  1  0
  8 11  1  0
  8 12  2  0
  4 13  1  0
 11 13  2  0
  5 14  2  0
  7 15  1  0
 12 16  1  0
 12 17  1  0
  1 18  1  0
 13 18  1  0
 10 19  2  0
 14 19  1  0
  9 20  1  0
 17 20  2  0
  2 21  2  0
 17 22  1  0
 22 23  2  0
  7 24  2  0
 14 24  1  0
 22 25  1  0
 18 26  2  0
M  END
>  <ID>  (1) 
conformer_0

$$$$
