
     RDKit          3D

 24 27  0  0  0  0  0  0  0  0999 V2000
  -10.6520   11.8332   15.6276 N   0  0  0  0  0  0  0  0  0  0  0  0
  -10.7226   12.6416   16.5198 C   0  0  0  0  0  0  0  0  0  0  0  0
   -9.4564   13.2341   16.9184 C   0  0  0  0  0  0  0  0  0  0  0  0
   -8.2670   12.8311   16.3349 C   0  0  0  0  0  0  0  0  0  0  0  0
   -6.9719   13.3188   16.7151 C   0  0  0  0  0  0  0  0  0  0  0  0
   -5.8646   12.5514   16.4235 C   0  0  0  0  0  0  0  0  0  0  0  0
   -9.4547   14.1893   18.0319 C   0  0  0  0  0  0  0  0  0  0  0  0
   -5.7643   11.5348   15.6643 C   0  0  0  0  0  0  0  0  0  0  0  0
   -4.6300   13.1645   16.8867 C   0  0  0  0  0  0  0  0  0  0  0  0
   -4.4712   14.3808   17.6659 C   0  0  0  0  0  0  0  0  0  0  0  0
   -8.9960   14.0051   19.1101 O   0  0  0  0  0  0  0  0  0  0  0  0
  -11.7486   13.0591   16.8951 O   0  0  0  0  0  0  0  0  0  0  0  0
   -9.4891   11.2282   15.0015 C   0  0  0  0  0  0  0  0  0  0  0  0
   -3.4960   14.5208   18.0924 O   0  0  0  0  0  0  0  0  0  0  0  0
   -9.5301   10.2072   14.1054 O   0  0  0  0  0  0  0  0  0  0  0  0
   -5.5813   15.1071   17.7944 N   0  0  0  0  0  0  0  0  0  0  0  0
   -9.5924   15.4988   17.6548 O   0  0  0  0  0  0  0  0  0  0  0  0
   -6.8744   14.5815   17.2932 C   0  0  0  0  0  0  0  0  0  0  0  0
   -3.4042   12.4767   16.5356 C   0  0  0  0  0  0  0  0  0  0  0  0
   -2.1511   12.9662   16.9505 O   0  0  0  0  0  0  0  0  0  0  0  0
   -8.3120   11.7741   15.4079 C   0  0  0  0  0  0  0  0  0  0  0  0
   -7.0594   11.1721   14.9845 C   0  0  0  0  0  0  0  0  0  0  0  0
   -4.4785   10.8719   15.3056 C   0  0  0  0  0  0  0  0  0  0  0  0
   -3.3851   11.3593   15.7977 N   0  0  0  0  0  0  0  0  0  0  0  0
  1  2  1  0
  2  3  1  0
  3  4  2  0
  4  5  1  0
  5  6  1  0
  3  7  1  0
  6  8  1  0
  6  9  2  0
  9 10  1  0
  7 11  2  0
  2 12  2  0
  1 13  1  0
 10 14  2  0
 13 15  1  0
 10 16  1  0
  7 17  1  0
  5 18  1  0
 16 18  1  0
  9 19  1  0
 19 20  2  0
  4 21  1  0
 13 21  2  0
  8 22  2  0
 21 22  1  0
  8 23  1  0
 19 24  1  0
 23 24  2  0
M  END
>  <ID>  (1) 
conformer_0

$$$$
