
     RDKit          3D

 11 12  0  0  0  0  0  0  0  0999 V2000
  -11.0952   13.0824   16.8064 N   0  0  0  0  0  0  0  0  0  0  0  0
  -10.7837   12.0960   15.8970 C   0  0  0  0  0  0  0  0  0  0  0  0
   -9.9092   13.7235   17.1943 C   0  0  0  0  0  0  0  0  0  0  0  0
   -8.6544   13.5727   16.9377 C   0  0  0  0  0  0  0  0  0  0  0  0
   -9.3197   11.9056   15.5603 C   0  0  0  0  0  0  0  0  0  0  0  0
   -9.0197   10.8078   14.6017 N   0  0  0  0  0  0  0  0  0  0  0  0
   -8.3636   12.5978   16.0409 C   0  0  0  0  0  0  0  0  0  0  0  0
   -6.9991   12.2964   15.6890 N   0  0  0  0  0  0  0  0  0  0  0  0
  -10.3185   14.9218   18.2552 N   0  0  0  0  0  0  0  0  0  0  0  0
   -7.8026   10.7411   14.5031 C   0  0  0  0  0  0  0  0  0  0  0  0
   -6.7469   11.4209   14.8708 C   0  0  0  0  0  0  0  0  0  0  0  0
  1  2  1  0
  1  3  2  0
  3  4  1  0
  2  5  2  0
  5  6  1  0
  4  7  2  0
  5  7  1  0
  7  8  1  0
  3  9  1  0
  6 10  2  0
  8 11  2  0
 10 11  1  0
M  END
>  <ID>  (1) 
conformer_0

$$$$
