
     RDKit          3D

 24 29  0  0  0  0  0  0  0  0999 V2000
  -10.8465   13.4091   17.3635 N   0  0  0  0  0  0  0  0  0  0  0  0
  -10.4018   12.6138   16.4073 C   0  0  0  0  0  0  0  0  0  0  0  0
   -8.9536   12.7186   16.2436 N   0  0  0  0  0  0  0  0  0  0  0  0
   -8.3610   11.7158   15.3526 C   0  0  0  0  0  0  0  0  0  0  0  0
   -8.0290   13.4807   16.7320 C   0  0  0  0  0  0  0  0  0  0  0  0
   -7.0329   11.7187   15.4132 C   0  0  0  0  0  0  0  0  0  0  0  0
   -8.2686   14.5481   17.4750 C   0  0  0  0  0  0  0  0  0  0  0  0
   -5.9822   11.0539   14.8461 N   0  0  0  0  0  0  0  0  0  0  0  0
   -6.8716   12.8350   16.3152 N   0  0  0  0  0  0  0  0  0  0  0  0
   -5.4098   13.2056   16.4771 C   0  0  0  0  0  0  0  0  0  0  0  0
   -4.4474   12.5392   15.9839 C   0  0  0  0  0  0  0  0  0  0  0  0
   -4.7135   11.3884   15.2194 C   0  0  0  0  0  0  0  0  0  0  0  0
   -8.9907   10.6762   14.4063 C   0  0  0  0  0  0  0  0  0  0  0  0
   -7.4352   15.4238   18.1482 C   0  0  0  0  0  0  0  0  0  0  0  0
   -7.9305   16.4413   18.8856 C   0  0  0  0  0  0  0  0  0  0  0  0
   -9.7339   14.8982   17.8662 C   0  0  0  0  0  0  0  0  0  0  0  0
   -3.1185   12.7859   16.2068 C   0  0  0  0  0  0  0  0  0  0  0  0
  -10.7393   14.3800   17.8130 C   0  0  0  0  0  0  0  0  0  0  0  0
   -5.1178   14.3398   17.2506 C   0  0  0  0  0  0  0  0  0  0  0  0
   -9.5645   16.1806   18.6694 C   0  0  0  0  0  0  0  0  0  0  0  0
   -5.8776   15.3264   17.9945 C   0  0  0  0  0  0  0  0  0  0  0  0
  -11.2128   11.9665   15.7844 O   0  0  0  0  0  0  0  0  0  0  0  0
   -2.7777   13.9519   16.9181 C   0  0  0  0  0  0  0  0  0  0  0  0
   -3.7531   14.7307   17.4876 C   0  0  0  0  0  0  0  0  0  0  0  0
  1  2  1  0
  2  3  1  0
  3  4  1  0
  3  5  1  0
  4  6  2  0
  5  7  2  0
  6  8  1  0
  5  9  1  0
  6  9  1  0
  9 10  1  0
 10 11  1  0
  8 12  2  0
 11 12  1  0
  4 13  1  0
  7 14  1  0
 14 15  2  0
  7 16  1  0
 11 17  2  0
  1 18  2  0
 16 18  1  0
 10 19  2  0
 15 20  1  0
 16 20  2  0
 14 21  1  0
 19 21  1  0
  2 22  2  0
 17 23  1  0
 19 24  1  0
 23 24  2  0
M  END
>  <ID>  (1) 
conformer_0

$$$$
