
     RDKit          3D

 18 20  0  0  0  0  0  0  0  0999 V2000
  -10.8061   13.8041   17.5750 N   0  0  0  0  0  0  0  0  0  0  0  0
   -9.7984   14.4624   18.1064 C   0  0  0  0  0  0  0  0  0  0  0  0
   -8.5114   14.2532   17.6737 N   0  0  0  0  0  0  0  0  0  0  0  0
   -8.1307   13.3906   16.8172 C   0  0  0  0  0  0  0  0  0  0  0  0
  -10.2701   12.9962   16.5466 C   0  0  0  0  0  0  0  0  0  0  0  0
   -6.7135   13.2365   16.4496 N   0  0  0  0  0  0  0  0  0  0  0  0
   -5.6724   13.9621   17.0878 C   0  0  0  0  0  0  0  0  0  0  0  0
   -4.4254   13.3633   16.6084 C   0  0  0  0  0  0  0  0  0  0  0  0
   -8.9956   12.7078   16.0801 C   0  0  0  0  0  0  0  0  0  0  0  0
   -4.2680   12.3049   15.7830 C   0  0  0  0  0  0  0  0  0  0  0  0
   -3.0368   11.7564   15.4827 C   0  0  0  0  0  0  0  0  0  0  0  0
  -11.2712   12.2353   15.9206 O   0  0  0  0  0  0  0  0  0  0  0  0
   -8.6412   11.8830   15.1046 C   0  0  0  0  0  0  0  0  0  0  0  0
   -5.4265   11.6415   15.3349 C   0  0  0  0  0  0  0  0  0  0  0  0
   -5.3938   10.4958   14.5648 O   0  0  0  0  0  0  0  0  0  0  0  0
   -6.5231   12.0804   15.7437 C   0  0  0  0  0  0  0  0  0  0  0  0
   -7.6004   11.5805   15.0115 N   0  0  0  0  0  0  0  0  0  0  0  0
   -9.7462   11.1682   14.5291 O   0  0  0  0  0  0  0  0  0  0  0  0
  1  2  2  0
  2  3  1  0
  3  4  2  0
  1  5  1  0
  4  6  1  0
  6  7  1  0
  7  8  2  0
  4  9  1  0
  5  9  1  0
  8 10  1  0
 10 11  1  0
  5 12  2  0
  9 13  1  0
 10 14  2  0
 14 15  1  0
  6 16  1  0
 14 16  1  0
 13 17  1  0
 16 17  1  0
 13 18  2  0
M  END
>  <ID>  (1) 
conformer_0

$$$$
