
     RDKit          3D

 14 16  0  0  0  0  0  0  0  0999 V2000
  -11.1860   12.6091   16.3562 N   0  0  0  0  0  0  0  0  0  0  0  0
  -10.6084   13.3822   16.9904 C   0  0  0  0  0  0  0  0  0  0  0  0
   -9.1803   13.2504   16.7603 C   0  0  0  0  0  0  0  0  0  0  0  0
   -8.0765   13.9069   17.4028 C   0  0  0  0  0  0  0  0  0  0  0  0
  -10.9554   14.0859   17.9842 O   0  0  0  0  0  0  0  0  0  0  0  0
   -6.7466   13.6545   17.0420 C   0  0  0  0  0  0  0  0  0  0  0  0
   -5.6108   14.2494   17.5685 C   0  0  0  0  0  0  0  0  0  0  0  0
   -8.7151   12.2676   15.8015 C   0  0  0  0  0  0  0  0  0  0  0  0
   -9.8678   11.6394   15.2319 N   0  0  0  0  0  0  0  0  0  0  0  0
   -7.4422   12.0645   15.4420 N   0  0  0  0  0  0  0  0  0  0  0  0
   -4.4163   13.8995   17.0362 C   0  0  0  0  0  0  0  0  0  0  0  0
   -6.4693   12.7014   16.0385 C   0  0  0  0  0  0  0  0  0  0  0  0
  -10.9158   11.7821   15.4918 C   0  0  0  0  0  0  0  0  0  0  0  0
   -5.0468   12.6393   15.8754 N   0  0  0  0  0  0  0  0  0  0  0  0
  1  2  1  0
  2  3  1  0
  3  4  1  0
  2  5  2  0
  4  6  2  0
  6  7  1  0
  3  8  2  0
  8  9  1  0
  8 10  1  0
  7 11  2  0
  6 12  1  0
 10 12  1  0
  1 13  1  0
  9 13  1  0
 11 14  1  0
 12 14  2  0
M  END
>  <ID>  (1) 
conformer_0

$$$$
