
     RDKit          3D

 10 11  0  0  0  0  0  0  0  0999 V2000
  -10.7498   13.6515   17.0900 N   0  0  0  0  0  0  0  0  0  0  0  0
   -9.7600   14.2502   17.6021 C   0  0  0  0  0  0  0  0  0  0  0  0
  -10.1799   12.7737   16.1568 C   0  0  0  0  0  0  0  0  0  0  0  0
   -8.9148   12.4947   15.8620 C   0  0  0  0  0  0  0  0  0  0  0  0
   -8.4636   11.5746   14.9022 N   0  0  0  0  0  0  0  0  0  0  0  0
  -10.8776   11.8363   15.3542 N   0  0  0  0  0  0  0  0  0  0  0  0
   -9.7755   10.9269   14.5887 C   0  0  0  0  0  0  0  0  0  0  0  0
  -10.2362   15.2723   18.5997 N   0  0  0  0  0  0  0  0  0  0  0  0
   -8.0488   13.2267   16.4805 N   0  0  0  0  0  0  0  0  0  0  0  0
   -8.4040   14.2041   17.4089 C   0  0  0  0  0  0  0  0  0  0  0  0
  1  2  2  0
  1  3  1  0
  3  4  1  0
  4  5  2  0
  3  6  2  0
  5  7  1  0
  6  7  1  0
  2  8  1  0
  4  9  1  0
  2 10  1  0
  9 10  2  0
M  END
>  <ID>  (1) 
conformer_0

$$$$
