
     RDKit          3D

 10 11  0  0  0  0  0  0  0  0999 V2000
  -10.8465   13.4091   17.3635 N   0  0  0  0  0  0  0  0  0  0  0  0
  -10.4018   12.6138   16.4073 C   0  0  0  0  0  0  0  0  0  0  0  0
  -11.1880   11.9088   15.5905 N   0  0  0  0  0  0  0  0  0  0  0  0
  -10.0220   14.1917   18.0338 C   0  0  0  0  0  0  0  0  0  0  0  0
   -8.9877   12.7005   16.0855 C   0  0  0  0  0  0  0  0  0  0  0  0
   -8.3660   11.8855   15.0633 N   0  0  0  0  0  0  0  0  0  0  0  0
   -8.2707   13.5517   16.9202 C   0  0  0  0  0  0  0  0  0  0  0  0
   -7.0308   12.2434   15.3916 C   0  0  0  0  0  0  0  0  0  0  0  0
   -8.7200   14.3536   17.7923 N   0  0  0  0  0  0  0  0  0  0  0  0
   -6.9237   13.2585   16.3668 N   0  0  0  0  0  0  0  0  0  0  0  0
  1  2  1  0
  2  3  1  0
  1  4  2  0
  2  5  2  0
  5  6  1  0
  5  7  1  0
  6  8  2  0
  4  9  1  0
  7  9  1  0
  7 10  2  0
  8 10  1  0
M  END
>  <ID>  (1) 
conformer_0

$$$$
