
     RDKit          3D

  9 10  0  0  0  0  0  0  0  0999 V2000
  -11.1051   12.7407   16.4594 N   0  0  0  0  0  0  0  0  0  0  0  0
  -10.0027   12.5178   15.9218 C   0  0  0  0  0  0  0  0  0  0  0  0
   -8.9656   12.9879   16.5758 N   0  0  0  0  0  0  0  0  0  0  0  0
   -7.6262   12.7631   16.2445 C   0  0  0  0  0  0  0  0  0  0  0  0
   -7.3637   11.9813   15.3964 N   0  0  0  0  0  0  0  0  0  0  0  0
   -9.7327   11.4560   15.0115 C   0  0  0  0  0  0  0  0  0  0  0  0
   -8.3650   11.2637   14.7053 C   0  0  0  0  0  0  0  0  0  0  0  0
   -9.5336   13.8869   17.5209 C   0  0  0  0  0  0  0  0  0  0  0  0
  -10.9299   13.7675   17.4446 C   0  0  0  0  0  0  0  0  0  0  0  0
  1  2  2  0
  2  3  1  0
  3  4  1  0
  4  5  2  0
  2  6  1  0
  5  7  1  0
  6  7  2  0
  3  8  1  0
  1  9  1  0
  8  9  2  0
M  END
>  <ID>  (1) 
conformer_0

$$$$
