
     RDKit          3D

 23 27  0  0  0  0  0  0  0  0999 V2000
  -10.4646   14.6689   18.4989 N   0  0  0  0  0  0  0  0  0  0  0  0
   -9.4379   15.1417   18.7557 C   0  0  0  0  0  0  0  0  0  0  0  0
  -10.6318   13.7690   17.4224 C   0  0  0  0  0  0  0  0  0  0  0  0
   -8.1383   14.9692   18.2272 C   0  0  0  0  0  0  0  0  0  0  0  0
   -6.9455   15.4236   18.4764 N   0  0  0  0  0  0  0  0  0  0  0  0
   -8.2393   13.8955   17.0194 C   0  0  0  0  0  0  0  0  0  0  0  0
   -7.0787   13.5277   16.3837 N   0  0  0  0  0  0  0  0  0  0  0  0
   -5.8515   13.9753   16.8245 C   0  0  0  0  0  0  0  0  0  0  0  0
   -4.6320   13.5389   16.2000 N   0  0  0  0  0  0  0  0  0  0  0  0
  -11.6876   13.1351   16.9869 N   0  0  0  0  0  0  0  0  0  0  0  0
  -11.3381   12.2991   15.9730 C   0  0  0  0  0  0  0  0  0  0  0  0
   -9.3725   13.3713   16.7267 C   0  0  0  0  0  0  0  0  0  0  0  0
   -3.4806   13.8944   16.6529 C   0  0  0  0  0  0  0  0  0  0  0  0
   -6.7379   16.3412   19.4725 C   0  0  0  0  0  0  0  0  0  0  0  0
   -5.7486   14.9225   17.8335 C   0  0  0  0  0  0  0  0  0  0  0  0
   -9.7865   12.4221   15.7720 N   0  0  0  0  0  0  0  0  0  0  0  0
   -4.8243   12.5992   15.1413 C   0  0  0  0  0  0  0  0  0  0  0  0
   -9.1866   11.5798   14.9719 C   0  0  0  0  0  0  0  0  0  0  0  0
   -2.4196   13.3689   16.1458 O   0  0  0  0  0  0  0  0  0  0  0  0
   -2.3571   11.9231   16.2728 C   0  0  0  0  0  0  0  0  0  0  0  0
   -3.6652   11.4924   15.4017 C   0  0  0  0  0  0  0  0  0  0  0  0
   -3.4087   14.9037   17.6079 C   0  0  0  0  0  0  0  0  0  0  0  0
   -4.5408   15.3644   18.2290 C   0  0  0  0  0  0  0  0  0  0  0  0
  1  2  1  0
  1  3  2  0
  2  4  2  0
  4  5  1  0
  4  6  1  0
  6  7  1  0
  7  8  2  0
  8  9  1  0
  3 10  1  0
 10 11  2  0
  3 12  1  0
  6 12  2  0
  9 13  1  0
  5 14  1  0
  5 15  1  0
  8 15  1  0
 11 16  1  0
 12 16  1  0
  9 17  1  0
 16 18  1  0
 13 19  1  0
 19 20  1  0
 17 21  1  0
 20 21  1  0
 13 22  2  0
 15 23  2  0
 22 23  1  0
M  END
>  <ID>  (1) 
conformer_0

$$$$
