
     RDKit          3D

  9 10  0  0  0  0  0  0  0  0999 V2000
  -10.7662   12.0751   15.7552 N   0  0  0  0  0  0  0  0  0  0  0  0
  -10.8253   12.8777   16.7064 C   0  0  0  0  0  0  0  0  0  0  0  0
   -9.4840   13.3442   16.9647 C   0  0  0  0  0  0  0  0  0  0  0  0
   -8.6699   12.6001   16.1755 C   0  0  0  0  0  0  0  0  0  0  0  0
   -9.1535   14.2745   17.9529 C   0  0  0  0  0  0  0  0  0  0  0  0
   -7.7495   14.4236   18.0218 N   0  0  0  0  0  0  0  0  0  0  0  0
   -9.4663   11.7246   15.3400 C   0  0  0  0  0  0  0  0  0  0  0  0
   -7.2740   12.7990   16.2559 C   0  0  0  0  0  0  0  0  0  0  0  0
   -6.8715   13.7264   17.2219 C   0  0  0  0  0  0  0  0  0  0  0  0
  1  2  1  0
  2  3  1  0
  3  4  2  0
  3  5  1  0
  5  6  2  0
  1  7  2  0
  4  7  1  0
  4  8  1  0
  6  9  1  0
  8  9  2  0
M  END
>  <ID>  (1) 
conformer_0

$$$$
