
     RDKit          3D

 17 20  0  0  0  0  0  0  0  0999 V2000
  -10.7171   13.9611   17.6842 N   0  0  0  0  0  0  0  0  0  0  0  0
  -10.4825   13.1075   16.7697 C   0  0  0  0  0  0  0  0  0  0  0  0
   -9.1779   12.8475   16.3229 C   0  0  0  0  0  0  0  0  0  0  0  0
   -9.6122   14.9371   18.0196 C   0  0  0  0  0  0  0  0  0  0  0  0
   -8.1097   13.5269   16.7017 C   0  0  0  0  0  0  0  0  0  0  0  0
   -8.2634   14.6279   17.6387 C   0  0  0  0  0  0  0  0  0  0  0  0
   -9.0236   11.7394   15.3120 C   0  0  0  0  0  0  0  0  0  0  0  0
   -9.7519   15.8016   19.0610 C   0  0  0  0  0  0  0  0  0  0  0  0
   -6.8052   13.2702   16.2194 C   0  0  0  0  0  0  0  0  0  0  0  0
   -7.3821   15.3562   18.1871 N   0  0  0  0  0  0  0  0  0  0  0  0
  -11.4981   12.4092   16.3337 N   0  0  0  0  0  0  0  0  0  0  0  0
   -7.7438   11.3786   14.8698 C   0  0  0  0  0  0  0  0  0  0  0  0
  -10.1377   11.0747   15.0026 C   0  0  0  0  0  0  0  0  0  0  0  0
   -6.6438   12.2119   15.3796 C   0  0  0  0  0  0  0  0  0  0  0  0
  -11.2449   11.3968   15.5142 C   0  0  0  0  0  0  0  0  0  0  0  0
   -7.5651   16.3176   19.0435 C   0  0  0  0  0  0  0  0  0  0  0  0
   -8.7932   16.5679   19.5366 C   0  0  0  0  0  0  0  0  0  0  0  0
  1  2  1  0
  2  3  1  0
  1  4  2  0
  3  5  2  0
  4  6  1  0
  5  6  1  0
  3  7  1  0
  4  8  1  0
  5  9  1  0
  6 10  2  0
  2 11  2  0
  7 12  1  0
  7 13  1  0
  9 14  1  0
 12 14  2  0
 11 15  1  0
 13 15  2  0
 10 16  1  0
  8 17  1  0
 16 17  2  0
M  END
>  <ID>  (1) 
conformer_0

$$$$
