
     RDKit          3D

 25 29  0  0  0  0  0  0  0  0999 V2000
  -10.6520   11.8332   15.6276 N   0  0  0  0  0  0  0  0  0  0  0  0
  -10.7226   12.6416   16.5198 C   0  0  0  0  0  0  0  0  0  0  0  0
   -9.4564   13.2341   16.9184 C   0  0  0  0  0  0  0  0  0  0  0  0
   -8.2670   12.8311   16.3349 C   0  0  0  0  0  0  0  0  0  0  0  0
   -6.9719   13.3188   16.7151 C   0  0  0  0  0  0  0  0  0  0  0  0
   -5.8646   12.5514   16.4235 C   0  0  0  0  0  0  0  0  0  0  0  0
   -9.4547   14.1893   18.0319 C   0  0  0  0  0  0  0  0  0  0  0  0
   -5.7643   11.5348   15.6643 C   0  0  0  0  0  0  0  0  0  0  0  0
   -4.6300   13.1645   16.8867 C   0  0  0  0  0  0  0  0  0  0  0  0
   -4.4712   14.3808   17.6659 C   0  0  0  0  0  0  0  0  0  0  0  0
   -6.8337   10.9721   15.0342 C   0  0  0  0  0  0  0  0  0  0  0  0
   -4.5533   10.8438   15.3641 C   0  0  0  0  0  0  0  0  0  0  0  0
   -8.1944   11.6556   15.4807 C   0  0  0  0  0  0  0  0  0  0  0  0
   -6.8559   14.4732   17.4799 C   0  0  0  0  0  0  0  0  0  0  0  0
   -3.3631   12.4624   16.3815 C   0  0  0  0  0  0  0  0  0  0  0  0
   -5.6872   14.9547   17.9287 C   0  0  0  0  0  0  0  0  0  0  0  0
   -3.3138   11.3155   15.7864 C   0  0  0  0  0  0  0  0  0  0  0  0
   -9.5056   11.1216   14.9654 C   0  0  0  0  0  0  0  0  0  0  0  0
   -9.6314   10.2902   14.1612 O   0  0  0  0  0  0  0  0  0  0  0  0
   -8.1201   15.0304   17.9926 C   0  0  0  0  0  0  0  0  0  0  0  0
   -2.1159   10.5857   15.5440 C   0  0  0  0  0  0  0  0  0  0  0  0
   -1.9972    9.8452   14.5656 O   0  0  0  0  0  0  0  0  0  0  0  0
  -10.4624   15.1515   17.9200 O   0  0  0  0  0  0  0  0  0  0  0  0
   -1.0871   10.7365   16.2357 O   0  0  0  0  0  0  0  0  0  0  0  0
  -11.8272   13.2034   16.9041 O   0  0  0  0  0  0  0  0  0  0  0  0
  1  2  1  0
  2  3  1  0
  3  4  2  0
  4  5  1  0
  5  6  1  0
  3  7  1  0
  6  8  1  0
  6  9  2  0
  9 10  1  0
  8 11  1  0
  8 12  2  0
  4 13  1  0
 11 13  2  0
  5 14  2  0
  9 15  1  0
 10 16  2  0
 14 16  1  0
 12 17  1  0
 15 17  2  0
  1 18  1  0
 13 18  1  0
 18 19  2  0
  7 20  1  0
 14 20  1  0
 17 21  1  0
 21 22  2  0
  7 23  1  0
 21 24  1  0
  2 25  2  0
M  END
>  <ID>  (1) 
conformer_0

$$$$
