
     RDKit          3D

 10 11  0  0  0  0  0  0  0  0999 V2000
  -10.8061   13.8041   17.5750 N   0  0  0  0  0  0  0  0  0  0  0  0
   -9.7984   14.4624   18.1064 C   0  0  0  0  0  0  0  0  0  0  0  0
  -10.3558   13.0103   16.5826 C   0  0  0  0  0  0  0  0  0  0  0  0
   -9.0125   13.1347   16.4291 C   0  0  0  0  0  0  0  0  0  0  0  0
   -8.6197   14.0629   17.3791 N   0  0  0  0  0  0  0  0  0  0  0  0
   -8.3818   12.3185   15.5180 C   0  0  0  0  0  0  0  0  0  0  0  0
   -7.2962   14.4241   17.5181 C   0  0  0  0  0  0  0  0  0  0  0  0
  -11.1185   12.0735   15.8363 N   0  0  0  0  0  0  0  0  0  0  0  0
   -9.2129   11.4273   14.8176 C   0  0  0  0  0  0  0  0  0  0  0  0
  -10.4447   11.2969   14.9651 C   0  0  0  0  0  0  0  0  0  0  0  0
  1  2  2  0
  1  3  1  0
  3  4  1  0
  2  5  1  0
  4  5  1  0
  4  6  2  0
  5  7  1  0
  3  8  2  0
  6  9  1  0
  8 10  1  0
  9 10  2  0
M  END
>  <ID>  (1) 
conformer_0

$$$$
