
     RDKit          3D

  9 10  0  0  0  0  0  0  0  0999 V2000
  -10.2340   11.6958   15.6994 C   0  0  0  0  0  0  0  0  0  0  0  0
   -8.9576   11.7446   15.4504 C   0  0  0  0  0  0  0  0  0  0  0  0
  -10.8416   12.6158   16.4636 N   0  0  0  0  0  0  0  0  0  0  0  0
   -9.8749   13.4648   16.8797 C   0  0  0  0  0  0  0  0  0  0  0  0
   -8.5542   13.0615   16.3344 C   0  0  0  0  0  0  0  0  0  0  0  0
   -7.3633   13.3856   16.3689 N   0  0  0  0  0  0  0  0  0  0  0  0
   -6.6470   12.3924   15.5664 C   0  0  0  0  0  0  0  0  0  0  0  0
  -10.0814   14.5794   17.7569 C   0  0  0  0  0  0  0  0  0  0  0  0
   -7.6512   11.4675   14.9907 N   0  0  0  0  0  0  0  0  0  0  0  0
  1  2  2  0
  1  3  1  0
  3  4  2  0
  2  5  1  0
  4  5  1  0
  5  6  2  0
  6  7  1  0
  4  8  1  0
  2  9  1  0
  7  9  2  0
M  END
>  <ID>  (1) 
conformer_0

$$$$
