
     RDKit          3D

 16 17  0  0  0  0  0  0  0  0999 V2000
  -10.8465   13.4091   17.3635 N   0  0  0  0  0  0  0  0  0  0  0  0
  -10.4018   12.6138   16.4073 C   0  0  0  0  0  0  0  0  0  0  0  0
   -8.9536   12.7186   16.2436 N   0  0  0  0  0  0  0  0  0  0  0  0
   -8.3610   11.7158   15.3526 C   0  0  0  0  0  0  0  0  0  0  0  0
   -8.0290   13.4807   16.7320 C   0  0  0  0  0  0  0  0  0  0  0  0
   -7.0329   11.7187   15.4132 C   0  0  0  0  0  0  0  0  0  0  0  0
   -8.2686   14.5481   17.4750 C   0  0  0  0  0  0  0  0  0  0  0  0
   -7.6124   15.4378   18.2306 C   0  0  0  0  0  0  0  0  0  0  0  0
   -6.6294   13.1857   16.3140 C   0  0  0  0  0  0  0  0  0  0  0  0
  -11.0897   12.0038   15.8226 O   0  0  0  0  0  0  0  0  0  0  0  0
   -5.8996   11.0853   14.7600 C   0  0  0  0  0  0  0  0  0  0  0  0
   -9.8378   14.4737   17.9622 C   0  0  0  0  0  0  0  0  0  0  0  0
  -10.2458   15.2391   18.8040 O   0  0  0  0  0  0  0  0  0  0  0  0
   -4.7690   10.8869   15.5932 C   0  0  0  0  0  0  0  0  0  0  0  0
   -3.7322   11.6558   15.6279 O   0  0  0  0  0  0  0  0  0  0  0  0
   -4.7345    9.8447   16.4305 O   0  0  0  0  0  0  0  0  0  0  0  0
  1  2  1  0
  2  3  1  0
  3  4  1  0
  3  5  1  0
  4  6  2  0
  5  7  2  0
  7  8  1  0
  5  9  1  0
  6  9  1  0
  2 10  2  0
  6 11  1  0
  1 12  1  0
  7 12  1  0
 12 13  2  0
 11 14  1  0
 14 15  1  0
 14 16  2  0
M  END
>  <ID>  (1) 
conformer_0

$$$$
