
     RDKit          3D

 23 26  0  0  0  0  0  0  0  0999 V2000
  -10.6520   11.8332   15.6276 N   0  0  0  0  0  0  0  0  0  0  0  0
  -10.7226   12.6416   16.5198 C   0  0  0  0  0  0  0  0  0  0  0  0
   -9.4564   13.2341   16.9184 C   0  0  0  0  0  0  0  0  0  0  0  0
   -8.2670   12.8311   16.3349 C   0  0  0  0  0  0  0  0  0  0  0  0
   -6.9719   13.3188   16.7151 C   0  0  0  0  0  0  0  0  0  0  0  0
   -5.8646   12.5514   16.4235 C   0  0  0  0  0  0  0  0  0  0  0  0
   -9.4547   14.1893   18.0319 C   0  0  0  0  0  0  0  0  0  0  0  0
   -5.7643   11.5348   15.6643 C   0  0  0  0  0  0  0  0  0  0  0  0
   -4.6300   13.1645   16.8867 C   0  0  0  0  0  0  0  0  0  0  0  0
   -4.4712   14.3808   17.6659 C   0  0  0  0  0  0  0  0  0  0  0  0
   -6.8337   10.9721   15.0342 C   0  0  0  0  0  0  0  0  0  0  0  0
   -3.4043   12.4019   16.6183 C   0  0  0  0  0  0  0  0  0  0  0  0
   -2.2063   12.9252   17.1178 C   0  0  0  0  0  0  0  0  0  0  0  0
   -8.4426   11.8005   15.2567 C   0  0  0  0  0  0  0  0  0  0  0  0
   -3.4437   11.5782   15.6305 C   0  0  0  0  0  0  0  0  0  0  0  0
   -9.5294   11.3034   15.1144 C   0  0  0  0  0  0  0  0  0  0  0  0
   -4.5840   10.9643   15.2354 N   0  0  0  0  0  0  0  0  0  0  0  0
   -2.2121   10.7301   15.2803 C   0  0  0  0  0  0  0  0  0  0  0  0
   -1.1232   10.9093   16.2288 C   0  0  0  0  0  0  0  0  0  0  0  0
  -11.6730   13.0378   17.0260 O   0  0  0  0  0  0  0  0  0  0  0  0
   -9.6536   10.4014   14.1076 O   0  0  0  0  0  0  0  0  0  0  0  0
   -1.0833   12.0874   16.9273 N   0  0  0  0  0  0  0  0  0  0  0  0
   -0.2474   10.2329   16.4713 O   0  0  0  0  0  0  0  0  0  0  0  0
  1  2  1  0
  2  3  1  0
  3  4  2  0
  4  5  1  0
  5  6  1  0
  3  7  1  0
  6  8  1  0
  6  9  2  0
  9 10  1  0
  8 11  1  0
  9 12  1  0
 12 13  1  0
  4 14  1  0
 11 14  1  0
 12 15  2  0
  1 16  1  0
 14 16  1  0
  8 17  2  0
 15 17  1  0
 15 18  1  0
 18 19  1  0
  2 20  2  0
 16 21  2  0
 13 22  1  0
 19 22  1  0
 19 23  2  0
M  END
>  <ID>  (1) 
conformer_0

$$$$
