
     RDKit          3D

 14 16  0  0  0  0  0  0  0  0999 V2000
  -10.6520   11.8332   15.6276 N   0  0  0  0  0  0  0  0  0  0  0  0
  -10.7226   12.6416   16.5198 C   0  0  0  0  0  0  0  0  0  0  0  0
   -9.4564   13.2341   16.9184 C   0  0  0  0  0  0  0  0  0  0  0  0
   -8.2670   12.8311   16.3349 C   0  0  0  0  0  0  0  0  0  0  0  0
   -6.9719   13.3188   16.7151 N   0  0  0  0  0  0  0  0  0  0  0  0
   -9.4321   14.1876   18.0283 C   0  0  0  0  0  0  0  0  0  0  0  0
   -8.2844   11.8328   15.2223 C   0  0  0  0  0  0  0  0  0  0  0  0
   -9.3097   11.3544   14.9444 C   0  0  0  0  0  0  0  0  0  0  0  0
   -7.0947   14.3238   17.5935 C   0  0  0  0  0  0  0  0  0  0  0  0
   -7.0659   11.3998   14.6571 N   0  0  0  0  0  0  0  0  0  0  0  0
   -8.1695   14.7548   18.2514 N   0  0  0  0  0  0  0  0  0  0  0  0
  -11.5659   13.0638   16.9130 O   0  0  0  0  0  0  0  0  0  0  0  0
   -7.3766   10.5298   13.7848 N   0  0  0  0  0  0  0  0  0  0  0  0
   -8.8354   10.4137   13.9620 C   0  0  0  0  0  0  0  0  0  0  0  0
  1  2  1  0
  2  3  1  0
  3  4  2  0
  4  5  1  0
  3  6  1  0
  4  7  1  0
  1  8  1  0
  7  8  1  0
  5  9  2  0
  7 10  2  0
  6 11  2  0
  9 11  1  0
  2 12  2  0
 10 13  1  0
  8 14  2  0
 13 14  1  0
M  END
>  <ID>  (1) 
conformer_0

$$$$
