
     RDKit          3D

 10 11  0  0  0  0  0  0  0  0999 V2000
  -10.6520   11.8332   15.6276 N   0  0  0  0  0  0  0  0  0  0  0  0
  -10.7226   12.6416   16.5198 C   0  0  0  0  0  0  0  0  0  0  0  0
   -9.4564   13.2341   16.9184 C   0  0  0  0  0  0  0  0  0  0  0  0
   -8.2670   12.8311   16.3349 C   0  0  0  0  0  0  0  0  0  0  0  0
   -6.9719   13.3188   16.7151 N   0  0  0  0  0  0  0  0  0  0  0  0
   -9.4321   14.1876   18.0283 C   0  0  0  0  0  0  0  0  0  0  0  0
   -8.2844   11.8328   15.2223 C   0  0  0  0  0  0  0  0  0  0  0  0
   -6.9559   14.3017   17.5032 C   0  0  0  0  0  0  0  0  0  0  0  0
   -8.1141   14.7586   18.2250 C   0  0  0  0  0  0  0  0  0  0  0  0
   -9.4122   11.4214   15.0496 C   0  0  0  0  0  0  0  0  0  0  0  0
  1  2  1  0
  2  3  1  0
  3  4  2  0
  4  5  1  0
  3  6  1  0
  4  7  1  0
  5  8  2  0
  6  9  2  0
  8  9  1  0
  1 10  2  0
  7 10  1  0
M  END
>  <ID>  (1) 
conformer_0

$$$$
