
     RDKit          3D

 22 25  0  0  0  0  0  0  0  0999 V2000
  -10.6520   11.8332   15.6276 N   0  0  0  0  0  0  0  0  0  0  0  0
  -10.7226   12.6416   16.5198 C   0  0  0  0  0  0  0  0  0  0  0  0
   -9.4564   13.2341   16.9184 C   0  0  0  0  0  0  0  0  0  0  0  0
   -8.2670   12.8311   16.3349 C   0  0  0  0  0  0  0  0  0  0  0  0
   -6.9719   13.3188   16.7151 C   0  0  0  0  0  0  0  0  0  0  0  0
   -5.8646   12.5514   16.4235 C   0  0  0  0  0  0  0  0  0  0  0  0
   -9.4547   14.1893   18.0319 C   0  0  0  0  0  0  0  0  0  0  0  0
   -5.7643   11.5348   15.6643 C   0  0  0  0  0  0  0  0  0  0  0  0
   -4.6300   13.1645   16.8867 C   0  0  0  0  0  0  0  0  0  0  0  0
   -4.4712   14.3808   17.6659 C   0  0  0  0  0  0  0  0  0  0  0  0
   -6.8337   10.9721   15.0342 C   0  0  0  0  0  0  0  0  0  0  0  0
   -3.4043   12.4019   16.6183 C   0  0  0  0  0  0  0  0  0  0  0  0
   -2.2063   12.9252   17.1178 C   0  0  0  0  0  0  0  0  0  0  0  0
   -2.1536   14.0683   17.8574 C   0  0  0  0  0  0  0  0  0  0  0  0
   -8.1860   11.6353   15.4822 C   0  0  0  0  0  0  0  0  0  0  0  0
   -4.3577   11.0575   15.5436 N   0  0  0  0  0  0  0  0  0  0  0  0
   -9.5011   11.1787   15.1404 C   0  0  0  0  0  0  0  0  0  0  0  0
   -0.9038   14.5780   18.3437 C   0  0  0  0  0  0  0  0  0  0  0  0
  -10.6958   14.7235   18.1664 O   0  0  0  0  0  0  0  0  0  0  0  0
   -3.2859   11.3624   15.8876 N   0  0  0  0  0  0  0  0  0  0  0  0
   -8.4222   14.6812   18.4977 O   0  0  0  0  0  0  0  0  0  0  0  0
   -3.3451   14.8643   18.1124 C   0  0  0  0  0  0  0  0  0  0  0  0
  1  2  1  0
  2  3  1  0
  3  4  2  0
  4  5  1  0
  5  6  1  0
  3  7  1  0
  6  8  1  0
  6  9  2  0
  9 10  1  0
  8 11  1  0
  9 12  1  0
 12 13  1  0
 13 14  2  0
  4 15  1  0
 11 15  1  0
  8 16  2  0
  1 17  1  0
 15 17  2  0
 14 18  1  0
  7 19  2  0
 12 20  2  0
 16 20  1  0
  7 21  1  0
 10 22  2  0
 14 22  1  0
M  END
>  <ID>  (1) 
conformer_0

$$$$
