
     RDKit          3D

 25 29  0  0  0  0  0  0  0  0999 V2000
  -10.6520   11.8332   15.6276 N   0  0  0  0  0  0  0  0  0  0  0  0
  -10.7226   12.6416   16.5198 C   0  0  0  0  0  0  0  0  0  0  0  0
   -9.4564   13.2341   16.9184 C   0  0  0  0  0  0  0  0  0  0  0  0
   -8.2670   12.8311   16.3349 C   0  0  0  0  0  0  0  0  0  0  0  0
   -6.9719   13.3188   16.7151 C   0  0  0  0  0  0  0  0  0  0  0  0
   -5.8646   12.5514   16.4235 C   0  0  0  0  0  0  0  0  0  0  0  0
   -9.4547   14.1893   18.0319 C   0  0  0  0  0  0  0  0  0  0  0  0
   -5.7643   11.5348   15.6643 C   0  0  0  0  0  0  0  0  0  0  0  0
   -4.6300   13.1645   16.8867 C   0  0  0  0  0  0  0  0  0  0  0  0
   -4.4712   14.3808   17.6659 C   0  0  0  0  0  0  0  0  0  0  0  0
   -6.8337   10.9721   15.0342 C   0  0  0  0  0  0  0  0  0  0  0  0
   -4.5533   10.8438   15.3641 C   0  0  0  0  0  0  0  0  0  0  0  0
   -8.1944   11.6556   15.4807 C   0  0  0  0  0  0  0  0  0  0  0  0
   -6.8559   14.4732   17.4799 C   0  0  0  0  0  0  0  0  0  0  0  0
   -3.3631   12.4624   16.3815 C   0  0  0  0  0  0  0  0  0  0  0  0
   -5.6872   14.9547   17.9287 C   0  0  0  0  0  0  0  0  0  0  0  0
   -3.3138   11.3155   15.7864 C   0  0  0  0  0  0  0  0  0  0  0  0
  -11.6352   13.1907   16.9802 O   0  0  0  0  0  0  0  0  0  0  0  0
   -2.0025   10.5876   15.4460 C   0  0  0  0  0  0  0  0  0  0  0  0
   -9.4947   11.2121   15.0458 C   0  0  0  0  0  0  0  0  0  0  0  0
   -2.0041    9.7346   14.5230 O   0  0  0  0  0  0  0  0  0  0  0  0
   -0.9606   10.9022   15.9918 O   0  0  0  0  0  0  0  0  0  0  0  0
   -8.1910   15.0099   18.0544 C   0  0  0  0  0  0  0  0  0  0  0  0
   -9.7453   10.2705   14.1433 O   0  0  0  0  0  0  0  0  0  0  0  0
   -8.1615   16.0361   18.9408 O   0  0  0  0  0  0  0  0  0  0  0  0
  1  2  1  0
  2  3  1  0
  3  4  2  0
  4  5  1  0
  5  6  1  0
  3  7  1  0
  6  8  1  0
  6  9  2  0
  9 10  1  0
  8 11  1  0
  8 12  2  0
  4 13  1  0
 11 13  2  0
  5 14  2  0
  9 15  1  0
 10 16  2  0
 14 16  1  0
 12 17  1  0
 15 17  2  0
  2 18  2  0
 17 19  1  0
  1 20  1  0
 13 20  1  0
 19 21  2  0
 19 22  1  0
  7 23  1  0
 14 23  1  0
 20 24  2  0
 23 25  1  0
M  END
>  <ID>  (1) 
conformer_0

$$$$
