
     RDKit          3D

 17 20  0  0  0  0  0  0  0  0999 V2000
  -10.8465   13.4091   17.3635 N   0  0  0  0  0  0  0  0  0  0  0  0
  -10.4018   12.6138   16.4073 C   0  0  0  0  0  0  0  0  0  0  0  0
   -8.9536   12.7186   16.2436 N   0  0  0  0  0  0  0  0  0  0  0  0
  -11.0675   11.9297   15.6249 O   0  0  0  0  0  0  0  0  0  0  0  0
   -8.4624   13.6263   17.1184 C   0  0  0  0  0  0  0  0  0  0  0  0
   -7.1123   14.1023   17.1413 N   0  0  0  0  0  0  0  0  0  0  0  0
   -9.5548   14.1676   17.8259 C   0  0  0  0  0  0  0  0  0  0  0  0
   -8.2386   12.0086   15.2200 C   0  0  0  0  0  0  0  0  0  0  0  0
   -6.3069   13.3830   16.1937 C   0  0  0  0  0  0  0  0  0  0  0  0
   -4.9472   13.5680   16.1754 N   0  0  0  0  0  0  0  0  0  0  0  0
   -4.2102   12.4843   15.7016 C   0  0  0  0  0  0  0  0  0  0  0  0
   -9.5842   15.0226   18.9034 C   0  0  0  0  0  0  0  0  0  0  0  0
   -8.5966   11.0117   14.4938 C   0  0  0  0  0  0  0  0  0  0  0  0
   -6.9725   12.4680   15.3322 C   0  0  0  0  0  0  0  0  0  0  0  0
   -5.8941   11.5805   14.6031 C   0  0  0  0  0  0  0  0  0  0  0  0
   -7.3012   10.4258   13.9295 S   0  0  0  0  0  0  0  0  0  0  0  0
   -4.7411   11.6205   14.8259 C   0  0  0  0  0  0  0  0  0  0  0  0
  1  2  1  0
  2  3  1  0
  2  4  2  0
  3  5  1  0
  5  6  1  0
  1  7  1  0
  5  7  2  0
  3  8  1  0
  6  9  2  0
  9 10  1  0
 10 11  1  0
  7 12  1  0
  8 13  2  0
  8 14  1  0
  9 14  1  0
 14 15  2  0
 13 16  1  0
 15 16  1  0
 11 17  2  0
 15 17  1  0
M  END
>  <ID>  (1) 
conformer_0

$$$$
