
     RDKit          3D

 13 14  0  0  0  0  0  0  0  0999 V2000
  -21.9253  -33.8156   38.9095 C   0  0  0  0  0  0  0  0  0  0  0  0
  -22.9455  -33.9227   39.8749 C   0  0  0  0  0  0  0  0  0  0  0  0
  -22.2375  -33.6463   37.6314 N   0  0  0  0  0  0  0  0  0  0  0  0
  -24.2332  -34.0421   39.1543 C   0  0  0  0  0  0  0  0  0  0  0  0
  -24.4319  -33.8938   37.8796 N   0  0  0  0  0  0  0  0  0  0  0  0
  -25.3801  -34.1977   40.1335 C   0  0  0  0  0  0  0  0  0  0  0  0
  -23.3394  -33.6986   37.1431 C   0  0  0  0  0  0  0  0  0  0  0  0
  -25.2271  -33.9330   41.3060 C   0  0  0  0  0  0  0  0  0  0  0  0
  -22.8721  -33.8873   41.2072 N   0  0  0  0  0  0  0  0  0  0  0  0
  -24.0077  -33.9500   41.8968 C   0  0  0  0  0  0  0  0  0  0  0  0
  -23.8689  -33.9365   43.4297 O   0  0  0  0  0  0  0  0  0  0  0  0
  -24.6569  -34.7825   44.0842 C   0  0  0  0  0  0  0  0  0  0  0  0
  -23.5236  -33.6007   35.5647 C   0  0  0  0  0  0  0  0  0  0  0  0
  1  2  2  0
  1  3  1  0
  2  4  1  0
  4  5  2  0
  4  6  1  0
  3  7  2  0
  5  7  1  0
  6  8  2  0
  2  9  1  0
  8 10  1  0
  9 10  2  0
 10 11  1  0
 11 12  1  0
  7 13  1  0
M  END
>  <ID>  (1) 
conformer_0

$$$$
