
     RDKit          3D

 14 15  0  0  0  0  0  0  0  0999 V2000
  -22.7725  -33.7414   40.4262 N   0  0  0  0  0  0  0  0  0  0  0  0
  -24.0392  -33.6064   40.8274 C   0  0  0  0  0  0  0  0  0  0  0  0
  -22.7687  -33.7543   39.0592 C   0  0  0  0  0  0  0  0  0  0  0  0
  -24.8878  -33.7277   39.8463 C   0  0  0  0  0  0  0  0  0  0  0  0
  -24.1316  -33.7514   38.6994 N   0  0  0  0  0  0  0  0  0  0  0  0
  -24.3647  -33.6041   42.2877 C   0  0  0  0  0  0  0  0  0  0  0  0
  -24.4283  -33.8056   37.3074 C   0  0  0  0  0  0  0  0  0  0  0  0
  -21.8241  -33.8171   38.3026 N   0  0  0  0  0  0  0  0  0  0  0  0
  -22.0097  -33.8027   36.8989 C   0  0  0  0  0  0  0  0  0  0  0  0
  -25.6036  -33.7540   36.8607 O   0  0  0  0  0  0  0  0  0  0  0  0
  -23.9041  -34.4931   43.0583 O   0  0  0  0  0  0  0  0  0  0  0  0
  -23.2668  -33.7114   36.3872 C   0  0  0  0  0  0  0  0  0  0  0  0
  -23.4855  -33.7274   34.9176 C   0  0  0  0  0  0  0  0  0  0  0  0
  -25.2614  -32.6952   42.6514 O   0  0  0  0  0  0  0  0  0  0  0  0
  1  2  2  0
  1  3  1  0
  2  4  1  0
  3  5  1  0
  4  5  1  0
  2  6  1  0
  5  7  1  0
  3  8  2  0
  8  9  1  0
  7 10  2  0
  6 11  2  0
  7 12  1  0
  9 12  2  0
 12 13  1  0
  6 14  1  0
M  END
>  <ID>  (1) 
conformer_0

$$$$
