
     RDKit          3D

 13 13  0  0  0  0  0  0  0  0999 V2000
  -21.8112  -33.7619   38.4976 N   0  0  0  0  0  0  0  0  0  0  0  0
  -22.3649  -33.7460   39.6484 C   0  0  0  0  0  0  0  0  0  0  0  0
  -22.3777  -33.7141   37.3293 C   0  0  0  0  0  0  0  0  0  0  0  0
  -23.7823  -33.7724   39.4776 C   0  0  0  0  0  0  0  0  0  0  0  0
  -21.7609  -33.6517   36.0626 N   0  0  0  0  0  0  0  0  0  0  0  0
  -24.5515  -33.7966   40.7918 C   0  0  0  0  0  0  0  0  0  0  0  0
  -24.3064  -34.8326   41.5579 O   0  0  0  0  0  0  0  0  0  0  0  0
  -24.1983  -33.7476   38.1384 C   0  0  0  0  0  0  0  0  0  0  0  0
  -24.6300  -34.6981   43.0368 P   0  0  0  0  0  0  0  0  0  0  0  0
  -23.4894  -34.6716   43.8084 O   0  0  0  0  0  0  0  0  0  0  0  0
  -25.3417  -36.0644   43.4987 O   0  0  0  0  0  0  0  0  0  0  0  0
  -23.6096  -33.7168   37.1332 N   0  0  0  0  0  0  0  0  0  0  0  0
  -25.4918  -33.4884   43.3696 O   0  0  0  0  0  0  0  0  0  0  0  0
  1  2  1  0
  1  3  2  0
  2  4  2  0
  3  5  1  0
  4  6  1  0
  6  7  1  0
  4  8  1  0
  7  9  1  0
  9 10  1  0
  9 11  2  0
  3 12  1  0
  8 12  2  0
  9 13  1  0
M  END
>  <ID>  (1) 
conformer_0

$$$$
