
     RDKit          3D

 13 14  0  0  0  0  0  0  0  0999 V2000
  -22.1577  -33.5678   39.7707 C   0  0  0  0  0  0  0  0  0  0  0  0
  -22.6194  -33.6930   38.5460 C   0  0  0  0  0  0  0  0  0  0  0  0
  -22.0321  -33.4769   37.3165 N   0  0  0  0  0  0  0  0  0  0  0  0
  -23.0383  -33.8100   40.8139 N   0  0  0  0  0  0  0  0  0  0  0  0
  -24.0106  -34.0283   38.6425 C   0  0  0  0  0  0  0  0  0  0  0  0
  -23.0535  -33.7404   36.4779 C   0  0  0  0  0  0  0  0  0  0  0  0
  -24.3852  -34.1157   39.9579 N   0  0  0  0  0  0  0  0  0  0  0  0
  -25.5825  -34.3785   40.5015 C   0  0  0  0  0  0  0  0  0  0  0  0
  -25.3821  -34.4907   41.9389 C   0  0  0  0  0  0  0  0  0  0  0  0
  -24.5495  -34.1704   37.2466 S   0  0  0  0  0  0  0  0  0  0  0  0
  -22.8924  -33.6638   35.0779 N   0  0  0  0  0  0  0  0  0  0  0  0
  -25.9804  -33.7747   42.8053 O   0  0  0  0  0  0  0  0  0  0  0  0
  -24.6252  -35.4482   42.4222 O   0  0  0  0  0  0  0  0  0  0  0  0
  1  2  1  0
  2  3  1  0
  1  4  2  0
  2  5  2  0
  3  6  2  0
  4  7  1  0
  5  7  1  0
  7  8  1  0
  8  9  1  0
  5 10  1  0
  6 10  1  0
  6 11  1  0
  9 12  2  0
  9 13  1  0
M  END
>  <ID>  (1) 
conformer_0

$$$$
