
     RDKit          3D

  9 10  0  0  0  0  0  0  0  0999 V2000
  -21.8758  -33.6729   37.9171 N   0  0  0  0  0  0  0  0  0  0  0  0
  -22.2650  -33.7282   39.1483 C   0  0  0  0  0  0  0  0  0  0  0  0
  -22.8697  -33.6231   36.8065 C   0  0  0  0  0  0  0  0  0  0  0  0
  -24.1737  -33.7411   37.4753 C   0  0  0  0  0  0  0  0  0  0  0  0
  -23.4620  -33.8352   39.6000 N   0  0  0  0  0  0  0  0  0  0  0  0
  -24.4637  -33.8822   38.8316 C   0  0  0  0  0  0  0  0  0  0  0  0
  -25.2227  -33.7399   36.3472 N   0  0  0  0  0  0  0  0  0  0  0  0
  -22.8220  -33.6087   35.5248 C   0  0  0  0  0  0  0  0  0  0  0  0
  -24.2769  -33.4839   35.2379 C   0  0  0  0  0  0  0  0  0  0  0  0
  1  2  1  0
  1  3  2  0
  3  4  1  0
  2  5  2  0
  4  6  2  0
  5  6  1  0
  4  7  1  0
  3  8  1  0
  7  9  1  0
  8  9  2  0
M  END
>  <ID>  (1) 
conformer_0

$$$$
