
     RDKit          3D

 13 14  0  0  0  0  0  0  0  0999 V2000
  -22.0205  -33.6817   38.4177 C   0  0  0  0  0  0  0  0  0  0  0  0
  -22.4639  -33.6105   37.0503 N   0  0  0  0  0  0  0  0  0  0  0  0
  -22.8798  -33.8307   39.4147 C   0  0  0  0  0  0  0  0  0  0  0  0
  -24.2748  -33.9670   38.7385 C   0  0  0  0  0  0  0  0  0  0  0  0
  -25.3235  -34.1300   39.7613 N   0  0  0  0  0  0  0  0  0  0  0  0
  -23.6399  -33.7422   36.6518 C   0  0  0  0  0  0  0  0  0  0  0  0
  -24.5922  -33.9041   37.5498 N   0  0  0  0  0  0  0  0  0  0  0  0
  -25.1531  -34.1953   41.0497 C   0  0  0  0  0  0  0  0  0  0  0  0
  -22.8804  -33.9364   40.8225 N   0  0  0  0  0  0  0  0  0  0  0  0
  -26.2172  -34.3971   42.0182 O   0  0  0  0  0  0  0  0  0  0  0  0
  -23.7845  -34.0690   41.6470 C   0  0  0  0  0  0  0  0  0  0  0  0
  -23.7756  -34.1142   42.9877 O   0  0  0  0  0  0  0  0  0  0  0  0
  -23.9006  -33.6298   35.3248 N   0  0  0  0  0  0  0  0  0  0  0  0
  1  2  1  0
  1  3  2  0
  3  4  1  0
  4  5  1  0
  2  6  2  0
  4  7  2  0
  6  7  1  0
  5  8  2  0
  3  9  1  0
  8 10  1  0
  8 11  1  0
  9 11  2  0
 11 12  1  0
  6 13  1  0
M  END
>  <ID>  (1) 
conformer_0

$$$$
