
     RDKit          3D

 13 14  0  0  0  0  0  0  0  0999 V2000
  -22.7725  -33.7414   40.4262 N   0  0  0  0  0  0  0  0  0  0  0  0
  -22.2842  -33.9938   39.3207 C   0  0  0  0  0  0  0  0  0  0  0  0
  -20.9631  -33.9473   39.1358 N   0  0  0  0  0  0  0  0  0  0  0  0
  -24.0566  -33.7555   40.7750 C   0  0  0  0  0  0  0  0  0  0  0  0
  -23.2205  -34.0700   38.3086 C   0  0  0  0  0  0  0  0  0  0  0  0
  -22.7973  -33.9913   36.8928 C   0  0  0  0  0  0  0  0  0  0  0  0
  -24.8554  -33.9619   39.7607 C   0  0  0  0  0  0  0  0  0  0  0  0
  -26.3668  -33.8388   40.0254 N   0  0  0  0  0  0  0  0  0  0  0  0
  -23.6606  -33.6130   35.9902 N   0  0  0  0  0  0  0  0  0  0  0  0
  -24.5365  -33.9786   38.5389 C   0  0  0  0  0  0  0  0  0  0  0  0
  -24.6680  -33.6229   42.1518 C   0  0  0  0  0  0  0  0  0  0  0  0
  -25.9360  -33.5206   42.3155 C   0  0  0  0  0  0  0  0  0  0  0  0
  -26.7838  -33.6680   41.1749 C   0  0  0  0  0  0  0  0  0  0  0  0
  1  2  2  0
  2  3  1  0
  1  4  1  0
  2  5  1  0
  5  6  1  0
  4  7  2  0
  7  8  1  0
  6  9  1  0
  5 10  2  0
  7 10  1  0
  4 11  1  0
 11 12  2  0
  8 13  2  0
 12 13  1  0
M  END
>  <ID>  (1) 
conformer_0

$$$$
