
     RDKit          3D

 15 16  0  0  0  0  0  0  0  0999 V2000
  -21.8112  -33.7619   38.4976 C   0  0  0  0  0  0  0  0  0  0  0  0
  -22.9427  -33.7762   37.8084 C   0  0  0  0  0  0  0  0  0  0  0  0
  -24.1807  -33.8415   38.4497 C   0  0  0  0  0  0  0  0  0  0  0  0
  -22.9089  -33.9226   36.3919 C   0  0  0  0  0  0  0  0  0  0  0  0
  -22.0212  -34.0972   35.7634 O   0  0  0  0  0  0  0  0  0  0  0  0
  -25.3692  -33.7967   37.7524 N   0  0  0  0  0  0  0  0  0  0  0  0
  -24.2525  -33.9653   39.8559 N   0  0  0  0  0  0  0  0  0  0  0  0
  -21.8684  -33.8797   39.9095 C   0  0  0  0  0  0  0  0  0  0  0  0
  -23.1743  -33.9448   40.5506 C   0  0  0  0  0  0  0  0  0  0  0  0
  -23.3819  -34.0370   42.0000 O   0  0  0  0  0  0  0  0  0  0  0  0
  -24.1886  -33.7391   35.8104 N   0  0  0  0  0  0  0  0  0  0  0  0
  -24.4044  -34.7540   42.4606 C   0  0  0  0  0  0  0  0  0  0  0  0
  -24.9662  -34.2346   43.6753 C   0  0  0  0  0  0  0  0  0  0  0  0
  -25.3186  -33.5279   36.5305 C   0  0  0  0  0  0  0  0  0  0  0  0
  -24.8058  -35.8283   41.9803 O   0  0  0  0  0  0  0  0  0  0  0  0
  1  2  1  0
  2  3  2  0
  2  4  1  0
  4  5  2  0
  3  6  1  0
  3  7  1  0
  1  8  2  0
  7  9  2  0
  8  9  1  0
  9 10  1  0
  4 11  1  0
 10 12  1  0
 12 13  1  0
  6 14  2  0
 11 14  2  0
 12 15  2  0
M  END
>  <ID>  (1) 
conformer_0

$$$$
