
     RDKit          3D

 14 14  0  0  0  0  0  0  0  0999 V2000
  -22.1758  -33.5755   39.2933 C   0  0  0  0  0  0  0  0  0  0  0  0
  -23.2519  -33.8593   40.0027 N   0  0  0  0  0  0  0  0  0  0  0  0
  -24.3541  -34.2320   39.3318 C   0  0  0  0  0  0  0  0  0  0  0  0
  -24.3314  -34.1123   37.9806 N   0  0  0  0  0  0  0  0  0  0  0  0
  -23.2749  -33.8825   41.4808 C   0  0  0  0  0  0  0  0  0  0  0  0
  -24.3992  -34.6262   41.9872 C   0  0  0  0  0  0  0  0  0  0  0  0
  -24.5567  -34.2469   43.4825 C   0  0  0  0  0  0  0  0  0  0  0  0
  -25.0155  -35.1203   44.1943 O   0  0  0  0  0  0  0  0  0  0  0  0
  -24.0854  -33.1801   43.8678 O   0  0  0  0  0  0  0  0  0  0  0  0
  -22.9262  -33.7196   37.6664 C   0  0  0  0  0  0  0  0  0  0  0  0
  -21.9906  -33.5585   38.1681 C   0  0  0  0  0  0  0  0  0  0  0  0
  -22.9011  -33.6667   36.0284 C   0  0  0  0  0  0  0  0  0  0  0  0
  -22.6173  -34.3507   35.2959 O   0  0  0  0  0  0  0  0  0  0  0  0
  -23.2200  -32.4345   35.4600 N   0  0  0  0  0  0  0  0  0  0  0  0
  1  2  1  0
  2  3  1  0
  3  4  2  0
  2  5  1  0
  5  6  1  0
  6  7  1  0
  7  8  2  0
  7  9  1  0
  4 10  1  0
  1 11  1  0
 10 11  2  0
 10 12  1  0
 12 13  2  0
 12 14  1  0
M  END
>  <ID>  (1) 
conformer_0

$$$$
