
     RDKit          3D

 14 15  0  0  0  0  0  0  0  0999 V2000
  -22.0205  -33.6817   38.4177 C   0  0  0  0  0  0  0  0  0  0  0  0
  -23.0091  -33.7270   37.3900 C   0  0  0  0  0  0  0  0  0  0  0  0
  -24.3722  -33.8341   37.8317 C   0  0  0  0  0  0  0  0  0  0  0  0
  -22.7578  -33.4417   36.0326 C   0  0  0  0  0  0  0  0  0  0  0  0
  -22.3642  -33.9357   39.7313 C   0  0  0  0  0  0  0  0  0  0  0  0
  -25.3031  -33.8130   36.8410 N   0  0  0  0  0  0  0  0  0  0  0  0
  -23.7324  -33.3967   35.1791 C   0  0  0  0  0  0  0  0  0  0  0  0
  -23.7680  -34.1517   40.1291 C   0  0  0  0  0  0  0  0  0  0  0  0
  -24.7120  -34.1034   39.1115 C   0  0  0  0  0  0  0  0  0  0  0  0
  -23.4944  -33.1363   33.8386 O   0  0  0  0  0  0  0  0  0  0  0  0
  -24.1622  -34.2425   41.4143 C   0  0  0  0  0  0  0  0  0  0  0  0
  -25.0793  -33.5647   35.6910 C   0  0  0  0  0  0  0  0  0  0  0  0
  -23.7211  -33.9137   42.4295 O   0  0  0  0  0  0  0  0  0  0  0  0
  -25.2154  -35.0727   41.7886 O   0  0  0  0  0  0  0  0  0  0  0  0
  1  2  1  0
  2  3  2  0
  2  4  1  0
  1  5  2  0
  3  6  1  0
  4  7  2  0
  5  8  1  0
  3  9  1  0
  8  9  2  0
  7 10  1  0
  8 11  1  0
  6 12  2  0
  7 12  1  0
 11 13  1  0
 11 14  2  0
M  END
>  <ID>  (1) 
conformer_0

$$$$
