
     RDKit          3D

 13 15  0  0  0  0  0  0  0  0999 V2000
  -21.8112  -33.7619   38.4976 N   0  0  0  0  0  0  0  0  0  0  0  0
  -22.5009  -33.6982   37.4172 C   0  0  0  0  0  0  0  0  0  0  0  0
  -23.8436  -33.7873   37.7368 C   0  0  0  0  0  0  0  0  0  0  0  0
  -24.3557  -33.9034   38.9892 C   0  0  0  0  0  0  0  0  0  0  0  0
  -25.7103  -34.0502   39.3702 N   0  0  0  0  0  0  0  0  0  0  0  0
  -22.1467  -33.8292   39.7428 C   0  0  0  0  0  0  0  0  0  0  0  0
  -24.7829  -33.7450   36.5569 N   0  0  0  0  0  0  0  0  0  0  0  0
  -23.4517  -33.9282   40.0447 C   0  0  0  0  0  0  0  0  0  0  0  0
  -24.0564  -34.0844   41.3425 C   0  0  0  0  0  0  0  0  0  0  0  0
  -26.0755  -34.1786   40.5615 C   0  0  0  0  0  0  0  0  0  0  0  0
  -23.7627  -33.5151   35.6173 C   0  0  0  0  0  0  0  0  0  0  0  0
  -25.2855  -34.1773   41.6028 N   0  0  0  0  0  0  0  0  0  0  0  0
  -22.3908  -33.6178   36.2411 N   0  0  0  0  0  0  0  0  0  0  0  0
  1  2  2  0
  2  3  1  0
  3  4  2  0
  4  5  1  0
  1  6  1  0
  3  7  1  0
  4  8  1  0
  6  8  2  0
  8  9  1  0
  5 10  2  0
  7 11  2  0
  9 12  2  0
 10 12  1  0
  2 13  1  0
 11 13  1  0
M  END
>  <ID>  (1) 
conformer_0

$$$$
