
     RDKit          3D

 12 13  0  0  0  0  0  0  0  0999 V2000
  -22.6732  -33.6036   36.9647 C   0  0  0  0  0  0  0  0  0  0  0  0
  -22.5332  -33.7020   38.1926 C   0  0  0  0  0  0  0  0  0  0  0  0
  -23.8006  -33.9698   38.9875 C   0  0  0  0  0  0  0  0  0  0  0  0
  -24.9633  -33.8295   38.1475 C   0  0  0  0  0  0  0  0  0  0  0  0
  -26.1643  -34.0775   38.9779 N   0  0  0  0  0  0  0  0  0  0  0  0
  -25.6438  -33.8733   40.3152 C   0  0  0  0  0  0  0  0  0  0  0  0
  -26.4441  -34.1223   41.4619 N   0  0  0  0  0  0  0  0  0  0  0  0
  -24.0101  -34.1769   40.3449 C   0  0  0  0  0  0  0  0  0  0  0  0
  -24.9296  -33.6645   36.8318 C   0  0  0  0  0  0  0  0  0  0  0  0
  -23.7158  -33.5050   36.1746 C   0  0  0  0  0  0  0  0  0  0  0  0
  -23.4907  -33.3944   41.3336 O   0  0  0  0  0  0  0  0  0  0  0  0
  -23.6574  -33.2698   34.8988 O   0  0  0  0  0  0  0  0  0  0  0  0
  1  2  1  0
  2  3  2  0
  3  4  1  0
  4  5  1  0
  5  6  2  0
  6  7  1  0
  3  8  1  0
  6  8  1  0
  4  9  2  0
  1 10  2  0
  9 10  1  0
  8 11  1  0
 10 12  1  0
M  END
>  <ID>  (1) 
conformer_0

$$$$
