
     RDKit          3D

  8  8  0  0  0  0  0  0  0  0999 V2000
  -24.1502  -33.8208   36.1259 C   0  0  0  0  0  0  0  0  0  0  0  0
  -23.6685  -33.8453   37.3570 C   0  0  0  0  0  0  0  0  0  0  0  0
  -24.2719  -33.9690   38.5625 C   0  0  0  0  0  0  0  0  0  0  0  0
  -23.3042  -33.9183   39.6662 N   0  0  0  0  0  0  0  0  0  0  0  0
  -22.1977  -33.6209   37.4005 C   0  0  0  0  0  0  0  0  0  0  0  0
  -25.4519  -33.9342   35.9079 O   0  0  0  0  0  0  0  0  0  0  0  0
  -23.3976  -33.6128   35.0138 N   0  0  0  0  0  0  0  0  0  0  0  0
  -21.9417  -33.7203   38.9386 C   0  0  0  0  0  0  0  0  0  0  0  0
  1  2  1  0
  2  3  1  0
  3  4  2  0
  2  5  2  0
  1  6  2  0
  1  7  1  0
  4  8  1  0
  5  8  1  0
M  END
>  <ID>  (1) 
conformer_0

$$$$
