
     RDKit          3D

 15 16  0  0  0  0  0  0  0  0999 V2000
  -22.1758  -33.5755   39.2933 C   0  0  0  0  0  0  0  0  0  0  0  0
  -22.7766  -33.6341   38.0208 C   0  0  0  0  0  0  0  0  0  0  0  0
  -22.1400  -33.5885   36.8554 N   0  0  0  0  0  0  0  0  0  0  0  0
  -22.9681  -33.6953   40.4889 C   0  0  0  0  0  0  0  0  0  0  0  0
  -24.2282  -34.0943   40.5025 C   0  0  0  0  0  0  0  0  0  0  0  0
  -22.7239  -33.7193   35.6822 C   0  0  0  0  0  0  0  0  0  0  0  0
  -24.8727  -34.1806   39.2299 C   0  0  0  0  0  0  0  0  0  0  0  0
  -22.0316  -33.5200   34.5370 N   0  0  0  0  0  0  0  0  0  0  0  0
  -25.0012  -34.2164   41.6682 C   0  0  0  0  0  0  0  0  0  0  0  0
  -24.3924  -35.0534   42.5689 O   0  0  0  0  0  0  0  0  0  0  0  0
  -25.9534  -33.5354   42.0934 O   0  0  0  0  0  0  0  0  0  0  0  0
  -24.0647  -34.0152   38.0581 C   0  0  0  0  0  0  0  0  0  0  0  0
  -24.1246  -34.0109   35.7792 C   0  0  0  0  0  0  0  0  0  0  0  0
  -24.7601  -34.1387   36.8653 C   0  0  0  0  0  0  0  0  0  0  0  0
  -24.5347  -34.9977   44.0635 C   0  0  0  0  0  0  0  0  0  0  0  0
  1  2  1  0
  2  3  1  0
  1  4  2  0
  4  5  1  0
  3  6  2  0
  5  7  2  0
  6  8  1  0
  5  9  1  0
  9 10  1  0
  9 11  2  0
  2 12  2  0
  7 12  1  0
  6 13  1  0
 12 14  1  0
 13 14  2  0
 10 15  1  0
M  END
>  <ID>  (1) 
conformer_0

$$$$
