
     RDKit          3D

 13 14  0  0  0  0  0  0  0  0999 V2000
  -22.4171  -33.6772   36.6607 N   0  0  0  0  0  0  0  0  0  0  0  0
  -23.3274  -33.6502   35.8275 C   0  0  0  0  0  0  0  0  0  0  0  0
  -22.5334  -33.7959   38.0886 C   0  0  0  0  0  0  0  0  0  0  0  0
  -24.0759  -33.7822   38.2615 C   0  0  0  0  0  0  0  0  0  0  0  0
  -24.6129  -33.6982   36.7002 N   0  0  0  0  0  0  0  0  0  0  0  0
  -24.7689  -33.8921   39.2624 C   0  0  0  0  0  0  0  0  0  0  0  0
  -24.0289  -34.0003   40.4875 C   0  0  0  0  0  0  0  0  0  0  0  0
  -21.9589  -33.8885   39.2101 C   0  0  0  0  0  0  0  0  0  0  0  0
  -24.7047  -34.1223   41.7479 C   0  0  0  0  0  0  0  0  0  0  0  0
  -25.8330  -33.7618   41.9516 O   0  0  0  0  0  0  0  0  0  0  0  0
  -24.0414  -34.6065   42.7468 O   0  0  0  0  0  0  0  0  0  0  0  0
  -22.5603  -33.9698   40.4110 C   0  0  0  0  0  0  0  0  0  0  0  0
  -23.3868  -33.5319   34.6374 O   0  0  0  0  0  0  0  0  0  0  0  0
  1  2  1  0
  1  3  2  0
  3  4  1  0
  2  5  1  0
  4  5  1  0
  4  6  2  0
  6  7  1  0
  3  8  1  0
  7  9  1  0
  9 10  2  0
  9 11  1  0
  7 12  2  0
  8 12  1  0
  2 13  2  0
M  END
>  <ID>  (1) 
conformer_0

$$$$
