
     RDKit          3D

 10 11  0  0  0  0  0  0  0  0999 V2000
  -22.6732  -33.6036   36.9647 C   0  0  0  0  0  0  0  0  0  0  0  0
  -22.5332  -33.7020   38.1926 C   0  0  0  0  0  0  0  0  0  0  0  0
  -23.8784  -33.6271   36.2368 C   0  0  0  0  0  0  0  0  0  0  0  0
  -25.0719  -33.7841   36.9560 C   0  0  0  0  0  0  0  0  0  0  0  0
  -21.4714  -33.8386   39.0056 N   0  0  0  0  0  0  0  0  0  0  0  0
  -22.0452  -33.9685   40.3882 C   0  0  0  0  0  0  0  0  0  0  0  0
  -24.8842  -33.7510   38.3798 N   0  0  0  0  0  0  0  0  0  0  0  0
  -23.9199  -33.4449   34.8664 O   0  0  0  0  0  0  0  0  0  0  0  0
  -23.2382  -33.9169   40.6432 N   0  0  0  0  0  0  0  0  0  0  0  0
  -23.7219  -33.8046   39.0823 C   0  0  0  0  0  0  0  0  0  0  0  0
  1  2  1  0
  1  3  2  0
  3  4  1  0
  2  5  2  0
  5  6  1  0
  4  7  2  0
  3  8  1  0
  6  9  2  0
  2 10  1  0
  7 10  1  0
  9 10  1  0
M  END
>  <ID>  (1) 
conformer_0

$$$$
