
     RDKit          3D

 12 13  0  0  0  0  0  0  0  0999 V2000
  -21.8558  -33.6073   38.4303 C   0  0  0  0  0  0  0  0  0  0  0  0
  -22.4931  -33.6021   37.1895 N   0  0  0  0  0  0  0  0  0  0  0  0
  -22.4911  -33.8247   39.5647 C   0  0  0  0  0  0  0  0  0  0  0  0
  -21.9910  -33.5195   35.9408 N   0  0  0  0  0  0  0  0  0  0  0  0
  -23.9461  -34.0026   39.3223 C   0  0  0  0  0  0  0  0  0  0  0  0
  -24.7571  -34.2925   40.4939 C   0  0  0  0  0  0  0  0  0  0  0  0
  -25.8189  -33.7584   40.6714 O   0  0  0  0  0  0  0  0  0  0  0  0
  -24.5298  -33.9807   38.1316 N   0  0  0  0  0  0  0  0  0  0  0  0
  -24.2444  -35.1217   41.4317 O   0  0  0  0  0  0  0  0  0  0  0  0
  -23.7839  -33.7717   37.1201 C   0  0  0  0  0  0  0  0  0  0  0  0
  -22.9087  -33.4555   35.0501 C   0  0  0  0  0  0  0  0  0  0  0  0
  -24.1339  -33.6660   35.7679 C   0  0  0  0  0  0  0  0  0  0  0  0
  1  2  1  0
  1  3  2  0
  2  4  1  0
  3  5  1  0
  5  6  1  0
  6  7  1  0
  5  8  2  0
  6  9  2  0
  2 10  1  0
  8 10  1  0
  4 11  2  0
 10 12  2  0
 11 12  1  0
M  END
>  <ID>  (1) 
conformer_0

$$$$
