
     RDKit          3D

 11 12  0  0  0  0  0  0  0  0999 V2000
  -21.8558  -33.6073   38.4303 N   0  0  0  0  0  0  0  0  0  0  0  0
  -22.3569  -33.6807   39.6116 C   0  0  0  0  0  0  0  0  0  0  0  0
  -22.6104  -33.6722   37.3108 C   0  0  0  0  0  0  0  0  0  0  0  0
  -23.9552  -33.8418   37.3543 C   0  0  0  0  0  0  0  0  0  0  0  0
  -24.7322  -33.8200   36.1802 N   0  0  0  0  0  0  0  0  0  0  0  0
  -24.4915  -33.8424   38.7064 C   0  0  0  0  0  0  0  0  0  0  0  0
  -24.2413  -32.9191   35.3809 C   0  0  0  0  0  0  0  0  0  0  0  0
  -25.8754  -34.0728   38.9361 N   0  0  0  0  0  0  0  0  0  0  0  0
  -23.7100  -33.8294   39.8240 N   0  0  0  0  0  0  0  0  0  0  0  0
  -22.0573  -33.2641   36.1271 N   0  0  0  0  0  0  0  0  0  0  0  0
  -22.8593  -33.0401   35.0926 C   0  0  0  0  0  0  0  0  0  0  0  0
  1  2  2  0
  1  3  1  0
  3  4  2  0
  4  5  1  0
  4  6  1  0
  5  7  2  0
  6  8  1  0
  2  9  1  0
  6  9  2  0
  3 10  1  0
  7 11  1  0
 10 11  2  0
M  END
>  <ID>  (1) 
conformer_0

$$$$
