
     RDKit          3D

 14 15  0  0  0  0  0  0  0  0999 V2000
  -22.2475  -33.6469   36.6196 N   0  0  0  0  0  0  0  0  0  0  0  0
  -22.5181  -33.7307   37.9486 C   0  0  0  0  0  0  0  0  0  0  0  0
  -23.9766  -33.9117   38.0499 C   0  0  0  0  0  0  0  0  0  0  0  0
  -22.1229  -33.7283   39.2325 C   0  0  0  0  0  0  0  0  0  0  0  0
  -22.6644  -33.8439   40.3967 C   0  0  0  0  0  0  0  0  0  0  0  0
  -24.5015  -33.7926   36.7441 N   0  0  0  0  0  0  0  0  0  0  0  0
  -24.0183  -33.9352   40.3621 N   0  0  0  0  0  0  0  0  0  0  0  0
  -23.2990  -33.6346   35.8000 C   0  0  0  0  0  0  0  0  0  0  0  0
  -24.6875  -33.9360   39.1849 C   0  0  0  0  0  0  0  0  0  0  0  0
  -24.6724  -34.0798   41.6892 C   0  0  0  0  0  0  0  0  0  0  0  0
  -24.3400  -34.9404   42.5181 C   0  0  0  0  0  0  0  0  0  0  0  0
  -23.7767  -34.9302   43.5078 O   0  0  0  0  0  0  0  0  0  0  0  0
  -24.8973  -36.1819   42.2664 O   0  0  0  0  0  0  0  0  0  0  0  0
  -23.2304  -33.5602   34.4460 C   0  0  0  0  0  0  0  0  0  0  0  0
  1  2  1  0
  2  3  2  0
  2  4  1  0
  4  5  2  0
  3  6  1  0
  5  7  1  0
  1  8  2  0
  6  8  1  0
  3  9  1  0
  7  9  1  0
  7 10  1  0
 10 11  1  0
 11 12  1  0
 11 13  2  0
  8 14  1  0
M  END
>  <ID>  (1) 
conformer_0

$$$$
