
     RDKit          3D

 14 14  0  0  0  0  0  0  0  0999 V2000
  -22.0205  -33.6817   38.4177 C   0  0  0  0  0  0  0  0  0  0  0  0
  -22.7479  -33.8065   39.4879 C   0  0  0  0  0  0  0  0  0  0  0  0
  -24.0714  -33.9443   39.2530 C   0  0  0  0  0  0  0  0  0  0  0  0
  -25.0576  -34.0246   40.4092 C   0  0  0  0  0  0  0  0  0  0  0  0
  -24.6332  -33.8978   37.9460 C   0  0  0  0  0  0  0  0  0  0  0  0
  -24.5747  -34.4845   41.5291 N   0  0  0  0  0  0  0  0  0  0  0  0
  -26.0057  -33.1668   40.3847 O   0  0  0  0  0  0  0  0  0  0  0  0
  -25.4488  -34.6259   42.7062 C   0  0  0  0  0  0  0  0  0  0  0  0
  -23.6895  -33.7680   36.9191 C   0  0  0  0  0  0  0  0  0  0  0  0
  -25.1533  -35.4755   43.6033 C   0  0  0  0  0  0  0  0  0  0  0  0
  -22.3895  -33.6730   37.1207 N   0  0  0  0  0  0  0  0  0  0  0  0
  -24.2574  -33.6587   35.5556 C   0  0  0  0  0  0  0  0  0  0  0  0
  -25.9153  -36.4550   43.8883 O   0  0  0  0  0  0  0  0  0  0  0  0
  -24.0118  -35.4102   44.3277 O   0  0  0  0  0  0  0  0  0  0  0  0
  1  2  1  0
  2  3  2  0
  3  4  1  0
  3  5  1  0
  4  6  1  0
  4  7  2  0
  6  8  1  0
  5  9  2  0
  8 10  1  0
  1 11  2  0
  9 11  1  0
  9 12  1  0
 10 13  2  0
 10 14  1  0
M  END
>  <ID>  (1) 
conformer_0

$$$$
