
     RDKit          3D

 10 11  0  0  0  0  0  0  0  0999 V2000
  -22.2064  -33.8334   36.8180 N   0  0  0  0  0  0  0  0  0  0  0  0
  -23.1395  -33.7260   35.9152 C   0  0  0  0  0  0  0  0  0  0  0  0
  -24.4819  -33.6737   36.2310 N   0  0  0  0  0  0  0  0  0  0  0  0
  -22.8146  -33.5259   34.6063 N   0  0  0  0  0  0  0  0  0  0  0  0
  -22.9049  -33.9226   38.1083 C   0  0  0  0  0  0  0  0  0  0  0  0
  -22.4172  -34.0871   39.3734 C   0  0  0  0  0  0  0  0  0  0  0  0
  -24.2678  -33.8778   37.7012 C   0  0  0  0  0  0  0  0  0  0  0  0
  -23.3547  -34.0497   40.3880 C   0  0  0  0  0  0  0  0  0  0  0  0
  -25.1790  -33.8984   38.8401 C   0  0  0  0  0  0  0  0  0  0  0  0
  -24.7032  -33.9505   40.0578 C   0  0  0  0  0  0  0  0  0  0  0  0
  1  2  2  0
  2  3  1  0
  2  4  1  0
  1  5  1  0
  5  6  2  0
  3  7  2  0
  5  7  1  0
  6  8  1  0
  7  9  1  0
  8 10  2  0
  9 10  2  0
M  END
>  <ID>  (1) 
conformer_0

$$$$
