
     RDKit          3D

 13 13  0  0  0  0  0  0  0  0999 V2000
  -22.0135  -33.6904   38.0585 C   0  0  0  0  0  0  0  0  0  0  0  0
  -22.5554  -33.8024   39.2746 C   0  0  0  0  0  0  0  0  0  0  0  0
  -22.7025  -33.7224   36.8446 C   0  0  0  0  0  0  0  0  0  0  0  0
  -24.0965  -33.8896   36.9238 C   0  0  0  0  0  0  0  0  0  0  0  0
  -23.9641  -33.9411   39.2824 C   0  0  0  0  0  0  0  0  0  0  0  0
  -24.6973  -34.0393   40.5403 C   0  0  0  0  0  0  0  0  0  0  0  0
  -24.0584  -34.6057   41.6080 N   0  0  0  0  0  0  0  0  0  0  0  0
  -24.6976  -35.0572   42.7658 C   0  0  0  0  0  0  0  0  0  0  0  0
  -22.2042  -33.6296   35.6115 O   0  0  0  0  0  0  0  0  0  0  0  0
  -25.4946  -33.1230   40.9515 O   0  0  0  0  0  0  0  0  0  0  0  0
  -24.0343  -35.1628   43.8386 O   0  0  0  0  0  0  0  0  0  0  0  0
  -24.7067  -33.8782   38.1708 C   0  0  0  0  0  0  0  0  0  0  0  0
  -25.9681  -35.4530   42.7346 O   0  0  0  0  0  0  0  0  0  0  0  0
  1  2  1  0
  1  3  2  0
  3  4  1  0
  2  5  2  0
  5  6  1  0
  6  7  1  0
  7  8  1  0
  3  9  1  0
  6 10  2  0
  8 11  2  0
  4 12  2  0
  5 12  1  0
  8 13  1  0
M  END
>  <ID>  (1) 
conformer_0

$$$$
