
     RDKit          3D

 12 12  0  0  0  0  0  0  0  0999 V2000
  -22.0135  -33.6904   38.0585 C   0  0  0  0  0  0  0  0  0  0  0  0
  -22.5554  -33.8024   39.2746 C   0  0  0  0  0  0  0  0  0  0  0  0
  -22.7025  -33.7224   36.8446 C   0  0  0  0  0  0  0  0  0  0  0  0
  -24.0965  -33.8896   36.9238 C   0  0  0  0  0  0  0  0  0  0  0  0
  -23.9641  -33.9411   39.2824 C   0  0  0  0  0  0  0  0  0  0  0  0
  -24.6973  -34.0393   40.5403 C   0  0  0  0  0  0  0  0  0  0  0  0
  -24.0584  -34.6057   41.6080 N   0  0  0  0  0  0  0  0  0  0  0  0
  -24.6976  -35.0572   42.7658 C   0  0  0  0  0  0  0  0  0  0  0  0
  -25.8892  -35.0617   42.7175 O   0  0  0  0  0  0  0  0  0  0  0  0
  -23.9457  -34.9315   43.9407 O   0  0  0  0  0  0  0  0  0  0  0  0
  -22.1789  -33.6310   35.6297 N   0  0  0  0  0  0  0  0  0  0  0  0
  -24.6313  -33.8674   38.1357 C   0  0  0  0  0  0  0  0  0  0  0  0
  1  2  1  0
  1  3  2  0
  3  4  1  0
  2  5  2  0
  5  6  1  0
  6  7  1  0
  7  8  1  0
  8  9  2  0
  8 10  1  0
  3 11  1  0
  4 12  2  0
  5 12  1  0
M  END
>  <ID>  (1) 
conformer_0

$$$$
