
     RDKit          3D

 14 15  0  0  0  0  0  0  0  0999 V2000
  -22.4171  -33.6772   36.6607 N   0  0  0  0  0  0  0  0  0  0  0  0
  -22.5567  -33.7751   38.0066 C   0  0  0  0  0  0  0  0  0  0  0  0
  -23.9701  -33.8793   38.3361 C   0  0  0  0  0  0  0  0  0  0  0  0
  -24.7382  -33.6349   37.1248 N   0  0  0  0  0  0  0  0  0  0  0  0
  -21.8475  -33.9669   39.1705 C   0  0  0  0  0  0  0  0  0  0  0  0
  -22.2836  -34.0465   40.3622 C   0  0  0  0  0  0  0  0  0  0  0  0
  -24.4984  -34.0956   39.5703 C   0  0  0  0  0  0  0  0  0  0  0  0
  -23.6495  -34.0571   40.6668 C   0  0  0  0  0  0  0  0  0  0  0  0
  -24.0762  -34.1821   42.0319 C   0  0  0  0  0  0  0  0  0  0  0  0
  -23.7639  -33.6651   42.9389 O   0  0  0  0  0  0  0  0  0  0  0  0
  -23.6843  -33.5922   36.1459 C   0  0  0  0  0  0  0  0  0  0  0  0
  -25.2944  -34.9068   42.2041 N   0  0  0  0  0  0  0  0  0  0  0  0
  -23.9252  -33.2634   34.8093 N   0  0  0  0  0  0  0  0  0  0  0  0
  -25.8196  -35.1635   43.3802 O   0  0  0  0  0  0  0  0  0  0  0  0
  1  2  1  0
  2  3  2  0
  3  4  1  0
  2  5  1  0
  5  6  2  0
  3  7  1  0
  6  8  1  0
  7  8  2  0
  8  9  1  0
  9 10  2  0
  1 11  2  0
  4 11  1  0
  9 12  1  0
 11 13  1  0
 12 14  1  0
M  END
>  <ID>  (1) 
conformer_0

$$$$
