
     RDKit          3D

 10 11  0  0  0  0  0  0  0  0999 V2000
  -22.0205  -33.6817   38.4177 C   0  0  0  0  0  0  0  0  0  0  0  0
  -22.4639  -33.6105   37.0503 N   0  0  0  0  0  0  0  0  0  0  0  0
  -23.8624  -33.7127   37.0518 C   0  0  0  0  0  0  0  0  0  0  0  0
  -24.2743  -33.8533   38.5190 N   0  0  0  0  0  0  0  0  0  0  0  0
  -23.1024  -33.8385   39.2317 C   0  0  0  0  0  0  0  0  0  0  0  0
  -25.5491  -33.9242   38.9374 C   0  0  0  0  0  0  0  0  0  0  0  0
  -23.5222  -33.9690   40.6025 C   0  0  0  0  0  0  0  0  0  0  0  0
  -22.7644  -33.9930   41.6222 O   0  0  0  0  0  0  0  0  0  0  0  0
  -24.9472  -33.9906   40.4781 N   0  0  0  0  0  0  0  0  0  0  0  0
  -24.6254  -33.6357   35.9690 N   0  0  0  0  0  0  0  0  0  0  0  0
  1  2  1  0
  2  3  2  0
  3  4  1  0
  1  5  2  0
  4  5  1  0
  4  6  1  0
  5  7  1  0
  7  8  2  0
  6  9  2  0
  7  9  1  0
  3 10  1  0
M  END
>  <ID>  (1) 
conformer_0

$$$$
