
     RDKit          3D

  6  6  0  0  0  0  0  0  0  0999 V2000
  -22.2475  -33.6469   36.6196 N   0  0  0  0  0  0  0  0  0  0  0  0
  -22.5181  -33.7307   37.9486 C   0  0  0  0  0  0  0  0  0  0  0  0
  -23.9766  -33.9117   38.0499 N   0  0  0  0  0  0  0  0  0  0  0  0
  -24.3436  -33.7563   36.6750 C   0  0  0  0  0  0  0  0  0  0  0  0
  -21.8496  -33.8869   39.0650 C   0  0  0  0  0  0  0  0  0  0  0  0
  -23.2788  -33.5531   35.8852 C   0  0  0  0  0  0  0  0  0  0  0  0
  1  2  1  0
  2  3  2  0
  3  4  1  0
  2  5  1  0
  1  6  2  0
  4  6  2  0
M  END
>  <ID>  (1) 
conformer_0

$$$$
