
     RDKit          3D

 14 16  0  0  0  0  0  0  0  0999 V2000
  -21.8558  -33.6073   38.4303 C   0  0  0  0  0  0  0  0  0  0  0  0
  -22.9791  -33.7347   37.6723 C   0  0  0  0  0  0  0  0  0  0  0  0
  -24.2288  -33.8773   38.2998 C   0  0  0  0  0  0  0  0  0  0  0  0
  -25.3941  -33.8426   37.4964 N   0  0  0  0  0  0  0  0  0  0  0  0
  -24.6809  -33.5712   36.2401 C   0  0  0  0  0  0  0  0  0  0  0  0
  -24.4535  -34.1398   39.7068 C   0  0  0  0  0  0  0  0  0  0  0  0
  -21.9047  -33.8921   39.8983 C   0  0  0  0  0  0  0  0  0  0  0  0
  -25.6129  -34.2873   40.3575 N   0  0  0  0  0  0  0  0  0  0  0  0
  -23.2328  -34.0167   40.4554 C   0  0  0  0  0  0  0  0  0  0  0  0
  -23.5902  -34.2124   41.8128 N   0  0  0  0  0  0  0  0  0  0  0  0
  -23.1405  -33.5535   36.2611 C   0  0  0  0  0  0  0  0  0  0  0  0
  -25.0092  -34.2545   41.7506 C   0  0  0  0  0  0  0  0  0  0  0  0
  -25.7839  -34.4467   42.9528 N   0  0  0  0  0  0  0  0  0  0  0  0
  -22.4478  -33.3039   35.5054 O   0  0  0  0  0  0  0  0  0  0  0  0
  1  2  1  0
  2  3  2  0
  3  4  1  0
  4  5  2  0
  3  6  1  0
  1  7  2  0
  6  8  1  0
  6  9  2  0
  7  9  1  0
  9 10  1  0
  2 11  1  0
  5 11  1  0
  8 12  2  0
 10 12  1  0
 12 13  1  0
 11 14  2  0
M  END
>  <ID>  (1) 
conformer_0

$$$$
