
     RDKit          3D

 15 16  0  0  0  0  0  0  0  0999 V2000
  -22.4751  -33.3533   37.5024 C   0  0  0  0  0  0  0  0  0  0  0  0
  -23.6469  -33.6513   36.8746 C   0  0  0  0  0  0  0  0  0  0  0  0
  -24.7251  -33.9156   37.6956 N   0  0  0  0  0  0  0  0  0  0  0  0
  -24.1020  -34.0899   38.9733 C   0  0  0  0  0  0  0  0  0  0  0  0
  -22.7084  -33.7234   38.9806 C   0  0  0  0  0  0  0  0  0  0  0  0
  -23.7779  -33.4301   35.4557 C   0  0  0  0  0  0  0  0  0  0  0  0
  -24.7274  -34.3742   40.1996 C   0  0  0  0  0  0  0  0  0  0  0  0
  -24.0266  -34.3233   41.3718 C   0  0  0  0  0  0  0  0  0  0  0  0
  -22.6801  -33.9708   41.2850 N   0  0  0  0  0  0  0  0  0  0  0  0
  -22.0560  -33.6646   40.1569 C   0  0  0  0  0  0  0  0  0  0  0  0
  -22.8490  -33.6161   34.6865 O   0  0  0  0  0  0  0  0  0  0  0  0
  -24.6648  -34.6625   42.6453 C   0  0  0  0  0  0  0  0  0  0  0  0
  -24.0333  -35.3049   43.4539 O   0  0  0  0  0  0  0  0  0  0  0  0
  -24.7874  -32.7931   34.9767 O   0  0  0  0  0  0  0  0  0  0  0  0
  -25.8707  -34.2788   42.8406 O   0  0  0  0  0  0  0  0  0  0  0  0
  1  2  1  0
  2  3  2  0
  3  4  1  0
  1  5  1  0
  4  5  1  0
  2  6  1  0
  4  7  2  0
  7  8  1  0
  8  9  2  0
  5 10  2  0
  9 10  1  0
  6 11  2  0
  8 12  1  0
 12 13  2  0
  6 14  1  0
 12 15  1  0
M  END
>  <ID>  (1) 
conformer_0

$$$$
