
     RDKit          3D

 15 16  0  0  0  0  0  0  0  0999 V2000
  -21.8558  -33.6073   38.4303 N   0  0  0  0  0  0  0  0  0  0  0  0
  -22.3569  -33.6807   39.6116 C   0  0  0  0  0  0  0  0  0  0  0  0
  -22.6104  -33.6722   37.3108 C   0  0  0  0  0  0  0  0  0  0  0  0
  -23.9552  -33.8418   37.3543 C   0  0  0  0  0  0  0  0  0  0  0  0
  -22.1410  -33.5963   35.9099 N   0  0  0  0  0  0  0  0  0  0  0  0
  -23.7905  -33.8642   39.7058 N   0  0  0  0  0  0  0  0  0  0  0  0
  -24.4929  -33.8962   38.6904 C   0  0  0  0  0  0  0  0  0  0  0  0
  -24.4636  -33.7483   36.0993 N   0  0  0  0  0  0  0  0  0  0  0  0
  -24.3282  -34.0724   41.0544 C   0  0  0  0  0  0  0  0  0  0  0  0
  -23.6558  -34.3334   42.1498 O   0  0  0  0  0  0  0  0  0  0  0  0
  -23.3695  -33.6714   35.3164 C   0  0  0  0  0  0  0  0  0  0  0  0
  -24.3128  -34.0143   43.5003 C   0  0  0  0  0  0  0  0  0  0  0  0
  -24.3695  -35.1599   44.1805 C   0  0  0  0  0  0  0  0  0  0  0  0
  -25.8808  -34.2097   38.9425 O   0  0  0  0  0  0  0  0  0  0  0  0
  -25.5193  -35.7509   44.1657 O   0  0  0  0  0  0  0  0  0  0  0  0
  1  2  2  0
  1  3  1  0
  3  4  2  0
  3  5  1  0
  2  6  1  0
  4  7  1  0
  6  7  1  0
  4  8  1  0
  6  9  1  0
  9 10  1  0
  5 11  1  0
  8 11  2  0
 10 12  1  0
 12 13  1  0
  7 14  2  0
 13 15  1  0
M  END
>  <ID>  (1) 
conformer_0

$$$$
