
     RDKit          3D

 14 15  0  0  0  0  0  0  0  0999 V2000
  -22.2475  -33.6469   36.6196 N   0  0  0  0  0  0  0  0  0  0  0  0
  -22.5181  -33.7307   37.9486 C   0  0  0  0  0  0  0  0  0  0  0  0
  -23.9766  -33.9117   38.0499 C   0  0  0  0  0  0  0  0  0  0  0  0
  -21.9585  -33.9083   39.1145 C   0  0  0  0  0  0  0  0  0  0  0  0
  -24.6877  -33.5493   36.8395 N   0  0  0  0  0  0  0  0  0  0  0  0
  -24.5959  -34.2404   39.2698 C   0  0  0  0  0  0  0  0  0  0  0  0
  -22.4516  -34.0742   40.3007 C   0  0  0  0  0  0  0  0  0  0  0  0
  -25.9598  -34.3069   39.4023 O   0  0  0  0  0  0  0  0  0  0  0  0
  -24.1984  -33.3178   35.7093 C   0  0  0  0  0  0  0  0  0  0  0  0
  -23.8422  -34.1940   40.5040 C   0  0  0  0  0  0  0  0  0  0  0  0
  -24.4208  -34.4858   41.7721 C   0  0  0  0  0  0  0  0  0  0  0  0
  -24.2319  -34.0553   42.7867 O   0  0  0  0  0  0  0  0  0  0  0  0
  -25.4713  -35.3580   41.8944 O   0  0  0  0  0  0  0  0  0  0  0  0
  -22.8135  -33.3251   35.6132 C   0  0  0  0  0  0  0  0  0  0  0  0
  1  2  1  0
  2  3  2  0
  2  4  1  0
  3  5  1  0
  3  6  1  0
  4  7  2  0
  6  8  1  0
  5  9  2  0
  6 10  2  0
  7 10  1  0
 10 11  1  0
 11 12  1  0
 11 13  2  0
  1 14  2  0
  9 14  1  0
M  END
>  <ID>  (1) 
conformer_0

$$$$
