
     RDKit          3D

 15 16  0  0  0  0  0  0  0  0999 V2000
  -22.7725  -33.7414   40.4262 N   0  0  0  0  0  0  0  0  0  0  0  0
  -24.0392  -33.6064   40.8274 C   0  0  0  0  0  0  0  0  0  0  0  0
  -24.9652  -33.6783   39.9461 C   0  0  0  0  0  0  0  0  0  0  0  0
  -22.3637  -33.7908   39.2456 C   0  0  0  0  0  0  0  0  0  0  0  0
  -24.4320  -33.6095   42.3111 C   0  0  0  0  0  0  0  0  0  0  0  0
  -24.8383  -34.7072   42.9248 C   0  0  0  0  0  0  0  0  0  0  0  0
  -24.5875  -33.8281   38.6643 C   0  0  0  0  0  0  0  0  0  0  0  0
  -24.0353  -35.5500   43.4859 O   0  0  0  0  0  0  0  0  0  0  0  0
  -25.4392  -33.8599   37.4799 N   0  0  0  0  0  0  0  0  0  0  0  0
  -26.0756  -35.1100   42.7510 O   0  0  0  0  0  0  0  0  0  0  0  0
  -21.0616  -33.8854   38.8173 N   0  0  0  0  0  0  0  0  0  0  0  0
  -23.2833  -33.8537   38.2219 C   0  0  0  0  0  0  0  0  0  0  0  0
  -23.0751  -33.9931   36.7956 C   0  0  0  0  0  0  0  0  0  0  0  0
  -24.6736  -33.6944   36.3210 N   0  0  0  0  0  0  0  0  0  0  0  0
  -22.1355  -33.7300   36.0579 O   0  0  0  0  0  0  0  0  0  0  0  0
  1  2  2  0
  2  3  1  0
  1  4  1  0
  2  5  1  0
  5  6  1  0
  3  7  2  0
  6  8  1  0
  7  9  1  0
  6 10  2  0
  4 11  1  0
  4 12  2  0
  7 12  1  0
 12 13  1  0
  9 14  1  0
 13 14  1  0
 13 15  2  0
M  END
>  <ID>  (1) 
conformer_0

$$$$
