
     RDKit          3D

 10 11  0  0  0  0  0  0  0  0999 V2000
  -21.8558  -33.6073   38.4303 C   0  0  0  0  0  0  0  0  0  0  0  0
  -22.4931  -33.6021   37.1895 N   0  0  0  0  0  0  0  0  0  0  0  0
  -22.4911  -33.8247   39.5647 C   0  0  0  0  0  0  0  0  0  0  0  0
  -21.9910  -33.5195   35.9408 N   0  0  0  0  0  0  0  0  0  0  0  0
  -22.8850  -33.4813   34.9530 C   0  0  0  0  0  0  0  0  0  0  0  0
  -23.8079  -33.8455   37.3883 C   0  0  0  0  0  0  0  0  0  0  0  0
  -24.2095  -33.6252   35.2163 N   0  0  0  0  0  0  0  0  0  0  0  0
  -23.9273  -34.0061   39.0345 C   0  0  0  0  0  0  0  0  0  0  0  0
  -24.6833  -33.8920   36.4296 C   0  0  0  0  0  0  0  0  0  0  0  0
  -25.9481  -34.0575   36.6826 O   0  0  0  0  0  0  0  0  0  0  0  0
  1  2  1  0
  1  3  2  0
  2  4  1  0
  4  5  2  0
  2  6  1  0
  5  7  1  0
  3  8  1  0
  6  8  2  0
  6  9  1  0
  7  9  1  0
  9 10  2  0
M  END
>  <ID>  (1) 
conformer_0

$$$$
