
     RDKit          3D

 14 15  0  0  0  0  0  0  0  0999 V2000
  -22.1758  -33.5755   39.2933 C   0  0  0  0  0  0  0  0  0  0  0  0
  -22.7766  -33.6341   38.0208 C   0  0  0  0  0  0  0  0  0  0  0  0
  -22.1400  -33.5885   36.8554 N   0  0  0  0  0  0  0  0  0  0  0  0
  -24.1440  -34.0797   38.0195 C   0  0  0  0  0  0  0  0  0  0  0  0
  -22.9632  -33.7662   40.4087 C   0  0  0  0  0  0  0  0  0  0  0  0
  -24.3011  -34.1733   40.3420 C   0  0  0  0  0  0  0  0  0  0  0  0
  -24.8601  -34.2669   39.1258 C   0  0  0  0  0  0  0  0  0  0  0  0
  -23.0886  -33.7801   35.9322 C   0  0  0  0  0  0  0  0  0  0  0  0
  -24.9180  -34.3904   41.5320 C   0  0  0  0  0  0  0  0  0  0  0  0
  -26.0407  -34.0078   41.8957 O   0  0  0  0  0  0  0  0  0  0  0  0
  -24.5162  -33.9855   36.4790 N   0  0  0  0  0  0  0  0  0  0  0  0
  -22.9775  -33.6467   34.5072 C   0  0  0  0  0  0  0  0  0  0  0  0
  -24.3146  -35.2877   42.4228 O   0  0  0  0  0  0  0  0  0  0  0  0
  -25.0204  -35.9228   43.5504 C   0  0  0  0  0  0  0  0  0  0  0  0
  1  2  1  0
  2  3  1  0
  2  4  2  0
  1  5  2  0
  5  6  1  0
  4  7  1  0
  6  7  2  0
  3  8  1  0
  6  9  1  0
  9 10  2  0
  4 11  1  0
  8 11  2  0
  8 12  1  0
  9 13  1  0
 13 14  1  0
M  END
>  <ID>  (1) 
conformer_0

$$$$
