
     RDKit          3D

 11 12  0  0  0  0  0  0  0  0999 V2000
  -24.3781  -33.3236   36.0363 C   0  0  0  0  0  0  0  0  0  0  0  0
  -23.3716  -33.3936   35.3692 C   0  0  0  0  0  0  0  0  0  0  0  0
  -25.5782  -33.0826   35.5714 O   0  0  0  0  0  0  0  0  0  0  0  0
  -24.2412  -33.5480   37.4689 N   0  0  0  0  0  0  0  0  0  0  0  0
  -22.7701  -33.7736   37.5470 C   0  0  0  0  0  0  0  0  0  0  0  0
  -25.0733  -33.6247   38.4816 C   0  0  0  0  0  0  0  0  0  0  0  0
  -22.2255  -34.0234   38.7520 C   0  0  0  0  0  0  0  0  0  0  0  0
  -23.1770  -34.0791   39.9498 C   0  0  0  0  0  0  0  0  0  0  0  0
  -22.2773  -33.7417   36.2942 N   0  0  0  0  0  0  0  0  0  0  0  0
  -23.0455  -33.4832   34.0995 O   0  0  0  0  0  0  0  0  0  0  0  0
  -24.5343  -33.9303   39.7186 C   0  0  0  0  0  0  0  0  0  0  0  0
  1  2  1  0
  1  3  2  0
  1  4  1  0
  4  5  1  0
  4  6  1  0
  5  7  2  0
  7  8  1  0
  2  9  1  0
  5  9  1  0
  2 10  2  0
  6 11  2  0
  8 11  2  0
M  END
>  <ID>  (1) 
conformer_0

$$$$
