
     RDKit          3D

  8  8  0  0  0  0  0  0  0  0999 V2000
  -21.8112  -33.7619   38.4976 N   0  0  0  0  0  0  0  0  0  0  0  0
  -22.9913  -33.8020   38.0395 C   0  0  0  0  0  0  0  0  0  0  0  0
  -23.2503  -33.7441   36.5977 C   0  0  0  0  0  0  0  0  0  0  0  0
  -21.7491  -33.8100   39.9494 C   0  0  0  0  0  0  0  0  0  0  0  0
  -22.2883  -33.8511   35.7977 O   0  0  0  0  0  0  0  0  0  0  0  0
  -24.1521  -33.9573   38.9007 C   0  0  0  0  0  0  0  0  0  0  0  0
  -24.5214  -33.7997   36.1407 O   0  0  0  0  0  0  0  0  0  0  0  0
  -23.4926  -33.8723   40.3418 S   0  0  0  0  0  0  0  0  0  0  0  0
  1  2  1  0
  2  3  1  0
  1  4  2  0
  3  5  1  0
  2  6  2  0
  3  7  2  0
  4  8  1  0
  6  8  1  0
M  END
>  <ID>  (1) 
conformer_0

$$$$
