
     RDKit          3D

 14 16  0  0  0  0  0  0  0  0999 V2000
  -21.8112  -33.7619   38.4976 N   0  0  0  0  0  0  0  0  0  0  0  0
  -22.5009  -33.6982   37.4172 C   0  0  0  0  0  0  0  0  0  0  0  0
  -23.8436  -33.7873   37.7368 C   0  0  0  0  0  0  0  0  0  0  0  0
  -24.3557  -33.9034   38.9892 C   0  0  0  0  0  0  0  0  0  0  0  0
  -25.7103  -34.0502   39.3702 N   0  0  0  0  0  0  0  0  0  0  0  0
  -22.1467  -33.8292   39.7428 C   0  0  0  0  0  0  0  0  0  0  0  0
  -24.7829  -33.7450   36.5569 N   0  0  0  0  0  0  0  0  0  0  0  0
  -23.4517  -33.9282   40.0447 C   0  0  0  0  0  0  0  0  0  0  0  0
  -24.0564  -34.0844   41.3425 C   0  0  0  0  0  0  0  0  0  0  0  0
  -26.0755  -34.1786   40.5615 C   0  0  0  0  0  0  0  0  0  0  0  0
  -24.2289  -33.5329   35.4259 C   0  0  0  0  0  0  0  0  0  0  0  0
  -22.2310  -33.6074   36.1886 N   0  0  0  0  0  0  0  0  0  0  0  0
  -22.9093  -33.5236   35.2023 C   0  0  0  0  0  0  0  0  0  0  0  0
  -25.2218  -34.1095   41.5882 N   0  0  0  0  0  0  0  0  0  0  0  0
  1  2  2  0
  2  3  1  0
  3  4  2  0
  4  5  1  0
  1  6  1  0
  3  7  1  0
  4  8  1  0
  6  8  2  0
  8  9  1  0
  5 10  2  0
  7 11  2  0
  2 12  1  0
 11 13  1  0
 12 13  2  0
  9 14  2  0
 10 14  1  0
M  END
>  <ID>  (1) 
conformer_0

$$$$
