
     RDKit          3D

  6  6  0  0  0  0  0  0  0  0999 V2000
  -21.8758  -33.6729   37.9171 N   0  0  0  0  0  0  0  0  0  0  0  0
  -22.2650  -33.7282   39.1483 C   0  0  0  0  0  0  0  0  0  0  0  0
  -23.5894  -33.8840   39.4587 N   0  0  0  0  0  0  0  0  0  0  0  0
  -23.0319  -33.8333   37.1262 C   0  0  0  0  0  0  0  0  0  0  0  0
  -24.1365  -33.9870   38.1177 C   0  0  0  0  0  0  0  0  0  0  0  0
  -23.1544  -33.8266   35.8019 N   0  0  0  0  0  0  0  0  0  0  0  0
  1  2  1  0
  2  3  2  0
  1  4  2  0
  3  5  1  0
  4  5  1  0
  4  6  1  0
M  END
>  <ID>  (1) 
conformer_0

$$$$
