
     RDKit          3D

 12 12  0  0  0  0  0  0  0  0999 V2000
  -22.7725  -33.7414   40.4262 N   0  0  0  0  0  0  0  0  0  0  0  0
  -22.2842  -33.9938   39.3207 C   0  0  0  0  0  0  0  0  0  0  0  0
  -20.9631  -33.9473   39.1358 N   0  0  0  0  0  0  0  0  0  0  0  0
  -24.0566  -33.7555   40.7750 C   0  0  0  0  0  0  0  0  0  0  0  0
  -23.2205  -34.0700   38.3086 C   0  0  0  0  0  0  0  0  0  0  0  0
  -22.7973  -33.9913   36.8928 C   0  0  0  0  0  0  0  0  0  0  0  0
  -24.8554  -33.9619   39.7607 C   0  0  0  0  0  0  0  0  0  0  0  0
  -26.3668  -33.8388   40.0254 O   0  0  0  0  0  0  0  0  0  0  0  0
  -23.6769  -33.6600   35.9729 N   0  0  0  0  0  0  0  0  0  0  0  0
  -24.7491  -33.6970   42.0998 C   0  0  0  0  0  0  0  0  0  0  0  0
  -24.5331  -33.9876   38.3901 C   0  0  0  0  0  0  0  0  0  0  0  0
  -23.8804  -34.0289   43.0234 O   0  0  0  0  0  0  0  0  0  0  0  0
  1  2  2  0
  2  3  1  0
  1  4  1  0
  2  5  1  0
  5  6  1  0
  4  7  2  0
  7  8  1  0
  6  9  1  0
  4 10  1  0
  5 11  2  0
  7 11  1  0
 10 12  1  0
M  END
>  <ID>  (1) 
conformer_0

$$$$
