
     RDKit          3D

  9 10  0  0  0  0  0  0  0  0999 V2000
  -24.1502  -33.8208   36.1259 C   0  0  0  0  0  0  0  0  0  0  0  0
  -23.6685  -33.8453   37.3570 C   0  0  0  0  0  0  0  0  0  0  0  0
  -24.2719  -33.9690   38.5625 C   0  0  0  0  0  0  0  0  0  0  0  0
  -23.3042  -33.9183   39.6662 N   0  0  0  0  0  0  0  0  0  0  0  0
  -22.1977  -33.6209   37.4005 C   0  0  0  0  0  0  0  0  0  0  0  0
  -23.3959  -33.6557   35.0579 C   0  0  0  0  0  0  0  0  0  0  0  0
  -22.0926  -33.4348   35.0950 C   0  0  0  0  0  0  0  0  0  0  0  0
  -21.6392  -33.3867   36.2219 N   0  0  0  0  0  0  0  0  0  0  0  0
  -22.1152  -33.6531   38.9073 N   0  0  0  0  0  0  0  0  0  0  0  0
  1  2  1  0
  2  3  1  0
  3  4  2  0
  2  5  2  0
  1  6  2  0
  6  7  1  0
  5  8  1  0
  7  8  2  0
  4  9  1  0
  5  9  1  0
M  END
>  <ID>  (1) 
conformer_0

$$$$
