
     RDKit          3D

 15 16  0  0  0  0  0  0  0  0999 V2000
  -24.3781  -33.3236   36.0363 C   0  0  0  0  0  0  0  0  0  0  0  0
  -23.3716  -33.3936   35.3692 C   0  0  0  0  0  0  0  0  0  0  0  0
  -25.5782  -33.0826   35.5714 O   0  0  0  0  0  0  0  0  0  0  0  0
  -24.2412  -33.5480   37.4689 N   0  0  0  0  0  0  0  0  0  0  0  0
  -22.7701  -33.7736   37.5470 C   0  0  0  0  0  0  0  0  0  0  0  0
  -25.0733  -33.6247   38.4816 C   0  0  0  0  0  0  0  0  0  0  0  0
  -24.6078  -33.9291   39.7233 C   0  0  0  0  0  0  0  0  0  0  0  0
  -22.2226  -33.6898   36.4529 N   0  0  0  0  0  0  0  0  0  0  0  0
  -25.4872  -34.0582   40.8881 C   0  0  0  0  0  0  0  0  0  0  0  0
  -24.8896  -34.4246   42.1115 C   0  0  0  0  0  0  0  0  0  0  0  0
  -25.6095  -34.8684   43.1459 O   0  0  0  0  0  0  0  0  0  0  0  0
  -23.1023  -34.1536   39.7847 C   0  0  0  0  0  0  0  0  0  0  0  0
  -22.9895  -33.4887   34.1820 O   0  0  0  0  0  0  0  0  0  0  0  0
  -22.3289  -34.0027   38.8546 C   0  0  0  0  0  0  0  0  0  0  0  0
  -23.6551  -34.2047   42.3765 O   0  0  0  0  0  0  0  0  0  0  0  0
  1  2  1  0
  1  3  2  0
  1  4  1  0
  4  5  1  0
  4  6  1  0
  6  7  2  0
  2  8  1  0
  5  8  1  0
  7  9  1  0
  9 10  1  0
 10 11  1  0
  7 12  1  0
  2 13  2  0
  5 14  2  0
 12 14  1  0
 10 15  2  0
M  END
>  <ID>  (1) 
conformer_0

$$$$
