
     RDKit          3D

 12 12  0  0  0  0  0  0  0  0999 V2000
  -22.0135  -33.6904   38.0585 C   0  0  0  0  0  0  0  0  0  0  0  0
  -22.5554  -33.8024   39.2746 C   0  0  0  0  0  0  0  0  0  0  0  0
  -22.7025  -33.7224   36.8446 C   0  0  0  0  0  0  0  0  0  0  0  0
  -24.0965  -33.8896   36.9238 C   0  0  0  0  0  0  0  0  0  0  0  0
  -24.7359  -33.9422   38.1038 N   0  0  0  0  0  0  0  0  0  0  0  0
  -22.1819  -33.5671   35.4562 N   0  0  0  0  0  0  0  0  0  0  0  0
  -23.9836  -33.9390   39.2612 C   0  0  0  0  0  0  0  0  0  0  0  0
  -24.6575  -34.1471   40.5225 C   0  0  0  0  0  0  0  0  0  0  0  0
  -24.1122  -34.8584   41.4897 N   0  0  0  0  0  0  0  0  0  0  0  0
  -24.7422  -35.0681   42.6393 C   0  0  0  0  0  0  0  0  0  0  0  0
  -25.7590  -34.5630   42.8004 O   0  0  0  0  0  0  0  0  0  0  0  0
  -23.9558  -35.6302   43.6748 O   0  0  0  0  0  0  0  0  0  0  0  0
  1  2  1  0
  1  3  2  0
  3  4  1  0
  4  5  2  0
  3  6  1  0
  2  7  2  0
  5  7  1  0
  7  8  1  0
  8  9  1  0
  9 10  1  0
 10 11  2  0
 10 12  1  0
M  END
>  <ID>  (1) 
conformer_0

$$$$
