
     RDKit          3D

 12 12  0  0  0  0  0  0  0  0999 V2000
  -22.1758  -33.5755   39.2933 C   0  0  0  0  0  0  0  0  0  0  0  0
  -23.2519  -33.8593   40.0027 N   0  0  0  0  0  0  0  0  0  0  0  0
  -24.3541  -34.2320   39.3318 C   0  0  0  0  0  0  0  0  0  0  0  0
  -24.3314  -34.1123   37.9806 N   0  0  0  0  0  0  0  0  0  0  0  0
  -23.2749  -33.8825   41.4808 C   0  0  0  0  0  0  0  0  0  0  0  0
  -24.3992  -34.6262   41.9872 C   0  0  0  0  0  0  0  0  0  0  0  0
  -24.5567  -34.2469   43.4825 C   0  0  0  0  0  0  0  0  0  0  0  0
  -22.9808  -33.6803   37.5808 C   0  0  0  0  0  0  0  0  0  0  0  0
  -25.0730  -35.0538   44.2014 O   0  0  0  0  0  0  0  0  0  0  0  0
  -22.0018  -33.5235   38.1732 N   0  0  0  0  0  0  0  0  0  0  0  0
  -23.9874  -33.1868   43.8074 O   0  0  0  0  0  0  0  0  0  0  0  0
  -22.9492  -33.6427   35.9734 C   0  0  0  0  0  0  0  0  0  0  0  0
  1  2  1  0
  2  3  1  0
  3  4  2  0
  2  5  1  0
  5  6  1  0
  6  7  1  0
  4  8  1  0
  7  9  2  0
  1 10  1  0
  8 10  2  0
  7 11  1  0
  8 12  1  0
M  END
>  <ID>  (1) 
conformer_0

$$$$
