
     RDKit          3D

 14 15  0  0  0  0  0  0  0  0999 V2000
  -22.1758  -33.5755   39.2933 C   0  0  0  0  0  0  0  0  0  0  0  0
  -22.7766  -33.6341   38.0208 C   0  0  0  0  0  0  0  0  0  0  0  0
  -22.1400  -33.5885   36.8554 N   0  0  0  0  0  0  0  0  0  0  0  0
  -24.2105  -33.6750   37.9588 C   0  0  0  0  0  0  0  0  0  0  0  0
  -25.0056  -34.0970   38.9790 N   0  0  0  0  0  0  0  0  0  0  0  0
  -22.7316  -33.6014   35.6987 C   0  0  0  0  0  0  0  0  0  0  0  0
  -22.8844  -33.9140   40.3353 C   0  0  0  0  0  0  0  0  0  0  0  0
  -24.6276  -33.6853   36.6333 C   0  0  0  0  0  0  0  0  0  0  0  0
  -23.9594  -33.6006   35.5446 N   0  0  0  0  0  0  0  0  0  0  0  0
  -24.3314  -34.1139   40.3372 C   0  0  0  0  0  0  0  0  0  0  0  0
  -25.0980  -34.3864   41.3725 N   0  0  0  0  0  0  0  0  0  0  0  0
  -24.6993  -34.4306   42.5608 C   0  0  0  0  0  0  0  0  0  0  0  0
  -23.6234  -34.0860   42.9905 O   0  0  0  0  0  0  0  0  0  0  0  0
  -25.5553  -35.0948   43.5294 O   0  0  0  0  0  0  0  0  0  0  0  0
  1  2  1  0
  2  3  1  0
  2  4  2  0
  4  5  1  0
  3  6  2  0
  1  7  2  0
  4  8  1  0
  6  9  1  0
  8  9  2  0
  5 10  2  0
  7 10  1  0
 10 11  1  0
 11 12  1  0
 12 13  2  0
 12 14  1  0
M  END
>  <ID>  (1) 
conformer_0

$$$$
