
     RDKit          3D

 14 15  0  0  0  0  0  0  0  0999 V2000
  -23.8229  -33.0005   34.8667 C   0  0  0  0  0  0  0  0  0  0  0  0
  -24.6768  -33.2384   35.8649 N   0  0  0  0  0  0  0  0  0  0  0  0
  -24.2054  -33.6136   37.1119 C   0  0  0  0  0  0  0  0  0  0  0  0
  -22.7097  -33.6134   36.9230 C   0  0  0  0  0  0  0  0  0  0  0  0
  -22.1822  -33.4520   35.8057 N   0  0  0  0  0  0  0  0  0  0  0  0
  -22.0948  -33.9495   38.1800 N   0  0  0  0  0  0  0  0  0  0  0  0
  -23.0507  -34.0549   39.2096 C   0  0  0  0  0  0  0  0  0  0  0  0
  -22.9196  -34.3653   40.4445 N   0  0  0  0  0  0  0  0  0  0  0  0
  -22.6915  -33.1480   34.7338 C   0  0  0  0  0  0  0  0  0  0  0  0
  -24.5881  -33.9183   38.4359 C   0  0  0  0  0  0  0  0  0  0  0  0
  -23.4897  -33.5691   41.3901 O   0  0  0  0  0  0  0  0  0  0  0  0
  -24.2204  -34.1982   42.3689 C   0  0  0  0  0  0  0  0  0  0  0  0
  -23.7374  -34.8606   43.2968 O   0  0  0  0  0  0  0  0  0  0  0  0
  -25.6671  -33.7613   42.4378 C   0  0  0  0  0  0  0  0  0  0  0  0
  1  2  1  0
  2  3  2  0
  3  4  1  0
  4  5  1  0
  4  6  2  0
  6  7  1  0
  7  8  1  0
  1  9  1  0
  5  9  2  0
  3 10  1  0
  7 10  2  0
  8 11  1  0
 11 12  1  0
 12 13  2  0
 12 14  1  0
M  END
>  <ID>  (1) 
conformer_0

$$$$
