
     RDKit          3D

 12 13  0  0  0  0  0  0  0  0999 V2000
  -22.4171  -33.6772   36.6607 N   0  0  0  0  0  0  0  0  0  0  0  0
  -23.3274  -33.6502   35.8275 C   0  0  0  0  0  0  0  0  0  0  0  0
  -22.5334  -33.7959   38.0886 C   0  0  0  0  0  0  0  0  0  0  0  0
  -24.0759  -33.7822   38.2615 C   0  0  0  0  0  0  0  0  0  0  0  0
  -24.6129  -33.6982   36.7002 N   0  0  0  0  0  0  0  0  0  0  0  0
  -24.5543  -34.0214   39.3915 C   0  0  0  0  0  0  0  0  0  0  0  0
  -23.3770  -33.4833   34.6645 O   0  0  0  0  0  0  0  0  0  0  0  0
  -21.8367  -33.9404   39.1424 C   0  0  0  0  0  0  0  0  0  0  0  0
  -26.0050  -34.0726   39.5259 O   0  0  0  0  0  0  0  0  0  0  0  0
  -23.7390  -34.1026   40.4918 C   0  0  0  0  0  0  0  0  0  0  0  0
  -22.3726  -34.0119   40.3249 N   0  0  0  0  0  0  0  0  0  0  0  0
  -24.2473  -34.1476   41.5675 O   0  0  0  0  0  0  0  0  0  0  0  0
  1  2  1  0
  1  3  2  0
  3  4  1  0
  2  5  1  0
  4  5  1  0
  4  6  2  0
  2  7  2  0
  3  8  1  0
  6  9  1  0
  6 10  1  0
  8 11  2  0
 10 11  1  0
 10 12  2  0
M  END
>  <ID>  (1) 
conformer_0

$$$$
