
     RDKit          3D

  9 10  0  0  0  0  0  0  0  0999 V2000
  -23.1038  -33.1737   34.6089 C   0  0  0  0  0  0  0  0  0  0  0  0
  -22.3139  -33.6928   35.5752 N   0  0  0  0  0  0  0  0  0  0  0  0
  -22.9050  -33.6863   36.8948 C   0  0  0  0  0  0  0  0  0  0  0  0
  -24.3376  -32.8720   34.9530 N   0  0  0  0  0  0  0  0  0  0  0  0
  -24.3483  -33.3420   36.5165 C   0  0  0  0  0  0  0  0  0  0  0  0
  -25.0610  -33.3451   37.6294 N   0  0  0  0  0  0  0  0  0  0  0  0
  -24.7567  -33.7316   38.7848 C   0  0  0  0  0  0  0  0  0  0  0  0
  -22.5140  -34.0033   38.1161 C   0  0  0  0  0  0  0  0  0  0  0  0
  -23.4248  -34.0296   39.0738 C   0  0  0  0  0  0  0  0  0  0  0  0
  1  2  1  0
  2  3  2  0
  1  4  2  0
  3  5  1  0
  4  5  1  0
  5  6  2  0
  6  7  1  0
  3  8  1  0
  7  9  2  0
  8  9  2  0
M  END
>  <ID>  (1) 
conformer_0

$$$$
