
     RDKit          3D

 11 12  0  0  0  0  0  0  0  0999 V2000
  -22.0205  -33.6817   38.4177 C   0  0  0  0  0  0  0  0  0  0  0  0
  -22.7479  -33.8065   39.4879 C   0  0  0  0  0  0  0  0  0  0  0  0
  -24.1823  -34.0103   39.0411 C   0  0  0  0  0  0  0  0  0  0  0  0
  -24.1174  -33.9892   37.5887 N   0  0  0  0  0  0  0  0  0  0  0  0
  -22.8338  -33.7035   37.3162 N   0  0  0  0  0  0  0  0  0  0  0  0
  -22.4987  -33.6188   35.9029 C   0  0  0  0  0  0  0  0  0  0  0  0
  -25.3101  -34.0982   39.8743 C   0  0  0  0  0  0  0  0  0  0  0  0
  -22.5616  -33.8814   40.9025 C   0  0  0  0  0  0  0  0  0  0  0  0
  -25.0233  -34.0594   41.2727 C   0  0  0  0  0  0  0  0  0  0  0  0
  -23.6583  -33.9210   41.7609 N   0  0  0  0  0  0  0  0  0  0  0  0
  -26.0151  -34.1451   42.2879 N   0  0  0  0  0  0  0  0  0  0  0  0
  1  2  2  0
  2  3  1  0
  3  4  2  0
  1  5  1  0
  4  5  1  0
  5  6  1  0
  3  7  1  0
  2  8  1  0
  7  9  2  0
  8 10  2  0
  9 10  1  0
  9 11  1  0
M  END
>  <ID>  (1) 
conformer_0

$$$$
