
     RDKit          3D

  9  9  0  0  0  0  0  0  0  0999 V2000
  -21.8112  -33.7619   38.4976 N   0  0  0  0  0  0  0  0  0  0  0  0
  -22.9913  -33.8020   38.0395 C   0  0  0  0  0  0  0  0  0  0  0  0
  -23.2503  -33.7441   36.5977 C   0  0  0  0  0  0  0  0  0  0  0  0
  -24.0728  -33.9415   38.8743 N   0  0  0  0  0  0  0  0  0  0  0  0
  -24.4561  -33.4960   36.1968 C   0  0  0  0  0  0  0  0  0  0  0  0
  -24.6026  -33.3947   34.8720 O   0  0  0  0  0  0  0  0  0  0  0  0
  -25.2416  -33.8462   38.3604 C   0  0  0  0  0  0  0  0  0  0  0  0
  -25.5132  -33.6477   37.0511 N   0  0  0  0  0  0  0  0  0  0  0  0
  -22.1245  -33.5834   35.7368 N   0  0  0  0  0  0  0  0  0  0  0  0
  1  2  1  0
  2  3  1  0
  2  4  2  0
  3  5  1  0
  5  6  2  0
  4  7  1  0
  5  8  1  0
  7  8  2  0
  3  9  1  0
M  END
>  <ID>  (1) 
conformer_0

$$$$
