
     RDKit          3D

 11 11  0  0  0  0  0  0  0  0999 V2000
  -21.8758  -33.6729   37.9171 N   0  0  0  0  0  0  0  0  0  0  0  0
  -22.7184  -33.7005   36.7883 C   0  0  0  0  0  0  0  0  0  0  0  0
  -22.3867  -33.7951   39.1535 C   0  0  0  0  0  0  0  0  0  0  0  0
  -24.0873  -33.8320   36.9401 C   0  0  0  0  0  0  0  0  0  0  0  0
  -24.4923  -33.7983   38.4347 C   0  0  0  0  0  0  0  0  0  0  0  0
  -23.7015  -33.8756   39.3730 C   0  0  0  0  0  0  0  0  0  0  0  0
  -24.1721  -33.9961   40.7907 C   0  0  0  0  0  0  0  0  0  0  0  0
  -23.4692  -34.0777   41.7559 O   0  0  0  0  0  0  0  0  0  0  0  0
  -25.5411  -34.1115   40.8794 N   0  0  0  0  0  0  0  0  0  0  0  0
  -26.1091  -34.1781   42.2410 C   0  0  0  0  0  0  0  0  0  0  0  0
  -22.2560  -33.6027   35.5068 N   0  0  0  0  0  0  0  0  0  0  0  0
  1  2  1  0
  1  3  2  0
  2  4  2  0
  4  5  1  0
  3  6  1  0
  5  6  2  0
  6  7  1  0
  7  8  2  0
  7  9  1  0
  9 10  1  0
  2 11  1  0
M  END
>  <ID>  (1) 
conformer_0

$$$$
