
     RDKit          3D

 15 17  0  0  0  0  0  0  0  0999 V2000
  -21.8558  -33.6073   38.4303 C   0  0  0  0  0  0  0  0  0  0  0  0
  -22.9791  -33.7347   37.6723 C   0  0  0  0  0  0  0  0  0  0  0  0
  -24.2288  -33.8773   38.2998 C   0  0  0  0  0  0  0  0  0  0  0  0
  -25.3941  -33.8426   37.4964 N   0  0  0  0  0  0  0  0  0  0  0  0
  -24.6809  -33.5712   36.2401 C   0  0  0  0  0  0  0  0  0  0  0  0
  -24.4535  -34.1398   39.7068 C   0  0  0  0  0  0  0  0  0  0  0  0
  -25.6457  -34.3304   40.3600 N   0  0  0  0  0  0  0  0  0  0  0  0
  -25.2423  -33.4215   34.9857 O   0  0  0  0  0  0  0  0  0  0  0  0
  -23.2791  -34.0885   40.4226 C   0  0  0  0  0  0  0  0  0  0  0  0
  -22.0060  -33.8545   39.8569 C   0  0  0  0  0  0  0  0  0  0  0  0
  -25.5444  -34.3681   41.7452 C   0  0  0  0  0  0  0  0  0  0  0  0
  -23.2238  -33.5673   36.4135 C   0  0  0  0  0  0  0  0  0  0  0  0
  -23.6659  -34.2167   41.7929 N   0  0  0  0  0  0  0  0  0  0  0  0
  -26.1943  -34.5288   42.7792 N   0  0  0  0  0  0  0  0  0  0  0  0
  -22.5609  -33.5471   35.2099 O   0  0  0  0  0  0  0  0  0  0  0  0
  1  2  1  0
  2  3  2  0
  3  4  1  0
  4  5  2  0
  3  6  1  0
  6  7  1  0
  5  8  1  0
  6  9  2  0
  1 10  2  0
  9 10  1  0
  7 11  1  0
  2 12  1  0
  5 12  1  0
  9 13  1  0
 11 13  2  0
 11 14  1  0
 12 15  2  0
M  END
>  <ID>  (1) 
conformer_0

$$$$
