
     RDKit          3D

  9 10  0  0  0  0  0  0  0  0999 V2000
  -22.1758  -33.5755   39.2933 C   0  0  0  0  0  0  0  0  0  0  0  0
  -23.2519  -33.8593   40.0027 N   0  0  0  0  0  0  0  0  0  0  0  0
  -24.3247  -34.2185   39.3399 C   0  0  0  0  0  0  0  0  0  0  0  0
  -22.3970  -33.5006   37.9642 C   0  0  0  0  0  0  0  0  0  0  0  0
  -24.0679  -33.9622   37.8748 C   0  0  0  0  0  0  0  0  0  0  0  0
  -24.6557  -33.9580   36.6628 N   0  0  0  0  0  0  0  0  0  0  0  0
  -23.7588  -33.5804   35.7140 C   0  0  0  0  0  0  0  0  0  0  0  0
  -22.5083  -33.3092   35.6259 C   0  0  0  0  0  0  0  0  0  0  0  0
  -21.8610  -33.3336   36.8540 N   0  0  0  0  0  0  0  0  0  0  0  0
  1  2  2  0
  2  3  1  0
  1  4  1  0
  3  5  2  0
  4  5  1  0
  5  6  1  0
  6  7  2  0
  7  8  1  0
  4  9  1  0
  8  9  2  0
M  END
>  <ID>  (1) 
conformer_0

$$$$
