
     RDKit          3D

 14 15  0  0  0  0  0  0  0  0999 V2000
  -21.8558  -33.6073   38.4303 N   0  0  0  0  0  0  0  0  0  0  0  0
  -22.3569  -33.6807   39.6116 C   0  0  0  0  0  0  0  0  0  0  0  0
  -22.6104  -33.6722   37.3108 C   0  0  0  0  0  0  0  0  0  0  0  0
  -23.9552  -33.8418   37.3543 C   0  0  0  0  0  0  0  0  0  0  0  0
  -22.1410  -33.5963   35.9099 N   0  0  0  0  0  0  0  0  0  0  0  0
  -23.7905  -33.8642   39.7058 N   0  0  0  0  0  0  0  0  0  0  0  0
  -24.4929  -33.8962   38.6904 C   0  0  0  0  0  0  0  0  0  0  0  0
  -24.4636  -33.7483   36.0993 N   0  0  0  0  0  0  0  0  0  0  0  0
  -24.3282  -34.0724   41.0544 C   0  0  0  0  0  0  0  0  0  0  0  0
  -24.8875  -35.2162   41.3043 C   0  0  0  0  0  0  0  0  0  0  0  0
  -24.2407  -36.3278   40.9243 O   0  0  0  0  0  0  0  0  0  0  0  0
  -25.7045  -35.3154   42.4352 O   0  0  0  0  0  0  0  0  0  0  0  0
  -23.3010  -33.6091   35.1920 C   0  0  0  0  0  0  0  0  0  0  0  0
  -23.2405  -33.5778   33.9223 O   0  0  0  0  0  0  0  0  0  0  0  0
  1  2  2  0
  1  3  1  0
  3  4  2  0
  3  5  1  0
  2  6  1  0
  4  7  1  0
  6  7  1  0
  4  8  1  0
  6  9  1  0
  9 10  1  0
 10 11  1  0
 10 12  2  0
  5 13  1  0
  8 13  1  0
 13 14  2  0
M  END
>  <ID>  (1) 
conformer_0

$$$$
