
     RDKit          3D

 14 15  0  0  0  0  0  0  0  0999 V2000
  -22.2064  -33.8334   36.8180 N   0  0  0  0  0  0  0  0  0  0  0  0
  -23.1395  -33.7260   35.9152 C   0  0  0  0  0  0  0  0  0  0  0  0
  -24.4819  -33.6737   36.2310 N   0  0  0  0  0  0  0  0  0  0  0  0
  -22.8146  -33.5259   34.6063 N   0  0  0  0  0  0  0  0  0  0  0  0
  -22.9049  -33.9226   38.1083 C   0  0  0  0  0  0  0  0  0  0  0  0
  -24.3579  -33.8559   37.7268 C   0  0  0  0  0  0  0  0  0  0  0  0
  -25.2634  -33.8709   38.7467 N   0  0  0  0  0  0  0  0  0  0  0  0
  -24.5852  -34.0568   39.9447 C   0  0  0  0  0  0  0  0  0  0  0  0
  -23.3495  -34.1062   40.2789 C   0  0  0  0  0  0  0  0  0  0  0  0
  -25.6064  -34.0735   41.1205 C   0  0  0  0  0  0  0  0  0  0  0  0
  -22.4388  -34.0148   39.3272 C   0  0  0  0  0  0  0  0  0  0  0  0
  -26.6731  -33.5054   41.1835 O   0  0  0  0  0  0  0  0  0  0  0  0
  -25.1678  -34.7078   42.3127 N   0  0  0  0  0  0  0  0  0  0  0  0
  -25.9958  -34.8632   43.4562 O   0  0  0  0  0  0  0  0  0  0  0  0
  1  2  2  0
  2  3  1  0
  2  4  1  0
  1  5  1  0
  3  6  1  0
  5  6  2  0
  6  7  1  0
  7  8  2  0
  8  9  1  0
  8 10  1  0
  5 11  1  0
  9 11  2  0
 10 12  2  0
 10 13  1  0
 13 14  1  0
M  END
>  <ID>  (1) 
conformer_0

$$$$
