
     RDKit          3D

 13 13  0  0  0  0  0  0  0  0999 V2000
  -26.1285  -34.0790   42.8916 O   0  0  0  0  0  0  0  0  0  0  0  0
  -24.8848  -34.6600   42.6036 P   0  0  0  0  0  0  0  0  0  0  0  0
  -24.3561  -34.4509   41.1664 O   0  0  0  0  0  0  0  0  0  0  0  0
  -24.8772  -33.6075   40.1693 C   0  0  0  0  0  0  0  0  0  0  0  0
  -24.0202  -33.7615   38.8859 C   0  0  0  0  0  0  0  0  0  0  0  0
  -24.5709  -33.8741   37.6750 N   0  0  0  0  0  0  0  0  0  0  0  0
  -22.6160  -33.5602   38.9056 C   0  0  0  0  0  0  0  0  0  0  0  0
  -24.8655  -36.1174   42.9351 O   0  0  0  0  0  0  0  0  0  0  0  0
  -21.7635  -33.5138   39.9912 N   0  0  0  0  0  0  0  0  0  0  0  0
  -22.1493  -33.6955   37.5630 N   0  0  0  0  0  0  0  0  0  0  0  0
  -23.3790  -33.8284   36.7967 N   0  0  0  0  0  0  0  0  0  0  0  0
  -23.4093  -33.8565   35.3949 C   0  0  0  0  0  0  0  0  0  0  0  0
  -23.7772  -33.8981   43.5209 O   0  0  0  0  0  0  0  0  0  0  0  0
  1  2  2  0
  2  3  1  0
  3  4  1  0
  4  5  1  0
  5  6  2  0
  5  7  1  0
  2  8  1  0
  7  9  1  0
  7 10  2  0
  6 11  1  0
 10 11  1  0
 11 12  1  0
  2 13  1  0
M  END
>  <ID>  (1) 
conformer_0

$$$$
