
     RDKit          3D

 10 11  0  0  0  0  0  0  0  0999 V2000
  -22.1577  -33.5678   39.7707 C   0  0  0  0  0  0  0  0  0  0  0  0
  -22.6194  -33.6930   38.5460 C   0  0  0  0  0  0  0  0  0  0  0  0
  -22.0321  -33.4769   37.3165 N   0  0  0  0  0  0  0  0  0  0  0  0
  -23.0383  -33.8100   40.8139 N   0  0  0  0  0  0  0  0  0  0  0  0
  -24.0106  -34.0283   38.6425 C   0  0  0  0  0  0  0  0  0  0  0  0
  -23.0535  -33.7404   36.4779 C   0  0  0  0  0  0  0  0  0  0  0  0
  -24.3292  -34.0738   36.9882 N   0  0  0  0  0  0  0  0  0  0  0  0
  -22.9355  -33.6792   34.9646 C   0  0  0  0  0  0  0  0  0  0  0  0
  -24.4698  -34.1825   39.7666 C   0  0  0  0  0  0  0  0  0  0  0  0
  -25.4914  -34.4118   40.2045 O   0  0  0  0  0  0  0  0  0  0  0  0
  1  2  1  0
  2  3  1  0
  1  4  2  0
  2  5  2  0
  3  6  2  0
  5  7  1  0
  6  7  1  0
  6  8  1  0
  4  9  1  0
  5  9  1  0
  9 10  2  0
M  END
>  <ID>  (1) 
conformer_0

$$$$
