
     RDKit          3D

 15 17  0  0  0  0  0  0  0  0999 V2000
  -21.8112  -33.7619   38.4976 C   0  0  0  0  0  0  0  0  0  0  0  0
  -22.4227  -33.6214   37.2821 N   0  0  0  0  0  0  0  0  0  0  0  0
  -22.6970  -33.8726   39.5682 C   0  0  0  0  0  0  0  0  0  0  0  0
  -23.7598  -33.7614   37.3940 C   0  0  0  0  0  0  0  0  0  0  0  0
  -22.5935  -33.9874   40.9306 N   0  0  0  0  0  0  0  0  0  0  0  0
  -24.1673  -33.9667   39.1264 C   0  0  0  0  0  0  0  0  0  0  0  0
  -25.1664  -34.0860   39.8363 C   0  0  0  0  0  0  0  0  0  0  0  0
  -23.7117  -33.9917   41.6398 C   0  0  0  0  0  0  0  0  0  0  0  0
  -26.3831  -34.0634   39.3167 O   0  0  0  0  0  0  0  0  0  0  0  0
  -24.9308  -34.0187   41.1925 N   0  0  0  0  0  0  0  0  0  0  0  0
  -25.9551  -34.0357   42.1598 C   0  0  0  0  0  0  0  0  0  0  0  0
  -25.5551  -34.3736   43.4861 C   0  0  0  0  0  0  0  0  0  0  0  0
  -24.3729  -35.3182   43.2362 O   0  0  0  0  0  0  0  0  0  0  0  0
  -24.6565  -33.7962   36.4863 O   0  0  0  0  0  0  0  0  0  0  0  0
  -23.4665  -34.4279   42.9057 C   0  0  0  0  0  0  0  0  0  0  0  0
  1  2  2  0
  1  3  1  0
  2  4  1  0
  3  5  1  0
  3  6  2  0
  4  6  1  0
  6  7  1  0
  5  8  2  0
  7  9  2  0
  7 10  1  0
  8 10  1  0
 10 11  1  0
 11 12  1  0
 12 13  1  0
  4 14  2  0
  8 15  1  0
 13 15  1  0
M  END
>  <ID>  (1) 
conformer_0

$$$$
