
     RDKit          3D

 13 13  0  0  0  0  0  0  0  0999 V2000
  -21.8112  -33.7619   38.4976 C   0  0  0  0  0  0  0  0  0  0  0  0
  -22.9427  -33.7762   37.8084 C   0  0  0  0  0  0  0  0  0  0  0  0
  -24.1807  -33.8415   38.4497 C   0  0  0  0  0  0  0  0  0  0  0  0
  -24.0776  -33.9610   39.9199 C   0  0  0  0  0  0  0  0  0  0  0  0
  -25.3173  -34.0925   40.6567 N   0  0  0  0  0  0  0  0  0  0  0  0
  -22.9892  -33.5821   36.2564 C   0  0  0  0  0  0  0  0  0  0  0  0
  -22.8638  -33.9471   40.4641 C   0  0  0  0  0  0  0  0  0  0  0  0
  -25.1887  -34.1806   41.9247 C   0  0  0  0  0  0  0  0  0  0  0  0
  -26.1041  -34.1368   42.7377 O   0  0  0  0  0  0  0  0  0  0  0  0
  -22.0298  -33.6352   35.7082 O   0  0  0  0  0  0  0  0  0  0  0  0
  -24.0889  -33.5517   35.7280 O   0  0  0  0  0  0  0  0  0  0  0  0
  -21.7337  -33.8093   39.7905 C   0  0  0  0  0  0  0  0  0  0  0  0
  -23.8592  -34.3164   42.5970 O   0  0  0  0  0  0  0  0  0  0  0  0
  1  2  1  0
  2  3  2  0
  3  4  1  0
  4  5  1  0
  2  6  1  0
  4  7  2  0
  5  8  1  0
  8  9  2  0
  6 10  1  0
  6 11  2  0
  1 12  2  0
  7 12  1  0
  8 13  1  0
M  END
>  <ID>  (1) 
conformer_0

$$$$
