
     RDKit          3D

 15 17  0  0  0  0  0  0  0  0999 V2000
  -21.8112  -33.7619   38.4976 C   0  0  0  0  0  0  0  0  0  0  0  0
  -22.9427  -33.7762   37.8084 C   0  0  0  0  0  0  0  0  0  0  0  0
  -24.1807  -33.8415   38.4497 C   0  0  0  0  0  0  0  0  0  0  0  0
  -22.9089  -33.9226   36.3919 C   0  0  0  0  0  0  0  0  0  0  0  0
  -22.0212  -34.0972   35.7634 O   0  0  0  0  0  0  0  0  0  0  0  0
  -25.3692  -33.7967   37.7524 N   0  0  0  0  0  0  0  0  0  0  0  0
  -24.2525  -33.9653   39.8559 N   0  0  0  0  0  0  0  0  0  0  0  0
  -24.2056  -33.8753   35.7890 N   0  0  0  0  0  0  0  0  0  0  0  0
  -21.8996  -33.8150   39.9468 C   0  0  0  0  0  0  0  0  0  0  0  0
  -25.2717  -33.6516   36.5774 C   0  0  0  0  0  0  0  0  0  0  0  0
  -25.5424  -34.0084   40.5489 C   0  0  0  0  0  0  0  0  0  0  0  0
  -25.2675  -33.9106   42.0261 C   0  0  0  0  0  0  0  0  0  0  0  0
  -26.1116  -33.7956   42.7824 O   0  0  0  0  0  0  0  0  0  0  0  0
  -23.1000  -33.7985   40.6212 C   0  0  0  0  0  0  0  0  0  0  0  0
  -23.8183  -33.9345   42.0663 C   0  0  0  0  0  0  0  0  0  0  0  0
  1  2  1  0
  2  3  2  0
  2  4  1  0
  4  5  2  0
  3  6  1  0
  3  7  1  0
  4  8  1  0
  1  9  2  0
  6 10  2  0
  8 10  2  0
  7 11  1  0
 11 12  1  0
 12 13  1  0
  7 14  1  0
  9 14  1  0
 12 15  2  0
 14 15  1  0
M  END
>  <ID>  (1) 
conformer_0

$$$$
