
     RDKit          3D

 12 13  0  0  0  0  0  0  0  0999 V2000
  -22.2475  -33.6469   36.6196 N   0  0  0  0  0  0  0  0  0  0  0  0
  -22.5181  -33.7307   37.9486 C   0  0  0  0  0  0  0  0  0  0  0  0
  -23.9317  -33.9466   38.2616 C   0  0  0  0  0  0  0  0  0  0  0  0
  -24.8801  -33.8874   37.2914 N   0  0  0  0  0  0  0  0  0  0  0  0
  -24.2429  -33.6228   35.9972 C   0  0  0  0  0  0  0  0  0  0  0  0
  -24.3730  -34.1376   39.6145 C   0  0  0  0  0  0  0  0  0  0  0  0
  -21.6141  -33.8660   38.8521 N   0  0  0  0  0  0  0  0  0  0  0  0
  -25.6350  -34.2558   40.0136 N   0  0  0  0  0  0  0  0  0  0  0  0
  -22.2357  -34.0126   40.2692 C   0  0  0  0  0  0  0  0  0  0  0  0
  -23.3879  -34.0390   40.5872 N   0  0  0  0  0  0  0  0  0  0  0  0
  -23.0453  -33.5809   35.6727 C   0  0  0  0  0  0  0  0  0  0  0  0
  -22.6937  -33.3072   34.3714 N   0  0  0  0  0  0  0  0  0  0  0  0
  1  2  1  0
  2  3  1  0
  3  4  2  0
  4  5  1  0
  3  6  1  0
  2  7  2  0
  6  8  1  0
  7  9  1  0
  6 10  2  0
  9 10  1  0
  1 11  1  0
  5 11  2  0
 11 12  1  0
M  END
>  <ID>  (1) 
conformer_0

$$$$
