
     RDKit          3D

 12 14  0  0  0  0  0  0  0  0999 V2000
  -22.0205  -33.6817   38.4177 C   0  0  0  0  0  0  0  0  0  0  0  0
  -22.7479  -33.8065   39.4879 C   0  0  0  0  0  0  0  0  0  0  0  0
  -22.3931  -33.6764   40.7501 O   0  0  0  0  0  0  0  0  0  0  0  0
  -22.6691  -33.6645   37.1440 C   0  0  0  0  0  0  0  0  0  0  0  0
  -24.0001  -33.7943   37.0808 C   0  0  0  0  0  0  0  0  0  0  0  0
  -22.0130  -33.5549   35.9975 O   0  0  0  0  0  0  0  0  0  0  0  0
  -24.7895  -33.9046   38.2695 C   0  0  0  0  0  0  0  0  0  0  0  0
  -24.1802  -33.8962   39.4872 C   0  0  0  0  0  0  0  0  0  0  0  0
  -23.4743  -33.8507   41.6162 C   0  0  0  0  0  0  0  0  0  0  0  0
  -24.6946  -34.0279   40.7847 C   0  0  0  0  0  0  0  0  0  0  0  0
  -24.3006  -33.7154   35.7452 O   0  0  0  0  0  0  0  0  0  0  0  0
  -23.1435  -33.5193   35.0963 C   0  0  0  0  0  0  0  0  0  0  0  0
  1  2  2  0
  2  3  1  0
  1  4  1  0
  4  5  2  0
  4  6  1  0
  5  7  1  0
  2  8  1  0
  7  8  2  0
  3  9  1  0
  8 10  1  0
  9 10  2  0
  5 11  1  0
  6 12  1  0
 11 12  1  0
M  END
>  <ID>  (1) 
conformer_0

$$$$
