
     RDKit          3D

 13 13  0  0  0  0  0  0  0  0999 V2000
  -22.1758  -33.5755   39.2933 C   0  0  0  0  0  0  0  0  0  0  0  0
  -23.2519  -33.8593   40.0027 N   0  0  0  0  0  0  0  0  0  0  0  0
  -24.3541  -34.2320   39.3318 C   0  0  0  0  0  0  0  0  0  0  0  0
  -24.3314  -34.1123   37.9806 N   0  0  0  0  0  0  0  0  0  0  0  0
  -23.2749  -33.8825   41.4808 C   0  0  0  0  0  0  0  0  0  0  0  0
  -24.3992  -34.6262   41.9872 C   0  0  0  0  0  0  0  0  0  0  0  0
  -24.5567  -34.2469   43.4825 C   0  0  0  0  0  0  0  0  0  0  0  0
  -22.2822  -33.5844   37.9019 C   0  0  0  0  0  0  0  0  0  0  0  0
  -23.2740  -33.7637   37.3561 C   0  0  0  0  0  0  0  0  0  0  0  0
  -23.3859  -33.6358   35.9635 N   0  0  0  0  0  0  0  0  0  0  0  0
  -25.0440  -35.0660   44.2221 O   0  0  0  0  0  0  0  0  0  0  0  0
  -22.6009  -33.4704   35.2060 C   0  0  0  0  0  0  0  0  0  0  0  0
  -24.1669  -33.0660   43.7578 O   0  0  0  0  0  0  0  0  0  0  0  0
  1  2  1  0
  2  3  1  0
  3  4  2  0
  2  5  1  0
  5  6  1  0
  6  7  1  0
  1  8  2  0
  4  9  1  0
  8  9  1  0
  9 10  2  3
  7 11  2  0
 10 12  1  0
  7 13  1  0
M  END
>  <ID>  (1) 
conformer_0

$$$$
