
     RDKit          3D

 14 15  0  0  0  0  0  0  0  0999 V2000
  -22.4171  -33.6772   36.6607 N   0  0  0  0  0  0  0  0  0  0  0  0
  -22.5567  -33.7751   38.0066 C   0  0  0  0  0  0  0  0  0  0  0  0
  -23.9701  -33.8793   38.3361 C   0  0  0  0  0  0  0  0  0  0  0  0
  -24.7382  -33.6349   37.1248 N   0  0  0  0  0  0  0  0  0  0  0  0
  -23.6764  -33.5296   36.1452 C   0  0  0  0  0  0  0  0  0  0  0  0
  -21.7996  -33.9426   39.1877 C   0  0  0  0  0  0  0  0  0  0  0  0
  -23.8730  -33.3173   34.7277 C   0  0  0  0  0  0  0  0  0  0  0  0
  -22.2609  -34.0126   40.3439 N   0  0  0  0  0  0  0  0  0  0  0  0
  -23.5238  -33.9404   40.5755 C   0  0  0  0  0  0  0  0  0  0  0  0
  -24.4462  -33.8461   39.5625 C   0  0  0  0  0  0  0  0  0  0  0  0
  -23.9979  -34.0156   41.9617 N   0  0  0  0  0  0  0  0  0  0  0  0
  -24.9133  -34.5610   42.4634 C   0  0  0  0  0  0  0  0  0  0  0  0
  -24.8536  -35.0438   43.6080 C   0  0  0  0  0  0  0  0  0  0  0  0
  -26.1847  -34.3264   42.0339 O   0  0  0  0  0  0  0  0  0  0  0  0
  1  2  1  0
  2  3  2  0
  3  4  1  0
  1  5  2  0
  4  5  1  0
  2  6  1  0
  5  7  1  0
  6  8  2  0
  8  9  1  0
  3 10  1  0
  9 10  2  0
  9 11  1  0
 11 12  1  0
 12 13  1  0
 12 14  2  0
M  END
>  <ID>  (1) 
conformer_0

$$$$
