
     RDKit          3D

 14 15  0  0  0  0  0  0  0  0999 V2000
  -22.7725  -33.7414   40.4262 N   0  0  0  0  0  0  0  0  0  0  0  0
  -22.2842  -33.9938   39.3207 C   0  0  0  0  0  0  0  0  0  0  0  0
  -22.8923  -33.9189   38.1678 N   0  0  0  0  0  0  0  0  0  0  0  0
  -22.3513  -33.9348   36.8497 C   0  0  0  0  0  0  0  0  0  0  0  0
  -23.1562  -33.7524   35.7784 C   0  0  0  0  0  0  0  0  0  0  0  0
  -22.6254  -33.6064   34.4624 C   0  0  0  0  0  0  0  0  0  0  0  0
  -24.2535  -33.8829   38.4577 C   0  0  0  0  0  0  0  0  0  0  0  0
  -24.8217  -33.8323   39.5765 C   0  0  0  0  0  0  0  0  0  0  0  0
  -24.0667  -33.7550   40.6208 C   0  0  0  0  0  0  0  0  0  0  0  0
  -24.9257  -33.8745   37.0216 N   0  0  0  0  0  0  0  0  0  0  0  0
  -24.4417  -33.7334   35.9148 C   0  0  0  0  0  0  0  0  0  0  0  0
  -24.6379  -33.8220   41.9106 C   0  0  0  0  0  0  0  0  0  0  0  0
  -25.7399  -33.4144   42.1022 O   0  0  0  0  0  0  0  0  0  0  0  0
  -24.1209  -34.6140   42.8728 O   0  0  0  0  0  0  0  0  0  0  0  0
  1  2  2  0
  2  3  1  0
  3  4  1  0
  4  5  2  0
  5  6  1  0
  3  7  1  0
  7  8  1  0
  1  9  1  0
  8  9  2  0
  7 10  2  0
  5 11  1  0
 10 11  1  0
  9 12  1  0
 12 13  2  0
 12 14  1  0
M  END
>  <ID>  (1) 
conformer_0

$$$$
