
     RDKit          3D

 12 13  0  0  0  0  0  0  0  0999 V2000
  -21.8558  -33.6073   38.4303 C   0  0  0  0  0  0  0  0  0  0  0  0
  -22.4931  -33.6021   37.1895 N   0  0  0  0  0  0  0  0  0  0  0  0
  -22.4911  -33.8247   39.5647 C   0  0  0  0  0  0  0  0  0  0  0  0
  -21.9910  -33.5195   35.9408 N   0  0  0  0  0  0  0  0  0  0  0  0
  -23.9461  -34.0026   39.3223 C   0  0  0  0  0  0  0  0  0  0  0  0
  -24.7571  -34.2925   40.4939 C   0  0  0  0  0  0  0  0  0  0  0  0
  -25.8189  -33.7584   40.6714 O   0  0  0  0  0  0  0  0  0  0  0  0
  -24.1900  -35.1208   41.3471 O   0  0  0  0  0  0  0  0  0  0  0  0
  -23.8627  -33.8664   37.4575 C   0  0  0  0  0  0  0  0  0  0  0  0
  -22.8926  -33.5284   34.9559 C   0  0  0  0  0  0  0  0  0  0  0  0
  -24.2407  -33.7272   35.2496 C   0  0  0  0  0  0  0  0  0  0  0  0
  -24.6944  -33.9244   36.5519 N   0  0  0  0  0  0  0  0  0  0  0  0
  1  2  1  0
  1  3  2  0
  2  4  1  0
  3  5  1  0
  5  6  1  0
  6  7  1  0
  6  8  2  0
  2  9  1  0
  5  9  2  0
  4 10  2  0
 10 11  1  0
  9 12  1  0
 11 12  2  0
M  END
>  <ID>  (1) 
conformer_0

$$$$
