
     RDKit          3D

 14 15  0  0  0  0  0  0  0  0999 V2000
  -22.7725  -33.7414   40.4262 N   0  0  0  0  0  0  0  0  0  0  0  0
  -24.0392  -33.6064   40.8274 C   0  0  0  0  0  0  0  0  0  0  0  0
  -24.9652  -33.6783   39.9461 C   0  0  0  0  0  0  0  0  0  0  0  0
  -22.3637  -33.7908   39.2456 C   0  0  0  0  0  0  0  0  0  0  0  0
  -24.4320  -33.6095   42.3111 C   0  0  0  0  0  0  0  0  0  0  0  0
  -24.8383  -34.7072   42.9248 C   0  0  0  0  0  0  0  0  0  0  0  0
  -24.5875  -33.8281   38.6643 C   0  0  0  0  0  0  0  0  0  0  0  0
  -24.0353  -35.5500   43.4859 O   0  0  0  0  0  0  0  0  0  0  0  0
  -25.4392  -33.8599   37.4799 N   0  0  0  0  0  0  0  0  0  0  0  0
  -26.0756  -35.1100   42.7510 O   0  0  0  0  0  0  0  0  0  0  0  0
  -23.2684  -33.8714   38.2251 C   0  0  0  0  0  0  0  0  0  0  0  0
  -23.1555  -33.9627   36.8247 C   0  0  0  0  0  0  0  0  0  0  0  0
  -24.4524  -33.9284   36.3816 N   0  0  0  0  0  0  0  0  0  0  0  0
  -22.1323  -34.0735   36.0495 O   0  0  0  0  0  0  0  0  0  0  0  0
  1  2  2  0
  2  3  1  0
  1  4  1  0
  2  5  1  0
  5  6  1  0
  3  7  2  0
  6  8  1  0
  7  9  1  0
  6 10  2  0
  4 11  2  0
  7 11  1  0
 11 12  1  0
  9 13  2  0
 12 13  1  0
 12 14  2  0
M  END
>  <ID>  (1) 
conformer_0

$$$$
