
     RDKit          3D

 14 15  0  0  0  0  0  0  0  0999 V2000
  -24.1502  -33.8208   36.1259 C   0  0  0  0  0  0  0  0  0  0  0  0
  -23.2576  -33.6207   35.3473 C   0  0  0  0  0  0  0  0  0  0  0  0
  -25.4644  -33.7900   35.8037 O   0  0  0  0  0  0  0  0  0  0  0  0
  -23.9218  -33.7528   37.5748 C   0  0  0  0  0  0  0  0  0  0  0  0
  -23.4960  -33.5645   34.0527 O   0  0  0  0  0  0  0  0  0  0  0  0
  -22.5416  -33.6542   37.9126 C   0  0  0  0  0  0  0  0  0  0  0  0
  -21.5939  -33.5736   37.0619 N   0  0  0  0  0  0  0  0  0  0  0  0
  -21.9103  -33.5211   35.7525 N   0  0  0  0  0  0  0  0  0  0  0  0
  -24.8929  -33.9670   38.6539 C   0  0  0  0  0  0  0  0  0  0  0  0
  -24.1932  -34.0241   39.8347 C   0  0  0  0  0  0  0  0  0  0  0  0
  -22.4396  -33.7711   39.4202 S   0  0  0  0  0  0  0  0  0  0  0  0
  -24.6285  -34.2062   41.2293 C   0  0  0  0  0  0  0  0  0  0  0  0
  -23.9772  -34.6662   42.1018 O   0  0  0  0  0  0  0  0  0  0  0  0
  -25.8620  -33.9040   41.3783 O   0  0  0  0  0  0  0  0  0  0  0  0
  1  2  1  0
  1  3  1  0
  1  4  2  0
  2  5  2  0
  4  6  1  0
  6  7  2  0
  2  8  1  0
  7  8  1  0
  4  9  1  0
  9 10  2  0
  6 11  1  0
 10 11  1  0
 10 12  1  0
 12 13  1  0
 12 14  2  0
M  END
>  <ID>  (1) 
conformer_0

$$$$
