
     RDKit          3D

 10 11  0  0  0  0  0  0  0  0999 V2000
  -22.2475  -33.6469   36.6196 N   0  0  0  0  0  0  0  0  0  0  0  0
  -22.5181  -33.7307   37.9486 C   0  0  0  0  0  0  0  0  0  0  0  0
  -23.9766  -33.9117   38.0499 C   0  0  0  0  0  0  0  0  0  0  0  0
  -22.1229  -33.7283   39.2325 C   0  0  0  0  0  0  0  0  0  0  0  0
  -22.6644  -33.8439   40.3967 C   0  0  0  0  0  0  0  0  0  0  0  0
  -24.5015  -33.7926   36.7441 N   0  0  0  0  0  0  0  0  0  0  0  0
  -24.0183  -33.9352   40.3621 N   0  0  0  0  0  0  0  0  0  0  0  0
  -23.3720  -33.6678   35.9191 C   0  0  0  0  0  0  0  0  0  0  0  0
  -24.6785  -33.9550   39.2146 C   0  0  0  0  0  0  0  0  0  0  0  0
  -23.3700  -33.4908   34.5190 C   0  0  0  0  0  0  0  0  0  0  0  0
  1  2  1  0
  2  3  2  0
  2  4  1  0
  4  5  2  0
  3  6  1  0
  5  7  1  0
  1  8  1  0
  6  8  2  0
  3  9  1  0
  7  9  2  0
  8 10  1  0
M  END
>  <ID>  (1) 
conformer_0

$$$$
