
     RDKit          3D

  7  7  0  0  0  0  0  0  0  0999 V2000
  -22.0135  -33.6904   38.0585 C   0  0  0  0  0  0  0  0  0  0  0  0
  -23.1157  -33.7375   37.1766 C   0  0  0  0  0  0  0  0  0  0  0  0
  -23.0444  -33.7252   35.8063 N   0  0  0  0  0  0  0  0  0  0  0  0
  -22.1289  -33.8098   39.3704 C   0  0  0  0  0  0  0  0  0  0  0  0
  -23.2840  -33.9046   39.9999 N   0  0  0  0  0  0  0  0  0  0  0  0
  -24.3040  -33.9192   37.9208 C   0  0  0  0  0  0  0  0  0  0  0  0
  -24.3833  -34.0201   39.4112 C   0  0  0  0  0  0  0  0  0  0  0  0
  1  2  1  0
  2  3  1  0
  1  4  2  0
  4  5  1  0
  2  6  2  0
  5  7  2  0
  6  7  1  0
M  END
>  <ID>  (1) 
conformer_0

$$$$
