
     RDKit          3D

  9 10  0  0  0  0  0  0  0  0999 V2000
  -22.2064  -33.8334   36.8180 N   0  0  0  0  0  0  0  0  0  0  0  0
  -22.5262  -33.8116   38.1386 C   0  0  0  0  0  0  0  0  0  0  0  0
  -23.1357  -33.6449   35.8493 C   0  0  0  0  0  0  0  0  0  0  0  0
  -23.9596  -33.7978   38.4772 C   0  0  0  0  0  0  0  0  0  0  0  0
  -21.7741  -34.0656   39.2262 C   0  0  0  0  0  0  0  0  0  0  0  0
  -22.6346  -33.9649   40.3585 C   0  0  0  0  0  0  0  0  0  0  0  0
  -24.4729  -33.6915   36.7913 S   0  0  0  0  0  0  0  0  0  0  0  0
  -24.3422  -33.8485   39.7748 C   0  0  0  0  0  0  0  0  0  0  0  0
  -23.0145  -33.4763   34.5471 N   0  0  0  0  0  0  0  0  0  0  0  0
  1  2  1  0
  1  3  2  0
  2  4  2  0
  2  5  1  0
  5  6  2  0
  3  7  1  0
  4  7  1  0
  4  8  1  0
  6  8  1  0
  3  9  1  0
M  END
>  <ID>  (1) 
conformer_0

$$$$
