
     RDKit          3D

 14 15  0  0  0  0  0  0  0  0999 V2000
  -22.2475  -33.6469   36.6196 N   0  0  0  0  0  0  0  0  0  0  0  0
  -22.5181  -33.7307   37.9486 C   0  0  0  0  0  0  0  0  0  0  0  0
  -23.9766  -33.9117   38.0499 C   0  0  0  0  0  0  0  0  0  0  0  0
  -21.9502  -33.8557   39.1045 C   0  0  0  0  0  0  0  0  0  0  0  0
  -24.6921  -33.5689   36.8462 N   0  0  0  0  0  0  0  0  0  0  0  0
  -23.1351  -33.4470   35.6482 C   0  0  0  0  0  0  0  0  0  0  0  0
  -22.9206  -33.9771   40.0974 C   0  0  0  0  0  0  0  0  0  0  0  0
  -22.4879  -33.3741   34.2868 N   0  0  0  0  0  0  0  0  0  0  0  0
  -24.2323  -33.8977   39.4522 N   0  0  0  0  0  0  0  0  0  0  0  0
  -25.4841  -33.9404   40.0413 C   0  0  0  0  0  0  0  0  0  0  0  0
  -24.3329  -33.5028   35.7593 C   0  0  0  0  0  0  0  0  0  0  0  0
  -25.3943  -33.7657   41.4377 C   0  0  0  0  0  0  0  0  0  0  0  0
  -26.1909  -33.2664   42.0745 O   0  0  0  0  0  0  0  0  0  0  0  0
  -24.1842  -34.1068   42.0675 O   0  0  0  0  0  0  0  0  0  0  0  0
  1  2  1  0
  2  3  2  0
  2  4  1  0
  3  5  1  0
  1  6  2  0
  4  7  2  0
  6  8  1  0
  3  9  1  0
  7  9  1  0
  9 10  1  0
  5 11  2  0
  6 11  1  0
 10 12  1  0
 12 13  2  0
 12 14  1  0
M  END
>  <ID>  (1) 
conformer_0

$$$$
