
     RDKit          3D

 13 14  0  0  0  0  0  0  0  0999 V2000
  -22.6732  -33.6036   36.9647 C   0  0  0  0  0  0  0  0  0  0  0  0
  -22.5332  -33.7020   38.1926 C   0  0  0  0  0  0  0  0  0  0  0  0
  -23.8006  -33.9698   38.9875 C   0  0  0  0  0  0  0  0  0  0  0  0
  -24.9633  -33.8295   38.1475 C   0  0  0  0  0  0  0  0  0  0  0  0
  -26.1643  -34.0775   38.9779 N   0  0  0  0  0  0  0  0  0  0  0  0
  -25.6438  -33.8733   40.3152 C   0  0  0  0  0  0  0  0  0  0  0  0
  -26.4441  -34.1223   41.4619 N   0  0  0  0  0  0  0  0  0  0  0  0
  -24.0101  -34.1769   40.3449 C   0  0  0  0  0  0  0  0  0  0  0  0
  -24.8202  -33.6741   36.7819 C   0  0  0  0  0  0  0  0  0  0  0  0
  -26.0741  -33.5898   36.0536 O   0  0  0  0  0  0  0  0  0  0  0  0
  -23.6807  -33.5024   36.1644 C   0  0  0  0  0  0  0  0  0  0  0  0
  -23.5022  -33.4131   41.3609 O   0  0  0  0  0  0  0  0  0  0  0  0
  -23.6543  -33.2719   34.8562 O   0  0  0  0  0  0  0  0  0  0  0  0
  1  2  1  0
  2  3  2  0
  3  4  1  0
  4  5  1  0
  5  6  2  0
  6  7  1  0
  3  8  1  0
  6  8  1  0
  4  9  2  0
  9 10  1  0
  1 11  2  0
  9 11  1  0
  8 12  1  0
 11 13  1  0
M  END
>  <ID>  (1) 
conformer_0

$$$$
