
     RDKit          3D

  7  7  0  0  0  0  0  0  0  0999 V2000
  -21.8758  -33.6729   37.9171 N   0  0  0  0  0  0  0  0  0  0  0  0
  -22.2650  -33.7282   39.1483 C   0  0  0  0  0  0  0  0  0  0  0  0
  -22.8697  -33.6231   36.8065 C   0  0  0  0  0  0  0  0  0  0  0  0
  -23.5728  -33.8093   39.5282 N   0  0  0  0  0  0  0  0  0  0  0  0
  -22.4875  -33.5804   35.5142 N   0  0  0  0  0  0  0  0  0  0  0  0
  -24.4770  -33.8464   38.5848 C   0  0  0  0  0  0  0  0  0  0  0  0
  -24.1368  -33.7826   37.2316 C   0  0  0  0  0  0  0  0  0  0  0  0
  1  2  1  0
  1  3  2  0
  2  4  2  0
  3  5  1  0
  4  6  1  0
  3  7  1  0
  6  7  2  0
M  END
>  <ID>  (1) 
conformer_0

$$$$
