
     RDKit          3D

 15 16  0  0  0  0  0  0  0  0999 V2000
  -22.1758  -33.5755   39.2933 C   0  0  0  0  0  0  0  0  0  0  0  0
  -22.7766  -33.6341   38.0208 C   0  0  0  0  0  0  0  0  0  0  0  0
  -22.1400  -33.5885   36.8554 N   0  0  0  0  0  0  0  0  0  0  0  0
  -24.1440  -34.0797   38.0195 C   0  0  0  0  0  0  0  0  0  0  0  0
  -22.9632  -33.7662   40.4087 C   0  0  0  0  0  0  0  0  0  0  0  0
  -22.4299  -33.6292   41.7046 O   0  0  0  0  0  0  0  0  0  0  0  0
  -24.6257  -34.1045   36.6826 N   0  0  0  0  0  0  0  0  0  0  0  0
  -24.2861  -34.0913   40.3297 C   0  0  0  0  0  0  0  0  0  0  0  0
  -25.0393  -34.2382   41.5613 C   0  0  0  0  0  0  0  0  0  0  0  0
  -22.9200  -33.6476   35.7382 C   0  0  0  0  0  0  0  0  0  0  0  0
  -22.1183  -33.3819   34.5040 N   0  0  0  0  0  0  0  0  0  0  0  0
  -23.9539  -33.8205   35.6592 C   0  0  0  0  0  0  0  0  0  0  0  0
  -24.9632  -34.2055   39.1333 C   0  0  0  0  0  0  0  0  0  0  0  0
  -24.6206  -35.0727   42.4057 O   0  0  0  0  0  0  0  0  0  0  0  0
  -25.2631  -35.3168   43.7137 C   0  0  0  0  0  0  0  0  0  0  0  0
  1  2  1  0
  2  3  1  0
  2  4  2  0
  1  5  2  0
  5  6  1  0
  4  7  1  0
  5  8  1  0
  8  9  1  0
  3 10  2  0
 10 11  1  0
  7 12  2  0
 10 12  1  0
  4 13  1  0
  8 13  2  0
  9 14  1  0
 14 15  1  0
M  END
>  <ID>  (1) 
conformer_0

$$$$
