
     RDKit          3D

 15 17  0  0  0  0  0  0  0  0999 V2000
  -23.8229  -33.0005   34.8667 C   0  0  0  0  0  0  0  0  0  0  0  0
  -24.6768  -33.2384   35.8649 N   0  0  0  0  0  0  0  0  0  0  0  0
  -24.2054  -33.6136   37.1119 C   0  0  0  0  0  0  0  0  0  0  0  0
  -22.7097  -33.6134   36.9230 C   0  0  0  0  0  0  0  0  0  0  0  0
  -22.1822  -33.4520   35.8057 N   0  0  0  0  0  0  0  0  0  0  0  0
  -22.0948  -33.9495   38.1800 N   0  0  0  0  0  0  0  0  0  0  0  0
  -23.0507  -34.0549   39.2096 C   0  0  0  0  0  0  0  0  0  0  0  0
  -22.9196  -34.3653   40.4445 N   0  0  0  0  0  0  0  0  0  0  0  0
  -23.9397  -34.5561   41.2325 C   0  0  0  0  0  0  0  0  0  0  0  0
  -22.6650  -33.1221   34.7975 C   0  0  0  0  0  0  0  0  0  0  0  0
  -25.0679  -34.3768   40.4939 N   0  0  0  0  0  0  0  0  0  0  0  0
  -23.8918  -34.8089   42.6321 N   0  0  0  0  0  0  0  0  0  0  0  0
  -24.3171  -33.8925   38.4230 C   0  0  0  0  0  0  0  0  0  0  0  0
  -25.5011  -33.9929   39.2619 C   0  0  0  0  0  0  0  0  0  0  0  0
  -24.8190  -34.2695   43.4250 O   0  0  0  0  0  0  0  0  0  0  0  0
  1  2  1  0
  2  3  2  0
  3  4  1  0
  4  5  1  0
  4  6  2  0
  6  7  1  0
  7  8  1  0
  8  9  2  0
  1 10  2  0
  5 10  2  0
  9 11  1  0
  9 12  1  0
  3 13  1  0
  7 13  2  0
 11 14  1  0
 13 14  1  0
 12 15  1  0
M  END
>  <ID>  (1) 
conformer_0

$$$$
