
     RDKit          3D

 12 13  0  0  0  0  0  0  0  0999 V2000
  -23.8229  -33.0005   34.8667 C   0  0  0  0  0  0  0  0  0  0  0  0
  -24.6768  -33.2384   35.8649 N   0  0  0  0  0  0  0  0  0  0  0  0
  -24.2348  -33.5773   37.1042 C   0  0  0  0  0  0  0  0  0  0  0  0
  -24.8398  -33.8146   38.2778 N   0  0  0  0  0  0  0  0  0  0  0  0
  -22.6916  -33.6042   37.3108 C   0  0  0  0  0  0  0  0  0  0  0  0
  -23.8618  -34.0857   39.1506 C   0  0  0  0  0  0  0  0  0  0  0  0
  -22.6805  -33.9563   38.6938 N   0  0  0  0  0  0  0  0  0  0  0  0
  -24.1322  -34.5226   40.5719 C   0  0  0  0  0  0  0  0  0  0  0  0
  -21.9279  -33.3882   36.2948 N   0  0  0  0  0  0  0  0  0  0  0  0
  -22.4265  -33.1091   35.1285 C   0  0  0  0  0  0  0  0  0  0  0  0
  -24.8562  -35.5158   40.8593 O   0  0  0  0  0  0  0  0  0  0  0  0
  -23.3217  -34.0064   41.4989 O   0  0  0  0  0  0  0  0  0  0  0  0
  1  2  2  0
  2  3  1  0
  3  4  1  0
  3  5  2  0
  4  6  1  0
  5  7  1  0
  6  7  2  0
  6  8  1  0
  5  9  1  0
  1 10  1  0
  9 10  2  0
  8 11  2  0
  8 12  1  0
M  END
>  <ID>  (1) 
conformer_0

$$$$
