
     RDKit          3D

 13 14  0  0  0  0  0  0  0  0999 V2000
  -22.0205  -33.6817   38.4177 C   0  0  0  0  0  0  0  0  0  0  0  0
  -22.4639  -33.6105   37.0503 N   0  0  0  0  0  0  0  0  0  0  0  0
  -22.8798  -33.8307   39.4147 C   0  0  0  0  0  0  0  0  0  0  0  0
  -24.2748  -33.9670   38.7385 C   0  0  0  0  0  0  0  0  0  0  0  0
  -25.3235  -34.1300   39.7613 N   0  0  0  0  0  0  0  0  0  0  0  0
  -24.3268  -33.9322   37.5506 N   0  0  0  0  0  0  0  0  0  0  0  0
  -25.0162  -34.2164   41.0211 C   0  0  0  0  0  0  0  0  0  0  0  0
  -23.3990  -33.6936   36.7835 C   0  0  0  0  0  0  0  0  0  0  0  0
  -23.8038  -34.1953   41.6528 N   0  0  0  0  0  0  0  0  0  0  0  0
  -26.2242  -34.5122   41.9677 O   0  0  0  0  0  0  0  0  0  0  0  0
  -22.7437  -33.9412   40.7736 C   0  0  0  0  0  0  0  0  0  0  0  0
  -25.6629  -34.8558   43.2287 C   0  0  0  0  0  0  0  0  0  0  0  0
  -23.7819  -33.6227   35.1505 C   0  0  0  0  0  0  0  0  0  0  0  0
  1  2  1  0
  1  3  2  0
  3  4  1  0
  4  5  1  0
  4  6  2  0
  5  7  1  0
  2  8  2  0
  6  8  1  0
  7  9  2  0
  7 10  1  0
  3 11  1  0
  9 11  1  0
 10 12  1  0
  8 13  1  0
M  END
>  <ID>  (1) 
conformer_0

$$$$
