
     RDKit          3D

 15 15  0  0  0  0  0  0  0  0999 V2000
  -18.5033   18.0124  -25.2485 C   0  0  0  0  0  0  0  0  0  0  0  0
  -19.6199   15.8988  -30.0332 C   0  0  0  0  0  0  0  0  0  0  0  0
  -20.9078   17.3353  -25.3758 C   0  0  0  0  0  0  0  0  0  0  0  0
  -22.1703   17.9922  -25.9350 C   0  0  0  0  0  0  0  0  0  0  0  0
  -22.9849   18.4515  -24.6879 C   0  0  0  0  0  0  0  0  0  0  0  0
  -20.5775   16.9468  -29.5170 C   0  0  0  0  0  0  0  0  0  0  0  0
  -18.4932   15.4305  -29.1824 C   0  0  0  0  0  0  0  0  0  0  0  0
  -25.0678   17.8205  -23.9133 O   0  0  0  0  0  0  0  0  0  0  0  0
  -20.7540   16.8562  -28.0587 C   0  0  0  0  0  0  0  0  0  0  0  0
  -19.5497   17.0837  -25.8872 C   0  0  0  0  0  0  0  0  0  0  0  0
  -17.2819   17.1035  -24.9166 C   0  0  0  0  0  0  0  0  0  0  0  0
  -24.8826   18.5219  -26.0541 O   0  0  0  0  0  0  0  0  0  0  0  0
  -18.4988   15.7054  -27.7087 C   0  0  0  0  0  0  0  0  0  0  0  0
  -19.4427   16.8239  -27.3245 C   0  0  0  0  0  0  0  0  0  0  0  0
  -24.4330   18.2794  -24.9066 C   0  0  0  0  0  0  0  0  0  0  0  0
  1 10  1  0
  1 11  1  0
  2  6  1  0
  2  7  1  0
  3  4  1  0
  3 10  1  0
  4  5  1  0
  5 15  1  0
  6  9  1  0
  7 13  1  0
  8 15  2  0
  9 14  1  0
 10 14  1  0
 12 15  1  0
 13 14  1  0
M  END
>  <ID>  (1) 
conformer_0

$$$$
