
     RDKit          3D

 31 34  0  0  0  0  0  0  0  0999 V2000
  -20.8684   18.7463  -30.9957 C   0  0  0  0  0  0  0  0  0  0  0  0
  -19.5929   18.2340  -26.1099 C   0  0  0  0  0  0  0  0  0  0  0  0
  -17.2422   17.7047  -26.1005 C   0  0  0  0  0  0  0  0  0  0  0  0
  -19.6301   15.8483  -27.0491 C   0  0  0  0  0  0  0  0  0  0  0  0
  -20.8554   18.8573  -25.7607 C   0  0  0  0  0  0  0  0  0  0  0  0
  -19.2788   17.3659  -27.3137 C   0  0  0  0  0  0  0  0  0  0  0  0
  -20.0102   17.8290  -28.5235 C   0  0  0  0  0  0  0  0  0  0  0  0
  -17.7548   17.5655  -27.5309 C   0  0  0  0  0  0  0  0  0  0  0  0
  -23.8177   18.1503  -29.7705 C   0  0  0  0  0  0  0  0  0  0  0  0
  -20.7779   16.3532  -30.3904 C   0  0  0  0  0  0  0  0  0  0  0  0
  -23.0862   17.2450  -30.6768 C   0  0  0  0  0  0  0  0  0  0  0  0
  -17.3145   16.7154  -28.6909 C   0  0  0  0  0  0  0  0  0  0  0  0
  -24.3744   18.0035  -24.6722 C   0  0  0  0  0  0  0  0  0  0  0  0
  -23.4525   15.9816  -30.5794 O   0  0  0  0  0  0  0  0  0  0  0  0
  -24.5880   16.4246  -22.0452 C   0  0  0  0  0  0  0  0  0  0  0  0
  -20.7316   20.1344  -25.4184 O   0  0  0  0  0  0  0  0  0  0  0  0
  -22.9580   18.0624  -24.5445 C   0  0  0  0  0  0  0  0  0  0  0  0
  -18.3740   16.2136  -29.6594 C   0  0  0  0  0  0  0  0  0  0  0  0
  -25.2575   17.7675  -29.7459 C   0  0  0  0  0  0  0  0  0  0  0  0
  -25.7767   17.4056  -30.8980 O   0  0  0  0  0  0  0  0  0  0  0  0
  -22.4107   17.0732  -23.6171 C   0  0  0  0  0  0  0  0  0  0  0  0
  -22.1559   18.2855  -25.7145 C   0  0  0  0  0  0  0  0  0  0  0  0
  -26.0955   18.2512  -28.6917 C   0  0  0  0  0  0  0  0  0  0  0  0
  -18.3069   18.6561  -25.4456 C   0  0  0  0  0  0  0  0  0  0  0  0
  -19.3668   18.2941  -30.7939 C   0  0  0  0  0  0  0  0  0  0  0  0
  -25.7837   17.0078  -22.7696 C   0  0  0  0  0  0  0  0  0  0  0  0
  -21.6537   17.4296  -31.0442 C   0  0  0  0  0  0  0  0  0  0  0  0
  -24.9060   18.3530  -25.9939 C   0  0  0  0  0  0  0  0  0  0  0  0
  -23.3302   16.2587  -22.8542 C   0  0  0  0  0  0  0  0  0  0  0  0
  -25.3530   18.1301  -23.6196 C   0  0  0  0  0  0  0  0  0  0  0  0
  -19.5994   17.1441  -29.7918 C   0  0  0  0  0  0  0  0  0  0  0  0
  1 25  1  0
  1 27  1  0
  2  5  1  0
  2  6  1  0
  2 24  1  0
  3  8  1  0
  3 24  1  0
  4  6  1  0
  5 16  1  0
  5 22  1  0
  6  7  1  0
  6  8  1  0
  7 31  1  0
  8 12  1  0
  9 11  1  0
  9 19  1  0
 10 27  1  0
 10 31  1  0
 11 14  1  0
 11 27  1  0
 12 18  1  0
 13 17  1  0
 13 28  1  0
 13 30  1  0
 15 26  1  0
 15 29  1  0
 17 21  1  0
 17 22  1  0
 18 31  1  0
 19 20  1  0
 19 23  1  0
 21 29  1  0
 25 31  1  0
 26 30  1  0
M  END
>  <ID>  (1) 
conformer_0

$$$$
