
     RDKit          3D

 27 31  0  0  0  0  0  0  0  0999 V2000
  -24.0956   18.0429  -25.5180 C   0  0  0  0  0  0  0  0  0  0  0  0
  -21.8405   17.3662  -25.0081 C   0  0  0  0  0  0  0  0  0  0  0  0
  -22.3871   16.5742  -22.6400 O   0  0  0  0  0  0  0  0  0  0  0  0
  -16.8894   18.5395  -26.5682 C   0  0  0  0  0  0  0  0  0  0  0  0
  -19.9832   17.2943  -26.6629 C   0  0  0  0  0  0  0  0  0  0  0  0
  -21.4296   17.5450  -26.3261 C   0  0  0  0  0  0  0  0  0  0  0  0
  -20.6480   17.2972  -31.2660 C   0  0  0  0  0  0  0  0  0  0  0  0
  -18.5621   17.0691  -30.3202 C   0  0  0  0  0  0  0  0  0  0  0  0
  -23.7030   17.0070  -29.4027 O   0  0  0  0  0  0  0  0  0  0  0  0
  -18.7611   17.1451  -25.8011 C   0  0  0  0  0  0  0  0  0  0  0  0
  -19.6464   16.5837  -27.9008 C   0  0  0  0  0  0  0  0  0  0  0  0
  -25.3482   18.4052  -25.1546 C   0  0  0  0  0  0  0  0  0  0  0  0
  -23.1425   17.4907  -24.6331 C   0  0  0  0  0  0  0  0  0  0  0  0
  -23.7162   18.2298  -26.8388 C   0  0  0  0  0  0  0  0  0  0  0  0
  -17.9522   17.7360  -29.1693 O   0  0  0  0  0  0  0  0  0  0  0  0
  -17.4787   17.1516  -26.6958 C   0  0  0  0  0  0  0  0  0  0  0  0
  -18.6329   15.5935  -28.1660 C   0  0  0  0  0  0  0  0  0  0  0  0
  -25.8355   17.5085  -22.9567 C   0  0  0  0  0  0  0  0  0  0  0  0
  -22.0407   17.4096  -30.9261 C   0  0  0  0  0  0  0  0  0  0  0  0
  -26.1125   18.1921  -24.1251 C   0  0  0  0  0  0  0  0  0  0  0  0
  -18.0390   16.8443  -28.0590 C   0  0  0  0  0  0  0  0  0  0  0  0
  -22.4387   17.9701  -27.1873 C   0  0  0  0  0  0  0  0  0  0  0  0
  -22.2682   16.7130  -29.5935 C   0  0  0  0  0  0  0  0  0  0  0  0
  -20.7944   16.5579  -28.9909 C   0  0  0  0  0  0  0  0  0  0  0  0
  -24.6194   17.0183  -22.6108 C   0  0  0  0  0  0  0  0  0  0  0  0
  -19.9498   16.4220  -30.2566 C   0  0  0  0  0  0  0  0  0  0  0  0
  -23.4041   17.0599  -23.3081 C   0  0  0  0  0  0  0  0  0  0  0  0
  1 12  1  0
  1 13  2  0
  1 14  1  0
  2  6  2  0
  2 13  1  0
  3 27  1  0
  4 16  1  0
  5  6  1  0
  5 10  1  0
  5 11  1  0
  6 22  1  0
  7 19  1  0
  7 26  1  0
  8 15  1  0
  8 26  1  0
  9 23  1  0
 10 16  1  0
 11 17  1  0
 11 24  1  0
 12 20  2  0
 13 27  1  0
 14 22  2  0
 15 21  1  0
 16 21  1  0
 17 21  1  0
 18 20  1  0
 18 25  1  0
 19 23  1  0
 23 24  1  0
 24 26  1  0
 25 27  2  0
M  END
>  <ID>  (1) 
conformer_0

$$$$
