
     RDKit          3D

 35 38  0  0  0  0  0  0  0  0999 V2000
  -18.5061   15.0668  -32.9189 O   0  0  0  0  0  0  0  0  0  0  0  0
  -19.3717   18.5397  -26.2900 C   0  0  0  0  0  0  0  0  0  0  0  0
  -19.8719   16.1343  -30.0093 C   0  0  0  0  0  0  0  0  0  0  0  0
  -18.6507   15.3978  -30.5071 C   0  0  0  0  0  0  0  0  0  0  0  0
  -25.0392   17.7377  -23.5592 C   0  0  0  0  0  0  0  0  0  0  0  0
  -24.9508   16.6221  -22.5210 C   0  0  0  0  0  0  0  0  0  0  0  0
  -19.1180   17.2375  -31.9681 C   0  0  0  0  0  0  0  0  0  0  0  0
  -18.3544   19.5436  -27.0597 C   0  0  0  0  0  0  0  0  0  0  0  0
  -23.4539   16.0540  -22.7112 S   0  0  0  0  0  0  0  0  0  0  0  0
  -17.6038   16.7939  -25.8518 C   0  0  0  0  0  0  0  0  0  0  0  0
  -17.1080   19.3760  -27.0050 O   0  0  0  0  0  0  0  0  0  0  0  0
  -23.0372   18.0639  -29.3472 C   0  0  0  0  0  0  0  0  0  0  0  0
  -17.6588   17.4240  -24.4048 C   0  0  0  0  0  0  0  0  0  0  0  0
  -24.1608   18.2723  -29.7338 O   0  0  0  0  0  0  0  0  0  0  0  0
  -21.7471   17.1008  -30.8643 C   0  0  0  0  0  0  0  0  0  0  0  0
  -26.1715   18.4661  -23.4084 F   0  0  0  0  0  0  0  0  0  0  0  0
  -24.6106   18.2143  -25.8970 C   0  0  0  0  0  0  0  0  0  0  0  0
  -18.7306   17.2000  -26.7528 C   0  0  0  0  0  0  0  0  0  0  0  0
  -22.4810   18.1330  -26.8582 C   0  0  0  0  0  0  0  0  0  0  0  0
  -18.9268   20.1090  -28.1961 C   0  0  0  0  0  0  0  0  0  0  0  0
  -18.3155   18.2879  -31.2130 C   0  0  0  0  0  0  0  0  0  0  0  0
  -21.9736   17.1935  -29.4517 N   0  0  0  0  0  0  0  0  0  0  0  0
  -21.9038   17.8681  -25.6525 C   0  0  0  0  0  0  0  0  0  0  0  0
  -18.3134   15.9146  -31.9118 C   0  0  0  0  0  0  0  0  0  0  0  0
  -19.6751   16.5244  -27.6438 N   0  0  0  0  0  0  0  0  0  0  0  0
  -20.5146   18.1041  -25.4885 O   0  0  0  0  0  0  0  0  0  0  0  0
  -19.2936   17.7646  -33.3474 C   0  0  0  0  0  0  0  0  0  0  0  0
  -22.6259   17.1699  -31.6687 O   0  0  0  0  0  0  0  0  0  0  0  0
  -22.7298   17.4389  -24.6106 C   0  0  0  0  0  0  0  0  0  0  0  0
  -24.1051   17.7414  -24.6717 C   0  0  0  0  0  0  0  0  0  0  0  0
  -25.8500   18.6699  -26.0413 F   0  0  0  0  0  0  0  0  0  0  0  0
  -23.7889   18.2844  -26.9909 C   0  0  0  0  0  0  0  0  0  0  0  0
  -22.2467   16.5653  -23.5567 C   0  0  0  0  0  0  0  0  0  0  0  0
  -20.3595   16.9052  -31.1916 C   0  0  0  0  0  0  0  0  0  0  0  0
  -20.6518   16.6086  -28.8467 C   0  0  0  0  0  0  0  0  0  0  0  0
  1 24  1  0
  2  8  1  0
  2 18  1  0
  2 26  1  0
  3  4  1  0
  3 34  1  0
  3 35  1  0
  4 24  1  0
  5  6  1  0
  5 16  1  0
  5 30  1  0
  6  9  1  0
  7 21  1  0
  7 24  1  0
  7 27  1  0
  7 34  1  0
  8 11  2  0
  8 20  1  0
  9 33  1  0
 10 13  1  0
 10 18  1  0
 12 14  2  0
 12 22  1  0
 15 22  1  0
 15 28  2  0
 15 34  1  0
 17 30  2  0
 17 31  1  0
 17 32  1  0
 18 25  1  0
 19 23  1  0
 19 32  2  0
 22 35  1  0
 23 26  1  0
 23 29  1  0
 25 35  2  3
 29 30  1  0
 29 33  1  0
M  END
>  <ID>  (1) 
conformer_0

$$$$
