
     RDKit          3D

 10  9  0  0  0  0  0  0  0  0999 V2000
  -18.4800   15.0788  -29.9422 C   0  0  0  0  0  0  0  0  0  0  0  0
  -22.7258   17.1934  -23.4775 O   0  0  0  0  0  0  0  0  0  0  0  0
  -17.2663   16.9580  -28.9686 O   0  0  0  0  0  0  0  0  0  0  0  0
  -20.1820   15.9299  -27.3860 C   0  0  0  0  0  0  0  0  0  0  0  0
  -20.5777   16.4576  -26.0046 C   0  0  0  0  0  0  0  0  0  0  0  0
  -18.0482   15.9068  -28.8508 C   0  0  0  0  0  0  0  0  0  0  0  0
  -21.8523   17.0410  -25.8481 N   0  0  0  0  0  0  0  0  0  0  0  0
  -23.4527   18.1655  -24.3521 C   0  0  0  0  0  0  0  0  0  0  0  0
  -18.6559   15.5786  -27.5079 C   0  0  0  0  0  0  0  0  0  0  0  0
  -22.6752   18.1895  -25.6916 C   0  0  0  0  0  0  0  0  0  0  0  0
  1  6  1  0
  2  8  1  0
  3  6  1  0
  4  5  1  0
  4  9  1  0
  5  7  1  0
  6  9  1  0
  7 10  1  0
  8 10  1  0
M  END
>  <ID>  (1) 
conformer_0

$$$$
