
     RDKit          3D

 27 30  0  0  0  0  0  0  0  0999 V2000
  -18.5014   16.5440  -27.5656 C   0  0  0  0  0  0  0  0  0  0  0  0
  -23.9152   17.5023  -30.1947 C   0  0  0  0  0  0  0  0  0  0  0  0
  -22.7485   15.5086  -30.4857 C   0  0  0  0  0  0  0  0  0  0  0  0
  -25.6275   18.3492  -25.0741 C   0  0  0  0  0  0  0  0  0  0  0  0
  -22.4289   18.4082  -26.5337 C   0  0  0  0  0  0  0  0  0  0  0  0
  -17.3836   17.1134  -25.5121 C   0  0  0  0  0  0  0  0  0  0  0  0
  -19.4551   17.5607  -27.3336 C   0  0  0  0  0  0  0  0  0  0  0  0
  -22.5490   16.5105  -22.6251 Cl  0  0  0  0  0  0  0  0  0  0  0  0
  -23.8716   16.2562  -30.6930 N   0  0  0  0  0  0  0  0  0  0  0  0
  -22.1473   17.7841  -25.3745 N   0  0  0  0  0  0  0  0  0  0  0  0
  -24.3347   18.2589  -25.5097 C   0  0  0  0  0  0  0  0  0  0  0  0
  -23.6292   17.1387  -23.4445 C   0  0  0  0  0  0  0  0  0  0  0  0
  -21.6882   15.9264  -29.7563 N   0  0  0  0  0  0  0  0  0  0  0  0
  -24.9537   17.1709  -23.0131 C   0  0  0  0  0  0  0  0  0  0  0  0
  -22.8345   17.9901  -29.5414 C   0  0  0  0  0  0  0  0  0  0  0  0
  -18.2581   18.1512  -25.2779 C   0  0  0  0  0  0  0  0  0  0  0  0
  -19.2684   18.3915  -26.2252 C   0  0  0  0  0  0  0  0  0  0  0  0
  -18.6106   15.6730  -28.7446 F   0  0  0  0  0  0  0  0  0  0  0  0
  -25.0858   18.3330  -30.3039 C   0  0  0  0  0  0  0  0  0  0  0  0
  -23.3317   17.6960  -24.7104 C   0  0  0  0  0  0  0  0  0  0  0  0
  -17.5000   16.3201  -26.6606 C   0  0  0  0  0  0  0  0  0  0  0  0
  -25.9149   17.7851  -23.8097 C   0  0  0  0  0  0  0  0  0  0  0  0
  -21.7732   17.1943  -29.2415 C   0  0  0  0  0  0  0  0  0  0  0  0
  -21.4355   18.9248  -27.5674 C   0  0  0  0  0  0  0  0  0  0  0  0
  -23.7424   18.6610  -26.6852 O   0  0  0  0  0  0  0  0  0  0  0  0
  -20.6095   17.7974  -28.3807 C   0  0  0  0  0  0  0  0  0  0  0  0
  -19.7478   18.3886  -29.5425 O   0  0  0  0  0  0  0  0  0  0  0  0
  1  7  2  0
  1 18  1  0
  1 21  1  0
  2  9  2  0
  2 15  1  0
  2 19  1  0
  3  9  1  0
  3 13  2  0
  4 11  2  0
  4 22  1  0
  5 10  1  0
  5 24  1  0
  5 25  1  0
  6 16  1  0
  6 21  2  0
  7 17  1  0
  7 26  1  0
  8 12  1  0
 10 20  1  0
 11 20  1  0
 11 25  1  0
 12 14  1  0
 12 20  2  0
 13 23  1  0
 14 22  2  0
 15 23  2  0
 16 17  2  0
 23 26  1  0
 24 26  1  0
 26 27  1  0
M  END
>  <ID>  (1) 
conformer_0

$$$$
