
     RDKit          3D

 18 19  0  0  0  0  0  0  0  0999 V2000
  -21.6517   18.8496  -29.2041 C   0  0  0  0  0  0  0  0  0  0  0  0
  -22.5906   16.6973  -23.3663 C   0  0  0  0  0  0  0  0  0  0  0  0
  -20.5702   18.5017  -28.4157 C   0  0  0  0  0  0  0  0  0  0  0  0
  -20.0692   17.2223  -28.3875 C   0  0  0  0  0  0  0  0  0  0  0  0
  -18.5443   15.3089  -27.6112 C   0  0  0  0  0  0  0  0  0  0  0  0
  -20.2589   17.8509  -25.4933 C   0  0  0  0  0  0  0  0  0  0  0  0
  -22.2254   17.8958  -30.0214 C   0  0  0  0  0  0  0  0  0  0  0  0
  -17.7788   17.0188  -25.1688 C   0  0  0  0  0  0  0  0  0  0  0  0
  -20.6291   16.2872  -29.2105 C   0  0  0  0  0  0  0  0  0  0  0  0
  -24.1023   18.1610  -24.6007 C   0  0  0  0  0  0  0  0  0  0  0  0
  -17.7008   17.6654  -27.9293 C   0  0  0  0  0  0  0  0  0  0  0  0
  -18.8979   16.8188  -27.4650 C   0  0  0  0  0  0  0  0  0  0  0  0
  -19.1588   17.0250  -25.9459 C   0  0  0  0  0  0  0  0  0  0  0  0
  -21.7153   17.3727  -25.5438 C   0  0  0  0  0  0  0  0  0  0  0  0
  -21.6857   16.6284  -30.0270 C   0  0  0  0  0  0  0  0  0  0  0  0
  -24.8923   17.5029  -23.5455 O   0  0  0  0  0  0  0  0  0  0  0  0
  -22.6343   17.8164  -24.4388 C   0  0  0  0  0  0  0  0  0  0  0  0
  -24.0177   16.5971  -22.7558 C   0  0  0  0  0  0  0  0  0  0  0  0
  1  3  2  0
  1  7  1  0
  2 17  1  0
  2 18  1  0
  3  4  1  0
  4  9  2  0
  4 12  1  0
  5 12  1  0
  6 13  1  0
  6 14  1  0
  7 15  2  0
  8 13  1  0
  9 15  1  0
 10 16  1  0
 10 17  1  0
 11 12  1  0
 12 13  1  0
 14 17  1  0
 16 18  1  0
M  END
>  <ID>  (1) 
conformer_0

$$$$
