
     RDKit          3D

 20 19  0  0  0  0  0  0  0  0999 V2000
  -18.4308   17.1983  -26.2513 C   0  0  0  0  0  0  0  0  0  0  0  0
  -24.9218   17.6470  -23.5541 O   0  0  0  0  0  0  0  0  0  0  0  0
  -20.4806   17.3123  -28.3593 C   0  0  0  0  0  0  0  0  0  0  0  0
  -20.1364   15.8316  -28.4208 C   0  0  0  0  0  0  0  0  0  0  0  0
  -18.7215   17.5244  -24.9060 C   0  0  0  0  0  0  0  0  0  0  0  0
  -23.2795   18.5006  -25.0579 C   0  0  0  0  0  0  0  0  0  0  0  0
  -17.7908   17.6495  -28.7823 C   0  0  0  0  0  0  0  0  0  0  0  0
  -24.7036   18.3238  -24.7760 C   0  0  0  0  0  0  0  0  0  0  0  0
  -17.2869   17.1664  -25.2428 C   0  0  0  0  0  0  0  0  0  0  0  0
  -21.7458   17.6362  -30.6663 C   0  0  0  0  0  0  0  0  0  0  0  0
  -22.9241   17.7824  -31.1624 O   0  0  0  0  0  0  0  0  0  0  0  0
  -20.6140   17.5642  -31.3251 O   0  0  0  0  0  0  0  0  0  0  0  0
  -20.8768   16.6869  -27.0575 C   0  0  0  0  0  0  0  0  0  0  0  0
  -21.2344   17.4594  -25.7784 N   0  0  0  0  0  0  0  0  0  0  0  0
  -22.3027   17.4399  -24.8489 C   0  0  0  0  0  0  0  0  0  0  0  0
  -22.7540   18.0909  -28.5573 O   0  0  0  0  0  0  0  0  0  0  0  0
  -22.1269   16.7360  -23.8122 O   0  0  0  0  0  0  0  0  0  0  0  0
  -18.6733   15.4025  -28.0210 C   0  0  0  0  0  0  0  0  0  0  0  0
  -21.6548   17.6572  -29.2319 C   0  0  0  0  0  0  0  0  0  0  0  0
  -17.8967   16.6832  -27.5980 C   0  0  0  0  0  0  0  0  0  0  0  0
  1  5  1  0
  1 20  1  0
  2  8  1  0
  3  4  1  0
  3 13  1  0
  3 19  1  0
  4 18  1  0
  5  9  1  0
  6  8  1  0
  6 15  1  0
  7 20  1  0
 10 11  2  0
 10 12  1  0
 10 19  1  0
 13 14  1  0
 14 15  1  0
 15 17  2  0
 16 19  1  0
 18 20  1  0
M  END
>  <ID>  (1) 
conformer_0

$$$$
