
     RDKit          3D

 28 30  0  0  0  0  0  0  0  0999 V2000
  -22.6897   15.7401  -30.3891 O   0  0  0  0  0  0  0  0  0  0  0  0
  -21.9696   18.8229  -27.3030 C   0  0  0  0  0  0  0  0  0  0  0  0
  -23.3088   18.4164  -27.1228 C   0  0  0  0  0  0  0  0  0  0  0  0
  -19.4231   15.6533  -29.5021 C   0  0  0  0  0  0  0  0  0  0  0  0
  -24.6857   17.3453  -23.4126 C   0  0  0  0  0  0  0  0  0  0  0  0
  -20.4470   16.3841  -30.3930 C   0  0  0  0  0  0  0  0  0  0  0  0
  -25.1476   18.2458  -25.5666 N   0  0  0  0  0  0  0  0  0  0  0  0
  -18.8482   17.9875  -27.6953 O   0  0  0  0  0  0  0  0  0  0  0  0
  -18.6047   18.7552  -26.3707 P   0  0  0  0  0  4  0  0  0  0  0  0
  -22.8732   17.8748  -24.8910 C   0  0  0  0  0  0  0  0  0  0  0  0
  -18.3310   17.6443  -25.2057 C   0  0  0  0  0  0  0  0  0  0  0  0
  -17.6691   17.3768  -28.2353 C   0  0  0  0  0  0  0  0  0  0  0  0
  -19.6305   17.3310  -31.2613 C   0  0  0  0  0  0  0  0  0  0  0  0
  -17.4257   19.5907  -26.4875 O   0  0  0  0  0  1  0  0  0  0  0  0
  -19.9210   19.6298  -26.1498 C   0  0  0  0  0  0  0  0  0  0  0  0
  -25.5829   17.8751  -24.3220 C   0  0  0  0  0  0  0  0  0  0  0  0
  -22.4823   16.3885  -22.9970 C   0  0  0  0  0  0  0  0  0  0  0  0
  -21.9216   16.7213  -30.4404 C   0  0  0  0  0  0  0  0  0  0  0  0
  -17.9346   15.9076  -29.9984 C   0  0  0  0  0  0  0  0  0  0  0  0
  -26.1917   18.6131  -26.4524 C   0  0  0  0  0  0  0  0  0  0  0  0
  -17.7762   17.3625  -29.6435 N   0  0  0  0  0  0  0  0  0  0  0  0
  -22.2138   17.9348  -30.6965 O   0  0  0  0  0  0  0  0  0  0  0  0
  -24.2326   18.0674  -28.5187 S   0  0  0  0  0  0  0  0  0  0  0  0
  -21.1419   18.8169  -26.1979 C   0  0  0  0  0  0  0  0  0  0  0  0
  -23.3497   17.2557  -23.7443 C   0  0  0  0  0  0  0  0  0  0  0  0
  -18.7156   18.1711  -30.4028 C   0  0  0  0  0  0  0  0  0  0  0  0
  -21.5641   18.1775  -25.0407 C   0  0  0  0  0  0  0  0  0  0  0  0
  -23.8130   18.1706  -25.8665 C   0  0  0  0  0  0  0  0  0  0  0  0
  1 18  2  0
  2  3  1  0
  2 24  1  0
  3 23  2  0
  3 28  1  0
  4  6  1  0
  4 19  1  0
  5 16  2  0
  5 25  1  0
  6 13  1  0
  6 18  1  0
  7 16  1  0
  7 20  1  0
  7 28  1  0
  8  9  1  0
  8 12  1  0
  9 11  1  0
  9 14  2  0
  9 15  1  0
 10 25  1  0
 10 27  2  0
 10 28  1  0
 12 21  1  0
 13 26  1  0
 15 24  1  0
 17 25  1  0
 18 22  1  0
 19 21  1  0
 21 26  1  0
 24 27  1  0
M  END
>  <ID>  (1) 
conformer_0

$$$$
