
     RDKit          3D

 32 35  0  0  0  0  0  0  0  0999 V2000
  -20.5661   16.2668  -31.3747 C   0  0  0  0  0  0  0  0  0  0  0  0
  -17.5536   16.9003  -29.1134 O   0  0  0  0  0  0  0  0  0  0  0  0
  -22.2830   18.6521  -28.0103 N   0  0  0  0  0  0  0  0  0  0  0  0
  -23.5224   17.2478  -23.9405 C   0  0  0  0  0  0  0  0  0  0  0  0
  -23.2270   16.5014  -22.6910 C   0  0  0  0  0  0  0  0  0  0  0  0
  -22.7445   18.2478  -26.8311 C   0  0  0  0  0  0  0  0  0  0  0  0
  -21.1299   20.5457  -27.6094 O   0  0  0  0  0  0  0  0  0  0  0  0
  -20.3994   18.2050  -29.9630 C   0  0  0  0  0  0  0  0  0  0  0  0
  -17.6535   16.1576  -26.8287 C   0  0  0  0  0  0  0  0  0  0  0  0
  -21.1468   19.4086  -28.0275 C   0  0  0  0  0  0  0  0  0  0  0  0
  -24.8731   17.4974  -23.9430 C   0  0  0  0  0  0  0  0  0  0  0  0
  -20.5232   17.1422  -32.4790 C   0  0  0  0  0  0  0  0  0  0  0  0
  -25.5287   16.9803  -22.7931 C   0  0  0  0  0  0  0  0  0  0  0  0
  -17.5857   16.5786  -25.4761 C   0  0  0  0  0  0  0  0  0  0  0  0
  -20.5500   18.5282  -32.3278 C   0  0  0  0  0  0  0  0  0  0  0  0
  -25.7186   18.2015  -24.9329 C   0  0  0  0  0  0  0  0  0  0  0  0
  -19.9959   18.8162  -28.7013 C   0  0  0  0  0  0  0  0  0  0  0  0
  -20.8786   15.7461  -28.8873 Cl  0  0  0  0  0  0  0  0  0  0  0  0
  -18.6495   19.3139  -28.4727 C   0  0  0  0  0  0  0  0  0  0  0  0
  -18.2236   20.7167  -28.2497 C   0  0  0  0  0  0  0  0  0  0  0  0
  -18.0866   18.4473  -27.4193 C   0  0  0  0  0  0  0  0  0  0  0  0
  -20.5253   19.0329  -31.0495 C   0  0  0  0  0  0  0  0  0  0  0  0
  -22.3624   17.4094  -24.6186 C   0  0  0  0  0  0  0  0  0  0  0  0
  -24.4487   16.3353  -22.0047 O   0  0  0  0  0  0  0  0  0  0  0  0
  -20.5931   16.8157  -30.1516 C   0  0  0  0  0  0  0  0  0  0  0  0
  -21.8773   17.7739  -25.8363 C   0  0  0  0  0  0  0  0  0  0  0  0
  -25.1833   18.5352  -26.1292 C   0  0  0  0  0  0  0  0  0  0  0  0
  -17.8032   17.1381  -27.7975 C   0  0  0  0  0  0  0  0  0  0  0  0
  -17.6445   17.9319  -25.1198 C   0  0  0  0  0  0  0  0  0  0  0  0
  -26.8579   18.4641  -24.6461 O   0  0  0  0  0  0  0  0  0  0  0  0
  -17.9268   18.8494  -26.0894 C   0  0  0  0  0  0  0  0  0  0  0  0
  -24.0238   18.3563  -26.6197 C   0  0  0  0  0  0  0  0  0  0  0  0
  1 12  2  0
  1 25  1  0
  2 28  1  0
  3  6  1  0
  3 10  1  0
  4  5  1  0
  4 11  2  0
  4 23  1  0
  5 24  1  0
  6 26  1  0
  6 32  2  0
  7 10  2  0
  8 17  1  0
  8 22  1  0
  8 25  2  0
  9 14  1  0
  9 28  2  0
 10 17  1  0
 11 13  1  0
 11 16  1  0
 12 15  1  0
 13 24  1  0
 14 29  1  0
 15 22  2  0
 16 27  1  0
 16 30  2  0
 17 19  1  0
 18 25  1  0
 19 20  1  0
 19 21  1  0
 21 28  1  0
 21 31  1  0
 23 26  2  0
 27 32  2  0
 29 31  2  0
M  END
>  <ID>  (1) 
conformer_0

$$$$
