
     RDKit          3D

 30 33  0  0  0  0  0  0  0  0999 V2000
  -18.7852   18.2003  -27.4974 C   0  0  0  0  0  0  0  0  0  0  0  0
  -17.7613   17.3692  -27.5937 C   0  0  0  0  0  0  0  0  0  0  0  0
  -22.0800   18.1038  -27.2049 C   0  0  0  0  0  0  0  0  0  0  0  0
  -23.9745   16.6796  -30.7115 C   0  0  0  0  0  0  0  0  0  0  0  0
  -26.2664   18.7934  -24.7960 C   0  0  0  0  0  0  0  0  0  0  0  0
  -21.9689   17.0616  -29.5241 C   0  0  0  0  0  0  0  0  0  0  0  0
  -20.8175   20.1737  -27.7439 C   0  0  0  0  0  0  0  0  0  0  0  0
  -20.5168   16.9400  -29.5598 N   0  0  0  0  0  0  0  0  0  0  0  0
  -19.6045   18.4810  -26.5231 C   0  0  0  0  0  0  0  0  0  0  0  0
  -19.0144   18.3093  -25.2230 C   0  0  0  0  0  0  0  0  0  0  0  0
  -19.2560   16.2594  -29.3869 C   0  0  0  0  0  0  0  0  0  0  0  0
  -23.7333   18.2223  -25.3011 C   0  0  0  0  0  0  0  0  0  0  0  0
  -17.7567   17.6720  -25.1472 C   0  0  0  0  0  0  0  0  0  0  0  0
  -22.6040   16.5487  -30.5848 C   0  0  0  0  0  0  0  0  0  0  0  0
  -20.8770   20.6341  -28.8454 O   0  0  0  0  0  0  0  0  0  0  0  0
  -21.9572   16.6270  -25.2427 C   0  0  0  0  0  0  0  0  0  0  0  0
  -24.6746   17.3832  -29.7388 C   0  0  0  0  0  0  0  0  0  0  0  0
  -24.1967   17.7323  -24.0651 C   0  0  0  0  0  0  0  0  0  0  0  0
  -17.1146   17.1803  -26.3363 C   0  0  0  0  0  0  0  0  0  0  0  0
  -22.6963   17.6876  -28.4631 C   0  0  0  0  0  0  0  0  0  0  0  0
  -20.8928   18.8846  -27.1140 C   0  0  0  0  0  0  0  0  0  0  0  0
  -22.6278   17.6870  -25.9086 C   0  0  0  0  0  0  0  0  0  0  0  0
  -17.9738   16.1893  -28.6033 C   0  0  0  0  0  0  0  0  0  0  0  0
  -24.0281   17.8901  -28.6501 C   0  0  0  0  0  0  0  0  0  0  0  0
  -25.9865   17.5831  -29.8393 O   0  0  0  0  0  0  0  0  0  0  0  0
  -22.1736   16.3478  -23.8956 C   0  0  0  0  0  0  0  0  0  0  0  0
  -25.6045   17.9362  -23.6982 C   0  0  0  0  0  0  0  0  0  0  0  0
  -21.2180   15.5956  -26.0567 C   0  0  0  0  0  0  0  0  0  0  0  0
  -17.1292   17.4068  -28.8646 O   0  0  0  0  0  0  0  0  0  0  0  0
  -23.3322   16.9157  -23.2748 C   0  0  0  0  0  0  0  0  0  0  0  0
  1  2  1  0
  1  9  1  0
  2 19  1  0
  2 23  1  0
  2 29  1  0
  3 20  1  0
  3 21  1  0
  3 22  1  0
  4 14  1  0
  4 17  1  0
  5 27  1  0
  6  8  1  0
  6 14  2  0
  6 20  1  0
  7 15  2  0
  7 21  1  0
  8 11  1  0
  9 10  2  0
  9 21  1  0
 10 13  1  0
 11 23  1  0
 12 18  1  0
 12 22  2  0
 13 19  2  0
 16 22  1  0
 16 26  1  0
 16 28  1  0
 17 24  2  0
 17 25  1  0
 18 27  1  0
 18 30  1  0
 20 24  1  0
 26 30  2  0
M  END
>  <ID>  (1) 
conformer_0

$$$$
