
     RDKit          3D

 20 21  0  0  0  0  0  0  0  0999 V2000
  -19.6694   16.9941  -30.5178 C   0  0  0  0  0  0  0  0  0  0  0  0
  -24.7290   18.5177  -26.3800 C   0  0  0  0  0  0  0  0  0  0  0  0
  -17.2543   17.4537  -28.4043 O   0  0  0  0  0  0  0  0  0  0  0  0
  -23.8951   18.1745  -25.3774 C   0  0  0  0  0  0  0  0  0  0  0  0
  -20.3666   16.0175  -31.4191 C   0  0  0  0  0  0  0  0  0  0  0  0
  -22.1163   17.3536  -24.2822 C   0  0  0  0  0  0  0  0  0  0  0  0
  -22.5465   17.9079  -25.4756 C   0  0  0  0  0  0  0  0  0  0  0  0
  -19.1042   15.9958  -28.3170 C   0  0  0  0  0  0  0  0  0  0  0  0
  -21.7287   18.0565  -26.6285 C   0  0  0  0  0  0  0  0  0  0  0  0
  -24.3277   17.8428  -24.0770 C   0  0  0  0  0  0  0  0  0  0  0  0
  -19.2183   18.1327  -27.1719 C   0  0  0  0  0  0  0  0  0  0  0  0
  -18.2252   16.9861  -27.5585 C   0  0  0  0  0  0  0  0  0  0  0  0
  -22.1016   15.6754  -29.1422 O   0  0  0  0  0  0  0  0  0  0  0  0
  -23.2360   17.3844  -23.3853 N   0  0  0  0  0  0  0  0  0  0  0  0
  -20.0771   16.8225  -29.1446 C   0  0  0  0  0  0  0  0  0  0  0  0
  -25.7005   17.8677  -23.6183 C   0  0  0  0  0  0  0  0  0  0  0  0
  -17.7441   16.4773  -26.2377 C   0  0  0  0  0  0  0  0  0  0  0  0
  -20.4107   17.4537  -26.4780 C   0  0  0  0  0  0  0  0  0  0  0  0
  -22.2616   17.7895  -27.9813 C   0  0  0  0  0  0  0  0  0  0  0  0
  -21.5247   16.8336  -28.8201 C   0  0  0  0  0  0  0  0  0  0  0  0
  1  5  1  0
  1 15  1  0
  2  4  2  0
  3 12  1  0
  4  7  1  0
  4 10  1  0
  6  7  1  0
  6 14  1  0
  7  9  1  0
  8 12  1  0
  8 15  1  0
  9 18  1  0
  9 19  1  0
 10 14  1  0
 10 16  1  0
 11 12  1  0
 11 18  1  0
 12 17  1  0
 13 20  1  0
 15 20  1  0
 19 20  1  0
M  END
>  <ID>  (1) 
conformer_0

$$$$
