
     RDKit          3D

 21 23  0  0  0  0  0  0  0  0999 V2000
  -22.6363   18.4358  -26.4939 C   0  0  0  0  0  0  0  0  0  0  0  0
  -17.6674   17.9152  -26.4543 C   0  0  0  0  0  0  0  0  0  0  0  0
  -19.0433   18.4028  -26.0945 C   0  0  0  0  0  0  0  0  0  0  0  0
  -23.8308   17.8773  -24.4561 C   0  0  0  0  0  0  0  0  0  0  0  0
  -18.8080   16.7008  -28.4465 C   0  0  0  0  0  0  0  0  0  0  0  0
  -21.0538   17.3538  -28.9736 C   0  0  0  0  0  0  0  0  0  0  0  0
  -21.4064   17.8873  -26.0010 C   0  0  0  0  0  0  0  0  0  0  0  0
  -21.0135   16.6771  -30.1592 C   0  0  0  0  0  0  0  0  0  0  0  0
  -18.7836   15.9421  -29.6473 C   0  0  0  0  0  0  0  0  0  0  0  0
  -25.0261   17.8553  -23.6716 C   0  0  0  0  0  0  0  0  0  0  0  0
  -20.2030   17.9004  -26.7315 C   0  0  0  0  0  0  0  0  0  0  0  0
  -19.1539   19.4029  -25.1982 O   0  0  0  0  0  0  0  0  0  0  0  0
  -20.0187   17.3217  -28.0402 C   0  0  0  0  0  0  0  0  0  0  0  0
  -17.6055   16.9184  -27.5874 C   0  0  0  0  0  0  0  0  0  0  0  0
  -16.8768   19.0537  -26.9130 O   0  0  0  0  0  0  0  0  0  0  0  0
  -17.0203   17.3516  -25.1503 C   0  0  0  0  0  0  0  0  0  0  0  0
  -21.4873   17.3091  -24.7137 C   0  0  0  0  0  0  0  0  0  0  0  0
  -23.8296   18.4334  -25.7507 C   0  0  0  0  0  0  0  0  0  0  0  0
  -19.8779   15.9249  -30.4814 C   0  0  0  0  0  0  0  0  0  0  0  0
  -22.6604   17.3066  -23.9389 C   0  0  0  0  0  0  0  0  0  0  0  0
  -19.9127   15.1283  -31.7623 C   0  0  0  0  0  0  0  0  0  0  0  0
  1  7  2  0
  1 18  1  0
  2  3  1  0
  2 14  1  0
  2 15  1  0
  2 16  1  0
  3 11  1  0
  3 12  1  0
  4 10  1  0
  4 18  2  0
  4 20  1  0
  5  9  2  0
  5 13  1  0
  5 14  1  0
  6  8  1  0
  6 13  2  0
  7 11  1  0
  7 17  1  0
  8 19  2  0
  9 19  1  0
 11 13  1  0
 17 20  2  0
 19 21  1  0
M  END
>  <ID>  (1) 
conformer_0

$$$$
