
     RDKit          3D

 24 27  0  0  0  0  0  0  0  0999 V2000
  -17.5447   16.3845  -29.3718 C   0  0  0  0  0  0  0  0  0  0  0  0
  -18.7766   16.8309  -27.2400 C   0  0  0  0  0  0  0  0  0  0  0  0
  -19.3412   19.0023  -26.3141 C   0  0  0  0  0  0  0  0  0  0  0  0
  -18.1477   18.4128  -25.5162 C   0  0  0  0  0  0  0  0  0  0  0  0
  -24.8132   18.3111  -25.3257 C   0  0  0  0  0  0  0  0  0  0  0  0
  -23.7083   18.2584  -26.1289 C   0  0  0  0  0  0  0  0  0  0  0  0
  -25.9346   17.6708  -23.2538 C   0  0  0  0  0  0  0  0  0  0  0  0
  -22.5052   17.7120  -25.6292 C   0  0  0  0  0  0  0  0  0  0  0  0
  -22.0455   15.6226  -30.4338 O   0  0  0  0  0  0  0  0  0  0  0  0
  -20.0600   16.3183  -29.2743 C   0  0  0  0  0  0  0  0  0  0  0  0
  -20.6144   16.9117  -31.5089 O   0  0  0  0  0  0  0  0  0  0  0  0
  -19.9589   20.0451  -26.0276 O   0  0  0  0  0  0  0  0  0  0  0  0
  -24.7363   17.7956  -24.0173 C   0  0  0  0  0  0  0  0  0  0  0  0
  -19.9917   17.8916  -27.1591 C   0  0  0  0  0  0  0  0  0  0  0  0
  -22.4318   17.2933  -24.3037 C   0  0  0  0  0  0  0  0  0  0  0  0
  -21.2713   17.5154  -26.4598 C   0  0  0  0  0  0  0  0  0  0  0  0
  -23.5194   17.3465  -23.4821 C   0  0  0  0  0  0  0  0  0  0  0  0
  -19.5107   15.6213  -27.8554 C   0  0  0  0  0  0  0  0  0  0  0  0
  -18.1612   16.8559  -25.8597 C   0  0  0  0  0  0  0  0  0  0  0  0
  -17.7028   17.3204  -28.2141 C   0  0  0  0  0  0  0  0  0  0  0  0
  -20.3157   17.8100  -28.7007 C   0  0  0  0  0  0  0  0  0  0  0  0
  -21.8173   18.2454  -28.9995 C   0  0  0  0  0  0  0  0  0  0  0  0
  -21.0084   16.2729  -30.5168 C   0  0  0  0  0  0  0  0  0  0  0  0
  -18.7393   15.7865  -30.0700 C   0  0  0  0  0  0  0  0  0  0  0  0
  1 20  1  0
  1 24  1  0
  2 14  1  0
  2 18  1  0
  2 19  1  0
  2 20  1  0
  3  4  1  0
  3 12  2  0
  3 14  1  0
  4 19  1  0
  5  6  2  0
  5 13  1  0
  6  8  1  0
  7 13  1  0
  8 15  1  0
  8 16  1  0
  9 23  2  0
 10 18  1  0
 10 21  1  0
 10 23  1  0
 10 24  1  0
 11 23  1  0
 13 17  1  0
 14 16  1  0
 14 21  1  0
 15 17  2  0
 21 22  1  0
M  END
>  <ID>  (1) 
conformer_0

$$$$
