
     RDKit          3D

 21 22  0  0  0  0  0  0  0  0999 V2000
  -21.6321   16.7456  -30.7142 C   0  0  0  0  0  0  0  0  0  0  0  0
  -17.4548   17.5526  -24.0013 C   0  0  0  0  0  0  0  0  0  0  0  0
  -23.1338   16.5075  -30.6868 C   0  0  0  0  0  0  0  0  0  0  0  0
  -22.0841   16.8729  -24.0741 C   0  0  0  0  0  0  0  0  0  0  0  0
  -24.2609   17.7006  -23.6774 C   0  0  0  0  0  0  0  0  0  0  0  0
  -21.4074   15.4195  -28.4088 O   0  0  0  0  0  0  0  0  0  0  0  0
  -19.6381   17.3715  -24.9592 C   0  0  0  0  0  0  0  0  0  0  0  0
  -23.1038   18.1079  -25.8337 C   0  0  0  0  0  0  0  0  0  0  0  0
  -20.8856   16.5365  -28.3839 C   0  0  0  0  0  0  0  0  0  0  0  0
  -18.3355   17.2992  -25.1427 C   0  0  0  0  0  0  0  0  0  0  0  0
  -24.2570   18.2435  -24.9901 C   0  0  0  0  0  0  0  0  0  0  0  0
  -20.0632   16.9119  -27.2715 C   0  0  0  0  0  0  0  0  0  0  0  0
  -20.8425   15.7127  -31.5441 C   0  0  0  0  0  0  0  0  0  0  0  0
  -21.9660   17.4276  -25.4046 C   0  0  0  0  0  0  0  0  0  0  0  0
  -23.1542   16.9737  -23.2651 C   0  0  0  0  0  0  0  0  0  0  0  0
  -17.9670   17.1546  -28.7647 C   0  0  0  0  0  0  0  0  0  0  0  0
  -17.8181   16.1021  -29.6147 C   0  0  0  0  0  0  0  0  0  0  0  0
  -20.9303   17.3674  -29.5830 C   0  0  0  0  0  0  0  0  0  0  0  0
  -20.6099   17.2393  -25.9876 C   0  0  0  0  0  0  0  0  0  0  0  0
  -18.6328   16.9765  -27.4399 C   0  0  0  0  0  0  0  0  0  0  0  0
  -17.7924   17.0659  -26.3559 C   0  0  0  0  0  0  0  0  0  0  0  0
  1  3  1  0
  1 13  1  0
  1 18  1  0
  2 10  1  0
  4 14  2  0
  4 15  1  0
  5 11  1  0
  5 15  2  0
  6  9  2  0
  7 10  2  0
  7 19  1  0
  8 11  2  0
  8 14  1  0
  9 12  1  0
  9 18  1  0
 10 21  1  0
 12 19  2  0
 12 20  1  0
 14 19  1  0
 16 17  2  0
 16 20  1  0
 20 21  2  0
M  END
>  <ID>  (1) 
conformer_0

$$$$
