
     RDKit          3D

 27 31  0  0  0  0  0  0  0  0999 V2000
  -20.7909   16.8415  -28.4417 C   0  0  0  0  0  0  0  0  0  0  0  0
  -24.2795   17.7729  -30.3202 C   0  0  0  0  0  0  0  0  0  0  0  0
  -20.9918   17.5302  -27.0934 N   0  0  0  0  0  0  0  0  0  0  0  0
  -23.8416   17.8212  -28.9613 C   0  0  0  0  0  0  0  0  0  0  0  0
  -25.3130   16.7062  -30.5893 C   0  0  0  0  0  0  0  0  0  0  0  0
  -23.0065   17.6264  -31.1567 C   0  0  0  0  0  0  0  0  0  0  0  0
  -18.7799   15.3136  -28.9632 C   0  0  0  0  0  0  0  0  0  0  0  0
  -22.7672   17.6365  -24.8195 C   0  0  0  0  0  0  0  0  0  0  0  0
  -20.8102   16.4488  -30.0799 C   0  0  0  0  0  0  0  0  0  0  0  0
  -23.8794   17.5983  -24.0438 C   0  0  0  0  0  0  0  0  0  0  0  0
  -16.6675   17.5851  -25.3362 C   0  0  0  0  0  0  0  0  0  0  0  0
  -24.9332   18.0272  -24.8465 C   0  0  0  0  0  0  0  0  0  0  0  0
  -22.2427   18.1059  -27.2361 C   0  0  0  0  0  0  0  0  0  0  0  0
  -19.3630   16.4046  -28.1793 N   0  0  0  0  0  0  0  0  0  0  0  0
  -18.8856   17.4579  -26.0393 C   0  0  0  0  0  0  0  0  0  0  0  0
  -26.1797   18.0788  -24.4780 O   0  0  0  0  0  0  0  0  0  0  0  0
  -20.2155   17.9027  -25.9703 C   0  0  0  0  0  0  0  0  0  0  0  0
  -18.0290   17.6278  -25.0194 C   0  0  0  0  0  0  0  0  0  0  0  0
  -16.2923   17.3674  -26.6562 C   0  0  0  0  0  0  0  0  0  0  0  0
  -24.4517   18.3383  -26.1581 O   0  0  0  0  0  0  0  0  0  0  0  0
  -18.4823   16.9666  -27.2966 C   0  0  0  0  0  0  0  0  0  0  0  0
  -23.9828   17.1013  -22.6982 C   0  0  0  0  0  0  0  0  0  0  0  0
  -20.4419   18.9134  -25.2341 O   0  0  0  0  0  0  0  0  0  0  0  0
  -17.2033   17.0582  -27.6029 N   0  0  0  0  0  0  0  0  0  0  0  0
  -22.4230   17.5430  -28.5416 C   0  0  0  0  0  0  0  0  0  0  0  0
  -23.1032   18.0410  -26.1190 C   0  0  0  0  0  0  0  0  0  0  0  0
  -22.1547   16.4191  -30.7353 C   0  0  0  0  0  0  0  0  0  0  0  0
  1  3  1  0
  1  9  1  0
  1 14  1  0
  1 25  1  0
  2  4  1  0
  2  5  1  0
  2  6  1  0
  3 13  1  0
  3 17  1  0
  4 25  1  0
  6 27  1  0
  7 14  1  0
  8 10  1  0
  8 26  1  0
  9 27  1  0
 10 12  1  0
 10 22  1  0
 11 18  2  0
 11 19  1  0
 12 16  2  0
 12 20  1  0
 13 25  1  0
 13 26  1  0
 14 21  1  0
 15 17  1  0
 15 18  1  0
 15 21  1  0
 17 23  2  0
 19 24  1  0
 20 26  1  0
 21 24  2  0
M  END
>  <ID>  (1) 
conformer_0

$$$$
