
     RDKit          3D

 27 30  0  0  0  0  0  0  0  0999 V2000
  -18.6643   14.9360  -27.8421 C   0  0  0  0  0  0  0  0  0  0  0  0
  -17.3072   17.1721  -25.1475 C   0  0  0  0  0  0  0  0  0  0  0  0
  -20.9123   16.1609  -30.3860 C   0  0  0  0  0  0  0  0  0  0  0  0
  -21.3076   18.5703  -26.2857 C   0  0  0  0  0  0  0  0  0  0  0  0
  -23.6932   18.4828  -25.4413 C   0  0  0  0  0  0  0  0  0  0  0  0
  -21.3675   17.3339  -31.2564 C   0  0  0  0  0  0  0  0  0  0  0  0
  -20.1359   17.9114  -29.0058 C   0  0  0  0  0  0  0  0  0  0  0  0
  -17.3456   17.4467  -30.0792 O   0  0  0  0  0  0  0  0  0  0  0  0
  -22.3210   18.2277  -25.4573 C   0  0  0  0  0  0  0  0  0  0  0  0
  -18.5621   19.7148  -28.2548 C   0  0  0  0  0  0  0  0  0  0  0  0
  -24.6440   16.5155  -22.4448 O   0  0  0  0  0  0  0  0  0  0  0  0
  -20.4324   17.2764  -24.7758 N   0  0  0  0  0  0  0  0  0  0  0  0
  -26.0242   16.6507  -22.6054 C   0  0  0  0  0  0  0  0  0  0  0  0
  -21.7573   17.4253  -24.4903 C   0  0  0  0  0  0  0  0  0  0  0  0
  -18.1252   16.6426  -29.4530 C   0  0  0  0  0  0  0  0  0  0  0  0
  -19.0473   17.8083  -26.7681 C   0  0  0  0  0  0  0  0  0  0  0  0
  -19.6567   16.6595  -29.6698 C   0  0  0  0  0  0  0  0  0  0  0  0
  -21.3329   18.6590  -29.3351 C   0  0  0  0  0  0  0  0  0  0  0  0
  -22.2278   18.1858  -30.3671 C   0  0  0  0  0  0  0  0  0  0  0  0
  -22.5033   16.8961  -23.4431 C   0  0  0  0  0  0  0  0  0  0  0  0
  -17.8803   16.8916  -26.6709 C   0  0  0  0  0  0  0  0  0  0  0  0
  -24.4733   17.9705  -24.4148 C   0  0  0  0  0  0  0  0  0  0  0  0
  -23.8633   17.1414  -23.4248 C   0  0  0  0  0  0  0  0  0  0  0  0
  -25.9110   18.2130  -24.3964 C   0  0  0  0  0  0  0  0  0  0  0  0
  -19.2132   18.4188  -28.0483 C   0  0  0  0  0  0  0  0  0  0  0  0
  -20.2017   17.9000  -25.9204 C   0  0  0  0  0  0  0  0  0  0  0  0
  -17.7173   16.1645  -28.0311 C   0  0  0  0  0  0  0  0  0  0  0  0
  1 27  1  0
  2 21  1  0
  3  6  1  0
  3 17  1  0
  4  9  1  0
  4 26  1  0
  5  9  2  0
  5 22  1  0
  6 19  1  0
  7 17  1  0
  7 18  2  0
  7 25  1  0
  8 15  2  0
  9 14  1  0
 10 25  1  0
 11 13  1  0
 11 23  1  0
 12 14  1  0
 12 26  1  0
 14 20  2  0
 15 17  1  0
 15 27  1  0
 16 21  1  0
 16 25  1  0
 16 26  2  3
 18 19  1  0
 20 23  1  0
 21 27  1  0
 22 23  2  0
 22 24  1  0
M  END
>  <ID>  (1) 
conformer_0

$$$$
