
     RDKit          3D

 22 24  0  0  0  0  0  0  0  0999 V2000
  -18.1584   15.9057  -29.9778 C   0  0  0  0  0  0  0  0  0  0  0  0
  -19.2763   16.1284  -26.3815 C   0  0  0  0  0  0  0  0  0  0  0  0
  -22.7971   17.3696  -23.4393 N   0  0  0  0  0  0  0  0  0  0  0  0
  -18.1311   15.9354  -28.5981 C   0  0  0  0  0  0  0  0  0  0  0  0
  -21.7630   17.2146  -26.4751 C   0  0  0  0  0  0  0  0  0  0  0  0
  -20.4335   16.5642  -28.5474 C   0  0  0  0  0  0  0  0  0  0  0  0
  -25.1249   18.3113  -25.9879 N   0  0  0  0  0  0  0  0  0  0  0  0
  -23.4863   17.7118  -24.5618 C   0  0  0  0  0  0  0  0  0  0  0  0
  -22.9565   17.5876  -25.8899 C   0  0  0  0  0  0  0  0  0  0  0  0
  -24.0352   17.9432  -26.7505 C   0  0  0  0  0  0  0  0  0  0  0  0
  -19.2406   17.5740  -24.5651 O   0  0  0  0  0  0  0  0  0  0  0  0
  -26.2260   18.7480  -26.4060 O   0  0  0  0  0  0  0  0  0  0  0  0
  -22.7357   17.3679  -28.6259 C   0  0  0  0  0  0  0  0  0  0  0  0
  -23.8999   17.8356  -28.1039 C   0  0  0  0  0  0  0  0  0  0  0  0
  -17.6715   17.8691  -26.1620 O   0  0  0  0  0  0  0  0  0  0  0  0
  -21.6352   17.0450  -27.8349 C   0  0  0  0  0  0  0  0  0  0  0  0
  -18.6224   17.2156  -25.6043 C   0  0  0  0  0  0  0  0  0  0  0  0
  -25.8752   18.1497  -23.6143 C   0  0  0  0  0  0  0  0  0  0  0  0
  -19.3229   16.1938  -30.6666 N   0  0  0  0  0  0  0  0  0  0  0  0
  -19.2568   16.2516  -27.8603 C   0  0  0  0  0  0  0  0  0  0  0  0
  -20.4183   16.4954  -29.9318 C   0  0  0  0  0  0  0  0  0  0  0  0
  -24.8093   18.1141  -24.6158 N   0  0  0  0  0  0  0  0  0  0  0  0
  1  4  1  0
  1 19  1  0
  2 17  1  0
  2 20  1  0
  3  8  2  0
  4 20  2  0
  5  9  2  0
  5 16  1  0
  6 16  1  0
  6 20  1  0
  6 21  1  0
  7 10  1  0
  7 12  1  0
  7 22  1  0
  8  9  1  0
  8 22  1  0
  9 10  1  0
 10 14  2  0
 11 17  2  0
 13 14  1  0
 13 16  2  0
 15 17  1  0
 18 22  1  0
 19 21  2  0
M  END
>  <ID>  (1) 
conformer_0

$$$$
