
     RDKit          3D

 20 22  0  0  0  0  0  0  0  0999 V2000
  -19.5311   16.5240  -25.6561 O   0  0  0  0  0  0  0  0  0  0  0  0
  -22.9558   17.9967  -24.9795 C   0  0  0  0  0  0  0  0  0  0  0  0
  -17.4139   17.8133  -29.9250 O   0  0  0  0  0  0  0  0  0  0  0  0
  -20.7490   16.2243  -29.7522 O   0  0  0  0  0  0  0  0  0  0  0  0
  -18.4621   15.8760  -29.0558 C   0  0  0  0  0  0  0  0  0  0  0  0
  -18.4586   16.4299  -26.6660 C   0  0  0  0  0  0  0  0  0  0  0  0
  -25.1462   18.4515  -24.0101 O   0  0  0  0  0  0  0  0  0  0  0  0
  -21.9481   19.7439  -27.7176 O   0  0  0  0  0  0  0  0  0  0  0  0
  -20.8963   18.1319  -26.5303 N   0  0  0  0  0  0  0  0  0  0  0  0
  -21.9745   18.8939  -26.7289 C   0  0  0  0  0  0  0  0  0  0  0  0
  -19.4312   15.9971  -30.1718 C   0  0  0  0  0  0  0  0  0  0  0  0
  -17.7605   17.1980  -28.7976 C   0  0  0  0  0  0  0  0  0  0  0  0
  -23.0655   18.8466  -25.9316 N   0  0  0  0  0  0  0  0  0  0  0  0
  -20.7189   17.2512  -25.5672 C   0  0  0  0  0  0  0  0  0  0  0  0
  -22.1074   16.4126  -23.4693 N   0  0  0  0  0  0  0  0  0  0  0  0
  -18.7847   15.3630  -27.6771 C   0  0  0  0  0  0  0  0  0  0  0  0
  -18.2007   17.6643  -27.4572 C   0  0  0  0  0  0  0  0  0  0  0  0
  -21.8083   17.1868  -24.6895 C   0  0  0  0  0  0  0  0  0  0  0  0
  -23.5135   16.8401  -23.0683 C   0  0  0  0  0  0  0  0  0  0  0  0
  -24.0032   17.8058  -23.9947 C   0  0  0  0  0  0  0  0  0  0  0  0
  1  6  1  0
  1 14  1  0
  2 13  1  0
  2 18  2  0
  2 20  1  0
  3 12  1  0
  4 11  1  0
  5 11  1  0
  5 12  1  0
  5 16  1  0
  6 16  1  0
  6 17  1  0
  7 20  1  0
  8 10  2  0
  9 10  1  0
  9 14  2  0
 10 13  1  0
 12 17  1  0
 14 18  1  0
 15 18  1  0
 15 19  1  0
 19 20  1  0
M  END
>  <ID>  (1) 
conformer_0

$$$$
