
     RDKit          3D

 18 19  0  0  0  0  0  0  0  0999 V2000
  -20.0905   17.4630  -26.4380 C   0  0  0  0  0  0  0  0  0  0  0  0
  -23.5235   18.2963  -25.9008 N   0  0  0  0  0  0  0  0  0  0  0  0
  -17.7994   17.0045  -25.9912 C   0  0  0  0  0  0  0  0  0  0  0  0
  -21.2832   17.9009  -26.0015 N   0  0  0  0  0  0  0  0  0  0  0  0
  -16.6744   17.0989  -25.0228 C   0  0  0  0  0  0  0  0  0  0  0  0
  -22.4682   17.4877  -28.1863 C   0  0  0  0  0  0  0  0  0  0  0  0
  -21.0155   17.2828  -28.7846 C   0  0  0  0  0  0  0  0  0  0  0  0
  -19.9026   17.1419  -27.7884 C   0  0  0  0  0  0  0  0  0  0  0  0
  -17.6199   16.6527  -27.2966 C   0  0  0  0  0  0  0  0  0  0  0  0
  -19.0362   17.3734  -25.5409 C   0  0  0  0  0  0  0  0  0  0  0  0
  -24.6436   18.1757  -23.8779 O   0  0  0  0  0  0  0  0  0  0  0  0
  -20.4775   17.4489  -30.0900 O   0  0  0  0  0  0  0  0  0  0  0  0
  -18.6645   16.7434  -28.2075 C   0  0  0  0  0  0  0  0  0  0  0  0
  -20.9978   16.5330  -31.0004 C   0  0  0  0  0  0  0  0  0  0  0  0
  -21.9110   15.5643  -30.4842 O   0  0  0  0  0  0  0  0  0  0  0  0
  -23.5467   17.9934  -24.4994 C   0  0  0  0  0  0  0  0  0  0  0  0
  -22.5422   17.0519  -23.7884 C   0  0  0  0  0  0  0  0  0  0  0  0
  -22.4104   18.0842  -26.7001 C   0  0  0  0  0  0  0  0  0  0  0  0
  1  4  1  0
  1  8  1  0
  1 10  2  0
  2 16  1  0
  2 18  1  0
  3  5  1  0
  3  9  2  0
  3 10  1  0
  4 18  2  0
  6  7  1  0
  6 18  1  0
  7  8  1  0
  7 12  1  0
  8 13  2  0
  9 13  1  0
 11 16  2  0
 12 14  1  0
 14 15  1  0
 16 17  1  0
M  END
>  <ID>  (1) 
conformer_0

$$$$
