
     RDKit          3D

 19 20  0  0  0  0  0  0  0  0999 V2000
  -23.3516   18.1862  -26.2602 N   0  0  0  0  0  0  0  0  0  0  0  0
  -24.4404   17.8054  -23.7884 O   0  0  0  0  0  0  0  0  0  0  0  0
  -18.7009   19.0887  -26.8814 C   0  0  0  0  0  0  0  0  0  0  0  0
  -18.3571   15.7447  -28.0423 C   0  0  0  0  0  0  0  0  0  0  0  0
  -22.5675   16.7883  -23.0990 O   0  0  0  0  0  0  0  0  0  0  0  0
  -23.0774   17.6929  -28.7129 C   0  0  0  0  0  0  0  0  0  0  0  0
  -22.5735   17.1069  -30.9203 F   0  0  0  0  0  0  0  0  0  0  0  0
  -19.1355   16.8775  -27.6078 N   0  0  0  0  0  0  0  0  0  0  0  0
  -18.7009   17.6170  -26.4849 C   0  0  0  0  0  0  0  0  0  0  0  0
  -20.8830   16.8945  -29.2987 C   0  0  0  0  0  0  0  0  0  0  0  0
  -21.3728   17.4710  -27.0346 C   0  0  0  0  0  0  0  0  0  0  0  0
  -23.2205   17.5154  -23.9152 C   0  0  0  0  0  0  0  0  0  0  0  0
  -18.3422   19.7896  -25.6840 O   0  0  0  0  0  0  0  0  0  0  0  0
  -17.2562   17.8958  -26.7119 C   0  0  0  0  0  0  0  0  0  0  0  0
  -22.5409   17.9517  -25.1590 C   0  0  0  0  0  0  0  0  0  0  0  0
  -22.6336   17.8068  -27.3761 C   0  0  0  0  0  0  0  0  0  0  0  0
  -20.4578   17.0565  -28.0054 C   0  0  0  0  0  0  0  0  0  0  0  0
  -21.3158   17.5639  -25.6169 N   0  0  0  0  0  0  0  0  0  0  0  0
  -22.1835   17.2294  -29.6540 C   0  0  0  0  0  0  0  0  0  0  0  0
  1 15  2  0
  1 16  1  0
  2 12  2  0
  3  9  1  0
  3 13  1  0
  4  8  1  0
  5 12  1  0
  6 16  2  0
  6 19  1  0
  7 19  1  0
  8  9  1  0
  8 17  1  0
  9 14  1  0
 10 17  1  0
 10 19  2  0
 11 16  1  0
 11 17  2  0
 11 18  1  0
 12 15  1  0
 15 18  1  0
M  END
>  <ID>  (1) 
conformer_0

$$$$
