
     RDKit          3D

 28 31  0  0  0  0  0  0  0  0999 V2000
  -22.0489   17.9454  -25.1684 C   0  0  0  0  0  0  0  0  0  0  0  0
  -26.7232   16.4153  -28.7213 O   0  0  0  0  0  0  0  0  0  0  0  0
  -22.8034   17.4390  -30.3563 C   0  0  0  0  0  0  0  0  0  0  0  0
  -19.5962   19.6713  -27.4569 C   0  0  0  0  0  0  0  0  0  0  0  0
  -22.1700   18.0499  -26.4380 C   0  0  0  0  0  0  0  0  0  0  0  0
  -22.4909   17.8499  -27.7161 C   0  0  0  0  0  0  0  0  0  0  0  0
  -23.9522   17.3608  -29.5437 C   0  0  0  0  0  0  0  0  0  0  0  0
  -22.7588   16.8846  -23.0413 C   0  0  0  0  0  0  0  0  0  0  0  0
  -20.1318   17.3342  -27.9109 C   0  0  0  0  0  0  0  0  0  0  0  0
  -24.9184   18.1072  -25.9961 C   0  0  0  0  0  0  0  0  0  0  0  0
  -25.3119   17.9679  -23.7322 O   0  0  0  0  0  0  0  0  0  0  0  0
  -21.3817   17.6570  -28.5165 C   0  0  0  0  0  0  0  0  0  0  0  0
  -26.1202   16.1624  -29.8014 C   0  0  0  0  0  0  0  0  0  0  0  0
  -17.1882   20.1475  -27.1974 C   0  0  0  0  0  0  0  0  0  0  0  0
  -18.6212   15.4868  -27.1255 C   0  0  0  0  0  0  0  0  0  0  0  0
  -23.8184   17.7607  -28.2270 C   0  0  0  0  0  0  0  0  0  0  0  0
  -20.0005   15.9878  -27.2659 C   0  0  0  0  0  0  0  0  0  0  0  0
  -21.5357   17.6072  -29.8666 C   0  0  0  0  0  0  0  0  0  0  0  0
  -16.8418   18.7846  -27.1313 C   0  0  0  0  0  0  0  0  0  0  0  0
  -17.6522   16.5131  -27.6727 C   0  0  0  0  0  0  0  0  0  0  0  0
  -24.4343   17.9327  -24.7295 C   0  0  0  0  0  0  0  0  0  0  0  0
  -23.0759   17.6904  -24.2928 C   0  0  0  0  0  0  0  0  0  0  0  0
  -25.0076   16.7950  -30.1428 N   0  0  0  0  0  0  0  0  0  0  0  0
  -26.5761   15.1381  -30.6029 N   0  0  0  0  0  0  0  0  0  0  0  0
  -24.7992   18.0298  -27.3089 C   0  0  0  0  0  0  0  0  0  0  0  0
  -18.4689   20.5208  -27.8203 C   0  0  0  0  0  0  0  0  0  0  0  0
  -17.9875   17.8649  -26.9524 C   0  0  0  0  0  0  0  0  0  0  0  0
  -19.2490   18.3207  -27.4179 N   0  0  0  0  0  0  0  0  0  0  0  0
  1  5  2  0
  1 22  1  0
  2 13  2  0
  3  7  2  0
  3 18  1  0
  4 26  1  0
  4 28  1  0
  5  6  2  0
  6 12  1  0
  6 16  1  0
  7 16  1  0
  7 23  1  0
  8 22  1  0
  9 12  1  0
  9 17  1  0
  9 28  1  0
 10 21  1  0
 10 25  2  0
 11 21  1  0
 12 18  1  0
 13 23  1  0
 13 24  1  0
 14 19  1  0
 14 26  1  0
 15 17  1  0
 15 20  1  0
 16 25  1  0
 19 27  1  0
 20 27  1  0
 21 22  1  0
 27 28  1  0
M  END
>  <ID>  (1) 
conformer_0

$$$$
