
     RDKit          3D

 18 19  0  0  0  0  0  0  0  0999 V2000
  -18.2379   17.0746  -29.1880 C   0  0  0  0  0  0  0  0  0  0  0  0
  -21.8060   16.7430  -24.4049 C   0  0  0  0  0  0  0  0  0  0  0  0
  -21.5902   17.6952  -27.8123 C   0  0  0  0  0  0  0  0  0  0  0  0
  -19.7968   17.0226  -26.3247 C   0  0  0  0  0  0  0  0  0  0  0  0
  -20.2666   17.2871  -27.5908 C   0  0  0  0  0  0  0  0  0  0  0  0
  -22.3561   18.2628  -26.7098 C   0  0  0  0  0  0  0  0  0  0  0  0
  -20.6063   17.4367  -29.8625 C   0  0  0  0  0  0  0  0  0  0  0  0
  -17.8503   17.2019  -30.4354 O   0  0  0  0  0  0  0  0  0  0  0  0
  -22.5525   17.6003  -25.4060 C   0  0  0  0  0  0  0  0  0  0  0  0
  -18.4736   16.8013  -25.9902 C   0  0  0  0  0  0  0  0  0  0  0  0
  -22.6307   19.4556  -26.8291 O   0  0  0  0  0  0  0  0  0  0  0  0
  -23.7228   18.1935  -24.5668 C   0  0  0  0  0  0  0  0  0  0  0  0
  -17.4925   16.7633  -26.8947 C   0  0  0  0  0  0  0  0  0  0  0  0
  -23.0046   18.0040  -30.0148 C   0  0  0  0  0  0  0  0  0  0  0  0
  -19.6317   17.2125  -28.8368 C   0  0  0  0  0  0  0  0  0  0  0  0
  -21.7936   17.7180  -29.2159 C   0  0  0  0  0  0  0  0  0  0  0  0
  -17.3179   16.8449  -28.1885 C   0  0  0  0  0  0  0  0  0  0  0  0
  -22.4824   16.3931  -23.0450 C   0  0  0  0  0  0  0  0  0  0  0  0
  1  8  1  0
  1 15  2  0
  1 17  1  0
  2  9  2  3
  2 18  1  0
  3  5  1  0
  3  6  1  0
  3 16  1  0
  4  5  1  0
  4 10  2  0
  5 15  1  0
  6  9  1  0
  6 11  2  0
  7 15  1  0
  7 16  1  0
  9 12  1  0
 10 13  1  0
 13 17  2  0
 14 16  1  0
M  END
>  <ID>  (1) 
conformer_0

$$$$
