
     RDKit          3D

 25 31  0  0  0  0  0  0  0  0999 V2000
  -20.2364   17.2981  -29.0938 C   0  0  0  0  0  0  0  0  0  0  0  0
  -21.4414   17.7043  -29.7318 C   0  0  0  0  0  0  0  0  0  0  0  0
  -20.5052   16.5390  -31.5756 C   0  0  0  0  0  0  0  0  0  0  0  0
  -25.7550   18.7347  -24.8910 C   0  0  0  0  0  0  0  0  0  0  0  0
  -18.8549   15.3785  -28.2231 C   0  0  0  0  0  0  0  0  0  0  0  0
  -21.5934   17.9219  -27.0695 C   0  0  0  0  0  0  0  0  0  0  0  0
  -22.8078   16.9714  -23.0926 C   0  0  0  0  0  0  0  0  0  0  0  0
  -17.1283   17.0523  -26.5810 C   0  0  0  0  0  0  0  0  0  0  0  0
  -19.4893   15.7497  -30.8066 C   0  0  0  0  0  0  0  0  0  0  0  0
  -21.5896   17.8391  -25.6252 C   0  0  0  0  0  0  0  0  0  0  0  0
  -23.1007   18.1308  -25.3589 C   0  0  0  0  0  0  0  0  0  0  0  0
  -25.0987   17.8340  -23.8341 C   0  0  0  0  0  0  0  0  0  0  0  0
  -17.3319   17.0412  -25.0847 C   0  0  0  0  0  0  0  0  0  0  0  0
  -19.5246   16.0549  -29.3997 C   0  0  0  0  0  0  0  0  0  0  0  0
  -22.2848   18.6566  -29.1223 C   0  0  0  0  0  0  0  0  0  0  0  0
  -25.3068   18.3843  -26.3126 C   0  0  0  0  0  0  0  0  0  0  0  0
  -23.6276   17.8272  -24.0486 C   0  0  0  0  0  0  0  0  0  0  0  0
  -19.4640   17.1916  -26.7359 C   0  0  0  0  0  0  0  0  0  0  0  0
  -20.4146   17.5748  -27.7076 C   0  0  0  0  0  0  0  0  0  0  0  0
  -18.3240   16.4259  -27.2438 C   0  0  0  0  0  0  0  0  0  0  0  0
  -21.7882   16.8156  -30.8218 C   0  0  0  0  0  0  0  0  0  0  0  0
  -23.8038   18.4765  -26.5700 C   0  0  0  0  0  0  0  0  0  0  0  0
  -18.6073   17.6597  -24.6332 C   0  0  0  0  0  0  0  0  0  0  0  0
  -22.7572   18.4787  -27.7022 C   0  0  0  0  0  0  0  0  0  0  0  0
  -19.9505   17.5439  -25.3863 C   0  0  0  0  0  0  0  0  0  0  0  0
  1  2  2  0
  1 14  1  0
  1 19  1  0
  2 15  1  0
  2 21  1  0
  3  9  1  0
  3 21  1  0
  4 12  1  0
  4 16  1  0
  5 14  1  0
  5 20  1  0
  6 10  2  0
  6 19  1  0
  6 24  1  0
  7 17  1  0
  8 13  1  0
  8 20  1  0
  9 14  1  0
 10 11  1  0
 10 25  1  0
 11 17  1  0
 11 22  2  0
 12 17  1  0
 13 23  1  0
 15 24  2  0
 16 22  1  0
 18 19  1  0
 18 20  1  0
 18 25  2  0
 22 24  1  0
 23 25  1  0
M  END
>  <ID>  (1) 
conformer_0

$$$$
