
     RDKit          3D

 20 21  0  0  0  0  0  0  0  0999 V2000
  -17.6833   16.5456  -26.4059 C   0  0  0  0  0  0  0  0  0  0  0  0
  -22.7938   16.0027  -23.0271 C   0  0  0  0  0  0  0  0  0  0  0  0
  -23.3968   17.2246  -23.2423 C   0  0  0  0  0  0  0  0  0  0  0  0
  -18.9613   15.5474  -28.4135 C   0  0  0  0  0  0  0  0  0  0  0  0
  -23.3864   18.7201  -27.3314 O   0  0  0  0  0  1  0  0  0  0  0  0
  -21.7062   15.8031  -24.1074 O   0  0  0  0  0  0  0  0  0  0  0  0
  -21.4068   20.1225  -26.6413 O   0  0  0  0  0  0  0  0  0  0  0  0
  -21.2153   16.5451  -28.4954 C   0  0  0  0  0  0  0  0  0  0  0  0
  -22.8285   17.7944  -24.3374 C   0  0  0  0  0  0  0  0  0  0  0  0
  -22.8377   17.3510  -30.2978 C   0  0  0  0  0  0  0  0  0  0  0  0
  -20.6881   17.2619  -27.3501 C   0  0  0  0  0  0  0  0  0  0  0  0
  -21.8260   16.9702  -24.9836 C   0  0  0  0  0  0  0  0  0  0  0  0
  -19.3389   17.8725  -27.5911 C   0  0  0  0  0  0  0  0  0  0  0  0
  -18.2870   16.7861  -27.8023 C   0  0  0  0  0  0  0  0  0  0  0  0
  -20.0866   16.0163  -29.4024 C   0  0  0  0  0  0  0  0  0  0  0  0
  -17.2284   17.1699  -28.7791 C   0  0  0  0  0  0  0  0  0  0  0  0
  -22.4023   16.6196  -29.1748 O   0  0  0  0  0  0  0  0  0  0  0  0
  -22.9872   18.9923  -24.8585 O   0  0  0  0  0  0  0  0  0  0  0  0
  -21.4042   17.5734  -26.2122 O   0  0  0  0  0  0  0  0  0  0  0  0
  -22.2687   18.9461  -26.3830 P   0  0  0  0  0  4  0  0  0  0  0  0
  1 14  1  0
  2  3  1  0
  2  6  1  0
  3  9  1  0
  4 14  1  0
  4 15  1  0
  5 20  2  0
  6 12  1  0
  7 20  1  0
  8 11  1  0
  8 15  1  0
  8 17  1  0
  9 12  1  0
  9 18  1  0
 10 17  1  0
 11 13  1  0
 11 19  1  0
 13 14  1  0
 14 16  1  0
 18 20  1  0
 19 20  1  0
M  END
>  <ID>  (1) 
conformer_0

$$$$
