
     RDKit          3D

 21 22  0  0  0  0  0  0  0  0999 V2000
  -18.8716   15.3263  -28.2798 C   0  0  0  0  0  0  0  0  0  0  0  0
  -22.5897   17.7338  -30.9945 C   0  0  0  0  0  0  0  0  0  0  0  0
  -22.7668   19.1063  -23.7444 O   0  0  0  0  0  0  0  0  0  0  0  0
  -21.2582   17.0830  -26.7866 N   0  0  0  0  0  0  0  0  0  0  0  0
  -23.2916   16.8911  -23.0077 C   0  0  0  0  0  0  0  0  0  0  0  0
  -20.4856   17.0069  -29.3064 C   0  0  0  0  0  0  0  0  0  0  0  0
  -23.3773   17.9599  -24.1824 C   0  0  0  0  0  0  0  0  0  0  0  0
  -17.7762   16.6846  -26.1103 C   0  0  0  0  0  0  0  0  0  0  0  0
  -22.7676   16.7189  -30.0714 C   0  0  0  0  0  0  0  0  0  0  0  0
  -21.3412   18.3451  -31.1142 C   0  0  0  0  0  0  0  0  0  0  0  0
  -18.1838   17.6740  -28.5750 C   0  0  0  0  0  0  0  0  0  0  0  0
  -17.2211   17.4490  -27.3529 C   0  0  0  0  0  0  0  0  0  0  0  0
  -21.9560   18.0146  -26.2107 C   0  0  0  0  0  0  0  0  0  0  0  0
  -19.9272   17.1300  -27.0451 N   0  0  0  0  0  0  0  0  0  0  0  0
  -19.1416   17.2894  -25.8131 C   0  0  0  0  0  0  0  0  0  0  0  0
  -22.0105   19.1588  -26.5534 O   0  0  0  0  0  0  0  0  0  0  0  0
  -21.7019   16.3650  -29.2546 C   0  0  0  0  0  0  0  0  0  0  0  0
  -22.7158   17.3643  -25.3901 N   0  0  0  0  0  0  0  0  0  0  0  0
  -24.8687   18.2128  -24.5644 C   0  0  0  0  0  0  0  0  0  0  0  0
  -20.2961   17.9683  -30.2920 C   0  0  0  0  0  0  0  0  0  0  0  0
  -19.3809   16.7591  -28.3399 C   0  0  0  0  0  0  0  0  0  0  0  0
  1 21  1  0
  2  9  2  0
  2 10  1  0
  3  7  1  0
  4 13  1  0
  4 14  1  0
  5  7  1  0
  6 17  2  0
  6 20  1  0
  6 21  1  0
  7 18  1  0
  7 19  1  0
  8 12  1  0
  8 15  1  0
  9 17  1  0
 10 20  2  0
 11 12  1  0
 11 21  1  0
 13 16  2  0
 13 18  1  0
 14 15  1  0
 14 21  1  0
M  END
>  <ID>  (1) 
conformer_0

$$$$
