
     RDKit          3D

 30 32  0  0  0  0  0  0  0  0999 V2000
  -18.4455   16.3751  -26.1813 C   0  0  0  0  0  0  0  0  0  0  0  0
  -22.5074   18.6301  -26.5686 C   0  0  0  0  0  0  0  0  0  0  0  0
  -21.1282   20.5156  -26.5876 O   0  0  0  0  0  0  0  0  0  0  0  0
  -17.3572   16.0189  -30.3090 O   0  0  0  0  0  0  0  0  0  0  0  0
  -18.5945   19.1948  -27.7197 C   0  0  0  0  0  0  0  0  0  0  0  0
  -19.7966   17.1084  -29.3249 C   0  0  0  0  0  0  0  0  0  0  0  0
  -20.3869   18.6202  -29.1401 C   0  0  0  0  0  0  0  0  0  0  0  0
  -18.1795   20.2872  -28.0954 O   0  0  0  0  0  0  0  0  0  0  0  0
  -26.3346   17.9639  -24.2341 Cl  0  0  0  0  0  0  0  0  0  0  0  0
  -22.9016   18.0092  -30.9784 C   0  0  0  0  0  0  0  0  0  0  0  0
  -21.0611   16.6900  -29.9891 O   0  0  0  0  0  0  0  0  0  0  0  0
  -18.5287   15.5677  -27.4149 C   0  0  0  0  0  0  0  0  0  0  0  0
  -21.2413   19.3035  -26.9865 C   0  0  0  0  0  0  0  0  0  0  0  0
  -21.7230   18.1051  -30.0465 C   0  0  0  0  0  0  0  0  0  0  0  0
  -17.9041   18.4729  -24.9513 C   0  0  0  0  0  0  0  0  0  0  0  0
  -23.7152   18.5030  -27.2503 C   0  0  0  0  0  0  0  0  0  0  0  0
  -22.5382   18.2110  -25.2428 C   0  0  0  0  0  0  0  0  0  0  0  0
  -24.9347   18.2773  -26.5860 C   0  0  0  0  0  0  0  0  0  0  0  0
  -18.3925   15.1107  -29.8241 C   0  0  0  0  0  0  0  0  0  0  0  0
  -17.6614   18.2536  -27.4311 O   0  0  0  0  0  0  0  0  0  0  0  0
  -17.5971   17.5261  -23.8030 F   0  0  0  0  0  0  0  0  0  0  0  0
  -24.9139   18.1451  -25.2005 C   0  0  0  0  0  0  0  0  0  0  0  0
  -23.5889   15.7471  -30.7018 O   0  0  0  0  0  0  0  0  0  0  0  0
  -25.1128   17.4334  -30.0429 C   0  0  0  0  0  0  0  0  0  0  0  0
  -19.1529   15.8682  -28.7229 C   0  0  0  0  0  0  0  0  0  0  0  0
  -23.8849   16.9801  -30.6312 C   0  0  0  0  0  0  0  0  0  0  0  0
  -23.6967   18.0822  -24.5308 C   0  0  0  0  0  0  0  0  0  0  0  0
  -17.7304   17.6546  -26.1831 C   0  0  0  0  0  0  0  0  0  0  0  0
  -20.0185   18.8987  -27.6572 N   0  0  0  0  0  0  0  0  0  0  0  0
  -21.3764   17.9099  -24.6551 F   0  0  0  0  0  0  0  0  0  0  0  0
  1 12  1  0
  1 28  1  0
  2 13  1  0
  2 16  1  0
  2 17  1  0
  3 13  2  0
  4 19  1  0
  5  8  2  0
  5 20  1  0
  5 29  1  0
  6  7  1  0
  6 11  1  0
  6 25  1  0
  7 14  1  0
  7 29  1  0
  9 22  1  0
 10 14  1  0
 10 26  1  0
 11 14  1  0
 12 25  1  0
 13 29  1  0
 15 21  1  0
 15 28  1  0
 16 18  1  0
 17 27  2  0
 17 30  1  0
 18 22  2  0
 19 25  1  0
 20 28  1  0
 22 27  1  0
 23 26  2  0
 24 26  1  0
M  END
>  <ID>  (1) 
conformer_0

$$$$
