
     RDKit          3D

 28 30  0  0  0  0  0  0  0  0999 V2000
  -19.4712   17.4467  -24.6401 C   0  0  0  0  0  0  0  0  0  0  0  0
  -20.4237   17.1375  -25.5366 C   0  0  0  0  0  0  0  0  0  0  0  0
  -18.2012   16.2924  -28.5237 N   0  0  0  0  0  0  0  0  0  0  0  0
  -22.7003   18.4346  -27.1882 C   0  0  0  0  0  0  0  0  0  0  0  0
  -17.7431   16.9267  -26.2194 C   0  0  0  0  0  0  0  0  0  0  0  0
  -23.7759   17.6107  -29.0528 N   0  0  0  0  0  0  0  0  0  0  0  0
  -18.1293   17.3249  -24.9445 C   0  0  0  0  0  0  0  0  0  0  0  0
  -18.1496   16.0484  -31.2961 C   0  0  0  0  0  0  0  0  0  0  0  0
  -26.4086   18.7471  -24.6803 C   0  0  0  0  0  0  0  0  0  0  0  0
  -22.6822   17.3579  -28.1711 C   0  0  0  0  0  0  0  0  0  0  0  0
  -21.9372   19.4286  -27.2781 O   0  0  0  0  0  0  0  0  0  0  0  0
  -21.7277   17.2367  -25.0449 O   0  0  0  0  0  0  0  0  0  0  0  0
  -18.7082   15.1812  -29.1527 C   0  0  0  0  0  0  0  0  0  0  0  0
  -24.9052   17.3848  -23.2148 C   0  0  0  0  0  0  0  0  0  0  0  0
  -18.6917   16.6299  -27.2050 C   0  0  0  0  0  0  0  0  0  0  0  0
  -18.7851   15.1071  -30.4866 C   0  0  0  0  0  0  0  0  0  0  0  0
  -17.3685   16.9697  -30.6174 C   0  0  0  0  0  0  0  0  0  0  0  0
  -22.9336   17.4310  -24.5359 C   0  0  0  0  0  0  0  0  0  0  0  0
  -24.0323   18.0905  -25.1621 C   0  0  0  0  0  0  0  0  0  0  0  0
  -22.7078   16.1938  -30.5396 N   0  0  0  0  0  0  0  0  0  0  0  0
  -23.8698   18.5634  -26.4323 N   0  0  0  0  0  0  0  0  0  0  0  0
  -24.3410   17.5992  -31.2639 O   0  0  0  0  0  0  0  0  0  0  0  0
  -21.4493   16.5331  -31.1040 C   0  0  0  0  0  0  0  0  0  0  0  0
  -23.6550   17.1723  -30.3235 C   0  0  0  0  0  0  0  0  0  0  0  0
  -25.1648   18.0974  -24.3694 C   0  0  0  0  0  0  0  0  0  0  0  0
  -17.3441   17.0735  -29.2676 N   0  0  0  0  0  0  0  0  0  0  0  0
  -23.4215   16.8922  -23.2106 O   0  0  0  0  0  0  0  0  0  0  0  0
  -20.0480   16.7351  -26.8343 C   0  0  0  0  0  0  0  0  0  0  0  0
  1  2  2  0
  1  7  1  0
  2 12  1  0
  2 28  1  0
  3 13  1  0
  3 15  1  0
  3 26  1  0
  4 10  1  0
  4 11  2  0
  4 21  1  0
  5  7  2  0
  5 15  1  0
  6 10  1  0
  6 24  1  0
  8 16  1  0
  8 17  1  0
  9 25  1  0
 12 18  1  0
 13 16  2  0
 14 25  1  0
 14 27  1  0
 15 28  2  0
 17 26  2  0
 18 19  2  0
 18 27  1  0
 19 21  1  0
 19 25  1  0
 20 23  1  0
 20 24  1  0
 22 24  2  0
M  END
>  <ID>  (1) 
conformer_0

$$$$
