
     RDKit          3D

 30 35  0  0  0  0  0  0  0  0999 V2000
  -21.0386   20.1759  -27.2470 C   0  0  0  0  0  0  0  0  0  0  0  0
  -21.0261   17.3184  -24.9238 N   0  0  0  0  0  0  0  0  0  0  0  0
  -24.3252   16.5378  -22.0475 Cl  0  0  0  0  0  0  0  0  0  0  0  0
  -23.0899   16.3563  -30.5270 O   0  0  0  0  0  0  0  0  0  0  0  0
  -25.5543   17.0698  -29.9985 C   0  0  0  0  0  0  0  0  0  0  0  0
  -21.6008   18.2609  -25.6824 N   0  0  0  0  0  0  0  0  0  0  0  0
  -20.5971   15.9079  -30.2234 C   0  0  0  0  0  0  0  0  0  0  0  0
  -18.0179   17.9769  -28.6045 C   0  0  0  0  0  0  0  0  0  0  0  0
  -20.0621   21.1555  -27.6765 C   0  0  0  0  0  0  0  0  0  0  0  0
  -18.6588   17.3086  -29.6436 N   0  0  0  0  0  0  0  0  0  0  0  0
  -17.6688   17.2884  -24.9985 C   0  0  0  0  0  0  0  0  0  0  0  0
  -24.2273   18.5460  -26.0382 C   0  0  0  0  0  0  0  0  0  0  0  0
  -24.1461   17.0583  -29.7590 N   0  0  0  0  0  0  0  0  0  0  0  0
  -17.8623   16.9689  -27.5506 N   0  0  0  0  0  0  0  0  0  0  0  0
  -19.3088   16.0220  -29.3102 C   0  0  0  0  0  0  0  0  0  0  0  0
  -19.2073   18.7598  -26.6613 C   0  0  0  0  0  0  0  0  0  0  0  0
  -18.5667   15.7278  -27.9796 C   0  0  0  0  0  0  0  0  0  0  0  0
  -25.4957   17.7905  -24.0831 C   0  0  0  0  0  0  0  0  0  0  0  0
  -23.5203   17.6102  -28.7306 C   0  0  0  0  0  0  0  0  0  0  0  0
  -20.6188   19.2104  -26.2804 C   0  0  0  0  0  0  0  0  0  0  0  0
  -23.0395   18.1264  -25.4568 C   0  0  0  0  0  0  0  0  0  0  0  0
  -23.1433   17.3879  -24.3004 C   0  0  0  0  0  0  0  0  0  0  0  0
  -21.8838   16.8493  -24.0542 C   0  0  0  0  0  0  0  0  0  0  0  0
  -18.8803   20.4894  -28.3239 C   0  0  0  0  0  0  0  0  0  0  0  0
  -18.4179   17.5514  -26.3601 C   0  0  0  0  0  0  0  0  0  0  0  0
  -25.4589   18.3682  -25.3727 C   0  0  0  0  0  0  0  0  0  0  0  0
  -21.8912   16.4942  -29.8553 C   0  0  0  0  0  0  0  0  0  0  0  0
  -18.7451   19.0952  -28.0187 C   0  0  0  0  0  0  0  0  0  0  0  0
  -24.3175   17.2663  -23.5886 C   0  0  0  0  0  0  0  0  0  0  0  0
  -22.1948   17.2242  -28.7554 C   0  0  0  0  0  0  0  0  0  0  0  0
  1  9  1  0
  1 20  1  0
  2  6  1  0
  2 23  1  0
  3 29  1  0
  4 13  1  0
  4 27  1  0
  5 13  1  0
  6 20  1  0
  6 21  1  0
  7 15  1  0
  7 27  2  3
  8 10  1  0
  8 14  1  0
  8 28  1  0
  9 24  1  0
 10 15  1  0
 11 25  1  0
 12 21  2  0
 12 26  1  0
 13 19  1  0
 14 17  1  0
 14 25  1  0
 15 17  1  0
 16 20  1  0
 16 25  1  0
 16 28  1  0
 18 26  2  0
 18 29  1  0
 19 30  1  0
 21 22  1  0
 22 23  1  0
 22 29  2  0
 24 28  1  0
 27 30  1  0
M  END
>  <ID>  (1) 
conformer_0

$$$$
