
     RDKit          3D

 28 31  0  0  0  0  0  0  0  0999 V2000
  -17.7886   18.5206  -27.0025 C   0  0  0  0  0  0  0  0  0  0  0  0
  -23.2613   17.8147  -28.1810 C   0  0  0  0  0  0  0  0  0  0  0  0
  -23.4806   17.8386  -30.5986 C   0  0  0  0  0  0  0  0  0  0  0  0
  -24.7150   18.1225  -30.6114 O   0  0  0  0  0  0  0  0  0  0  0  0
  -18.0716   15.8948  -30.7866 C   0  0  0  0  0  0  0  0  0  0  0  0
  -25.9390   18.4773  -25.2490 C   0  0  0  0  0  0  0  0  0  0  0  0
  -18.9846   18.4984  -26.2743 C   0  0  0  0  0  0  0  0  0  0  0  0
  -19.9196   17.4758  -26.4754 C   0  0  0  0  0  0  0  0  0  0  0  0
  -26.0662   18.0186  -23.9117 C   0  0  0  0  0  0  0  0  0  0  0  0
  -22.6007   17.7146  -31.6608 C   0  0  0  0  0  0  0  0  0  0  0  0
  -22.4204   16.5754  -23.0350 Cl  0  0  0  0  0  0  0  0  0  0  0  0
  -20.1573   16.8579  -31.8873 C   0  0  0  0  0  0  0  0  0  0  0  0
  -18.3412   15.5017  -29.3823 C   0  0  0  0  0  0  0  0  0  0  0  0
  -22.3892   17.6434  -25.8875 C   0  0  0  0  0  3  0  0  0  0  0  0
  -21.6115   16.9942  -29.7923 C   0  0  0  0  0  0  0  0  0  0  0  0
  -22.8222   17.5108  -29.4409 C   0  0  0  0  0  0  0  0  0  0  0  0
  -23.7635   17.3370  -23.8541 C   0  0  0  0  0  0  0  0  0  0  0  0
  -18.5183   16.5822  -28.2726 C   0  0  0  0  0  0  0  0  0  0  0  0
  -22.5654   17.7948  -27.1434 C   0  0  0  0  0  0  0  0  0  0  0  0
  -23.6414   17.7745  -25.1842 C   0  0  0  0  0  0  0  0  0  0  0  0
  -19.6507   17.6932  -32.6574 O   0  0  0  0  0  0  0  0  0  0  0  0
  -17.5618   17.5551  -28.0024 C   0  0  0  0  0  0  0  0  0  0  0  0
  -19.3797   15.7434  -31.5398 N   0  0  0  0  0  0  0  0  0  0  0  0
  -21.3916   17.1548  -31.1418 C   0  0  0  0  0  0  0  0  0  0  0  0
  -24.7315   18.3232  -25.8473 C   0  0  0  0  0  0  0  0  0  0  0  0
  -24.9855   17.4359  -23.2137 C   0  0  0  0  0  0  0  0  0  0  0  0
  -21.0117   17.4092  -25.4635 S   0  0  0  0  0  3  0  0  0  0  0  0
  -19.6525   16.5480  -27.4900 C   0  0  0  0  0  0  0  0  0  0  0  0
  1  7  2  0
  1 22  1  0
  2 16  2  0
  2 19  1  0
  3  4  2  0
  3 10  1  0
  3 16  1  0
  5 13  1  0
  5 23  1  0
  6  9  1  0
  6 25  2  0
  7  8  1  0
  8 27  1  0
  8 28  2  0
  9 26  1  0
 10 24  1  0
 11 17  1  0
 12 21  2  0
 12 23  1  0
 12 24  1  0
 13 18  1  0
 14 19  1  0
 14 20  1  0
 14 27  2  0
 15 16  1  0
 15 24  1  0
 17 20  1  0
 17 26  2  0
 18 22  2  0
 18 28  1  0
 20 25  1  0
M  END
>  <ID>  (1) 
conformer_0

$$$$
