
     RDKit          3D

 19 21  0  0  0  0  0  0  0  0999 V2000
  -23.4870   17.8017  -24.2161 C   0  0  0  0  0  0  0  0  0  0  0  0
  -19.5344   15.8288  -27.1889 C   0  0  0  0  0  0  0  0  0  0  0  0
  -18.2570   15.8202  -27.7275 C   0  0  0  0  0  0  0  0  0  0  0  0
  -17.8706   18.0624  -26.8522 C   0  0  0  0  0  0  0  0  0  0  0  0
  -22.5513   16.9924  -23.6415 C   0  0  0  0  0  0  0  0  0  0  0  0
  -22.3302   17.5416  -27.7984 C   0  0  0  0  0  0  0  0  0  0  0  0
  -24.5883   17.5927  -30.4529 C   0  0  0  0  0  0  0  0  0  0  0  0
  -19.1139   18.0397  -26.2882 C   0  0  0  0  0  0  0  0  0  0  0  0
  -22.1461   16.4504  -29.8959 C   0  0  0  0  0  0  0  0  0  0  0  0
  -22.3376   17.6248  -26.3480 C   0  0  0  0  0  0  0  0  0  0  0  0
  -22.7265   16.6374  -22.3248 F   0  0  0  0  0  0  0  0  0  0  0  0
  -19.9788   16.9199  -26.4139 C   0  0  0  0  0  0  0  0  0  0  0  0
  -17.4323   16.9229  -27.5689 C   0  0  0  0  0  0  0  0  0  0  0  0
  -21.9380   16.3231  -28.4314 N   0  0  0  0  0  0  0  0  0  0  0  0
  -21.4395   16.5675  -24.3476 C   0  0  0  0  0  0  0  0  0  0  0  0
  -21.2479   16.9887  -25.7001 C   0  0  0  0  0  0  0  0  0  0  0  0
  -22.9611   18.2707  -28.7625 N   0  0  0  0  0  0  0  0  0  0  0  0
  -23.1599   17.5286  -30.0028 C   0  0  0  0  0  0  0  0  0  0  0  0
  -23.3593   18.1200  -25.5818 C   0  0  0  0  0  0  0  0  0  0  0  0
  1  5  2  0
  1 19  1  0
  2  3  2  0
  2 12  1  0
  3 13  1  0
  4  8  1  0
  4 13  2  0
  5 11  1  0
  5 15  1  0
  6 10  1  0
  6 14  2  0
  6 17  1  0
  7 18  1  0
  8 12  2  0
  9 14  1  0
  9 18  1  0
 10 16  1  0
 10 19  1  0
 12 16  1  0
 15 16  2  0
 17 18  1  0
M  END
>  <ID>  (1) 
conformer_0

$$$$
