
     RDKit          3D

 20 22  0  0  0  0  0  0  0  0999 V2000
  -17.3674   17.2698  -28.3669 C   0  0  0  0  0  0  0  0  0  0  0  0
  -23.3713   17.4653  -29.6776 C   0  0  0  0  0  0  0  0  0  0  0  0
  -18.4527   16.2169  -30.2848 C   0  0  0  0  0  0  0  0  0  0  0  0
  -22.1297   17.7438  -24.9742 C   0  0  0  0  0  0  0  0  0  0  0  0
  -24.4115   18.2352  -25.6480 C   0  0  0  0  0  0  0  0  0  0  0  0
  -18.1539   16.3985  -26.4344 C   0  0  0  0  0  0  0  0  0  0  0  0
  -22.7151   17.7562  -27.3182 C   0  0  0  0  0  0  0  0  0  0  0  0
  -23.4641   17.9975  -24.6340 C   0  0  0  0  0  0  0  0  0  0  0  0
  -20.4492   17.4799  -26.7187 N   0  0  0  0  0  0  0  0  0  0  0  0
  -18.5267   15.1695  -29.0659 C   0  0  0  0  0  0  0  0  0  0  0  0
  -21.1633   16.7204  -28.8948 C   0  0  0  0  0  0  0  0  0  0  0  0
  -22.3452   17.4160  -28.6236 N   0  0  0  0  0  0  0  0  0  0  0  0
  -18.1238   17.6293  -29.6809 C   0  0  0  0  0  0  0  0  0  0  0  0
  -24.0224   18.1311  -26.9742 C   0  0  0  0  0  0  0  0  0  0  0  0
  -21.1331   16.0008  -29.9036 O   0  0  0  0  0  0  0  0  0  0  0  0
  -23.8132   18.0378  -23.3703 O   0  0  0  0  0  0  0  0  0  0  0  0
  -21.7437   17.6688  -26.3284 C   0  0  0  0  0  0  0  0  0  0  0  0
  -18.7187   16.0688  -27.8174 C   0  0  0  0  0  0  0  0  0  0  0  0
  -17.6382   17.8720  -26.9354 C   0  0  0  0  0  0  0  0  0  0  0  0
  -20.0535   16.8507  -27.9108 C   0  0  0  0  0  0  0  0  0  0  0  0
  1 13  1  0
  1 19  1  0
  2 12  1  0
  3 10  1  0
  3 13  1  0
  4  8  1  0
  4 17  1  0
  5  8  2  0
  5 14  1  0
  6 18  1  0
  6 19  1  0
  7 12  1  0
  7 14  1  0
  7 17  2  0
  8 16  1  0
  9 17  1  0
  9 20  1  0
 10 18  1  0
 11 12  1  0
 11 15  2  0
 11 20  1  0
 18 20  2  3
M  END
>  <ID>  (1) 
conformer_0

$$$$
