
     RDKit          3D

 20 23  0  0  0  0  0  0  0  0999 V2000
  -21.7950   16.8274  -29.8527 N   0  0  0  0  0  0  0  0  0  0  0  0
  -23.0919   18.1562  -24.7867 C   0  0  0  0  0  0  0  0  0  0  0  0
  -23.6365   17.8908  -27.1222 C   0  0  0  0  0  0  0  0  0  0  0  0
  -18.4657   15.9122  -29.6984 C   0  0  0  0  0  0  0  0  0  0  0  0
  -21.7990   17.8171  -25.0780 C   0  0  0  0  0  0  0  0  0  0  0  0
  -18.0821   15.5721  -27.2888 C   0  0  0  0  0  0  0  0  0  0  0  0
  -17.2735   16.5088  -29.7566 O   0  0  0  0  0  0  0  0  0  0  0  0
  -18.9765   15.9955  -28.3590 C   0  0  0  0  0  0  0  0  0  0  0  0
  -20.1881   16.6459  -27.9707 C   0  0  0  0  0  0  0  0  0  0  0  0
  -25.4544   18.3666  -25.3374 C   0  0  0  0  0  0  0  0  0  0  0  0
  -21.4708   16.9687  -28.5061 C   0  0  0  0  0  0  0  0  0  0  0  0
  -22.2821   17.4715  -27.3927 C   0  0  0  0  0  0  0  0  0  0  0  0
  -19.1025   17.0386  -25.6157 C   0  0  0  0  0  0  0  0  0  0  0  0
  -24.0489   18.1597  -25.7718 C   0  0  0  0  0  0  0  0  0  0  0  0
  -17.8934   16.4867  -26.1268 C   0  0  0  0  0  0  0  0  0  0  0  0
  -20.2089   17.0204  -26.6564 N   0  0  0  0  0  0  0  0  0  0  0  0
  -20.8507   16.4575  -30.7957 C   0  0  0  0  0  0  0  0  0  0  0  0
  -25.5093   18.0518  -23.8868 O   0  0  0  0  0  0  0  0  0  0  0  0
  -21.4183   17.4652  -26.3151 C   0  0  0  0  0  0  0  0  0  0  0  0
  -19.4751   16.0343  -30.7097 C   0  0  0  0  0  0  0  0  0  0  0  0
  1 11  1  0
  1 17  2  0
  2  5  1  0
  2 14  2  0
  3 12  2  0
  3 14  1  0
  4  7  1  0
  4  8  1  0
  4 20  1  0
  5 19  2  0
  6  8  1  0
  6 15  1  0
  8  9  1  0
  9 11  2  0
  9 16  1  0
 10 14  1  0
 10 18  1  0
 11 12  1  0
 12 19  1  0
 13 15  1  0
 13 16  1  0
 16 19  1  0
 17 20  1  0
M  END
>  <ID>  (1) 
conformer_0

$$$$
