
     RDKit          3D

 17 18  0  0  0  0  0  0  0  0999 V2000
  -20.2696   18.9977  -28.8674 O   0  0  0  0  0  0  0  0  0  0  0  0
  -21.1475   18.0650  -26.2881 C   0  0  0  0  0  0  0  0  0  0  0  0
  -22.3096   17.6641  -27.1579 C   0  0  0  0  0  0  0  0  0  0  0  0
  -23.0402   18.7844  -27.4170 O   0  0  0  0  0  0  0  0  0  0  0  0
  -22.6628   16.6497  -23.1189 C   0  0  0  0  0  0  0  0  0  0  0  0
  -23.0398   18.6270  -24.3336 O   0  0  0  0  0  0  0  0  0  0  0  0
  -20.2661   17.6528  -28.4549 C   0  0  0  0  0  0  0  0  0  0  0  0
  -18.9618   16.8539  -26.3956 C   0  0  0  0  0  0  0  0  0  0  0  0
  -19.9384   17.6508  -27.0561 C   0  0  0  0  0  0  0  0  0  0  0  0
  -18.5107   17.3271  -25.2479 O   0  0  0  0  0  0  0  0  0  0  0  0
  -17.1594   17.4229  -27.8708 C   0  0  0  0  0  0  0  0  0  0  0  0
  -21.2496   17.2585  -25.0395 C   0  0  0  0  0  0  0  0  0  0  0  0
  -18.7174   15.6516  -28.4818 C   0  0  0  0  0  0  0  0  0  0  0  0
  -17.9242   16.2469  -27.3262 C   0  0  0  0  0  0  0  0  0  0  0  0
  -21.7090   17.1367  -28.4808 C   0  0  0  0  0  0  0  0  0  0  0  0
  -19.3464   16.8066  -29.3276 C   0  0  0  0  0  0  0  0  0  0  0  0
  -22.5201   17.4839  -24.3136 C   0  0  0  0  0  0  0  0  0  0  0  0
  1  7  1  0
  2  3  1  0
  2  9  1  0
  2 12  1  0
  3  4  1  0
  3 15  1  0
  5 17  1  0
  6 17  2  0
  7  9  1  0
  7 15  1  0
  7 16  1  0
  8  9  1  0
  8 10  1  0
  8 14  1  0
 11 14  1  0
 12 17  1  0
 13 14  1  0
 13 16  1  0
M  END
>  <ID>  (1) 
conformer_0

$$$$
