
     RDKit          3D

 23 25  0  0  0  0  0  0  0  0999 V2000
  -17.5764   17.0934  -27.3556 C   0  0  0  0  0  0  0  0  0  0  0  0
  -18.6497   19.3107  -26.1562 O   0  0  0  0  0  0  0  0  0  0  0  0
  -18.7880   16.9058  -26.5053 C   0  0  0  0  0  0  0  0  0  0  0  0
  -23.0195   18.0883  -27.6716 C   0  0  0  0  0  0  0  0  0  0  0  0
  -26.5436   18.1529  -26.7947 N   0  0  0  0  0  0  0  0  0  0  0  0
  -21.0065   18.7146  -26.2948 C   0  0  0  0  0  0  0  0  0  0  0  0
  -17.7550   16.2462  -29.6454 C   0  0  0  0  0  0  0  0  0  0  0  0
  -18.3844   15.1037  -28.8214 C   0  0  0  0  0  0  0  0  0  0  0  0
  -22.4502   18.3574  -26.4127 C   0  0  0  0  0  0  0  0  0  0  0  0
  -24.6089   18.3022  -25.3767 C   0  0  0  0  0  0  0  0  0  0  0  0
  -23.2598   18.3330  -25.2765 C   0  0  0  0  0  0  0  0  0  0  0  0
  -19.7155   17.6946  -24.5360 O   0  0  0  0  0  0  0  0  0  0  0  0
  -26.8575   18.3222  -24.4613 C   0  0  0  0  0  0  0  0  0  0  0  0
  -25.5031   18.3996  -24.3093 C   0  0  0  0  0  0  0  0  0  0  0  0
  -21.0230   20.1185  -25.5622 C   0  0  0  0  0  0  0  0  0  0  0  0
  -18.7384   18.5563  -29.4540 C   0  0  0  0  0  0  0  0  0  0  0  0
  -27.3689   18.2023  -25.7463 C   0  0  0  0  0  0  0  0  0  0  0  0
  -25.1864   18.1679  -26.6562 C   0  0  0  0  0  0  0  0  0  0  0  0
  -19.7396   15.5620  -28.3051 N   0  0  0  0  0  0  0  0  0  0  0  0
  -19.5516   18.1606  -25.9106 C   0  0  0  0  0  0  0  0  0  0  0  0
  -19.7063   15.7652  -26.8504 C   0  0  0  0  0  0  0  0  0  0  0  0
  -24.3907   18.0072  -27.7861 C   0  0  0  0  0  0  0  0  0  0  0  0
  -17.8262   17.5291  -28.8041 C   0  0  0  0  0  0  0  0  0  0  0  0
  1  3  1  0
  1 23  1  0
  2 20  1  0
  3 20  1  0
  3 21  1  0
  4  9  2  0
  4 22  1  0
  5 17  2  0
  5 18  1  0
  6  9  1  0
  6 15  1  0
  6 20  1  0
  7  8  1  0
  7 23  1  0
  8 19  1  0
  9 11  1  0
 10 11  2  0
 10 14  1  0
 10 18  1  0
 12 20  1  0
 13 14  2  0
 13 17  1  0
 16 23  1  0
 18 22  2  0
 19 21  1  0
M  END
>  <ID>  (1) 
conformer_0

$$$$
