
     RDKit          3D

 20 21  0  0  0  0  0  0  0  0999 V2000
  -18.3222   16.4657  -27.6180 C   0  0  0  0  0  0  0  0  0  0  0  0
  -23.4891   17.7149  -24.1027 C   0  0  0  0  0  0  0  0  0  0  0  0
  -17.8699   15.5991  -28.4830 O   0  0  0  0  0  0  0  0  0  0  0  0
  -23.1163   18.8382  -24.8598 C   0  0  0  0  0  0  0  0  0  0  0  0
  -22.5072   17.7502  -29.0454 C   0  0  0  0  0  0  0  0  0  0  0  0
  -17.5935   17.1261  -26.6109 C   0  0  0  0  0  0  0  0  0  0  0  0
  -21.3445   19.9790  -25.9836 O   0  0  0  0  0  0  0  0  0  0  0  0
  -21.8365   18.8209  -25.3914 C   0  0  0  0  0  0  0  0  0  0  0  0
  -22.5743   16.6793  -23.8778 C   0  0  0  0  0  0  0  0  0  0  0  0
  -18.5518   17.7960  -25.7565 C   0  0  0  0  0  0  0  0  0  0  0  0
  -21.3589   16.6760  -24.4530 C   0  0  0  0  0  0  0  0  0  0  0  0
  -21.9441   15.9191  -30.6377 C   0  0  0  0  0  0  0  0  0  0  0  0
  -19.8655   17.4814  -26.2001 C   0  0  0  0  0  0  0  0  0  0  0  0
  -24.6891   17.5554  -23.6744 O   0  0  0  0  0  0  0  0  0  0  0  0
  -19.7355   16.7608  -27.4729 C   0  0  0  0  0  0  0  0  0  0  0  0
  -20.4896   16.3128  -28.5782 N   0  0  0  0  0  0  0  0  0  0  0  0
  -20.9967   17.6831  -25.3389 C   0  0  0  0  0  0  0  0  0  0  0  0
  -25.7694   17.2765  -23.0043 C   0  0  0  0  0  0  0  0  0  0  0  0
  -22.9763   15.6264  -23.0875 F   0  0  0  0  0  0  0  0  0  0  0  0
  -21.5045   16.6330  -29.3594 C   0  0  0  0  0  0  0  0  0  0  0  0
  1  3  1  0
  1  6  1  0
  1 15  1  0
  2  4  2  0
  2  9  1  0
  2 14  1  0
  4  8  1  0
  5 20  1  0
  6 10  1  0
  7  8  1  0
  8 17  2  0
  9 11  2  0
  9 19  1  0
 10 13  1  0
 11 17  1  0
 12 20  1  0
 13 15  1  0
 13 17  1  0
 14 18  1  0
 15 16  1  0
 16 20  2  3
M  END
>  <ID>  (1) 
conformer_0

$$$$
