
     RDKit          3D

 19 21  0  0  0  0  0  0  0  0999 V2000
  -18.3824   15.7430  -27.2921 C   0  0  0  0  0  0  0  0  0  0  0  0
  -20.0582   16.5518  -29.2879 C   0  0  0  0  0  0  0  0  0  0  0  0
  -20.1558   17.1688  -24.6524 O   0  0  0  0  0  0  0  0  0  0  0  0
  -19.3020   17.1310  -25.5989 N   0  0  0  0  0  0  0  0  0  0  0  0
  -24.9818   18.2481  -26.0981 C   0  0  0  0  0  0  0  0  0  0  0  0
  -23.8972   18.1751  -26.9576 C   0  0  0  0  0  0  0  0  0  0  0  0
  -22.5326   18.0270  -26.5840 C   0  0  0  0  0  0  0  0  0  0  0  0
  -20.3163   16.9850  -27.9338 C   0  0  0  0  0  0  0  0  0  0  0  0
  -23.4437   18.2028  -24.2346 C   0  0  0  0  0  0  0  0  0  0  0  0
  -21.5373   17.7605  -27.7128 C   0  0  0  0  0  0  0  0  0  0  0  0
  -22.3907   18.1235  -25.1604 C   0  0  0  0  0  0  0  0  0  0  0  0
  -22.0537   18.3261  -28.9218 C   0  0  0  0  0  0  0  0  0  0  0  0
  -24.7736   18.2630  -24.6942 C   0  0  0  0  0  0  0  0  0  0  0  0
  -21.7582   18.0093  -30.1932 C   0  0  0  0  0  0  0  0  0  0  0  0
  -20.7555   17.0543  -30.3910 C   0  0  0  0  0  0  0  0  0  0  0  0
  -18.2376   15.2341  -28.5704 C   0  0  0  0  0  0  0  0  0  0  0  0
  -19.3573   16.6178  -26.9503 C   0  0  0  0  0  0  0  0  0  0  0  0
  -19.0665   15.6066  -29.5958 C   0  0  0  0  0  0  0  0  0  0  0  0
  -17.9993   17.3344  -24.9327 C   0  0  0  0  0  0  0  0  0  0  0  0
  1 16  1  0
  1 17  2  0
  2  8  1  0
  2 15  2  0
  2 18  1  0
  3  4  1  0
  4 17  1  0
  4 19  1  0
  5  6  2  0
  5 13  1  0
  6  7  1  0
  7 10  1  0
  7 11  2  0
  8 10  1  0
  8 17  1  0
  9 11  1  0
  9 13  2  0
 10 12  1  0
 12 14  2  0
 14 15  1  0
 16 18  2  0
M  END
>  <ID>  (1) 
conformer_0

$$$$
