
     RDKit          3D

 31 33  0  0  0  0  0  0  0  0999 V2000
  -24.6567   18.4389  -25.3852 C   0  0  0  0  0  0  0  0  0  0  0  0
  -19.6774   14.9975  -32.9128 O   0  0  0  0  0  0  0  0  0  0  0  0
  -17.5972   16.4248  -28.7341 C   0  0  0  0  0  0  0  0  0  0  0  0
  -24.8186   17.1405  -22.9387 C   0  0  0  0  0  0  0  0  0  0  0  0
  -25.9412   17.7461  -23.4776 C   0  0  0  0  0  0  0  0  0  0  0  0
  -20.0755   16.7569  -26.2998 C   0  0  0  0  0  0  0  0  0  0  0  0
  -16.7440   19.7299  -27.3374 O   0  0  0  0  0  0  0  0  0  0  0  0
  -20.8834   15.6711  -25.6472 Cl  0  0  0  0  0  0  0  0  0  0  0  0
  -19.2430   15.9968  -32.0845 C   0  0  0  0  0  0  0  0  0  0  0  0
  -18.7293   17.1149  -32.7612 O   0  0  0  0  0  0  0  0  0  0  0  0
  -24.8824   16.5137  -21.7352 F   0  0  0  0  0  0  0  0  0  0  0  0
  -21.7143   18.4025  -26.6100 C   0  0  0  0  0  0  0  0  0  0  0  0
  -20.0386   16.6168  -29.7010 C   0  0  0  0  0  0  0  0  0  0  0  0
  -21.7869   19.5847  -26.8607 O   0  0  0  0  0  0  0  0  0  0  0  0
  -25.8429   18.4068  -24.6706 C   0  0  0  0  0  0  0  0  0  0  0  0
  -17.3824   16.4790  -30.2626 C   0  0  0  0  0  0  0  0  0  0  0  0
  -18.0137   15.3836  -31.1540 C   0  0  0  0  0  0  0  0  0  0  0  0
  -18.0985   17.7369  -28.1387 C   0  0  0  0  0  0  0  0  0  0  0  0
  -21.9099   17.6641  -29.5152 C   0  0  0  0  0  0  0  0  0  0  0  0
  -18.0407   17.9216  -26.7918 N   0  0  0  0  0  0  0  0  0  0  0  0
  -23.6166   17.2229  -23.6281 C   0  0  0  0  0  0  0  0  0  0  0  0
  -20.7495   17.5612  -27.2750 N   0  0  0  0  0  0  0  0  0  0  0  0
  -20.8164   17.2873  -28.7409 C   0  0  0  0  0  0  0  0  0  0  0  0
  -22.3907   17.9354  -25.5183 N   0  0  0  0  0  0  0  0  0  0  0  0
  -22.0987   16.9268  -30.8922 N   0  0  0  0  0  0  0  0  0  0  0  0
  -22.7234   18.6472  -29.3567 F   0  0  0  0  0  0  0  0  0  0  0  0
  -20.4848   16.4303  -30.9621 C   0  0  0  0  0  0  0  0  0  0  0  0
  -18.6803   17.0615  -25.8554 C   0  0  0  0  0  0  0  0  0  0  0  0
  -22.4663   16.6638  -23.0571 F   0  0  0  0  0  0  0  0  0  0  0  0
  -23.5399   17.8669  -24.8686 C   0  0  0  0  0  0  0  0  0  0  0  0
  -17.4366   19.0515  -26.2824 C   0  0  0  0  0  0  0  0  0  0  0  0
  1 15  2  0
  1 30  1  0
  2  9  1  0
  3 16  1  0
  3 18  1  0
  4  5  1  0
  4 11  1  0
  4 21  2  0
  5 15  1  0
  6  8  1  0
  6 22  1  0
  6 28  1  0
  7 31  1  0
  9 10  1  0
  9 17  1  0
  9 27  1  0
 12 14  2  0
 12 22  1  0
 12 24  1  0
 13 23  1  0
 13 27  2  0
 16 17  1  0
 18 20  1  0
 19 23  1  0
 19 25  1  0
 19 26  1  0
 20 28  1  0
 20 31  1  0
 21 29  1  0
 21 30  1  0
 22 23  1  0
 24 30  2  3
 25 27  1  0
M  END
>  <ID>  (1) 
conformer_0

$$$$
