
     RDKit          3D

 22 22  0  0  0  0  0  0  0  0999 V2000
  -17.1812   16.8440  -26.6650 C   0  0  0  0  0  0  0  0  0  0  0  0
  -21.5816   17.8097  -30.9137 C   0  0  0  0  0  0  0  0  0  0  0  0
  -17.7373   18.2222  -28.5173 O   0  0  0  0  0  0  0  0  0  0  0  0
  -20.6337   17.5606  -27.9392 C   0  0  0  0  0  0  0  0  0  0  0  0
  -24.3838   18.4038  -25.6881 C   0  0  0  0  0  0  0  0  0  0  0  0
  -22.4871   16.7758  -22.9612 O   0  0  0  0  0  0  0  0  0  0  0  0
  -20.7070   18.9096  -30.4426 C   0  0  0  0  0  0  0  0  0  0  0  0
  -20.9629   16.1883  -25.2636 C   0  0  0  0  0  0  0  0  0  0  0  0
  -21.5719   18.6370  -27.7263 C   0  0  0  0  0  0  0  0  0  0  0  0
  -21.9300   16.6642  -29.9091 C   0  0  0  0  0  0  0  0  0  0  0  0
  -19.5029   15.9500  -29.5609 C   0  0  0  0  0  0  0  0  0  0  0  0
  -22.8368   17.3416  -24.1137 C   0  0  0  0  0  0  0  0  0  0  0  0
  -18.2997   15.9088  -28.6617 C   0  0  0  0  0  0  0  0  0  0  0  0
  -19.7851   16.0299  -26.2695 C   0  0  0  0  0  0  0  0  0  0  0  0
  -21.7413   17.4856  -25.0824 C   0  0  0  0  0  0  0  0  0  0  0  0
  -22.1547   15.3903  -30.6868 C   0  0  0  0  0  0  0  0  0  0  0  0
  -19.2017   18.6695  -26.1172 C   0  0  0  0  0  0  0  0  0  0  0  0
  -24.0368   18.1749  -24.2579 C   0  0  0  0  0  0  0  0  0  0  0  0
  -20.7796   16.4952  -28.9511 C   0  0  0  0  0  0  0  0  0  0  0  0
  -18.1506   17.1437  -27.7817 C   0  0  0  0  0  0  0  0  0  0  0  0
  -23.1345   16.8984  -29.2646 O   0  0  0  0  0  0  0  0  0  0  0  0
  -19.4886   17.3942  -26.9969 C   0  0  0  0  0  0  0  0  0  0  0  0
  1 20  1  0
  2  7  1  0
  2 10  1  0
  3 20  1  0
  4  9  1  0
  4 19  1  0
  4 22  1  0
  5 18  1  0
  6 12  1  0
  8 14  1  0
  8 15  1  0
 10 16  1  0
 10 19  1  0
 10 21  1  0
 11 13  1  0
 11 19  1  0
 12 15  1  0
 12 18  1  0
 13 20  1  0
 14 22  1  0
 17 22  1  0
 20 22  1  0
M  END
>  <ID>  (1) 
conformer_0

$$$$
