
     RDKit          3D

 23 24  0  0  0  0  0  0  0  0999 V2000
  -17.6138   17.0257  -27.9796 C   0  0  0  0  0  0  0  0  0  0  0  0
  -19.6331   18.0055  -26.7639 O   0  0  0  0  0  0  0  0  0  0  0  0
  -21.4097   16.7604  -29.3265 C   0  0  0  0  0  0  0  0  0  0  0  0
  -21.8511   16.2016  -30.4557 N   0  0  0  0  0  0  0  0  0  0  0  0
  -23.4439   17.6670  -29.7557 C   0  0  0  0  0  0  0  0  0  0  0  0
  -22.7430   18.4372  -25.3343 C   0  0  0  0  0  0  0  0  0  0  0  0
  -22.5103   18.2949  -27.6901 N   0  0  0  0  0  0  0  0  0  0  0  0
  -23.8671   18.1388  -24.7592 C   0  0  0  0  0  0  0  0  0  0  0  0
  -24.9482   16.0020  -21.8972 O   0  0  0  0  0  0  0  0  0  0  0  0
  -18.1212   15.6212  -28.2613 C   0  0  0  0  0  0  0  0  0  0  0  0
  -18.3311   17.5705  -26.7641 C   0  0  0  0  0  0  0  0  0  0  0  0
  -19.5867   15.7019  -27.8091 C   0  0  0  0  0  0  0  0  0  0  0  0
  -23.1302   16.7759  -30.7193 C   0  0  0  0  0  0  0  0  0  0  0  0
  -17.4222   17.8711  -29.0346 O   0  0  0  0  0  0  0  0  0  0  0  0
  -17.4700   18.5900  -25.9955 C   0  0  0  0  0  0  0  0  0  0  0  0
  -22.4117   17.6179  -28.8429 C   0  0  0  0  0  0  0  0  0  0  0  0
  -20.2562   20.1612  -26.2779 O   0  0  0  0  0  0  0  0  0  0  0  0
  -20.5943   18.9426  -26.4754 C   0  0  0  0  0  0  0  0  0  0  0  0
  -22.6518   16.6803  -23.2137 O   0  0  0  0  0  0  0  0  0  0  0  0
  -22.0422   18.5364  -26.4579 C   0  0  0  0  0  0  0  0  0  0  0  0
  -20.1078   16.4902  -28.8367 O   0  0  0  0  0  0  0  0  0  0  0  0
  -25.1785   16.9817  -22.9234 C   0  0  0  0  0  0  0  0  0  0  0  0
  -23.8141   17.3782  -23.4990 C   0  0  0  0  0  0  0  0  0  0  0  0
  1 10  1  0
  1 11  1  0
  1 14  1  0
  2 11  1  0
  2 18  1  0
  3  4  1  0
  3 16  2  0
  3 21  1  0
  4 13  1  0
  5 13  1  0
  5 16  1  0
  6  8  1  0
  6 20  2  3
  7 16  1  0
  7 20  1  0
  8 23  1  0
  9 22  1  0
 10 12  1  0
 11 15  1  0
 12 21  1  0
 17 18  2  0
 18 20  1  0
 19 23  1  0
 22 23  1  0
M  END
>  <ID>  (1) 
conformer_0

$$$$
