
     RDKit          3D

 31 36  0  0  0  0  0  0  0  0999 V2000
  -19.7641   15.7336  -29.7962 O   0  0  0  0  0  0  0  0  0  0  0  0
  -21.3237   17.6677  -29.7904 C   0  0  0  0  0  0  0  0  0  0  0  0
  -18.5868   18.9250  -28.2670 C   0  0  0  0  0  0  0  0  0  0  0  0
  -23.8426   16.5260  -22.7199 C   0  0  0  0  0  0  0  0  0  0  0  0
  -22.0326   14.9905  -24.2079 C   0  0  0  0  0  0  0  0  0  0  0  0
  -22.1710   19.2341  -26.5535 C   0  0  0  0  0  0  0  0  0  0  0  0
  -18.8339   17.5737  -28.8519 C   0  0  0  0  0  0  0  0  0  0  0  0
  -20.0927   17.0689  -29.3699 N   0  0  0  0  0  0  0  0  0  0  0  0
  -22.5845   14.4832  -23.0156 C   0  0  0  0  0  0  0  0  0  0  0  0
  -18.0533   16.6088  -26.7996 C   0  0  0  0  0  0  0  0  0  0  0  0
  -21.2872   18.9983  -27.7207 C   0  0  0  0  0  0  0  0  0  0  0  0
  -19.9005   19.5121  -27.7081 C   0  0  0  0  0  0  0  0  0  0  0  0
  -22.7809   18.1285  -25.9006 C   0  0  0  0  0  0  0  0  0  0  0  0
  -23.5257   18.8434  -26.9634 O   0  0  0  0  0  0  0  0  0  0  0  0
  -23.3709   16.9750  -23.9354 C   0  0  0  0  0  0  0  0  0  0  0  0
  -17.2917   18.8498  -27.6624 O   0  0  0  0  0  0  0  0  0  0  0  0
  -22.1612   18.5285  -28.8896 C   0  0  0  0  0  0  0  0  0  0  0  0
  -24.6882   18.0949  -29.1102 C   0  0  0  0  0  0  0  0  0  0  0  0
  -23.5826   18.2148  -24.6265 C   0  0  0  0  0  0  0  0  0  0  0  0
  -18.5405   15.2823  -28.9884 C   0  0  0  0  0  0  0  0  0  0  0  0
  -22.4636   16.1961  -24.6427 C   0  0  0  0  0  0  0  0  0  0  0  0
  -21.6757   20.1338  -25.6195 O   0  0  0  0  0  0  0  0  0  0  0  0
  -25.7609   18.4436  -28.5995 O   0  0  0  0  0  0  0  0  0  0  0  0
  -17.9486   16.4894  -28.3086 C   0  0  0  0  0  0  0  0  0  0  0  0
  -23.4802   15.2216  -22.2785 C   0  0  0  0  0  0  0  0  0  0  0  0
  -21.9494   16.9435  -25.7180 O   0  0  0  0  0  0  0  0  0  0  0  0
  -17.2169   17.8560  -26.5098 C   0  0  0  0  0  0  0  0  0  0  0  0
  -21.4059   17.8735  -31.0034 O   0  0  0  0  0  0  0  0  0  0  0  0
  -24.5331   17.6931  -30.3000 O   0  0  0  0  0  0  0  0  0  0  0  0
  -19.3649   20.3629  -26.7293 O   0  0  0  0  0  0  0  0  0  0  0  0
  -23.5086   18.2859  -28.2984 C   0  0  0  0  0  0  0  0  0  0  0  0
  1  8  1  0
  1 20  1  0
  2  8  1  0
  2 17  1  0
  2 28  2  0
  3  7  1  0
  3 12  1  0
  3 16  1  0
  4 15  2  0
  4 25  1  0
  5  9  1  0
  5 21  2  0
  6 11  1  0
  6 13  1  0
  6 14  1  0
  6 22  1  0
  7  8  1  0
  7 24  1  0
  9 25  2  0
 10 24  1  0
 10 27  1  0
 11 12  1  0
 11 17  1  0
 12 30  1  0
 13 19  1  0
 13 26  1  0
 14 31  1  0
 15 19  1  0
 15 21  1  0
 16 27  1  0
 17 31  1  0
 18 23  2  0
 18 29  1  0
 18 31  1  0
 20 24  1  0
 21 26  1  0
M  END
>  <ID>  (1) 
conformer_0

$$$$
