
     RDKit          3D

 17 18  0  0  0  0  0  0  0  0999 V2000
  -24.7494   17.9830  -23.4817 F   0  0  0  0  0  0  0  0  0  0  0  0
  -21.3944   17.3772  -25.7784 C   0  0  0  0  0  0  0  0  0  0  0  0
  -18.1928   16.1381  -27.4489 C   0  0  0  0  0  0  0  0  0  0  0  0
  -18.7088   15.8527  -28.7273 C   0  0  0  0  0  0  0  0  0  0  0  0
  -21.8766   19.4782  -26.9381 O   0  0  0  0  0  0  0  0  0  0  0  0
  -20.7852   16.7099  -28.0266 C   0  0  0  0  0  0  0  0  0  0  0  0
  -22.4465   18.3145  -26.2788 C   0  0  0  0  0  0  0  0  0  0  0  0
  -22.6413   17.0482  -23.6927 C   0  0  0  0  0  0  0  0  0  0  0  0
  -23.6073   18.4303  -25.4036 C   0  0  0  0  0  0  0  0  0  0  0  0
  -18.2643   17.2619  -25.1961 C   0  0  0  0  0  0  0  0  0  0  0  0
  -20.0027   16.2098  -29.0184 C   0  0  0  0  0  0  0  0  0  0  0  0
  -20.5942   16.1732  -30.3944 C   0  0  0  0  0  0  0  0  0  0  0  0
  -22.7718   18.4291  -27.7006 C   0  0  0  0  0  0  0  0  0  0  0  0
  -21.5297   16.8355  -24.4979 C   0  0  0  0  0  0  0  0  0  0  0  0
  -20.3646   16.9666  -26.7305 C   0  0  0  0  0  0  0  0  0  0  0  0
  -23.6784   17.8246  -24.1944 C   0  0  0  0  0  0  0  0  0  0  0  0
  -18.9891   16.7387  -26.4958 C   0  0  0  0  0  0  0  0  0  0  0  0
  1 16  1  0
  2  7  1  0
  2 14  1  0
  2 15  1  0
  3  4  2  0
  3 17  1  0
  4 11  1  0
  5  7  1  0
  6 11  2  0
  6 15  1  0
  7  9  1  0
  7 13  1  0
  8 14  2  0
  8 16  1  0
  9 16  2  0
 10 17  1  0
 11 12  1  0
 15 17  1  0
M  END
>  <ID>  (1) 
conformer_0

$$$$
