
     RDKit          3D

 41 48  0  0  0  0  0  0  0  0999 V2000
  -24.4656   18.1016  -30.0732 C   0  0  0  0  0  0  0  0  0  0  0  0
  -17.7665   19.5147  -27.0711 C   0  0  0  0  0  0  0  0  0  0  0  0
  -23.7470   17.2608  -23.1750 C   0  0  0  0  0  0  0  0  0  0  0  0
  -17.3854   18.6629  -25.8254 C   0  0  0  0  0  0  0  0  0  0  0  0
  -20.7159   19.9407  -30.5652 C   0  0  0  0  0  0  0  0  0  0  0  0
  -17.1415   16.7411  -29.4732 C   0  0  0  0  0  0  0  0  0  0  0  0
  -18.0643   18.5957  -28.1932 C   0  0  0  0  0  0  0  0  0  0  0  0
  -25.3099   18.0571  -24.9051 C   0  0  0  0  0  0  0  0  0  0  0  0
  -18.5535   17.3618  -27.6333 C   0  0  0  0  0  0  0  0  0  0  0  0
  -23.4407   18.6971  -30.6440 N   0  0  0  0  0  0  0  0  0  0  0  0
  -18.5591   16.7472  -30.0408 C   0  0  0  0  0  0  0  0  0  0  0  0
  -24.3548   18.6525  -32.7793 C   0  0  0  0  0  0  0  0  0  0  0  0
  -25.4256   17.9648  -32.2353 N   0  0  0  0  0  0  0  0  0  0  0  0
  -17.1752   17.5372  -28.1894 C   0  0  0  0  0  0  0  0  0  0  0  0
  -21.5117   16.8981  -23.8394 O   0  0  0  0  0  0  0  0  0  0  0  0
  -20.1152   14.8078  -33.0156 F   0  0  0  0  0  0  0  0  0  0  0  0
  -18.5590   17.8080  -25.2844 C   0  0  0  0  0  0  0  0  0  0  0  0
  -18.6107   15.9067  -27.3739 O   0  0  0  0  0  0  0  0  0  0  0  0
  -19.6944   20.0110  -29.4251 C   0  0  0  0  0  0  0  0  0  0  0  0
  -23.2806   18.8924  -31.9723 C   0  0  0  0  0  0  0  0  0  0  0  0
  -25.0288   17.6734  -23.5886 C   0  0  0  0  0  0  0  0  0  0  0  0
  -18.0707   16.2600  -32.2186 O   0  0  0  0  0  0  0  0  0  0  0  0
  -20.1595   15.3213  -31.6663 C   0  0  0  0  0  0  0  0  0  0  0  0
  -18.5341   14.4753  -30.1233 O   0  0  0  0  0  0  0  0  0  0  0  0
  -18.9160   18.0581  -30.5767 C   0  0  0  0  0  0  0  0  0  0  0  0
  -24.4808   17.9770  -28.6039 N   0  0  0  0  0  0  0  0  0  0  0  0
  -20.6328   18.4575  -26.4973 C   0  0  0  0  0  0  0  0  0  0  0  0
  -24.5000   18.2551  -27.2570 C   0  0  0  0  0  0  0  0  0  0  0  0
  -20.8383   19.0694  -31.7981 C   0  0  0  0  0  0  0  0  0  0  0  0
  -22.0033   19.2815  -32.5236 O   0  0  0  0  0  0  0  0  0  0  0  0
  -21.9770   18.1126  -26.3837 C   0  0  0  0  0  0  0  0  0  0  0  0
  -18.5609   19.0724  -29.4881 C   0  0  0  0  0  0  0  0  0  0  0  0
  -18.9531   17.2954  -32.8308 C   0  0  0  0  0  0  0  0  0  0  0  0
  -22.9814   17.8041  -25.4180 C   0  0  0  0  0  0  0  0  0  0  0  0
  -20.8545   16.6069  -31.5650 C   0  0  0  0  0  0  0  0  0  0  0  0
  -24.2901   18.0511  -25.8280 C   0  0  0  0  0  0  0  0  0  0  0  0
  -19.9470   17.8130  -31.7378 C   0  0  0  0  0  0  0  0  0  0  0  0
  -25.4696   17.6587  -30.8759 C   0  0  0  0  0  0  0  0  0  0  0  0
  -22.7553   17.3198  -24.1285 C   0  0  0  0  0  0  0  0  0  0  0  0
  -19.4970   17.7612  -26.4429 C   0  0  0  0  0  0  0  0  0  0  0  0
  -18.7288   15.6119  -31.0487 C   0  0  0  0  0  0  0  0  0  0  0  0
  1 10  2  0
  1 26  1  0
  1 38  1  0
  2  4  1  0
  2  7  1  0
  3 21  1  0
  3 39  2  0
  4 17  1  0
  5 19  2  0
  5 29  1  0
  6 11  1  0
  6 14  1  0
  7  9  1  0
  7 14  1  0
  7 32  1  0
  8 21  1  0
  8 36  2  0
  9 18  1  0
  9 40  1  0
 10 20  1  0
 11 25  1  0
 11 41  1  0
 12 13  1  0
 12 20  2  0
 13 38  2  0
 15 39  1  0
 16 23  1  0
 17 40  1  0
 19 32  1  0
 20 30  1  0
 22 33  1  0
 22 41  1  0
 23 35  1  0
 23 41  1  0
 24 41  1  0
 25 32  1  0
 25 37  1  0
 26 28  1  0
 27 31  1  0
 27 40  1  0
 28 36  1  0
 29 30  1  0
 29 37  1  0
 31 34  1  0
 33 37  1  0
 34 36  1  0
 34 39  1  0
 35 37  1  0
M  END
>  <ID>  (1) 
conformer_0

$$$$
