
     RDKit          3D

 32 35  0  0  0  0  0  0  0  0999 V2000
  -21.6713   17.3729  -30.2312 C   0  0  0  0  0  0  0  0  0  0  0  0
  -19.1748   16.8552  -31.0719 C   0  0  0  0  0  0  0  0  0  0  0  0
  -19.3769   17.5008  -25.4458 C   0  0  0  0  0  0  0  0  0  0  0  0
  -22.5289   18.5360  -30.8112 C   0  0  0  0  0  0  0  0  0  0  0  0
  -17.8139   15.7117  -29.4795 C   0  0  0  0  0  0  0  0  0  0  0  0
  -22.1863   15.0953  -30.8129 O   0  0  0  0  0  0  0  0  0  0  0  0
  -20.1606   17.4726  -30.2740 C   0  0  0  0  0  0  0  0  0  0  0  0
  -21.9509   17.5684  -28.7631 O   0  0  0  0  0  0  0  0  0  0  0  0
  -24.1209   18.3467  -28.9732 O   0  0  0  0  0  0  0  0  0  0  0  0
  -22.0660   19.4060  -31.5888 O   0  0  0  0  0  0  0  0  0  0  0  0
  -17.8106   16.4390  -28.4500 C   0  0  0  0  0  0  0  0  0  0  0  0
  -25.1685   17.7986  -23.5974 C   0  0  0  0  0  0  0  0  0  0  0  0
  -23.9160   16.6954  -30.7037 N   0  0  0  0  0  0  0  0  0  0  0  0
  -19.7499   18.8471  -29.5553 C   0  0  0  0  0  0  0  0  0  0  0  0
  -22.0825   17.5760  -25.6124 N   0  0  0  0  0  0  0  0  0  0  0  0
  -23.0949   18.0064  -26.6328 C   0  0  0  0  0  0  0  0  0  0  0  0
  -20.7121   17.1243  -25.7333 C   0  0  0  0  0  0  0  0  0  0  0  0
  -25.3915   18.5157  -26.3787 O   0  0  0  0  0  0  0  0  0  0  0  0
  -18.1615   14.6362  -31.7212 C   0  0  0  0  0  0  0  0  0  0  0  0
  -22.5924   16.2096  -30.6117 C   0  0  0  0  0  0  0  0  0  0  0  0
  -18.3130   15.7920  -30.7561 C   0  0  0  0  0  0  0  0  0  0  0  0
  -23.0201   18.0979  -28.0855 C   0  0  0  0  0  0  0  0  0  0  0  0
  -18.9009   18.5071  -24.8551 O   0  0  0  0  0  0  0  0  0  0  0  0
  -22.3390   17.0236  -23.3752 O   0  0  0  0  0  0  0  0  0  0  0  0
  -24.1038   17.8339  -24.6065 N   0  0  0  0  0  0  0  0  0  0  0  0
  -18.9307   17.5445  -32.4797 C   0  0  0  0  0  0  0  0  0  0  0  0
  -24.3160   18.1698  -25.9444 C   0  0  0  0  0  0  0  0  0  0  0  0
  -19.3012   13.8284  -31.6890 O   0  0  0  0  0  0  0  0  0  0  0  0
  -22.7770   17.4706  -24.4284 C   0  0  0  0  0  0  0  0  0  0  0  0
  -18.4195   16.6269  -26.1342 O   0  0  0  0  0  0  0  0  0  0  0  0
  -17.7948   17.2025  -27.3158 C   0  0  0  0  0  0  0  0  0  0  0  0
  -23.9221   18.2220  -30.3968 C   0  0  0  0  0  0  0  0  0  0  0  0
  1  4  1  0
  1  7  1  0
  1  8  1  0
  1 20  1  0
  2  7  1  0
  2 21  1  0
  2 26  1  0
  3 17  1  0
  3 23  2  0
  3 30  1  0
  4 10  2  0
  4 32  1  0
  5 11  2  0
  5 21  1  0
  6 20  2  0
  7 14  1  0
  8 22  1  0
  9 22  1  0
  9 32  1  0
 11 31  2  0
 12 25  1  0
 13 20  1  0
 13 32  1  0
 15 16  1  0
 15 17  1  0
 15 29  1  0
 16 22  2  0
 16 27  1  0
 18 27  2  0
 19 21  1  0
 19 28  1  0
 24 29  2  0
 25 27  1  0
 25 29  1  0
 30 31  1  0
M  END
>  <ID>  (1) 
conformer_0

$$$$
