
     RDKit          3D

 29 34  0  0  0  0  0  0  0  0999 V2000
  -24.8974   18.1091  -25.3327 C   0  0  0  0  0  0  0  0  0  0  0  0
  -23.0536   17.5374  -23.9745 C   0  0  0  0  0  0  0  0  0  0  0  0
  -18.5308   18.3548  -24.8506 C   0  0  0  0  0  0  0  0  0  0  0  0
  -22.2180   17.1131  -27.7173 C   0  0  0  0  0  0  0  0  0  0  0  0
  -19.0299   17.3885  -29.3342 N   0  0  0  0  0  0  0  0  0  0  0  0
  -26.1644   18.5571  -25.7671 C   0  0  0  0  0  0  0  0  0  0  0  0
  -24.3375   17.7956  -28.8327 C   0  0  0  0  0  0  0  0  0  0  0  0
  -17.0797   18.5576  -26.4826 N   0  0  0  0  0  0  0  0  0  0  0  0
  -20.2912   17.0034  -29.2498 C   0  0  0  0  0  0  0  0  0  0  0  0
  -22.4481   17.3545  -30.1578 C   0  0  0  0  0  0  0  0  0  0  0  0
  -20.9000   16.5899  -28.0487 C   0  0  0  0  0  0  0  0  0  0  0  0
  -20.2631   15.5918  -27.3067 C   0  0  0  0  0  0  0  0  0  0  0  0
  -21.1198   17.1469  -30.3836 C   0  0  0  0  0  0  0  0  0  0  0  0
  -18.9391   15.3164  -27.2945 C   0  0  0  0  0  0  0  0  0  0  0  0
  -17.2977   17.5506  -25.3755 C   0  0  0  0  0  0  0  0  0  0  0  0
  -26.2027   18.4860  -27.1627 N   0  0  0  0  0  0  0  0  0  0  0  0
  -24.3738   17.9715  -24.1159 C   0  0  0  0  0  0  0  0  0  0  0  0
  -22.9848   17.4169  -28.8799 C   0  0  0  0  0  0  0  0  0  0  0  0
  -18.1202   19.4448  -25.8467 C   0  0  0  0  0  0  0  0  0  0  0  0
  -21.0202   16.9435  -24.8804 O   0  0  0  0  0  0  0  0  0  0  0  0
  -22.2970   17.2810  -25.1218 C   0  0  0  0  0  0  0  0  0  0  0  0
  -18.1915   17.3021  -28.3139 C   0  0  0  0  0  0  0  0  0  0  0  0
  -20.6198   17.0911  -31.7673 C   0  0  0  0  0  0  0  0  0  0  0  0
  -27.1578   18.9771  -24.9727 N   0  0  0  0  0  0  0  0  0  0  0  0
  -24.9309   18.0243  -27.6054 C   0  0  0  0  0  0  0  0  0  0  0  0
  -17.4004   18.5003  -27.9417 C   0  0  0  0  0  0  0  0  0  0  0  0
  -17.9637   16.1536  -27.6707 N   0  0  0  0  0  0  0  0  0  0  0  0
  -24.1602   17.7940  -26.4648 C   0  0  0  0  0  0  0  0  0  0  0  0
  -22.8344   17.3493  -26.4589 C   0  0  0  0  0  0  0  0  0  0  0  0
  1  6  1  0
  1 17  1  0
  1 28  2  0
  2 17  2  0
  2 21  1  0
  3 15  1  0
  3 19  1  0
  4 11  1  0
  4 18  2  0
  4 29  1  0
  5  9  2  0
  5 22  1  0
  6 16  1  0
  6 24  2  0
  7 18  1  0
  7 25  2  0
  8 15  1  0
  8 19  1  0
  8 26  1  0
  9 11  1  0
  9 13  1  0
 10 13  2  0
 10 18  1  0
 11 12  1  0
 12 14  1  0
 13 23  1  0
 14 27  2  0
 16 25  1  0
 20 21  1  0
 21 29  2  0
 22 26  1  0
 22 27  1  0
 25 28  1  0
 28 29  1  0
M  END
>  <ID>  (1) 
conformer_0

$$$$
