
     RDKit          3D

 35 40  0  0  0  0  0  0  0  0999 V2000
  -17.6438   19.2265  -27.0899 C   0  0  0  0  0  0  0  0  0  0  0  0
  -20.4138   16.8566  -28.5048 C   0  0  0  0  0  0  0  0  0  0  0  0
  -21.8249   17.3042  -30.5522 C   0  0  0  0  0  0  0  0  0  0  0  0
  -24.5021   18.1302  -26.1721 C   0  0  0  0  0  0  0  0  0  0  0  0
  -16.9271   18.1684  -26.2253 C   0  0  0  0  0  0  0  0  0  0  0  0
  -19.3696   16.5168  -29.6562 C   0  0  0  0  0  0  0  0  0  0  0  0
  -23.8257   17.7424  -25.0678 C   0  0  0  0  0  0  0  0  0  0  0  0
  -25.5145   17.3650  -32.1581 O   0  0  0  0  0  0  0  0  0  0  0  0
  -24.0859   16.8300  -22.4297 Cl  0  0  0  0  0  0  0  0  0  0  0  0
  -22.3341   17.5491  -25.1233 C   0  0  0  0  0  0  0  0  0  0  0  0
  -18.1664   16.0321  -28.7691 C   0  0  0  0  0  0  0  0  0  0  0  0
  -18.4180   18.4101  -28.0686 C   0  0  0  0  0  0  0  0  0  0  0  0
  -20.5591   17.0248  -27.0152 C   0  0  0  0  0  0  0  0  0  0  0  0
  -26.6423   17.9850  -25.1320 C   0  0  0  0  0  0  0  0  0  0  0  0
  -26.0255   17.6820  -23.9310 C   0  0  0  0  0  0  0  0  0  0  0  0
  -25.0140   16.9996  -30.8448 C   0  0  0  0  0  0  0  0  0  0  0  0
  -24.6581   17.4891  -23.9093 C   0  0  0  0  0  0  0  0  0  0  0  0
  -25.9460   18.2899  -28.7809 C   0  0  0  0  0  0  0  0  0  0  0  0
  -26.1522   17.3051  -29.8412 C   0  0  0  0  0  0  0  0  0  0  0  0
  -26.5308   18.1247  -27.5355 O   0  0  0  0  0  0  0  0  0  0  0  0
  -18.1990   17.0302  -27.7124 C   0  0  0  0  0  0  0  0  0  0  0  0
  -21.6881   17.5959  -26.3675 O   0  0  0  0  0  0  0  0  0  0  0  0
  -21.7697   16.6199  -29.1861 C   0  0  0  0  0  0  0  0  0  0  0  0
  -18.2857   18.7056  -29.4533 O   0  0  0  0  0  0  0  0  0  0  0  0
  -26.8725   16.0280  -29.4924 C   0  0  0  0  0  0  0  0  0  0  0  0
  -19.2498   17.9223  -30.2775 C   0  0  0  0  0  0  0  0  0  0  0  0
  -20.6817   18.4297  -30.4868 C   0  0  0  0  0  0  0  0  0  0  0  0
  -18.8046   15.0436  -27.7547 C   0  0  0  0  0  0  0  0  0  0  0  0
  -17.7223   16.8763  -26.3165 C   0  0  0  0  0  0  0  0  0  0  0  0
  -21.6839   17.0418  -24.1416 O   0  0  0  0  0  0  0  0  0  0  0  0
  -23.4764   17.4277  -30.7676 C   0  0  0  0  0  0  0  0  0  0  0  0
  -23.5691   18.8463  -30.7609 O   0  0  0  0  0  0  0  0  0  0  0  0
  -25.8779   18.1092  -26.3077 C   0  0  0  0  0  0  0  0  0  0  0  0
  -19.5801   17.7109  -27.6674 C   0  0  0  0  0  0  0  0  0  0  0  0
  -16.8181   20.1308  -27.6505 O   0  0  0  0  0  0  0  0  0  0  0  0
  1  5  1  0
  1 12  1  0
  1 35  1  0
  2  6  1  0
  2 23  1  0
  2 34  1  0
  3 23  1  0
  3 27  1  0
  3 31  1  0
  4  7  2  0
  4 33  1  0
  5 29  1  0
  6 11  1  0
  6 26  1  0
  7 10  1  0
  7 17  1  0
  8 16  1  0
  9 17  1  0
 10 22  1  0
 10 30  2  0
 11 21  1  0
 11 28  1  0
 12 21  1  0
 12 24  1  0
 12 34  1  0
 13 22  1  0
 13 34  1  0
 14 15  1  0
 14 33  2  0
 15 17  2  0
 16 19  1  0
 16 31  1  0
 18 19  1  0
 18 20  1  0
 19 25  1  0
 20 33  1  0
 21 29  1  0
 24 26  1  0
 26 27  1  0
 31 32  1  0
M  END
>  <ID>  (1) 
conformer_0

$$$$
