
     RDKit          3D

 20 21  0  0  0  0  0  0  0  0999 V2000
  -18.4132   16.6405  -28.8666 C   0  0  0  0  0  0  0  0  0  0  0  0
  -22.9939   16.4344  -23.2744 F   0  0  0  0  0  0  0  0  0  0  0  0
  -21.3838   17.7065  -24.1518 N   0  0  0  0  0  0  0  0  0  0  0  0
  -21.1647   17.0787  -26.3739 C   0  0  0  0  0  0  0  0  0  0  0  0
  -18.4416   16.9651  -26.3828 C   0  0  0  0  0  0  0  0  0  0  0  0
  -23.4136   18.5601  -23.4640 F   0  0  0  0  0  0  0  0  0  0  0  0
  -24.4102   17.6658  -30.3492 C   0  0  0  0  0  0  0  0  0  0  0  0
  -22.2425   18.9457  -30.6799 C   0  0  0  0  0  0  0  0  0  0  0  0
  -19.1548   17.2432  -25.1860 C   0  0  0  0  0  0  0  0  0  0  0  0
  -19.1222   16.7733  -27.5676 C   0  0  0  0  0  0  0  0  0  0  0  0
  -23.4241   17.4341  -25.2350 F   0  0  0  0  0  0  0  0  0  0  0  0
  -18.1611   15.2547  -29.1571 O   0  0  0  0  0  0  0  0  0  0  0  0
  -22.9340   17.7081  -30.1364 C   0  0  0  0  0  0  0  0  0  0  0  0
  -20.5889   17.3309  -25.1988 C   0  0  0  0  0  0  0  0  0  0  0  0
  -20.4936   17.0466  -29.9497 N   0  0  0  0  0  0  0  0  0  0  0  0
  -20.5018   16.8315  -27.5374 C   0  0  0  0  0  0  0  0  0  0  0  0
  -19.1060   17.3089  -29.9844 C   0  0  0  0  0  0  0  0  0  0  0  0
  -22.5418   17.1412  -28.8386 N   0  0  0  0  0  0  0  0  0  0  0  0
  -22.8067   17.5352  -24.0629 C   0  0  0  0  0  0  0  0  0  0  0  0
  -21.2123   16.6617  -28.8175 C   0  0  0  0  0  0  0  0  0  0  0  0
  1 10  1  0
  1 12  1  0
  1 17  1  0
  2 19  1  0
  3 14  1  0
  3 19  1  0
  4 14  1  0
  4 16  2  0
  5  9  1  0
  5 10  2  0
  6 19  1  0
  7 13  1  0
  8 13  1  0
  9 14  2  0
 10 16  1  0
 11 19  1  0
 13 18  1  0
 15 17  1  0
 15 20  1  0
 16 20  1  0
 18 20  1  0
M  END
>  <ID>  (1) 
conformer_0

$$$$
