
     RDKit          3D

 27 31  0  0  0  0  0  0  0  0999 V2000
  -21.8387   19.9059  -26.5850 O   0  0  0  0  0  0  0  0  0  0  0  0
  -21.7091   17.5850  -26.1458 N   0  0  0  0  0  0  0  0  0  0  0  0
  -19.4632   16.8250  -27.3419 C   0  0  0  0  0  0  0  0  0  0  0  0
  -19.4567   15.1397  -29.0527 O   0  0  0  0  0  0  0  0  0  0  0  0
  -23.3265   15.1482  -22.6789 C   0  0  0  0  0  0  0  0  0  0  0  0
  -20.9604   16.7249  -27.1586 C   0  0  0  0  0  0  0  0  0  0  0  0
  -24.0718   17.2151  -22.1027 O   0  0  0  0  0  0  0  0  0  0  0  0
  -21.9513   17.5068  -30.8695 C   0  0  0  0  0  0  0  0  0  0  0  0
  -22.2782   18.3429  -28.2948 C   0  0  0  0  0  0  0  0  0  0  0  0
  -18.8810   16.1470  -28.4456 C   0  0  0  0  0  0  0  0  0  0  0  0
  -17.3343   17.8466  -26.9382 C   0  0  0  0  0  0  0  0  0  0  0  0
  -23.4428   16.5105  -22.9606 C   0  0  0  0  0  0  0  0  0  0  0  0
  -17.5747   16.3974  -28.7930 C   0  0  0  0  0  0  0  0  0  0  0  0
  -21.2890   16.8815  -29.8128 C   0  0  0  0  0  0  0  0  0  0  0  0
  -23.0311   18.9129  -29.2868 C   0  0  0  0  0  0  0  0  0  0  0  0
  -21.8819   15.4742  -25.2937 C   0  0  0  0  0  0  0  0  0  0  0  0
  -21.9068   14.4126  -24.4615 C   0  0  0  0  0  0  0  0  0  0  0  0
  -22.5874   14.2066  -23.3133 C   0  0  0  0  0  0  0  0  0  0  0  0
  -18.5762   17.5745  -26.5443 C   0  0  0  0  0  0  0  0  0  0  0  0
  -22.9453   17.2191  -24.0123 C   0  0  0  0  0  0  0  0  0  0  0  0
  -22.8590   18.5190  -30.6138 C   0  0  0  0  0  0  0  0  0  0  0  0
  -21.4916   17.2478  -28.4929 C   0  0  0  0  0  0  0  0  0  0  0  0
  -16.8111   17.2605  -28.0598 N   0  0  0  0  0  0  0  0  0  0  0  0
  -22.1806   18.7481  -26.9093 C   0  0  0  0  0  0  0  0  0  0  0  0
  -22.2746   16.7778  -25.1031 C   0  0  0  0  0  0  0  0  0  0  0  0
  -21.2491   15.3608  -26.5965 O   0  0  0  0  0  0  0  0  0  0  0  0
  -18.8792   18.1045  -25.1735 C   0  0  0  0  0  0  0  0  0  0  0  0
  1 24  2  0
  2  6  1  0
  2 24  1  0
  2 25  1  0
  3  6  1  0
  3 10  1  0
  3 19  1  0
  4 10  1  0
  5 12  1  0
  5 18  1  0
  6 22  1  0
  6 26  1  0
  7 12  2  0
  8 14  2  0
  8 21  1  0
  9 15  1  0
  9 22  2  0
  9 24  1  0
 10 13  2  0
 11 19  2  0
 11 23  1  0
 12 20  1  0
 13 23  1  0
 14 22  1  0
 15 21  2  0
 16 17  1  0
 16 25  2  0
 16 26  1  0
 17 18  2  0
 19 27  1  0
 20 25  1  0
M  END
>  <ID>  (1) 
conformer_0

$$$$
