
     RDKit          3D

 19 20  0  0  0  0  0  0  0  0999 V2000
  -17.7176   16.7475  -27.2726 C   0  0  0  0  0  0  0  0  0  0  0  0
  -18.6183   17.2672  -26.3872 C   0  0  0  0  0  0  0  0  0  0  0  0
  -20.0755   17.2113  -26.6525 C   0  0  0  0  0  0  0  0  0  0  0  0
  -20.8121   16.1821  -31.3704 C   0  0  0  0  0  0  0  0  0  0  0  0
  -21.2012   16.1948  -30.0599 C   0  0  0  0  0  0  0  0  0  0  0  0
  -23.1507   18.0269  -24.6720 C   0  0  0  0  0  0  0  0  0  0  0  0
  -22.5487   19.3388  -24.8241 O   0  0  0  0  0  0  0  0  0  0  0  0
  -20.1446   16.3028  -29.0360 C   0  0  0  0  0  0  0  0  0  0  0  0
  -22.4135   16.2674  -29.6674 O   0  0  0  0  0  0  0  0  0  0  0  0
  -18.7997   15.9860  -29.3691 C   0  0  0  0  0  0  0  0  0  0  0  0
  -20.5932   20.1838  -25.9143 O   0  0  0  0  0  0  0  0  0  0  0  0
  -21.0339   17.7678  -25.7455 C   0  0  0  0  0  0  0  0  0  0  0  0
  -24.3616   17.8469  -24.3229 O   0  0  0  0  0  0  0  0  0  0  0  0
  -17.7815   16.2226  -28.4762 C   0  0  0  0  0  0  0  0  0  0  0  0
  -25.5583   17.8077  -23.7716 C   0  0  0  0  0  0  0  0  0  0  0  0
  -21.3317   19.1181  -25.5089 C   0  0  0  0  0  0  0  0  0  0  0  0
  -20.5000   16.7198  -27.8220 C   0  0  0  0  0  0  0  0  0  0  0  0
  -22.1937   16.9474  -25.1587 O   0  0  0  0  0  0  0  0  0  0  0  0
  -18.2468   17.8871  -25.2234 O   0  0  0  0  0  0  0  0  0  0  0  0
  1  2  1  0
  1 14  2  0
  2  3  1  0
  2 19  1  0
  3 12  1  0
  3 17  2  0
  4  5  1  0
  5  8  1  0
  5  9  2  0
  6  7  1  0
  6 13  1  0
  6 18  1  0
  7 16  1  0
  8 10  2  0
  8 17  1  0
 10 14  1  0
 11 16  2  0
 12 16  1  0
 12 18  1  0
 13 15  1  0
M  END
>  <ID>  (1) 
conformer_0

$$$$
