
     RDKit          3D

 15 16  0  0  0  0  0  0  0  0999 V2000
  -20.4947   16.8994  -28.6551 C   0  0  0  0  0  0  0  0  0  0  0  0
  -20.9991   17.0548  -30.9476 C   0  0  0  0  0  0  0  0  0  0  0  0
  -22.1267   17.7302  -27.0057 O   0  0  0  0  0  0  0  0  0  0  0  0
  -20.1455   17.0139  -26.1352 C   0  0  0  0  0  0  0  0  0  0  0  0
  -23.2966   18.0937  -24.4458 C   0  0  0  0  0  0  0  0  0  0  0  0
  -21.1186   15.6606  -31.1338 O   0  0  0  0  0  0  0  0  0  0  0  0
  -21.2337   17.5333  -29.6749 N   0  0  0  0  0  0  0  0  0  0  0  0
  -22.1735   17.7683  -25.4979 C   0  0  0  0  0  0  0  0  0  0  0  0
  -18.8397   16.5990  -25.9604 C   0  0  0  0  0  0  0  0  0  0  0  0
  -18.4124   15.7280  -28.2123 C   0  0  0  0  0  0  0  0  0  0  0  0
  -23.0830   17.0547  -23.2265 C   0  0  0  0  0  0  0  0  0  0  0  0
  -20.8366   17.1619  -27.3100 C   0  0  0  0  0  0  0  0  0  0  0  0
  -18.1202   15.9949  -26.9605 C   0  0  0  0  0  0  0  0  0  0  0  0
  -19.4233   16.1049  -29.0017 C   0  0  0  0  0  0  0  0  0  0  0  0
  -20.9375   17.3584  -25.0585 O   0  0  0  0  0  0  0  0  0  0  0  0
  1  7  1  0
  1 12  1  0
  1 14  1  0
  2  6  1  0
  2  7  1  0
  3  8  1  0
  3 12  1  0
  4  9  1  0
  4 12  2  0
  4 15  1  0
  5  8  1  0
  5 11  1  0
  8 15  1  0
  9 13  1  0
 10 13  2  0
 10 14  1  0
M  END
>  <ID>  (1) 
conformer_0

$$$$
