
     RDKit          3D

 20 21  0  0  0  0  0  0  0  0999 V2000
  -16.8553   17.5366  -27.9487 O   0  0  0  0  0  0  0  0  0  0  0  0
  -18.5184   14.8024  -29.1627 F   0  0  0  0  0  0  0  0  0  0  0  0
  -17.9415   15.3464  -28.1160 C   0  0  0  0  0  0  0  0  0  0  0  0
  -18.5632   14.8968  -26.9840 F   0  0  0  0  0  0  0  0  0  0  0  0
  -19.7416   17.5083  -29.5533 C   0  0  0  0  0  0  0  0  0  0  0  0
  -23.1133   17.2414  -22.6583 O   0  0  0  0  0  0  0  0  0  0  0  0
  -21.7877   17.6930  -30.8439 C   0  0  0  0  0  0  0  0  0  0  0  0
  -22.2466   17.7661  -26.0958 C   0  0  0  0  0  0  0  0  0  0  0  0
  -21.9278   17.8630  -28.4713 C   0  0  0  0  0  0  0  0  0  0  0  0
  -19.9831   17.4826  -27.1121 C   0  0  0  0  0  0  0  0  0  0  0  0
  -21.9473   17.2455  -24.8582 C   0  0  0  0  0  0  0  0  0  0  0  0
  -23.5585   18.3032  -25.9838 C   0  0  0  0  0  0  0  0  0  0  0  0
  -24.0632   18.1325  -24.6801 C   0  0  0  0  0  0  0  0  0  0  0  0
  -21.1541   17.5353  -29.5767 C   0  0  0  0  0  0  0  0  0  0  0  0
  -20.7202   17.6907  -31.8310 C   0  0  0  0  0  0  0  0  0  0  0  0
  -23.0372   17.4944  -23.9286 C   0  0  0  0  0  0  0  0  0  0  0  0
  -21.3796   17.7535  -27.1735 C   0  0  0  0  0  0  0  0  0  0  0  0
  -23.1188   18.3045  -28.7245 O   0  0  0  0  0  0  0  0  0  0  0  0
  -17.8538   16.7747  -28.2026 C   0  0  0  0  0  0  0  0  0  0  0  0
  -19.1383   17.4414  -28.2673 C   0  0  0  0  0  0  0  0  0  0  0  0
  1 19  2  0
  2  3  1  0
  3  4  1  0
  3 19  1  0
  5 14  1  0
  5 20  1  0
  6 16  1  0
  7 14  1  0
  7 15  1  0
  8 11  1  0
  8 12  1  0
  8 17  1  0
  9 14  1  0
  9 17  1  0
  9 18  1  0
 10 17  2  0
 10 20  1  0
 11 16  1  0
 12 13  1  0
 13 16  1  0
 19 20  1  0
M  END
>  <ID>  (1) 
conformer_0

$$$$
