
     RDKit          3D

 27 31  0  0  0  0  0  0  0  0999 V2000
  -22.7885   17.7175  -30.4728 C   0  0  0  0  0  0  0  0  0  0  0  0
  -25.7610   16.9991  -22.7612 C   0  0  0  0  0  0  0  0  0  0  0  0
  -22.5278   16.8995  -24.7040 C   0  0  0  0  0  0  0  0  0  0  0  0
  -20.8234   16.6866  -26.3034 C   0  0  0  0  0  0  0  0  0  0  0  0
  -17.1569   17.4681  -25.5453 C   0  0  0  0  0  0  0  0  0  0  0  0
  -19.1861   15.4917  -29.6431 C   0  0  0  0  0  0  0  0  0  0  0  0
  -18.8538   16.7513  -27.6264 C   0  0  0  0  0  0  0  0  0  0  0  0
  -22.3540   18.5145  -26.9499 C   0  0  0  0  0  0  0  0  0  0  0  0
  -18.5029   17.1793  -25.3111 C   0  0  0  0  0  0  0  0  0  0  0  0
  -25.2382   18.1733  -30.2453 C   0  0  0  0  0  0  0  0  0  0  0  0
  -21.8905   19.8548  -27.0490 O   0  0  0  0  0  0  0  0  0  0  0  0
  -20.3331   16.1960  -30.0504 C   0  0  0  0  0  0  0  0  0  0  0  0
  -21.7745   17.7467  -25.7443 C   0  0  0  0  0  0  0  0  0  0  0  0
  -21.6190   17.9173  -28.2793 C   0  0  0  0  0  0  0  0  0  0  0  0
  -24.3836   18.2451  -24.7846 O   0  0  0  0  0  0  0  0  0  0  0  0
  -19.3508   16.8787  -26.3593 C   0  0  0  0  0  0  0  0  0  0  0  0
  -21.1757   16.4943  -27.8274 C   0  0  0  0  0  0  0  0  0  0  0  0
  -22.8423   18.3362  -29.1340 C   0  0  0  0  0  0  0  0  0  0  0  0
  -19.8154   16.2330  -28.5789 N   0  0  0  0  0  0  0  0  0  0  0  0
  -17.5785   17.1109  -27.9437 C   0  0  0  0  0  0  0  0  0  0  0  0
  -23.6564   18.4648  -27.8549 O   0  0  0  0  0  0  0  0  0  0  0  0
  -16.7109   17.4856  -26.8821 C   0  0  0  0  0  0  0  0  0  0  0  0
  -21.0794   18.6569  -24.9171 O   0  0  0  0  0  0  0  0  0  0  0  0
  -24.2947   16.6288  -22.9178 C   0  0  0  0  0  0  0  0  0  0  0  0
  -24.0532   18.0245  -31.2016 C   0  0  0  0  0  0  0  0  0  0  0  0
  -23.6096   17.4907  -23.9941 C   0  0  0  0  0  0  0  0  0  0  0  0
  -21.8664   16.4114  -30.4396 C   0  0  0  0  0  0  0  0  0  0  0  0
  1 18  1  0
  1 25  1  0
  1 27  1  0
  2 24  1  0
  3 13  1  0
  3 26  1  0
  4 13  1  0
  4 16  1  0
  4 17  1  0
  5  9  2  0
  5 22  1  0
  6 12  1  0
  6 19  1  0
  7 16  2  0
  7 19  1  0
  7 20  1  0
  8 11  1  0
  8 13  1  0
  8 14  1  0
  8 21  1  0
  9 16  1  0
 10 25  1  0
 12 27  1  0
 13 23  1  0
 14 17  1  0
 14 18  1  0
 15 26  1  0
 17 19  1  0
 18 21  1  0
 20 22  2  0
 24 26  1  0
M  END
>  <ID>  (1) 
conformer_0

$$$$
