
     RDKit          3D

 23 25  0  0  0  0  0  0  0  0999 V2000
  -23.6038   16.1785  -22.0726 O   0  0  0  0  0  0  0  0  0  0  0  0
  -23.6131   18.4233  -24.9209 C   0  0  0  0  0  0  0  0  0  0  0  0
  -21.5118   17.2113  -24.8305 C   0  0  0  0  0  0  0  0  0  0  0  0
  -22.3608   18.2061  -25.4191 C   0  0  0  0  0  0  0  0  0  0  0  0
  -19.4648   17.0003  -26.5354 C   0  0  0  0  0  0  0  0  0  0  0  0
  -23.7135   16.9212  -30.6583 N   0  0  0  0  0  0  0  0  0  0  0  0
  -21.9603   16.5189  -23.7088 C   0  0  0  0  0  0  0  0  0  0  0  0
  -18.8671   16.3108  -28.7773 C   0  0  0  0  0  0  0  0  0  0  0  0
  -21.4330   20.0664  -26.5282 O   0  0  0  0  0  0  0  0  0  0  0  0
  -21.8318   18.2033  -27.7686 N   0  0  0  0  0  0  0  0  0  0  0  0
  -19.1903   15.6158  -29.8875 F   0  0  0  0  0  0  0  0  0  0  0  0
  -24.0530   17.7448  -23.8099 C   0  0  0  0  0  0  0  0  0  0  0  0
  -17.5392   16.4750  -28.4816 C   0  0  0  0  0  0  0  0  0  0  0  0
  -18.1179   17.2115  -26.2424 C   0  0  0  0  0  0  0  0  0  0  0  0
  -20.2694   16.9270  -25.3723 C   0  0  0  0  0  0  0  0  0  0  0  0
  -23.2276   16.8065  -23.1845 C   0  0  0  0  0  0  0  0  0  0  0  0
  -19.8317   16.7586  -27.8821 C   0  0  0  0  0  0  0  0  0  0  0  0
  -22.9898   18.8494  -29.8704 O   0  0  0  0  0  0  0  0  0  0  0  0
  -21.4209   17.0511  -29.8757 C   0  0  0  0  0  0  0  0  0  0  0  0
  -21.2176   17.0212  -28.3380 C   0  0  0  0  0  0  0  0  0  0  0  0
  -22.8059   17.6936  -30.0402 C   0  0  0  0  0  0  0  0  0  0  0  0
  -17.1551   16.9588  -27.2368 C   0  0  0  0  0  0  0  0  0  0  0  0
  -21.8484   18.9015  -26.5932 C   0  0  0  0  0  0  0  0  0  0  0  0
  1 16  1  0
  2  4  2  0
  2 12  1  0
  3  4  1  0
  3  7  2  0
  3 15  1  0
  4 23  1  0
  5 14  1  0
  5 15  1  0
  5 17  1  0
  6 21  1  0
  7 16  1  0
  8 11  1  0
  8 13  2  0
  8 17  1  0
  9 23  2  0
 10 20  1  0
 10 23  1  0
 12 16  2  0
 13 22  1  0
 14 22  2  0
 17 20  1  0
 18 21  2  0
 19 20  1  0
 19 21  1  0
M  END
>  <ID>  (1) 
conformer_0

$$$$
