
     RDKit          3D

 20 21  0  0  0  0  0  0  0  0999 V2000
  -21.6312   18.6926  -26.3774 C   0  0  0  0  0  0  0  0  0  0  0  0
  -18.3756   15.8087  -29.3859 C   0  0  0  0  0  0  0  0  0  0  0  0
  -20.0846   16.6716  -30.8343 O   0  0  0  0  0  0  0  0  0  0  0  0
  -19.8453   17.4260  -27.5155 C   0  0  0  0  0  0  0  0  0  0  0  0
  -22.7127   18.4997  -25.4659 C   0  0  0  0  0  0  0  0  0  0  0  0
  -22.9439   16.9954  -23.4635 C   0  0  0  0  0  0  0  0  0  0  0  0
  -20.1917   17.1029  -25.0545 C   0  0  0  0  0  0  0  0  0  0  0  0
  -22.1534   16.0751  -23.0066 F   0  0  0  0  0  0  0  0  0  0  0  0
  -18.6404   16.5666  -27.0647 C   0  0  0  0  0  0  0  0  0  0  0  0
  -22.4505   18.1037  -24.1640 O   0  0  0  0  0  0  0  0  0  0  0  0
  -20.5490   19.6606  -28.2752 C   0  0  0  0  0  0  0  0  0  0  0  0
  -24.2371   16.9622  -23.3435 F   0  0  0  0  0  0  0  0  0  0  0  0
  -21.6501   19.6484  -27.3678 C   0  0  0  0  0  0  0  0  0  0  0  0
  -20.5321   17.8367  -26.3012 C   0  0  0  0  0  0  0  0  0  0  0  0
  -19.5216   18.6350  -28.3025 C   0  0  0  0  0  0  0  0  0  0  0  0
  -17.4700   16.9261  -29.5300 O   0  0  0  0  0  0  0  0  0  0  0  0
  -23.8800   18.6499  -25.8848 O   0  0  0  0  0  0  0  0  0  0  0  0
  -18.3778   15.3046  -27.9156 C   0  0  0  0  0  0  0  0  0  0  0  0
  -20.6060   16.4912  -28.4378 C   0  0  0  0  0  0  0  0  0  0  0  0
  -19.8548   16.1609  -29.7026 C   0  0  0  0  0  0  0  0  0  0  0  0
  1  5  1  0
  1 13  2  0
  1 14  1  0
  2 16  1  0
  2 18  1  0
  2 20  1  0
  3 20  2  0
  4  9  1  0
  4 14  1  0
  4 15  1  0
  4 19  1  0
  5 10  1  0
  5 17  2  0
  6  8  1  0
  6 10  1  0
  6 12  1  0
  7 14  1  0
  9 18  1  0
 11 13  1  0
 11 15  1  0
 19 20  1  0
M  END
>  <ID>  (1) 
conformer_0

$$$$
