
     RDKit          3D

 30 32  0  0  0  0  0  0  0  0999 V2000
  -17.3607   19.0143  -26.7924 C   0  0  0  0  0  0  0  0  0  0  0  0
  -21.4020   19.8795  -25.8998 O   0  0  0  0  0  0  0  0  0  0  0  0
  -22.0781   18.7984  -26.0872 C   0  0  0  0  0  0  0  0  0  0  0  0
  -20.7985   18.1280  -27.9361 N   0  0  0  0  0  0  0  0  0  0  0  0
  -19.4687   18.0790  -27.5475 C   0  0  0  0  0  0  0  0  0  0  0  0
  -19.7263   15.6191  -27.7233 F   0  0  0  0  0  0  0  0  0  0  0  0
  -26.6960   17.0082  -30.5020 C   0  0  0  0  0  0  0  0  0  0  0  0
  -21.2601   16.4601  -24.7676 O   0  0  0  0  0  0  0  0  0  0  0  0
  -19.3756   16.5791  -31.4449 C   0  0  0  0  0  0  0  0  0  0  0  0
  -23.6222   18.0549  -27.6807 C   0  0  0  0  0  0  0  0  0  0  0  0
  -22.2433   18.1831  -27.4716 C   0  0  0  0  0  0  0  0  0  0  0  0
  -21.9155   17.1634  -29.9168 C   0  0  0  0  0  0  0  0  0  0  0  0
  -24.2848   18.2641  -24.6859 C   0  0  0  0  0  0  0  0  0  0  0  0
  -21.1749   15.2165  -30.9202 O   0  0  0  0  0  0  0  0  0  0  0  0
  -22.2186   17.1019  -24.2114 C   0  0  0  0  0  0  0  0  0  0  0  0
  -21.5740   17.6876  -28.6701 C   0  0  0  0  0  0  0  0  0  0  0  0
  -26.9849   17.2375  -28.9949 C   0  0  0  0  0  0  0  0  0  0  0  0
  -22.6078   16.7712  -23.1128 O   0  0  0  0  0  0  0  0  0  0  0  0
  -24.3763   17.4333  -29.9258 C   0  0  0  0  0  0  0  0  0  0  0  0
  -18.6384   19.1848  -27.3837 C   0  0  0  0  0  0  0  0  0  0  0  0
  -20.8932   16.4770  -30.8977 C   0  0  0  0  0  0  0  0  0  0  0  0
  -25.9423   17.6161  -28.0791 C   0  0  0  0  0  0  0  0  0  0  0  0
  -23.1660   17.2066  -30.4793 C   0  0  0  0  0  0  0  0  0  0  0  0
  -24.5420   17.7183  -28.5393 C   0  0  0  0  0  0  0  0  0  0  0  0
  -18.9366   16.7892  -27.3388 C   0  0  0  0  0  0  0  0  0  0  0  0
  -17.7154   16.5856  -26.7711 C   0  0  0  0  0  0  0  0  0  0  0  0
  -25.4066   17.3890  -30.8229 O   0  0  0  0  0  0  0  0  0  0  0  0
  -16.9091   17.7124  -26.4818 C   0  0  0  0  0  0  0  0  0  0  0  0
  -20.5691   17.2233  -31.8201 O   0  0  0  0  0  0  0  0  0  0  0  0
  -22.8308   18.2225  -24.9816 C   0  0  0  0  0  0  0  0  0  0  0  0
  1 20  2  0
  1 28  1  0
  2  3  1  0
  3 11  1  0
  3 30  1  0
  4  5  1  0
  4 16  1  0
  5 20  1  0
  5 25  2  0
  6 25  1  0
  7 17  1  0
  7 27  1  0
  8 15  2  0
  9 29  1  0
 10 11  1  0
 10 24  2  0
 11 16  2  0
 12 16  1  0
 12 21  1  0
 12 23  1  0
 13 30  1  0
 14 21  2  0
 15 18  1  0
 15 30  1  0
 17 22  2  0
 19 23  2  0
 19 24  1  0
 19 27  1  0
 21 29  1  0
 22 24  1  0
 25 26  1  0
 26 28  2  0
M  END
>  <ID>  (1) 
conformer_0

$$$$
