
     RDKit          3D

 30 33  0  0  0  0  0  0  0  0999 V2000
  -21.6696   16.9591  -23.9423 O   0  0  0  0  0  0  0  0  0  0  0  0
  -20.6022   16.1284  -26.9115 C   0  0  0  0  0  0  0  0  0  0  0  0
  -24.8865   18.3041  -26.1015 C   0  0  0  0  0  0  0  0  0  0  0  0
  -24.1395   17.1509  -22.7444 O   0  0  0  0  0  0  0  0  0  0  0  0
  -19.6684   15.9053  -31.3574 C   0  0  0  0  0  0  0  0  0  0  0  0
  -19.7549   17.5785  -29.3984 C   0  0  0  0  0  0  0  0  0  0  0  0
  -18.3579   16.4896  -26.0782 C   0  0  0  0  0  0  0  0  0  0  0  0
  -24.0184   17.3534  -30.4978 C   0  0  0  0  0  0  0  0  0  0  0  0
  -19.9354   18.8289  -30.2435 C   0  0  0  0  0  0  0  0  0  0  0  0
  -26.1749   18.2302  -24.1179 F   0  0  0  0  0  0  0  0  0  0  0  0
  -16.9522   17.4746  -30.5898 O   0  0  0  0  0  0  0  0  0  0  0  0
  -18.9815   17.6854  -28.0762 C   0  0  0  0  0  0  0  0  0  0  0  0
  -18.0406   18.6509  -27.7802 C   0  0  0  0  0  0  0  0  0  0  0  0
  -23.9619   17.4928  -24.0090 C   0  0  0  0  0  0  0  0  0  0  0  0
  -22.3023   17.9501  -28.9136 C   0  0  0  0  0  0  0  0  0  0  0  0
  -22.1466   18.6335  -31.3300 C   0  0  0  0  0  0  0  0  0  0  0  0
  -23.4117   18.3239  -28.0654 C   0  0  0  0  0  0  0  0  0  0  0  0
  -17.1662   18.4684  -26.6826 C   0  0  0  0  0  0  0  0  0  0  0  0
  -22.8601   18.1722  -30.2429 N   0  0  0  0  0  0  0  0  0  0  0  0
  -19.0919   16.6119  -30.2896 N   0  0  0  0  0  0  0  0  0  0  0  0
  -23.6710   18.0747  -26.7175 C   0  0  0  0  0  0  0  0  0  0  0  0
  -20.7065   18.4637  -31.4830 C   0  0  0  0  0  0  0  0  0  0  0  0
  -17.2907   17.3385  -25.8907 C   0  0  0  0  0  0  0  0  0  0  0  0
  -21.5783   17.0777  -26.6175 O   0  0  0  0  0  0  0  0  0  0  0  0
  -17.7303   16.4007  -30.3140 C   0  0  0  0  0  0  0  0  0  0  0  0
  -19.2651   16.7565  -27.0888 C   0  0  0  0  0  0  0  0  0  0  0  0
  -24.9894   18.0083  -24.7584 C   0  0  0  0  0  0  0  0  0  0  0  0
  -21.1400   17.0476  -29.1178 C   0  0  0  0  0  0  0  0  0  0  0  0
  -22.7581   17.3234  -24.6238 C   0  0  0  0  0  0  0  0  0  0  0  0
  -22.6549   17.5229  -25.9629 C   0  0  0  0  0  0  0  0  0  0  0  0
  1 29  1  0
  2 24  1  0
  2 26  1  0
  3 21  2  0
  3 27  1  0
  4 14  1  0
  5 20  1  0
  6  9  1  0
  6 12  1  0
  6 20  1  0
  6 28  1  0
  7 23  2  0
  7 26  1  0
  8 19  1  0
  9 22  1  0
 10 27  1  0
 11 25  1  0
 12 13  1  0
 12 26  1  0
 13 18  2  0
 14 27  2  0
 14 29  1  0
 15 17  1  0
 15 19  1  0
 15 28  1  0
 16 19  1  0
 16 22  1  0
 17 21  1  0
 18 23  1  0
 20 25  1  0
 21 30  1  0
 24 30  1  0
 29 30  2  0
M  END
>  <ID>  (1) 
conformer_0

$$$$
