
     RDKit          3D

 20 24  0  0  0  0  0  0  0  0999 V2000
  -22.2156   17.7017  -28.5817 C   0  0  0  0  0  0  0  0  0  0  0  0
  -18.6891   17.1873  -27.2702 C   0  0  0  0  0  0  0  0  0  0  0  0
  -24.0488   17.9180  -24.4106 C   0  0  0  0  0  0  0  0  0  0  0  0
  -17.5507   18.7395  -29.1557 O   0  0  0  0  0  0  0  0  0  0  0  0
  -22.8168   17.3260  -24.1043 C   0  0  0  0  0  0  0  0  0  0  0  0
  -23.4293   18.0711  -28.1314 C   0  0  0  0  0  0  0  0  0  0  0  0
  -19.6577   17.6991  -29.3531 C   0  0  0  0  0  0  0  0  0  0  0  0
  -21.3275   17.5943  -27.5578 N   0  0  0  0  0  0  0  0  0  0  0  0
  -24.3185   18.2414  -25.7419 C   0  0  0  0  0  0  0  0  0  0  0  0
  -22.0620   17.5822  -26.3867 C   0  0  0  0  0  0  0  0  0  0  0  0
  -18.1546   17.5101  -29.5725 C   0  0  0  0  0  0  0  0  0  0  0  0
  -18.6656   15.2788  -28.7115 C   0  0  0  0  0  0  0  0  0  0  0  0
  -22.6765   16.6039  -22.5742 Cl  0  0  0  0  0  0  0  0  0  0  0  0
  -17.8349   16.5069  -28.3740 C   0  0  0  0  0  0  0  0  0  0  0  0
  -21.7983   17.2072  -25.0793 C   0  0  0  0  0  0  0  0  0  0  0  0
  -19.5700   15.4598  -29.8750 O   0  0  0  0  0  0  0  0  0  0  0  0
  -19.9331   17.7134  -27.8501 C   0  0  0  0  0  0  0  0  0  0  0  0
  -23.3608   17.9937  -26.7209 C   0  0  0  0  0  0  0  0  0  0  0  0
  -21.8526   17.1965  -29.8255 O   0  0  0  0  0  0  0  0  0  0  0  0
  -20.4759   16.5772  -29.8897 C   0  0  0  0  0  0  0  0  0  0  0  0
  1  6  1  0
  1  8  1  0
  1 19  1  0
  2 14  1  0
  2 17  1  0
  3  5  2  0
  3  9  1  0
  4 11  1  0
  5 13  1  0
  5 15  1  0
  6 18  1  0
  7 11  1  0
  7 17  1  0
  7 20  1  0
  8 10  1  0
  8 17  1  0
  9 18  2  0
 10 15  2  0
 10 18  1  0
 11 14  1  0
 12 14  1  0
 12 16  1  0
 16 20  1  0
 19 20  1  0
M  END
>  <ID>  (1) 
conformer_0

$$$$
