
     RDKit          3D

 24 26  0  0  0  0  0  0  0  0999 V2000
  -18.5582   16.0569  -26.3711 C   0  0  0  0  0  0  0  0  0  0  0  0
  -19.0279   18.4663  -26.9427 C   0  0  0  0  0  0  0  0  0  0  0  0
  -20.3727   17.7943  -26.9193 C   0  0  0  0  0  0  0  0  0  0  0  0
  -21.9447   17.3865  -28.9054 C   0  0  0  0  0  0  0  0  0  0  0  0
  -18.4254   18.5656  -29.6021 O   0  0  0  0  0  0  0  0  0  0  0  0
  -20.6825   17.1401  -28.2124 C   0  0  0  0  0  0  0  0  0  0  0  0
  -18.9028   15.4263  -27.7477 C   0  0  0  0  0  0  0  0  0  0  0  0
  -20.5777   17.9244  -25.5635 O   0  0  0  0  0  0  0  0  0  0  0  0
  -24.9492   18.1383  -29.3111 O   0  0  0  0  0  0  0  0  0  0  0  0
  -17.8746   17.4794  -24.2189 O   0  0  0  0  0  0  0  0  0  0  0  0
  -23.1184   17.6293  -27.9771 C   0  0  0  0  0  0  0  0  0  0  0  0
  -23.5746   17.9478  -25.5128 C   0  0  0  0  0  0  0  0  0  0  0  0
  -19.4385   16.4804  -28.7392 C   0  0  0  0  0  0  0  0  0  0  0  0
  -24.4945   18.0547  -28.1385 C   0  0  0  0  0  0  0  0  0  0  0  0
  -22.8116   17.6715  -26.6066 C   0  0  0  0  0  0  0  0  0  0  0  0
  -23.1745   17.7356  -24.2360 N   0  0  0  0  0  0  0  0  0  0  0  0
  -17.1306   17.7416  -25.4134 C   0  0  0  0  0  0  0  0  0  0  0  0
  -24.8902   18.3228  -25.7636 C   0  0  0  0  0  0  0  0  0  0  0  0
  -25.6500   18.6884  -24.5934 N   0  0  0  0  0  0  0  0  0  0  0  0
  -17.1792   17.3185  -27.8726 C   0  0  0  0  0  0  0  0  0  0  0  0
  -25.2527   18.4734  -27.0702 N   0  0  0  0  0  0  0  0  0  0  0  0
  -22.2269   16.5907  -30.1843 C   0  0  0  0  0  0  0  0  0  0  0  0
  -17.9920   17.4406  -26.6115 C   0  0  0  0  0  0  0  0  0  0  0  0
  -18.2305   17.3683  -29.0294 C   0  0  0  0  0  0  0  0  0  0  0  0
  1  7  1  0
  1 23  1  0
  2  3  1  0
  2 23  1  0
  3  6  1  0
  3  8  1  0
  4  6  1  0
  4 11  1  0
  4 22  1  0
  5 24  1  0
  6 13  1  0
  7 13  1  0
  9 14  2  0
 10 17  1  0
 11 14  1  0
 11 15  1  0
 12 15  2  0
 12 16  1  0
 12 18  1  0
 13 24  1  0
 14 21  1  0
 17 23  1  0
 18 19  2  0
 18 21  1  0
 20 23  1  0
 20 24  1  0
M  END
>  <ID>  (1) 
conformer_0

$$$$
