
     RDKit          3D

 27 29  0  0  0  0  0  0  0  0999 V2000
  -19.1454   17.6298  -25.2375 C   0  0  0  0  0  0  0  0  0  0  0  0
  -23.3222   17.9174  -27.9165 C   0  0  0  0  0  0  0  0  0  0  0  0
  -20.2218   18.2972  -25.9913 N   0  0  0  0  0  0  0  0  0  0  0  0
  -19.6780   15.7545  -31.1653 C   0  0  0  0  0  0  0  0  0  0  0  0
  -21.9290   18.0009  -24.4419 N   0  0  0  0  0  0  0  0  0  0  0  0
  -18.8907   15.7349  -27.0059 C   0  0  0  0  0  0  0  0  0  0  0  0
  -21.4618   16.8881  -29.6044 C   0  0  0  0  0  0  0  0  0  0  0  0
  -22.7288   16.9490  -30.4874 C   0  0  0  0  0  0  0  0  0  0  0  0
  -23.9156   18.0492  -25.5489 C   0  0  0  0  0  0  0  0  0  0  0  0
  -19.4534   18.2728  -30.0434 O   0  0  0  0  0  0  0  0  0  0  0  0
  -19.3067   15.9501  -28.4609 N   0  0  0  0  0  0  0  0  0  0  0  0
  -25.4834   17.7272  -29.5693 O   0  0  0  0  0  0  0  0  0  0  0  0
  -18.1859   16.8313  -26.1398 C   0  0  0  0  0  0  0  0  0  0  0  0
  -20.2460   17.2047  -30.6857 C   0  0  0  0  0  0  0  0  0  0  0  0
  -26.1037   17.8303  -26.8903 C   0  0  0  0  0  0  0  0  0  0  0  0
  -23.8420   17.2832  -23.0638 C   0  0  0  0  0  0  0  0  0  0  0  0
  -20.6987   17.8215  -31.9468 O   0  0  0  0  0  0  0  0  0  0  0  0
  -22.8903   18.1023  -26.4700 C   0  0  0  0  0  0  0  0  0  0  0  0
  -24.2362   18.0948  -29.0261 C   0  0  0  0  0  0  0  0  0  0  0  0
  -26.1550   18.3148  -24.4868 C   0  0  0  0  0  0  0  0  0  0  0  0
  -18.2803   15.1358  -29.2294 C   0  0  0  0  0  0  0  0  0  0  0  0
  -23.2626   17.8114  -24.2964 C   0  0  0  0  0  0  0  0  0  0  0  0
  -23.3711   18.3942  -30.2882 C   0  0  0  0  0  0  0  0  0  0  0  0
  -18.2353   15.5199  -30.6858 C   0  0  0  0  0  0  0  0  0  0  0  0
  -21.5936   18.1656  -25.6662 C   0  0  0  0  0  0  0  0  0  0  0  0
  -25.3471   18.1911  -25.7470 C   0  0  0  0  0  0  0  0  0  0  0  0
  -20.7937   16.1445  -28.4567 O   0  0  0  0  0  0  0  0  0  0  0  0
  1  3  1  0
  1 13  1  0
  2 18  1  0
  2 19  1  0
  3 25  1  0
  4 14  1  0
  4 24  1  0
  5 22  1  0
  5 25  1  0
  6 11  1  0
  6 13  1  0
  7  8  1  0
  7 14  1  0
  7 27  1  0
  8 23  1  0
  9 18  1  0
  9 22  1  0
  9 26  1  0
 10 14  1  0
 11 21  1  0
 11 27  1  0
 12 19  1  0
 14 17  1  0
 15 26  1  0
 16 22  1  0
 18 25  2  0
 19 23  1  0
 20 26  1  0
 21 24  1  0
M  END
>  <ID>  (1) 
conformer_0

$$$$
