
     RDKit          3D

 22 23  0  0  0  0  0  0  0  0999 V2000
  -21.8188   16.6877  -23.2716 F   0  0  0  0  0  0  0  0  0  0  0  0
  -22.1224   17.5675  -25.4116 C   0  0  0  0  0  0  0  0  0  0  0  0
  -18.1651   16.9085  -28.0686 C   0  0  0  0  0  0  0  0  0  0  0  0
  -18.3873   15.6513  -28.9516 C   0  0  0  0  0  0  0  0  0  0  0  0
  -23.9398   17.5972  -23.7491 C   0  0  0  0  0  0  0  0  0  0  0  0
  -19.5583   16.1547  -29.8385 C   0  0  0  0  0  0  0  0  0  0  0  0
  -17.3748   16.6840  -26.7998 C   0  0  0  0  0  0  0  0  0  0  0  0
  -20.1207   18.0460  -26.6799 C   0  0  0  0  0  0  0  0  0  0  0  0
  -22.9952   18.1295  -26.3276 C   0  0  0  0  0  0  0  0  0  0  0  0
  -24.3125   18.4568  -26.0074 C   0  0  0  0  0  0  0  0  0  0  0  0
  -20.3803   17.0161  -28.9122 C   0  0  0  0  0  0  0  0  0  0  0  0
  -24.7701   18.2029  -24.7107 C   0  0  0  0  0  0  0  0  0  0  0  0
  -22.6388   17.2884  -24.1240 C   0  0  0  0  0  0  0  0  0  0  0  0
  -20.0914   16.1742  -31.1959 C   0  0  0  0  0  0  0  0  0  0  0  0
  -21.0494   17.3439  -31.3246 C   0  0  0  0  0  0  0  0  0  0  0  0
  -18.1459   16.7499  -25.4872 C   0  0  0  0  0  0  0  0  0  0  0  0
  -19.5721   17.2854  -27.7401 C   0  0  0  0  0  0  0  0  0  0  0  0
  -17.5364   17.8426  -28.8612 O   0  0  0  0  0  0  0  0  0  0  0  0
  -20.7963   17.2549  -25.6943 C   0  0  0  0  0  0  0  0  0  0  0  0
  -20.0898   19.3407  -26.7704 O   0  0  0  0  0  0  0  0  0  0  0  0
  -18.1206   18.1192  -24.7608 C   0  0  0  0  0  0  0  0  0  0  0  0
  -20.2094   18.6136  -31.4195 C   0  0  0  0  0  0  0  0  0  0  0  0
  1 13  1  0
  2  9  1  0
  2 13  2  0
  2 19  1  0
  3  4  1  0
  3  7  1  0
  3 17  1  0
  3 18  1  0
  4  6  1  0
  5 12  2  0
  5 13  1  0
  6 11  1  0
  6 14  1  0
  7 16  1  0
  8 17  1  0
  8 19  1  0
  8 20  1  0
  9 10  2  0
 10 12  1  0
 11 17  1  0
 14 15  1  0
 15 22  1  0
 16 21  1  0
M  END
>  <ID>  (1) 
conformer_0

$$$$
