
     RDKit          3D

 21 22  0  0  0  0  0  0  0  0999 V2000
  -23.7904   18.3997  -26.5791 C   0  0  0  0  0  0  0  0  0  0  0  0
  -23.7931   17.8667  -24.1909 C   0  0  0  0  0  0  0  0  0  0  0  0
  -25.2431   17.9211  -24.2325 C   0  0  0  0  0  0  0  0  0  0  0  0
  -20.9545   17.5511  -27.0470 N   0  0  0  0  0  0  0  0  0  0  0  0
  -22.9751   18.0521  -25.4377 C   0  0  0  0  0  0  0  0  0  0  0  0
  -18.0609   16.5988  -29.3794 C   0  0  0  0  0  0  0  0  0  0  0  0
  -20.4437   17.1489  -29.5367 C   0  0  0  0  0  0  0  0  0  0  0  0
  -19.2550   16.4050  -30.2742 C   0  0  0  0  0  0  0  0  0  0  0  0
  -25.9910   18.2344  -25.4542 C   0  0  0  0  0  0  0  0  0  0  0  0
  -23.1662   18.7546  -27.7244 O   0  0  0  0  0  0  0  0  0  0  0  0
  -17.0982   17.5382  -29.5466 O   0  0  0  0  0  0  0  0  0  0  0  0
  -17.6691   17.1036  -26.9482 C   0  0  0  0  0  0  0  0  0  0  0  0
  -25.2320   18.3985  -26.6664 C   0  0  0  0  0  0  0  0  0  0  0  0
  -19.0348   15.1996  -27.6399 C   0  0  0  0  0  0  0  0  0  0  0  0
  -25.9383   16.4896  -22.2896 C   0  0  0  0  0  0  0  0  0  0  0  0
  -26.1640   17.7649  -23.0374 C   0  0  0  0  0  0  0  0  0  0  0  0
  -18.7055   16.6555  -27.9740 C   0  0  0  0  0  0  0  0  0  0  0  0
  -19.9507   17.4670  -28.1397 C   0  0  0  0  0  0  0  0  0  0  0  0
  -21.5244   18.0401  -25.8323 C   0  0  0  0  0  0  0  0  0  0  0  0
  -18.0230   16.9651  -25.4891 C   0  0  0  0  0  0  0  0  0  0  0  0
  -20.7175   18.5362  -25.0057 O   0  0  0  0  0  0  0  0  0  0  0  0
  1  5  2  0
  1 10  1  0
  1 13  1  0
  2  3  2  0
  2  5  1  0
  3  9  1  0
  3 16  1  0
  4 18  1  0
  4 19  1  0
  5 19  1  0
  6  8  1  0
  6 11  1  0
  6 17  1  0
  7  8  1  0
  7 18  1  0
  9 13  2  0
 12 17  1  0
 12 20  1  0
 14 17  1  0
 15 16  1  0
 17 18  1  0
 19 21  2  0
M  END
>  <ID>  (1) 
conformer_0

$$$$
