
     RDKit          3D

 21 23  0  0  0  0  0  0  0  0999 V2000
  -19.7744   15.9195  -29.4165 C   0  0  0  0  0  0  0  0  0  0  0  0
  -18.6728   17.5530  -24.5511 O   0  0  0  0  0  0  0  0  0  0  0  0
  -21.4933   17.9972  -26.6441 C   0  0  0  0  0  0  0  0  0  0  0  0
  -20.0940   15.5033  -30.6888 N   0  0  0  0  0  0  0  0  0  0  0  0
  -23.9691   18.3604  -25.6106 C   0  0  0  0  0  0  0  0  0  0  0  0
  -22.7113   18.3001  -28.1770 S   0  0  0  0  0  0  0  0  0  0  0  0
  -18.9661   18.3419  -25.6657 C   0  0  0  0  0  0  0  0  0  0  0  0
  -22.0377   17.0175  -29.2385 C   0  0  0  0  0  0  0  0  0  0  0  0
  -22.6266   17.8650  -25.5056 C   0  0  0  0  0  0  0  0  0  0  0  0
  -18.1647   19.5066  -25.6943 O   0  0  0  0  0  0  0  0  0  0  0  0
  -20.4943   19.0640  -25.8213 C   0  0  0  0  0  0  0  0  0  0  0  0
  -20.6927   16.6895  -28.6979 C   0  0  0  0  0  0  0  0  0  0  0  0
  -22.2703   17.1944  -24.3223 C   0  0  0  0  0  0  0  0  0  0  0  0
  -24.9087   18.1051  -24.6237 C   0  0  0  0  0  0  0  0  0  0  0  0
  -19.0938   17.0352  -26.9498 C   0  0  0  0  0  0  0  0  0  0  0  0
  -20.3631   17.1933  -27.4348 C   0  0  0  0  0  0  0  0  0  0  0  0
  -25.5396   17.0151  -22.5058 C   0  0  0  0  0  0  0  0  0  0  0  0
  -23.1921   16.9546  -23.3040 C   0  0  0  0  0  0  0  0  0  0  0  0
  -18.5255   15.5794  -28.8512 C   0  0  0  0  0  0  0  0  0  0  0  0
  -18.2035   16.1269  -27.5922 C   0  0  0  0  0  0  0  0  0  0  0  0
  -24.5227   17.3835  -23.4911 C   0  0  0  0  0  0  0  0  0  0  0  0
  1  4  1  0
  1 12  2  0
  1 19  1  0
  2  7  1  0
  3  6  1  0
  3  9  1  0
  3 11  1  0
  3 16  1  0
  5  9  1  0
  5 14  2  0
  6  8  1  0
  7 10  1  0
  7 11  1  0
  8 12  1  0
  9 13  1  0
 12 16  1  0
 13 18  2  0
 14 21  1  0
 15 16  2  0
 15 20  1  0
 17 21  1  0
 18 21  1  0
 19 20  2  0
M  END
>  <ID>  (1) 
conformer_0

$$$$
