
     RDKit          3D

 21 22  0  0  0  0  0  0  0  0999 V2000
  -16.3429   17.9299  -25.9915 C   0  0  0  0  0  0  0  0  0  0  0  0
  -17.5873   18.7200  -26.3935 O   0  0  0  0  0  0  0  0  0  0  0  0
  -21.1034   16.3264  -29.0108 C   0  0  0  0  0  0  0  0  0  0  0  0
  -19.8670   17.0825  -28.4287 C   0  0  0  0  0  0  0  0  0  0  0  0
  -22.7489   17.7905  -27.9290 C   0  0  0  0  0  0  0  0  0  0  0  0
  -22.5257   17.0115  -23.7486 C   0  0  0  0  0  0  0  0  0  0  0  0
  -19.5358   18.0624  -27.5257 O   0  0  0  0  0  0  0  0  0  0  0  0
  -22.3248   17.0693  -29.0193 N   0  0  0  0  0  0  0  0  0  0  0  0
  -22.7359   16.6528  -22.4762 O   0  0  0  0  0  0  0  0  0  0  0  0
  -21.6141   16.6329  -25.9295 C   0  0  0  0  0  0  0  0  0  0  0  0
  -21.6205   16.3193  -24.5735 C   0  0  0  0  0  0  0  0  0  0  0  0
  -18.2496   17.9522  -27.2759 C   0  0  0  0  0  0  0  0  0  0  0  0
  -23.1881   18.3678  -25.5782 C   0  0  0  0  0  0  0  0  0  0  0  0
  -17.6715   16.9229  -27.9727 N   0  0  0  0  0  0  0  0  0  0  0  0
  -23.7492   18.5408  -28.2306 O   0  0  0  0  0  0  0  0  0  0  0  0
  -22.4614   17.6039  -26.4638 C   0  0  0  0  0  0  0  0  0  0  0  0
  -18.6593   16.5206  -28.7445 N   0  0  0  0  0  0  0  0  0  0  0  0
  -17.1116   16.9054  -25.1180 C   0  0  0  0  0  0  0  0  0  0  0  0
  -23.0121   17.1448  -30.3670 C   0  0  0  0  0  0  0  0  0  0  0  0
  -23.2585   18.0602  -24.2398 C   0  0  0  0  0  0  0  0  0  0  0  0
  -18.3602   15.5034  -29.7548 C   0  0  0  0  0  0  0  0  0  0  0  0
  1  2  1  0
  1 18  1  0
  2 12  1  0
  3  4  1  0
  3  8  1  0
  4  7  1  0
  4 17  1  0
  5  8  1  0
  5 15  2  0
  5 16  1  0
  6  9  1  0
  6 11  2  0
  6 20  1  0
  7 12  1  0
  8 19  1  0
 10 11  1  0
 10 16  2  0
 12 14  1  0
 13 16  1  0
 13 20  2  0
 14 17  1  0
 17 21  1  0
M  END
>  <ID>  (1) 
conformer_0

$$$$
