
     RDKit          3D

 27 27  0  0  0  0  0  0  0  0999 V2000
  -18.5422   16.5237  -29.1797 C   0  0  0  0  0  0  0  0  0  0  0  0
  -17.7147   15.9790  -27.9864 C   0  0  0  0  0  0  0  0  0  0  0  0
  -22.6711   16.3163  -30.6022 C   0  0  0  0  0  0  0  0  0  0  0  0
  -19.7861   18.1903  -27.6525 C   0  0  0  0  0  0  0  0  0  0  0  0
  -20.1376   15.7496  -26.7008 C   0  0  0  0  0  0  0  0  0  0  0  0
  -20.3087   19.5412  -28.0025 C   0  0  0  0  0  0  0  0  0  0  0  0
  -20.3979   17.8265  -30.9913 O   0  0  0  0  0  0  0  0  0  0  0  0
  -19.8317   19.2284  -25.3039 O   0  0  0  0  0  0  0  0  0  0  0  0
  -20.9882   19.4898  -29.3422 C   0  0  0  0  0  0  0  0  0  0  0  0
  -18.0007   16.8892  -26.8042 C   0  0  0  0  0  0  0  0  0  0  0  0
  -18.1268   18.9303  -29.2542 O   0  0  0  0  0  0  0  0  0  0  0  0
  -22.3918   16.9589  -25.3984 C   0  0  0  0  0  0  0  0  0  0  0  0
  -18.9558   17.9161  -28.8825 C   0  0  0  0  0  0  0  0  0  0  0  0
  -19.4989   17.1063  -26.6980 C   0  0  0  0  0  0  0  0  0  0  0  0
  -21.7238   18.1081  -26.1366 C   0  0  0  0  0  0  0  0  0  0  0  0
  -18.0142   17.4857  -24.4615 O   0  0  0  0  0  0  0  0  0  0  0  0
  -22.6134   17.7333  -30.1244 C   0  0  0  0  0  0  0  0  0  0  0  0
  -24.8558   17.3102  -23.2499 O   0  0  0  0  0  0  0  0  0  0  0  0
  -22.5002   18.5095  -27.1796 O   0  0  0  0  0  0  0  0  0  0  0  0
  -17.3870   17.7518  -25.7541 C   0  0  0  0  0  0  0  0  0  0  0  0
  -24.1266   17.9180  -24.0697 C   0  0  0  0  0  0  0  0  0  0  0  0
  -19.5568   15.6468  -29.4810 O   0  0  0  0  0  0  0  0  0  0  0  0
  -24.5062   18.6329  -25.0408 O   0  0  0  0  0  0  0  0  0  0  0  0
  -22.6725   17.5016  -24.0026 C   0  0  0  0  0  0  0  0  0  0  0  0
  -20.2315   18.1238  -25.9836 C   0  0  0  0  0  0  0  0  0  0  0  0
  -17.5637   16.5765  -30.2237 O   0  0  0  0  0  0  0  0  0  0  0  0
  -21.2089   18.1226  -29.8982 C   0  0  0  0  0  0  0  0  0  0  0  0
  1  2  1  0
  1 13  1  0
  1 22  1  0
  1 26  1  0
  2 10  1  0
  3 17  1  0
  4  6  1  0
  4 13  1  0
  4 14  1  0
  5 14  1  0
  6  9  1  0
  7 27  1  0
  8 25  1  0
  9 27  1  0
 10 14  1  0
 10 20  1  0
 11 13  1  0
 12 15  1  0
 12 24  1  0
 14 25  1  0
 15 19  1  0
 15 25  1  0
 16 20  1  0
 17 27  1  0
 18 21  2  0
 21 23  1  0
 21 24  1  0
M  END
>  <ID>  (1) 
conformer_0

$$$$
