
     RDKit          3D

 22 25  0  0  0  0  0  0  0  0999 V2000
  -17.5198   17.8145  -25.2625 C   0  0  0  0  0  0  0  0  0  0  0  0
  -21.7755   16.8246  -24.4534 C   0  0  0  0  0  0  0  0  0  0  0  0
  -19.4782   17.0534  -26.5197 C   0  0  0  0  0  0  0  0  0  0  0  0
  -22.9989   17.8601  -27.6568 N   0  0  0  0  0  0  0  0  0  0  0  0
  -23.0550   17.7907  -26.2443 C   0  0  0  0  0  0  0  0  0  0  0  0
  -20.7862   16.2093  -28.4968 C   0  0  0  0  0  0  0  0  0  0  0  0
  -24.0412   18.1780  -25.3913 C   0  0  0  0  0  0  0  0  0  0  0  0
  -17.2628   16.9003  -27.4625 C   0  0  0  0  0  0  0  0  0  0  0  0
  -22.6072   18.1266  -30.6738 O   0  0  0  0  0  0  0  0  0  0  0  0
  -21.2924   15.5258  -29.6195 O   0  0  0  0  0  0  0  0  0  0  0  0
  -23.9013   17.8725  -23.9942 C   0  0  0  0  0  0  0  0  0  0  0  0
  -21.7601   17.2237  -28.0905 C   0  0  0  0  0  0  0  0  0  0  0  0
  -23.9021   18.1665  -28.6769 N   0  0  0  0  0  0  0  0  0  0  0  0
  -19.3245   15.7763  -28.4976 C   0  0  0  0  0  0  0  0  0  0  0  0
  -21.8920   17.1818  -25.7711 C   0  0  0  0  0  0  0  0  0  0  0  0
  -18.6289   16.6150  -27.5056 C   0  0  0  0  0  0  0  0  0  0  0  0
  -22.7805   17.1780  -23.5307 C   0  0  0  0  0  0  0  0  0  0  0  0
  -18.9047   17.5806  -25.3617 C   0  0  0  0  0  0  0  0  0  0  0  0
  -20.9074   16.9254  -26.8352 C   0  0  0  0  0  0  0  0  0  0  0  0
  -16.7088   17.4867  -26.3336 N   0  0  0  0  0  0  0  0  0  0  0  0
  -24.7676   17.1444  -30.7165 C   0  0  0  0  0  0  0  0  0  0  0  0
  -23.6813   17.8135  -29.9958 C   0  0  0  0  0  0  0  0  0  0  0  0
  1 18  2  0
  1 20  1  0
  2 15  2  0
  2 17  1  0
  3 16  2  0
  3 18  1  0
  3 19  1  0
  4  5  1  0
  4 12  1  0
  4 13  1  0
  5  7  2  0
  5 15  1  0
  6 10  1  0
  6 12  1  0
  6 14  1  0
  7 11  1  0
  8 16  1  0
  8 20  2  0
  9 22  2  0
 11 17  2  0
 12 19  1  0
 13 22  1  0
 14 16  1  0
 15 19  1  0
 21 22  1  0
M  END
>  <ID>  (1) 
conformer_0

$$$$
