
     RDKit          3D

 20 22  0  0  0  0  0  0  0  0999 V2000
  -19.4204   17.4547  -26.6498 N   0  0  0  0  0  0  0  0  0  0  0  0
  -21.7111   16.3171  -24.2232 C   0  0  0  0  0  0  0  0  0  0  0  0
  -23.2126   17.4694  -30.3351 C   0  0  0  0  0  0  0  0  0  0  0  0
  -21.9766   18.0154  -25.9452 C   0  0  0  0  0  0  0  0  0  0  0  0
  -21.3304   16.0377  -29.9708 N   0  0  0  0  0  0  0  0  0  0  0  0
  -17.0862   17.2096  -27.2574 O   0  0  0  0  0  0  0  0  0  0  0  0
  -22.7692   16.8836  -23.5382 C   0  0  0  0  0  0  0  0  0  0  0  0
  -18.5689   17.5908  -25.4027 C   0  0  0  0  0  0  0  0  0  0  0  0
  -19.9630   18.7638  -27.0410 C   0  0  0  0  0  0  0  0  0  0  0  0
  -23.4709   17.9456  -24.0772 C   0  0  0  0  0  0  0  0  0  0  0  0
  -21.7508   17.8580  -28.4571 C   0  0  0  0  0  0  0  0  0  0  0  0
  -20.2514   16.2582  -26.3286 C   0  0  0  0  0  0  0  0  0  0  0  0
  -23.1511   16.3761  -22.3680 F   0  0  0  0  0  0  0  0  0  0  0  0
  -21.0382   16.7753  -28.8988 C   0  0  0  0  0  0  0  0  0  0  0  0
  -21.4706   18.6583  -27.1973 C   0  0  0  0  0  0  0  0  0  0  0  0
  -22.8371   18.2229  -29.2117 C   0  0  0  0  0  0  0  0  0  0  0  0
  -17.3242   16.7968  -25.8175 C   0  0  0  0  0  0  0  0  0  0  0  0
  -22.4376   16.3789  -30.6771 C   0  0  0  0  0  0  0  0  0  0  0  0
  -23.0793   18.5103  -25.2857 C   0  0  0  0  0  0  0  0  0  0  0  0
  -21.3219   16.8684  -25.4599 C   0  0  0  0  0  0  0  0  0  0  0  0
  1  8  1  0
  1  9  1  0
  1 12  1  0
  2  7  1  0
  2 20  2  0
  3 16  2  0
  3 18  1  0
  4 15  1  0
  4 19  2  0
  4 20  1  0
  5 14  1  0
  5 18  2  0
  6 17  1  0
  7 10  2  0
  7 13  1  0
  8 17  1  0
  9 15  1  0
 10 19  1  0
 11 14  2  0
 11 15  1  0
 11 16  1  0
 12 20  1  0
M  END
>  <ID>  (1) 
conformer_0

$$$$
