
     RDKit          3D

 29 33  0  0  0  0  0  0  0  0999 V2000
  -25.5014   18.2130  -25.8217 C   0  0  0  0  0  0  0  0  0  0  0  0
  -17.9224   15.7479  -28.4151 C   0  0  0  0  0  0  0  0  0  0  0  0
  -24.5499   18.0086  -26.8116 C   0  0  0  0  0  0  0  0  0  0  0  0
  -17.5668   18.0947  -29.4621 O   0  0  0  0  0  0  0  0  0  0  0  0
  -20.6923   15.6746  -27.2034 C   0  0  0  0  0  0  0  0  0  0  0  0
  -18.0356   18.8339  -25.9713 C   0  0  0  0  0  0  0  0  0  0  0  0
  -24.6726   18.0344  -28.2686 C   0  0  0  0  0  0  0  0  0  0  0  0
  -24.5109   17.7842  -31.5312 O   0  0  0  0  0  0  0  0  0  0  0  0
  -21.3373   16.7352  -27.9210 C   0  0  0  0  0  0  0  0  0  0  0  0
  -22.0552   18.1703  -31.0527 O   0  0  0  0  0  0  0  0  0  0  0  0
  -19.8412   17.7114  -29.6837 C   0  0  0  0  0  0  0  0  0  0  0  0
  -18.7951   19.3737  -28.1275 C   0  0  0  0  0  0  0  0  0  0  0  0
  -17.6703   16.7198  -25.2920 O   0  0  0  0  0  0  0  0  0  0  0  0
  -23.4318   17.6184  -28.9325 C   0  0  0  0  0  0  0  0  0  0  0  0
  -26.0915   17.0739  -30.0906 C   0  0  0  0  0  0  0  0  0  0  0  0
  -24.6993   17.6446  -30.2290 C   0  0  0  0  0  0  0  0  0  0  0  0
  -22.7918   17.7192  -25.1961 C   0  0  0  0  0  0  0  0  0  0  0  0
  -25.0683   18.1828  -24.4982 C   0  0  0  0  0  0  0  0  0  0  0  0
  -18.7057   17.9891  -28.7034 C   0  0  0  0  0  0  0  0  0  0  0  0
  -23.7214   17.9554  -24.1573 C   0  0  0  0  0  0  0  0  0  0  0  0
  -21.0464   16.9618  -29.3369 C   0  0  0  0  0  0  0  0  0  0  0  0
  -23.2288   17.7006  -26.5019 C   0  0  0  0  0  0  0  0  0  0  0  0
  -18.2557   17.3891  -26.3163 C   0  0  0  0  0  0  0  0  0  0  0  0
  -22.5475   17.3480  -27.6009 N   0  0  0  0  0  0  0  0  0  0  0  0
  -19.9993   19.9324  -27.6028 C   0  0  0  0  0  0  0  0  0  0  0  0
  -19.3619   16.1257  -26.6525 C   0  0  0  0  0  0  0  0  0  0  0  0
  -22.3132   17.4722  -29.9480 C   0  0  0  0  0  0  0  0  0  0  0  0
  -17.6219   19.5924  -27.2296 C   0  0  0  0  0  0  0  0  0  0  0  0
  -18.6011   16.9091  -27.6460 C   0  0  0  0  0  0  0  0  0  0  0  0
  1  3  2  0
  1 18  1  0
  2 29  1  0
  3  7  1  0
  3 22  1  0
  4 19  1  0
  5  9  1  0
  5 26  1  0
  6 23  1  0
  6 28  1  0
  7 14  1  0
  8 16  1  0
  9 21  1  0
  9 24  1  0
 10 27  1  0
 11 19  1  0
 11 21  1  0
 12 19  1  0
 12 25  1  0
 12 28  1  0
 13 23  1  0
 14 16  1  0
 14 24  1  0
 14 27  1  0
 15 16  1  0
 17 20  1  0
 17 22  2  0
 18 20  2  0
 19 29  1  0
 21 27  1  0
 22 24  1  0
 23 29  1  0
 26 29  1  0
M  END
>  <ID>  (1) 
conformer_0

$$$$
