
     RDKit          3D

 19 21  0  0  0  0  0  0  0  0999 V2000
  -18.3741   15.4515  -28.5556 C   0  0  0  0  0  0  0  0  0  0  0  0
  -19.4745   17.1654  -24.9905 O   0  0  0  0  0  0  0  0  0  0  0  0
  -21.7339   16.4910  -23.2271 F   0  0  0  0  0  0  0  0  0  0  0  0
  -20.4108   17.0109  -25.8767 C   0  0  0  0  0  0  0  0  0  0  0  0
  -20.8442   16.7641  -28.4032 C   0  0  0  0  0  0  0  0  0  0  0  0
  -20.0356   16.5558  -27.2297 C   0  0  0  0  0  0  0  0  0  0  0  0
  -22.3288   18.2268  -30.7591 O   0  0  0  0  0  0  0  0  0  0  0  0
  -22.3149   17.1873  -24.1727 C   0  0  0  0  0  0  0  0  0  0  0  0
  -22.8702   18.0030  -27.5319 N   0  0  0  0  0  0  0  0  0  0  0  0
  -23.5679   17.7000  -24.0537 C   0  0  0  0  0  0  0  0  0  0  0  0
  -22.1543   17.4051  -28.5181 C   0  0  0  0  0  0  0  0  0  0  0  0
  -22.7848   17.4543  -29.8641 C   0  0  0  0  0  0  0  0  0  0  0  0
  -19.1071   15.6557  -29.7176 N   0  0  0  0  0  0  0  0  0  0  0  0
  -22.8277   17.8933  -26.2278 C   0  0  0  0  0  0  0  0  0  0  0  0
  -20.2923   16.3002  -29.5858 C   0  0  0  0  0  0  0  0  0  0  0  0
  -23.9417   18.1969  -25.3917 C   0  0  0  0  0  0  0  0  0  0  0  0
  -23.8688   16.8199  -30.0372 O   0  0  0  0  0  0  0  0  0  0  0  0
  -18.8328   15.9080  -27.3434 C   0  0  0  0  0  0  0  0  0  0  0  0
  -21.7772   17.3449  -25.4956 C   0  0  0  0  0  0  0  0  0  0  0  0
  1 13  1  0
  1 18  1  0
  2  4  1  0
  3  8  1  0
  4  6  1  0
  4 19  1  0
  5  6  1  0
  5 11  2  0
  5 15  1  0
  6 18  2  0
  7 12  2  0
  8 10  1  0
  8 19  1  0
  9 11  1  0
  9 14  1  0
 10 16  1  0
 11 12  1  0
 12 17  1  0
 13 15  2  0
 14 16  1  0
 14 19  2  0
M  END
>  <ID>  (1) 
conformer_0

$$$$
