
     RDKit          3D

 21 22  0  0  0  0  0  0  0  0999 V2000
  -21.6374   19.3790  -27.6251 O   0  0  0  0  0  0  0  0  0  0  0  0
  -21.4082   15.7646  -25.7274 O   0  0  0  0  0  0  0  0  0  0  0  0
  -21.8196   18.1421  -27.2513 C   0  0  0  0  0  0  0  0  0  0  0  0
  -24.2722   18.3378  -24.4036 C   0  0  0  0  0  0  0  0  0  0  0  0
  -23.6811   18.5603  -25.6376 C   0  0  0  0  0  0  0  0  0  0  0  0
  -22.1991   16.7959  -25.2217 C   0  0  0  0  0  0  0  0  0  0  0  0
  -23.7214   17.4334  -23.4992 C   0  0  0  0  0  0  0  0  0  0  0  0
  -17.3688   17.6941  -29.5031 O   0  0  0  0  0  0  0  0  0  0  0  0
  -18.5400   17.1700  -25.4159 O   0  0  0  0  0  0  0  0  0  0  0  0
  -22.5780   17.8601  -26.0353 C   0  0  0  0  0  0  0  0  0  0  0  0
  -21.1229   17.0913  -28.0038 C   0  0  0  0  0  0  0  0  0  0  0  0
  -20.1167   15.6903  -29.5661 O   0  0  0  0  0  0  0  0  0  0  0  0
  -18.6352   19.4442  -25.2905 C   0  0  0  0  0  0  0  0  0  0  0  0
  -22.3749   16.2014  -29.8494 O   0  0  0  0  0  0  0  0  0  0  0  0
  -19.0753   16.1039  -28.6427 C   0  0  0  0  0  0  0  0  0  0  0  0
  -19.6776   17.2079  -27.9054 C   0  0  0  0  0  0  0  0  0  0  0  0
  -18.5859   18.2991  -26.0010 C   0  0  0  0  0  0  0  0  0  0  0  0
  -22.6246   16.6548  -23.9110 C   0  0  0  0  0  0  0  0  0  0  0  0
  -17.5969   16.5593  -28.6125 C   0  0  0  0  0  0  0  0  0  0  0  0
  -21.3594   16.1201  -29.0936 C   0  0  0  0  0  0  0  0  0  0  0  0
  -18.9910   18.2633  -27.3484 O   0  0  0  0  0  0  0  0  0  0  0  0
  1  3  1  0
  2  6  1  0
  3 10  1  0
  3 11  1  0
  4  5  1  0
  4  7  1  0
  5 10  2  0
  6 10  1  0
  6 18  1  0
  7 18  2  0
  8 19  1  0
  9 17  2  0
 11 16  1  0
 11 20  1  0
 12 15  1  0
 12 20  1  0
 13 17  1  0
 14 20  2  0
 15 16  1  0
 15 19  1  0
 16 21  1  0
 17 21  1  0
M  END
>  <ID>  (1) 
conformer_0

$$$$
