
     RDKit          3D

 17 17  0  0  0  0  0  0  0  0999 V2000
  -21.7444   19.4753  -28.1426 C   0  0  0  0  0  0  0  0  0  0  0  0
  -20.0258   16.9654  -26.5960 C   0  0  0  0  0  0  0  0  0  0  0  0
  -22.8636   18.3230  -26.3437 N   0  0  0  0  0  0  0  0  0  0  0  0
  -18.2728   15.5603  -27.7289 C   0  0  0  0  0  0  0  0  0  0  0  0
  -23.3721   17.8009  -24.0256 C   0  0  0  0  0  0  0  0  0  0  0  0
  -22.6566   16.7242  -23.1841 C   0  0  0  0  0  0  0  0  0  0  0  0
  -18.4916   15.1027  -30.0879 C   0  0  0  0  0  0  0  0  0  0  0  0
  -20.8142   17.3183  -27.8476 C   0  0  0  0  0  0  0  0  0  0  0  0
  -23.1473   17.5161  -28.5884 C   0  0  0  0  0  0  0  0  0  0  0  0
  -19.5132   15.5039  -26.7804 C   0  0  0  0  0  0  0  0  0  0  0  0
  -22.1006   18.1355  -27.6277 C   0  0  0  0  0  0  0  0  0  0  0  0
  -21.3832   18.8031  -24.7273 O   0  0  0  0  0  0  0  0  0  0  0  0
  -24.7934   18.1712  -24.3877 C   0  0  0  0  0  0  0  0  0  0  0  0
  -19.9637   16.9245  -29.0793 C   0  0  0  0  0  0  0  0  0  0  0  0
  -17.4927   17.1955  -29.4176 C   0  0  0  0  0  0  0  0  0  0  0  0
  -22.4540   18.3123  -25.0733 C   0  0  0  0  0  0  0  0  0  0  0  0
  -18.6484   16.2252  -29.0602 C   0  0  0  0  0  0  0  0  0  0  0  0
  1 11  1  0
  2  8  1  0
  2 10  1  0
  3 11  1  0
  3 16  1  0
  4 10  1  0
  4 17  1  0
  5  6  1  0
  5 13  1  0
  5 16  1  0
  7 17  1  0
  8 11  1  0
  8 14  2  0
  9 11  1  0
 12 16  2  0
 14 17  1  0
 15 17  1  0
M  END
>  <ID>  (1) 
conformer_0

$$$$
