
     RDKit          3D

 25 28  0  0  0  0  0  0  0  0999 V2000
  -17.8980   16.2767  -27.2635 C   0  0  0  0  0  0  0  0  0  0  0  0
  -22.1467   17.3944  -26.6254 C   0  0  0  0  0  0  0  0  0  0  0  0
  -24.9996   18.6626  -25.0516 C   0  0  0  0  0  0  0  0  0  0  0  0
  -20.9373   15.7632  -25.3039 C   0  0  0  0  0  0  0  0  0  0  0  0
  -17.1698   17.1826  -26.1128 C   0  0  0  0  0  0  0  0  0  0  0  0
  -21.1781   16.4428  -26.4739 C   0  0  0  0  0  0  0  0  0  0  0  0
  -26.6550   18.8528  -23.2549 C   0  0  0  0  0  0  0  0  0  0  0  0
  -24.3415   18.1057  -23.9663 N   0  0  0  0  0  0  0  0  0  0  0  0
  -23.2883   17.4872  -24.4227 C   0  0  0  0  0  0  0  0  0  0  0  0
  -17.4555   16.7766  -28.6112 C   0  0  0  0  0  0  0  0  0  0  0  0
  -24.2370   18.5009  -26.1905 C   0  0  0  0  0  0  0  0  0  0  0  0
  -16.9472   17.2089  -31.0301 O   0  0  0  0  0  0  0  0  0  0  0  0
  -18.5650   16.6794  -29.5592 C   0  0  0  0  0  0  0  0  0  0  0  0
  -22.5154   16.6810  -23.6250 C   0  0  0  0  0  0  0  0  0  0  0  0
  -19.0320   16.8717  -31.9126 C   0  0  0  0  0  0  0  0  0  0  0  0
  -19.9066   16.3983  -29.2740 C   0  0  0  0  0  0  0  0  0  0  0  0
  -19.1711   16.6988  -27.0567 N   0  0  0  0  0  0  0  0  0  0  0  0
  -23.1451   17.7396  -25.7464 C   0  0  0  0  0  0  0  0  0  0  0  0
  -26.4045   19.1527  -24.7460 C   0  0  0  0  0  0  0  0  0  0  0  0
  -21.4838   15.8810  -24.1081 C   0  0  0  0  0  0  0  0  0  0  0  0
  -20.3396   16.6281  -31.6184 C   0  0  0  0  0  0  0  0  0  0  0  0
  -20.7875   16.4107  -30.3571 C   0  0  0  0  0  0  0  0  0  0  0  0
  -22.2519   16.2589  -30.2241 C   0  0  0  0  0  0  0  0  0  0  0  0
  -18.1634   16.9114  -30.8494 N   0  0  0  0  0  0  0  0  0  0  0  0
  -20.3307   16.1484  -27.8178 C   0  0  0  0  0  0  0  0  0  0  0  0
  1  5  1  0
  1 10  1  0
  1 17  1  0
  2  6  2  0
  2 18  1  0
  3  8  1  0
  3 11  1  0
  3 19  1  0
  4  6  1  0
  4 20  2  0
  6 25  1  0
  7 19  1  0
  8  9  1  0
  9 14  1  0
  9 18  2  0
 10 13  1  0
 11 18  1  0
 12 24  1  0
 13 16  2  0
 13 24  1  0
 14 20  1  0
 15 21  1  0
 15 24  1  0
 16 22  1  0
 16 25  1  0
 17 25  1  0
 21 22  2  0
 22 23  1  0
M  END
>  <ID>  (1) 
conformer_0

$$$$
