
     RDKit          3D

 25 28  0  0  0  0  0  0  0  0999 V2000
  -25.5774   18.1613  -25.0899 C   0  0  0  0  0  0  0  0  0  0  0  0
  -23.2186   17.6424  -24.7434 C   0  0  0  0  0  0  0  0  0  0  0  0
  -19.0570   15.9218  -26.6069 O   0  0  0  0  0  0  0  0  0  0  0  0
  -25.8481   17.7568  -23.7764 C   0  0  0  0  0  0  0  0  0  0  0  0
  -24.7998   17.2531  -22.9552 C   0  0  0  0  0  0  0  0  0  0  0  0
  -21.6926   18.2759  -26.6223 C   0  0  0  0  0  0  0  0  0  0  0  0
  -24.2845   18.0289  -25.6200 C   0  0  0  0  0  0  0  0  0  0  0  0
  -18.9668   15.5217  -28.0034 C   0  0  0  0  0  0  0  0  0  0  0  0
  -22.7428   17.9972  -27.4718 C   0  0  0  0  0  0  0  0  0  0  0  0
  -23.5003   17.2232  -23.4491 C   0  0  0  0  0  0  0  0  0  0  0  0
  -21.9064   17.7152  -25.2801 C   0  0  0  0  0  0  0  0  0  0  0  0
  -20.9382   20.3609  -27.4258 O   0  0  0  0  0  0  0  0  0  0  0  0
  -21.1454   16.9506  -29.7963 S   0  0  0  0  0  4  0  0  0  0  0  0
  -18.6164   16.7972  -28.7283 C   0  0  0  0  0  0  0  0  0  0  0  0
  -17.3627   16.9483  -29.3082 O   0  0  0  0  0  0  0  0  0  0  0  0
  -24.0553   18.1611  -27.0057 C   0  0  0  0  0  0  0  0  0  0  0  0
  -21.3792   17.6847  -31.0869 O   0  0  0  0  0  0  0  0  0  0  0  0
  -19.7447   17.3947  -29.2545 O   0  0  0  0  0  0  0  0  0  0  0  0
  -19.3205   18.7818  -27.4258 O   0  0  0  0  0  0  0  0  0  0  0  0
  -18.1906   17.9391  -27.4409 C   0  0  0  0  0  0  0  0  0  0  0  0
  -20.8778   17.2442  -24.6352 O   0  0  0  0  0  0  0  0  0  0  0  0
  -20.8839   15.5114  -30.1752 O   0  0  0  0  0  0  0  0  0  0  0  0
  -22.4389   17.4048  -28.7651 N   0  0  0  0  0  0  0  0  0  0  0  0
  -20.6010   19.1262  -27.0801 C   0  0  0  0  0  0  0  0  0  0  0  0
  -17.8958   16.8276  -26.4451 C   0  0  0  0  0  0  0  0  0  0  0  0
  1  4  1  0
  1  7  2  0
  2  7  1  0
  2 10  1  0
  2 11  2  0
  3  8  1  0
  3 25  1  0
  4  5  1  0
  5 10  2  0
  6  9  1  0
  6 11  1  0
  6 24  1  0
  7 16  1  0
  8 14  1  0
  9 16  1  0
  9 23  2  0
 11 21  1  0
 12 24  2  0
 13 17  1  0
 13 18  1  0
 13 22  1  0
 13 23  1  0
 14 15  1  0
 14 18  1  0
 14 20  1  0
 19 20  1  0
 19 24  1  0
 20 25  1  0
M  END
>  <ID>  (1) 
conformer_0

$$$$
