
     RDKit          3D

 23 25  0  0  0  0  0  0  0  0999 V2000
  -22.2712   17.5493  -26.0777 C   0  0  0  0  0  0  0  0  0  0  0  0
  -18.1045   19.6596  -25.4340 O   0  0  0  0  0  0  0  0  0  0  0  0
  -22.0169   16.9607  -29.6505 C   0  0  0  0  0  0  0  0  0  0  0  0
  -18.3699   15.3715  -26.8411 O   0  0  0  0  0  0  0  0  0  0  0  0
  -22.3918   16.7668  -23.7713 C   0  0  0  0  0  0  0  0  0  0  0  0
  -24.2362   18.0448  -24.6830 C   0  0  0  0  0  0  0  0  0  0  0  0
  -25.4669   18.7473  -24.5481 C   0  0  0  0  0  0  0  0  0  0  0  0
  -21.1951   16.9419  -28.3974 C   0  0  0  0  0  0  0  0  0  0  0  0
  -17.6240   18.9825  -26.5434 C   0  0  0  0  0  0  0  0  0  0  0  0
  -19.7662   16.6415  -28.6418 C   0  0  0  0  0  0  0  0  0  0  0  0
  -23.6621   17.3482  -23.6270 C   0  0  0  0  0  0  0  0  0  0  0  0
  -21.8528   17.7596  -27.3909 C   0  0  0  0  0  0  0  0  0  0  0  0
  -18.7125   18.8111  -27.5959 C   0  0  0  0  0  0  0  0  0  0  0  0
  -23.5039   18.0992  -25.9023 C   0  0  0  0  0  0  0  0  0  0  0  0
  -23.9163   18.6924  -27.0542 O   0  0  0  0  0  0  0  0  0  0  0  0
  -18.8424   17.3680  -27.9285 N   0  0  0  0  0  0  0  0  0  0  0  0
  -21.4544   16.2114  -30.8243 C   0  0  0  0  0  0  0  0  0  0  0  0
  -17.7595   16.6274  -27.2662 C   0  0  0  0  0  0  0  0  0  0  0  0
  -21.6840   16.8759  -25.0004 C   0  0  0  0  0  0  0  0  0  0  0  0
  -22.9695   18.4848  -27.9530 N   0  0  0  0  0  0  0  0  0  0  0  0
  -17.2422   17.5287  -26.1508 C   0  0  0  0  0  0  0  0  0  0  0  0
  -16.5539   19.5453  -27.1819 O   0  0  0  0  0  0  0  0  0  0  0  0
  -19.4278   15.5332  -29.2400 O   0  0  0  0  0  0  0  0  0  0  0  0
  1 12  1  0
  1 14  1  0
  1 19  2  0
  2  9  1  0
  3  8  1  0
  3 17  1  0
  4 18  1  0
  5 11  2  0
  5 19  1  0
  6  7  1  0
  6 11  1  0
  6 14  2  0
  8 10  1  0
  8 12  1  0
  9 13  1  0
  9 21  1  0
  9 22  1  0
 10 16  1  0
 10 23  2  0
 12 20  1  0
 13 16  1  0
 14 15  1  0
 15 20  1  0
 16 18  1  0
 18 21  1  0
M  END
>  <ID>  (1) 
conformer_0

$$$$
