
     RDKit          3D

 31 33  0  0  0  0  0  0  0  0999 V2000
  -20.8776   16.7930  -29.5231 N   0  0  0  0  0  0  0  0  0  0  0  0
  -18.1502   15.4528  -29.4438 C   0  0  0  0  0  0  0  0  0  0  0  0
  -26.1685   18.1563  -24.5977 C   0  0  0  0  0  0  0  0  0  0  0  0
  -17.4889   18.0021  -30.0494 O   0  0  0  0  0  0  0  0  0  0  0  0
  -18.0628   17.5877  -26.2811 C   0  0  0  0  0  0  0  0  0  0  0  0
  -21.0124   19.5804  -27.0521 C   0  0  0  0  0  0  0  0  0  0  0  0
  -20.6291   15.6490  -27.5470 O   0  0  0  0  0  0  0  0  0  0  0  0
  -25.3308   18.5542  -25.6087 C   0  0  0  0  0  0  0  0  0  0  0  0
  -18.6032   16.5728  -28.4951 C   0  0  0  0  0  0  0  0  0  0  0  0
  -20.1904   18.5414  -26.8445 O   0  0  0  0  0  0  0  0  0  0  0  0
  -23.9987   18.2379  -25.5540 C   0  0  0  0  0  0  0  0  0  0  0  0
  -17.9547   16.3375  -27.1382 C   0  0  0  0  0  0  0  0  0  0  0  0
  -20.4312   17.7937  -30.4866 C   0  0  0  0  0  0  0  0  0  0  0  0
  -23.0599   17.8578  -31.4564 O   0  0  0  0  0  0  0  0  0  0  0  0
  -24.2662   17.3470  -23.3058 C   0  0  0  0  0  0  0  0  0  0  0  0
  -18.2718   19.1812  -28.1462 C   0  0  0  0  0  0  0  0  0  0  0  0
  -23.4617   17.6550  -24.3601 C   0  0  0  0  0  0  0  0  0  0  0  0
  -23.1044   17.3283  -30.3442 C   0  0  0  0  0  0  0  0  0  0  0  0
  -18.2285   17.9368  -28.9653 C   0  0  0  0  0  0  0  0  0  0  0  0
  -20.1218   16.3820  -28.4184 C   0  0  0  0  0  0  0  0  0  0  0  0
  -22.1456   16.2240  -29.9511 C   0  0  0  0  0  0  0  0  0  0  0  0
  -16.7512   17.8195  -25.7407 O   0  0  0  0  0  0  0  0  0  0  0  0
  -18.7112   17.3722  -24.8575 C   0  0  0  0  0  0  0  0  0  0  0  0
  -25.6429   17.5742  -23.4541 C   0  0  0  0  0  0  0  0  0  0  0  0
  -18.7529   18.8212  -26.7519 C   0  0  0  0  0  0  0  0  0  0  0  0
  -24.0361   17.7247  -29.3371 C   0  0  0  0  0  0  0  0  0  0  0  0
  -22.3519   19.2396  -27.3113 O   0  0  0  0  0  0  0  0  0  0  0  0
  -20.7160   20.7746  -26.9501 O   0  0  0  0  0  0  0  0  0  0  0  0
  -23.1632   18.5048  -26.6310 C   0  0  0  0  0  0  0  0  0  0  0  0
  -22.0979   17.4293  -24.2907 F   0  0  0  0  0  0  0  0  0  0  0  0
  -17.3343   17.4965  -24.2440 C   0  0  0  0  0  0  0  0  0  0  0  0
  1 13  1  0
  1 20  1  0
  1 21  1  0
  2  9  1  0
  3  8  2  0
  3 24  1  0
  4 19  1  0
  5 12  1  0
  5 22  1  0
  5 23  1  0
  5 25  1  0
  6 10  1  0
  6 27  1  0
  6 28  2  0
  7 20  2  0
  8 11  1  0
  9 12  1  0
  9 19  1  0
  9 20  1  0
 10 25  1  0
 11 17  2  0
 11 29  1  0
 14 18  2  0
 15 17  1  0
 15 24  2  0
 16 19  1  0
 16 25  1  0
 17 30  1  0
 18 21  1  0
 18 26  1  0
 22 31  1  0
 23 31  1  0
 27 29  1  0
M  END
>  <ID>  (1) 
conformer_0

$$$$
