
     RDKit          3D

 15 15  0  0  0  0  0  0  0  0999 V2000
  -19.7980   19.2801  -25.6009 O   0  0  0  0  0  0  0  0  0  0  0  0
  -17.8383   16.1879  -28.7447 C   0  0  0  0  0  0  0  0  0  0  0  0
  -18.6208   17.4053  -29.1160 O   0  0  0  0  0  0  0  0  0  0  0  0
  -21.1497   16.9785  -25.1058 C   0  0  0  0  0  0  0  0  0  0  0  0
  -22.8440   19.0957  -25.5017 O   0  0  0  0  0  0  0  0  0  0  0  0
  -18.7071   18.2012  -27.8409 C   0  0  0  0  0  0  0  0  0  0  0  0
  -24.3950   18.1745  -24.1812 O   0  0  0  0  0  0  0  0  0  0  0  0
  -19.9130   16.0321  -27.3546 C   0  0  0  0  0  0  0  0  0  0  0  0
  -22.3276   17.1651  -24.2361 C   0  0  0  0  0  0  0  0  0  0  0  0
  -18.6351   15.2769  -27.7905 C   0  0  0  0  0  0  0  0  0  0  0  0
  -23.2227   18.2354  -24.6364 C   0  0  0  0  0  0  0  0  0  0  0  0
  -20.8997   16.0364  -28.5223 C   0  0  0  0  0  0  0  0  0  0  0  0
  -22.6570   16.4700  -22.9659 C   0  0  0  0  0  0  0  0  0  0  0  0
  -19.5497   17.4152  -26.9250 C   0  0  0  0  0  0  0  0  0  0  0  0
  -20.3503   18.0374  -25.8602 C   0  0  0  0  0  0  0  0  0  0  0  0
  1 15  1  0
  2  3  1  0
  2 10  1  0
  3  6  1  0
  4  9  1  0
  4 15  1  0
  5 11  2  0
  6 14  1  0
  7 11  1  0
  8 10  1  0
  8 12  1  0
  8 14  1  0
  9 11  1  0
  9 13  1  0
 14 15  1  0
M  END
>  <ID>  (1) 
conformer_0

$$$$
