
     RDKit          3D

 22 26  0  0  0  0  0  0  0  0999 V2000
  -23.5186   17.7876  -24.0975 N   0  0  0  0  0  0  0  0  0  0  0  0
  -24.3502   18.1757  -25.1379 C   0  0  0  0  0  0  0  0  0  0  0  0
  -17.8705   17.5826  -26.1512 C   0  0  0  0  0  0  0  0  0  0  0  0
  -23.7256   16.9938  -22.9351 C   0  0  0  0  0  0  0  0  0  0  0  0
  -20.3859   16.7406  -29.4766 C   0  0  0  0  0  0  0  0  0  0  0  0
  -22.1619   16.1984  -30.5425 O   0  0  0  0  0  0  0  0  0  0  0  0
  -20.4987   16.0443  -30.7958 C   0  0  0  0  0  0  0  0  0  0  0  0
  -20.0878   17.5643  -27.1767 C   0  0  0  0  0  0  0  0  0  0  0  0
  -18.1310   16.9207  -28.4725 C   0  0  0  0  0  0  0  0  0  0  0  0
  -22.2494   17.8727  -25.9276 C   0  0  0  0  0  0  0  0  0  0  0  0
  -22.2882   17.6057  -28.1817 C   0  0  0  0  0  0  0  0  0  0  0  0
  -21.4470   17.7018  -27.0638 N   0  0  0  0  0  0  0  0  0  0  0  0
  -22.1854   17.7758  -24.5644 N   0  0  0  0  0  0  0  0  0  0  0  0
  -19.2158   17.8920  -26.1095 C   0  0  0  0  0  0  0  0  0  0  0  0
  -21.8756   17.0757  -29.4285 C   0  0  0  0  0  0  0  0  0  0  0  0
  -19.5404   17.0809  -28.3658 C   0  0  0  0  0  0  0  0  0  0  0  0
  -19.6194   18.5972  -25.0090 N   0  0  0  0  0  0  0  0  0  0  0  0
  -17.3274   17.0870  -27.3534 C   0  0  0  0  0  0  0  0  0  0  0  0
  -23.6217   17.9439  -27.7963 C   0  0  0  0  0  0  0  0  0  0  0  0
  -17.6319   16.6876  -29.6710 O   0  0  0  0  0  0  0  0  0  0  0  0
  -23.6098   18.0854  -26.3400 C   0  0  0  0  0  0  0  0  0  0  0  0
  -26.0481   18.7219  -24.9482 S   0  0  0  0  0  0  0  0  0  0  0  0
  1  2  1  0
  1  4  1  0
  1 13  1  0
  2 21  1  0
  2 22  2  0
  3 14  2  0
  3 18  1  0
  5  7  1  0
  5 15  2  0
  5 16  1  0
  6  7  1  0
  6 15  1  0
  8 12  1  0
  8 14  1  0
  8 16  2  0
  9 16  1  0
  9 18  2  0
  9 20  1  0
 10 12  1  0
 10 13  1  0
 10 21  2  0
 11 12  1  0
 11 15  1  0
 11 19  1  0
 14 17  1  0
 19 21  1  0
M  END
>  <ID>  (1) 
conformer_0

$$$$
