
     RDKit          3D

 22 25  0  0  0  0  0  0  0  0999 V2000
  -20.6998   17.7215  -31.3235 C   0  0  0  0  0  0  0  0  0  0  0  0
  -22.0544   17.3024  -24.7918 C   0  0  0  0  0  0  0  0  0  0  0  0
  -21.1813   18.5015  -30.2972 C   0  0  0  0  0  0  0  0  0  0  0  0
  -24.3093   17.8993  -23.9833 O   0  0  0  0  0  0  0  0  0  0  0  0
  -21.6974   16.6140  -23.7431 O   0  0  0  0  0  0  0  0  0  0  0  0
  -21.7552   18.7272  -28.0341 O   0  0  0  0  0  0  0  0  0  0  0  0
  -25.6177   18.4126  -24.2350 C   0  0  0  0  0  0  0  0  0  0  0  0
  -21.3030   17.5276  -25.9655 C   0  0  0  0  0  0  0  0  0  0  0  0
  -18.9863   17.6840  -25.3322 C   0  0  0  0  0  0  0  0  0  0  0  0
  -19.9470   17.3344  -26.2990 C   0  0  0  0  0  0  0  0  0  0  0  0
  -20.2194   16.9526  -28.7536 N   0  0  0  0  0  0  0  0  0  0  0  0
  -17.2994   16.7168  -26.6406 C   0  0  0  0  0  0  0  0  0  0  0  0
  -23.4304   18.4504  -26.2117 C   0  0  0  0  0  0  0  0  0  0  0  0
  -18.1954   16.4160  -27.6321 C   0  0  0  0  0  0  0  0  0  0  0  0
  -23.3695   17.8862  -24.8950 C   0  0  0  0  0  0  0  0  0  0  0  0
  -22.1694   18.2406  -26.8274 C   0  0  0  0  0  0  0  0  0  0  0  0
  -20.7725   18.1666  -32.5826 N   0  0  0  0  0  0  0  0  0  0  0  0
  -21.0368   18.0556  -29.0496 C   0  0  0  0  0  0  0  0  0  0  0  0
  -19.4935   16.8543  -27.5401 C   0  0  0  0  0  0  0  0  0  0  0  0
  -17.6884   17.3973  -25.5112 C   0  0  0  0  0  0  0  0  0  0  0  0
  -20.1254   16.4962  -31.0694 N   0  0  0  0  0  0  0  0  0  0  0  0
  -19.9544   16.0859  -29.8136 C   0  0  0  0  0  0  0  0  0  0  0  0
  1  3  1  0
  1 17  2  0
  1 21  1  0
  2  5  1  0
  2  8  2  0
  2 15  1  0
  3 18  2  0
  4  7  1  0
  4 15  1  0
  6 16  1  0
  6 18  1  0
  8 10  1  0
  8 16  1  0
  9 10  1  0
  9 20  2  0
 10 19  1  0
 11 18  1  0
 11 19  1  0
 11 22  1  0
 12 14  2  0
 12 20  1  0
 13 15  1  0
 13 16  1  0
 14 19  1  0
 21 22  2  0
M  END
>  <ID>  (1) 
conformer_0

$$$$
