
     RDKit          3D

 18 19  0  0  0  0  0  0  0  0999 V2000
  -19.0252   14.9100  -30.0426 O   0  0  0  0  0  0  0  0  0  0  0  0
  -24.8459   18.1872  -24.5403 C   0  0  0  0  0  0  0  0  0  0  0  0
  -19.6245   15.9185  -30.8566 C   0  0  0  0  0  0  0  0  0  0  0  0
  -18.0205   16.8846  -29.1677 C   0  0  0  0  0  0  0  0  0  0  0  0
  -22.5245   17.3146  -24.1064 C   0  0  0  0  0  0  0  0  0  0  0  0
  -22.0363   16.4650  -23.2948 O   0  0  0  0  0  0  0  0  0  0  0  0
  -19.0990   17.8005  -29.5083 N   0  0  0  0  0  0  0  0  0  0  0  0
  -19.5031   18.9714  -28.7489 C   0  0  0  0  0  0  0  0  0  0  0  0
  -20.4362   17.2835  -25.4758 C   0  0  0  0  0  0  0  0  0  0  0  0
  -19.7280   17.7219  -26.5853 C   0  0  0  0  0  0  0  0  0  0  0  0
  -17.0961   17.5208  -28.4288 O   0  0  0  0  0  0  0  0  0  0  0  0
  -22.2302   18.6572  -26.1925 C   0  0  0  0  0  0  0  0  0  0  0  0
  -21.7228   17.7518  -25.2695 C   0  0  0  0  0  0  0  0  0  0  0  0
  -21.5151   19.0572  -27.3206 C   0  0  0  0  0  0  0  0  0  0  0  0
  -23.6386   18.0625  -23.8124 O   0  0  0  0  0  0  0  0  0  0  0  0
  -18.5927   15.5064  -28.7422 C   0  0  0  0  0  0  0  0  0  0  0  0
  -20.2489   18.5604  -27.5159 C   0  0  0  0  0  0  0  0  0  0  0  0
  -20.2334   17.0543  -30.0441 C   0  0  0  0  0  0  0  0  0  0  0  0
  1  3  1  0
  1 16  1  0
  2 15  1  0
  3 18  1  0
  4  7  1  0
  4 11  1  0
  4 16  1  0
  5  6  2  0
  5 13  1  0
  5 15  1  0
  7  8  1  0
  7 18  1  0
  8 17  1  0
  9 10  2  0
  9 13  1  0
 10 17  1  0
 12 13  2  0
 12 14  1  0
 14 17  2  0
M  END
>  <ID>  (1) 
conformer_0

$$$$
