
     RDKit          3D

 23 24  0  0  0  0  0  0  0  0999 V2000
  -18.6470   15.1007  -28.0360 C   0  0  0  0  0  0  0  0  0  0  0  0
  -19.5308   18.1081  -30.5462 O   0  0  0  0  0  0  0  0  0  0  0  0
  -23.8093   18.0105  -24.0919 C   0  0  0  0  0  0  0  0  0  0  0  0
  -20.3861   20.0605  -25.6597 O   0  0  0  0  0  0  0  0  0  0  0  0
  -23.3661   16.9462  -23.3153 C   0  0  0  0  0  0  0  0  0  0  0  0
  -20.6494   18.6775  -27.5162 C   0  0  0  0  0  0  0  0  0  0  0  0
  -20.8913   19.0108  -26.1253 C   0  0  0  0  0  0  0  0  0  0  0  0
  -25.0273   18.5381  -23.8472 F   0  0  0  0  0  0  0  0  0  0  0  0
  -21.2700   17.1097  -24.5091 C   0  0  0  0  0  0  0  0  0  0  0  0
  -19.2797   16.3732  -27.5235 C   0  0  0  0  0  0  0  0  0  0  0  0
  -19.0313   17.0418  -29.8138 C   0  0  0  0  0  0  0  0  0  0  0  0
  -18.4498   19.8964  -27.7515 C   0  0  0  0  0  0  0  0  0  0  0  0
  -17.3725   17.5566  -28.2705 O   0  0  0  0  0  0  0  0  0  0  0  0
  -20.3768   15.5252  -30.8509 O   0  0  0  0  0  0  0  0  0  0  0  0
  -19.4158   18.8410  -28.3008 C   0  0  0  0  0  0  0  0  0  0  0  0
  -19.5510   16.0090  -31.8687 C   0  0  0  0  0  0  0  0  0  0  0  0
  -19.0697   15.6665  -30.3499 C   0  0  0  0  0  0  0  0  0  0  0  0
  -24.2138   16.3677  -22.3159 C   0  0  0  0  0  0  0  0  0  0  0  0
  -21.7149   18.2113  -25.2452 C   0  0  0  0  0  0  0  0  0  0  0  0
  -22.0907   16.4757  -23.5631 C   0  0  0  0  0  0  0  0  0  0  0  0
  -18.7355   17.4414  -28.4454 C   0  0  0  0  0  0  0  0  0  0  0  0
  -19.7445   19.2492  -29.7167 C   0  0  0  0  0  0  0  0  0  0  0  0
  -23.0317   18.5976  -25.0527 C   0  0  0  0  0  0  0  0  0  0  0  0
  1 10  1  0
  2 11  1  0
  2 22  1  0
  3  5  2  0
  3  8  1  0
  3 23  1  0
  4  7  2  0
  5 18  1  0
  5 20  1  0
  6  7  1  0
  6 15  1  0
  7 19  1  0
  9 19  1  0
  9 20  2  0
 10 21  1  0
 11 17  1  0
 11 21  1  0
 12 15  1  0
 13 21  1  0
 14 16  1  0
 14 17  1  0
 15 21  1  0
 15 22  1  0
 19 23  2  0
M  END
>  <ID>  (1) 
conformer_0

$$$$
