
     RDKit          3D

 28 32  0  0  0  0  0  0  0  0999 V2000
  -19.9950   17.3033  -25.4873 C   0  0  0  0  0  0  0  0  0  0  0  0
  -21.0792   17.3133  -24.7278 C   0  0  0  0  0  0  0  0  0  0  0  0
  -24.4799   17.6644  -23.6997 O   0  0  0  0  0  0  0  0  0  0  0  0
  -19.8088   17.2861  -32.5821 C   0  0  0  0  0  0  0  0  0  0  0  0
  -23.4985   17.7108  -24.6919 C   0  0  0  0  0  0  0  0  0  0  0  0
  -18.9081   16.9817  -27.6278 C   0  0  0  0  0  0  0  0  0  0  0  0
  -22.5535   17.6819  -27.2026 C   0  0  0  0  0  0  0  0  0  0  0  0
  -22.2081   17.3880  -24.1341 C   0  0  0  0  0  0  0  0  0  0  0  0
  -18.5706   15.3262  -29.2123 C   0  0  0  0  0  0  0  0  0  0  0  0
  -17.6587   17.0148  -26.9977 C   0  0  0  0  0  0  0  0  0  0  0  0
  -24.5570   18.1237  -28.1768 C   0  0  0  0  0  0  0  0  0  0  0  0
  -23.5467   17.8839  -26.1552 C   0  0  0  0  0  0  0  0  0  0  0  0
  -19.0023   16.6867  -29.0052 N   0  0  0  0  0  0  0  0  0  0  0  0
  -25.7900   18.0594  -23.9323 C   0  0  0  0  0  0  0  0  0  0  0  0
  -19.4175   16.7470  -31.3709 C   0  0  0  0  0  0  0  0  0  0  0  0
  -23.2798   17.8290  -28.4728 C   0  0  0  0  0  0  0  0  0  0  0  0
  -18.9716   15.4184  -31.4513 C   0  0  0  0  0  0  0  0  0  0  0  0
  -20.2281   18.5575  -32.6771 C   0  0  0  0  0  0  0  0  0  0  0  0
  -19.8122   18.8836  -30.3563 C   0  0  0  0  0  0  0  0  0  0  0  0
  -18.5110   14.7247  -30.3498 C   0  0  0  0  0  0  0  0  0  0  0  0
  -19.7756   19.7670  -29.3421 O   0  0  0  0  0  0  0  0  0  0  0  0
  -17.5724   17.2309  -25.6449 C   0  0  0  0  0  0  0  0  0  0  0  0
  -20.0798   17.2029  -26.8918 C   0  0  0  0  0  0  0  0  0  0  0  0
  -19.4038   17.4762  -30.1478 C   0  0  0  0  0  0  0  0  0  0  0  0
  -18.7403   17.3641  -24.8979 C   0  0  0  0  0  0  0  0  0  0  0  0
  -20.2197   19.3398  -31.5560 N   0  0  0  0  0  0  0  0  0  0  0  0
  -24.7364   18.2007  -26.7559 N   0  0  0  0  0  0  0  0  0  0  0  0
  -21.2815   17.3842  -27.4373 N   0  0  0  0  0  0  0  0  0  0  0  0
  1  2  2  0
  1 23  1  0
  1 25  1  0
  2  8  2  0
  3  5  1  0
  3 14  1  0
  4 15  1  0
  4 18  2  0
  5  8  1  0
  5 12  2  0
  6 10  1  0
  6 13  1  0
  6 23  2  0
  7 12  1  0
  7 16  1  0
  7 28  2  0
  9 13  1  0
  9 20  2  0
 10 22  2  0
 11 16  1  0
 11 27  1  0
 12 27  1  0
 13 24  1  0
 15 17  2  0
 15 24  1  0
 17 20  1  0
 18 26  1  0
 19 21  2  0
 19 24  1  0
 19 26  1  0
 22 25  1  0
 23 28  1  0
M  END
>  <ID>  (1) 
conformer_0

$$$$
