
     RDKit          3D

 20 20  0  0  0  0  0  0  0  0999 V2000
  -23.0127   17.0062  -23.2059 C   0  0  0  0  0  0  0  0  0  0  0  0
  -21.5094   17.4999  -25.3647 C   0  0  0  0  0  0  0  0  0  0  0  0
  -17.5398   16.8324  -27.1267 O   0  0  0  0  0  0  0  0  0  0  0  0
  -19.9503   17.2139  -27.2729 C   0  0  0  0  0  0  0  0  0  0  0  0
  -19.0449   18.0292  -29.8166 C   0  0  0  0  0  0  0  0  0  0  0  0
  -18.5318   15.4134  -28.7158 C   0  0  0  0  0  0  0  0  0  0  0  0
  -20.0465   16.9738  -30.1460 C   0  0  0  0  0  0  0  0  0  0  0  0
  -22.6593   17.3316  -29.9576 C   0  0  0  0  0  0  0  0  0  0  0  0
  -22.3514   18.3308  -26.0319 O   0  0  0  0  0  0  0  0  0  0  0  0
  -21.8958   16.7301  -24.1558 C   0  0  0  0  0  0  0  0  0  0  0  0
  -19.4181   15.5922  -29.9845 C   0  0  0  0  0  0  0  0  0  0  0  0
  -21.2281   16.7851  -27.9380 C   0  0  0  0  0  0  0  0  0  0  0  0
  -24.3006   17.7159  -23.7650 C   0  0  0  0  0  0  0  0  0  0  0  0
  -19.1019   17.5046  -24.9837 O   0  0  0  0  0  0  0  0  0  0  0  0
  -20.1337   17.4549  -25.8263 C   0  0  0  0  0  0  0  0  0  0  0  0
  -23.2855   16.3367  -30.5297 O   0  0  0  0  0  0  0  0  0  0  0  0
  -23.2917   18.3319  -29.4603 O   0  0  0  0  0  0  0  0  0  0  0  0
  -18.7267   16.4999  -27.6836 C   0  0  0  0  0  0  0  0  0  0  0  0
  -20.4659   17.1646  -31.4972 O   0  0  0  0  0  0  0  0  0  0  0  0
  -21.3601   17.0836  -29.3752 C   0  0  0  0  0  0  0  0  0  0  0  0
  1 10  1  0
  1 13  1  0
  2  9  1  0
  2 10  1  0
  2 15  1  0
  3 18  1  0
  4 12  1  0
  4 15  1  0
  4 18  1  0
  5  7  1  0
  6 11  1  0
  6 18  1  0
  7 11  1  0
  7 19  1  0
  7 20  1  0
  8 16  2  0
  8 17  1  0
  8 20  1  0
 12 20  1  0
 14 15  1  0
M  END
>  <ID>  (1) 
conformer_0

$$$$
