
     RDKit          3D

 24 26  0  0  0  0  0  0  0  0999 V2000
  -21.4338   17.0413  -26.1562 C   0  0  0  0  0  0  0  0  0  0  0  0
  -22.4835   17.8874  -26.3533 C   0  0  0  0  0  0  0  0  0  0  0  0
  -20.1403   18.7013  -30.4041 C   0  0  0  0  0  0  0  0  0  0  0  0
  -19.3080   16.6041  -27.7275 C   0  0  0  0  0  0  0  0  0  0  0  0
  -22.1258   16.6993  -23.9723 C   0  0  0  0  0  0  0  0  0  0  0  0
  -20.6000   16.7273  -27.2193 C   0  0  0  0  0  0  0  0  0  0  0  0
  -21.8972   17.2875  -31.2269 C   0  0  0  0  0  0  0  0  0  0  0  0
  -22.7380   18.5306  -27.5555 F   0  0  0  0  0  0  0  0  0  0  0  0
  -19.6183   15.4567  -28.8772 C   0  0  0  0  0  0  0  0  0  0  0  0
  -23.2631   17.4254  -24.1575 C   0  0  0  0  0  0  0  0  0  0  0  0
  -19.7507   17.6456  -29.6567 C   0  0  0  0  0  0  0  0  0  0  0  0
  -18.8173   17.6789  -28.6100 N   0  0  0  0  0  0  0  0  0  0  0  0
  -21.9395   16.1630  -22.7455 F   0  0  0  0  0  0  0  0  0  0  0  0
  -19.4953   19.3676  -27.0446 C   0  0  0  0  0  0  0  0  0  0  0  0
  -20.2873   16.4101  -29.7529 C   0  0  0  0  0  0  0  0  0  0  0  0
  -18.5834   18.9365  -27.9412 C   0  0  0  0  0  0  0  0  0  0  0  0
  -24.3840   18.9041  -25.4998 F   0  0  0  0  0  0  0  0  0  0  0  0
  -21.2124   16.4853  -24.9429 C   0  0  0  0  0  0  0  0  0  0  0  0
  -24.2882   17.4283  -23.1978 C   0  0  0  0  0  0  0  0  0  0  0  0
  -21.4069   16.1862  -30.5258 C   0  0  0  0  0  0  0  0  0  0  0  0
  -23.3869   18.0967  -25.3443 C   0  0  0  0  0  0  0  0  0  0  0  0
  -18.3476   18.8162  -26.5715 C   0  0  0  0  0  0  0  0  0  0  0  0
  -18.1788   16.0681  -26.8669 C   0  0  0  0  0  0  0  0  0  0  0  0
  -21.2769   18.5231  -31.2171 C   0  0  0  0  0  0  0  0  0  0  0  0
  1  2  2  0
  1  6  1  0
  1 18  1  0
  2  8  1  0
  2 21  1  0
  3 11  2  0
  3 24  1  0
  4  6  1  0
  4  9  1  0
  4 12  1  0
  4 23  1  0
  5 10  1  0
  5 13  1  0
  5 18  2  0
  7 20  1  0
  7 24  2  0
  9 15  1  0
 10 19  1  0
 10 21  2  0
 11 12  1  0
 11 15  1  0
 12 16  1  0
 14 16  1  0
 14 22  1  0
 15 20  2  0
 17 21  1  0
M  END
>  <ID>  (1) 
conformer_0

$$$$
