
     RDKit          3D

 30 34  0  0  0  0  0  0  0  0999 V2000
  -23.0634   20.0739  -31.8583 C   0  0  0  0  0  0  0  0  0  0  0  0
  -20.8707   16.7627  -29.0207 C   0  0  0  0  0  0  0  0  0  0  0  0
  -21.0284   19.1101  -31.1897 C   0  0  0  0  0  0  0  0  0  0  0  0
  -21.5966   20.1405  -32.1443 C   0  0  0  0  0  0  0  0  0  0  0  0
  -23.3468   17.3126  -23.5901 C   0  0  0  0  0  0  0  0  0  0  0  0
  -21.4206   17.6601  -26.8448 C   0  0  0  0  0  0  0  0  0  0  0  0
  -22.3421   17.2785  -24.5514 C   0  0  0  0  0  0  0  0  0  0  0  0
  -20.9789   19.7884  -29.8723 C   0  0  0  0  0  0  0  0  0  0  0  0
  -24.8373   18.2690  -25.2920 C   0  0  0  0  0  0  0  0  0  0  0  0
  -18.0518   17.7225  -27.9178 C   0  0  0  0  0  0  0  0  0  0  0  0
  -21.1485   15.4750  -26.9704 C   0  0  0  0  0  0  0  0  0  0  0  0
  -25.8333   17.7420  -22.8697 Cl  0  0  0  0  0  0  0  0  0  0  0  0
  -17.6215   17.2767  -25.2023 C   0  0  0  0  0  0  0  0  0  0  0  0
  -17.0693   18.4077  -27.2595 N   0  0  0  0  0  0  0  0  0  0  0  0
  -24.6001   17.7912  -23.9859 C   0  0  0  0  0  0  0  0  0  0  0  0
  -23.3509   18.7112  -31.2703 C   0  0  0  0  0  0  0  0  0  0  0  0
  -20.6929   15.7302  -29.8976 O   0  0  0  0  0  0  0  0  0  0  0  0
  -21.9528   17.6590  -29.5159 C   0  0  0  0  0  0  0  0  0  0  0  0
  -22.0851   18.0128  -30.9511 C   0  0  0  0  0  0  0  0  0  0  0  0
  -21.5208   18.9862  -28.8838 N   0  0  0  0  0  0  0  0  0  0  0  0
  -22.5446   17.7164  -25.8773 C   0  0  0  0  0  0  0  0  0  0  0  0
  -23.8077   18.2415  -26.2061 C   0  0  0  0  0  0  0  0  0  0  0  0
  -18.5971   16.6194  -25.8880 C   0  0  0  0  0  0  0  0  0  0  0  0
  -16.8546   18.1763  -25.8990 C   0  0  0  0  0  0  0  0  0  0  0  0
  -18.9138   16.7866  -27.2586 C   0  0  0  0  0  0  0  0  0  0  0  0
  -21.3176   18.9605  -27.5403 C   0  0  0  0  0  0  0  0  0  0  0  0
  -20.4765   20.9118  -29.6499 O   0  0  0  0  0  0  0  0  0  0  0  0
  -18.9430   15.4511  -28.0145 C   0  0  0  0  0  0  0  0  0  0  0  0
  -20.4679   16.6923  -27.5813 C   0  0  0  0  0  0  0  0  0  0  0  0
  -21.1484   19.9702  -26.8534 O   0  0  0  0  0  0  0  0  0  0  0  0
  1  4  1  0
  1 16  1  0
  2 17  1  0
  2 18  1  0
  2 29  1  0
  3  4  1  0
  3  8  1  0
  3 19  1  0
  5  7  2  0
  5 15  1  0
  6 21  1  0
  6 26  1  0
  6 29  1  0
  7 21  1  0
  8 20  1  0
  8 27  2  0
  9 15  1  0
  9 22  2  0
 10 14  2  0
 10 25  1  0
 11 29  1  0
 12 15  1  0
 13 23  2  0
 13 24  1  0
 14 24  1  0
 16 19  1  0
 18 19  1  0
 18 20  1  0
 20 26  1  0
 21 22  1  0
 23 25  1  0
 25 28  1  0
 25 29  1  0
 26 30  2  0
M  END
>  <ID>  (1) 
conformer_0

$$$$
