
     RDKit          3D

 24 27  0  0  0  0  0  0  0  0999 V2000
  -24.2109   17.1300  -30.1524 C   0  0  0  0  0  0  0  0  0  0  0  0
  -21.7798   17.1970  -24.9973 C   0  0  0  0  0  0  0  0  0  0  0  0
  -20.3115   17.8613  -27.3809 C   0  0  0  0  0  0  0  0  0  0  0  0
  -23.6753   17.9692  -31.2548 C   0  0  0  0  0  0  0  0  0  0  0  0
  -21.5854   17.1584  -29.5224 C   0  0  0  0  0  0  0  0  0  0  0  0
  -23.5674   17.3490  -23.4120 C   0  0  0  0  0  0  0  0  0  0  0  0
  -18.2754   18.8364  -28.9222 O   0  0  0  0  0  0  0  0  0  0  0  0
  -20.0681   19.0184  -26.3648 C   0  0  0  0  0  0  0  0  0  0  0  0
  -23.8329   17.5872  -28.8121 O   0  0  0  0  0  0  0  0  0  0  0  0
  -23.8018   18.2791  -25.6694 C   0  0  0  0  0  0  0  0  0  0  0  0
  -21.0185   15.9849  -28.7939 N   0  0  0  0  0  0  0  0  0  0  0  0
  -17.7187   18.9469  -26.1302 C   0  0  0  0  0  0  0  0  0  0  0  0
  -18.9126   19.8077  -26.4645 O   0  0  0  0  0  0  0  0  0  0  0  0
  -20.4117   16.2555  -27.4628 C   0  0  0  0  0  0  0  0  0  0  0  0
  -22.4835   17.8676  -26.0072 C   0  0  0  0  0  0  0  0  0  0  0  0
  -24.3337   18.0213  -24.4060 C   0  0  0  0  0  0  0  0  0  0  0  0
  -21.9418   18.1010  -27.3616 C   0  0  0  0  0  0  0  0  0  0  0  0
  -24.0370   17.1840  -22.1690 O   0  0  0  0  0  0  0  0  0  0  0  0
  -19.0537   15.5192  -27.3170 C   0  0  0  0  0  0  0  0  0  0  0  0
  -17.8243   17.6826  -26.9666 C   0  0  0  0  0  0  0  0  0  0  0  0
  -22.2869   16.9039  -23.7508 C   0  0  0  0  0  0  0  0  0  0  0  0
  -18.8792   17.9881  -28.0716 C   0  0  0  0  0  0  0  0  0  0  0  0
  -22.4982   17.8477  -28.6107 C   0  0  0  0  0  0  0  0  0  0  0  0
  -18.1588   16.3357  -26.3598 C   0  0  0  0  0  0  0  0  0  0  0  0
  1  4  1  0
  1  9  1  0
  2 15  2  0
  2 21  1  0
  3  8  1  0
  3 14  1  0
  3 17  1  0
  3 22  1  0
  5 11  1  0
  5 23  1  0
  6 16  1  0
  6 18  1  0
  6 21  2  0
  7 22  1  0
  8 13  1  0
  9 23  1  0
 10 15  1  0
 10 16  2  0
 11 14  1  0
 12 13  1  0
 12 20  1  0
 14 19  1  0
 15 17  1  0
 17 23  1  0
 19 24  1  0
 20 22  1  0
 20 24  1  0
M  END
>  <ID>  (1) 
conformer_0

$$$$
