
     RDKit          3D

 22 23  0  0  0  0  0  0  0  0999 V2000
  -19.2591   16.6472  -27.5829 C   0  0  0  0  0  0  0  0  0  0  0  0
  -20.7459   16.7061  -25.4870 C   0  0  0  0  0  0  0  0  0  0  0  0
  -19.5722   15.1410  -27.3904 C   0  0  0  0  0  0  0  0  0  0  0  0
  -25.6658   17.7835  -23.7001 C   0  0  0  0  0  0  0  0  0  0  0  0
  -22.6709   18.1753  -25.5424 C   0  0  0  0  0  0  0  0  0  0  0  0
  -19.7936   15.6707  -33.2385 F   0  0  0  0  0  0  0  0  0  0  0  0
  -22.2570   16.7497  -23.6670 O   0  0  0  0  0  0  0  0  0  0  0  0
  -19.6401   15.9378  -31.9245 C   0  0  0  0  0  0  0  0  0  0  0  0
  -17.1792   17.4776  -26.3361 C   0  0  0  0  0  0  0  0  0  0  0  0
  -22.0296   18.9446  -26.5168 C   0  0  0  0  0  0  0  0  0  0  0  0
  -18.7776   17.7371  -28.4639 C   0  0  0  0  0  0  0  0  0  0  0  0
  -19.2457   16.7130  -29.3079 C   0  0  0  0  0  0  0  0  0  0  0  0
  -18.4370   15.6584  -31.3275 C   0  0  0  0  0  0  0  0  0  0  0  0
  -20.8292   18.4901  -27.0592 C   0  0  0  0  0  0  0  0  0  0  0  0
  -24.4783   18.5071  -23.9944 O   0  0  0  0  0  0  0  0  0  0  0  0
  -20.5096   16.8663  -29.9284 C   0  0  0  0  0  0  0  0  0  0  0  0
  -24.1131   18.3138  -25.3906 C   0  0  0  0  0  0  0  0  0  0  0  0
  -18.2763   16.0114  -30.0244 C   0  0  0  0  0  0  0  0  0  0  0  0
  -21.9152   17.2206  -24.8815 C   0  0  0  0  0  0  0  0  0  0  0  0
  -17.9512   16.1686  -26.8299 C   0  0  0  0  0  0  0  0  0  0  0  0
  -20.6939   16.5264  -31.2301 C   0  0  0  0  0  0  0  0  0  0  0  0
  -20.3078   17.3058  -26.6303 C   0  0  0  0  0  0  0  0  0  0  0  0
  1  3  1  0
  1 11  1  0
  1 20  1  0
  1 22  1  0
  2 19  2  0
  2 22  1  0
  4 15  1  0
  5 10  1  0
  5 17  1  0
  5 19  1  0
  6  8  1  0
  7 19  1  0
  8 13  2  0
  8 21  1  0
  9 20  1  0
 10 14  2  0
 11 12  1  0
 12 16  1  0
 12 18  1  0
 13 18  1  0
 14 22  1  0
 15 17  1  0
 16 21  2  0
M  END
>  <ID>  (1) 
conformer_0

$$$$
