
     RDKit          3D

 25 29  0  0  0  0  0  0  0  0999 V2000
  -25.5495   17.2372  -22.7829 Cl  0  0  0  0  0  0  0  0  0  0  0  0
  -22.1234   17.1744  -24.7236 C   0  0  0  0  0  0  0  0  0  0  0  0
  -19.2416   17.4716  -25.0385 C   0  0  0  0  0  0  0  0  0  0  0  0
  -17.6710   16.7956  -28.1111 C   0  0  0  0  0  0  0  0  0  0  0  0
  -17.9225   17.4300  -24.6093 C   0  0  0  0  0  0  0  0  0  0  0  0
  -22.8419   16.9904  -23.4888 C   0  0  0  0  0  0  0  0  0  0  0  0
  -19.8534   16.0434  -29.7194 C   0  0  0  0  0  0  0  0  0  0  0  0
  -23.5193   18.3534  -31.5880 O   0  0  0  0  0  0  0  0  0  0  0  0
  -24.1197   18.1288  -30.5384 C   0  0  0  0  0  0  0  0  0  0  0  0
  -22.7273   17.7422  -27.1319 C   0  0  0  0  0  0  0  0  0  0  0  0
  -21.9636   17.1764  -29.1986 C   0  0  0  0  0  0  0  0  0  0  0  0
  -25.3645   18.3254  -30.3643 O   0  0  0  0  0  0  0  0  0  0  0  0
  -20.2231   17.1450  -27.4327 N   0  0  0  0  0  0  0  0  0  0  0  0
  -22.9322   17.7182  -25.7487 C   0  0  0  0  0  0  0  0  0  0  0  0
  -23.7491   18.0825  -28.0669 C   0  0  0  0  0  0  0  0  0  0  0  0
  -21.5390   17.2922  -27.8669 C   0  0  0  0  0  0  0  0  0  0  0  0
  -17.6039   16.6390  -29.3163 C   0  0  0  0  0  0  0  0  0  0  0  0
  -19.1936   16.8978  -28.6643 N   0  0  0  0  0  0  0  0  0  0  0  0
  -19.2782   17.2237  -26.4123 C   0  0  0  0  0  0  0  0  0  0  0  0
  -24.2629   18.1063  -25.1171 S   0  0  0  0  0  0  0  0  0  0  0  0
  -21.1773   16.4478  -30.2187 C   0  0  0  0  0  0  0  0  0  0  0  0
  -17.9425   17.0371  -26.7842 C   0  0  0  0  0  0  0  0  0  0  0  0
  -23.3057   17.7659  -29.3701 C   0  0  0  0  0  0  0  0  0  0  0  0
  -24.1599   17.4786  -23.7427 C   0  0  0  0  0  0  0  0  0  0  0  0
  -17.1318   17.1415  -25.7232 N   0  0  0  0  0  0  0  0  0  0  0  0
  1 24  1  0
  2  6  1  0
  2 14  1  0
  3  5  1  0
  3 19  1  0
  4 17  1  0
  4 18  1  0
  4 22  1  0
  5 25  1  0
  6 24  1  0
  7 18  1  0
  7 21  1  0
  8  9  2  0
  9 12  1  0
  9 23  1  0
 10 14  2  3
 10 15  1  0
 10 16  1  0
 11 16  1  0
 11 21  1  0
 11 23  1  0
 13 16  1  0
 13 18  1  0
 13 19  1  0
 14 20  1  0
 15 23  1  0
 19 22  2  0
 20 24  1  0
 22 25  1  0
M  END
>  <ID>  (1) 
conformer_0

$$$$
