
     RDKit          3D

 31 35  0  0  0  0  0  0  0  0999 V2000
  -22.6977   18.3331  -31.1124 C   0  0  0  0  0  0  0  0  0  0  0  0
  -21.5716   16.6754  -23.7959 F   0  0  0  0  0  0  0  0  0  0  0  0
  -22.0893   17.2746  -29.1049 C   0  0  0  0  0  0  0  0  0  0  0  0
  -18.6674   16.5414  -27.0167 C   0  0  0  0  0  0  0  0  0  0  0  0
  -23.0214   17.6311  -25.4543 C   0  0  0  0  0  0  0  0  0  0  0  0
  -25.3594   18.5104  -30.2719 O   0  0  0  0  0  0  0  0  0  0  0  0
  -23.8047   17.2007  -23.3803 C   0  0  0  0  0  0  0  0  0  0  0  0
  -25.2373   18.4064  -26.4431 C   0  0  0  0  0  0  0  0  0  0  0  0
  -22.7360   17.1455  -24.1945 C   0  0  0  0  0  0  0  0  0  0  0  0
  -20.6744   17.9245  -26.0623 O   0  0  0  0  0  0  0  0  0  0  0  0
  -17.8401   17.0639  -25.7565 C   0  0  0  0  0  0  0  0  0  0  0  0
  -23.1176   17.7412  -29.9513 C   0  0  0  0  0  0  0  0  0  0  0  0
  -26.1185   17.9224  -23.7220 C   0  0  0  0  0  0  0  0  0  0  0  0
  -20.4336   17.6954  -30.7851 C   0  0  0  0  0  0  0  0  0  0  0  0
  -21.3696   18.3631  -31.5182 C   0  0  0  0  0  0  0  0  0  0  0  0
  -17.8164   18.6702  -27.4812 N   0  0  0  0  0  0  0  0  0  0  0  0
  -24.8332   17.7359  -24.1736 N   0  0  0  0  0  0  0  0  0  0  0  0
  -18.0189   20.0164  -27.6397 C   0  0  0  0  0  0  0  0  0  0  0  0
  -25.1609   16.7136  -29.1247 N   0  0  0  0  0  0  0  0  0  0  0  0
  -19.9821   16.0693  -29.0992 O   0  0  0  0  0  0  0  0  0  0  0  0
  -19.6051   15.6628  -27.7919 C   0  0  0  0  0  0  0  0  0  0  0  0
  -24.3641   17.9970  -25.4399 C   0  0  0  0  0  0  0  0  0  0  0  0
  -18.0466   18.6883  -25.8680 C   0  0  0  0  0  0  0  0  0  0  0  0
  -17.7335   20.2083  -26.0177 O   0  0  0  0  0  0  0  0  0  0  0  0
  -24.5715   17.6487  -29.7240 C   0  0  0  0  0  0  0  0  0  0  0  0
  -22.0208   17.6746  -26.4781 C   0  0  0  0  0  0  0  0  0  0  0  0
  -22.2186   17.1245  -27.7186 O   0  0  0  0  0  0  0  0  0  0  0  0
  -17.9913   17.4523  -28.0780 C   0  0  0  0  0  0  0  0  0  0  0  0
  -17.5340   17.3272  -29.2137 O   0  0  0  0  0  0  0  0  0  0  0  0
  -20.8327   17.0356  -29.6611 C   0  0  0  0  0  0  0  0  0  0  0  0
  -19.5926   18.7619  -25.7666 C   0  0  0  0  0  0  0  0  0  0  0  0
  1 12  1  0
  1 15  2  0
  2  9  1  0
  3 12  1  0
  3 27  1  0
  3 30  1  0
  4 11  1  0
  4 21  1  0
  4 28  1  0
  5  9  2  0
  5 22  1  0
  5 26  1  0
  6 25  2  0
  7  9  1  0
  7 17  1  0
  8 22  1  0
 10 26  1  0
 10 31  1  0
 11 23  1  0
 12 25  1  0
 13 17  1  0
 14 15  1  0
 14 30  2  0
 16 18  1  0
 16 23  1  0
 16 28  1  0
 17 22  1  0
 18 24  1  0
 19 25  1  0
 20 21  1  0
 20 30  1  0
 23 24  1  0
 23 31  1  0
 26 27  1  0
 28 29  2  0
M  END
>  <ID>  (1) 
conformer_0

$$$$
