
     RDKit          3D

 17 18  0  0  0  0  0  0  0  0999 V2000
  -18.0285   17.2683  -28.8421 C   0  0  0  0  0  0  0  0  0  0  0  0
  -19.3554   16.7424  -26.9685 O   0  0  0  0  0  0  0  0  0  0  0  0
  -22.6370   18.3301  -26.0067 N   0  0  0  0  0  0  0  0  0  0  0  0
  -22.4821   16.4118  -22.9180 Cl  0  0  0  0  0  0  0  0  0  0  0  0
  -19.6802   17.1116  -30.7937 C   0  0  0  0  0  0  0  0  0  0  0  0
  -18.0155   16.5031  -27.4292 C   0  0  0  0  0  0  0  0  0  0  0  0
  -20.4996   17.5676  -27.2371 C   0  0  0  0  0  0  0  0  0  0  0  0
  -18.6712   15.1762  -29.7022 C   0  0  0  0  0  0  0  0  0  0  0  0
  -19.7484   15.9266  -31.7192 C   0  0  0  0  0  0  0  0  0  0  0  0
  -23.1959   17.9459  -24.7801 C   0  0  0  0  0  0  0  0  0  0  0  0
  -19.2078   16.5639  -29.5058 C   0  0  0  0  0  0  0  0  0  0  0  0
  -18.6540   14.9981  -31.2205 C   0  0  0  0  0  0  0  0  0  0  0  0
  -21.1809   16.9412  -24.9876 O   0  0  0  0  0  0  0  0  0  0  0  0
  -20.9110   18.3822  -28.3704 S   0  0  0  0  0  0  0  0  0  0  0  0
  -21.4050   17.6376  -26.1452 C   0  0  0  0  0  0  0  0  0  0  0  0
  -22.3279   17.1214  -24.1665 C   0  0  0  0  0  0  0  0  0  0  0  0
  -24.5684   18.3305  -24.3074 C   0  0  0  0  0  0  0  0  0  0  0  0
  1  6  1  0
  1 11  1  0
  2  6  1  0
  2  7  1  0
  3 10  1  0
  3 15  1  0
  4 16  1  0
  5  9  1  0
  5 11  1  0
  7 14  2  0
  7 15  1  0
  8 11  1  0
  8 12  1  0
  9 12  1  0
 10 16  2  0
 10 17  1  0
 13 15  1  0
 13 16  1  0
M  END
>  <ID>  (1) 
conformer_0

$$$$
