
     RDKit          3D

 20 22  0  0  0  0  0  0  0  0999 V2000
  -17.4737   17.4082  -25.6365 C   0  0  0  0  0  0  0  0  0  0  0  0
  -25.1727   18.1948  -24.3120 C   0  0  0  0  0  0  0  0  0  0  0  0
  -20.1697   17.3532  -31.6697 O   0  0  0  0  0  0  0  0  0  0  0  0
  -23.8981   18.5812  -25.0523 C   0  0  0  0  0  0  0  0  0  0  0  0
  -21.2792   16.4024  -28.8929 C   0  0  0  0  0  0  0  0  0  0  0  0
  -17.5300   16.5521  -26.7304 C   0  0  0  0  0  0  0  0  0  0  0  0
  -19.8834   17.8154  -25.8046 C   0  0  0  0  0  0  0  0  0  0  0  0
  -19.8425   17.0646  -26.9205 C   0  0  0  0  0  0  0  0  0  0  0  0
  -20.1930   16.2471  -31.1091 C   0  0  0  0  0  0  0  0  0  0  0  0
  -22.5683   18.2371  -24.4200 C   0  0  0  0  0  0  0  0  0  0  0  0
  -18.6209   18.0849  -25.1807 C   0  0  0  0  0  0  0  0  0  0  0  0
  -21.3298   18.0520  -25.4307 N   0  0  0  0  0  0  0  0  0  0  0  0
  -18.7280   16.4313  -27.4235 C   0  0  0  0  0  0  0  0  0  0  0  0
  -22.5174   16.9012  -23.5399 C   0  0  0  0  0  0  0  0  0  0  0  0
  -21.1337   16.8769  -27.5251 C   0  0  0  0  0  0  0  0  0  0  0  0
  -18.8747   15.6774  -28.6833 C   0  0  0  0  0  0  0  0  0  0  0  0
  -22.4463   16.8866  -29.7922 C   0  0  0  0  0  0  0  0  0  0  0  0
  -19.9315   16.2345  -29.5910 C   0  0  0  0  0  0  0  0  0  0  0  0
  -20.5449   15.1360  -31.5544 O   0  0  0  0  0  0  0  0  0  0  0  0
  -22.0631   17.3263  -26.6492 O   0  0  0  0  0  0  0  0  0  0  0  0
  1  6  2  0
  1 11  1  0
  2  4  1  0
  3  9  2  0
  4 10  1  0
  5 15  1  0
  5 17  1  0
  5 18  1  0
  6 13  1  0
  7  8  1  0
  7 11  2  0
  7 12  1  0
  8 13  2  0
  8 15  1  0
  9 18  1  0
  9 19  1  0
 10 12  1  0
 10 14  1  0
 12 20  1  0
 13 16  1  0
 15 20  1  0
 16 18  1  0
M  END
>  <ID>  (1) 
conformer_0

$$$$
