
     RDKit          3D

  9  9  0  0  0  0  0  0  0  0999 V2000
  -20.4472   15.6552  -26.7928 C   0  0  0  0  0  0  0  0  0  0  0  0
  -19.2596   16.3611  -26.7941 C   0  0  0  0  0  0  0  0  0  0  0  0
  -22.5331   17.2445  -23.7882 Cl  0  0  0  0  0  0  0  0  0  0  0  0
  -20.1420   17.7383  -25.0220 C   0  0  0  0  0  0  0  0  0  0  0  0
  -18.4864   15.1923  -28.8498 N   0  0  0  0  0  0  0  0  0  0  0  0
  -19.1383   17.4314  -25.9076 C   0  0  0  0  0  0  0  0  0  0  0  0
  -18.0840   16.0116  -27.7151 C   0  0  0  0  0  0  0  0  0  0  0  0
  -21.4434   15.9601  -25.8719 C   0  0  0  0  0  0  0  0  0  0  0  0
  -21.2921   16.9744  -24.9676 C   0  0  0  0  0  0  0  0  0  0  0  0
  1  2  2  0
  1  8  1  0
  2  6  1  0
  2  7  1  0
  3  9  1  0
  4  6  2  0
  4  9  1  0
  5  7  1  0
  8  9  2  0
M  END
>  <ID>  (1) 
conformer_0

$$$$
