
     RDKit          3D

 24 27  0  0  0  0  0  0  0  0999 V2000
  -19.4522   16.2900  -31.4103 C   0  0  0  0  0  0  0  0  0  0  0  0
  -21.1083   18.3141  -30.6295 C   0  0  0  0  0  0  0  0  0  0  0  0
  -22.5831   19.3883  -28.8589 O   0  0  0  0  0  0  0  0  0  0  0  0
  -20.3732   17.6396  -29.6418 C   0  0  0  0  0  0  0  0  0  0  0  0
  -18.8031   15.0236  -31.7913 C   0  0  0  0  0  0  0  0  0  0  0  0
  -22.0108   18.7413  -28.0379 C   0  0  0  0  0  0  0  0  0  0  0  0
  -17.0753   16.4354  -29.9386 C   0  0  0  0  0  0  0  0  0  0  0  0
  -22.6451   18.7823  -26.8551 N   0  0  0  0  0  0  0  0  0  0  0  0
  -19.4248   16.7430  -30.1166 C   0  0  0  0  0  0  0  0  0  0  0  0
  -20.4729   17.1564  -26.9701 C   0  0  0  0  0  0  0  0  0  0  0  0
  -22.4819   18.0100  -25.8119 C   0  0  0  0  0  0  0  0  0  0  0  0
  -20.9982   17.9896  -31.9395 C   0  0  0  0  0  0  0  0  0  0  0  0
  -23.4036   18.0248  -24.7528 C   0  0  0  0  0  0  0  0  0  0  0  0
  -23.1777   17.2332  -23.6337 C   0  0  0  0  0  0  0  0  0  0  0  0
  -18.3058   16.3443  -29.2870 C   0  0  0  0  0  0  0  0  0  0  0  0
  -20.7592   17.9516  -28.2025 C   0  0  0  0  0  0  0  0  0  0  0  0
  -18.2322   16.2855  -26.8730 C   0  0  0  0  0  0  0  0  0  0  0  0
  -21.3535   17.1937  -25.8155 C   0  0  0  0  0  0  0  0  0  0  0  0
  -18.4415   16.9908  -28.0337 C   0  0  0  0  0  0  0  0  0  0  0  0
  -24.0803   17.2649  -22.5172 C   0  0  0  0  0  0  0  0  0  0  0  0
  -19.5973   16.0315  -27.4271 C   0  0  0  0  0  0  0  0  0  0  0  0
  -21.1428   16.4196  -24.6878 C   0  0  0  0  0  0  0  0  0  0  0  0
  -20.1823   16.9631  -32.3570 C   0  0  0  0  0  0  0  0  0  0  0  0
  -22.0361   16.4315  -23.6139 C   0  0  0  0  0  0  0  0  0  0  0  0
  1  5  1  0
  1  9  1  0
  1 23  2  0
  2  4  1  0
  2 12  2  0
  3  6  2  0
  4  9  1  0
  4 16  1  0
  6  8  1  0
  6 16  1  0
  7 15  1  0
  8 11  2  0
  9 15  1  0
 10 16  1  0
 10 18  1  0
 10 21  1  0
 11 13  1  0
 11 18  1  0
 12 23  1  0
 13 14  2  0
 14 20  1  0
 14 24  1  0
 15 19  1  0
 17 19  1  0
 17 21  1  0
 18 22  2  0
 22 24  1  0
M  END
>  <ID>  (1) 
conformer_0

$$$$
