
     RDKit          3D

 25 26  0  0  0  0  0  0  0  0999 V2000
  -23.0708   18.1632  -27.4998 C   0  0  0  0  0  0  0  0  0  0  0  0
  -22.0235   16.3889  -30.5026 C   0  0  0  0  0  0  0  0  0  0  0  0
  -19.3416   18.4649  -27.1809 C   0  0  0  0  0  0  0  0  0  0  0  0
  -21.8255   18.3785  -26.7823 C   0  0  0  0  0  0  0  0  0  0  0  0
  -20.0593   20.7466  -27.2212 O   0  0  0  0  0  0  0  0  0  0  0  0
  -24.1281   18.5628  -27.0399 O   0  0  0  0  0  0  0  0  0  0  0  0
  -16.9970   17.9893  -26.9063 C   0  0  0  0  0  0  0  0  0  0  0  0
  -16.7043   19.3420  -26.9530 N   0  0  0  0  0  0  0  0  0  0  0  0
  -23.9447   17.5275  -29.8774 C   0  0  0  0  0  0  0  0  0  0  0  0
  -24.0529   17.8729  -24.2042 O   0  0  0  0  0  0  0  0  0  0  0  0
  -21.9553   18.6077  -25.3186 C   0  0  0  0  0  0  0  0  0  0  0  0
  -22.1868   16.4035  -23.5654 Cl  0  0  0  0  0  0  0  0  0  0  0  0
  -22.7066   17.6499  -24.5417 C   0  0  0  0  0  0  0  0  0  0  0  0
  -19.0273   19.8402  -27.1615 C   0  0  0  0  0  0  0  0  0  0  0  0
  -21.8570   16.9425  -29.1911 C   0  0  0  0  0  0  0  0  0  0  0  0
  -25.3843   17.6350  -29.6766 C   0  0  0  0  0  0  0  0  0  0  0  0
  -23.3196   16.9123  -30.8920 O   0  0  0  0  0  0  0  0  0  0  0  0
  -23.6927   15.9473  -23.0053 O   0  0  0  0  0  0  0  0  0  0  0  0
  -20.6967   17.1368  -28.4811 C   0  0  0  0  0  0  0  0  0  0  0  0
  -18.3218   17.5429  -27.0520 C   0  0  0  0  0  0  0  0  0  0  0  0
  -23.0571   17.5908  -28.7878 N   0  0  0  0  0  0  0  0  0  0  0  0
  -25.9735   16.8892  -22.7808 C   0  0  0  0  0  0  0  0  0  0  0  0
  -17.7149   20.2812  -27.0374 C   0  0  0  0  0  0  0  0  0  0  0  0
  -20.6713   18.0608  -27.3934 O   0  0  0  0  0  0  0  0  0  0  0  0
  -24.5569   16.9985  -23.2275 C   0  0  0  0  0  0  0  0  0  0  0  0
  1  4  1  0
  1  6  2  0
  1 21  1  0
  2 15  1  0
  2 17  1  0
  3 14  1  0
  3 20  2  0
  3 24  1  0
  4 11  1  0
  4 24  1  0
  5 14  1  0
  7  8  2  0
  7 20  1  0
  8 23  1  0
  9 16  1  0
  9 17  1  0
  9 21  1  0
 10 13  1  0
 10 25  1  0
 11 13  1  0
 12 13  1  0
 14 23  2  0
 15 19  2  0
 15 21  1  0
 18 25  2  0
 22 25  1  0
M  END
>  <ID>  (1) 
conformer_0

$$$$
