
     RDKit          3D

 20 20  0  0  0  0  0  0  0  0999 V2000
  -23.7536   18.1698  -24.2972 C   0  0  0  0  0  0  0  0  0  0  0  0
  -17.3225   17.6423  -25.6405 C   0  0  0  0  0  0  0  0  0  0  0  0
  -21.0619   17.2223  -25.9832 C   0  0  0  0  0  0  0  0  0  0  0  0
  -21.4073   16.6673  -28.5728 C   0  0  0  0  0  0  0  0  0  0  0  0
  -21.5601   16.8181  -30.0619 C   0  0  0  0  0  0  0  0  0  0  0  0
  -21.5611   15.5918  -25.6904 Cl  0  0  0  0  0  0  0  0  0  0  0  0
  -21.5917   18.5049  -25.5407 C   0  0  0  0  0  0  0  0  0  0  0  0
  -18.6890   17.6416  -25.3493 C   0  0  0  0  0  0  0  0  0  0  0  0
  -22.3206   15.6155  -30.4359 O   0  0  0  0  0  0  0  0  0  0  0  0
  -22.4996   18.4125  -24.5299 O   0  0  0  0  0  0  0  0  0  0  0  0
  -21.0092   19.6729  -25.6195 O   0  0  0  0  0  0  0  0  0  0  0  0
  -20.1092   16.0241  -28.3231 O   0  0  0  0  0  0  0  0  0  0  0  0
  -26.2288   18.1495  -24.2580 C   0  0  0  0  0  0  0  0  0  0  0  0
  -17.8338   16.6405  -27.8138 C   0  0  0  0  0  0  0  0  0  0  0  0
  -16.8982   17.1480  -26.8737 C   0  0  0  0  0  0  0  0  0  0  0  0
  -19.1740   16.6178  -27.4986 C   0  0  0  0  0  0  0  0  0  0  0  0
  -25.8884   17.2574  -23.0323 C   0  0  0  0  0  0  0  0  0  0  0  0
  -19.6133   17.1722  -26.2983 C   0  0  0  0  0  0  0  0  0  0  0  0
  -24.9584   18.2903  -25.1886 C   0  0  0  0  0  0  0  0  0  0  0  0
  -22.6037   17.2347  -27.9996 O   0  0  0  0  0  0  0  0  0  0  0  0
  1 10  1  0
  1 19  1  0
  2  8  2  0
  2 15  1  0
  3  6  1  0
  3  7  1  0
  3 18  1  0
  4  5  1  0
  4 12  1  0
  4 20  2  0
  5  9  1  0
  7 10  1  0
  7 11  2  0
  8 18  1  0
 12 16  1  0
 13 17  1  0
 13 19  1  0
 14 15  2  0
 14 16  1  0
 16 18  2  0
M  END
>  <ID>  (1) 
conformer_0

$$$$
