
     RDKit          3D

 23 27  0  0  0  0  0  0  0  0999 V2000
  -20.7058   16.9085  -28.4086 C   0  0  0  0  0  0  0  0  0  0  0  0
  -18.3266   16.4708  -29.1835 C   0  0  0  0  0  0  0  0  0  0  0  0
  -17.6530   16.0472  -30.2856 O   0  0  0  0  0  0  0  0  0  0  0  0
  -23.3593   17.5131  -24.2186 C   0  0  0  0  0  0  0  0  0  0  0  0
  -25.4737   18.2035  -25.1978 C   0  0  0  0  0  0  0  0  0  0  0  0
  -18.7324   15.2671  -28.3705 C   0  0  0  0  0  0  0  0  0  0  0  0
  -20.3321   19.7628  -25.9984 O   0  0  0  0  0  0  0  0  0  0  0  0
  -19.0901   18.0405  -26.7158 C   0  0  0  0  0  0  0  0  0  0  0  0
  -24.7593   17.7239  -24.1111 C   0  0  0  0  0  0  0  0  0  0  0  0
  -19.6805   17.1206  -29.5206 C   0  0  0  0  0  0  0  0  0  0  0  0
  -22.5011   16.8084  -23.0196 Cl  0  0  0  0  0  0  0  0  0  0  0  0
  -21.2446   17.6574  -25.4583 C   0  0  0  0  0  0  0  0  0  0  0  0
  -20.5439   18.4622  -26.4994 C   0  0  0  0  0  0  0  0  0  0  0  0
  -18.4292   18.6255  -27.9347 C   0  0  0  0  0  0  0  0  0  0  0  0
  -21.2658   18.1636  -27.7995 C   0  0  0  0  0  0  0  0  0  0  0  0
  -22.6900   17.8273  -25.4033 C   0  0  0  0  0  0  0  0  0  0  0  0
  -22.6628   18.3836  -27.7661 O   0  0  0  0  0  0  0  0  0  0  0  0
  -25.5843   17.2568  -22.6691 Cl  0  0  0  0  0  0  0  0  0  0  0  0
  -20.0075   15.8457  -27.5029 C   0  0  0  0  0  0  0  0  0  0  0  0
  -24.8178   18.4267  -26.4161 C   0  0  0  0  0  0  0  0  0  0  0  0
  -19.0737   16.5396  -26.4326 C   0  0  0  0  0  0  0  0  0  0  0  0
  -23.4251   18.2390  -26.5070 C   0  0  0  0  0  0  0  0  0  0  0  0
  -17.5134   17.5035  -28.4938 C   0  0  0  0  0  0  0  0  0  0  0  0
  1 10  1  0
  1 15  1  0
  1 19  1  0
  2  3  1  0
  2  6  1  0
  2 10  1  0
  2 23  1  0
  4  9  1  0
  4 11  1  0
  4 16  1  0
  5  9  2  0
  5 20  1  0
  6 19  1  0
  7 13  1  0
  8 13  1  0
  8 14  1  0
  8 21  1  0
  9 18  1  0
 12 13  1  0
 12 16  1  0
 13 15  1  0
 14 23  1  0
 15 17  1  0
 16 22  2  0
 17 22  1  0
 19 21  1  0
 20 22  1  0
M  END
>  <ID>  (1) 
conformer_0

$$$$
