
     RDKit          3D

 16 17  0  0  0  0  0  0  0  0999 V2000
   -5.8108  -15.5143   -9.2151 C   0  0  0  0  0  0  0  0  0  0  0  0
   -6.7384  -15.6803   -8.5235 C   0  0  0  0  0  0  0  0  0  0  0  0
   -4.7360  -16.3777   -9.5883 C   0  0  0  0  0  0  0  0  0  0  0  0
   -5.0792  -17.6676   -9.8990 C   0  0  0  0  0  0  0  0  0  0  0  0
   -3.4400  -15.9702  -10.1334 O   0  0  0  0  0  0  0  0  0  0  0  0
   -2.4455  -16.6208   -9.6639 C   0  0  0  0  0  0  0  0  0  0  0  0
   -4.1525  -18.5705  -10.5192 O   0  0  0  0  0  0  0  0  0  0  0  0
   -3.6460  -18.1531  -11.7401 C   0  0  0  0  0  0  0  0  0  0  0  0
   -2.4327  -18.6318  -12.1174 C   0  0  0  0  0  0  0  0  0  0  0  0
   -2.1890  -16.8462   -8.3867 C   0  0  0  0  0  0  0  0  0  0  0  0
   -6.2792  -18.1876   -9.4250 C   0  0  0  0  0  0  0  0  0  0  0  0
   -4.1004  -16.9269  -12.4130 C   0  0  0  0  0  0  0  0  0  0  0  0
   -3.2978  -16.6590  -13.6323 C   0  0  0  0  0  0  0  0  0  0  0  0
   -2.2719  -17.3588  -13.9083 C   0  0  0  0  0  0  0  0  0  0  0  0
   -1.8100  -18.3672  -13.2094 C   0  0  0  0  0  0  0  0  0  0  0  0
   -7.2278  -17.2048   -8.7068 C   0  0  0  0  0  0  0  0  0  0  0  0
  1  2  2  0
  1  3  1  0
  3  4  2  0
  3  5  1  0
  5  6  1  0
  4  7  1  0
  7  8  1  0
  8  9  1  0
  6 10  2  0
  4 11  1  0
  8 12  2  0
 12 13  1  0
 13 14  2  0
  9 15  2  0
 14 15  1  0
  2 16  1  0
 11 16  2  0
M  END
>  <ID>  (1) 
conformer_0

$$$$
