
     RDKit          3D

 13 14  0  0  0  0  0  0  0  0999 V2000
   -4.8755  -15.7486   -9.2238 C   0  0  0  0  0  0  0  0  0  0  0  0
   -4.0027  -16.4903   -9.8200 C   0  0  0  0  0  0  0  0  0  0  0  0
   -4.2587  -17.4385  -10.6653 C   0  0  0  0  0  0  0  0  0  0  0  0
   -6.1865  -16.2780   -8.9295 C   0  0  0  0  0  0  0  0  0  0  0  0
   -5.6182  -18.0058  -10.5758 C   0  0  0  0  0  0  0  0  0  0  0  0
   -3.2274  -18.0861  -11.5548 C   0  0  0  0  0  0  0  0  0  0  0  0
   -6.5186  -17.4560   -9.6964 C   0  0  0  0  0  0  0  0  0  0  0  0
   -2.1766  -18.7563  -11.0818 C   0  0  0  0  0  0  0  0  0  0  0  0
   -1.2041  -19.2540  -11.9042 C   0  0  0  0  0  0  0  0  0  0  0  0
   -1.5444  -18.8259  -13.3290 C   0  0  0  0  0  0  0  0  0  0  0  0
   -3.0839  -17.8425  -12.9445 C   0  0  0  0  0  0  0  0  0  0  0  0
   -7.1129  -15.6037   -8.1653 F   0  0  0  0  0  0  0  0  0  0  0  0
   -3.7325  -17.1694  -13.9113 O   0  0  0  0  0  0  0  0  0  0  0  0
  1  2  1  0
  2  3  2  0
  1  4  2  0
  3  5  1  0
  3  6  1  0
  4  7  1  0
  5  7  2  0
  6  8  1  0
  8  9  2  0
  9 10  1  0
  6 11  1  0
 10 11  2  0
  4 12  1  0
 11 13  1  0
M  END
>  <ID>  (1) 
conformer_0

$$$$
