
     RDKit          3D

 15 17  0  0  0  0  0  0  0  0999 V2000
   -4.8755  -15.7486   -9.2238 C   0  0  0  0  0  0  0  0  0  0  0  0
   -6.0488  -16.2673   -8.6599 C   0  0  0  0  0  0  0  0  0  0  0  0
   -4.2375  -16.5826  -10.0857 C   0  0  0  0  0  0  0  0  0  0  0  0
   -4.7755  -17.8122  -10.4654 C   0  0  0  0  0  0  0  0  0  0  0  0
   -6.9184  -15.3966   -7.8078 F   0  0  0  0  0  0  0  0  0  0  0  0
   -3.0221  -16.1360  -10.6836 O   0  0  0  0  0  0  0  0  0  0  0  0
   -2.6155  -16.9736  -11.7584 C   0  0  0  0  0  0  0  0  0  0  0  0
   -6.5513  -17.4171   -9.0711 C   0  0  0  0  0  0  0  0  0  0  0  0
   -3.9477  -18.5733  -11.4725 C   0  0  0  0  0  0  0  0  0  0  0  0
   -1.7560  -16.3907  -12.6178 C   0  0  0  0  0  0  0  0  0  0  0  0
   -3.1250  -18.0674  -12.0887 C   0  0  0  0  0  0  0  0  0  0  0  0
   -2.6306  -18.8889  -13.1689 C   0  0  0  0  0  0  0  0  0  0  0  0
   -1.2610  -17.0844  -13.7093 C   0  0  0  0  0  0  0  0  0  0  0  0
   -1.6608  -18.1503  -14.0466 C   0  0  0  0  0  0  0  0  0  0  0  0
   -5.9159  -18.2044   -9.9009 C   0  0  0  0  0  0  0  0  0  0  0  0
  1  2  2  0
  1  3  1  0
  3  4  2  0
  2  5  1  0
  3  6  1  0
  6  7  1  0
  2  8  1  0
  4  9  1  0
  7 10  2  0
  7 11  1  0
  9 11  2  0
 11 12  1  0
 10 13  1  0
 12 14  2  0
 13 14  2  0
  4 15  1  0
  8 15  2  0
M  END
>  <ID>  (1) 
conformer_0

$$$$
