
     RDKit          3D

 12 12  0  0  0  0  0  0  0  0999 V2000
   -5.2692  -17.2253  -10.5644 C   0  0  0  0  0  0  0  0  0  0  0  0
   -5.4870  -16.6660   -9.5767 C   0  0  0  0  0  0  0  0  0  0  0  0
   -4.9745  -16.8217   -8.4749 C   0  0  0  0  0  0  0  0  0  0  0  0
   -4.1160  -17.9333  -10.8515 C   0  0  0  0  0  0  0  0  0  0  0  0
   -3.6792  -18.4155  -12.1375 C   0  0  0  0  0  0  0  0  0  0  0  0
   -3.1620  -17.8855   -9.8113 C   0  0  0  0  0  0  0  0  0  0  0  0
   -6.7790  -15.6705   -9.4195 C   0  0  0  0  0  0  0  0  0  0  0  0
   -7.5531  -15.8642   -8.5463 O   0  0  0  0  0  0  0  0  0  0  0  0
   -3.5544  -17.2241   -8.6169 C   0  0  0  0  0  0  0  0  0  0  0  0
   -2.5829  -17.7786  -12.8157 C   0  0  0  0  0  0  0  0  0  0  0  0
   -2.2938  -18.2153  -14.0913 O   0  0  0  0  0  0  0  0  0  0  0  0
   -1.5306  -17.3136  -12.3582 O   0  0  0  0  0  0  0  0  0  0  0  0
  1  2  2  0
  2  3  1  0
  1  4  1  0
  4  5  1  0
  4  6  2  0
  2  7  1  0
  7  8  2  0
  3  9  2  0
  6  9  1  0
  5 10  1  0
 10 11  1  0
 10 12  2  0
M  END
>  <ID>  (1) 
conformer_0

$$$$
