
     RDKit          3D

 16 18  0  0  0  0  0  0  0  0999 V2000
   -5.2692  -17.2253  -10.5644 C   0  0  0  0  0  0  0  0  0  0  0  0
   -5.4870  -16.6660   -9.5767 C   0  0  0  0  0  0  0  0  0  0  0  0
   -4.9745  -16.8217   -8.4749 C   0  0  0  0  0  0  0  0  0  0  0  0
   -4.1160  -17.9333  -10.8515 C   0  0  0  0  0  0  0  0  0  0  0  0
   -3.6792  -18.4155  -12.1375 C   0  0  0  0  0  0  0  0  0  0  0  0
   -3.1620  -17.8855   -9.8113 C   0  0  0  0  0  0  0  0  0  0  0  0
   -6.7790  -15.6705   -9.4195 C   0  0  0  0  0  0  0  0  0  0  0  0
   -2.5100  -18.3047  -12.7503 C   0  0  0  0  0  0  0  0  0  0  0  0
   -5.3140  -16.2123   -7.2436 C   0  0  0  0  0  0  0  0  0  0  0  0
   -7.2371  -15.4500   -8.1208 C   0  0  0  0  0  0  0  0  0  0  0  0
   -6.5009  -15.4600   -7.3221 C   0  0  0  0  0  0  0  0  0  0  0  0
   -2.3161  -18.4442  -14.0630 O   0  0  0  0  0  0  0  0  0  0  0  0
   -1.8500  -18.4595  -10.0320 C   0  0  0  0  0  0  0  0  0  0  0  0
   -3.5113  -17.0831   -8.6427 C   0  0  0  0  0  0  0  0  0  0  0  0
   -1.4352  -18.5530  -11.5688 C   0  0  0  0  0  0  0  0  0  0  0  0
   -0.9565  -18.2014  -14.3325 C   0  0  0  0  0  0  0  0  0  0  0  0
  1  2  2  0
  2  3  1  0
  1  4  1  0
  4  5  1  0
  4  6  2  0
  2  7  1  0
  5  8  2  0
  3  9  1  0
  7 10  1  0
  9 11  1  0
 10 11  1  0
  8 12  1  0
  6 13  1  0
  3 14  2  0
  6 14  1  0
  8 15  1  0
 13 15  2  0
 12 16  1  0
M  END
>  <ID>  (1) 
conformer_0

$$$$
