
     RDKit          3D

 15 17  0  0  0  0  0  0  0  0999 V2000
   -2.2534  -17.3639   -8.6204 C   0  0  0  0  0  0  0  0  0  0  0  0
   -3.3029  -17.0400   -9.4755 C   0  0  0  0  0  0  0  0  0  0  0  0
   -3.1260  -17.1769  -10.8019 C   0  0  0  0  0  0  0  0  0  0  0  0
   -1.1129  -17.8587   -9.1275 C   0  0  0  0  0  0  0  0  0  0  0  0
   -4.2608  -16.8048  -11.7196 C   0  0  0  0  0  0  0  0  0  0  0  0
   -4.5747  -16.5083   -8.9804 C   0  0  0  0  0  0  0  0  0  0  0  0
   -1.9603  -17.7963  -11.2728 C   0  0  0  0  0  0  0  0  0  0  0  0
   -5.4866  -15.9379   -9.7491 C   0  0  0  0  0  0  0  0  0  0  0  0
   -5.3425  -16.1607  -11.1025 C   0  0  0  0  0  0  0  0  0  0  0  0
   -4.1475  -16.9084  -12.9966 O   0  0  0  0  0  0  0  0  0  0  0  0
   -1.0344  -18.2018  -10.4342 C   0  0  0  0  0  0  0  0  0  0  0  0
   -2.9244  -17.2334  -13.6263 C   0  0  0  0  0  0  0  0  0  0  0  0
   -2.9457  -17.4848  -14.8968 O   0  0  0  0  0  0  0  0  0  0  0  0
   -6.8592  -15.3555   -9.0807 Cl  0  0  0  0  0  0  0  0  0  0  0  0
   -2.0242  -18.2031  -12.7671 C   0  0  0  0  0  0  0  0  0  0  0  0
  1  2  1  0
  2  3  2  0
  1  4  2  0
  3  5  1  0
  2  6  1  0
  3  7  1  0
  6  8  2  0
  5  9  2  0
  8  9  1  0
  5 10  1  0
  4 11  1  0
  7 11  2  0
 10 12  1  0
 12 13  1  0
  8 14  1  0
  7 15  1  0
 12 15  1  0
M  END
>  <ID>  (1) 
conformer_0

$$$$
