
     RDKit          3D

 13 14  0  0  0  0  0  0  0  0999 V2000
   -2.7581  -17.6248  -14.8518 O   0  0  0  0  0  0  0  0  0  0  0  0
   -2.7368  -17.5914  -13.6317 C   0  0  0  0  0  0  0  0  0  0  0  0
   -2.0547  -18.4060  -12.9593 C   0  0  0  0  0  0  0  0  0  0  0  0
   -3.6282  -16.6196  -13.0088 C   0  0  0  0  0  0  0  0  0  0  0  0
   -1.9856  -18.3696  -11.5174 C   0  0  0  0  0  0  0  0  0  0  0  0
   -3.6314  -16.5234  -11.7293 C   0  0  0  0  0  0  0  0  0  0  0  0
   -4.5092  -15.6568  -11.0434 O   0  0  0  0  0  0  0  0  0  0  0  0
   -2.9277  -17.3460  -11.0265 C   0  0  0  0  0  0  0  0  0  0  0  0
   -3.0493  -17.2489   -9.4847 C   0  0  0  0  0  0  0  0  0  0  0  0
   -4.6176  -15.8484   -9.7653 C   0  0  0  0  0  0  0  0  0  0  0  0
   -5.9894  -15.4510   -9.3255 C   0  0  0  0  0  0  0  0  0  0  0  0
   -3.9751  -16.6146   -8.9978 C   0  0  0  0  0  0  0  0  0  0  0  0
   -6.5144  -16.2688   -8.2738 C   0  0  0  0  0  0  0  0  0  0  0  0
  1  2  1  0
  2  3  2  0
  2  4  1  0
  3  5  1  0
  4  6  2  0
  6  7  1  0
  5  8  2  0
  6  8  1  0
  8  9  1  0
  7 10  1  0
 10 11  1  0
  9 12  2  0
 10 12  1  0
 11 13  1  0
M  END
>  <ID>  (1) 
conformer_0

$$$$
