
     RDKit          3D

 16 18  0  0  0  0  0  0  0  0999 V2000
   -2.2534  -17.3639   -8.6204 C   0  0  0  0  0  0  0  0  0  0  0  0
   -3.3029  -17.0400   -9.4755 C   0  0  0  0  0  0  0  0  0  0  0  0
   -3.1260  -17.1769  -10.8019 C   0  0  0  0  0  0  0  0  0  0  0  0
   -1.1129  -17.8587   -9.1275 C   0  0  0  0  0  0  0  0  0  0  0  0
   -4.2608  -16.8048  -11.7196 C   0  0  0  0  0  0  0  0  0  0  0  0
   -4.5747  -16.5083   -8.9804 C   0  0  0  0  0  0  0  0  0  0  0  0
   -1.9603  -17.7963  -11.2728 C   0  0  0  0  0  0  0  0  0  0  0  0
   -1.9009  -18.0581  -12.7656 C   0  0  0  0  0  0  0  0  0  0  0  0
   -2.8165  -17.6849  -13.6420 C   0  0  0  0  0  0  0  0  0  0  0  0
   -5.5416  -16.0052   -9.7583 C   0  0  0  0  0  0  0  0  0  0  0  0
   -5.1579  -16.0222  -11.2099 C   0  0  0  0  0  0  0  0  0  0  0  0
   -2.6437  -17.8009  -14.9544 O   0  0  0  0  0  0  0  0  0  0  0  0
   -3.9003  -16.9111  -13.1235 C   0  0  0  0  0  0  0  0  0  0  0  0
   -0.9817  -18.2187  -10.4574 C   0  0  0  0  0  0  0  0  0  0  0  0
   -6.7906  -15.5055   -9.3607 C   0  0  0  0  0  0  0  0  0  0  0  0
   -7.1854  -15.6796   -8.2348 O   0  0  0  0  0  0  0  0  0  0  0  0
  1  2  1  0
  2  3  2  0
  1  4  2  0
  3  5  1  0
  2  6  1  0
  3  7  1  0
  7  8  1  0
  8  9  2  0
  6 10  2  0
  5 11  1  0
 10 11  1  0
  9 12  1  0
  5 13  2  0
  9 13  1  0
  4 14  1  0
  7 14  2  0
 10 15  1  0
 15 16  2  0
M  END
>  <ID>  (1) 
conformer_0

$$$$
