
     RDKit          3D

 15 15  0  0  0  0  0  0  0  0999 V2000
   -2.2534  -17.3639   -8.6204 C   0  0  0  0  0  0  0  0  0  0  0  0
   -3.3029  -17.0400   -9.4755 C   0  0  0  0  0  0  0  0  0  0  0  0
   -3.1260  -17.1769  -10.8019 C   0  0  0  0  0  0  0  0  0  0  0  0
   -4.1924  -16.7702  -11.7553 C   0  0  0  0  0  0  0  0  0  0  0  0
   -2.0203  -17.9527  -11.2146 C   0  0  0  0  0  0  0  0  0  0  0  0
   -1.0336  -18.3217  -10.3828 C   0  0  0  0  0  0  0  0  0  0  0  0
   -4.4795  -16.2672   -8.9862 C   0  0  0  0  0  0  0  0  0  0  0  0
   -3.9291  -15.5418  -12.2304 O   0  0  0  0  0  0  0  0  0  0  0  0
   -1.1867  -18.0336   -9.0199 C   0  0  0  0  0  0  0  0  0  0  0  0
   -5.7173  -16.9190   -8.9804 C   0  0  0  0  0  0  0  0  0  0  0  0
   -1.9249  -18.3947  -12.6880 C   0  0  0  0  0  0  0  0  0  0  0  0
   -2.7456  -17.9898  -13.6168 O   0  0  0  0  0  0  0  0  0  0  0  0
   -0.9085  -19.0798  -13.0129 O   0  0  0  0  0  0  0  0  0  0  0  0
   -6.0318  -18.1593   -9.4543 C   0  0  0  0  0  0  0  0  0  0  0  0
   -6.9374  -15.9098   -8.4590 C   0  0  0  0  0  0  0  0  0  0  0  0
  1  2  1  0
  2  3  2  0
  3  4  1  0
  3  5  1  0
  5  6  2  0
  2  7  1  0
  4  8  1  0
  1  9  2  0
  6  9  1  0
  7 10  2  3
  5 11  1  0
 11 12  1  0
 11 13  2  0
 10 14  1  0
 10 15  1  0
M  END
>  <ID>  (1) 
conformer_0

$$$$
