
     RDKit          3D

 14 14  0  0  0  0  0  0  0  0999 V2000
   -6.6239  -16.0727   -8.5827 C   0  0  0  0  0  0  0  0  0  0  0  0
   -5.4492  -16.4566   -9.1436 C   0  0  0  0  0  0  0  0  0  0  0  0
   -6.7460  -14.6852   -8.4287 F   0  0  0  0  0  0  0  0  0  0  0  0
   -5.5507  -17.4949  -10.0642 C   0  0  0  0  0  0  0  0  0  0  0  0
   -7.7505  -16.4028   -9.0434 F   0  0  0  0  0  0  0  0  0  0  0  0
   -4.2550  -17.7445  -10.7354 C   0  0  0  0  0  0  0  0  0  0  0  0
   -3.1418  -17.0221  -10.3737 C   0  0  0  0  0  0  0  0  0  0  0  0
   -6.6184  -16.4785   -7.2995 F   0  0  0  0  0  0  0  0  0  0  0  0
   -1.9385  -17.4794  -11.1527 O   0  0  0  0  0  0  0  0  0  0  0  0
   -2.2877  -17.7189  -12.6227 C   0  0  0  0  0  0  0  0  0  0  0  0
   -1.5900  -18.0139  -13.6325 C   0  0  0  0  0  0  0  0  0  0  0  0
   -2.0291  -18.0416  -14.9187 C   0  0  0  0  0  0  0  0  0  0  0  0
   -3.2577  -16.0696   -9.4401 C   0  0  0  0  0  0  0  0  0  0  0  0
   -4.2410  -15.7691   -8.8239 C   0  0  0  0  0  0  0  0  0  0  0  0
  1  2  1  0
  1  3  1  0
  2  4  2  0
  1  5  1  0
  4  6  1  0
  6  7  2  0
  1  8  1  0
  7  9  1  0
  9 10  1  0
 10 11  2  3
 11 12  1  0
  7 13  1  0
  2 14  1  0
 13 14  2  0
M  END
>  <ID>  (1) 
conformer_0

$$$$
