
     RDKit          3D

 14 14  0  0  0  0  0  0  0  0999 V2000
   -2.8261  -17.6092  -14.7714 O   0  0  0  0  0  0  0  0  0  0  0  0
   -2.7031  -17.4701  -13.4994 C   0  0  0  0  0  0  0  0  0  0  0  0
   -3.8849  -17.1436  -12.7729 C   0  0  0  0  0  0  0  0  0  0  0  0
   -1.7618  -18.1476  -12.8350 C   0  0  0  0  0  0  0  0  0  0  0  0
   -1.7623  -18.2029  -11.4586 C   0  0  0  0  0  0  0  0  0  0  0  0
   -3.9137  -17.1780  -11.3837 C   0  0  0  0  0  0  0  0  0  0  0  0
   -5.1321  -16.7400  -10.6118 C   0  0  0  0  0  0  0  0  0  0  0  0
   -0.6140  -18.8283  -10.7338 C   0  0  0  0  0  0  0  0  0  0  0  0
   -5.4410  -17.4137   -9.3815 C   0  0  0  0  0  0  0  0  0  0  0  0
   -2.8759  -17.7718  -10.6817 C   0  0  0  0  0  0  0  0  0  0  0  0
   -0.7051  -19.1134   -9.4440 O   0  0  0  0  0  0  0  0  0  0  0  0
   -6.5387  -16.8679   -8.6735 C   0  0  0  0  0  0  0  0  0  0  0  0
    0.4322  -19.1099  -11.3104 O   0  0  0  0  0  0  0  0  0  0  0  0
   -6.7791  -15.5149   -9.0439 C   0  0  0  0  0  0  0  0  0  0  0  0
  1  2  1  0
  2  3  1  0
  2  4  2  0
  4  5  1  0
  3  6  2  0
  6  7  1  0
  5  8  1  0
  7  9  1  0
  5 10  2  0
  6 10  1  0
  8 11  1  0
  9 12  1  0
  8 13  2  0
 12 14  1  0
M  END
>  <ID>  (1) 
conformer_0

$$$$
