
     RDKit          3D

  9  8  0  0  0  0  0  0  0  0999 V2000
   -3.5889  -16.2094  -10.9247 C   0  0  0  0  0  0  0  0  0  0  0  0
   -4.2711  -16.2474   -9.8834 C   0  0  0  0  0  0  0  0  0  0  0  0
   -5.6203  -16.0085   -9.7087 C   0  0  0  0  0  0  0  0  0  0  0  0
   -2.7622  -17.2923  -11.2773 C   0  0  0  0  0  0  0  0  0  0  0  0
   -6.4249  -16.1305   -8.6925 C   0  0  0  0  0  0  0  0  0  0  0  0
   -2.5719  -17.5486  -12.7720 C   0  0  0  0  0  0  0  0  0  0  0  0
   -3.3107  -17.0023  -13.5949 O   0  0  0  0  0  0  0  0  0  0  0  0
   -1.4432  -18.0826  -13.2424 O   0  0  0  0  0  0  0  0  0  0  0  0
   -7.3518  -15.0678   -8.4402 C   0  0  0  0  0  0  0  0  0  0  0  0
  1  2  1  0
  2  3  2  3
  1  4  1  0
  3  5  1  0
  4  6  1  0
  6  7  2  0
  6  8  1  0
  5  9  1  0
M  END
>  <ID>  (1) 
conformer_0

$$$$
