
     RDKit          3D

 16 18  0  0  0  0  0  0  0  0999 V2000
   -2.2534  -17.3639   -8.6204 C   0  0  0  0  0  0  0  0  0  0  0  0
   -3.3029  -17.0400   -9.4755 C   0  0  0  0  0  0  0  0  0  0  0  0
   -3.1260  -17.1769  -10.8019 C   0  0  0  0  0  0  0  0  0  0  0  0
   -1.1129  -17.8587   -9.1275 C   0  0  0  0  0  0  0  0  0  0  0  0
   -4.2608  -16.8048  -11.7196 C   0  0  0  0  0  0  0  0  0  0  0  0
   -4.5747  -16.5083   -8.9804 C   0  0  0  0  0  0  0  0  0  0  0  0
   -3.8993  -16.8406  -13.1459 C   0  0  0  0  0  0  0  0  0  0  0  0
   -0.0541  -18.3512   -8.3005 O   0  0  0  0  0  0  0  0  0  0  0  0
   -5.4693  -15.8621   -9.7666 C   0  0  0  0  0  0  0  0  0  0  0  0
   -2.0645  -17.6858  -11.2122 C   0  0  0  0  0  0  0  0  0  0  0  0
   -1.9607  -17.9768  -12.7822 C   0  0  0  0  0  0  0  0  0  0  0  0
   -1.1184  -18.0628  -10.6431 C   0  0  0  0  0  0  0  0  0  0  0  0
   -2.8565  -17.6112  -13.5304 C   0  0  0  0  0  0  0  0  0  0  0  0
   -5.1493  -16.0222  -11.2294 C   0  0  0  0  0  0  0  0  0  0  0  0
   -2.6127  -17.8089  -14.7613 O   0  0  0  0  0  0  0  0  0  0  0  0
   -6.7787  -15.2861   -9.1758 Cl  0  0  0  0  0  0  0  0  0  0  0  0
  1  2  1  0
  2  3  2  0
  1  4  2  0
  3  5  1  0
  2  6  1  0
  5  7  1  0
  4  8  1  0
  6  9  2  0
  3 10  1  0
 10 11  1  0
  4 12  1  0
 10 12  2  0
  7 13  1  0
 11 13  1  0
  5 14  2  0
  9 14  1  0
 13 15  2  0
  9 16  1  0
M  END
>  <ID>  (1) 
conformer_0

$$$$
