
     RDKit          3D

 16 16  0  0  0  0  0  0  0  0999 V2000
   -3.5889  -16.2094  -10.9247 C   0  0  0  0  0  0  0  0  0  0  0  0
   -4.2711  -16.2474   -9.8834 C   0  0  0  0  0  0  0  0  0  0  0  0
   -3.7616  -16.6783   -8.7050 C   0  0  0  0  0  0  0  0  0  0  0  0
   -2.6312  -17.2561  -11.2075 C   0  0  0  0  0  0  0  0  0  0  0  0
   -5.4416  -15.3075   -9.7133 O   0  0  0  0  0  0  0  0  0  0  0  0
   -6.2935  -15.5990   -8.5821 C   0  0  0  0  0  0  0  0  0  0  0  0
   -2.1278  -17.4612  -12.5944 C   0  0  0  0  0  0  0  0  0  0  0  0
   -2.0942  -17.8351  -10.0776 C   0  0  0  0  0  0  0  0  0  0  0  0
   -1.1378  -18.1284  -12.8922 C   0  0  0  0  0  0  0  0  0  0  0  0
   -2.4451  -16.5049  -13.4808 O   0  0  0  0  0  0  0  0  0  0  0  0
   -2.6089  -17.6040   -8.8971 C   0  0  0  0  0  0  0  0  0  0  0  0
   -7.2161  -14.6305   -8.4751 F   0  0  0  0  0  0  0  0  0  0  0  0
   -0.7311  -18.2929  -14.1743 O   0  0  0  0  0  0  0  0  0  0  0  0
   -6.6511  -16.7336   -8.5158 F   0  0  0  0  0  0  0  0  0  0  0  0
   -0.7659  -19.1560  -12.0421 O   0  0  0  0  0  0  0  0  0  0  0  0
   -5.5259  -15.4422   -7.4335 F   0  0  0  0  0  0  0  0  0  0  0  0
  1  2  1  0
  2  3  2  0
  1  4  2  0
  2  5  1  0
  5  6  1  0
  4  7  1  0
  4  8  1  0
  7  9  1  0
  7 10  2  0
  3 11  1  0
  8 11  2  0
  6 12  1  0
  9 13  2  0
  6 14  1  0
  9 15  1  0
  6 16  1  0
M  END
>  <ID>  (1) 
conformer_0

$$$$
