
     RDKit          3D

 13 14  0  0  0  0  0  0  0  0999 V2000
   -2.7581  -17.6248  -14.8518 O   0  0  0  0  0  0  0  0  0  0  0  0
   -2.7368  -17.5914  -13.6317 C   0  0  0  0  0  0  0  0  0  0  0  0
   -3.7202  -16.7814  -12.9221 C   0  0  0  0  0  0  0  0  0  0  0  0
   -3.7701  -16.7858  -11.4976 C   0  0  0  0  0  0  0  0  0  0  0  0
   -2.8441  -17.5737  -10.8204 C   0  0  0  0  0  0  0  0  0  0  0  0
   -1.8660  -18.3995  -12.8601 C   0  0  0  0  0  0  0  0  0  0  0  0
   -1.9170  -18.3479  -11.4692 C   0  0  0  0  0  0  0  0  0  0  0  0
   -4.7518  -15.9860  -10.8463 C   0  0  0  0  0  0  0  0  0  0  0  0
   -2.8828  -17.5608   -9.3222 C   0  0  0  0  0  0  0  0  0  0  0  0
   -3.9578  -16.7146   -8.7582 C   0  0  0  0  0  0  0  0  0  0  0  0
   -4.8157  -15.9820   -9.4795 C   0  0  0  0  0  0  0  0  0  0  0  0
   -5.8221  -15.2229   -8.8324 C   0  0  0  0  0  0  0  0  0  0  0  0
   -7.0699  -15.7000   -8.6189 C   0  0  0  0  0  0  0  0  0  0  0  0
  1  2  1  0
  2  3  1  0
  3  4  2  0
  4  5  1  0
  2  6  2  0
  5  7  2  0
  6  7  1  0
  4  8  1  0
  5  9  1  0
  9 10  2  0
  8 11  2  0
 10 11  1  0
 11 12  1  0
 12 13  1  0
M  END
>  <ID>  (1) 
conformer_0

$$$$
