
     RDKit          3D

 12 12  0  0  0  0  0  0  0  0999 V2000
   -6.0729  -17.1014   -9.4694 C   0  0  0  0  0  0  0  0  0  0  0  0
   -6.8086  -16.1664   -8.8072 C   0  0  0  0  0  0  0  0  0  0  0  0
   -4.7652  -16.8740   -9.8020 C   0  0  0  0  0  0  0  0  0  0  0  0
   -4.1120  -15.7392   -9.4263 C   0  0  0  0  0  0  0  0  0  0  0  0
   -8.1339  -16.3645   -8.4688 F   0  0  0  0  0  0  0  0  0  0  0  0
   -6.1875  -15.0143   -8.3567 C   0  0  0  0  0  0  0  0  0  0  0  0
   -4.8220  -14.9783   -8.7121 C   0  0  0  0  0  0  0  0  0  0  0  0
   -4.1405  -17.8805  -10.6303 C   0  0  0  0  0  0  0  0  0  0  0  0
   -3.0799  -17.3890  -11.5644 C   0  0  0  0  0  0  0  0  0  0  0  0
   -2.6087  -18.2444  -12.5647 C   0  0  0  0  0  0  0  0  0  0  0  0
   -1.7630  -19.0798  -12.3346 O   0  0  0  0  0  0  0  0  0  0  0  0
   -2.9414  -17.9283  -13.8481 O   0  0  0  0  0  0  0  0  0  0  0  0
  1  2  2  0
  1  3  1  0
  3  4  2  0
  2  5  1  0
  2  6  1  0
  4  7  1  0
  6  7  2  0
  3  8  1  0
  8  9  1  0
  9 10  1  0
 10 11  1  0
 10 12  2  0
M  END
>  <ID>  (1) 
conformer_0

$$$$
