
     RDKit          3D

 14 15  0  0  0  0  0  0  0  0999 V2000
   -2.7581  -17.6248  -14.8518 O   0  0  0  0  0  0  0  0  0  0  0  0
   -2.1724  -17.8444  -13.7874 C   0  0  0  0  0  0  0  0  0  0  0  0
   -2.7979  -17.5904  -12.5659 C   0  0  0  0  0  0  0  0  0  0  0  0
   -2.2458  -18.1287  -11.4033 C   0  0  0  0  0  0  0  0  0  0  0  0
   -2.7739  -17.9321  -10.1504 C   0  0  0  0  0  0  0  0  0  0  0  0
   -3.8643  -17.1749   -9.9338 C   0  0  0  0  0  0  0  0  0  0  0  0
   -4.3910  -16.4550  -11.2604 C   0  0  0  0  0  0  0  0  0  0  0  0
   -5.5437  -15.6632  -11.0468 C   0  0  0  0  0  0  0  0  0  0  0  0
   -6.1655  -15.7030   -9.7691 C   0  0  0  0  0  0  0  0  0  0  0  0
   -4.4305  -16.9620   -8.7693 C   0  0  0  0  0  0  0  0  0  0  0  0
   -5.6671  -16.2000   -8.6847 C   0  0  0  0  0  0  0  0  0  0  0  0
   -3.9101  -16.6477  -12.5085 C   0  0  0  0  0  0  0  0  0  0  0  0
   -6.4982  -16.0062   -7.4792 C   0  0  0  0  0  0  0  0  0  0  0  0
   -0.8836  -18.0864  -13.9253 O   0  0  0  0  0  0  0  0  0  0  0  0
  1  2  2  0
  2  3  1  0
  3  4  2  0
  4  5  1  0
  5  6  2  0
  6  7  1  0
  7  8  1  0
  8  9  2  0
  6 10  1  0
  9 11  1  0
 10 11  2  0
  3 12  1  0
  7 12  2  0
 11 13  1  0
  2 14  1  0
M  END
>  <ID>  (1) 
conformer_0

$$$$
