
     RDKit          3D

 16 17  0  0  0  0  0  0  0  0999 V2000
   -2.2534  -17.3639   -8.6204 C   0  0  0  0  0  0  0  0  0  0  0  0
   -3.3029  -17.0400   -9.4755 C   0  0  0  0  0  0  0  0  0  0  0  0
   -3.1260  -17.1769  -10.8019 C   0  0  0  0  0  0  0  0  0  0  0  0
   -4.1924  -16.7702  -11.7553 C   0  0  0  0  0  0  0  0  0  0  0  0
   -2.0203  -17.9527  -11.2146 C   0  0  0  0  0  0  0  0  0  0  0  0
   -1.0336  -18.3217  -10.3828 C   0  0  0  0  0  0  0  0  0  0  0  0
   -4.4795  -16.2672   -8.9862 C   0  0  0  0  0  0  0  0  0  0  0  0
   -5.7305  -16.4300   -8.9707 C   0  0  0  0  0  0  0  0  0  0  0  0
   -6.3855  -17.7564   -9.4400 C   0  0  0  0  0  0  0  0  0  0  0  0
   -1.8729  -18.2881  -12.7296 C   0  0  0  0  0  0  0  0  0  0  0  0
   -0.7370  -18.7555  -13.0904 O   0  0  0  0  0  0  0  0  0  0  0  0
   -1.1903  -17.9309   -9.0703 C   0  0  0  0  0  0  0  0  0  0  0  0
   -6.6500  -15.4566   -8.4416 C   0  0  0  0  0  0  0  0  0  0  0  0
   -3.8773  -17.1877  -13.0466 C   0  0  0  0  0  0  0  0  0  0  0  0
   -2.7643  -17.7894  -13.5574 N   0  0  0  0  0  0  0  0  0  0  0  0
   -2.5457  -18.0958  -14.9366 C   0  0  0  0  0  0  0  0  0  0  0  0
  1  2  1  0
  2  3  2  0
  3  4  1  0
  3  5  1  0
  5  6  2  0
  2  7  1  0
  7  8  2  3
  8  9  1  0
  5 10  1  0
 10 11  2  0
  1 12  2  0
  6 12  1  0
  8 13  1  0
  4 14  2  0
 10 15  1  0
 14 15  1  0
 15 16  1  0
M  END
>  <ID>  (1) 
conformer_0

$$$$
