
     RDKit          3D

 12 12  0  0  0  0  0  0  0  0999 V2000
   -3.5889  -16.2094  -10.9247 C   0  0  0  0  0  0  0  0  0  0  0  0
   -4.2711  -16.2474   -9.8834 C   0  0  0  0  0  0  0  0  0  0  0  0
   -5.6203  -16.0085   -9.7087 C   0  0  0  0  0  0  0  0  0  0  0  0
   -6.2864  -16.0500   -8.4835 C   0  0  0  0  0  0  0  0  0  0  0  0
   -5.5659  -16.3584   -7.5295 C   0  0  0  0  0  0  0  0  0  0  0  0
   -3.6709  -16.4657   -8.4675 C   0  0  0  0  0  0  0  0  0  0  0  0
   -3.2471  -17.4489  -11.5551 C   0  0  0  0  0  0  0  0  0  0  0  0
   -2.7117  -17.4355  -12.8451 C   0  0  0  0  0  0  0  0  0  0  0  0
   -7.6356  -16.2003   -8.4964 O   0  0  0  0  0  0  0  0  0  0  0  0
   -4.3013  -16.5895   -7.4492 C   0  0  0  0  0  0  0  0  0  0  0  0
   -1.5005  -17.7377  -13.0240 O   0  0  0  0  0  0  0  0  0  0  0  0
   -3.3736  -17.2272  -13.8394 O   0  0  0  0  0  0  0  0  0  0  0  0
  1  2  1  0
  2  3  2  0
  3  4  1  0
  4  5  1  0
  2  6  1  0
  1  7  2  3
  7  8  1  0
  4  9  2  0
  5 10  2  0
  6 10  1  0
  8 11  1  0
  8 12  2  0
M  END
>  <ID>  (1) 
conformer_0

$$$$
