
     RDKit          3D

 15 16  0  0  0  0  0  0  0  0999 V2000
   -6.0729  -17.1014   -9.4694 C   0  0  0  0  0  0  0  0  0  0  0  0
   -6.8086  -16.1664   -8.8072 C   0  0  0  0  0  0  0  0  0  0  0  0
   -4.8782  -16.7468   -9.8448 C   0  0  0  0  0  0  0  0  0  0  0  0
   -4.0066  -17.6439  -10.6235 C   0  0  0  0  0  0  0  0  0  0  0  0
   -2.7181  -17.8852  -10.3426 C   0  0  0  0  0  0  0  0  0  0  0  0
   -4.3740  -15.5609   -9.5082 C   0  0  0  0  0  0  0  0  0  0  0  0
   -4.1386  -17.4785  -12.0611 C   0  0  0  0  0  0  0  0  0  0  0  0
   -1.7288  -18.4457  -11.1454 C   0  0  0  0  0  0  0  0  0  0  0  0
   -0.4196  -18.8601  -10.6068 C   0  0  0  0  0  0  0  0  0  0  0  0
   -3.2679  -18.0563  -12.9612 C   0  0  0  0  0  0  0  0  0  0  0  0
   -8.1563  -16.6261   -8.3600 F   0  0  0  0  0  0  0  0  0  0  0  0
   -6.3128  -15.0088   -8.3758 C   0  0  0  0  0  0  0  0  0  0  0  0
   -1.9923  -18.4807  -12.5621 C   0  0  0  0  0  0  0  0  0  0  0  0
   -5.0739  -14.7355   -8.7498 C   0  0  0  0  0  0  0  0  0  0  0  0
   -1.3178  -19.2534  -13.3607 O   0  0  0  0  0  0  0  0  0  0  0  0
  1  2  2  0
  1  3  1  0
  3  4  1  0
  4  5  1  0
  3  6  2  0
  4  7  1  0
  5  8  2  0
  8  9  1  0
  7 10  2  0
  2 11  1  0
  2 12  1  0
  8 13  1  0
 10 13  1  0
  6 14  1  0
 12 14  2  0
 13 15  2  0
M  END
>  <ID>  (1) 
conformer_0

$$$$
