
     RDKit          3D

 13 14  0  0  0  0  0  0  0  0999 V2000
   -3.5889  -16.2094  -10.9247 C   0  0  0  0  0  0  0  0  0  0  0  0
   -4.2711  -16.2474   -9.8834 C   0  0  0  0  0  0  0  0  0  0  0  0
   -3.5343  -16.8503  -11.9929 C   0  0  0  0  0  0  0  0  0  0  0  0
   -4.3169  -18.1208  -11.9951 C   0  0  0  0  0  0  0  0  0  0  0  0
   -5.0931  -18.3195  -10.8705 C   0  0  0  0  0  0  0  0  0  0  0  0
   -2.7255  -16.7004  -13.1881 C   0  0  0  0  0  0  0  0  0  0  0  0
   -5.1124  -17.3795   -9.7977 C   0  0  0  0  0  0  0  0  0  0  0  0
   -2.4340  -17.4487  -14.0517 C   0  0  0  0  0  0  0  0  0  0  0  0
   -4.3028  -15.6021   -8.7414 O   0  0  0  0  0  0  0  0  0  0  0  0
   -5.4895  -15.8839   -8.1158 C   0  0  0  0  0  0  0  0  0  0  0  0
   -6.0603  -17.4101   -8.6854 C   0  0  0  0  0  0  0  0  0  0  0  0
   -6.7240  -14.9796   -8.5432 C   0  0  0  0  0  0  0  0  0  0  0  0
   -1.7408  -17.2622  -15.0533 C   0  0  0  0  0  0  0  0  0  0  0  0
  1  2  2  0
  1  3  1  0
  3  4  2  0
  4  5  1  0
  3  6  1  0
  2  7  1  0
  5  7  2  0
  6  8  2  3
  2  9  1  0
  9 10  1  0
  7 11  1  0
 10 11  1  0
 10 12  1  0
  8 13  1  0
M  END
>  <ID>  (1) 
conformer_0

$$$$
