
     RDKit          3D

 12 12  0  0  0  0  0  0  0  0999 V2000
   -5.2692  -17.2253  -10.5644 C   0  0  0  0  0  0  0  0  0  0  0  0
   -5.4870  -16.6660   -9.5767 C   0  0  0  0  0  0  0  0  0  0  0  0
   -4.1868  -17.2163  -11.2445 C   0  0  0  0  0  0  0  0  0  0  0  0
   -3.0984  -16.5034  -10.7235 C   0  0  0  0  0  0  0  0  0  0  0  0
   -4.5467  -15.8840   -8.9364 C   0  0  0  0  0  0  0  0  0  0  0  0
   -3.8023  -17.6736  -12.4462 O   0  0  0  0  0  0  0  0  0  0  0  0
   -6.8989  -16.5778   -8.8368 C   0  0  0  0  0  0  0  0  0  0  0  0
   -3.3443  -15.8512   -9.5084 C   0  0  0  0  0  0  0  0  0  0  0  0
   -7.3544  -15.2290   -8.4941 C   0  0  0  0  0  0  0  0  0  0  0  0
   -2.7869  -17.3441  -13.1061 C   0  0  0  0  0  0  0  0  0  0  0  0
   -1.6619  -17.4312  -12.6542 O   0  0  0  0  0  0  0  0  0  0  0  0
   -2.9595  -17.3523  -14.5381 C   0  0  0  0  0  0  0  0  0  0  0  0
  1  2  2  0
  1  3  1  0
  3  4  2  0
  2  5  1  0
  3  6  1  0
  2  7  1  0
  4  8  1  0
  5  8  2  0
  7  9  1  0
  6 10  1  0
 10 11  2  0
 10 12  1  0
M  END
>  <ID>  (1) 
conformer_0

$$$$
