
     RDKit          3D

 14 15  0  0  0  0  0  0  0  0999 V2000
   -2.7581  -17.6248  -14.8518 O   0  0  0  0  0  0  0  0  0  0  0  0
   -2.1724  -17.8444  -13.7874 C   0  0  0  0  0  0  0  0  0  0  0  0
   -2.7979  -17.5904  -12.5659 C   0  0  0  0  0  0  0  0  0  0  0  0
   -2.2458  -18.1287  -11.4033 C   0  0  0  0  0  0  0  0  0  0  0  0
   -3.7824  -16.5929  -12.3088 C   0  0  0  0  0  0  0  0  0  0  0  0
   -2.6641  -17.9009  -10.1298 C   0  0  0  0  0  0  0  0  0  0  0  0
   -0.9360  -18.1112  -13.9154 O   0  0  0  0  0  0  0  0  0  0  0  0
   -3.6943  -17.0507   -9.8923 C   0  0  0  0  0  0  0  0  0  0  0  0
   -4.3024  -16.7908   -8.5982 C   0  0  0  0  0  0  0  0  0  0  0  0
   -5.5351  -16.0580   -8.6433 C   0  0  0  0  0  0  0  0  0  0  0  0
   -5.9417  -15.4943   -9.8122 C   0  0  0  0  0  0  0  0  0  0  0  0
   -4.3785  -16.3996  -11.0122 C   0  0  0  0  0  0  0  0  0  0  0  0
   -5.4073  -15.6960  -10.9807 C   0  0  0  0  0  0  0  0  0  0  0  0
   -6.4667  -15.9946   -7.5572 F   0  0  0  0  0  0  0  0  0  0  0  0
  1  2  2  0
  2  3  1  0
  3  4  2  0
  3  5  1  0
  4  6  1  0
  2  7  1  0
  6  8  2  0
  8  9  1  0
  9 10  2  0
 10 11  1  0
  5 12  2  0
  8 12  1  0
 11 13  2  0
 12 13  1  0
 10 14  1  0
M  END
>  <ID>  (1) 
conformer_0

$$$$
