
     RDKit          3D

 16 18  0  0  0  0  0  0  0  0999 V2000
   -2.2534  -17.3639   -8.6204 C   0  0  0  0  0  0  0  0  0  0  0  0
   -3.3029  -17.0400   -9.4755 C   0  0  0  0  0  0  0  0  0  0  0  0
   -3.1260  -17.1769  -10.8019 C   0  0  0  0  0  0  0  0  0  0  0  0
   -1.1129  -17.8587   -9.1275 C   0  0  0  0  0  0  0  0  0  0  0  0
   -4.2608  -16.8048  -11.7196 C   0  0  0  0  0  0  0  0  0  0  0  0
   -4.5747  -16.5083   -8.9804 C   0  0  0  0  0  0  0  0  0  0  0  0
   -1.9603  -17.7963  -11.2728 C   0  0  0  0  0  0  0  0  0  0  0  0
   -1.9009  -18.0581  -12.7656 C   0  0  0  0  0  0  0  0  0  0  0  0
   -2.8165  -17.6849  -13.6420 C   0  0  0  0  0  0  0  0  0  0  0  0
   -5.5416  -16.0052   -9.7583 C   0  0  0  0  0  0  0  0  0  0  0  0
   -1.1432  -18.0961  -10.3684 C   0  0  0  0  0  0  0  0  0  0  0  0
   -5.3178  -16.1947  -11.2121 C   0  0  0  0  0  0  0  0  0  0  0  0
   -6.8769  -15.4466   -9.1809 Cl  0  0  0  0  0  0  0  0  0  0  0  0
   -3.9335  -16.9359  -13.1142 C   0  0  0  0  0  0  0  0  0  0  0  0
   -0.8250  -18.7459  -13.2578 O   0  0  0  0  0  0  0  0  0  0  0  0
   -2.5360  -17.8099  -14.9779 O   0  0  0  0  0  0  0  0  0  0  0  0
  1  2  1  0
  2  3  2  0
  1  4  2  0
  3  5  1  0
  2  6  1  0
  3  7  1  0
  7  8  1  0
  8  9  2  0
  6 10  2  0
  4 11  1  0
  7 11  2  0
  5 12  2  0
 10 12  1  0
 10 13  1  0
  5 14  1  0
  9 14  1  0
  8 15  1  0
  9 16  1  0
M  END
>  <ID>  (1) 
conformer_0

$$$$
