
     RDKit          3D

 13 14  0  0  0  0  0  0  0  0999 V2000
   -6.0729  -17.1014   -9.4694 C   0  0  0  0  0  0  0  0  0  0  0  0
   -6.8086  -16.1664   -8.8072 C   0  0  0  0  0  0  0  0  0  0  0  0
   -4.8782  -16.7468   -9.8448 C   0  0  0  0  0  0  0  0  0  0  0  0
   -4.3702  -15.5087   -9.4670 C   0  0  0  0  0  0  0  0  0  0  0  0
   -3.0091  -15.2560   -9.8811 O   0  0  0  0  0  0  0  0  0  0  0  0
   -4.0289  -17.6458  -10.5165 C   0  0  0  0  0  0  0  0  0  0  0  0
   -3.5022  -17.8025  -11.5722 C   0  0  0  0  0  0  0  0  0  0  0  0
   -6.3400  -14.9541   -8.3496 C   0  0  0  0  0  0  0  0  0  0  0  0
   -2.6549  -18.7687  -12.0752 C   0  0  0  0  0  0  0  0  0  0  0  0
   -5.0441  -14.6712   -8.7577 C   0  0  0  0  0  0  0  0  0  0  0  0
   -2.0202  -18.5656  -13.3301 N   0  0  0  0  0  0  0  0  0  0  0  0
   -3.6544  -16.7610  -12.6527 C   0  0  0  0  0  0  0  0  0  0  0  0
   -2.7447  -17.3465  -13.7373 C   0  0  0  0  0  0  0  0  0  0  0  0
  1  2  2  0
  1  3  1  0
  3  4  2  0
  4  5  1  0
  3  6  1  0
  6  7  2  3
  2  8  1  0
  7  9  1  0
  4 10  1  0
  8 10  2  0
  9 11  2  0
  7 12  1  0
 11 13  1  0
 12 13  2  0
M  END
>  <ID>  (1) 
conformer_0

$$$$
