
     RDKit          3D

 15 16  0  0  0  0  0  0  0  0999 V2000
   -2.5844  -17.5128  -15.1546 O   0  0  0  0  0  0  0  0  0  0  0  0
   -2.6926  -17.6441  -13.9363 C   0  0  0  0  0  0  0  0  0  0  0  0
   -3.5665  -16.9856  -13.1813 C   0  0  0  0  0  0  0  0  0  0  0  0
   -3.4237  -16.8871  -11.9648 C   0  0  0  0  0  0  0  0  0  0  0  0
   -4.4904  -16.2093  -11.1237 C   0  0  0  0  0  0  0  0  0  0  0  0
   -1.4556  -18.1908  -13.4251 C   0  0  0  0  0  0  0  0  0  0  0  0
   -2.3980  -17.5553  -11.2199 C   0  0  0  0  0  0  0  0  0  0  0  0
   -4.6350  -16.5182   -9.7834 C   0  0  0  0  0  0  0  0  0  0  0  0
   -2.4043  -17.5844   -9.7734 C   0  0  0  0  0  0  0  0  0  0  0  0
   -1.4495  -18.1713  -11.9690 C   0  0  0  0  0  0  0  0  0  0  0  0
   -1.2578  -17.8118   -9.1086 O   0  0  0  0  0  0  0  0  0  0  0  0
   -3.4199  -16.8549   -9.0662 C   0  0  0  0  0  0  0  0  0  0  0  0
   -5.9173  -16.3378   -9.1425 C   0  0  0  0  0  0  0  0  0  0  0  0
   -6.6179  -17.0720   -8.8376 O   0  0  0  0  0  0  0  0  0  0  0  0
   -6.3187  -14.9474   -8.9138 O   0  0  0  0  0  0  0  0  0  0  0  0
  1  2  1  0
  2  3  1  0
  3  4  2  0
  4  5  1  0
  2  6  2  0
  4  7  1  0
  5  8  1  0
  7  9  1  0
  6 10  1  0
  7 10  2  0
  9 11  2  0
  8 12  2  0
  9 12  1  0
  8 13  1  0
 13 14  2  0
 13 15  1  0
M  END
>  <ID>  (1) 
conformer_0

$$$$
