
     RDKit          3D

 15 16  0  0  0  0  0  0  0  0999 V2000
   -2.5946  -17.9302  -14.8376 O   0  0  0  0  0  0  0  0  0  0  0  0
   -2.0960  -17.9939  -13.7848 C   0  0  0  0  0  0  0  0  0  0  0  0
   -2.6864  -17.7232  -12.5956 C   0  0  0  0  0  0  0  0  0  0  0  0
   -3.6318  -16.7304  -12.3287 C   0  0  0  0  0  0  0  0  0  0  0  0
   -4.2127  -16.4938  -11.0639 C   0  0  0  0  0  0  0  0  0  0  0  0
   -4.9864  -15.4686  -10.7983 C   0  0  0  0  0  0  0  0  0  0  0  0
   -3.6425  -17.3302  -10.1182 C   0  0  0  0  0  0  0  0  0  0  0  0
   -4.2494  -17.0650   -8.7735 C   0  0  0  0  0  0  0  0  0  0  0  0
   -2.4701  -18.1208  -10.4184 C   0  0  0  0  0  0  0  0  0  0  0  0
   -1.8997  -18.9086   -9.2576 C   0  0  0  0  0  0  0  0  0  0  0  0
   -2.0887  -18.3664  -11.5898 C   0  0  0  0  0  0  0  0  0  0  0  0
   -0.8347  -18.4273  -13.8948 O   0  0  0  0  0  0  0  0  0  0  0  0
   -5.2906  -16.4203   -8.8533 C   0  0  0  0  0  0  0  0  0  0  0  0
   -5.5496  -15.3244   -9.6441 C   0  0  0  0  0  0  0  0  0  0  0  0
   -6.3148  -16.8245   -8.0644 O   0  0  0  0  0  0  0  0  0  0  0  0
  1  2  2  0
  2  3  1  0
  3  4  2  0
  4  5  1  0
  5  6  1  0
  5  7  2  0
  7  8  1  0
  7  9  1  0
  9 10  1  0
  3 11  1  0
  9 11  2  0
  2 12  1  0
  8 13  1  0
  6 14  1  0
 13 14  1  0
 13 15  2  0
M  END
>  <ID>  (1) 
conformer_0

$$$$
