
     RDKit          3D

 14 14  0  0  0  0  0  0  0  0999 V2000
   -4.8755  -15.7486   -9.2238 C   0  0  0  0  0  0  0  0  0  0  0  0
   -4.0027  -16.4903   -9.8200 C   0  0  0  0  0  0  0  0  0  0  0  0
   -4.2587  -17.4385  -10.6653 C   0  0  0  0  0  0  0  0  0  0  0  0
   -3.2660  -18.2435  -11.3854 C   0  0  0  0  0  0  0  0  0  0  0  0
   -2.9353  -17.9577  -12.6806 C   0  0  0  0  0  0  0  0  0  0  0  0
   -2.0524  -18.1810  -10.5127 C   0  0  0  0  0  0  0  0  0  0  0  0
   -6.1145  -16.2888   -8.6765 C   0  0  0  0  0  0  0  0  0  0  0  0
   -3.2380  -16.8778  -13.3582 O   0  0  0  0  0  0  0  0  0  0  0  0
   -2.1400  -17.4189   -9.4779 C   0  0  0  0  0  0  0  0  0  0  0  0
   -7.0487  -15.5128   -8.7881 F   0  0  0  0  0  0  0  0  0  0  0  0
   -2.3263  -18.8560  -13.4646 O   0  0  0  0  0  0  0  0  0  0  0  0
   -6.0220  -16.6065   -7.4108 F   0  0  0  0  0  0  0  0  0  0  0  0
   -6.4706  -17.3978   -9.3287 F   0  0  0  0  0  0  0  0  0  0  0  0
   -2.7163  -16.7203   -9.0303 C   0  0  0  0  0  0  0  0  0  0  0  0
  1  2  1  0
  2  3  2  0
  3  4  1  0
  4  5  1  0
  4  6  1  0
  1  7  1  0
  5  8  2  0
  6  9  1  0
  7 10  1  0
  5 11  1  0
  7 12  1  0
  7 13  1  0
  2 14  1  0
  9 14  2  0
M  END
>  <ID>  (1) 
conformer_0

$$$$
