
     RDKit          3D

 15 16  0  0  0  0  0  0  0  0999 V2000
   -6.0729  -17.1014   -9.4694 C   0  0  0  0  0  0  0  0  0  0  0  0
   -5.0659  -16.7480   -9.8064 C   0  0  0  0  0  0  0  0  0  0  0  0
   -6.9909  -16.3182   -8.5783 C   0  0  0  0  0  0  0  0  0  0  0  0
   -6.9130  -15.0844   -8.6327 C   0  0  0  0  0  0  0  0  0  0  0  0
   -4.1338  -17.4407  -10.5903 C   0  0  0  0  0  0  0  0  0  0  0  0
   -2.9464  -17.8232  -10.0185 C   0  0  0  0  0  0  0  0  0  0  0  0
   -4.1706  -17.4663  -11.9494 C   0  0  0  0  0  0  0  0  0  0  0  0
   -2.7723  -17.7002   -8.5311 O   0  0  0  0  0  0  0  0  0  0  0  0
   -3.1580  -17.9530  -12.7170 C   0  0  0  0  0  0  0  0  0  0  0  0
   -4.9591  -15.3187   -9.4074 C   0  0  0  0  0  0  0  0  0  0  0  0
   -3.2460  -18.0162  -14.1438 O   0  0  0  0  0  0  0  0  0  0  0  0
   -1.9495  -18.3001  -12.0473 C   0  0  0  0  0  0  0  0  0  0  0  0
   -5.7598  -14.5997   -8.9310 C   0  0  0  0  0  0  0  0  0  0  0  0
   -1.8424  -18.2647  -10.7669 C   0  0  0  0  0  0  0  0  0  0  0  0
   -0.9712  -18.8298  -12.9614 O   0  0  0  0  0  0  0  0  0  0  0  0
  1  2  2  0
  1  3  1  0
  3  4  2  0
  2  5  1  0
  5  6  2  0
  5  7  1  0
  6  8  1  0
  7  9  2  0
  2 10  1  0
  9 11  1  0
  9 12  1  0
  4 13  1  0
 10 13  2  0
  6 14  1  0
 12 14  2  0
 12 15  1  0
M  END
>  <ID>  (1) 
conformer_0

$$$$
