
     RDKit          3D

 12 12  0  0  0  0  0  0  0  0999 V2000
   -5.2692  -17.2253  -10.5644 C   0  0  0  0  0  0  0  0  0  0  0  0
   -5.4870  -16.6660   -9.5767 C   0  0  0  0  0  0  0  0  0  0  0  0
   -4.1006  -17.5211  -11.1117 C   0  0  0  0  0  0  0  0  0  0  0  0
   -3.8040  -18.0316  -12.4260 C   0  0  0  0  0  0  0  0  0  0  0  0
   -4.3146  -16.2422   -8.8252 C   0  0  0  0  0  0  0  0  0  0  0  0
   -3.1435  -16.4399   -9.2200 C   0  0  0  0  0  0  0  0  0  0  0  0
   -6.8305  -16.0920   -9.0061 C   0  0  0  0  0  0  0  0  0  0  0  0
   -2.7283  -17.4282  -13.2433 C   0  0  0  0  0  0  0  0  0  0  0  0
   -2.3258  -16.4351  -13.1630 O   0  0  0  0  0  0  0  0  0  0  0  0
   -2.5576  -18.1304  -14.3859 O   0  0  0  0  0  0  0  0  0  0  0  0
   -7.0177  -14.8013   -8.4613 C   0  0  0  0  0  0  0  0  0  0  0  0
   -2.9368  -17.0894  -10.3996 C   0  0  0  0  0  0  0  0  0  0  0  0
  1  2  2  0
  1  3  1  0
  3  4  1  0
  2  5  1  0
  5  6  2  0
  2  7  1  0
  4  8  1  0
  8  9  1  0
  8 10  2  0
  7 11  1  0
  3 12  2  0
  6 12  1  0
M  END
>  <ID>  (1) 
conformer_0

$$$$
