
     RDKit          3D

 12 12  0  0  0  0  0  0  0  0999 V2000
   -2.5946  -17.9302  -14.8376 O   0  0  0  0  0  0  0  0  0  0  0  0
   -2.0960  -17.9939  -13.7848 C   0  0  0  0  0  0  0  0  0  0  0  0
   -0.7808  -18.1055  -13.8601 O   0  0  0  0  0  0  0  0  0  0  0  0
   -2.8223  -17.3999  -12.6269 C   0  0  0  0  0  0  0  0  0  0  0  0
   -3.0497  -18.2886  -11.6187 C   0  0  0  0  0  0  0  0  0  0  0  0
   -3.7123  -17.7257  -10.4357 C   0  0  0  0  0  0  0  0  0  0  0  0
   -4.2696  -16.4384  -10.4048 C   0  0  0  0  0  0  0  0  0  0  0  0
   -3.3528  -16.1281  -12.6497 C   0  0  0  0  0  0  0  0  0  0  0  0
   -5.0542  -15.9924   -9.2941 C   0  0  0  0  0  0  0  0  0  0  0  0
   -4.0294  -15.6538  -11.5552 C   0  0  0  0  0  0  0  0  0  0  0  0
   -6.4026  -15.6885   -9.6272 C   0  0  0  0  0  0  0  0  0  0  0  0
   -7.3077  -15.3442   -8.5238 C   0  0  0  0  0  0  0  0  0  0  0  0
  1  2  2  0
  2  3  1  0
  2  4  1  0
  4  5  1  0
  5  6  2  0
  6  7  1  0
  4  8  2  0
  7  9  1  0
  7 10  2  0
  8 10  1  0
  9 11  1  0
 11 12  1  0
M  END
>  <ID>  (1) 
conformer_0

$$$$
