
     RDKit          3D

 16 17  0  0  0  0  0  0  0  0999 V2000
   -6.0729  -17.1014   -9.4694 C   0  0  0  0  0  0  0  0  0  0  0  0
   -6.8086  -16.1664   -8.8072 C   0  0  0  0  0  0  0  0  0  0  0  0
   -4.8782  -16.7468   -9.8448 C   0  0  0  0  0  0  0  0  0  0  0  0
   -4.0066  -17.6439  -10.6235 C   0  0  0  0  0  0  0  0  0  0  0  0
   -2.7181  -17.8852  -10.3426 C   0  0  0  0  0  0  0  0  0  0  0  0
   -4.3740  -15.5609   -9.5082 C   0  0  0  0  0  0  0  0  0  0  0  0
   -4.1386  -17.4785  -12.0611 C   0  0  0  0  0  0  0  0  0  0  0  0
   -1.7288  -18.4457  -11.1454 C   0  0  0  0  0  0  0  0  0  0  0  0
   -0.4196  -18.8601  -10.6068 C   0  0  0  0  0  0  0  0  0  0  0  0
   -1.9993  -18.4403  -12.6096 C   0  0  0  0  0  0  0  0  0  0  0  0
   -3.1077  -17.6924  -13.0004 C   0  0  0  0  0  0  0  0  0  0  0  0
   -3.2371  -17.5259  -14.4175 O   0  0  0  0  0  0  0  0  0  0  0  0
   -3.0799  -15.0640   -9.8782 O   0  0  0  0  0  0  0  0  0  0  0  0
   -5.9572  -14.8874   -8.5201 S   0  0  0  0  0  0  0  0  0  0  0  0
   -0.1513  -18.7504   -9.3801 O   0  0  0  0  0  0  0  0  0  0  0  0
    0.3455  -19.5632  -11.3779 O   0  0  0  0  0  0  0  0  0  0  0  0
  1  2  2  0
  1  3  1  0
  3  4  1  0
  4  5  1  0
  3  6  2  0
  4  7  1  0
  5  8  2  0
  8  9  1  0
  8 10  1  0
  7 11  2  0
 10 11  1  0
 11 12  1  0
  6 13  1  0
  2 14  1  0
  6 14  1  0
  9 15  2  0
  9 16  1  0
M  END
>  <ID>  (1) 
conformer_0

$$$$
