
     RDKit          3D

 16 18  0  0  0  0  0  0  0  0999 V2000
   -2.2534  -17.3639   -8.6204 C   0  0  0  0  0  0  0  0  0  0  0  0
   -3.3029  -17.0400   -9.4755 C   0  0  0  0  0  0  0  0  0  0  0  0
   -3.1260  -17.1769  -10.8019 C   0  0  0  0  0  0  0  0  0  0  0  0
   -4.1924  -16.7702  -11.7553 C   0  0  0  0  0  0  0  0  0  0  0  0
   -2.0203  -17.9527  -11.2146 C   0  0  0  0  0  0  0  0  0  0  0  0
   -3.5971  -16.1384  -12.9094 C   0  0  0  0  0  0  0  0  0  0  0  0
   -1.1906  -17.9866   -9.0403 C   0  0  0  0  0  0  0  0  0  0  0  0
   -4.8648  -15.8105  -10.9795 C   0  0  0  0  0  0  0  0  0  0  0  0
   -1.0487  -18.3548  -10.3563 C   0  0  0  0  0  0  0  0  0  0  0  0
   -3.0020  -17.1806  -13.8827 C   0  0  0  0  0  0  0  0  0  0  0  0
   -4.5215  -16.2298   -9.1214 C   0  0  0  0  0  0  0  0  0  0  0  0
   -3.3519  -17.4794  -14.9579 O   0  0  0  0  0  0  0  0  0  0  0  0
   -5.5477  -17.1430   -8.6878 C   0  0  0  0  0  0  0  0  0  0  0  0
   -6.8777  -16.4117   -8.9991 C   0  0  0  0  0  0  0  0  0  0  0  0
   -1.8240  -18.4295  -12.6872 C   0  0  0  0  0  0  0  0  0  0  0  0
   -7.0048  -15.0250   -8.4313 C   0  0  0  0  0  0  0  0  0  0  0  0
  1  2  1  0
  2  3  2  0
  3  4  1  0
  3  5  1  0
  4  6  1  0
  1  7  2  0
  4  8  1  0
  5  9  2  0
  7  9  1  0
  6 10  1  0
  2 11  1  0
  8 11  1  0
 10 12  2  0
 11 13  1  0
 13 14  1  0
  5 15  1  0
 10 15  1  0
 14 16  1  0
M  END
>  <ID>  (1) 
conformer_0

$$$$
