
     RDKit          3D

 14 15  0  0  0  0  0  0  0  0999 V2000
   -4.8755  -15.7486   -9.2238 C   0  0  0  0  0  0  0  0  0  0  0  0
   -4.0027  -16.4903   -9.8200 C   0  0  0  0  0  0  0  0  0  0  0  0
   -4.2719  -17.6140  -10.4321 C   0  0  0  0  0  0  0  0  0  0  0  0
   -5.5157  -18.1255  -10.3546 C   0  0  0  0  0  0  0  0  0  0  0  0
   -6.5350  -17.4457   -9.7122 C   0  0  0  0  0  0  0  0  0  0  0  0
   -3.2276  -18.4050  -11.0144 C   0  0  0  0  0  0  0  0  0  0  0  0
   -6.2602  -16.2259   -8.9990 C   0  0  0  0  0  0  0  0  0  0  0  0
   -2.1120  -18.7089  -10.4063 C   0  0  0  0  0  0  0  0  0  0  0  0
   -7.2475  -15.4662   -8.1411 C   0  0  0  0  0  0  0  0  0  0  0  0
   -1.7786  -18.4375   -9.1504 C   0  0  0  0  0  0  0  0  0  0  0  0
   -1.0541  -19.3056  -11.2235 C   0  0  0  0  0  0  0  0  0  0  0  0
   -3.3791  -18.4870  -12.4420 C   0  0  0  0  0  0  0  0  0  0  0  0
   -1.2158  -19.5723  -12.5374 C   0  0  0  0  0  0  0  0  0  0  0  0
   -2.3255  -19.1737  -13.1619 C   0  0  0  0  0  0  0  0  0  0  0  0
  1  2  2  0
  2  3  1  0
  3  4  2  0
  4  5  1  0
  3  6  1  0
  1  7  1  0
  5  7  2  0
  6  8  1  0
  7  9  1  0
  8 10  1  0
  8 11  2  0
  6 12  2  0
 11 13  1  0
 12 14  1  0
 13 14  2  0
M  END
>  <ID>  (1) 
conformer_0

$$$$
