
     RDKit          3D

 15 16  0  0  0  0  0  0  0  0999 V2000
   -2.7581  -17.6248  -14.8518 O   0  0  0  0  0  0  0  0  0  0  0  0
   -2.1724  -17.8444  -13.7874 C   0  0  0  0  0  0  0  0  0  0  0  0
   -2.7979  -17.5904  -12.5659 C   0  0  0  0  0  0  0  0  0  0  0  0
   -2.2458  -18.1287  -11.4033 C   0  0  0  0  0  0  0  0  0  0  0  0
   -3.7824  -16.5929  -12.3088 C   0  0  0  0  0  0  0  0  0  0  0  0
   -2.6641  -17.9009  -10.1298 C   0  0  0  0  0  0  0  0  0  0  0  0
   -4.2612  -16.3627  -10.9585 C   0  0  0  0  0  0  0  0  0  0  0  0
   -0.9287  -18.1015  -13.9500 O   0  0  0  0  0  0  0  0  0  0  0  0
   -5.3428  -15.5110  -10.7973 O   0  0  0  0  0  0  0  0  0  0  0  0
   -3.5381  -16.9798   -9.8448 C   0  0  0  0  0  0  0  0  0  0  0  0
   -4.0627  -16.7406   -8.5983 O   0  0  0  0  0  0  0  0  0  0  0  0
   -6.0209  -15.5581   -9.7002 C   0  0  0  0  0  0  0  0  0  0  0  0
   -5.1186  -15.8360   -8.5694 C   0  0  0  0  0  0  0  0  0  0  0  0
   -7.2900  -15.3002   -9.5692 C   0  0  0  0  0  0  0  0  0  0  0  0
   -7.7973  -15.2633   -8.2371 C   0  0  0  0  0  0  0  0  0  0  0  0
  1  2  2  0
  2  3  1  0
  3  4  2  0
  3  5  1  0
  4  6  1  0
  5  7  2  0
  2  8  1  0
  7  9  1  0
  6 10  2  0
  7 10  1  0
 10 11  1  0
  9 12  1  0
 11 13  1  0
 12 13  1  0
 12 14  2  3
 14 15  1  0
M  END
>  <ID>  (1) 
conformer_0

$$$$
