
     RDKit          3D

  8  8  0  0  0  0  0  0  0  0999 V2000
   -5.8108  -15.5143   -9.2151 C   0  0  0  0  0  0  0  0  0  0  0  0
   -6.7384  -15.6803   -8.5235 C   0  0  0  0  0  0  0  0  0  0  0  0
   -4.7360  -16.3777   -9.5883 C   0  0  0  0  0  0  0  0  0  0  0  0
   -5.0792  -17.6676   -9.8990 C   0  0  0  0  0  0  0  0  0  0  0  0
   -6.3782  -18.0367   -9.3591 C   0  0  0  0  0  0  0  0  0  0  0  0
   -3.4373  -15.8744  -10.2115 C   0  0  0  0  0  0  0  0  0  0  0  0
   -2.4142  -16.5772   -9.7859 O   0  0  0  0  0  0  0  0  0  0  0  0
   -7.3245  -17.1149   -8.5758 C   0  0  0  0  0  0  0  0  0  0  0  0
  1  2  2  0
  1  3  1  0
  3  4  2  0
  4  5  1  0
  3  6  1  0
  6  7  1  0
  2  8  1  0
  5  8  2  0
M  END
>  <ID>  (1) 
conformer_0

$$$$
