
     RDKit          3D

 12 12  0  0  0  0  0  0  0  0999 V2000
   -3.5889  -16.2094  -10.9247 C   0  0  0  0  0  0  0  0  0  0  0  0
   -4.2711  -16.2474   -9.8834 C   0  0  0  0  0  0  0  0  0  0  0  0
   -5.6203  -16.0085   -9.7087 C   0  0  0  0  0  0  0  0  0  0  0  0
   -3.5215  -16.4318   -8.6383 C   0  0  0  0  0  0  0  0  0  0  0  0
   -3.3264  -17.4755  -11.6657 C   0  0  0  0  0  0  0  0  0  0  0  0
   -6.3024  -15.8932   -8.5548 C   0  0  0  0  0  0  0  0  0  0  0  0
   -2.7793  -17.3796  -12.9709 C   0  0  0  0  0  0  0  0  0  0  0  0
   -5.5545  -16.1656   -7.4399 C   0  0  0  0  0  0  0  0  0  0  0  0
   -7.7860  -15.4671   -8.6071 C   0  0  0  0  0  0  0  0  0  0  0  0
   -1.6808  -17.4197  -13.1750 O   0  0  0  0  0  0  0  0  0  0  0  0
   -3.5561  -17.1615  -13.9581 O   0  0  0  0  0  0  0  0  0  0  0  0
   -4.2850  -16.4034   -7.4736 C   0  0  0  0  0  0  0  0  0  0  0  0
  1  2  1  0
  2  3  2  0
  2  4  1  0
  1  5  2  3
  3  6  1  0
  5  7  1  0
  6  8  2  0
  6  9  1  0
  7 10  1  0
  7 11  2  0
  4 12  2  0
  8 12  1  0
M  END
>  <ID>  (1) 
conformer_0

$$$$
