
     RDKit          3D

 12 12  0  0  0  0  0  0  0  0999 V2000
   -6.6239  -16.0727   -8.5827 C   0  0  0  0  0  0  0  0  0  0  0  0
   -5.4492  -16.4566   -9.1436 C   0  0  0  0  0  0  0  0  0  0  0  0
   -5.4816  -17.3133  -10.1176 C   0  0  0  0  0  0  0  0  0  0  0  0
   -4.1103  -17.6730  -10.8413 C   0  0  0  0  0  0  0  0  0  0  0  0
   -3.2080  -18.0939  -10.0930 C   0  0  0  0  0  0  0  0  0  0  0  0
   -4.0962  -18.3085  -12.2021 C   0  0  0  0  0  0  0  0  0  0  0  0
   -6.7661  -14.7272   -8.2261 C   0  0  0  0  0  0  0  0  0  0  0  0
   -2.8613  -17.8423  -12.8944 C   0  0  0  0  0  0  0  0  0  0  0  0
   -1.9243  -18.6898  -10.5865 C   0  0  0  0  0  0  0  0  0  0  0  0
   -1.7276  -18.5545  -12.0992 C   0  0  0  0  0  0  0  0  0  0  0  0
   -2.7261  -17.9687  -14.2671 O   0  0  0  0  0  0  0  0  0  0  0  0
   -2.4613  -16.4263  -13.0599 C   0  0  0  0  0  0  0  0  0  0  0  0
  1  2  1  0
  2  3  2  3
  3  4  1  0
  4  5  2  0
  4  6  1  0
  1  7  1  0
  6  8  1  0
  5  9  1  0
  8 10  1  0
  9 10  2  0
  8 11  1  0
  8 12  1  0
M  END
>  <ID>  (1) 
conformer_0

$$$$
