
     RDKit          3D

 12 12  0  0  0  0  0  0  0  0999 V2000
   -4.8755  -15.7486   -9.2238 C   0  0  0  0  0  0  0  0  0  0  0  0
   -4.0027  -16.4903   -9.8200 C   0  0  0  0  0  0  0  0  0  0  0  0
   -4.2719  -17.6140  -10.4321 C   0  0  0  0  0  0  0  0  0  0  0  0
   -2.5688  -16.0694   -9.7007 O   0  0  0  0  0  0  0  0  0  0  0  0
   -5.5622  -18.0808  -10.4576 C   0  0  0  0  0  0  0  0  0  0  0  0
   -6.2381  -16.1119   -9.1942 C   0  0  0  0  0  0  0  0  0  0  0  0
   -6.5904  -17.2726   -9.6140 C   0  0  0  0  0  0  0  0  0  0  0  0
   -3.0754  -18.2518  -11.0884 C   0  0  0  0  0  0  0  0  0  0  0  0
   -3.1412  -17.9697  -12.5758 C   0  0  0  0  0  0  0  0  0  0  0  0
   -3.3255  -16.8311  -13.0590 O   0  0  0  0  0  0  0  0  0  0  0  0
   -7.3690  -15.2033   -8.3332 Cl  0  0  0  0  0  0  0  0  0  0  0  0
   -2.8234  -18.8001  -13.4712 O   0  0  0  0  0  0  0  0  0  0  0  0
  1  2  2  0
  2  3  1  0
  2  4  1  0
  3  5  2  0
  1  6  1  0
  5  7  1  0
  6  7  2  0
  3  8  1  0
  8  9  1  0
  9 10  1  0
  6 11  1  0
  9 12  2  0
M  END
>  <ID>  (1) 
conformer_0

$$$$
