
     RDKit          3D

 12 12  0  0  0  0  0  0  0  0999 V2000
   -4.8755  -15.7486   -9.2238 C   0  0  0  0  0  0  0  0  0  0  0  0
   -4.0027  -16.4903   -9.8200 C   0  0  0  0  0  0  0  0  0  0  0  0
   -4.2587  -17.4385  -10.6653 C   0  0  0  0  0  0  0  0  0  0  0  0
   -3.2660  -18.2435  -11.3854 C   0  0  0  0  0  0  0  0  0  0  0  0
   -2.9353  -17.9577  -12.6806 C   0  0  0  0  0  0  0  0  0  0  0  0
   -2.0524  -18.1810  -10.5127 C   0  0  0  0  0  0  0  0  0  0  0  0
   -1.9835  -17.3055   -9.4527 C   0  0  0  0  0  0  0  0  0  0  0  0
   -6.1179  -16.2377   -8.7653 C   0  0  0  0  0  0  0  0  0  0  0  0
   -2.6643  -16.2558   -9.4232 O   0  0  0  0  0  0  0  0  0  0  0  0
   -3.0208  -16.7705  -13.2516 O   0  0  0  0  0  0  0  0  0  0  0  0
   -2.2424  -18.7037  -13.4883 O   0  0  0  0  0  0  0  0  0  0  0  0
   -7.1892  -15.4714   -8.2080 C   0  0  0  0  0  0  0  0  0  0  0  0
  1  2  1  0
  2  3  2  0
  3  4  1  0
  4  5  1  0
  4  6  1  0
  6  7  1  0
  1  8  2  3
  2  9  1  0
  7  9  1  0
  5 10  1  0
  5 11  2  0
  8 12  1  0
M  END
>  <ID>  (1) 
conformer_0

$$$$
