
     RDKit          3D

 16 17  0  0  0  0  0  0  0  0999 V2000
   -2.2534  -17.3639   -8.6204 C   0  0  0  0  0  0  0  0  0  0  0  0
   -3.3029  -17.0400   -9.4755 C   0  0  0  0  0  0  0  0  0  0  0  0
   -3.1260  -17.1769  -10.8019 C   0  0  0  0  0  0  0  0  0  0  0  0
   -4.1924  -16.7702  -11.7553 C   0  0  0  0  0  0  0  0  0  0  0  0
   -2.0203  -17.9527  -11.2146 C   0  0  0  0  0  0  0  0  0  0  0  0
   -1.0336  -18.3217  -10.3828 C   0  0  0  0  0  0  0  0  0  0  0  0
   -4.4795  -16.2672   -8.9862 C   0  0  0  0  0  0  0  0  0  0  0  0
   -5.7305  -16.4300   -8.9707 C   0  0  0  0  0  0  0  0  0  0  0  0
   -6.3855  -17.7564   -9.4400 C   0  0  0  0  0  0  0  0  0  0  0  0
   -1.9201  -18.4619  -12.7013 C   0  0  0  0  0  0  0  0  0  0  0  0
   -1.1996  -17.9767   -9.0047 C   0  0  0  0  0  0  0  0  0  0  0  0
   -3.9733  -17.1856  -13.0252 C   0  0  0  0  0  0  0  0  0  0  0  0
   -0.8254  -19.0996  -13.1976 O   0  0  0  0  0  0  0  0  0  0  0  0
   -6.6543  -15.4456   -8.4468 C   0  0  0  0  0  0  0  0  0  0  0  0
   -2.7922  -17.8776  -13.4892 C   0  0  0  0  0  0  0  0  0  0  0  0
   -2.6389  -18.1960  -14.8564 O   0  0  0  0  0  0  0  0  0  0  0  0
  1  2  1  0
  2  3  2  0
  3  4  1  0
  3  5  1  0
  5  6  2  0
  2  7  1  0
  7  8  2  3
  8  9  1  0
  5 10  1  0
  1 11  2  0
  6 11  1  0
  4 12  2  0
 10 13  1  0
  8 14  1  0
 10 15  2  0
 12 15  1  0
 15 16  1  0
M  END
>  <ID>  (1) 
conformer_0

$$$$
