
     RDKit          3D

 16 17  0  0  0  0  0  0  0  0999 V2000
   -5.2692  -17.2253  -10.5644 C   0  0  0  0  0  0  0  0  0  0  0  0
   -5.4870  -16.6660   -9.5767 C   0  0  0  0  0  0  0  0  0  0  0  0
   -4.9745  -16.8217   -8.4749 C   0  0  0  0  0  0  0  0  0  0  0  0
   -4.1160  -17.9333  -10.8515 C   0  0  0  0  0  0  0  0  0  0  0  0
   -3.6792  -18.4155  -12.1375 C   0  0  0  0  0  0  0  0  0  0  0  0
   -3.1620  -17.8855   -9.8113 C   0  0  0  0  0  0  0  0  0  0  0  0
   -6.7790  -15.6705   -9.4195 C   0  0  0  0  0  0  0  0  0  0  0  0
   -2.5461  -17.9936  -12.7846 C   0  0  0  0  0  0  0  0  0  0  0  0
   -5.3116  -16.2093   -7.2463 C   0  0  0  0  0  0  0  0  0  0  0  0
   -2.1887  -18.1148  -14.0362 C   0  0  0  0  0  0  0  0  0  0  0  0
   -1.5693  -17.0295  -12.2690 O   0  0  0  0  0  0  0  0  0  0  0  0
   -6.2726  -15.2342   -7.1964 C   0  0  0  0  0  0  0  0  0  0  0  0
   -7.1078  -15.0781   -8.3070 C   0  0  0  0  0  0  0  0  0  0  0  0
   -3.4340  -17.2089   -8.6383 C   0  0  0  0  0  0  0  0  0  0  0  0
   -1.0853  -18.6265  -14.4178 O   0  0  0  0  0  0  0  0  0  0  0  0
   -2.9809  -17.7451  -15.0248 O   0  0  0  0  0  0  0  0  0  0  0  0
  1  2  2  0
  2  3  1  0
  1  4  1  0
  4  5  1  0
  4  6  2  0
  2  7  1  0
  5  8  2  3
  3  9  1  0
  8 10  1  0
  8 11  1  0
  9 12  2  0
  7 13  2  0
 12 13  1  0
  3 14  2  0
  6 14  1  0
 10 15  2  0
 10 16  1  0
M  END
>  <ID>  (1) 
conformer_0

$$$$
