
     RDKit          3D

 14 14  0  0  0  0  0  0  0  0999 V2000
   -2.2534  -17.3639   -8.6204 C   0  0  0  0  0  0  0  0  0  0  0  0
   -3.3029  -17.0400   -9.4755 C   0  0  0  0  0  0  0  0  0  0  0  0
   -3.1260  -17.1769  -10.8019 C   0  0  0  0  0  0  0  0  0  0  0  0
   -4.1924  -16.7702  -11.7553 C   0  0  0  0  0  0  0  0  0  0  0  0
   -2.0203  -17.9527  -11.2146 C   0  0  0  0  0  0  0  0  0  0  0  0
   -1.0336  -18.3217  -10.3828 C   0  0  0  0  0  0  0  0  0  0  0  0
   -4.4795  -16.2672   -8.9862 C   0  0  0  0  0  0  0  0  0  0  0  0
   -5.7305  -16.4300   -8.9707 C   0  0  0  0  0  0  0  0  0  0  0  0
   -6.3855  -17.7564   -9.4400 C   0  0  0  0  0  0  0  0  0  0  0  0
   -1.8729  -18.2881  -12.7296 C   0  0  0  0  0  0  0  0  0  0  0  0
   -0.7370  -18.7555  -13.0904 O   0  0  0  0  0  0  0  0  0  0  0  0
   -6.7606  -15.5590   -8.3768 C   0  0  0  0  0  0  0  0  0  0  0  0
   -1.1809  -18.0313   -9.0514 C   0  0  0  0  0  0  0  0  0  0  0  0
   -2.8929  -18.1938  -13.5958 O   0  0  0  0  0  0  0  0  0  0  0  0
  1  2  1  0
  2  3  2  0
  3  4  1  0
  3  5  1  0
  5  6  2  0
  2  7  1  0
  7  8  2  3
  8  9  1  0
  5 10  1  0
 10 11  2  0
  8 12  1  0
  1 13  2  0
  6 13  1  0
 10 14  1  0
M  END
>  <ID>  (1) 
conformer_0

$$$$
