
     RDKit          3D

 16 18  0  0  0  0  0  0  0  0999 V2000
   -5.2692  -17.2253  -10.5644 C   0  0  0  0  0  0  0  0  0  0  0  0
   -5.4870  -16.6660   -9.5767 C   0  0  0  0  0  0  0  0  0  0  0  0
   -4.9745  -16.8217   -8.4749 C   0  0  0  0  0  0  0  0  0  0  0  0
   -4.1160  -17.9333  -10.8515 C   0  0  0  0  0  0  0  0  0  0  0  0
   -3.6792  -18.4155  -12.1375 C   0  0  0  0  0  0  0  0  0  0  0  0
   -3.1620  -17.8855   -9.8113 C   0  0  0  0  0  0  0  0  0  0  0  0
   -6.7790  -15.6705   -9.4195 C   0  0  0  0  0  0  0  0  0  0  0  0
   -2.5100  -18.3047  -12.7503 C   0  0  0  0  0  0  0  0  0  0  0  0
   -5.3140  -16.2123   -7.2436 O   0  0  0  0  0  0  0  0  0  0  0  0
   -6.2233  -15.2935   -7.4630 C   0  0  0  0  0  0  0  0  0  0  0  0
   -3.5695  -17.3495   -8.6071 C   0  0  0  0  0  0  0  0  0  0  0  0
   -2.3590  -18.4546  -14.0889 O   0  0  0  0  0  0  0  0  0  0  0  0
   -1.2689  -18.2370  -12.0416 C   0  0  0  0  0  0  0  0  0  0  0  0
   -1.1192  -18.1687  -14.4721 C   0  0  0  0  0  0  0  0  0  0  0  0
   -7.0615  -15.0741   -8.4155 C   0  0  0  0  0  0  0  0  0  0  0  0
   -0.2942  -18.6097  -13.1620 C   0  0  0  0  0  0  0  0  0  0  0  0
  1  2  2  0
  2  3  1  0
  1  4  1  0
  4  5  1  0
  4  6  2  0
  2  7  1  0
  5  8  2  3
  3  9  1  0
  9 10  1  0
  3 11  2  0
  6 11  1  0
  8 12  1  0
  8 13  1  0
 12 14  1  0
  7 15  2  0
 10 15  1  0
 13 16  1  0
 14 16  1  0
M  END
>  <ID>  (1) 
conformer_0

$$$$
