
     RDKit          3D

  9  8  0  0  0  0  0  0  0  0999 V2000
   -2.7581  -17.6248  -14.8518 O   0  0  0  0  0  0  0  0  0  0  0  0
   -2.6771  -17.4946  -13.5428 C   0  0  0  0  0  0  0  0  0  0  0  0
   -3.8184  -17.0709  -12.8526 C   0  0  0  0  0  0  0  0  0  0  0  0
   -3.7292  -16.8750  -11.3833 C   0  0  0  0  0  0  0  0  0  0  0  0
   -4.8667  -16.4338  -10.6272 C   0  0  0  0  0  0  0  0  0  0  0  0
   -5.2810  -17.3680   -9.5897 C   0  0  0  0  0  0  0  0  0  0  0  0
   -6.3348  -16.8903   -8.6286 C   0  0  0  0  0  0  0  0  0  0  0  0
   -1.6051  -17.8870  -12.9976 O   0  0  0  0  0  0  0  0  0  0  0  0
   -7.0392  -15.7714   -9.1275 C   0  0  0  0  0  0  0  0  0  0  0  0
  1  2  1  0
  2  3  1  0
  3  4  2  3
  4  5  1  0
  5  6  1  0
  6  7  1  0
  2  8  2  0
  7  9  1  0
M  END
>  <ID>  (1) 
conformer_0

$$$$
