
     RDKit          3D

 15 16  0  0  0  0  0  0  0  0999 V2000
   -4.8755  -15.7486   -9.2238 C   0  0  0  0  0  0  0  0  0  0  0  0
   -4.0027  -16.4903   -9.8200 C   0  0  0  0  0  0  0  0  0  0  0  0
   -4.2719  -17.6140  -10.4321 C   0  0  0  0  0  0  0  0  0  0  0  0
   -2.5688  -16.0694   -9.7007 O   0  0  0  0  0  0  0  0  0  0  0  0
   -5.5622  -18.0808  -10.4576 C   0  0  0  0  0  0  0  0  0  0  0  0
   -6.2381  -16.1119   -9.1942 C   0  0  0  0  0  0  0  0  0  0  0  0
   -6.5535  -17.3135   -9.7645 C   0  0  0  0  0  0  0  0  0  0  0  0
   -7.3688  -15.2462   -8.3220 Cl  0  0  0  0  0  0  0  0  0  0  0  0
   -3.2804  -18.2219  -11.1076 O   0  0  0  0  0  0  0  0  0  0  0  0
   -3.0077  -17.7477  -12.4084 C   0  0  0  0  0  0  0  0  0  0  0  0
   -3.0893  -16.6139  -12.8794 C   0  0  0  0  0  0  0  0  0  0  0  0
   -2.1236  -18.7322  -13.1387 C   0  0  0  0  0  0  0  0  0  0  0  0
   -1.6052  -18.3156  -14.1036 C   0  0  0  0  0  0  0  0  0  0  0  0
   -1.8275  -17.0833  -14.7131 C   0  0  0  0  0  0  0  0  0  0  0  0
   -2.4931  -16.2399  -14.0492 C   0  0  0  0  0  0  0  0  0  0  0  0
  1  2  2  0
  2  3  1  0
  2  4  1  0
  3  5  2  0
  1  6  1  0
  5  7  1  0
  6  7  2  0
  6  8  1  0
  3  9  1  0
  9 10  1  0
 10 11  2  0
 10 12  1  0
 12 13  2  0
 13 14  1  0
 11 15  1  0
 14 15  2  0
M  END
>  <ID>  (1) 
conformer_0

$$$$
