
     RDKit          3D

 13 13  0  0  0  0  0  0  0  0999 V2000
   -3.5889  -16.2094  -10.9247 C   0  0  0  0  0  0  0  0  0  0  0  0
   -4.2711  -16.2474   -9.8834 C   0  0  0  0  0  0  0  0  0  0  0  0
   -5.6203  -16.0085   -9.7087 C   0  0  0  0  0  0  0  0  0  0  0  0
   -3.5215  -16.4318   -8.6383 C   0  0  0  0  0  0  0  0  0  0  0  0
   -3.3264  -17.4755  -11.6657 C   0  0  0  0  0  0  0  0  0  0  0  0
   -6.3024  -15.8932   -8.5548 C   0  0  0  0  0  0  0  0  0  0  0  0
   -2.7793  -17.3796  -12.9709 C   0  0  0  0  0  0  0  0  0  0  0  0
   -5.5545  -16.1656   -7.4399 C   0  0  0  0  0  0  0  0  0  0  0  0
   -2.1383  -16.7644   -8.6701 C   0  0  0  0  0  0  0  0  0  0  0  0
   -1.6874  -17.5405  -13.1820 O   0  0  0  0  0  0  0  0  0  0  0  0
   -3.5628  -17.0327  -13.9959 O   0  0  0  0  0  0  0  0  0  0  0  0
   -4.2746  -16.4352   -7.4928 C   0  0  0  0  0  0  0  0  0  0  0  0
   -7.7819  -15.4879   -8.5238 Cl  0  0  0  0  0  0  0  0  0  0  0  0
  1  2  1  0
  2  3  2  0
  2  4  1  0
  1  5  2  3
  3  6  1  0
  5  7  1  0
  6  8  2  0
  4  9  1  0
  7 10  2  0
  7 11  1  0
  4 12  2  0
  8 12  1  0
  6 13  1  0
M  END
>  <ID>  (1) 
conformer_0

$$$$
