
     RDKit          3D

 16 17  0  0  0  0  0  0  0  0999 V2000
   -6.0729  -17.1014   -9.4694 C   0  0  0  0  0  0  0  0  0  0  0  0
   -6.8086  -16.1664   -8.8072 C   0  0  0  0  0  0  0  0  0  0  0  0
   -4.8782  -16.7468   -9.8448 C   0  0  0  0  0  0  0  0  0  0  0  0
   -4.3702  -15.5087   -9.4670 C   0  0  0  0  0  0  0  0  0  0  0  0
   -3.9389  -17.6115  -10.5773 C   0  0  0  0  0  0  0  0  0  0  0  0
   -2.8751  -18.1846   -9.8815 C   0  0  0  0  0  0  0  0  0  0  0  0
   -4.1652  -17.9898  -11.9022 C   0  0  0  0  0  0  0  0  0  0  0  0
   -3.1386  -18.5889  -12.6520 C   0  0  0  0  0  0  0  0  0  0  0  0
   -2.5703  -17.9311   -8.5312 O   0  0  0  0  0  0  0  0  0  0  0  0
   -1.7338  -18.9806  -10.4917 C   0  0  0  0  0  0  0  0  0  0  0  0
   -6.4266  -14.9844   -8.3993 C   0  0  0  0  0  0  0  0  0  0  0  0
   -3.3138  -18.7999  -14.0271 O   0  0  0  0  0  0  0  0  0  0  0  0
   -7.2476  -14.1547   -7.6677 F   0  0  0  0  0  0  0  0  0  0  0  0
   -5.2576  -14.6993   -8.7511 C   0  0  0  0  0  0  0  0  0  0  0  0
   -2.0411  -19.1443  -11.9497 C   0  0  0  0  0  0  0  0  0  0  0  0
   -2.7739  -17.7364  -14.8070 C   0  0  0  0  0  0  0  0  0  0  0  0
  1  2  2  0
  1  3  1  0
  3  4  2  0
  3  5  1  0
  5  6  2  0
  5  7  1  0
  7  8  2  0
  6  9  1  0
  6 10  1  0
  2 11  1  0
  8 12  1  0
 11 13  1  0
  4 14  1  0
 11 14  2  0
  8 15  1  0
 10 15  2  0
 12 16  1  0
M  END
>  <ID>  (1) 
conformer_0

$$$$
