
     RDKit          3D

 16 17  0  0  0  0  0  0  0  0999 V2000
   -3.5889  -16.2094  -10.9247 C   0  0  0  0  0  0  0  0  0  0  0  0
   -4.2711  -16.2474   -9.8834 C   0  0  0  0  0  0  0  0  0  0  0  0
   -3.7616  -16.6783   -8.7050 C   0  0  0  0  0  0  0  0  0  0  0  0
   -2.6312  -17.2561  -11.2075 C   0  0  0  0  0  0  0  0  0  0  0  0
   -5.4416  -15.3075   -9.7133 O   0  0  0  0  0  0  0  0  0  0  0  0
   -6.2935  -15.5990   -8.5821 C   0  0  0  0  0  0  0  0  0  0  0  0
   -2.1278  -17.4612  -12.5944 C   0  0  0  0  0  0  0  0  0  0  0  0
   -2.9538  -17.1643  -13.6606 C   0  0  0  0  0  0  0  0  0  0  0  0
   -7.1092  -14.5767   -8.2942 F   0  0  0  0  0  0  0  0  0  0  0  0
   -2.6031  -17.5517   -8.8736 C   0  0  0  0  0  0  0  0  0  0  0  0
   -1.0566  -17.9497  -12.8685 C   0  0  0  0  0  0  0  0  0  0  0  0
   -5.5510  -16.0039   -7.5906 F   0  0  0  0  0  0  0  0  0  0  0  0
   -2.0822  -17.7741  -10.1151 C   0  0  0  0  0  0  0  0  0  0  0  0
   -7.0339  -16.7982   -9.0040 F   0  0  0  0  0  0  0  0  0  0  0  0
   -2.2511  -17.6808  -14.7281 N   0  0  0  0  0  0  0  0  0  0  0  0
   -0.8674  -18.2209  -14.3254 O   0  0  0  0  0  0  0  0  0  0  0  0
  1  2  1  0
  2  3  2  0
  1  4  2  0
  2  5  1  0
  5  6  1  0
  4  7  1  0
  7  8  1  0
  6  9  1  0
  3 10  1  0
  7 11  2  0
  6 12  1  0
  4 13  1  0
 10 13  2  0
  6 14  1  0
  8 15  2  0
 11 16  1  0
 15 16  1  0
M  END
>  <ID>  (1) 
conformer_0

$$$$
