
     RDKit          3D

 14 15  0  0  0  0  0  0  0  0999 V2000
   -6.7605  -15.3859   -8.3252 Cl  0  0  0  0  0  0  0  0  0  0  0  0
   -5.6044  -16.3947   -8.9669 C   0  0  0  0  0  0  0  0  0  0  0  0
   -4.8446  -15.8766   -9.9562 C   0  0  0  0  0  0  0  0  0  0  0  0
   -3.8521  -16.6091  -10.5681 C   0  0  0  0  0  0  0  0  0  0  0  0
   -3.1158  -16.1038  -11.6258 N   0  0  0  0  0  0  0  0  0  0  0  0
   -2.7526  -16.7804  -12.7361 C   0  0  0  0  0  0  0  0  0  0  0  0
   -3.6465  -17.9894  -10.3389 C   0  0  0  0  0  0  0  0  0  0  0  0
   -2.7041  -18.7304  -11.0381 C   0  0  0  0  0  0  0  0  0  0  0  0
   -2.4309  -19.9181  -10.8938 O   0  0  0  0  0  0  0  0  0  0  0  0
   -5.4671  -17.8336   -8.7093 C   0  0  0  0  0  0  0  0  0  0  0  0
   -2.3215  -18.0953  -12.4230 C   0  0  0  0  0  0  0  0  0  0  0  0
   -4.5565  -18.4876   -9.4092 C   0  0  0  0  0  0  0  0  0  0  0  0
   -3.4909  -16.9236  -13.8350 O   0  0  0  0  0  0  0  0  0  0  0  0
   -1.3657  -18.7845  -13.1406 O   0  0  0  0  0  0  0  0  0  0  0  0
  1  2  1  0
  2  3  2  0
  3  4  1  0
  4  5  1  0
  5  6  1  0
  4  7  2  0
  7  8  1  0
  8  9  2  0
  2 10  1  0
  6 11  1  0
  8 11  1  0
  7 12  1  0
 10 12  2  0
  6 13  2  0
 11 14  2  0
M  END
>  <ID>  (1) 
conformer_0

$$$$
