
     RDKit          3D

 16 18  0  0  0  0  0  0  0  0999 V2000
   -5.2692  -17.2253  -10.5644 C   0  0  0  0  0  0  0  0  0  0  0  0
   -5.4870  -16.6660   -9.5767 C   0  0  0  0  0  0  0  0  0  0  0  0
   -4.9745  -16.8217   -8.4749 C   0  0  0  0  0  0  0  0  0  0  0  0
   -4.1160  -17.9333  -10.8515 C   0  0  0  0  0  0  0  0  0  0  0  0
   -3.6792  -18.4155  -12.1375 C   0  0  0  0  0  0  0  0  0  0  0  0
   -3.1620  -17.8855   -9.8113 C   0  0  0  0  0  0  0  0  0  0  0  0
   -6.7790  -15.6705   -9.4195 C   0  0  0  0  0  0  0  0  0  0  0  0
   -2.5100  -18.3047  -12.7503 C   0  0  0  0  0  0  0  0  0  0  0  0
   -5.3140  -16.2123   -7.2436 C   0  0  0  0  0  0  0  0  0  0  0  0
   -7.2371  -15.4500   -8.1208 C   0  0  0  0  0  0  0  0  0  0  0  0
   -6.5009  -15.4600   -7.3221 C   0  0  0  0  0  0  0  0  0  0  0  0
   -2.3161  -18.4442  -14.0630 O   0  0  0  0  0  0  0  0  0  0  0  0
   -1.2694  -17.8217  -12.3338 C   0  0  0  0  0  0  0  0  0  0  0  0
   -1.2072  -18.0404  -14.5993 N   0  0  0  0  0  0  0  0  0  0  0  0
   -3.6068  -17.2789   -8.6029 C   0  0  0  0  0  0  0  0  0  0  0  0
   -0.5011  -17.7985  -13.5560 C   0  0  0  0  0  0  0  0  0  0  0  0
  1  2  2  0
  2  3  1  0
  1  4  1  0
  4  5  1  0
  4  6  2  0
  2  7  1  0
  5  8  2  3
  3  9  1  0
  7 10  1  0
  9 11  1  0
 10 11  1  0
  8 12  1  0
  8 13  1  0
 12 14  1  0
  3 15  2  0
  6 15  1  0
 13 16  1  0
 14 16  2  0
M  END
>  <ID>  (1) 
conformer_0

$$$$
