
     RDKit          3D

 16 18  0  0  0  0  0  0  0  0999 V2000
   -4.8755  -15.7486   -9.2238 C   0  0  0  0  0  0  0  0  0  0  0  0
   -6.0488  -16.2673   -8.6599 C   0  0  0  0  0  0  0  0  0  0  0  0
   -4.2375  -16.5826  -10.0857 C   0  0  0  0  0  0  0  0  0  0  0  0
   -4.7755  -17.8122  -10.4654 C   0  0  0  0  0  0  0  0  0  0  0  0
   -6.9184  -15.3966   -7.8078 F   0  0  0  0  0  0  0  0  0  0  0  0
   -3.0221  -16.1360  -10.6836 O   0  0  0  0  0  0  0  0  0  0  0  0
   -2.6155  -16.9736  -11.7584 C   0  0  0  0  0  0  0  0  0  0  0  0
   -6.5513  -17.4171   -9.0711 C   0  0  0  0  0  0  0  0  0  0  0  0
   -2.9799  -16.4898  -13.0688 C   0  0  0  0  0  0  0  0  0  0  0  0
   -2.5681  -17.3369  -14.0455 C   0  0  0  0  0  0  0  0  0  0  0  0
   -1.9314  -18.4756  -13.7847 C   0  0  0  0  0  0  0  0  0  0  0  0
   -1.5366  -19.2451  -14.9720 F   0  0  0  0  0  0  0  0  0  0  0  0
   -3.9769  -18.6642  -11.3753 C   0  0  0  0  0  0  0  0  0  0  0  0
   -2.7856  -18.1754  -11.5944 C   0  0  0  0  0  0  0  0  0  0  0  0
   -2.3338  -19.0710  -12.6100 C   0  0  0  0  0  0  0  0  0  0  0  0
   -5.8871  -18.2138   -9.8713 C   0  0  0  0  0  0  0  0  0  0  0  0
  1  2  2  0
  1  3  1  0
  3  4  2  0
  2  5  1  0
  3  6  1  0
  6  7  1  0
  2  8  1  0
  7  9  2  0
  9 10  1  0
 10 11  2  0
 11 12  1  0
  4 13  1  0
  7 14  1  0
 13 14  1  0
 11 15  1  0
 14 15  2  0
  4 16  1  0
  8 16  2  0
M  END
>  <ID>  (1) 
conformer_0

$$$$
