
     RDKit          3D

 15 16  0  0  0  0  0  0  0  0999 V2000
   -2.2534  -17.3639   -8.6204 C   0  0  0  0  0  0  0  0  0  0  0  0
   -3.3029  -17.0400   -9.4755 C   0  0  0  0  0  0  0  0  0  0  0  0
   -3.1260  -17.1769  -10.8019 C   0  0  0  0  0  0  0  0  0  0  0  0
   -1.1129  -17.8587   -9.1275 C   0  0  0  0  0  0  0  0  0  0  0  0
   -4.2608  -16.8048  -11.7196 C   0  0  0  0  0  0  0  0  0  0  0  0
   -4.5747  -16.5083   -8.9804 C   0  0  0  0  0  0  0  0  0  0  0  0
   -1.0108  -18.0791  -10.4883 C   0  0  0  0  0  0  0  0  0  0  0  0
   -5.6632  -16.5122   -8.4983 C   0  0  0  0  0  0  0  0  0  0  0  0
   -1.9673  -17.7257  -11.3156 C   0  0  0  0  0  0  0  0  0  0  0  0
   -1.8814  -17.8798  -12.7468 C   0  0  0  0  0  0  0  0  0  0  0  0
   -2.8394  -17.5516  -13.6554 C   0  0  0  0  0  0  0  0  0  0  0  0
   -2.6122  -17.6834  -14.9897 O   0  0  0  0  0  0  0  0  0  0  0  0
   -7.0172  -16.0481   -8.1935 C   0  0  0  0  0  0  0  0  0  0  0  0
   -4.0402  -16.9374  -13.2251 C   0  0  0  0  0  0  0  0  0  0  0  0
   -7.3132  -14.7338   -8.5615 C   0  0  0  0  0  0  0  0  0  0  0  0
  1  2  1  0
  2  3  2  0
  1  4  2  0
  3  5  1  0
  2  6  1  0
  4  7  1  0
  6  8  3  0
  3  9  1  0
  7  9  2  0
  9 10  1  0
 10 11  2  0
 11 12  1  0
  8 13  1  0
  5 14  2  0
 11 14  1  0
 13 15  1  0
M  END
>  <ID>  (1) 
conformer_0

$$$$
