
     RDKit          3D

 15 15  0  0  0  0  0  0  0  0999 V2000
   -5.2692  -17.2253  -10.5644 C   0  0  0  0  0  0  0  0  0  0  0  0
   -5.4870  -16.6660   -9.5767 C   0  0  0  0  0  0  0  0  0  0  0  0
   -4.9745  -16.8217   -8.4749 C   0  0  0  0  0  0  0  0  0  0  0  0
   -4.1160  -17.9333  -10.8515 C   0  0  0  0  0  0  0  0  0  0  0  0
   -3.6792  -18.4155  -12.1375 C   0  0  0  0  0  0  0  0  0  0  0  0
   -3.1620  -17.8855   -9.8113 C   0  0  0  0  0  0  0  0  0  0  0  0
   -6.7790  -15.6705   -9.4195 C   0  0  0  0  0  0  0  0  0  0  0  0
   -2.5461  -17.9936  -12.7846 C   0  0  0  0  0  0  0  0  0  0  0  0
   -7.1163  -15.1446   -8.2041 C   0  0  0  0  0  0  0  0  0  0  0  0
   -2.1669  -18.4489  -14.1299 C   0  0  0  0  0  0  0  0  0  0  0  0
   -1.9124  -16.6525  -12.5647 O   0  0  0  0  0  0  0  0  0  0  0  0
   -2.7729  -18.0878  -15.1172 O   0  0  0  0  0  0  0  0  0  0  0  0
   -1.8293  -18.4513   -9.8983 C   0  0  0  0  0  0  0  0  0  0  0  0
   -0.9871  -19.0191  -14.2507 O   0  0  0  0  0  0  0  0  0  0  0  0
   -3.5779  -17.3083   -8.5868 C   0  0  0  0  0  0  0  0  0  0  0  0
  1  2  2  0
  2  3  1  0
  1  4  1  0
  4  5  1  0
  4  6  2  0
  2  7  1  0
  5  8  2  3
  7  9  2  0
  8 10  1  0
  8 11  1  0
 10 12  2  0
  6 13  1  0
 10 14  1  0
  3 15  2  0
  6 15  1  0
M  END
>  <ID>  (1) 
conformer_0

$$$$
