
     RDKit          3D

 13 14  0  0  0  0  0  0  0  0999 V2000
   -6.0729  -17.1014   -9.4694 C   0  0  0  0  0  0  0  0  0  0  0  0
   -6.8086  -16.1664   -8.8072 C   0  0  0  0  0  0  0  0  0  0  0  0
   -4.8782  -16.7468   -9.8448 C   0  0  0  0  0  0  0  0  0  0  0  0
   -4.3702  -15.5087   -9.4670 C   0  0  0  0  0  0  0  0  0  0  0  0
   -3.9389  -17.6115  -10.5773 C   0  0  0  0  0  0  0  0  0  0  0  0
   -2.8751  -18.1846   -9.8815 C   0  0  0  0  0  0  0  0  0  0  0  0
   -6.4138  -14.9660   -8.4423 C   0  0  0  0  0  0  0  0  0  0  0  0
   -4.1513  -17.7763  -11.8953 C   0  0  0  0  0  0  0  0  0  0  0  0
   -1.9502  -18.9389  -10.7077 C   0  0  0  0  0  0  0  0  0  0  0  0
   -2.1389  -19.0429  -12.0982 C   0  0  0  0  0  0  0  0  0  0  0  0
   -1.2403  -19.6961  -12.9238 O   0  0  0  0  0  0  0  0  0  0  0  0
   -3.2373  -18.4245  -12.7178 C   0  0  0  0  0  0  0  0  0  0  0  0
   -5.1018  -14.6375   -8.7853 C   0  0  0  0  0  0  0  0  0  0  0  0
  1  2  2  0
  1  3  1  0
  3  4  2  0
  3  5  1  0
  5  6  2  0
  2  7  1  0
  5  8  1  0
  6  9  1  0
  9 10  2  0
 10 11  1  0
  8 12  2  0
 10 12  1  0
  4 13  1  0
  7 13  2  0
M  END
>  <ID>  (1) 
conformer_0

$$$$
