
     RDKit          3D

 13 13  0  0  0  0  0  0  0  0999 V2000
   -3.5889  -16.2094  -10.9247 C   0  0  0  0  0  0  0  0  0  0  0  0
   -4.2711  -16.2474   -9.8834 C   0  0  0  0  0  0  0  0  0  0  0  0
   -5.6203  -16.0085   -9.7087 C   0  0  0  0  0  0  0  0  0  0  0  0
   -3.5215  -16.4318   -8.6383 C   0  0  0  0  0  0  0  0  0  0  0  0
   -3.3264  -17.4755  -11.6657 C   0  0  0  0  0  0  0  0  0  0  0  0
   -6.3024  -15.8932   -8.5548 C   0  0  0  0  0  0  0  0  0  0  0  0
   -2.7793  -17.3796  -12.9709 C   0  0  0  0  0  0  0  0  0  0  0  0
   -5.5545  -16.1656   -7.4399 C   0  0  0  0  0  0  0  0  0  0  0  0
   -7.7860  -15.4671   -8.6071 C   0  0  0  0  0  0  0  0  0  0  0  0
   -2.1479  -16.7586   -8.5957 C   0  0  0  0  0  0  0  0  0  0  0  0
   -4.2973  -16.5152   -7.4632 C   0  0  0  0  0  0  0  0  0  0  0  0
   -1.6326  -17.5218  -13.2214 O   0  0  0  0  0  0  0  0  0  0  0  0
   -3.4864  -17.5120  -14.0500 O   0  0  0  0  0  0  0  0  0  0  0  0
  1  2  1  0
  2  3  2  0
  2  4  1  0
  1  5  2  3
  3  6  1  0
  5  7  1  0
  6  8  2  0
  6  9  1  0
  4 10  1  0
  4 11  2  0
  8 11  1  0
  7 12  1  0
  7 13  2  0
M  END
>  <ID>  (1) 
conformer_0

$$$$
