
     RDKit          3D

 15 15  0  0  0  0  0  0  0  0999 V2000
   -3.5889  -16.2094  -10.9247 C   0  0  0  0  0  0  0  0  0  0  0  0
   -4.2711  -16.2474   -9.8834 C   0  0  0  0  0  0  0  0  0  0  0  0
   -3.7616  -16.6783   -8.7050 C   0  0  0  0  0  0  0  0  0  0  0  0
   -2.6312  -17.2561  -11.2075 C   0  0  0  0  0  0  0  0  0  0  0  0
   -5.4416  -15.3075   -9.7133 O   0  0  0  0  0  0  0  0  0  0  0  0
   -6.2935  -15.5990   -8.5821 C   0  0  0  0  0  0  0  0  0  0  0  0
   -2.1278  -17.4612  -12.5944 C   0  0  0  0  0  0  0  0  0  0  0  0
   -2.9538  -17.1643  -13.6606 C   0  0  0  0  0  0  0  0  0  0  0  0
   -2.0733  -17.8333  -10.1189 C   0  0  0  0  0  0  0  0  0  0  0  0
   -4.0901  -16.6551  -13.4467 O   0  0  0  0  0  0  0  0  0  0  0  0
   -2.5974  -17.5944   -8.8932 C   0  0  0  0  0  0  0  0  0  0  0  0
   -7.2147  -14.6234   -8.4869 F   0  0  0  0  0  0  0  0  0  0  0  0
   -6.8077  -16.9000   -8.6638 F   0  0  0  0  0  0  0  0  0  0  0  0
   -2.4282  -17.2997  -14.7948 O   0  0  0  0  0  0  0  0  0  0  0  0
   -5.5599  -15.6012   -7.4559 F   0  0  0  0  0  0  0  0  0  0  0  0
  1  2  1  0
  2  3  2  0
  1  4  2  0
  2  5  1  0
  5  6  1  0
  4  7  1  0
  7  8  1  0
  4  9  1  0
  8 10  1  0
  3 11  1  0
  9 11  2  0
  6 12  1  0
  6 13  1  0
  8 14  2  0
  6 15  1  0
M  END
>  <ID>  (1) 
conformer_0

$$$$
