
     RDKit          3D

 14 14  0  0  0  0  0  0  0  0999 V2000
   -2.2534  -17.3639   -8.6204 C   0  0  0  0  0  0  0  0  0  0  0  0
   -3.3029  -17.0400   -9.4755 C   0  0  0  0  0  0  0  0  0  0  0  0
   -3.1260  -17.1769  -10.8019 C   0  0  0  0  0  0  0  0  0  0  0  0
   -4.1924  -16.7702  -11.7553 C   0  0  0  0  0  0  0  0  0  0  0  0
   -2.0203  -17.9527  -11.2146 C   0  0  0  0  0  0  0  0  0  0  0  0
   -1.0336  -18.3217  -10.3828 C   0  0  0  0  0  0  0  0  0  0  0  0
   -4.4795  -16.2672   -8.9862 C   0  0  0  0  0  0  0  0  0  0  0  0
   -5.7305  -16.4300   -8.9707 C   0  0  0  0  0  0  0  0  0  0  0  0
   -3.5965  -15.6898  -12.5537 O   0  0  0  0  0  0  0  0  0  0  0  0
   -1.2173  -17.9682   -9.0579 C   0  0  0  0  0  0  0  0  0  0  0  0
   -1.9035  -18.3993  -12.7016 C   0  0  0  0  0  0  0  0  0  0  0  0
   -2.7750  -18.0860  -13.6243 O   0  0  0  0  0  0  0  0  0  0  0  0
   -0.8315  -18.9464  -13.0300 O   0  0  0  0  0  0  0  0  0  0  0  0
   -6.5366  -15.3401   -8.3189 C   0  0  0  0  0  0  0  0  0  0  0  0
  1  2  1  0
  2  3  2  0
  3  4  1  0
  3  5  1  0
  5  6  2  0
  2  7  1  0
  7  8  2  3
  4  9  1  0
  1 10  2  0
  6 10  1  0
  5 11  1  0
 11 12  1  0
 11 13  2  0
  8 14  1  0
M  END
>  <ID>  (1) 
conformer_0

$$$$
