
     RDKit          3D

 13 13  0  0  0  0  0  0  0  0999 V2000
   -5.2692  -17.2253  -10.5644 C   0  0  0  0  0  0  0  0  0  0  0  0
   -5.4870  -16.6660   -9.5767 C   0  0  0  0  0  0  0  0  0  0  0  0
   -4.9745  -16.8217   -8.4749 C   0  0  0  0  0  0  0  0  0  0  0  0
   -4.1160  -17.9333  -10.8515 C   0  0  0  0  0  0  0  0  0  0  0  0
   -3.6792  -18.4155  -12.1375 C   0  0  0  0  0  0  0  0  0  0  0  0
   -3.1620  -17.8855   -9.8113 C   0  0  0  0  0  0  0  0  0  0  0  0
   -6.7790  -15.6705   -9.4195 C   0  0  0  0  0  0  0  0  0  0  0  0
   -6.7311  -14.6006   -8.6844 C   0  0  0  0  0  0  0  0  0  0  0  0
   -1.8873  -18.5052   -9.9050 C   0  0  0  0  0  0  0  0  0  0  0  0
   -2.7826  -17.6295  -12.9868 C   0  0  0  0  0  0  0  0  0  0  0  0
   -3.6390  -17.1692   -8.6247 C   0  0  0  0  0  0  0  0  0  0  0  0
   -2.2894  -18.2001  -14.1034 O   0  0  0  0  0  0  0  0  0  0  0  0
   -2.7279  -16.3656  -13.0397 O   0  0  0  0  0  0  0  0  0  0  0  0
  1  2  2  0
  2  3  1  0
  1  4  1  0
  4  5  1  0
  4  6  2  0
  2  7  1  0
  7  8  1  0
  6  9  1  0
  5 10  1  0
  3 11  2  0
  6 11  1  0
 10 12  1  0
 10 13  2  0
M  END
>  <ID>  (1) 
conformer_0

$$$$
