
     RDKit          3D

 15 16  0  0  0  0  0  0  0  0999 V2000
   -5.2692  -17.2253  -10.5644 C   0  0  0  0  0  0  0  0  0  0  0  0
   -5.4870  -16.6660   -9.5767 C   0  0  0  0  0  0  0  0  0  0  0  0
   -4.9745  -16.8217   -8.4749 C   0  0  0  0  0  0  0  0  0  0  0  0
   -4.1160  -17.9333  -10.8515 C   0  0  0  0  0  0  0  0  0  0  0  0
   -3.6792  -18.4155  -12.1375 C   0  0  0  0  0  0  0  0  0  0  0  0
   -3.1620  -17.8855   -9.8113 C   0  0  0  0  0  0  0  0  0  0  0  0
   -6.7790  -15.6705   -9.4195 C   0  0  0  0  0  0  0  0  0  0  0  0
   -2.5461  -17.9936  -12.7846 C   0  0  0  0  0  0  0  0  0  0  0  0
   -1.8369  -18.4876   -9.9291 C   0  0  0  0  0  0  0  0  0  0  0  0
   -2.3966  -18.1207  -14.2994 C   0  0  0  0  0  0  0  0  0  0  0  0
   -7.1132  -15.1376   -8.1726 C   0  0  0  0  0  0  0  0  0  0  0  0
   -1.1000  -18.5272  -11.1847 C   0  0  0  0  0  0  0  0  0  0  0  0
   -3.4991  -17.2047   -8.6256 C   0  0  0  0  0  0  0  0  0  0  0  0
   -1.4296  -17.9647  -14.7351 O   0  0  0  0  0  0  0  0  0  0  0  0
   -1.3913  -18.5132  -12.3997 C   0  0  0  0  0  0  0  0  0  0  0  0
  1  2  2  0
  2  3  1  0
  1  4  1  0
  4  5  1  0
  4  6  2  0
  2  7  1  0
  5  8  2  0
  6  9  1  0
  8 10  1  0
  7 11  2  0
  9 12  2  0
  3 13  2  0
  6 13  1  0
 10 14  2  0
  8 15  1  0
 12 15  1  0
M  END
>  <ID>  (1) 
conformer_0

$$$$
