
     RDKit          3D

 16 17  0  0  0  0  0  0  0  0999 V2000
   -3.5889  -16.2094  -10.9247 C   0  0  0  0  0  0  0  0  0  0  0  0
   -4.2711  -16.2474   -9.8834 C   0  0  0  0  0  0  0  0  0  0  0  0
   -3.7616  -16.6783   -8.7050 C   0  0  0  0  0  0  0  0  0  0  0  0
   -2.6312  -17.2561  -11.2075 C   0  0  0  0  0  0  0  0  0  0  0  0
   -5.4416  -15.3075   -9.7133 O   0  0  0  0  0  0  0  0  0  0  0  0
   -6.2935  -15.5990   -8.5821 C   0  0  0  0  0  0  0  0  0  0  0  0
   -2.1278  -17.4612  -12.5944 C   0  0  0  0  0  0  0  0  0  0  0  0
   -2.9538  -17.1643  -13.6606 C   0  0  0  0  0  0  0  0  0  0  0  0
   -2.6315  -17.5142   -8.8476 C   0  0  0  0  0  0  0  0  0  0  0  0
   -7.2121  -14.5624   -8.4331 F   0  0  0  0  0  0  0  0  0  0  0  0
   -6.9216  -16.8091   -8.6968 F   0  0  0  0  0  0  0  0  0  0  0  0
   -1.0206  -17.9667  -12.8619 N   0  0  0  0  0  0  0  0  0  0  0  0
   -2.0880  -17.7789  -10.0900 C   0  0  0  0  0  0  0  0  0  0  0  0
   -5.6162  -15.6160   -7.4419 F   0  0  0  0  0  0  0  0  0  0  0  0
   -0.9675  -18.1286  -14.1992 N   0  0  0  0  0  0  0  0  0  0  0  0
   -2.2520  -17.6774  -14.6969 N   0  0  0  0  0  0  0  0  0  0  0  0
  1  2  1  0
  2  3  2  0
  1  4  2  0
  2  5  1  0
  5  6  1  0
  4  7  1  0
  7  8  1  0
  3  9  1  0
  6 10  1  0
  6 11  1  0
  7 12  2  0
  4 13  1  0
  9 13  2  0
  6 14  1  0
 12 15  1  0
  8 16  1  0
 15 16  2  0
M  END
>  <ID>  (1) 
conformer_0

$$$$
