
     RDKit          3D

  9  8  0  0  0  0  0  0  0  0999 V2000
   -2.8700  -17.8562  -14.4150 O   0  0  0  0  0  0  0  0  0  0  0  0
   -2.7782  -17.5946  -13.2711 C   0  0  0  0  0  0  0  0  0  0  0  0
   -3.8432  -16.8513  -12.5713 C   0  0  0  0  0  0  0  0  0  0  0  0
   -3.7410  -16.7870  -11.0737 C   0  0  0  0  0  0  0  0  0  0  0  0
   -1.5741  -17.5009  -12.7635 O   0  0  0  0  0  0  0  0  0  0  0  0
   -4.9460  -16.4569  -10.4445 C   0  0  0  0  0  0  0  0  0  0  0  0
   -4.9995  -16.7270   -8.9742 C   0  0  0  0  0  0  0  0  0  0  0  0
   -6.1244  -16.1283   -8.2816 C   0  0  0  0  0  0  0  0  0  0  0  0
   -6.7876  -15.0394   -8.9539 O   0  0  0  0  0  0  0  0  0  0  0  0
  1  2  2  0
  2  3  1  0
  3  4  1  0
  2  5  1  0
  4  6  1  0
  6  7  1  0
  7  8  1  0
  8  9  1  0
M  END
>  <ID>  (1) 
conformer_0

$$$$
