
     RDKit          3D

 16 17  0  0  0  0  0  0  0  0999 V2000
   -4.8755  -15.7486   -9.2238 C   0  0  0  0  0  0  0  0  0  0  0  0
   -6.0488  -16.2673   -8.6599 C   0  0  0  0  0  0  0  0  0  0  0  0
   -4.2375  -16.5826  -10.0857 C   0  0  0  0  0  0  0  0  0  0  0  0
   -4.7755  -17.8122  -10.4654 C   0  0  0  0  0  0  0  0  0  0  0  0
   -6.9184  -15.3966   -7.8078 F   0  0  0  0  0  0  0  0  0  0  0  0
   -3.0221  -16.1360  -10.6836 O   0  0  0  0  0  0  0  0  0  0  0  0
   -2.6155  -16.9736  -11.7584 C   0  0  0  0  0  0  0  0  0  0  0  0
   -6.5513  -17.4171   -9.0711 C   0  0  0  0  0  0  0  0  0  0  0  0
   -2.0366  -18.1109  -11.6648 C   0  0  0  0  0  0  0  0  0  0  0  0
   -1.6111  -18.5419  -10.3701 C   0  0  0  0  0  0  0  0  0  0  0  0
   -1.0239  -18.3180  -12.6059 C   0  0  0  0  0  0  0  0  0  0  0  0
   -3.7043  -16.7334  -12.8118 C   0  0  0  0  0  0  0  0  0  0  0  0
   -3.1049  -17.3151  -14.0548 C   0  0  0  0  0  0  0  0  0  0  0  0
   -0.3585  -19.2482  -12.6747 O   0  0  0  0  0  0  0  0  0  0  0  0
   -1.7908  -17.9680  -13.9356 C   0  0  0  0  0  0  0  0  0  0  0  0
   -5.9585  -18.1871   -9.9075 C   0  0  0  0  0  0  0  0  0  0  0  0
  1  2  2  0
  1  3  1  0
  3  4  2  0
  2  5  1  0
  3  6  1  0
  6  7  1  0
  2  8  1  0
  7  9  1  0
  9 10  1  0
  9 11  1  0
  7 12  1  0
 12 13  1  0
 11 14  1  0
 11 15  1  0
 13 15  2  0
  4 16  1  0
  8 16  2  0
M  END
>  <ID>  (1) 
conformer_0

$$$$
