
     RDKit          3D

 15 16  0  0  0  0  0  0  0  0999 V2000
   -2.8261  -17.6092  -14.7714 O   0  0  0  0  0  0  0  0  0  0  0  0
   -2.1778  -17.8065  -13.7556 C   0  0  0  0  0  0  0  0  0  0  0  0
   -2.7752  -17.6067  -12.5233 C   0  0  0  0  0  0  0  0  0  0  0  0
   -3.7085  -16.6339  -12.1889 C   0  0  0  0  0  0  0  0  0  0  0  0
   -0.9782  -18.3347  -13.8735 O   0  0  0  0  0  0  0  0  0  0  0  0
   -4.2632  -16.4694  -10.8700 C   0  0  0  0  0  0  0  0  0  0  0  0
   -2.2317  -18.2639  -11.3788 C   0  0  0  0  0  0  0  0  0  0  0  0
   -5.2572  -15.5633  -10.6341 C   0  0  0  0  0  0  0  0  0  0  0  0
   -5.8965  -15.8178   -9.3304 C   0  0  0  0  0  0  0  0  0  0  0  0
   -5.3120  -16.7855   -8.4279 C   0  0  0  0  0  0  0  0  0  0  0  0
   -1.2276  -19.2507  -11.6543 O   0  0  0  0  0  0  0  0  0  0  0  0
   -3.4957  -17.2286   -9.8516 C   0  0  0  0  0  0  0  0  0  0  0  0
   -4.2237  -17.1510   -8.6544 C   0  0  0  0  0  0  0  0  0  0  0  0
   -7.2419  -15.0569   -8.9913 Cl  0  0  0  0  0  0  0  0  0  0  0  0
   -2.5376  -18.0781  -10.1419 C   0  0  0  0  0  0  0  0  0  0  0  0
  1  2  2  0
  2  3  1  0
  3  4  1  0
  2  5  1  0
  4  6  2  0
  3  7  2  0
  6  8  1  0
  8  9  2  0
  9 10  1  0
  7 11  1  0
  6 12  1  0
 10 13  2  0
 12 13  1  0
  9 14  1  0
  7 15  1  0
 12 15  2  0
M  END
>  <ID>  (1) 
conformer_0

$$$$
