
     RDKit          3D

 15 16  0  0  0  0  0  0  0  0999 V2000
   -6.0729  -17.1014   -9.4694 C   0  0  0  0  0  0  0  0  0  0  0  0
   -6.8086  -16.1664   -8.8072 C   0  0  0  0  0  0  0  0  0  0  0  0
   -4.8782  -16.7468   -9.8448 C   0  0  0  0  0  0  0  0  0  0  0  0
   -4.3702  -15.5087   -9.4670 C   0  0  0  0  0  0  0  0  0  0  0  0
   -3.9389  -17.6115  -10.5773 C   0  0  0  0  0  0  0  0  0  0  0  0
   -2.8751  -18.1846   -9.8815 C   0  0  0  0  0  0  0  0  0  0  0  0
   -4.1652  -17.9898  -11.9022 C   0  0  0  0  0  0  0  0  0  0  0  0
   -3.1386  -18.5889  -12.6520 C   0  0  0  0  0  0  0  0  0  0  0  0
   -2.5703  -17.9311   -8.5312 C   0  0  0  0  0  0  0  0  0  0  0  0
   -1.8680  -18.9004  -10.7160 C   0  0  0  0  0  0  0  0  0  0  0  0
   -1.9852  -18.9883  -12.0764 C   0  0  0  0  0  0  0  0  0  0  0  0
   -3.2575  -18.7060  -14.1289 O   0  0  0  0  0  0  0  0  0  0  0  0
   -6.4530  -14.9918   -8.4209 C   0  0  0  0  0  0  0  0  0  0  0  0
   -2.2849  -17.9472  -14.8555 C   0  0  0  0  0  0  0  0  0  0  0  0
   -5.1661  -14.6982   -8.7289 C   0  0  0  0  0  0  0  0  0  0  0  0
  1  2  2  0
  1  3  1  0
  3  4  2  0
  3  5  1  0
  5  6  2  0
  5  7  1  0
  7  8  2  0
  6  9  1  0
  6 10  1  0
  8 11  1  0
 10 11  2  0
  8 12  1  0
  2 13  1  0
 12 14  1  0
  4 15  1  0
 13 15  2  0
M  END
>  <ID>  (1) 
conformer_0

$$$$
