
     RDKit          3D

 12 12  0  0  0  0  0  0  0  0999 V2000
   -5.2692  -17.2253  -10.5644 C   0  0  0  0  0  0  0  0  0  0  0  0
   -5.4870  -16.6660   -9.5767 C   0  0  0  0  0  0  0  0  0  0  0  0
   -3.9788  -17.1753  -11.2192 C   0  0  0  0  0  0  0  0  0  0  0  0
   -4.4572  -15.9272   -8.9631 C   0  0  0  0  0  0  0  0  0  0  0  0
   -6.9267  -16.5911   -8.8598 C   0  0  0  0  0  0  0  0  0  0  0  0
   -7.4128  -15.2881   -8.5207 C   0  0  0  0  0  0  0  0  0  0  0  0
   -3.2150  -16.2488   -9.4656 C   0  0  0  0  0  0  0  0  0  0  0  0
   -3.8454  -17.9176  -12.5293 C   0  0  0  0  0  0  0  0  0  0  0  0
   -2.7405  -17.4438  -13.3690 C   0  0  0  0  0  0  0  0  0  0  0  0
   -2.9635  -16.8635  -10.5442 N   0  0  0  0  0  0  0  0  0  0  0  0
   -1.7216  -17.1630  -12.9075 O   0  0  0  0  0  0  0  0  0  0  0  0
   -2.7892  -17.7071  -14.6343 O   0  0  0  0  0  0  0  0  0  0  0  0
  1  2  2  0
  1  3  1  0
  2  4  1  0
  2  5  1  0
  5  6  1  0
  4  7  2  0
  3  8  1  0
  8  9  1  0
  3 10  2  0
  7 10  1  0
  9 11  1  0
  9 12  2  0
M  END
>  <ID>  (1) 
conformer_0

$$$$
