
     RDKit          3D

 16 17  0  0  0  0  0  0  0  0999 V2000
   -6.0729  -17.1014   -9.4694 C   0  0  0  0  0  0  0  0  0  0  0  0
   -6.8086  -16.1664   -8.8072 C   0  0  0  0  0  0  0  0  0  0  0  0
   -4.8782  -16.7468   -9.8448 C   0  0  0  0  0  0  0  0  0  0  0  0
   -4.0066  -17.6439  -10.6235 C   0  0  0  0  0  0  0  0  0  0  0  0
   -2.7181  -17.8852  -10.3426 C   0  0  0  0  0  0  0  0  0  0  0  0
   -4.3699  -18.0465  -11.9287 C   0  0  0  0  0  0  0  0  0  0  0  0
   -6.3452  -14.9500   -8.4640 C   0  0  0  0  0  0  0  0  0  0  0  0
   -1.7776  -18.5905  -11.0531 C   0  0  0  0  0  0  0  0  0  0  0  0
   -0.4788  -18.9205  -10.5487 C   0  0  0  0  0  0  0  0  0  0  0  0
   -3.4636  -18.6804  -12.8573 C   0  0  0  0  0  0  0  0  0  0  0  0
   -4.2520  -15.4633   -9.4969 C   0  0  0  0  0  0  0  0  0  0  0  0
   -0.3137  -19.0283   -9.3092 O   0  0  0  0  0  0  0  0  0  0  0  0
   -7.1967  -14.1558   -7.6943 F   0  0  0  0  0  0  0  0  0  0  0  0
   -2.1754  -18.9764  -12.3590 C   0  0  0  0  0  0  0  0  0  0  0  0
   -5.1807  -14.6502   -8.7478 C   0  0  0  0  0  0  0  0  0  0  0  0
    0.5277  -19.0701  -11.2557 O   0  0  0  0  0  0  0  0  0  0  0  0
  1  2  2  0
  1  3  1  0
  3  4  1  0
  4  5  1  0
  4  6  2  0
  2  7  1  0
  5  8  2  0
  8  9  1  0
  6 10  1  0
  3 11  2  0
  9 12  1  0
  7 13  1  0
  8 14  1  0
 10 14  2  0
  7 15  2  0
 11 15  1  0
  9 16  2  0
M  END
>  <ID>  (1) 
conformer_0

$$$$
