
     RDKit          3D

 38 43  0  0  0  0  0  0  0  0999 V2000
   27.9593   10.7714   34.9606 C   0  0  0  0  0  0  0  0  0  0  0  0
   26.9593   11.7714   35.4606 C   0  0  0  0  0  0  0  0  0  0  0  0
   29.2593   10.9714   35.2606 C   0  0  0  0  0  0  0  0  0  0  0  0
   30.1593    9.9714   35.0606 N   0  0  0  0  0  0  0  0  0  0  0  0
   29.5593    8.7714   34.7606 C   0  0  0  0  0  0  0  0  0  0  0  0
   27.3593    9.5714   34.5606 C   0  0  0  0  0  0  0  0  0  0  0  0
   26.2593    9.7714   33.7606 N   0  0  0  0  0  0  0  0  0  0  0  0
   25.6593   11.0714   35.6606 C   0  0  0  0  0  0  0  0  0  0  0  0
   25.2593   10.1714   34.7606 C   0  0  0  0  0  0  0  0  0  0  0  0
   28.2593    8.5714   34.7606 N   0  0  0  0  0  0  0  0  0  0  0  0
   24.0593    9.4714   34.8606 C   0  0  0  0  0  0  0  0  0  0  0  0
   27.1593   12.8714   36.1606 N   0  0  0  0  0  0  0  0  0  0  0  0
   27.6593   13.7714   36.9606 C   0  0  0  0  0  0  0  0  0  0  0  0
   27.2593   14.2714   38.1606 N   0  0  0  0  0  0  0  0  0  0  0  0
   27.8593   15.0714   39.0606 C   0  0  0  0  0  0  0  0  0  0  0  0
   23.8593    8.3714   33.8606 C   0  0  0  0  0  0  0  0  0  0  0  0
   23.6593    9.1714   36.1606 O   0  0  0  0  0  0  0  0  0  0  0  0
   27.4593   14.9714   40.3606 C   0  0  0  0  0  0  0  0  0  0  0  0
   22.8593    8.5714   32.7606 C   0  0  0  0  0  0  0  0  0  0  0  0
   23.0593    9.6714   31.8606 C   0  0  0  0  0  0  0  0  0  0  0  0
   22.6593    9.0714   30.5606 N   0  0  0  0  0  0  0  0  0  0  0  0
   21.3593    8.4714   30.7606 C   0  0  0  0  0  0  0  0  0  0  0  0
   20.6593    9.1714   31.8606 C   0  0  0  0  0  0  0  0  0  0  0  0
   21.4593    8.7714   33.1606 C   0  0  0  0  0  0  0  0  0  0  0  0
   29.0593   14.1714   37.1606 C   0  0  0  0  0  0  0  0  0  0  0  0
   29.8593   13.7714   38.2606 C   0  0  0  0  0  0  0  0  0  0  0  0
   31.0593   13.1714   37.7606 N   0  0  0  0  0  0  0  0  0  0  0  0
   31.5593   11.8714   37.9606 N   0  0  0  0  0  0  0  0  0  0  0  0
   30.8593   12.0714   36.8606 C   0  0  0  0  0  0  0  0  0  0  0  0
   29.7593   12.0714   36.1606 C   0  0  0  0  0  0  0  0  0  0  0  0
   29.7593   15.0714   37.7606 N   0  0  0  0  0  0  0  0  0  0  0  0
   20.7593    8.1714   29.7606 O   0  0  0  0  0  0  0  0  0  0  0  0
   19.3593    9.5714   31.7606 N   0  0  0  0  0  0  0  0  0  0  0  0
   18.8593   10.9714   31.6606 C   0  0  0  0  0  0  0  0  0  0  0  0
   17.5593   11.1714   31.8606 O   0  0  0  0  0  0  0  0  0  0  0  0
   19.8593   12.0714   31.7606 C   0  0  0  0  0  0  0  0  0  0  0  0
   28.8593   15.3714   39.9606 C   0  0  0  0  0  0  0  0  0  0  0  0
   23.7593    7.0714   34.4606 O   0  0  0  0  0  0  0  0  0  0  0  0
  2  1  1  0
  3  1  1  0
  4  3  1  0
  5  4  2  0
  6  1  1  0
  7  6  2  0
  8  2  1  0
  9  7  1  0
  9  8  2  0
 10  5  1  0
 10  6  1  0
 11  9  1  0
 12  2  1  0
 13 12  2  0
 14 13  1  0
 15 14  1  0
 16 11  1  0
 17 11  1  0
 18 15  1  0
 19 16  1  0
 20 19  1  0
 21 20  1  0
 22 21  1  0
 23 22  1  0
 24 19  1  0
 24 23  1  0
 25 13  1  0
 26 25  1  0
 27 26  1  0
 29 27  1  0
 29 28  1  0
 30  3  1  0
 30 29  1  0
 31 25  1  0
 31 26  1  0
 32 22  2  0
 33 23  1  0
 34 33  1  0
 35 34  2  0
 36 34  1  0
 37 15  1  0
 37 18  1  0
 38 16  1  0
M  END
>  <ID>  (1) 
conformer_0

$$$$
