
     RDKit          3D

 20 22  0  0  0  0  0  0  0  0999 V2000
   27.7439   10.8898   35.1283 C   0  0  0  0  0  0  0  0  0  0  0  0
   26.6439   11.7898   35.5283 C   0  0  0  0  0  0  0  0  0  0  0  0
   29.0439   11.4898   35.2283 C   0  0  0  0  0  0  0  0  0  0  0  0
   30.0439   10.5898   35.2283 N   0  0  0  0  0  0  0  0  0  0  0  0
   29.6439    9.1898   35.0283 C   0  0  0  0  0  0  0  0  0  0  0  0
   27.3439    9.6898   34.6283 C   0  0  0  0  0  0  0  0  0  0  0  0
   26.2439    9.6898   33.8283 N   0  0  0  0  0  0  0  0  0  0  0  0
   25.4439   10.9898   35.6283 C   0  0  0  0  0  0  0  0  0  0  0  0
   25.1439   10.0898   34.6283 C   0  0  0  0  0  0  0  0  0  0  0  0
   23.8439    9.8898   34.0283 N   0  0  0  0  0  0  0  0  0  0  0  0
   23.5439    9.4898   32.7283 C   0  0  0  0  0  0  0  0  0  0  0  0
   30.5439    8.3898   34.4283 N   0  0  0  0  0  0  0  0  0  0  0  0
   22.4439    8.5898   32.4283 C   0  0  0  0  0  0  0  0  0  0  0  0
   22.1439    8.6898   31.0283 C   0  0  0  0  0  0  0  0  0  0  0  0
   21.3439    8.7898   33.4283 C   0  0  0  0  0  0  0  0  0  0  0  0
   23.2439    8.8898   34.9283 C   0  0  0  0  0  0  0  0  0  0  0  0
   20.0439    8.4898   33.0283 O   0  0  0  0  0  0  0  0  0  0  0  0
   21.9439    8.2898   34.7283 C   0  0  0  0  0  0  0  0  0  0  0  0
   28.3439    8.6898   34.9283 N   0  0  0  0  0  0  0  0  0  0  0  0
   21.0439    7.8898   30.6283 O   0  0  0  0  0  0  0  0  0  0  0  0
  2  1  1  0
  3  1  1  0
  4  3  1  0
  5  4  2  0
  6  1  1  0
  7  6  2  0
  8  2  1  0
  9  7  1  0
  9  8  1  0
 10  9  1  0
 11 10  1  0
 12  5  1  0
 13 11  1  0
 14 13  1  0
 15 13  1  0
 16 10  1  0
 17 15  1  0
 18 15  1  0
 18 16  1  0
 19  5  1  0
 19  6  1  0
 20 14  1  0
M  END
>  <ID>  (1) 
conformer_0

$$$$
