
     RDKit          3D

 19 21  0  0  0  0  0  0  0  0999 V2000
   27.7439   10.8898   35.1283 C   0  0  0  0  0  0  0  0  0  0  0  0
   26.5439   11.5898   35.5283 C   0  0  0  0  0  0  0  0  0  0  0  0
   29.0439   11.2898   35.3283 C   0  0  0  0  0  0  0  0  0  0  0  0
   30.1439   10.3898   35.3283 N   0  0  0  0  0  0  0  0  0  0  0  0
   29.7439    9.0898   35.0283 C   0  0  0  0  0  0  0  0  0  0  0  0
   27.4439    9.5898   34.6283 C   0  0  0  0  0  0  0  0  0  0  0  0
   26.3439    9.5898   33.8283 N   0  0  0  0  0  0  0  0  0  0  0  0
   25.5439   10.6898   35.8283 C   0  0  0  0  0  0  0  0  0  0  0  0
   25.2439    9.8898   34.6283 C   0  0  0  0  0  0  0  0  0  0  0  0
   28.5439    8.7898   34.6283 N   0  0  0  0  0  0  0  0  0  0  0  0
   23.9439    9.1898   34.5283 C   0  0  0  0  0  0  0  0  0  0  0  0
   23.7439    8.0898   33.5283 C   0  0  0  0  0  0  0  0  0  0  0  0
   23.4439    8.8898   35.8283 O   0  0  0  0  0  0  0  0  0  0  0  0
   22.9439    8.6898   32.4283 C   0  0  0  0  0  0  0  0  0  0  0  0
   22.9439   10.1898   32.4283 C   0  0  0  0  0  0  0  0  0  0  0  0
   21.5439   10.6898   32.4283 C   0  0  0  0  0  0  0  0  0  0  0  0
   20.6439    9.5898   32.8283 C   0  0  0  0  0  0  0  0  0  0  0  0
   22.2439    7.9898   33.5283 O   0  0  0  0  0  0  0  0  0  0  0  0
   19.9439    8.3898   32.8283 O   0  0  0  0  0  0  0  0  0  0  0  0
  2  1  1  0
  3  1  1  0
  4  3  2  0
  5  4  1  0
  6  1  1  0
  7  6  2  0
  8  2  1  0
  9  7  1  0
  9  8  1  0
 10  5  2  0
 10  6  1  0
 11  9  1  0
 12 11  1  0
 13 11  1  0
 14 12  1  0
 15 14  1  0
 16 15  1  0
 17 16  1  0
 18 12  1  0
 18 14  1  0
 19 17  1  0
M  END
>  <ID>  (1) 
conformer_0

$$$$
