
     RDKit          3D

 41 46  0  0  0  0  0  0  0  0999 V2000
   27.9593   10.7714   34.9606 C   0  0  0  0  0  0  0  0  0  0  0  0
   26.9593   11.7714   35.4606 C   0  0  0  0  0  0  0  0  0  0  0  0
   29.2593   10.9714   35.2606 C   0  0  0  0  0  0  0  0  0  0  0  0
   30.1593    9.9714   35.0606 N   0  0  0  0  0  0  0  0  0  0  0  0
   29.5593    8.7714   34.7606 C   0  0  0  0  0  0  0  0  0  0  0  0
   27.3593    9.5714   34.5606 C   0  0  0  0  0  0  0  0  0  0  0  0
   26.2593    9.7714   33.7606 N   0  0  0  0  0  0  0  0  0  0  0  0
   25.6593   11.0714   35.6606 C   0  0  0  0  0  0  0  0  0  0  0  0
   25.2593   10.2714   34.6606 C   0  0  0  0  0  3  0  0  0  0  0  0
   23.8593   10.1714   34.3606 N   0  0  0  0  0  0  0  0  0  0  0  0
   23.0593    8.9714   34.2606 C   0  0  0  0  0  0  0  0  0  0  0  0
   22.7593    8.5714   32.8606 C   0  0  0  0  0  0  0  0  0  0  0  0
   22.9593    9.7714   32.0606 C   0  0  0  0  0  0  0  0  0  0  0  0
   27.2593   12.8714   35.9606 N   0  0  0  0  0  0  0  0  0  0  0  0
   27.3593   13.7714   36.8606 C   0  0  0  0  0  0  0  0  0  0  0  0
   27.1593   14.4714   37.8606 N   0  0  0  0  0  0  0  0  0  0  0  0
   27.8593   14.8714   38.8606 C   0  0  0  0  0  0  0  0  0  0  0  0
   27.8593   15.7714   39.7606 C   0  0  0  0  0  0  0  0  0  0  0  0
   29.1593   14.1714   38.6606 C   0  0  0  0  0  0  0  0  0  0  0  0
   29.5593   13.7714   37.4606 C   0  0  0  0  0  0  0  0  0  0  0  0
   28.5593   13.1714   36.5606 C   0  0  0  0  0  0  0  0  0  0  0  0
   30.3593    7.6714   34.7606 N   0  0  0  0  0  0  0  0  0  0  0  0
   23.4593    8.0714   35.1606 N   0  0  0  0  0  0  0  0  0  0  0  0
   22.1593   10.0714   30.8606 C   0  0  0  0  0  0  0  0  0  0  0  0
   21.2593    8.9714   30.8606 N   0  0  0  0  0  0  0  0  0  0  0  0
   19.8593    9.0714   30.4606 C   0  0  0  0  0  0  0  0  0  0  0  0
   20.4593    8.8714   31.9606 C   0  0  0  0  0  0  0  0  0  0  0  0
   19.7593    8.2714   32.7606 O   0  0  0  0  0  0  0  0  0  0  0  0
   18.8593    7.9714   30.3606 C   0  0  0  0  0  0  0  0  0  0  0  0
   19.2593    6.5714   30.6606 O   0  0  0  0  0  0  0  0  0  0  0  0
   17.9593    8.2714   29.2606 C   0  0  0  0  0  0  0  0  0  0  0  0
   17.0593    9.3714   29.4606 O   0  0  0  0  0  0  0  0  0  0  0  0
   18.1593    7.6714   27.9606 C   0  0  0  0  0  0  0  0  0  0  0  0
   17.2593    8.3714   27.0606 O   0  0  0  0  0  0  0  0  0  0  0  0
   28.2593    8.5714   34.7606 N   0  0  0  0  0  0  0  0  0  0  0  0
   19.3593    7.5714   27.1606 C   0  0  0  0  0  0  0  0  0  0  0  0
   19.1593    7.0714   25.7606 C   0  0  0  0  0  0  0  0  0  0  0  0
   18.1593    6.0714   25.5606 C   0  0  0  0  0  0  0  0  0  0  0  0
   23.9593    7.0714   34.3606 O   0  0  0  0  0  0  0  0  0  0  0  0
   21.7593    9.0714   33.8606 C   0  0  0  0  0  0  0  0  0  0  0  0
   22.8593    6.9714   34.9606 C   0  0  0  0  0  0  0  0  0  0  0  0
  2  1  1  0
  3  1  2  0
  4  3  1  0
  5  4  2  0
  6  1  1  0
  7  6  2  0
  8  2  1  0
  9  7  1  0
  9  8  1  0
 10  9  1  0
 11 10  1  0
 12 11  1  0
 13 12  1  0
 14  2  1  0
 15 14  1  0
 16 15  2  0
 17 16  1  0
 18 17  1  0
 19 17  2  0
 20 19  1  0
 21 14  1  0
 21 15  1  0
 21 20  2  0
 22  5  1  0
 23 11  1  0
 24 13  1  0
 25 24  1  0
 26 25  1  0
 27 25  1  0
 27 26  1  0
 28 27  1  0
 29 26  1  0
 30 29  1  0
 31 29  1  0
 32 31  1  0
 33 31  1  0
 34 33  1  0
 35  5  1  0
 35  6  1  0
 36 33  1  0
 37 36  1  0
 38 37  1  0
 40 11  1  0
 40 12  1  0
 41 23  1  0
 41 39  1  0
M  END
>  <ID>  (1) 
conformer_0

$$$$
