
     RDKit          3D

 27 29  0  0  0  0  0  0  0  0999 V2000
   27.7439   10.8898   35.1283 C   0  0  0  0  0  0  0  0  0  0  0  0
   26.5439   11.5898   35.5283 C   0  0  0  0  0  0  0  0  0  0  0  0
   29.0439   11.2898   35.3283 C   0  0  0  0  0  0  0  0  0  0  0  0
   30.1439   10.3898   35.3283 N   0  0  0  0  0  0  0  0  0  0  0  0
   29.7439    9.0898   35.0283 C   0  0  0  0  0  0  0  0  0  0  0  0
   27.4439    9.5898   34.6283 C   0  0  0  0  0  0  0  0  0  0  0  0
   26.3439    9.5898   33.8283 N   0  0  0  0  0  0  0  0  0  0  0  0
   25.5439   10.6898   35.8283 C   0  0  0  0  0  0  0  0  0  0  0  0
   25.1439    9.7898   34.6283 C   0  0  0  0  0  0  0  0  0  0  0  0
   28.5439    8.6898   34.7283 N   0  0  0  0  0  0  0  0  0  0  0  0
   23.8439    9.5898   34.2283 C   0  0  0  0  0  0  0  0  0  0  0  0
   23.0439    8.3898   34.5283 C   0  0  0  0  0  0  0  0  0  0  0  0
   23.5439    9.8898   32.8283 C   0  0  0  0  0  0  0  0  0  0  0  0
   22.4439    9.0898   32.2283 C   0  0  0  0  0  0  0  0  0  0  0  0
   21.2439    8.8898   32.8283 C   0  0  0  0  0  0  0  0  0  0  0  0
   22.7439    8.9898   30.8283 N   0  0  0  0  0  0  0  0  0  0  0  0
   21.6439    8.3898   34.2283 C   0  0  0  0  0  0  0  0  0  0  0  0
   22.2439    9.1898   29.6283 C   0  0  0  0  0  0  0  0  0  0  0  0
   21.5439    8.6898   28.6283 C   0  0  0  0  0  0  0  0  0  0  0  0
   22.3439    8.3898   27.4283 C   0  0  0  0  0  0  0  0  0  0  0  0
   20.1439    8.9898   28.2283 C   0  0  0  0  0  0  0  0  0  0  0  0
   19.7439    8.4898   26.9283 C   0  0  0  0  0  0  0  0  0  0  0  0
   18.6439    7.5898   26.7283 N   0  0  0  0  0  0  0  0  0  0  0  0
   17.7439    7.8898   25.6283 C   0  0  0  0  0  0  0  0  0  0  0  0
   16.9439    6.6898   25.2283 C   0  0  0  0  0  0  0  0  0  0  0  0
   15.5439    6.8898   25.0283 C   0  0  0  0  0  0  0  0  0  0  0  0
   14.4439    6.5898   25.9283 C   0  0  0  0  0  0  0  0  0  0  0  0
  2  1  1  0
  3  1  1  0
  4  3  2  0
  5  4  1  0
  6  1  1  0
  7  6  2  0
  8  2  1  0
  9  7  1  0
  9  8  1  0
 10  5  2  0
 10  6  1  0
 11  9  1  0
 12 11  1  0
 13 11  1  0
 14 13  1  0
 15 14  1  0
 16 14  1  0
 17 12  1  0
 17 15  1  0
 18 16  1  0
 19 18  1  0
 20 19  1  0
 21 19  1  0
 22 21  1  0
 23 22  1  0
 24 23  1  0
 25 24  1  0
 26 25  1  0
 27 26  1  0
M  END
>  <ID>  (1) 
conformer_0

$$$$
