
     RDKit          3D

 22 24  0  0  0  0  0  0  0  0999 V2000
   27.7439   10.8898   35.1283 C   0  0  0  0  0  0  0  0  0  0  0  0
   26.5439   11.5898   35.5283 C   0  0  0  0  0  0  0  0  0  0  0  0
   29.0439   11.2898   35.3283 C   0  0  0  0  0  0  0  0  0  0  0  0
   30.1439   10.3898   35.3283 N   0  0  0  0  0  0  0  0  0  0  0  0
   29.7439    9.0898   35.0283 C   0  0  0  0  0  0  0  0  0  0  0  0
   27.4439    9.5898   34.6283 C   0  0  0  0  0  0  0  0  0  0  0  0
   26.3439    9.5898   33.8283 N   0  0  0  0  0  0  0  0  0  0  0  0
   25.5439   10.6898   35.8283 C   0  0  0  0  0  0  0  0  0  0  0  0
   25.1439    9.7898   34.6283 C   0  0  0  0  0  0  0  0  0  0  0  0
   28.5439    8.7898   34.6283 N   0  0  0  0  0  0  0  0  0  0  0  0
   23.8439    9.1898   34.7283 C   0  0  0  0  0  0  0  0  0  0  0  0
   23.6439    8.1898   33.7283 C   0  0  0  0  0  0  0  0  0  0  0  0
   23.2439    8.5898   32.4283 N   0  0  0  0  0  0  0  0  0  0  0  0
   22.1439    8.6898   31.6283 C   0  0  0  0  0  0  0  0  0  0  0  0
   22.3439    9.3898   30.3283 C   0  0  0  0  0  0  0  0  0  0  0  0
   24.0439    7.0898   33.7283 O   0  0  0  0  0  0  0  0  0  0  0  0
   20.9439    9.2898   32.2283 C   0  0  0  0  0  0  0  0  0  0  0  0
   21.2439   10.1898   29.8283 C   0  0  0  0  0  0  0  0  0  0  0  0
   20.0439    8.5898   32.9283 O   0  0  0  0  0  0  0  0  0  0  0  0
   20.9439   10.6898   32.2283 N   0  0  0  0  0  0  0  0  0  0  0  0
   20.9439   11.1898   30.9283 C   0  0  0  0  0  0  0  0  0  0  0  0
   21.1439   11.5898   33.3283 C   0  0  0  0  0  0  0  0  0  0  0  0
  2  1  1  0
  3  1  1  0
  4  3  2  0
  5  4  1  0
  6  1  1  0
  7  6  2  0
  8  2  1  0
  9  7  1  0
  9  8  1  0
 10  5  2  0
 10  6  1  0
 11  9  1  0
 12 11  1  0
 13 12  1  0
 14 13  1  0
 15 14  1  0
 16 12  2  0
 17 14  1  0
 18 15  1  0
 19 17  2  0
 20 17  1  0
 21 18  1  0
 21 20  1  0
 22 20  1  0
M  END
>  <ID>  (1) 
conformer_0

$$$$
