
     RDKit          3D

 31 37  0  0  0  0  0  0  0  0999 V2000
   27.9593   10.7714   34.9606 C   0  0  0  0  0  0  0  0  0  0  0  0
   26.9593   11.7714   35.4606 C   0  0  0  0  0  0  0  0  0  0  0  0
   29.2593   10.9714   35.2606 C   0  0  0  0  0  0  0  0  0  0  0  0
   30.1593    9.9714   35.0606 N   0  0  0  0  0  0  0  0  0  0  0  0
   29.5593    8.7714   34.7606 C   0  0  0  0  0  0  0  0  0  0  0  0
   27.3593    9.5714   34.5606 C   0  0  0  0  0  0  0  0  0  0  0  0
   26.2593    9.7714   33.7606 N   0  0  0  0  0  0  0  0  0  0  0  0
   25.6593   11.0714   35.6606 C   0  0  0  0  0  0  0  0  0  0  0  0
   25.2593   10.2714   34.6606 C   0  0  0  0  0  3  0  0  0  0  0  0
   23.8593   10.1714   34.3606 N   0  0  0  0  0  0  0  0  0  0  0  0
   23.0593    8.9714   34.2606 C   0  0  0  0  0  0  0  0  0  0  0  0
   22.7593    8.5714   32.8606 C   0  0  0  0  0  0  0  0  0  0  0  0
   23.2593    9.5714   31.9606 C   0  0  0  0  0  0  0  0  0  0  0  0
   27.2593   12.8714   36.0606 N   0  0  0  0  0  0  0  0  0  0  0  0
   27.5593   13.8714   36.7606 C   0  0  0  0  0  0  0  0  0  0  0  0
   27.4593   14.1714   38.0606 N   0  0  0  0  0  0  0  0  0  0  0  0
   28.2593   14.8714   38.9606 C   0  0  0  0  0  0  0  0  0  0  0  0
   27.9593   14.5714   40.2606 N   0  0  0  0  0  0  0  0  0  0  0  0
   26.5593   14.3714   40.3606 N   0  0  0  0  0  0  0  0  0  0  0  0
   30.3593    7.6714   34.8606 N   0  0  0  0  0  0  0  0  0  0  0  0
   29.6593   14.8714   38.4606 C   0  0  0  0  0  0  0  0  0  0  0  0
   29.9593   13.9714   37.3606 C   0  0  0  0  0  3  0  0  0  0  0  0
   31.0593   13.1714   37.4606 N   0  0  0  0  0  0  0  0  0  0  0  0
   30.9593   12.1714   36.5606 N   0  0  0  0  0  0  0  0  0  0  0  0
   29.7593   12.0714   36.0606 C   0  0  0  0  0  0  0  0  0  0  0  0
   31.7593   13.4714   38.6606 C   0  0  0  0  0  0  0  0  0  0  0  0
   27.1593   15.1714   41.1606 C   0  0  0  0  0  0  0  0  0  0  0  0
   27.5593   14.9714   42.5606 C   0  0  0  0  0  0  0  0  0  0  0  0
   24.1593    8.1714   33.6606 C   0  0  0  0  0  0  0  0  0  0  0  0
   28.2593    8.5714   34.7606 N   0  0  0  0  0  0  0  0  0  0  0  0
   28.7593   13.0714   36.5606 C   0  0  0  0  0  0  0  0  0  0  0  0
  2  1  1  0
  3  1  2  0
  4  3  1  0
  5  4  2  0
  6  1  1  0
  7  6  2  0
  8  2  1  0
  9  7  1  0
  9  8  1  0
 10  9  1  0
 11 10  1  0
 12 11  1  0
 13 12  1  0
 14  2  1  0
 15 14  1  0
 16 15  2  0
 17 16  1  0
 18 17  1  0
 20  5  1  0
 21 17  2  0
 22 21  1  0
 23 22  1  0
 24 23  1  0
 25  3  1  0
 25 24  2  0
 26 23  1  0
 27 18  1  0
 27 19  1  0
 28 27  1  0
 29 11  1  0
 29 12  1  0
 30  5  1  0
 30  6  1  0
 31 14  1  0
 31 15  1  0
 31 22  1  0
 31 25  1  0
M  END
>  <ID>  (1) 
conformer_0

$$$$
