
     RDKit          3D

 40 43  0  0  0  0  0  0  0  0999 V2000
   27.9593   10.7714   34.9606 C   0  0  0  0  0  0  0  0  0  0  0  0
   26.9593   11.7714   35.4606 C   0  0  0  0  0  0  0  0  0  0  0  0
   29.2593   10.9714   35.2606 C   0  0  0  0  0  0  0  0  0  0  0  0
   30.1593    9.9714   35.0606 N   0  0  0  0  0  0  0  0  0  0  0  0
   29.5593    8.7714   34.7606 C   0  0  0  0  0  0  0  0  0  0  0  0
   27.3593    9.5714   34.5606 C   0  0  0  0  0  0  0  0  0  0  0  0
   26.2593    9.7714   33.7606 N   0  0  0  0  0  0  0  0  0  0  0  0
   25.6593   11.0714   35.6606 C   0  0  0  0  0  0  0  0  0  0  0  0
   25.2593   10.1714   34.7606 C   0  0  0  0  0  0  0  0  0  0  0  0
   28.2593    8.5714   34.7606 N   0  0  0  0  0  0  0  0  0  0  0  0
   24.0593    9.4714   34.8606 C   0  0  0  0  0  0  0  0  0  0  0  0
   27.1593   12.8714   36.1606 N   0  0  0  0  0  0  0  0  0  0  0  0
   27.6593   13.7714   36.9606 C   0  0  0  0  0  0  0  0  0  0  0  0
   27.2593   14.2714   38.1606 N   0  0  0  0  0  0  0  0  0  0  0  0
   27.8593   15.0714   39.0606 C   0  0  0  0  0  0  0  0  0  0  0  0
   23.8593    8.3714   33.8606 C   0  0  0  0  0  0  0  0  0  0  0  0
   23.6593    9.1714   36.1606 O   0  0  0  0  0  0  0  0  0  0  0  0
   27.4593   14.9714   40.3606 C   0  0  0  0  0  0  0  0  0  0  0  0
   22.8593    8.5714   32.7606 C   0  0  0  0  0  0  0  0  0  0  0  0
   23.0593    9.6714   31.8606 C   0  0  0  0  0  0  0  0  0  0  0  0
   22.6593    9.0714   30.5606 N   0  0  0  0  0  0  0  0  0  0  0  0
   21.7593    9.6714   29.7606 C   0  0  0  0  0  0  0  0  0  0  0  0
   21.4593    8.8714   28.5606 C   0  0  0  0  0  0  0  0  0  0  0  0
   22.5593    8.5714   27.7606 C   0  0  0  0  0  0  0  0  0  0  0  0
   20.1593    8.7714   27.8606 C   0  0  0  0  0  0  0  0  0  0  0  0
   20.2593    8.0714   26.6606 C   0  0  0  0  0  0  0  0  0  0  0  0
   19.1593    7.1714   26.2606 C   0  0  0  0  0  0  0  0  0  0  0  0
   19.1593    6.2714   25.0606 C   0  0  0  0  0  0  0  0  0  0  0  0
   21.1593   10.6714   30.0606 O   0  0  0  0  0  0  0  0  0  0  0  0
   29.0593   14.0714   37.1606 N   0  0  0  0  0  0  0  0  0  0  0  0
   29.8593   14.1714   38.1606 C   0  0  0  0  0  0  0  0  0  0  0  0
   29.5593   15.2714   37.2606 C   0  0  0  0  0  0  0  0  0  0  0  0
   17.9593    6.2714   24.2606 C   0  0  0  0  0  0  0  0  0  0  0  0
   16.7593    6.7714   24.8606 C   0  0  0  0  0  0  0  0  0  0  0  0
   15.4593    6.6714   24.1606 C   0  0  0  0  0  0  0  0  0  0  0  0
   14.4593    6.8714   25.2606 C   0  0  0  0  0  0  0  0  0  0  0  0
   21.4593    8.6714   33.2606 C   0  0  0  0  0  0  0  0  0  0  0  0
   30.6593   16.0714   37.0606 C   0  0  0  0  0  0  0  0  0  0  0  0
   30.9593   13.3714   38.5606 C   0  0  0  0  0  0  0  0  0  0  0  0
   28.8593   15.2714   39.8606 O   0  0  0  0  0  0  0  0  0  0  0  0
  2  1  1  0
  3  1  2  0
  4  3  1  0
  5  4  2  0
  6  1  1  0
  7  6  2  0
  8  2  1  0
  9  7  1  0
  9  8  2  0
 10  5  1  0
 10  6  1  0
 11  9  1  0
 12  2  1  0
 13 12  2  3
 14 13  1  0
 15 14  1  0
 16 11  1  0
 17 11  1  0
 18 15  1  0
 19 16  1  0
 20 19  1  0
 21 20  1  0
 22 21  1  0
 23 22  1  0
 24 23  1  0
 25 23  1  0
 26 25  1  0
 27 26  2  3
 28 27  1  0
 29 22  2  0
 30 13  1  0
 31 30  1  0
 32 30  1  0
 32 31  1  0
 33 28  1  0
 34 33  2  3
 35 34  1  0
 36 35  1  0
 37 19  1  0
 38 32  2  0
 39 31  1  0
 40 15  1  0
 40 18  1  0
M  END
>  <ID>  (1) 
conformer_0

$$$$
