
     RDKit          3D

 31 33  0  0  0  0  0  0  0  0999 V2000
   27.7439   10.8898   35.1283 C   0  0  0  0  0  0  0  0  0  0  0  0
   26.5439   11.5898   35.5283 C   0  0  0  0  0  0  0  0  0  0  0  0
   28.9439   11.4898   35.3283 C   0  0  0  0  0  0  0  0  0  0  0  0
   30.0439   10.5898   35.4283 N   0  0  0  0  0  0  0  0  0  0  0  0
   29.7439    9.3898   35.0283 C   0  0  0  0  0  0  0  0  0  0  0  0
   27.4439    9.5898   34.6283 C   0  0  0  0  0  3  0  0  0  0  0  0
   26.1439    9.5898   34.1283 N   0  0  0  0  0  0  0  0  0  0  0  0
   25.1439    9.7898   35.0283 C   0  0  0  0  0  0  0  0  0  0  0  0
   25.4439   10.7898   36.0283 C   0  0  0  0  0  0  0  0  0  0  0  0
   24.0439    8.8898   35.3283 N   0  0  0  0  0  0  0  0  0  0  0  0
   23.3439    8.3898   34.1283 C   0  0  0  0  0  0  0  0  0  0  0  0
   23.4439    9.4898   33.1283 C   0  0  0  0  0  0  0  0  0  0  0  0
   22.4439    9.5898   32.1283 C   0  0  0  0  0  0  0  0  0  0  0  0
   22.1439    8.0898   34.4283 O   0  0  0  0  0  0  0  0  0  0  0  0
   22.8439    9.1898   30.8283 N   0  0  0  0  0  0  0  0  0  0  0  0
   21.8439    9.2898   29.7283 C   0  0  0  0  0  0  0  0  0  0  0  0
   21.5439   10.6898   31.9283 C   0  0  0  0  0  0  0  0  0  0  0  0
   22.1439    8.7898   28.4283 C   0  0  0  0  0  0  0  0  0  0  0  0
   21.1439    8.4898   27.5283 C   0  0  0  0  0  0  0  0  0  0  0  0
   30.4439    8.4898   34.3283 N   0  0  0  0  0  0  0  0  0  0  0  0
   19.8439    9.1898   27.7283 C   0  0  0  0  0  0  0  0  0  0  0  0
   18.7439    8.6898   27.0283 N   0  0  0  0  0  0  0  0  0  0  0  0
   17.4439    8.5898   27.3283 C   0  0  0  0  0  0  0  0  0  0  0  0
   17.1439    8.2898   28.4283 O   0  0  0  0  0  0  0  0  0  0  0  0
   16.4439    8.3898   26.2283 C   0  0  0  0  0  0  0  0  0  0  0  0
   15.4439    7.3898   26.2283 C   0  0  0  0  0  0  0  0  0  0  0  0
   14.0439    7.8898   26.1283 C   0  0  0  0  0  0  0  0  0  0  0  0
   14.0439    9.2898   25.7283 C   0  0  0  0  0  0  0  0  0  0  0  0
   16.4439    9.2898   25.3283 O   0  0  0  0  0  0  0  0  0  0  0  0
   15.1439    9.6898   24.8283 C   0  0  0  0  0  0  0  0  0  0  0  0
   28.4439    8.7898   35.1283 N   0  0  0  0  0  0  0  0  0  0  0  0
  2  1  1  0
  3  1  1  0
  4  3  1  0
  5  4  2  0
  6  1  1  0
  7  6  1  0
  8  7  2  0
  9  2  1  0
  9  8  1  0
 10  8  1  0
 11 10  1  0
 12 11  1  0
 13 12  1  0
 14 11  1  0
 15 13  1  0
 16 15  2  3
 17 13  1  0
 18 16  1  0
 19 18  1  0
 20  5  1  0
 21 19  2  3
 22 21  1  0
 23 22  1  0
 24 23  2  0
 25 23  1  0
 26 25  1  0
 27 26  1  0
 28 27  1  0
 29 25  1  0
 30 28  1  0
 30 29  1  0
 31  5  1  0
 31  6  1  0
M  END
>  <ID>  (1) 
conformer_0

$$$$
