
     RDKit          3D

 16 18  0  0  0  0  0  0  0  0999 V2000
   27.9593   10.7714   34.9606 C   0  0  0  0  0  0  0  0  0  0  0  0
   26.9593   11.7714   35.4606 C   0  0  0  0  0  0  0  0  0  0  0  0
   29.2593   10.9714   35.2606 C   0  0  0  0  0  0  0  0  0  0  0  0
   30.1593    9.9714   35.0606 N   0  0  0  0  0  0  0  0  0  0  0  0
   29.4593    8.7714   34.9606 C   0  0  0  0  0  0  0  0  0  0  0  0
   27.3593    9.5714   34.6606 C   0  0  0  0  0  0  0  0  0  0  0  0
   26.0593    9.8714   34.3606 N   0  0  0  0  0  0  0  0  0  0  0  0
   25.7593   10.8714   35.1606 N   0  0  0  0  0  0  0  0  0  0  0  0
   24.9593    9.0714   33.7606 C   0  0  0  0  0  0  0  0  0  0  0  0
   23.7593    9.1714   34.5606 C   0  0  0  0  0  0  0  0  0  0  0  0
   22.7593    8.1714   34.3606 C   0  0  0  0  0  0  0  0  0  0  0  0
   21.5593    8.5714   33.5606 C   0  0  0  0  0  0  0  0  0  0  0  0
   21.9593    9.6714   32.6606 C   0  0  0  0  0  0  0  0  0  0  0  0
   23.2593    9.6714   32.0606 C   0  0  0  0  0  0  0  0  0  0  0  0
   28.2593    8.6714   34.4606 N   0  0  0  0  0  0  0  0  0  0  0  0
   24.4593    8.9714   32.4606 C   0  0  0  0  0  0  0  0  0  0  0  0
  2  1  1  0
  3  1  2  0
  4  3  1  0
  5  4  2  0
  6  1  1  0
  7  6  1  0
  8  2  2  0
  8  7  1  0
  9  7  1  0
 10  9  1  0
 11 10  1  0
 12 11  1  0
 13 12  1  0
 14 13  1  0
 15  5  1  0
 15  6  2  0
 16  9  1  0
 16 14  1  0
M  END
>  <ID>  (1) 
conformer_0

$$$$
