
     RDKit          3D

 41 46  0  0  0  0  0  0  0  0999 V2000
   27.9593   10.7714   34.9606 C   0  0  0  0  0  0  0  0  0  0  0  0
   26.9593   11.7714   35.4606 C   0  0  0  0  0  0  0  0  0  0  0  0
   29.2593   10.9714   35.2606 C   0  0  0  0  0  0  0  0  0  0  0  0
   30.1593    9.9714   35.0606 N   0  0  0  0  0  0  0  0  0  0  0  0
   29.4593    8.7714   34.9606 C   0  0  0  0  0  0  0  0  0  0  0  0
   27.3593    9.5714   34.6606 C   0  0  0  0  0  0  0  0  0  0  0  0
   25.9593    9.8714   34.4606 N   0  0  0  0  0  0  0  0  0  0  0  0
   25.7593   10.9714   35.3606 N   0  0  0  0  0  0  0  0  0  0  0  0
   24.7593    9.1714   34.2606 C   0  0  0  0  0  0  0  0  0  0  0  0
   23.9593    9.4714   33.1606 C   0  0  0  0  0  0  0  0  0  0  0  0
   22.7593    8.6714   32.7606 C   0  0  0  0  0  0  0  0  0  0  0  0
   22.2593    9.0714   31.4606 C   0  0  0  0  0  0  0  0  0  0  0  0
   27.2593   12.8714   36.0606 C   0  0  0  0  0  0  0  0  0  0  0  0
   27.3593   13.5714   37.0606 N   0  0  0  0  0  0  0  0  0  0  0  0
   27.4593   14.2714   38.0606 N   0  0  0  0  0  0  0  0  0  0  0  0
   28.3593   14.4714   38.9606 C   0  0  0  0  0  0  0  0  0  0  0  0
   29.6593   14.2714   38.4606 C   0  0  0  0  0  0  0  0  0  0  0  0
   29.5593   14.0714   37.1606 N   0  0  0  0  0  0  0  0  0  0  0  0
   28.6593   13.0714   36.5606 C   0  0  0  0  0  0  0  0  0  0  0  0
   30.2593    7.7714   34.7606 N   0  0  0  0  0  0  0  0  0  0  0  0
   30.7593   13.8714   36.5606 N   0  0  0  0  0  0  0  0  0  0  0  0
   31.7593   14.7714   37.1606 C   0  0  0  0  0  0  0  0  0  0  0  0
   31.7593   13.4714   37.4606 C   0  0  0  0  0  0  0  0  0  0  0  0
   20.8593    8.8714   31.0606 C   0  0  0  0  0  0  0  0  0  0  0  0
   20.6593    8.4714   29.6606 N   0  0  0  0  0  0  0  0  0  0  0  0
   19.4593    8.8714   29.0606 C   0  0  0  0  0  0  0  0  0  0  0  0
   19.5593    9.2714   27.6606 C   0  0  0  0  0  0  0  0  0  0  0  0
   18.8593    9.8714   29.9606 C   0  0  0  0  0  0  0  0  0  0  0  0
   20.1593    8.2714   26.7606 C   0  0  0  0  0  0  0  0  0  0  0  0
   19.2593    7.2714   26.2606 C   0  0  0  0  0  0  0  0  0  0  0  0
   17.8593    7.5714   25.9606 C   0  0  0  0  0  0  0  0  0  0  0  0
   18.1593    7.1714   27.3606 O   0  0  0  0  0  0  0  0  0  0  0  0
   17.1593    6.5714   25.1606 C   0  0  0  0  0  0  0  0  0  0  0  0
   17.9593    5.7714   24.4606 O   0  0  0  0  0  0  0  0  0  0  0  0
   15.8593    6.9714   24.7606 C   0  0  0  0  0  0  0  0  0  0  0  0
   15.3593    6.5714   23.5606 O   0  0  0  0  0  0  0  0  0  0  0  0
   28.1593    8.4714   34.6606 N   0  0  0  0  0  0  0  0  0  0  0  0
   23.9593    8.9714   35.4606 N   0  0  0  0  0  0  0  0  0  0  0  0
   15.2593    7.7714   25.8606 C   0  0  0  0  0  0  0  0  0  0  0  0
   14.1593    7.1714   26.5606 O   0  0  0  0  0  0  0  0  0  0  0  0
   18.0593    9.2714   31.0606 O   0  0  0  0  0  0  0  0  0  0  0  0
  2  1  1  0
  3  1  1  0
  4  3  1  0
  5  4  2  0
  6  1  2  0
  7  6  1  0
  8  2  2  0
  8  7  1  0
  9  7  1  0
 10  9  1  0
 11 10  1  0
 12 11  1  0
 13  2  1  0
 14 13  1  0
 15 14  1  0
 16 15  1  0
 17 16  2  0
 18 17  1  0
 19 13  1  0
 19 14  1  0
 19 18  1  0
 20  5  1  0
 21 18  1  0
 22 21  1  0
 23 21  1  0
 23 22  1  0
 24 12  1  0
 25 24  1  0
 26 25  1  0
 27 26  1  0
 28 26  1  0
 29 27  1  0
 30 29  1  0
 31 30  1  0
 32 30  1  0
 32 31  1  0
 33 31  1  0
 34 33  1  0
 35 33  1  0
 36 35  1  0
 37  5  1  0
 37  6  1  0
 38  9  1  0
 39 35  1  0
 40 39  1  0
 41 28  1  0
M  END
>  <ID>  (1) 
conformer_0

$$$$
