
     RDKit          3D

 20 21  0  0  0  0  0  0  0  0999 V2000
   27.7439   10.8898   35.1283 C   0  0  0  0  0  0  0  0  0  0  0  0
   26.5439   11.5898   35.5283 C   0  0  0  0  0  0  0  0  0  0  0  0
   28.9439   11.4898   35.3283 C   0  0  0  0  0  0  0  0  0  0  0  0
   30.0439   10.5898   35.4283 N   0  0  0  0  0  0  0  0  0  0  0  0
   29.7439    9.3898   35.0283 C   0  0  0  0  0  0  0  0  0  0  0  0
   27.4439    9.5898   34.6283 C   0  0  0  0  0  0  0  0  0  0  0  0
   26.1439    9.5898   34.1283 N   0  0  0  0  0  0  0  0  0  0  0  0
   25.1439    9.7898   35.0283 C   0  0  0  0  0  0  0  0  0  0  0  0
   25.5439   10.7898   35.9283 C   0  0  0  0  0  0  0  0  0  0  0  0
   24.0439    8.8898   35.3283 N   0  0  0  0  0  0  0  0  0  0  0  0
   23.2439    8.4898   34.2283 C   0  0  0  0  0  0  0  0  0  0  0  0
   23.5439    9.1898   33.0283 C   0  0  0  0  0  0  0  0  0  0  0  0
   22.5439    9.7898   32.1283 C   0  0  0  0  0  0  0  0  0  0  0  0
   21.9439    8.1898   34.4283 O   0  0  0  0  0  0  0  0  0  0  0  0
   22.7439    9.1898   30.8283 N   0  0  0  0  0  0  0  0  0  0  0  0
   21.9439    9.4898   29.7283 C   0  0  0  0  0  0  0  0  0  0  0  0
   21.6439    8.5898   28.6283 C   0  0  0  0  0  0  0  0  0  0  0  0
   22.6439    8.5898   27.5283 C   0  0  0  0  0  0  0  0  0  0  0  0
   28.5439    8.6898   34.7283 C   0  0  0  0  0  0  0  0  0  0  0  0
   20.9439   10.4898   30.1283 C   0  0  0  0  0  0  0  0  0  0  0  0
  2  1  1  0
  3  1  1  0
  4  3  2  0
  5  4  1  0
  6  1  2  0
  7  6  1  0
  8  7  2  0
  9  2  1  0
  9  8  1  0
 10  8  1  0
 11 10  1  0
 12 11  1  0
 13 12  1  0
 14 11  2  0
 15 13  1  0
 16 15  1  0
 17 16  1  0
 18 17  1  0
 19  5  2  0
 19  6  1  0
 20 16  1  0
M  END
>  <ID>  (1) 
conformer_0

$$$$
