
     RDKit          3D

 27 31  0  0  0  0  0  0  0  0999 V2000
   27.9593   10.7714   34.9606 C   0  0  0  0  0  0  0  0  0  0  0  0
   26.9593   11.7714   35.4606 C   0  0  0  0  0  0  0  0  0  0  0  0
   29.2593   10.9714   35.2606 C   0  0  0  0  0  0  0  0  0  0  0  0
   30.1593    9.9714   35.0606 N   0  0  0  0  0  0  0  0  0  0  0  0
   29.5593    8.7714   34.7606 C   0  0  0  0  0  0  0  0  0  0  0  0
   27.3593    9.5714   34.5606 C   0  0  0  0  0  0  0  0  0  0  0  0
   26.2593    9.7714   33.7606 N   0  0  0  0  0  0  0  0  0  0  0  0
   25.6593   11.0714   35.6606 C   0  0  0  0  0  0  0  0  0  0  0  0
   25.2593   10.1714   34.7606 C   0  0  0  0  0  0  0  0  0  0  0  0
   23.8593   10.0714   34.5606 N   0  0  0  0  0  0  0  0  0  0  0  0
   23.4593    9.8714   33.1606 C   0  0  0  0  0  0  0  0  0  0  0  0
   22.8593    8.6714   32.7606 C   0  0  0  0  0  0  0  0  0  0  0  0
   23.2593    8.9714   35.2606 C   0  0  0  0  0  0  0  0  0  0  0  0
   27.3593   12.7714   36.0606 N   0  0  0  0  0  0  0  0  0  0  0  0
   27.6593   13.8714   36.7606 C   0  0  0  0  0  0  0  0  0  0  0  0
   27.4593   14.1714   37.9606 N   0  0  0  0  0  0  0  0  0  0  0  0
   22.7593    7.9714   34.2606 C   0  0  0  0  0  0  0  0  0  0  0  0
   28.0593   14.4714   39.0606 C   0  0  0  0  0  0  0  0  0  0  0  0
   27.4593   14.3714   40.2606 N   0  0  0  0  0  0  0  0  0  0  0  0
   28.2593   14.2714   41.3606 N   0  0  0  0  0  0  0  0  0  0  0  0
   26.4593   15.3714   40.5606 C   0  0  0  0  0  0  0  0  0  0  0  0
   29.5593   13.9714   40.8606 C   0  0  0  0  0  0  0  0  0  0  0  0
   29.4593   14.1714   39.3606 C   0  0  0  0  0  0  0  0  0  0  0  0
   30.3593    7.6714   34.8606 N   0  0  0  0  0  0  0  0  0  0  0  0
   28.2593    8.5714   34.5606 N   0  0  0  0  0  0  0  0  0  0  0  0
   23.9593    7.1714   34.0606 O   0  0  0  0  0  0  0  0  0  0  0  0
   24.2593    9.0714   32.5606 N   0  0  0  0  0  0  0  0  0  0  0  0
  2  1  1  0
  3  1  2  0
  4  3  1  0
  5  4  2  0
  6  1  1  0
  7  6  2  0
  8  2  1  0
  9  7  1  0
  9  8  1  0
 10  9  1  0
 11 10  1  0
 12 11  1  0
 13 10  1  0
 14  2  1  0
 15 14  1  0
 16 15  1  0
 17 12  1  0
 17 13  1  0
 18 16  1  0
 19 18  1  0
 20 19  1  0
 21 19  1  0
 22 20  2  0
 23 18  2  0
 23 22  1  0
 24  5  1  0
 25  5  1  0
 25  6  1  0
 26 17  1  0
 27 11  1  0
 27 12  1  0
M  END
>  <ID>  (1) 
conformer_0

$$$$
