
     RDKit          3D

 28 32  0  0  0  0  0  0  0  0999 V2000
   27.7439   10.8898   35.1283 C   0  0  0  0  0  0  0  0  0  0  0  0
   26.6439   11.7898   35.5283 C   0  0  0  0  0  0  0  0  0  0  0  0
   29.0439   11.4898   35.2283 C   0  0  0  0  0  0  0  0  0  0  0  0
   30.0439   10.5898   35.2283 N   0  0  0  0  0  0  0  0  0  0  0  0
   29.6439    9.1898   35.0283 C   0  0  0  0  0  0  0  0  0  0  0  0
   27.3439    9.5898   34.7283 C   0  0  0  0  0  3  0  0  0  0  0  0
   26.2439    9.6898   33.8283 N   0  0  0  0  0  0  0  0  0  0  0  0
   25.3439   11.0898   35.5283 C   0  0  0  0  0  0  0  0  0  0  0  0
   25.1439   10.0898   34.5283 C   0  0  0  0  0  0  0  0  0  0  0  0
   23.8439    9.7898   34.1283 N   0  0  0  0  0  0  0  0  0  0  0  0
   23.2439    8.4898   33.8283 C   0  0  0  0  0  0  0  0  0  0  0  0
   21.8439    8.7898   33.4283 C   0  0  0  0  0  0  0  0  0  0  0  0
   21.8439    9.9898   32.6283 C   0  0  0  0  0  0  0  0  0  0  0  0
   24.0439    7.5898   33.4283 O   0  0  0  0  0  0  0  0  0  0  0  0
   30.5439    8.4898   34.3283 N   0  0  0  0  0  0  0  0  0  0  0  0
   22.3439    9.9898   31.2283 C   0  0  0  0  0  0  0  0  0  0  0  0
   28.3439    8.7898   34.9283 N   0  0  0  0  0  0  0  0  0  0  0  0
   22.5439    8.5898   30.9283 N   0  0  0  0  0  0  0  0  0  0  0  0
   21.1439    8.0898   31.0283 C   0  0  0  0  0  0  0  0  0  0  0  0
   20.1439    8.7898   31.6283 C   0  0  0  0  0  0  0  0  0  0  0  0
   19.5439    8.2898   32.8283 O   0  0  0  0  0  0  0  0  0  0  0  0
   19.7439    9.9898   31.2283 N   0  0  0  0  0  0  0  0  0  0  0  0
   20.1439   11.2898   31.2283 C   0  0  0  0  0  0  0  0  0  0  0  0
   21.0439   10.4898   30.4283 C   0  0  0  0  0  0  0  0  0  0  0  0
   19.4439   12.1898   31.0283 O   0  0  0  0  0  0  0  0  0  0  0  0
   20.4439    7.3898   29.9283 O   0  0  0  0  0  0  0  0  0  0  0  0
   18.7439    7.8898   31.6283 O   0  0  0  0  0  0  0  0  0  0  0  0
   20.9439    9.9898   33.4283 O   0  0  0  0  0  0  0  0  0  0  0  0
  2  1  2  0
  3  1  1  0
  4  3  1  0
  5  4  2  0
  6  1  1  0
  7  6  1  0
  8  2  1  0
  9  7  2  0
  9  8  1  0
 10  9  1  0
 11 10  1  0
 12 11  1  0
 13 12  1  0
 14 11  2  0
 15  5  1  0
 16 13  1  0
 17  5  1  0
 17  6  1  0
 18 16  1  0
 19 18  1  0
 20 19  1  0
 21 20  1  0
 22 20  1  0
 23 22  1  0
 24 16  1  0
 24 22  1  0
 24 23  1  0
 25 23  1  0
 26 19  2  0
 27 20  1  0
 28 12  1  0
 28 13  1  0
M  END
>  <ID>  (1) 
conformer_0

$$$$
