
     RDKit          3D

 19 21  0  0  0  0  0  0  0  0999 V2000
   27.7439   10.8898   35.1283 C   0  0  0  0  0  0  0  0  0  0  0  0
   26.5439   11.5898   35.5283 C   0  0  0  0  0  0  0  0  0  0  0  0
   29.0439   11.2898   35.3283 C   0  0  0  0  0  0  0  0  0  0  0  0
   30.1439   10.3898   35.3283 N   0  0  0  0  0  0  0  0  0  0  0  0
   29.6439    9.0898   35.0283 C   0  0  0  0  0  0  0  0  0  0  0  0
   27.3439    9.5898   34.7283 C   0  0  0  0  0  0  0  0  0  0  0  0
   26.1439    9.5898   34.1283 N   0  0  0  0  0  0  0  0  0  0  0  0
   25.4439   10.8898   35.7283 N   0  0  0  0  0  0  0  0  0  0  0  0
   25.2439    9.6898   35.1283 C   0  0  0  0  0  0  0  0  0  0  0  0
   26.6439   12.8898   35.7283 N   0  0  0  0  0  0  0  0  0  0  0  0
   23.8439    9.1898   35.0283 C   0  0  0  0  0  0  0  0  0  0  0  0
   23.6439    8.5898   33.7283 C   0  0  0  0  0  0  0  0  0  0  0  0
   25.4439   13.4898   36.1283 C   0  0  0  0  0  0  0  0  0  0  0  0
   24.1439   11.5898   35.6283 C   0  0  0  0  0  0  0  0  0  0  0  0
   24.1439   13.0898   35.7283 C   0  0  0  0  0  0  0  0  0  0  0  0
   24.1439    9.2898   32.7283 N   0  0  0  0  0  0  0  0  0  0  0  0
   30.4439    8.1898   34.4283 N   0  0  0  0  0  0  0  0  0  0  0  0
   23.9439    7.2898   33.7283 O   0  0  0  0  0  0  0  0  0  0  0  0
   28.3439    8.6898   34.7283 N   0  0  0  0  0  0  0  0  0  0  0  0
  2  1  1  0
  3  1  1  0
  4  3  1  0
  5  4  2  0
  6  1  1  0
  7  6  2  0
  8  2  1  0
  9  7  1  0
  9  8  1  0
 10  2  1  0
 11  9  1  0
 12 11  1  0
 13 10  2  0
 14  8  1  0
 15 13  1  0
 15 14  2  0
 16 12  1  0
 17  5  1  0
 18 12  1  0
 19  5  1  0
 19  6  1  0
M  END
>  <ID>  (1) 
conformer_0

$$$$
