
     RDKit          3D

 22 24  0  0  0  0  0  0  0  0999 V2000
   30.2154    9.7857   34.7964 N   0  0  0  0  0  0  0  0  0  0  0  0
   29.5154    8.6857   34.7964 C   0  0  0  0  0  0  0  0  0  0  0  0
   29.6154   10.8857   35.1964 C   0  0  0  0  0  0  0  0  0  0  0  0
   28.2154   10.9857   34.9964 C   0  0  0  0  0  0  0  0  0  0  0  0
   27.4154    9.7857   34.9964 C   0  0  0  0  0  0  0  0  0  0  0  0
   26.2154   10.0857   34.2964 N   0  0  0  0  0  0  0  0  0  0  0  0
   27.3154   12.0857   35.1964 C   0  0  0  0  0  0  0  0  0  0  0  0
   26.2154   11.6857   35.8964 C   0  0  0  0  0  0  0  0  0  0  0  0
   25.5154   10.7857   35.1964 N   0  0  0  0  0  0  0  0  0  0  0  0
   28.2154    8.7857   34.6964 N   0  0  0  0  0  0  0  0  0  0  0  0
   25.4154    9.3857   33.2964 C   0  0  0  0  0  0  0  0  0  0  0  0
   24.2154    8.6857   33.6964 C   0  0  0  0  0  0  0  0  0  0  0  0
   23.6154    9.0857   34.8964 C   0  0  0  0  0  0  0  0  0  0  0  0
   24.5154    9.8857   35.6964 C   0  0  0  0  0  0  0  0  0  0  0  0
   23.2154    8.3857   32.6964 C   0  0  0  0  0  0  0  0  0  0  0  0
   21.8154    8.7857   32.9964 C   0  0  0  0  0  0  0  0  0  0  0  0
   21.2154    9.7857   32.0964 C   0  0  0  0  0  0  0  0  0  0  0  0
   21.9154    9.5857   30.7964 C   0  0  0  0  0  0  0  0  0  0  0  0
   21.2154   11.1857   32.5964 C   0  0  0  0  0  0  0  0  0  0  0  0
   19.8154    9.3857   31.8964 C   0  0  0  0  0  0  0  0  0  0  0  0
   19.1154    8.4857   32.3964 O   0  0  0  0  0  0  0  0  0  0  0  0
   19.4154    9.7857   30.5964 O   0  0  0  0  0  0  0  0  0  0  0  0
  2  1  2  0
  3  1  1  0
  4  3  2  0
  5  4  1  0
  6  5  1  0
  7  4  1  0
  8  7  2  0
  9  6  1  0
  9  8  1  0
 10  2  1  0
 10  5  2  0
 11  6  1  0
 12 11  1  0
 13 12  1  0
 14  9  1  0
 14 13  1  0
 15 12  1  0
 16 15  1  0
 17 16  1  0
 18 17  1  0
 19 17  1  0
 20 17  1  0
 21 20  2  0
 22 20  1  0
M  END
>  <ID>  (1) 
conformer_0

$$$$
