
     RDKit          3D

 11 12  0  0  0  0  0  0  0  0999 V2000
   29.4924    8.7451   34.6505 C   0  0  0  0  0  0  0  0  0  0  0  0
   30.2924    9.8451   34.8505 N   0  0  0  0  0  0  0  0  0  0  0  0
   29.6924   11.0451   35.2505 C   0  0  0  0  0  0  0  0  0  0  0  0
   28.2924   11.1451   35.0505 C   0  0  0  0  0  0  0  0  0  0  0  0
   27.4924   10.1451   34.5505 C   0  0  0  0  0  0  0  0  0  0  0  0
   28.0924    8.8451   34.5505 C   0  0  0  0  0  0  0  0  0  0  0  0
   26.0924   10.2451   34.8505 C   0  0  0  0  0  0  0  0  0  0  0  0
   25.4924   11.0451   35.6505 N   0  0  0  0  0  0  0  0  0  0  0  0
   26.2924   12.0451   36.0505 C   0  0  0  0  0  0  0  0  0  0  0  0
   27.5924   12.2451   35.6505 N   0  0  0  0  0  0  0  0  0  0  0  0
   25.5924   13.3451   36.1505 N   0  0  0  0  0  0  0  0  0  0  0  0
  2  1  2  0
  3  2  1  0
  4  3  2  0
  5  4  1  0
  6  1  1  0
  6  5  2  0
  7  5  1  0
  8  7  1  0
  9  8  2  0
 10  4  1  0
 10  9  1  0
 11  9  1  0
M  END
>  <ID>  (1) 
conformer_0

$$$$
