
     RDKit          3D

 34 40  0  0  0  0  0  0  0  0999 V2000
   27.7439   10.8898   35.1283 C   0  0  0  0  0  0  0  0  0  0  0  0
   26.5439   11.5898   35.5283 C   0  0  0  0  0  0  0  0  0  0  0  0
   28.9439   11.3898   35.3283 C   0  0  0  0  0  3  0  0  0  0  0  0
   30.0439   10.4898   35.3283 N   0  0  0  0  0  0  0  0  0  0  0  0
   29.7439    9.1898   34.9283 C   0  0  0  0  0  0  0  0  0  0  0  0
   27.3439    9.5898   34.6283 C   0  0  0  0  0  0  0  0  0  0  0  0
   26.2439    9.6898   33.8283 N   0  0  0  0  0  0  0  0  0  0  0  0
   25.4439   10.7898   35.6283 N   0  0  0  0  0  0  0  0  0  0  0  0
   25.1439   10.0898   34.5283 C   0  0  0  0  0  0  0  0  0  0  0  0
   23.7439    9.6898   34.4283 C   0  0  0  0  0  0  0  0  0  0  0  0
   23.5439    9.1898   33.0283 C   0  0  0  0  0  0  0  0  0  0  0  0
   22.1439    8.8898   32.7283 C   0  0  0  0  0  0  0  0  0  0  0  0
   26.6439   12.6898   36.5283 C   0  0  0  0  0  0  0  0  0  0  0  0
   27.8439   13.3898   36.4283 C   0  0  0  0  0  0  0  0  0  0  0  0
   28.1439   14.4898   37.0283 N   0  0  0  0  0  0  0  0  0  0  0  0
   29.0439   12.5898   36.0283 N   0  0  0  0  0  0  0  0  0  0  0  0
   29.4439   14.9898   37.5283 C   0  0  0  0  0  0  0  0  0  0  0  0
   30.5439    8.3898   34.2283 N   0  0  0  0  0  0  0  0  0  0  0  0
   21.7439    8.9898   31.3283 C   0  0  0  0  0  0  0  0  0  0  0  0
   27.0439   14.7898   37.9283 C   0  0  0  0  0  0  0  0  0  0  0  0
   20.4439    9.1898   31.0283 N   0  0  0  0  0  0  0  0  0  0  0  0
   19.9439    9.8898   29.8283 C   0  0  0  0  0  0  0  0  0  0  0  0
   18.5439   10.2898   30.0283 C   0  0  0  0  0  0  0  0  0  0  0  0
   17.7439    9.5898   30.9283 O   0  0  0  0  0  0  0  0  0  0  0  0
   18.1439    8.1898   31.2283 C   0  0  0  0  0  0  0  0  0  0  0  0
   19.5439    8.4898   31.8283 C   0  0  0  0  0  0  0  0  0  0  0  0
   18.1439    7.1898   30.1283 C   0  0  0  0  0  0  0  0  0  0  0  0
   19.1439    7.5898   29.1283 O   0  0  0  0  0  0  0  0  0  0  0  0
   19.0439    9.1898   29.0283 C   0  0  0  0  0  0  0  0  0  0  0  0
   28.3439    8.6898   34.7283 N   0  0  0  0  0  0  0  0  0  0  0  0
   22.7439    9.0898   30.4283 N   0  0  0  0  0  0  0  0  0  0  0  0
   24.2439   11.5898   35.8283 C   0  0  0  0  0  0  0  0  0  0  0  0
   23.0439   10.8898   34.9283 C   0  0  0  0  0  0  0  0  0  0  0  0
   30.6439   14.0898   37.5283 C   0  0  0  0  0  0  0  0  0  0  0  0
  2  1  1  0
  3  1  1  0
  4  3  1  0
  5  4  2  0
  6  1  1  0
  7  6  2  0
  8  2  1  0
  9  7  1  0
  9  8  1  0
 10  9  1  0
 11 10  1  0
 12 11  1  0
 13  2  1  0
 14 13  1  0
 15 14  1  0
 16  3  1  0
 16 14  1  0
 17 15  1  0
 18  5  1  0
 19 12  1  0
 20 15  1  0
 21 19  1  0
 22 21  1  0
 23 22  1  0
 24 23  1  0
 25 24  1  0
 26 21  1  0
 26 25  1  0
 27 25  1  0
 28 27  1  0
 29 22  1  0
 29 23  1  0
 29 28  1  0
 30  5  1  0
 30  6  1  0
 31 19  1  0
 32  8  1  0
 33 10  1  0
 33 32  1  0
 34 17  1  0
M  END
>  <ID>  (1) 
conformer_0

$$$$
