
     RDKit          3D

 28 30  0  0  0  0  0  0  0  0999 V2000
   27.1322   12.0013   35.2980 C   0  0  0  0  0  0  0  0  0  0  0  0
   28.0322   11.0013   34.8980 C   0  0  0  0  0  0  0  0  0  0  0  0
   29.4322   10.9013   35.2980 C   0  0  0  0  0  0  0  0  0  0  0  0
   30.2322   10.0013   34.9980 N   0  0  0  0  0  0  0  0  0  0  0  0
   29.6322    8.8013   34.8980 C   0  0  0  0  0  0  0  0  0  0  0  0
   27.4322    9.7013   34.6980 C   0  0  0  0  0  0  0  0  0  0  0  0
   26.2322    9.9013   34.0980 N   0  0  0  0  0  0  0  0  0  0  0  0
   25.8322   11.5013   35.7980 C   0  0  0  0  0  0  0  0  0  0  0  0
   25.4322   10.4013   35.0980 C   0  0  0  0  0  3  0  0  0  0  0  0
   28.3322    8.7013   34.7980 N   0  0  0  0  0  0  0  0  0  0  0  0
   24.5322    9.4013   35.5980 N   0  0  0  0  0  0  0  0  0  0  0  0
   23.7322    8.7013   34.5980 C   0  0  0  0  0  0  0  0  0  0  0  0
   23.9322    9.3013   33.2980 C   0  0  0  0  0  0  0  0  0  0  0  0
   23.0322    9.5013   32.2980 C   0  0  0  0  0  0  0  0  0  0  0  0
   22.9322    9.0013   30.9980 N   0  0  0  0  0  0  0  0  0  0  0  0
   22.0322    9.5013   30.0980 C   0  0  0  0  0  0  0  0  0  0  0  0
   22.0322    9.1013   28.6980 C   0  0  0  0  0  0  0  0  0  0  0  0
   20.8322    8.9013   27.9980 C   0  0  0  0  0  0  0  0  0  0  0  0
   20.6322    8.2013   26.7980 C   0  0  0  0  0  0  0  0  0  0  0  0
   22.3322    8.3013   34.4980 C   0  0  0  0  0  0  0  0  0  0  0  0
   20.7322    9.2013   30.5980 O   0  0  0  0  0  0  0  0  0  0  0  0
   19.3322    7.7013   26.3980 C   0  0  0  0  0  0  0  0  0  0  0  0
   19.0322    6.6013   25.5980 C   0  0  0  0  0  0  0  0  0  0  0  0
   17.7322    5.9013   25.6980 C   0  0  0  0  0  0  0  0  0  0  0  0
   16.5322    6.6013   25.1980 C   0  0  0  0  0  0  0  0  0  0  0  0
   15.5322    7.2013   26.0980 C   0  0  0  0  0  0  0  0  0  0  0  0
   14.1322    7.3013   25.6980 C   0  0  0  0  0  0  0  0  0  0  0  0
   21.1322   10.5013   30.7980 C   0  0  0  0  0  0  0  0  0  0  0  0
  2  1  1  0
  3  2  1  0
  4  3  1  0
  5  4  1  0
  6  2  1  0
  7  6  2  0
  8  1  1  0
  9  7  1  0
  9  8  1  0
 10  5  2  0
 10  6  1  0
 11  9  1  0
 12 11  1  0
 13 12  1  0
 14 13  1  0
 15 14  2  3
 16 15  1  0
 17 16  1  0
 18 17  2  3
 19 18  1  0
 20 12  1  0
 21 16  1  0
 22 19  1  0
 23 22  1  0
 24 23  1  0
 25 24  1  0
 26 25  1  0
 27 26  1  0
 28 16  1  0
 28 21  1  0
M  END
>  <ID>  (1) 
conformer_0

$$$$
