
     RDKit          3D

 24 27  0  0  0  0  0  0  0  0999 V2000
   27.7439   10.8898   35.1283 C   0  0  0  0  0  0  0  0  0  0  0  0
   26.5439   11.5898   35.5283 C   0  0  0  0  0  0  0  0  0  0  0  0
   28.9439   11.3898   35.3283 C   0  0  0  0  0  0  0  0  0  0  0  0
   30.0439   10.4898   35.3283 N   0  0  0  0  0  0  0  0  0  0  0  0
   29.7439    9.1898   34.9283 C   0  0  0  0  0  0  0  0  0  0  0  0
   27.3439    9.5898   34.6283 C   0  0  0  0  0  0  0  0  0  0  0  0
   26.2439    9.6898   33.8283 N   0  0  0  0  0  0  0  0  0  0  0  0
   25.4439   10.6898   35.8283 C   0  0  0  0  0  0  0  0  0  0  0  0
   25.1439    9.9898   34.5283 C   0  0  0  0  0  0  0  0  0  0  0  0
   23.8439    9.2898   34.7283 C   0  0  0  0  0  0  0  0  0  0  0  0
   30.6439    8.6898   34.0283 N   0  0  0  0  0  0  0  0  0  0  0  0
   28.4439    8.6898   34.7283 N   0  0  0  0  0  0  0  0  0  0  0  0
   23.6439    8.2898   33.6283 C   0  0  0  0  0  0  0  0  0  0  0  0
   23.6439    8.8898   36.0283 O   0  0  0  0  0  0  0  0  0  0  0  0
   22.8439    8.6898   32.4283 C   0  0  0  0  0  0  0  0  0  0  0  0
   24.2439    9.1898   32.6283 N   0  0  0  0  0  0  0  0  0  0  0  0
   22.0439    9.6898   32.6283 O   0  0  0  0  0  0  0  0  0  0  0  0
   21.2439   10.1898   31.5283 C   0  0  0  0  0  0  0  0  0  0  0  0
   21.8439    9.8898   30.2283 C   0  0  0  0  0  0  0  0  0  0  0  0
   20.5439   11.3898   31.7283 C   0  0  0  0  0  0  0  0  0  0  0  0
   21.2439   10.8898   29.3283 O   0  0  0  0  0  0  0  0  0  0  0  0
   19.1439   11.3898   31.3283 O   0  0  0  0  0  0  0  0  0  0  0  0
   20.7439    9.0898   30.8283 C   0  0  0  0  0  0  0  0  0  0  0  0
   19.5439    8.8898   30.2283 O   0  0  0  0  0  0  0  0  0  0  0  0
  2  1  1  0
  3  1  1  0
  4  3  1  0
  5  4  2  0
  6  1  1  0
  7  6  2  0
  8  2  1  0
  9  7  1  0
  9  8  1  0
 10  9  1  0
 11  5  1  0
 12  5  1  0
 12  6  1  0
 13 10  1  0
 14 10  1  0
 15 13  1  0
 16 13  1  0
 16 15  1  0
 17 15  1  0
 18 17  1  0
 19 18  1  0
 20 18  1  0
 21 19  1  0
 22 20  1  0
 23 18  1  0
 23 19  1  0
 24 23  1  0
M  END
>  <ID>  (1) 
conformer_0

$$$$
