
     RDKit          3D

 29 31  0  0  0  0  0  0  0  0999 V2000
   27.7439   10.8898   35.1283 C   0  0  0  0  0  0  0  0  0  0  0  0
   26.5439   11.5898   35.5283 C   0  0  0  0  0  0  0  0  0  0  0  0
   28.9439   11.4898   35.3283 C   0  0  0  0  0  0  0  0  0  0  0  0
   30.0439   10.5898   35.4283 N   0  0  0  0  0  0  0  0  0  0  0  0
   29.7439    9.3898   35.0283 C   0  0  0  0  0  0  0  0  0  0  0  0
   27.4439    9.5898   34.6283 C   0  0  0  0  0  3  0  0  0  0  0  0
   26.1439    9.5898   34.1283 N   0  0  0  0  0  0  0  0  0  0  0  0
   25.1439    9.7898   35.0283 C   0  0  0  0  0  0  0  0  0  0  0  0
   25.4439   10.7898   36.0283 C   0  0  0  0  0  0  0  0  0  0  0  0
   24.0439    8.8898   35.3283 N   0  0  0  0  0  0  0  0  0  0  0  0
   23.3439    8.3898   34.1283 C   0  0  0  0  0  0  0  0  0  0  0  0
   23.4439    9.4898   33.1283 C   0  0  0  0  0  0  0  0  0  0  0  0
   22.4439    9.5898   32.1283 C   0  0  0  0  0  0  0  0  0  0  0  0
   22.1439    8.0898   34.4283 O   0  0  0  0  0  0  0  0  0  0  0  0
   22.8439    9.1898   30.8283 N   0  0  0  0  0  0  0  0  0  0  0  0
   21.8439    9.2898   29.7283 C   0  0  0  0  0  0  0  0  0  0  0  0
   21.4439   10.6898   31.9283 C   0  0  0  0  0  0  0  0  0  0  0  0
   21.0439   10.4898   29.5283 C   0  0  0  0  0  0  0  0  0  0  0  0
   30.4439    8.4898   34.3283 N   0  0  0  0  0  0  0  0  0  0  0  0
   22.4439    8.8898   28.4283 C   0  0  0  0  0  0  0  0  0  0  0  0
   21.4439    8.2898   27.5283 C   0  0  0  0  0  0  0  0  0  0  0  0
   20.3439   10.5898   30.9283 C   0  0  0  0  0  0  0  0  0  0  0  0
   20.0439    8.7898   27.7283 C   0  0  0  0  0  0  0  0  0  0  0  0
   19.1439    7.6898   27.4283 C   0  0  0  0  0  0  0  0  0  0  0  0
   19.3439    6.9898   26.1283 C   0  0  0  0  0  0  0  0  0  0  0  0
   19.2439    6.6898   28.5283 O   0  0  0  0  0  0  0  0  0  0  0  0
   18.8439    6.7898   29.7283 C   0  0  0  0  0  0  0  0  0  0  0  0
   19.2439    6.7898   30.8283 O   0  0  0  0  0  0  0  0  0  0  0  0
   28.4439    8.7898   34.9283 N   0  0  0  0  0  0  0  0  0  0  0  0
  2  1  1  0
  3  1  1  0
  4  3  1  0
  5  4  2  0
  6  1  1  0
  7  6  1  0
  8  7  2  0
  9  2  1  0
  9  8  1  0
 10  8  1  0
 11 10  1  0
 12 11  1  0
 13 12  1  0
 14 11  1  0
 15 13  1  0
 16 15  1  0
 17 13  1  0
 18 16  1  0
 19  5  1  0
 20 16  1  0
 21 20  1  0
 22 17  1  0
 22 18  1  0
 23 21  1  0
 24 23  1  0
 25 24  1  0
 26 24  1  0
 27 26  1  0
 28 27  2  0
 29  5  1  0
 29  6  1  0
M  END
>  <ID>  (1) 
conformer_0

$$$$
