
     RDKit          3D

 36 41  0  0  0  0  0  0  0  0999 V2000
   27.7439   10.8898   35.1283 C   0  0  0  0  0  0  0  0  0  0  0  0
   26.5439   11.5898   35.5283 C   0  0  0  0  0  0  0  0  0  0  0  0
   28.9439   11.4898   35.3283 C   0  0  0  0  0  0  0  0  0  0  0  0
   30.0439   10.5898   35.4283 N   0  0  0  0  0  0  0  0  0  0  0  0
   29.7439    9.3898   35.0283 C   0  0  0  0  0  0  0  0  0  0  0  0
   27.4439    9.5898   34.6283 C   0  0  0  0  0  3  0  0  0  0  0  0
   26.1439    9.5898   34.1283 N   0  0  0  0  0  0  0  0  0  0  0  0
   25.1439    9.7898   35.0283 C   0  0  0  0  0  0  0  0  0  0  0  0
   25.4439   10.7898   36.0283 C   0  0  0  0  0  0  0  0  0  0  0  0
   24.0439    8.8898   35.3283 N   0  0  0  0  0  0  0  0  0  0  0  0
   23.3439    8.3898   34.1283 C   0  0  0  0  0  0  0  0  0  0  0  0
   23.4439    9.4898   33.1283 C   0  0  0  0  0  0  0  0  0  0  0  0
   22.4439    9.5898   32.1283 C   0  0  0  0  0  0  0  0  0  0  0  0
   22.1439    8.0898   34.4283 O   0  0  0  0  0  0  0  0  0  0  0  0
   22.8439    9.1898   30.8283 N   0  0  0  0  0  0  0  0  0  0  0  0
   21.8439    9.2898   29.7283 C   0  0  0  0  0  0  0  0  0  0  0  0
   21.5439   10.6898   31.9283 C   0  0  0  0  0  0  0  0  0  0  0  0
   22.1439    8.7898   28.4283 C   0  0  0  0  0  0  0  0  0  0  0  0
   21.1439    8.4898   27.5283 C   0  0  0  0  0  0  0  0  0  0  0  0
   30.4439    8.4898   34.3283 N   0  0  0  0  0  0  0  0  0  0  0  0
   19.8439    9.1898   27.7283 C   0  0  0  0  0  0  0  0  0  0  0  0
   18.7439    8.6898   27.0283 N   0  0  0  0  0  0  0  0  0  0  0  0
   17.4439    8.4898   27.3283 C   0  0  0  0  0  0  0  0  0  0  0  0
   16.4439    8.0898   26.3283 C   0  0  0  0  0  0  0  0  0  0  0  0
   16.7439    6.9898   25.4283 C   0  0  0  0  0  0  0  0  0  0  0  0
   16.0439    6.6898   24.2283 C   0  0  0  0  0  0  0  0  0  0  0  0
   18.1439    6.5898   25.7283 C   0  0  0  0  0  0  0  0  0  0  0  0
   19.2439    7.4898   26.1283 C   0  0  0  0  0  0  0  0  0  0  0  0
   17.0439    9.0898   28.3283 O   0  0  0  0  0  0  0  0  0  0  0  0
   15.1439    8.6898   26.3283 C   0  0  0  0  0  0  0  0  0  0  0  0
   18.5439    5.7898   24.5283 C   0  0  0  0  0  0  0  0  0  0  0  0
   14.6439    7.0898   24.3283 C   0  0  0  0  0  0  0  0  0  0  0  0
   14.1439    7.7898   25.5283 C   0  0  0  0  0  0  0  0  0  0  0  0
   28.4439    8.7898   35.0283 N   0  0  0  0  0  0  0  0  0  0  0  0
   21.0439    9.2898   32.1283 C   0  0  0  0  0  0  0  0  0  0  0  0
   24.3439    8.4898   33.0283 C   0  0  0  0  0  0  0  0  0  0  0  0
  2  1  1  0
  3  1  1  0
  4  3  1  0
  5  4  2  0
  6  1  1  0
  7  6  1  0
  8  7  2  0
  9  2  1  0
  9  8  1  0
 10  8  1  0
 11 10  1  0
 12 11  1  0
 13 12  1  0
 14 11  1  0
 15 13  1  0
 16 15  2  3
 17 13  1  0
 18 16  1  0
 19 18  1  0
 20  5  1  0
 21 19  2  3
 22 21  1  0
 23 22  1  0
 24 23  1  0
 25 24  1  0
 26 25  1  0
 27 25  1  0
 28 22  1  0
 28 27  1  0
 29 23  2  0
 30 24  1  0
 31 27  1  0
 32 26  1  0
 33 30  1  0
 33 32  1  0
 34  5  1  0
 34  6  1  0
 35 13  1  0
 35 17  1  0
 36 11  1  0
 36 12  1  0
M  END
>  <ID>  (1) 
conformer_0

$$$$
