
     RDKit          3D

 19 21  0  0  0  0  0  0  0  0999 V2000
   27.7439   10.8898   35.1283 C   0  0  0  0  0  0  0  0  0  0  0  0
   26.5439   11.5898   35.5283 C   0  0  0  0  0  0  0  0  0  0  0  0
   28.9439   11.4898   35.3283 C   0  0  0  0  0  0  0  0  0  0  0  0
   30.0439   10.5898   35.4283 N   0  0  0  0  0  0  0  0  0  0  0  0
   29.7439    9.3898   35.0283 C   0  0  0  0  0  0  0  0  0  0  0  0
   27.4439    9.5898   34.6283 C   0  0  0  0  0  0  0  0  0  0  0  0
   26.1439    9.5898   34.1283 N   0  0  0  0  0  0  0  0  0  0  0  0
   25.1439    9.7898   35.0283 C   0  0  0  0  0  0  0  0  0  0  0  0
   25.4439   10.7898   36.0283 C   0  0  0  0  0  0  0  0  0  0  0  0
   24.0439    8.8898   35.3283 N   0  0  0  0  0  0  0  0  0  0  0  0
   23.0439    8.2898   34.5283 C   0  0  0  0  0  0  0  0  0  0  0  0
   30.0439    8.1898   34.7283 N   0  0  0  0  0  0  0  0  0  0  0  0
   23.4439    8.5898   33.1283 C   0  0  0  0  0  0  0  0  0  0  0  0
   22.3439    8.6898   32.1283 C   0  0  0  0  0  0  0  0  0  0  0  0
   21.1439    8.9898   32.9283 C   0  0  0  0  0  0  0  0  0  0  0  0
   28.6439    8.7898   34.7283 C   0  0  0  0  0  0  0  0  0  0  0  0
   19.9439    8.4898   32.8283 O   0  0  0  0  0  0  0  0  0  0  0  0
   20.8439   10.3898   32.8283 N   0  0  0  0  0  0  0  0  0  0  0  0
   21.3439   11.0898   31.6283 C   0  0  0  0  0  0  0  0  0  0  0  0
  2  1  1  0
  3  1  1  0
  4  3  1  0
  5  4  2  0
  6  1  1  0
  7  6  1  0
  8  7  2  0
  9  2  1  0
  9  8  1  0
 10  8  1  0
 11 10  1  0
 12  5  1  0
 13 11  1  0
 14 13  1  0
 15 14  1  0
 16  5  1  0
 16  6  1  0
 16 12  1  0
 17 15  1  0
 18 15  1  0
 19 18  1  0
M  END
>  <ID>  (1) 
conformer_0

$$$$
