
     RDKit          3D

 32 35  0  0  0  0  0  0  0  0999 V2000
   27.7439   10.8898   35.1283 C   0  0  0  0  0  0  0  0  0  0  0  0
   26.5439   11.5898   35.5283 C   0  0  0  0  0  0  0  0  0  0  0  0
   29.0439   11.2898   35.3283 C   0  0  0  0  0  0  0  0  0  0  0  0
   30.1439   10.3898   35.3283 N   0  0  0  0  0  0  0  0  0  0  0  0
   29.6439    9.0898   35.0283 C   0  0  0  0  0  0  0  0  0  0  0  0
   27.3439    9.5898   34.7283 C   0  0  0  0  0  0  0  0  0  0  0  0
   26.1439    9.5898   34.1283 N   0  0  0  0  0  0  0  0  0  0  0  0
   25.0439   10.0898   34.7283 C   0  0  0  0  0  0  0  0  0  0  0  0
   25.5439   10.7898   35.9283 C   0  0  0  0  0  0  0  0  0  0  0  0
   28.4439    8.5898   34.7283 N   0  0  0  0  0  0  0  0  0  0  0  0
   23.7439    9.3898   34.8283 C   0  0  0  0  0  0  0  0  0  0  0  0
   23.5439    8.3898   33.8283 C   0  0  0  0  0  0  0  0  0  0  0  0
   23.7439    8.8898   32.5283 N   0  0  0  0  0  0  0  0  0  0  0  0
   22.9439    9.7898   31.8283 C   0  0  0  0  0  0  0  0  0  0  0  0
   22.3439    9.1898   30.6283 C   0  0  0  0  0  0  0  0  0  0  0  0
   22.1439   10.4898   32.6283 O   0  0  0  0  0  0  0  0  0  0  0  0
   21.5439    9.9898   29.7283 C   0  0  0  0  0  0  0  0  0  0  0  0
   20.6439    9.2898   28.8283 N   0  0  0  0  0  0  0  0  0  0  0  0
   19.6439    9.8898   28.3283 C   0  0  0  0  0  0  0  0  0  0  0  0
   19.4439   11.0898   29.0283 N   0  0  0  0  0  0  0  0  0  0  0  0
   19.0439    9.5898   27.1283 N   0  0  0  0  0  0  0  0  0  0  0  0
   18.8439    8.2898   26.5283 C   0  0  0  0  0  0  0  0  0  0  0  0
   17.4439    8.0898   26.0283 C   0  0  0  0  0  0  0  0  0  0  0  0
   17.3439    6.6898   25.5283 C   0  0  0  0  0  0  0  0  0  0  0  0
   18.6439    5.9898   25.3283 C   0  0  0  0  0  0  0  0  0  0  0  0
   20.2439   12.0898   29.3283 C   0  0  0  0  0  0  0  0  0  0  0  0
   19.9439   13.3898   29.9283 C   0  0  0  0  0  0  0  0  0  0  0  0
   19.7439   11.1898   30.3283 C   0  0  0  0  0  0  0  0  0  0  0  0
   18.9439   11.6898   31.4283 C   0  0  0  0  0  0  0  0  0  0  0  0
   19.5439   12.7898   32.2283 C   0  0  0  0  0  0  0  0  0  0  0  0
   20.2439   13.7898   31.3283 C   0  0  0  0  0  0  0  0  0  0  0  0
   23.7439    7.1898   34.1283 O   0  0  0  0  0  0  0  0  0  0  0  0
  2  1  1  0
  3  1  1  0
  4  3  2  0
  5  4  1  0
  6  1  1  0
  7  6  2  0
  8  7  1  0
  9  2  1  0
  9  8  1  0
 10  5  2  0
 10  6  1  0
 11  8  1  0
 12 11  1  0
 13 12  1  0
 14 13  1  0
 15 14  1  0
 16 14  1  0
 17 15  2  3
 18 17  1  0
 19 18  2  3
 20 19  1  0
 21 19  1  0
 22 21  1  0
 23 22  1  0
 24 23  1  0
 25 24  1  0
 26 20  1  0
 27 26  1  0
 28 20  1  0
 28 26  1  0
 29 28  1  0
 30 29  1  0
 31 27  1  0
 31 30  1  0
 32 12  2  0
M  END
>  <ID>  (1) 
conformer_0

$$$$
