
     RDKit          3D

 34 38  0  0  0  0  0  0  0  0999 V2000
   27.9593   10.7714   34.9606 C   0  0  0  0  0  0  0  0  0  0  0  0
   26.9593   11.7714   35.4606 C   0  0  0  0  0  0  0  0  0  0  0  0
   29.2593   10.9714   35.2606 C   0  0  0  0  0  0  0  0  0  0  0  0
   30.1593    9.9714   35.0606 N   0  0  0  0  0  0  0  0  0  0  0  0
   29.5593    8.7714   34.7606 C   0  0  0  0  0  0  0  0  0  0  0  0
   27.3593    9.5714   34.5606 C   0  0  0  0  0  0  0  0  0  0  0  0
   26.2593    9.7714   33.7606 N   0  0  0  0  0  0  0  0  0  0  0  0
   25.6593   11.0714   35.6606 C   0  0  0  0  0  0  0  0  0  0  0  0
   25.2593   10.2714   34.6606 C   0  0  0  0  0  3  0  0  0  0  0  0
   23.8593   10.1714   34.3606 N   0  0  0  0  0  0  0  0  0  0  0  0
   23.0593    8.9714   34.2606 C   0  0  0  0  0  0  0  0  0  0  0  0
   22.7593    8.5714   32.8606 C   0  0  0  0  0  0  0  0  0  0  0  0
   22.9593    9.7714   32.0606 C   0  0  0  0  0  0  0  0  0  0  0  0
   27.2593   12.8714   35.9606 N   0  0  0  0  0  0  0  0  0  0  0  0
   27.3593   13.7714   36.8606 C   0  0  0  0  0  0  0  0  0  0  0  0
   27.1593   14.4714   37.8606 N   0  0  0  0  0  0  0  0  0  0  0  0
   26.5593   15.4714   38.4606 C   0  0  0  0  0  0  0  0  0  0  0  0
   26.6593   16.2714   39.5606 C   0  0  0  0  0  0  0  0  0  0  0  0
   25.6593   16.0714   37.4606 C   0  0  0  0  0  0  0  0  0  0  0  0
   25.4593   15.1714   36.3606 C   0  0  0  0  0  0  0  0  0  0  0  0
   22.3593    9.6714   30.7606 C   0  0  0  0  0  0  0  0  0  0  0  0
   21.3593    8.6714   30.9606 N   0  0  0  0  0  0  0  0  0  0  0  0
   20.3593    8.7714   31.8606 C   0  0  0  0  0  0  0  0  0  0  0  0
   19.4593    8.1714   32.1606 O   0  0  0  0  0  0  0  0  0  0  0  0
   30.3593    7.6714   34.8606 N   0  0  0  0  0  0  0  0  0  0  0  0
   26.1593   13.9714   36.0606 C   0  0  0  0  0  0  0  0  0  0  0  0
   28.2593    8.5714   34.6606 N   0  0  0  0  0  0  0  0  0  0  0  0
   24.1593    8.2714   33.2606 C   0  0  0  0  0  0  0  0  0  0  0  0
   20.7593    8.2714   29.6606 C   0  0  0  0  0  0  0  0  0  0  0  0
   19.3593    7.8714   29.7606 C   0  0  0  0  0  0  0  0  0  0  0  0
   19.0593    6.5714   30.3606 O   0  0  0  0  0  0  0  0  0  0  0  0
   18.3593    8.8714   30.1606 C   0  0  0  0  0  0  0  0  0  0  0  0
   25.4593   16.9714   39.6606 O   0  0  0  0  0  0  0  0  0  0  0  0
   25.4593   18.1714   40.4606 C   0  0  0  0  0  0  0  0  0  0  0  0
  2  1  1  0
  3  1  2  0
  4  3  1  0
  5  4  2  0
  6  1  1  0
  7  6  2  0
  8  2  1  0
  9  7  1  0
  9  8  1  0
 10  9  1  0
 11 10  1  0
 12 11  1  0
 13 12  1  0
 14  2  1  0
 15 14  1  0
 16 15  2  0
 17 16  1  0
 18 17  1  0
 19 17  2  0
 20 19  1  0
 21 13  1  0
 22 21  1  0
 23 22  1  0
 24 23  2  0
 25  5  1  0
 26 14  1  0
 26 15  1  0
 26 20  2  0
 27  5  1  0
 27  6  1  0
 28 11  1  0
 28 12  1  0
 29 22  1  0
 30 29  1  0
 31 30  1  0
 32 30  1  0
 33 18  1  0
 34 33  1  0
M  END
>  <ID>  (1) 
conformer_0

$$$$
