
     RDKit          3D

 14 15  0  0  0  0  0  0  0  0999 V2000
   30.2154    9.7857   34.7964 N   0  0  0  0  0  0  0  0  0  0  0  0
   29.5154    8.6857   34.7964 C   0  0  0  0  0  0  0  0  0  0  0  0
   29.6154   10.8857   35.1964 C   0  0  0  0  0  0  0  0  0  0  0  0
   28.2154   10.9857   34.9964 C   0  0  0  0  0  0  0  0  0  0  0  0
   27.4154    9.7857   34.9964 C   0  0  0  0  0  0  0  0  0  0  0  0
   26.2154   10.0857   34.2964 N   0  0  0  0  0  0  0  0  0  0  0  0
   27.3154   11.9857   35.5964 C   0  0  0  0  0  0  0  0  0  0  0  0
   26.1154   11.5857   35.9964 C   0  0  0  0  0  0  0  0  0  0  0  0
   25.4154   10.6857   35.0964 C   0  0  0  0  0  0  0  0  0  0  0  0
   28.1154    8.5857   34.7964 N   0  0  0  0  0  0  0  0  0  0  0  0
   25.4154    8.9857   33.6964 C   0  0  0  0  0  0  0  0  0  0  0  0
   24.0154    8.7857   33.6964 C   0  0  0  0  0  0  0  0  0  0  0  0
   23.2154    9.8857   34.2964 C   0  0  0  0  0  0  0  0  0  0  0  0
   23.8154    7.4857   34.2964 O   0  0  0  0  0  0  0  0  0  0  0  0
  2  1  2  0
  3  1  1  0
  4  3  1  0
  5  4  1  0
  6  5  1  0
  7  4  2  0
  8  7  1  0
  9  6  1  0
  9  8  2  0
 10  2  1  0
 10  5  2  0
 11  6  1  0
 12 11  1  0
 13 12  1  0
 14 12  1  0
M  END
>  <ID>  (1) 
conformer_0

$$$$
