
     RDKit          3D

 31 34  0  0  0  0  0  0  0  0999 V2000
   27.7439   10.8898   35.1283 C   0  0  0  0  0  0  0  0  0  0  0  0
   26.5439   11.5898   35.5283 C   0  0  0  0  0  0  0  0  0  0  0  0
   28.9439   11.3898   35.3283 C   0  0  0  0  0  0  0  0  0  0  0  0
   30.0439   10.4898   35.3283 N   0  0  0  0  0  0  0  0  0  0  0  0
   29.7439    9.1898   34.9283 C   0  0  0  0  0  0  0  0  0  0  0  0
   27.3439    9.5898   34.6283 C   0  0  0  0  0  0  0  0  0  0  0  0
   26.2439    9.6898   33.8283 N   0  0  0  0  0  0  0  0  0  0  0  0
   25.4439   10.6898   35.8283 C   0  0  0  0  0  0  0  0  0  0  0  0
   25.1439    9.9898   34.5283 C   0  0  0  0  0  0  0  0  0  0  0  0
   30.6439    8.4898   34.2283 N   0  0  0  0  0  0  0  0  0  0  0  0
   28.4439    8.7898   34.7283 N   0  0  0  0  0  0  0  0  0  0  0  0
   23.8439    9.5898   34.1283 C   0  0  0  0  0  0  0  0  0  0  0  0
   23.7439    8.1898   33.6283 C   0  0  0  0  0  0  0  0  0  0  0  0
   23.2439    8.3898   32.2283 N   0  0  0  0  0  0  0  0  0  0  0  0
   22.9439    9.6898   31.8283 C   0  0  0  0  0  0  0  0  0  0  0  0
   22.8439   10.3898   33.1283 C   0  0  0  0  0  0  0  0  0  0  0  0
   21.7439    9.9898   31.0283 C   0  0  0  0  0  0  0  0  0  0  0  0
   21.2439    8.8898   30.2283 N   0  0  0  0  0  0  0  0  0  0  0  0
   21.9439    8.7898   28.9283 C   0  0  0  0  0  0  0  0  0  0  0  0
   21.1439    8.3898   27.7283 C   0  0  0  0  0  0  0  0  0  0  0  0
   22.1439    8.1898   26.6283 C   0  0  0  0  0  0  0  0  0  0  0  0
   19.9439    8.3898   30.4283 C   0  0  0  0  0  0  0  0  0  0  0  0
   19.2439    7.6898   29.4283 C   0  0  0  0  0  0  0  0  0  0  0  0
   19.9439    7.6898   28.1283 C   0  0  0  0  0  0  0  0  0  0  0  0
   19.8439    7.8898   31.6283 O   0  0  0  0  0  0  0  0  0  0  0  0
   19.0439    7.2898   27.0283 C   0  0  0  0  0  0  0  0  0  0  0  0
   19.7439    7.2898   25.7283 C   0  0  0  0  0  0  0  0  0  0  0  0
   19.1439    6.2898   24.8283 C   0  0  0  0  0  0  0  0  0  0  0  0
   18.0439    5.5898   25.4283 C   0  0  0  0  0  0  0  0  0  0  0  0
   24.0439    7.0898   33.8283 O   0  0  0  0  0  0  0  0  0  0  0  0
   17.8439    7.7898   29.3283 O   0  0  0  0  0  0  0  0  0  0  0  0
  2  1  1  0
  3  1  1  0
  4  3  1  0
  5  4  2  0
  6  1  1  0
  7  6  2  0
  8  2  1  0
  9  7  1  0
  9  8  1  0
 10  5  1  0
 11  5  1  0
 11  6  1  0
 12  9  1  0
 13 12  1  0
 14 13  1  0
 15 14  1  0
 16 12  1  0
 16 15  1  0
 17 15  1  0
 18 17  1  0
 19 18  1  0
 20 19  1  0
 21 20  1  0
 22 18  1  0
 23 22  1  0
 24 20  1  0
 24 23  1  0
 25 22  2  0
 26 24  1  0
 27 26  1  0
 28 27  1  0
 29 28  1  0
 30 13  2  0
 31 23  1  0
M  END
>  <ID>  (1) 
conformer_0

$$$$
