
     RDKit          3D

 30 33  0  0  0  0  0  0  0  0999 V2000
   27.7439   10.8898   35.1283 C   0  0  0  0  0  0  0  0  0  0  0  0
   26.5439   11.5898   35.5283 C   0  0  0  0  0  0  0  0  0  0  0  0
   28.9439   11.3898   35.3283 C   0  0  0  0  0  0  0  0  0  0  0  0
   30.0439   10.4898   35.3283 N   0  0  0  0  0  0  0  0  0  0  0  0
   29.7439    9.1898   34.9283 C   0  0  0  0  0  0  0  0  0  0  0  0
   27.3439    9.5898   34.6283 C   0  0  0  0  0  3  0  0  0  0  0  0
   26.2439    9.6898   33.8283 N   0  0  0  0  0  0  0  0  0  0  0  0
   25.4439   10.6898   35.8283 C   0  0  0  0  0  0  0  0  0  0  0  0
   25.1439    9.9898   34.5283 C   0  0  0  0  0  0  0  0  0  0  0  0
   30.6439    8.4898   34.2283 N   0  0  0  0  0  0  0  0  0  0  0  0
   23.8439    9.7898   34.1283 N   0  0  0  0  0  0  0  0  0  0  0  0
   23.5439    9.5898   32.7283 C   0  0  0  0  0  0  0  0  0  0  0  0
   22.6439    8.4898   32.4283 C   0  0  0  0  0  0  0  0  0  0  0  0
   21.6439    8.5898   33.5283 C   0  0  0  0  0  0  0  0  0  0  0  0
   28.4439    8.6898   34.9283 N   0  0  0  0  0  0  0  0  0  0  0  0
   22.0439    8.8898   31.1283 C   0  0  0  0  0  0  0  0  0  0  0  0
   20.2439    8.3898   33.3283 O   0  0  0  0  0  0  0  0  0  0  0  0
   20.8439    8.7898   30.7283 N   0  0  0  0  0  0  0  0  0  0  0  0
   20.0439    9.8898   30.1283 C   0  0  0  0  0  0  0  0  0  0  0  0
   19.7439    9.4898   28.7283 C   0  0  0  0  0  0  0  0  0  0  0  0
   20.9439    8.6898   28.3283 C   0  0  0  0  0  0  0  0  0  0  0  0
   22.3439    8.9898   28.6283 C   0  0  0  0  0  0  0  0  0  0  0  0
   20.8439    8.1898   26.9283 C   0  0  0  0  0  0  0  0  0  0  0  0
   18.8439   10.2898   27.9283 C   0  0  0  0  0  0  0  0  0  0  0  0
   22.1439    7.8898   26.3283 C   0  0  0  0  0  0  0  0  0  0  0  0
   23.4439    8.2898   26.4283 C   0  0  0  0  0  0  0  0  0  0  0  0
   24.1439    8.9898   25.4283 O   0  0  0  0  0  0  0  0  0  0  0  0
   22.8439    9.0898   29.9283 N   0  0  0  0  0  0  0  0  0  0  0  0
   17.6439    9.8898   27.4283 O   0  0  0  0  0  0  0  0  0  0  0  0
   23.4439    8.8898   27.7283 N   0  0  0  0  0  0  0  0  0  0  0  0
  2  1  1  0
  3  1  1  0
  4  3  1  0
  5  4  2  0
  6  1  1  0
  7  6  1  0
  8  2  1  0
  9  7  2  0
  9  8  1  0
 10  5  1  0
 11  9  1  0
 12 11  1  0
 13 12  1  0
 14 13  1  0
 15  5  1  0
 15  6  1  0
 16 13  1  0
 17 14  1  0
 18 16  2  0
 19 18  1  0
 20 19  1  0
 21 20  1  0
 22 21  1  0
 23 21  1  0
 24 20  1  0
 25 23  1  0
 26 25  1  0
 27 26  1  0
 28 16  1  0
 28 22  2  0
 29 24  1  0
 30 22  1  0
 30 26  1  0
M  END
>  <ID>  (1) 
conformer_0

$$$$
