
     RDKit          3D

 32 37  0  0  0  0  0  0  0  0999 V2000
   27.7439   10.8898   35.1283 C   0  0  0  0  0  0  0  0  0  0  0  0
   26.5439   11.5898   35.5283 C   0  0  0  0  0  0  0  0  0  0  0  0
   29.0439   11.2898   35.3283 C   0  0  0  0  0  0  0  0  0  0  0  0
   30.1439   10.3898   35.3283 N   0  0  0  0  0  0  0  0  0  0  0  0
   29.6439    9.0898   35.0283 C   0  0  0  0  0  0  0  0  0  0  0  0
   27.3439    9.5898   34.7283 C   0  0  0  0  0  0  0  0  0  0  0  0
   26.1439    9.5898   34.1283 N   0  0  0  0  0  0  0  0  0  0  0  0
   25.0439   10.0898   34.7283 C   0  0  0  0  0  0  0  0  0  0  0  0
   25.5439   10.7898   35.9283 C   0  0  0  0  0  0  0  0  0  0  0  0
   28.4439    8.5898   34.7283 N   0  0  0  0  0  0  0  0  0  0  0  0
   23.7439    9.3898   34.8283 C   0  0  0  0  0  0  0  0  0  0  0  0
   23.5439    8.3898   33.8283 C   0  0  0  0  0  0  0  0  0  0  0  0
   22.8439    8.5898   32.6283 C   0  0  0  0  0  0  0  0  0  0  0  0
   24.2439    8.9898   32.7283 N   0  0  0  0  0  0  0  0  0  0  0  0
   21.9439    9.6898   32.8283 C   0  0  0  0  0  0  0  0  0  0  0  0
   20.6439    9.6898   32.1283 N   0  0  0  0  0  0  0  0  0  0  0  0
   21.9439   10.8898   33.4283 O   0  0  0  0  0  0  0  0  0  0  0  0
   20.5439   10.1898   30.7283 C   0  0  0  0  0  0  0  0  0  0  0  0
   21.6439    9.8898   29.8283 C   0  0  0  0  0  0  0  0  0  0  0  0
   19.2439    9.6898   30.2283 C   0  0  0  0  0  0  0  0  0  0  0  0
   21.1439    9.1898   28.6283 C   0  0  0  0  0  0  0  0  0  0  0  0
   22.1439    8.7898   27.6283 C   0  0  0  0  0  0  0  0  0  0  0  0
   19.8439    9.3898   27.9283 N   0  0  0  0  0  0  0  0  0  0  0  0
   21.4439    8.1898   26.5283 C   0  0  0  0  0  0  0  0  0  0  0  0
   19.9439    8.6898   26.7283 C   0  0  0  0  0  0  0  0  0  0  0  0
   18.7439    9.3898   28.8283 C   0  0  0  0  0  0  0  0  0  0  0  0
   17.6439    9.2898   28.2283 O   0  0  0  0  0  0  0  0  0  0  0  0
   23.4439    9.2898   36.2283 C   0  0  0  0  0  0  0  0  0  0  0  0
   19.3439    9.5898   32.7283 C   0  0  0  0  0  0  0  0  0  0  0  0
   18.5439   10.7898   32.4283 C   0  0  0  0  0  0  0  0  0  0  0  0
   18.2439   10.4898   30.9283 O   0  0  0  0  0  0  0  0  0  0  0  0
   30.6439    8.3898   34.3283 N   0  0  0  0  0  0  0  0  0  0  0  0
  2  1  1  0
  3  1  1  0
  4  3  1  0
  5  4  2  0
  6  1  1  0
  7  6  2  0
  8  7  1  0
  9  2  1  0
  9  8  1  0
 10  5  1  0
 10  6  1  0
 11  8  1  0
 12 11  1  0
 13 12  1  0
 14 12  1  0
 14 13  1  0
 15 13  1  0
 16 15  1  0
 17 15  2  0
 18 16  1  0
 19 18  1  0
 20 18  1  0
 21 19  1  0
 22 21  1  0
 23 21  1  0
 24 22  1  0
 25 23  1  0
 25 24  1  0
 26 20  1  0
 26 23  1  0
 27 26  2  0
 28 11  1  0
 29 16  1  0
 30 29  1  0
 31 20  1  0
 31 30  1  0
 32  5  1  0
M  END
>  <ID>  (1) 
conformer_0

$$$$
