
     RDKit          3D

 37 43  0  0  0  0  0  0  0  0999 V2000
   27.9593   10.7714   34.9606 C   0  0  0  0  0  0  0  0  0  0  0  0
   26.9593   11.7714   35.4606 C   0  0  0  0  0  0  0  0  0  0  0  0
   29.2593   10.9714   35.2606 C   0  0  0  0  0  0  0  0  0  0  0  0
   30.1593    9.9714   35.0606 N   0  0  0  0  0  0  0  0  0  0  0  0
   29.5593    8.7714   34.7606 C   0  0  0  0  0  0  0  0  0  0  0  0
   27.3593    9.5714   34.5606 C   0  0  0  0  0  0  0  0  0  0  0  0
   26.2593    9.7714   33.7606 N   0  0  0  0  0  0  0  0  0  0  0  0
   25.6593   11.0714   35.6606 C   0  0  0  0  0  0  0  0  0  0  0  0
   25.2593   10.1714   34.7606 C   0  0  0  0  0  0  0  0  0  0  0  0
   28.2593    8.5714   34.7606 N   0  0  0  0  0  0  0  0  0  0  0  0
   24.0593    9.4714   34.8606 C   0  0  0  0  0  0  0  0  0  0  0  0
   27.1593   12.8714   36.1606 N   0  0  0  0  0  0  0  0  0  0  0  0
   27.5593   13.8714   36.8606 C   0  0  0  0  0  0  0  0  0  0  0  0
   27.3593   14.3714   38.0606 N   0  0  0  0  0  0  0  0  0  0  0  0
   23.8593    8.3714   33.8606 C   0  0  0  0  0  0  0  0  0  0  0  0
   23.6593    9.1714   36.1606 O   0  0  0  0  0  0  0  0  0  0  0  0
   22.7593    8.4714   32.8606 C   0  0  0  0  0  0  0  0  0  0  0  0
   23.0593    9.5714   31.9606 C   0  0  0  0  0  0  0  0  0  0  0  0
   22.7593    9.1714   30.5606 N   0  0  0  0  0  0  0  0  0  0  0  0
   21.7593    9.8714   29.9606 C   0  0  0  0  0  0  0  0  0  0  0  0
   21.4593   10.7714   29.3606 O   0  0  0  0  0  0  0  0  0  0  0  0
   27.9593   14.5714   39.1606 C   0  0  0  0  0  0  0  0  0  0  0  0
   27.2593   14.7714   40.3606 N   0  0  0  0  0  0  0  0  0  0  0  0
   21.4593    8.7714   33.4606 C   0  0  0  0  0  0  0  0  0  0  0  0
   29.2593   14.2714   38.9606 C   0  0  0  0  0  0  0  0  0  0  0  0
   29.8593   14.5714   37.6606 C   0  0  0  0  0  0  0  0  0  0  0  0
   28.5593   14.5714   37.0606 N   0  0  0  0  0  0  0  0  0  0  0  0
   26.2593   15.7714   40.3606 C   0  0  0  0  0  0  0  0  0  0  0  0
   21.3593    8.7714   30.8606 C   0  0  0  0  0  0  0  0  0  0  0  0
   20.7593    9.1714   32.1606 C   0  0  0  0  0  0  0  0  0  0  0  0
   27.9593   14.2714   41.4606 C   0  0  0  0  0  0  0  0  0  0  0  0
   29.2593   13.7714   41.2606 C   0  0  0  0  0  0  0  0  0  0  0  0
   30.0593   13.9714   40.1606 N   0  0  0  0  0  0  0  0  0  0  0  0
   31.3593   13.2714   40.0606 C   0  0  0  0  0  0  0  0  0  0  0  0
   27.3593   14.6714   42.7606 C   0  0  0  0  0  0  0  0  0  0  0  0
   25.5593   15.9714   41.6606 C   0  0  0  0  0  0  0  0  0  0  0  0
   26.0593   15.2714   42.7606 O   0  0  0  0  0  0  0  0  0  0  0  0
  2  1  1  0
  3  1  2  0
  4  3  1  0
  5  4  2  0
  6  1  1  0
  7  6  2  0
  8  2  1  0
  9  7  1  0
  9  8  2  0
 10  5  1  0
 10  6  1  0
 11  9  1  0
 12  2  1  0
 13 12  1  0
 14 13  1  0
 15 11  1  0
 16 11  1  0
 17 15  1  0
 18 17  1  0
 19 18  1  0
 20 19  1  0
 21 20  2  0
 22 14  1  0
 23 22  1  0
 24 17  1  0
 25 22  1  0
 26 25  2  0
 27 13  1  0
 27 26  1  0
 28 23  1  0
 29 19  1  0
 29 20  1  0
 30 24  1  0
 30 29  1  0
 31 23  1  0
 32 31  1  0
 33 25  1  0
 33 32  1  0
 34 33  1  0
 35 31  2  0
 36 28  2  0
 37 35  1  0
 37 36  1  0
M  END
>  <ID>  (1) 
conformer_0

$$$$
