
     RDKit          3D

 20 22  0  0  0  0  0  0  0  0999 V2000
   27.7439   10.8898   35.1283 C   0  0  0  0  0  0  0  0  0  0  0  0
   26.5439   11.5898   35.5283 C   0  0  0  0  0  0  0  0  0  0  0  0
   29.0439   11.2898   35.3283 C   0  0  0  0  0  0  0  0  0  0  0  0
   30.1439   10.3898   35.3283 N   0  0  0  0  0  0  0  0  0  0  0  0
   29.6439    9.0898   35.0283 C   0  0  0  0  0  0  0  0  0  0  0  0
   27.3439    9.5898   34.7283 C   0  0  0  0  0  0  0  0  0  0  0  0
   26.1439    9.5898   34.1283 N   0  0  0  0  0  0  0  0  0  0  0  0
   25.0439   10.0898   34.7283 C   0  0  0  0  0  0  0  0  0  0  0  0
   25.5439   10.7898   35.9283 C   0  0  0  0  0  0  0  0  0  0  0  0
   28.4439    8.5898   34.7283 N   0  0  0  0  0  0  0  0  0  0  0  0
   23.7439    9.3898   34.8283 C   0  0  0  0  0  0  0  0  0  0  0  0
   23.5439    8.3898   33.8283 C   0  0  0  0  0  0  0  0  0  0  0  0
   23.8439    8.8898   32.5283 N   0  0  0  0  0  0  0  0  0  0  0  0
   23.9439    7.0898   33.9283 O   0  0  0  0  0  0  0  0  0  0  0  0
   30.6439    8.2898   34.3283 N   0  0  0  0  0  0  0  0  0  0  0  0
   22.8439    9.9898   32.5283 C   0  0  0  0  0  0  0  0  0  0  0  0
   21.7439    9.9898   31.6283 C   0  0  0  0  0  0  0  0  0  0  0  0
   21.6439    9.5898   33.2283 C   0  0  0  0  0  0  0  0  0  0  0  0
   23.4439    9.1898   36.2283 C   0  0  0  0  0  0  0  0  0  0  0  0
   21.1439    8.3898   33.5283 O   0  0  0  0  0  0  0  0  0  0  0  0
  2  1  1  0
  3  1  1  0
  4  3  1  0
  5  4  2  0
  6  1  1  0
  7  6  2  0
  8  7  1  0
  9  2  1  0
  9  8  1  0
 10  5  1  0
 10  6  1  0
 11  8  1  0
 12 11  1  0
 13 12  1  0
 14 12  2  0
 15  5  1  0
 16 13  1  0
 17 16  1  0
 18 16  1  0
 18 17  1  0
 19 11  1  0
 20 18  1  0
M  END
>  <ID>  (1) 
conformer_0

$$$$
