
     RDKit          3D

 15 16  0  0  0  0  0  0  0  0999 V2000
   32.7319   30.8286   -0.1873 C   0  0  0  0  0  0  0  0  0  0  0  0
   33.0319   29.6286   -0.8873 C   0  0  0  0  0  0  0  0  0  0  0  0
   33.4319   29.9286   -2.2873 C   0  0  0  0  0  0  0  0  0  0  0  0
   32.9319   31.2286   -2.6873 C   0  0  0  0  0  0  0  0  0  0  0  0
   33.2319   28.8286   -3.1873 C   0  0  0  0  0  0  0  0  0  0  0  0
   32.8319   27.7286   -2.4873 C   0  0  0  0  0  0  0  0  0  0  0  0
   33.5319   28.4286   -0.3873 C   0  0  0  0  0  0  0  0  0  0  0  0
   33.2319   27.3286   -1.1873 C   0  0  0  0  0  0  0  0  0  0  0  0
   33.4319   25.9286   -0.7873 C   0  0  0  0  0  0  0  0  0  0  0  0
   31.7319   31.8286   -2.0873 C   0  0  0  0  0  0  0  0  0  0  0  0
   34.7319   25.3286   -0.5873 C   0  0  0  0  0  0  0  0  0  0  0  0
   34.7319   23.8286   -0.5873 C   0  0  0  0  0  0  0  0  0  0  0  0
   31.6319   31.5286   -0.6873 C   0  0  0  0  0  0  0  0  0  0  0  0
   35.7319   23.2286   -1.1873 O   0  0  0  0  0  0  0  0  0  0  0  0
   33.7319   23.1286    0.2127 C   0  0  0  0  0  0  0  0  0  0  0  0
  2  1  2  0
  3  2  1  0
  4  3  2  0
  5  3  1  0
  6  5  2  0
  7  2  1  0
  8  6  1  0
  8  7  2  0
  9  8  1  0
 10  4  1  0
 11  9  1  0
 12 11  1  0
 13  1  1  0
 13 10  2  0
 14 12  1  0
 15 12  1  0
M  END
>  <ID>  (1) 
conformer_0

$$$$
