
     RDKit          3D

 26 31  0  0  0  0  0  0  0  0999 V2000
   32.0734   30.8939   -2.1223 C   0  0  0  0  0  0  0  0  0  0  0  0
   32.5734   30.8939   -0.8223 C   0  0  0  0  0  0  0  0  0  0  0  0
   33.0734   29.6939   -0.2223 C   0  0  0  0  0  0  0  0  0  0  0  0
   32.5734   29.8939   -3.1223 C   0  0  0  0  0  0  0  0  0  0  0  0
   33.1734   28.7939   -2.5223 C   0  0  0  0  0  0  0  0  0  0  0  0
   33.0734   28.5939   -1.1223 C   0  0  0  0  0  0  0  0  0  0  0  0
   31.6734   32.1939   -2.7223 C   0  0  0  0  0  0  0  0  0  0  0  0
   32.7734   30.2939   -4.4223 C   0  0  0  0  0  0  0  0  0  0  0  0
   31.6734   32.3939   -4.1223 C   0  0  0  0  0  0  0  0  0  0  0  0
   31.7734   31.1939   -4.9223 C   0  0  0  0  0  0  0  0  0  0  0  0
   33.4734   27.2939   -0.7223 C   0  0  0  0  0  0  0  0  0  0  0  0
   33.0734   26.1939   -1.5223 C   0  0  0  0  0  0  0  0  0  0  0  0
   34.1734   27.0939    0.5777 C   0  0  0  0  0  0  0  0  0  0  0  0
   31.7734   31.4939   -6.3223 C   0  0  0  0  0  0  0  0  0  0  0  0
   31.9734   30.4939   -7.2223 C   0  0  0  0  0  0  0  0  0  0  0  0
   30.7734   32.5939   -6.5223 C   0  0  0  0  0  0  0  0  0  0  0  0
   32.8734   29.9939   -8.1223 C   0  0  0  0  0  0  0  0  0  0  0  0
   32.9734   30.1939   -9.5223 C   0  0  0  0  0  0  0  0  0  0  0  0
   32.3734   26.2939   -2.7223 C   0  0  0  0  0  0  0  0  0  0  0  0
   33.6734   25.0939   -0.9223 O   0  0  0  0  0  0  0  0  0  0  0  0
   34.3734   25.4939    0.1777 C   0  0  0  0  0  0  0  0  0  0  0  0
   29.4734   32.0939   -6.5223 N   0  0  0  0  0  4  0  0  0  0  0  0
   29.2734   30.7939   -6.3223 N   0  0  0  0  0  0  0  0  0  0  0  0
   29.2734   31.3939   -5.3223 C   0  0  0  0  0  0  0  0  0  0  0  0
   29.8734   32.7939   -5.4223 C   0  0  0  0  0  0  0  0  0  0  0  0
   32.9734   29.7939   -7.0223 O   0  0  0  0  0  0  0  0  0  0  0  0
  2  1  2  0
  3  2  1  0
  4  1  1  0
  5  4  2  0
  6  3  2  0
  6  5  1  0
  7  1  1  0
  8  4  1  0
  9  7  2  0
 10  8  2  0
 10  9  1  0
 11  6  1  0
 12 11  2  0
 13 11  1  0
 14 10  1  0
 15 14  1  0
 16 14  1  0
 17 15  1  0
 18 17  1  0
 19 12  1  0
 20 12  1  0
 21 13  2  0
 21 20  1  0
 22 16  1  0
 24 22  1  0
 24 23  1  0
 25 16  1  0
 25 22  1  0
 25 24  1  0
 26 15  1  0
 26 17  1  0
M  END
>  <ID>  (1) 
conformer_0

$$$$
