
     RDKit          3D

 33 40  0  0  0  0  0  0  0  0999 V2000
   32.0734   30.8939   -2.1223 C   0  0  0  0  0  0  0  0  0  0  0  0
   32.5734   30.8939   -0.8223 C   0  0  0  0  0  0  0  0  0  0  0  0
   33.0734   29.6939   -0.2223 C   0  0  0  0  0  0  0  0  0  0  0  0
   30.8734   31.4939   -2.5223 C   0  0  0  0  0  0  0  0  0  0  0  0
   32.7734   29.7939   -2.8223 C   0  0  0  0  0  0  0  0  0  0  0  0
   32.7734   28.4939   -2.2223 C   0  0  0  0  0  0  0  0  0  0  0  0
   33.1734   28.4939   -0.9223 C   0  0  0  0  0  0  0  0  0  0  0  0
   32.4734   29.8939   -4.2223 C   0  0  0  0  0  0  0  0  0  0  0  0
   31.4734   30.6939   -4.7223 C   0  0  0  0  0  0  0  0  0  0  0  0
   30.4734   31.0939   -3.9223 C   0  0  0  0  0  0  0  0  0  0  0  0
   33.2734   27.2939   -0.1223 C   0  0  0  0  0  0  0  0  0  0  0  0
   33.1734   25.9939   -0.7223 C   0  0  0  0  0  0  0  0  0  0  0  0
   32.5734   26.0939   -2.0223 C   0  0  0  0  0  0  0  0  0  0  0  0
   33.8734   24.7939   -0.4223 C   0  0  0  0  0  0  0  0  0  0  0  0
   30.9734   30.4939   -6.1223 C   0  0  0  0  0  0  0  0  0  0  0  0
   31.7734   29.6939   -7.0223 C   0  0  0  0  0  0  0  0  0  0  0  0
   32.2734   30.4939   -8.1223 C   0  0  0  0  0  0  0  0  0  0  0  0
   31.8734   31.8939   -8.1223 C   0  0  0  0  0  0  0  0  0  0  0  0
   33.3734   29.9939   -8.9223 C   0  0  0  0  0  0  0  0  0  0  0  0
   34.1734   30.8939   -9.5223 C   0  0  0  0  0  0  0  0  0  0  0  0
   32.3734   27.2939   -2.6223 N   0  0  0  0  0  0  0  0  0  0  0  0
   35.0734   24.1939   -0.3223 C   0  0  0  0  0  0  0  0  0  0  0  0
   35.3734   22.8939   -0.6223 C   0  0  0  0  0  0  0  0  0  0  0  0
   35.4734   21.5939   -0.2223 C   0  0  0  0  0  0  0  0  0  0  0  0
   34.3734   31.9939   -8.6223 C   0  0  0  0  0  0  0  0  0  0  0  0
   33.0734   32.6939   -8.4223 C   0  0  0  0  0  0  0  0  0  0  0  0
   34.3734   27.4939    0.8777 C   0  0  0  0  0  0  0  0  0  0  0  0
   34.2734   22.2939   -0.0223 O   0  0  0  0  0  0  0  0  0  0  0  0
   31.7734   25.5939   -1.0223 C   0  0  0  0  0  0  0  0  0  0  0  0
   29.9734   31.2939   -6.7223 C   0  0  0  0  0  0  0  0  0  0  0  0
   28.8734   31.5939   -6.2223 O   0  0  0  0  0  0  0  0  0  0  0  0
   30.7734   32.2939   -7.6223 O   0  0  0  0  0  0  0  0  0  0  0  0
   31.3734   26.7939   -1.7223 N   0  0  0  0  0  0  0  0  0  0  0  0
  2  1  2  0
  3  2  1  0
  4  1  1  0
  5  1  1  0
  6  5  2  0
  7  3  1  0
  7  6  1  0
  8  5  1  0
  9  8  2  0
 10  4  2  0
 10  9  1  0
 11  7  2  0
 12 11  1  0
 13 12  1  0
 14 12  1  0
 15  9  1  0
 16 15  1  0
 17 16  1  0
 18 17  2  0
 19 17  1  0
 20 19  2  0
 21  6  1  0
 21 13  1  0
 22 14  1  0
 23 22  1  0
 24 23  1  0
 25 20  1  0
 26 18  1  0
 26 25  2  0
 27 11  1  0
 28 23  1  0
 28 24  1  0
 29 12  1  0
 29 13  1  0
 30 15  1  0
 31 30  2  0
 32 18  1  0
 32 30  1  0
 33 13  1  0
 33 29  1  0
M  END
>  <ID>  (1) 
conformer_0

$$$$
