
     RDKit          3D

 15 16  0  0  0  0  0  0  0  0999 V2000
   32.7319   30.8286   -0.1873 C   0  0  0  0  0  0  0  0  0  0  0  0
   33.0319   29.6286   -0.8873 C   0  0  0  0  0  0  0  0  0  0  0  0
   33.4319   29.9286   -2.2873 C   0  0  0  0  0  0  0  0  0  0  0  0
   32.9319   31.2286   -2.6873 C   0  0  0  0  0  0  0  0  0  0  0  0
   33.2319   28.8286   -3.1873 C   0  0  0  0  0  0  0  0  0  0  0  0
   32.8319   27.7286   -2.4873 C   0  0  0  0  0  0  0  0  0  0  0  0
   33.6319   28.5286   -0.3873 C   0  0  0  0  0  0  0  0  0  0  0  0
   33.4319   27.3286   -1.1873 C   0  0  0  0  0  0  0  0  0  0  0  0
   33.0319   26.0286   -0.7873 C   0  0  0  0  0  0  0  0  0  0  0  0
   31.8319   31.9286   -2.2873 C   0  0  0  0  0  0  0  0  0  0  0  0
   31.8319   25.4286   -1.0873 C   0  0  0  0  0  0  0  0  0  0  0  0
   34.1319   25.0286   -0.5873 C   0  0  0  0  0  0  0  0  0  0  0  0
   31.5319   31.5286   -0.8873 C   0  0  0  0  0  0  0  0  0  0  0  0
   35.4319   25.5286   -0.1873 C   0  0  0  0  0  0  0  0  0  0  0  0
   33.8319   23.8286   -0.5873 O   0  0  0  0  0  0  0  0  0  0  0  0
  2  1  2  0
  3  2  1  0
  4  3  2  0
  5  3  1  0
  6  5  2  0
  7  2  1  0
  8  6  1  0
  8  7  2  0
  9  8  1  0
 10  4  1  0
 11  9  2  0
 12  9  1  0
 13  1  1  0
 13 10  2  0
 14 12  1  0
 15 12  2  0
M  END
>  <ID>  (1) 
conformer_0

$$$$
