
     RDKit          3D

 16 17  0  0  0  0  0  0  0  0999 V2000
   32.7319   30.8286   -0.1873 C   0  0  0  0  0  0  0  0  0  0  0  0
   33.0319   29.6286   -0.8873 C   0  0  0  0  0  0  0  0  0  0  0  0
   33.4319   29.9286   -2.2873 C   0  0  0  0  0  0  0  0  0  0  0  0
   32.9319   31.2286   -2.6873 C   0  0  0  0  0  0  0  0  0  0  0  0
   33.2319   28.8286   -3.1873 C   0  0  0  0  0  0  0  0  0  0  0  0
   32.8319   27.6286   -2.4873 C   0  0  0  0  0  0  0  0  0  0  0  0
   33.7319   28.4286   -0.3873 C   0  0  0  0  0  0  0  0  0  0  0  0
   33.2319   27.3286   -1.1873 C   0  0  0  0  0  0  0  0  0  0  0  0
   33.7319   26.0286   -0.7873 C   0  0  0  0  0  0  0  0  0  0  0  0
   31.7319   31.8286   -2.1873 C   0  0  0  0  0  0  0  0  0  0  0  0
   34.9319   25.3286   -0.4873 C   0  0  0  0  0  0  0  0  0  0  0  0
   34.9319   23.9286   -0.3873 C   0  0  0  0  0  0  0  0  0  0  0  0
   35.4319   23.0286   -1.1873 O   0  0  0  0  0  0  0  0  0  0  0  0
   31.6319   31.5286   -0.7873 C   0  0  0  0  0  0  0  0  0  0  0  0
   33.9319   23.3286    0.5127 C   0  0  0  0  0  0  0  0  0  0  0  0
   33.4319   21.9286    0.5127 O   0  0  0  0  0  0  0  0  0  0  0  0
  2  1  2  0
  3  2  1  0
  4  3  2  0
  5  3  1  0
  6  5  2  0
  7  2  1  0
  8  6  1  0
  8  7  2  0
  9  8  1  0
 10  4  1  0
 11  9  2  3
 12 11  1  0
 13 12  1  0
 14  1  1  0
 14 10  2  0
 15 12  2  3
 16 15  1  0
M  END
>  <ID>  (1) 
conformer_0

$$$$
