
     RDKit          3D

 14 13  0  0  0  0  0  0  0  0999 V2000
   35.4795   23.1893   -0.4653 C   0  0  0  0  0  0  0  0  0  0  0  0
   34.7795   24.4893   -0.4653 C   0  0  0  0  0  0  0  0  0  0  0  0
   33.5795   25.1893   -0.7653 C   0  0  0  0  0  0  0  0  0  0  0  0
   33.5795   26.5893   -0.3653 C   0  0  0  0  0  0  0  0  0  0  0  0
   33.1795   27.5893   -1.3653 C   0  0  0  0  0  0  0  0  0  0  0  0
   32.7795   26.8893   -2.5653 C   0  0  0  0  0  0  0  0  0  0  0  0
   32.6795   27.8893   -3.6653 C   0  0  0  0  0  0  0  0  0  0  0  0
   33.1795   29.1893   -3.3653 C   0  0  0  0  0  0  0  0  0  0  0  0
   33.5795   29.8893   -2.1653 C   0  0  0  0  0  0  0  0  0  0  0  0
   32.9795   30.0893   -0.8653 C   0  0  0  0  0  0  0  0  0  0  0  0
   32.7795   31.1893   -0.1653 C   0  0  0  0  0  0  0  0  0  0  0  0
   32.4795   31.0893    1.2347 C   0  0  0  0  0  0  0  0  0  0  0  0
   33.2795   29.8893    1.6347 C   0  0  0  0  0  0  0  0  0  0  0  0
   33.4795   28.4893    1.3347 C   0  0  0  0  0  0  0  0  0  0  0  0
  2  1  1  0
  3  2  1  0
  4  3  1  0
  5  4  1  0
  6  5  1  0
  7  6  1  0
  8  7  2  3
  9  8  1  0
 10  9  1  0
 11 10  2  3
 12 11  1  0
 13 12  1  0
 14 13  1  0
M  END
>  <ID>  (1) 
conformer_0

$$$$
