
     RDKit          3D

  8  9  0  0  0  0  0  0  0  0999 V2000
   29.7025   31.1447   -2.5954 C   0  0  0  0  0  0  0  0  0  0  0  0
   29.2025   29.8447   -2.8954 C   0  0  0  0  0  0  0  0  0  0  0  0
   31.1025   31.0447   -2.2954 C   0  0  0  0  0  0  0  0  0  0  0  0
   31.6025   29.7447   -2.2954 C   0  0  0  0  0  0  0  0  0  0  0  0
   32.9025   29.5447   -2.2954 N   0  0  0  0  0  0  0  0  0  0  0  0
   33.9025   30.4447   -1.8954 C   0  0  0  0  0  0  0  0  0  0  0  0
   33.4025   30.6447   -3.1954 C   0  0  0  0  0  0  0  0  0  0  0  0
   30.5025   28.9447   -2.7954 C   0  0  0  0  0  0  0  0  0  0  0  0
  2  1  2  0
  3  1  1  0
  4  3  1  0
  5  4  1  0
  6  5  1  0
  7  5  1  0
  7  6  1  0
  8  2  1  0
  8  4  2  0
M  END
>  <ID>  (1) 
conformer_0

$$$$
