
     RDKit          3D

 11 13  0  0  0  0  0  0  0  0999 V2000
   32.8348   30.8874   -0.0768 C   0  0  0  0  0  0  0  0  0  0  0  0
   33.0348   29.7874   -1.0768 C   0  0  0  0  0  0  0  0  0  0  0  0
   32.8348   30.4874    1.2232 C   0  0  0  0  0  0  0  0  0  0  0  0
   33.5348   30.1874   -2.3768 C   0  0  0  0  0  0  0  0  0  0  0  0
   33.4348   28.5874   -0.4768 C   0  0  0  0  0  0  0  0  0  0  0  0
   33.8348   28.2874    0.8232 C   0  0  0  0  0  0  0  0  0  0  0  0
   33.2348   27.4874   -1.3768 C   0  0  0  0  0  0  0  0  0  0  0  0
   32.8348   27.7874   -2.5768 C   0  0  0  0  0  0  0  0  0  0  0  0
   33.1348   28.9874   -3.2768 C   0  0  0  0  0  0  0  0  0  0  0  0
   31.7348   28.6874   -2.9768 C   0  0  0  0  0  0  0  0  0  0  0  0
   33.5348   29.3874    1.7232 C   0  0  0  0  0  0  0  0  0  0  0  0
  2  1  2  0
  3  1  1  0
  4  2  1  0
  5  2  1  0
  6  5  2  0
  7  5  1  0
  8  7  2  0
  9  4  2  0
  9  8  1  0
 10  8  1  0
 10  9  1  0
 11  3  2  0
 11  6  1  0
M  END
>  <ID>  (1) 
conformer_0

$$$$
