
     RDKit          3D

 14 13  0  0  0  0  0  0  0  0999 V2000
   35.6466   22.2601   -0.6083 C   0  0  0  0  0  0  0  0  0  0  0  0
   34.8466   23.4601   -0.2083 C   0  0  0  0  0  0  0  0  0  0  0  0
   34.7466   24.8601   -0.6083 C   0  0  0  0  0  0  0  0  0  0  0  0
   33.3466   25.2601   -0.9083 C   0  0  0  0  0  0  0  0  0  0  0  0
   32.8466   26.3601   -1.7083 C   0  0  0  0  0  0  0  0  0  0  0  0
   32.3466   26.5602   -2.9083 C   0  0  0  0  0  0  0  0  0  0  0  0
   32.7466   27.7602   -3.6083 C   0  0  0  0  0  0  0  0  0  0  0  0
   33.1466   28.7602   -2.6083 C   0  0  0  0  0  0  0  0  0  0  0  0
   33.7466   30.0602   -2.8083 C   0  0  0  0  0  0  0  0  0  0  0  0
   33.4466   31.0602   -1.9083 C   0  0  0  0  0  0  0  0  0  0  0  0
   32.7466   30.9601   -0.6083 C   0  0  0  0  0  0  0  0  0  0  0  0
   33.3466   30.1602    0.4917 C   0  0  0  0  0  0  0  0  0  0  0  0
   32.7466   30.5602    1.7917 C   0  0  0  0  0  0  0  0  0  0  0  0
   33.5466   22.9601    0.2917 C   0  0  0  0  0  0  0  0  0  0  0  0
  2  1  1  0
  3  2  1  0
  4  3  1  0
  5  4  1  0
  6  5  1  0
  7  6  1  0
  8  7  1  0
  9  8  1  0
 10  9  2  3
 11 10  1  0
 12 11  1  0
 13 12  1  0
 14  2  1  0
M  END
>  <ID>  (1) 
conformer_0

$$$$
