
     RDKit          3D

 18 20  0  0  0  0  0  0  0  0999 V2000
   32.7319   30.8286   -0.1873 C   0  0  0  0  0  0  0  0  0  0  0  0
   33.0319   29.6286   -0.8873 C   0  0  0  0  0  0  0  0  0  0  0  0
   33.4319   29.9286   -2.2873 C   0  0  0  0  0  0  0  0  0  0  0  0
   32.9319   31.2286   -2.6873 C   0  0  0  0  0  0  0  0  0  0  0  0
   33.2319   28.8286   -3.1873 C   0  0  0  0  0  0  0  0  0  0  0  0
   32.8319   27.7286   -2.4873 C   0  0  0  0  0  0  0  0  0  0  0  0
   33.6319   28.5286   -0.3873 C   0  0  0  0  0  0  0  0  0  0  0  0
   33.4319   27.3286   -1.1873 C   0  0  0  0  0  0  0  0  0  0  0  0
   33.4319   25.9286   -0.7873 C   0  0  0  0  0  0  0  0  0  0  0  0
   34.7319   25.3286   -0.4873 C   0  0  0  0  0  0  0  0  0  0  0  0
   31.7319   31.7286   -2.1873 C   0  0  0  0  0  0  0  0  0  0  0  0
   35.0319   23.9286   -0.4873 C   0  0  0  0  0  0  0  0  0  0  0  0
   35.5319   23.0286   -1.2873 O   0  0  0  0  0  0  0  0  0  0  0  0
   31.5319   31.4286   -0.7873 C   0  0  0  0  0  0  0  0  0  0  0  0
   34.3319   23.2286    0.6127 C   0  0  0  0  0  0  0  0  0  0  0  0
   34.0319   21.8286    0.4127 C   0  0  0  0  0  0  0  0  0  0  0  0
   35.2319   22.0286    1.0127 O   0  0  0  0  0  0  0  0  0  0  0  0
   33.3319   21.0286    0.6127 O   0  0  0  0  0  0  0  0  0  0  0  0
  2  1  2  0
  3  2  1  0
  4  3  2  0
  5  3  1  0
  6  5  2  0
  7  2  1  0
  8  6  1  0
  8  7  2  0
  9  8  1  0
 10  9  1  0
 11  4  1  0
 12 10  1  0
 13 12  1  0
 14  1  1  0
 14 11  2  0
 15 12  1  0
 16 15  1  0
 17 15  1  0
 17 16  1  0
 18 16  1  0
M  END
>  <ID>  (1) 
conformer_0

$$$$
