
     RDKit          3D

 26 31  0  0  0  0  0  0  0  0999 V2000
   32.7319   30.8286   -0.1873 C   0  0  0  0  0  0  0  0  0  0  0  0
   32.9319   30.2286    1.1127 C   0  0  0  0  0  0  0  0  0  0  0  0
   32.8319   30.0286   -1.2873 C   0  0  0  0  0  0  0  0  0  0  0  0
   33.2319   30.6286   -2.5873 C   0  0  0  0  0  0  0  0  0  0  0  0
   33.4319   29.6286   -3.6873 C   0  0  0  0  0  0  0  0  0  0  0  0
   32.7319   28.4286   -3.1873 C   0  0  0  0  0  0  0  0  0  0  0  0
   33.4319   28.8286   -0.9873 C   0  0  0  0  0  0  0  0  0  0  0  0
   33.3319   27.8286   -2.0873 C   0  0  0  0  0  0  0  0  0  0  0  0
   32.9319   26.4286   -1.8873 C   0  0  0  0  0  0  0  0  0  0  0  0
   33.3319   25.8286   -0.6873 C   0  0  0  0  0  0  0  0  0  0  0  0
   31.9319   25.8286   -2.6873 C   0  0  0  0  0  0  0  0  0  0  0  0
   32.2319   25.0286   -0.1873 C   0  0  0  0  0  0  0  0  0  0  0  0
   33.9319   26.8286    0.0127 O   0  0  0  0  0  0  0  0  0  0  0  0
   33.8319   28.1286    0.2127 C   0  0  0  0  0  0  0  0  0  0  0  0
   33.5319   29.0286    1.3127 C   0  0  0  0  0  0  0  0  0  0  0  0
   32.5319   31.8286   -2.9873 C   0  0  0  0  0  0  0  0  0  0  0  0
   32.4319   31.8286   -4.3873 O   0  0  0  0  0  0  0  0  0  0  0  0
   32.1319   31.1286   -5.2873 C   0  0  0  0  0  0  0  0  0  0  0  0
   32.4319   29.8286   -5.8873 C   0  0  0  0  0  0  0  0  0  0  0  0
   32.4319   29.8286   -7.3873 C   0  0  0  0  0  0  0  0  0  0  0  0
   32.2319   31.2286   -7.7873 C   0  0  0  0  0  0  0  0  0  0  0  0
   31.8319   32.0286   -6.6873 C   0  0  0  0  0  0  0  0  0  0  0  0
   32.1319   31.5286   -9.1873 C   0  0  0  0  0  0  0  0  0  0  0  0
   33.0319   30.5286   -9.7873 C   0  0  0  0  0  0  0  0  0  0  0  0
   33.4319   29.5286   -8.7873 C   0  0  0  0  0  0  0  0  0  0  0  0
   31.1319   30.0286   -7.8873 O   0  0  0  0  0  0  0  0  0  0  0  0
  2  1  2  0
  3  1  1  0
  4  3  2  0
  5  4  1  0
  6  5  2  0
  7  3  1  0
  8  6  1  0
  8  7  2  0
  9  8  1  0
 10  9  2  0
 11  9  1  0
 12 10  1  0
 13 10  1  0
 14  7  1  0
 14 13  1  0
 15  2  1  0
 15 14  2  0
 16  4  1  0
 17 16  1  0
 18 17  1  0
 19 18  1  0
 20 19  1  0
 21 20  1  0
 22 18  1  0
 22 21  1  0
 23 21  1  0
 24 23  1  0
 25 20  1  0
 25 24  1  0
 26 20  1  0
 26 21  1  0
M  END
>  <ID>  (1) 
conformer_0

$$$$
