
     RDKit          3D

 31 35  0  0  0  0  0  0  0  0999 V2000
   32.0734   30.8939   -2.1223 C   0  0  0  0  0  0  0  0  0  0  0  0
   32.5734   30.8939   -0.8223 C   0  0  0  0  0  0  0  0  0  0  0  0
   33.0734   29.6939   -0.2223 C   0  0  0  0  0  0  0  0  0  0  0  0
   30.8734   31.4939   -2.5223 C   0  0  0  0  0  0  0  0  0  0  0  0
   32.7734   29.7939   -2.8223 C   0  0  0  0  0  0  0  0  0  0  0  0
   32.7734   28.4939   -2.2223 C   0  0  0  0  0  0  0  0  0  0  0  0
   33.1734   28.4939   -0.9223 C   0  0  0  0  0  0  0  0  0  0  0  0
   30.3734   31.4939   -3.8223 C   0  0  0  0  0  0  0  0  0  0  0  0
   32.3734   29.8939   -4.2223 C   0  0  0  0  0  0  0  0  0  0  0  0
   31.1734   30.5939   -4.7223 C   0  0  0  0  0  0  0  0  0  0  0  0
   33.5734   27.2939   -0.2223 C   0  0  0  0  0  0  0  0  0  0  0  0
   33.2734   25.9939   -0.8223 C   0  0  0  0  0  0  0  0  0  0  0  0
   32.5734   26.1939   -2.1223 C   0  0  0  0  0  0  0  0  0  0  0  0
   32.6734   24.8939   -0.1223 C   0  0  0  0  0  0  0  0  0  0  0  0
   30.7734   30.1939   -6.0223 C   0  0  0  0  0  0  0  0  0  0  0  0
   29.5734   30.3939   -6.4223 O   0  0  0  0  0  0  0  0  0  0  0  0
   34.6734   27.4939    0.6777 C   0  0  0  0  0  0  0  0  0  0  0  0
   32.7734   27.2939   -2.9223 N   0  0  0  0  0  0  0  0  0  0  0  0
   31.7734   30.0939   -7.1223 C   0  0  0  0  0  0  0  0  0  0  0  0
   31.7734   31.0939   -8.2223 C   0  0  0  0  0  0  0  0  0  0  0  0
   32.9734   31.6939   -8.7223 C   0  0  0  0  0  0  0  0  0  0  0  0
   30.4734   31.3939   -8.7223 C   0  0  0  0  0  0  0  0  0  0  0  0
   34.7734   28.8939    1.1777 C   0  0  0  0  0  0  0  0  0  0  0  0
   33.6734   29.6939    0.9777 N   0  0  0  0  0  0  0  0  0  0  0  0
   33.1734   23.6939    0.3777 C   0  0  0  0  0  0  0  0  0  0  0  0
   34.1734   22.7939    0.1777 C   0  0  0  0  0  0  0  0  0  0  0  0
   35.3734   22.6939   -0.4223 C   0  0  0  0  0  0  0  0  0  0  0  0
   33.6734   21.4939    0.3777 O   0  0  0  0  0  0  0  0  0  0  0  0
   34.0734   20.9939    1.6777 C   0  0  0  0  0  0  0  0  0  0  0  0
   35.3734   22.7939    0.8777 O   0  0  0  0  0  0  0  0  0  0  0  0
   35.5734   23.3939   -1.3223 O   0  0  0  0  0  0  0  0  0  0  0  0
  2  1  2  0
  3  2  1  0
  4  1  1  0
  5  1  1  0
  6  5  2  0
  7  3  1  0
  7  6  1  0
  8  4  2  0
  9  5  1  0
 10  8  1  0
 10  9  2  0
 11  7  1  0
 12 11  2  0
 13 12  1  0
 14 12  1  0
 15 10  1  0
 16 15  2  0
 17 11  1  0
 18  6  1  0
 18 13  2  0
 19 15  1  0
 20 19  1  0
 21 20  1  0
 22 20  1  0
 23 17  2  0
 24  3  2  0
 24 23  1  0
 25 14  1  0
 26 25  1  0
 27 26  1  0
 28 26  1  0
 29 28  1  0
 30 26  1  0
 30 27  1  0
 31 27  1  0
M  END
>  <ID>  (1) 
conformer_0

$$$$
