
     RDKit          3D

 32 38  0  0  0  0  0  0  0  0999 V2000
   32.7319   30.8286   -0.1873 C   0  0  0  0  0  0  0  0  0  0  0  0
   32.9319   30.2286    1.1127 C   0  0  0  0  0  0  0  0  0  0  0  0
   32.8319   30.0286   -1.2873 C   0  0  0  0  0  0  0  0  0  0  0  0
   33.2319   30.6286   -2.5873 C   0  0  0  0  0  0  0  0  0  0  0  0
   33.4319   29.6286   -3.6873 C   0  0  0  0  0  0  0  0  0  0  0  0
   32.7319   28.4286   -3.1873 C   0  0  0  0  0  0  0  0  0  0  0  0
   33.4319   28.8286   -0.9873 C   0  0  0  0  0  0  0  0  0  0  0  0
   33.3319   27.8286   -2.0873 C   0  0  0  0  0  0  0  0  0  0  0  0
   33.2319   26.4286   -1.6873 C   0  0  0  0  0  0  0  0  0  0  0  0
   34.0319   26.1286   -0.5873 C   0  0  0  0  0  0  0  0  0  0  0  0
   33.9319   28.3286    0.2127 C   0  0  0  0  0  0  0  0  0  0  0  0
   34.6319   27.1286    0.3127 C   0  0  0  0  0  0  0  0  0  0  0  0
   33.6319   29.1286    1.4127 C   0  0  0  0  0  0  0  0  0  0  0  0
   32.7319   31.9286   -2.8873 C   0  0  0  0  0  0  0  0  0  0  0  0
   34.6319   24.8286   -0.5873 O   0  0  0  0  0  0  0  0  0  0  0  0
   35.2319   23.6286   -0.3873 C   0  0  0  0  0  0  0  0  0  0  0  0
   35.5319   22.3286   -0.4873 C   0  0  0  0  0  0  0  0  0  0  0  0
   32.1319   32.0286   -4.1873 O   0  0  0  0  0  0  0  0  0  0  0  0
   32.3319   31.3286   -5.2873 C   0  0  0  0  0  0  0  0  0  0  0  0
   32.5319   30.2286   -6.1873 C   0  0  0  0  0  0  0  0  0  0  0  0
   32.3319   30.6286   -7.5873 C   0  0  0  0  0  0  0  0  0  0  0  0
   32.6319   32.0286   -7.7873 C   0  0  0  0  0  0  0  0  0  0  0  0
   33.2319   29.8286   -8.3873 C   0  0  0  0  0  0  0  0  0  0  0  0
   30.9319   30.5286   -8.0873 C   0  0  0  0  0  0  0  0  0  0  0  0
   31.9319   30.2286   -5.2873 O   0  0  0  0  0  0  0  0  0  0  0  0
   34.6319   21.3286    0.0127 C   0  0  0  0  0  0  0  0  0  0  0  0
   34.2319   21.6286    1.4127 C   0  0  0  0  0  0  0  0  0  0  0  0
   33.4319   22.2286    0.4127 O   0  0  0  0  0  0  0  0  0  0  0  0
   30.7319   31.3286   -9.2873 C   0  0  0  0  0  0  0  0  0  0  0  0
   33.3319   30.2286   -9.7873 C   0  0  0  0  0  0  0  0  0  0  0  0
   31.9319   32.3286   -8.9873 C   0  0  0  0  0  0  0  0  0  0  0  0
   34.1319   31.0286   -9.1873 C   0  0  0  0  0  0  0  0  0  0  0  0
  2  1  2  0
  3  1  1  0
  4  3  1  0
  5  4  2  0
  6  5  1  0
  7  3  2  0
  8  6  1  0
  8  7  1  0
  9  8  2  0
 10  9  1  0
 11  7  1  0
 12 10  2  0
 12 11  1  0
 13  2  1  0
 13 11  2  0
 14  4  1  0
 15 10  1  0
 16 15  1  0
 17 16  1  0
 18 14  1  0
 19 18  1  0
 20 19  1  0
 21 20  1  0
 22 21  1  0
 23 21  1  0
 24 21  1  0
 25 19  1  0
 25 20  1  0
 26 17  1  0
 27 26  1  0
 28 26  1  0
 28 27  1  0
 29 24  1  0
 30 23  1  0
 31 22  1  0
 31 29  1  0
 32 23  1  0
 32 30  1  0
M  END
>  <ID>  (1) 
conformer_0

$$$$
