
     RDKit          3D

 27 30  0  0  0  0  0  0  0  0999 V2000
   32.0734   30.8939   -2.1223 C   0  0  0  0  0  0  0  0  0  0  0  0
   32.5734   30.8939   -0.8223 C   0  0  0  0  0  0  0  0  0  0  0  0
   33.0734   29.6939   -0.2223 C   0  0  0  0  0  0  0  0  0  0  0  0
   32.5734   29.8939   -3.1223 C   0  0  0  0  0  0  0  0  0  0  0  0
   33.1734   28.7939   -2.5223 C   0  0  0  0  0  0  0  0  0  0  0  0
   33.0734   28.5939   -1.1223 C   0  0  0  0  0  0  0  0  0  0  0  0
   31.6734   32.1939   -2.7223 C   0  0  0  0  0  0  0  0  0  0  0  0
   32.7734   30.2939   -4.4223 C   0  0  0  0  0  0  0  0  0  0  0  0
   31.6734   32.3939   -4.1223 C   0  0  0  0  0  0  0  0  0  0  0  0
   31.7734   31.1939   -4.9223 C   0  0  0  0  0  0  0  0  0  0  0  0
   33.4734   27.2939   -0.6223 C   0  0  0  0  0  0  0  0  0  0  0  0
   33.2734   26.0939   -1.2223 C   0  0  0  0  0  0  0  0  0  0  0  0
   33.5734   27.4939    0.7777 C   0  0  0  0  0  0  0  0  0  0  0  0
   31.6734   31.2939   -6.3223 C   0  0  0  0  0  0  0  0  0  0  0  0
   32.3734   30.1939   -6.9223 C   0  0  0  0  0  0  0  0  0  0  0  0
   31.0734   32.2939   -7.0223 C   0  0  0  0  0  0  0  0  0  0  0  0
   32.3734   30.2939   -8.3223 C   0  0  0  0  0  0  0  0  0  0  0  0
   31.9734   31.4939   -8.9223 C   0  0  0  0  0  0  0  0  0  0  0  0
   31.1734   32.2939   -8.2223 N   0  0  0  0  0  0  0  0  0  0  0  0
   32.5734   26.2939   -2.5223 C   0  0  0  0  0  0  0  0  0  0  0  0
   33.7734   24.9939   -0.9223 O   0  0  0  0  0  0  0  0  0  0  0  0
   34.1734   23.7939   -0.5223 C   0  0  0  0  0  0  0  0  0  0  0  0
   35.4734   23.3939   -0.5223 C   0  0  0  0  0  0  0  0  0  0  0  0
   35.5734   21.9939   -0.3223 C   0  0  0  0  0  0  0  0  0  0  0  0
   34.4734   21.4939   -0.0223 O   0  0  0  0  0  0  0  0  0  0  0  0
   33.8734   28.3939    1.6777 C   0  0  0  0  0  0  0  0  0  0  0  0
   33.4734   29.5939    0.9777 N   0  0  0  0  0  0  0  0  0  0  0  0
  2  1  2  0
  3  2  1  0
  4  1  1  0
  5  4  2  0
  6  3  2  0
  6  5  1  0
  7  1  1  0
  8  4  1  0
  9  7  2  0
 10  8  2  0
 10  9  1  0
 11  6  1  0
 12 11  1  0
 13 11  2  0
 14 10  1  0
 15 14  2  0
 16 14  1  0
 17 15  1  0
 18 17  2  0
 19 16  2  0
 19 18  1  0
 20 12  1  0
 21 12  1  0
 22 21  1  0
 23 22  2  3
 24 23  1  0
 25 24  1  0
 26 13  1  0
 27  3  1  0
 27 26  2  0
M  END
>  <ID>  (1) 
conformer_0

$$$$
