
     RDKit          3D

 34 41  0  0  0  0  0  0  0  0999 V2000
   32.0734   30.8939   -2.1223 C   0  0  0  0  0  0  0  0  0  0  0  0
   32.5734   30.8939   -0.8223 C   0  0  0  0  0  0  0  0  0  0  0  0
   33.0734   29.6939   -0.2223 C   0  0  0  0  0  0  0  0  0  0  0  0
   30.8734   31.4939   -2.5223 C   0  0  0  0  0  0  0  0  0  0  0  0
   32.7734   29.7939   -2.8223 C   0  0  0  0  0  0  0  0  0  0  0  0
   32.7734   28.4939   -2.2223 C   0  0  0  0  0  0  0  0  0  0  0  0
   33.1734   28.4939   -0.9223 C   0  0  0  0  0  0  0  0  0  0  0  0
   32.4734   29.8939   -4.2223 C   0  0  0  0  0  0  0  0  0  0  0  0
   31.4734   30.6939   -4.7223 C   0  0  0  0  0  0  0  0  0  0  0  0
   30.4734   31.0939   -3.9223 C   0  0  0  0  0  0  0  0  0  0  0  0
   33.2734   27.2939   -0.1223 C   0  0  0  0  0  0  0  0  0  0  0  0
   33.1734   25.9939   -0.7223 C   0  0  0  0  0  0  0  0  0  0  0  0
   32.5734   26.0939   -2.0223 C   0  0  0  0  0  0  0  0  0  0  0  0
   33.8734   24.7939   -0.4223 C   0  0  0  0  0  0  0  0  0  0  0  0
   30.9734   30.4939   -6.1223 C   0  0  0  0  0  0  0  0  0  0  0  0
   31.7734   29.6939   -7.0223 C   0  0  0  0  0  0  0  0  0  0  0  0
   32.2734   30.4939   -8.1223 C   0  0  0  0  0  0  0  0  0  0  0  0
   33.2734   29.7939   -8.9223 C   0  0  0  0  0  0  0  0  0  0  0  0
   31.9734   31.8939   -8.1223 C   0  0  0  0  0  0  0  0  0  0  0  0
   33.5734   30.6939  -10.0223 C   0  0  0  0  0  0  0  0  0  0  0  0
   34.3734   27.4939    0.8777 C   0  0  0  0  0  0  0  0  0  0  0  0
   34.8734   23.8939   -0.0223 C   0  0  0  0  0  0  0  0  0  0  0  0
   32.5734   27.2939   -2.7223 N   0  0  0  0  0  0  0  0  0  0  0  0
   35.9734   23.2939   -0.8223 C   0  0  0  0  0  0  0  0  0  0  0  0
   36.0734   21.9939   -0.1223 C   0  0  0  0  0  0  0  0  0  0  0  0
   34.7734   21.4939    0.0777 C   0  0  0  0  0  0  0  0  0  0  0  0
   31.3734   31.1939   -8.9223 C   0  0  0  0  0  0  0  0  0  0  0  0
   33.9734   22.6939    0.3777 O   0  0  0  0  0  0  0  0  0  0  0  0
   34.5734   28.7939    1.3777 C   0  0  0  0  0  0  0  0  0  0  0  0
   33.4734   29.5939    1.0777 N   0  0  0  0  0  0  0  0  0  0  0  0
   32.7734   30.2939    2.1777 C   0  0  0  0  0  0  0  0  0  0  0  0
   32.5734   31.5939    1.9777 C   0  0  0  0  0  0  0  0  0  0  0  0
   32.3734   31.5939    0.5777 N   0  0  0  0  0  0  0  0  0  0  0  0
   34.2734   30.9939   -8.9223 C   0  0  0  0  0  0  0  0  0  0  0  0
  2  1  1  0
  3  2  1  0
  4  1  1  0
  5  1  1  0
  6  5  2  0
  7  3  2  0
  7  6  1  0
  8  5  1  0
  9  8  2  0
 10  4  2  0
 10  9  1  0
 11  7  1  0
 12 11  2  0
 13 12  1  0
 14 12  1  0
 15  9  1  0
 16 15  1  0
 17 16  1  0
 18 17  1  0
 19 17  1  0
 20 18  1  0
 21 11  1  0
 22 14  1  0
 23  6  1  0
 23 13  2  0
 24 22  1  0
 25 24  1  0
 26 25  1  0
 27 17  1  0
 27 19  2  0
 28 22  1  0
 28 26  1  0
 29 21  2  0
 30  3  1  0
 30 29  1  0
 31 30  1  0
 32 31  2  0
 33  2  2  0
 33 32  1  0
 34 18  1  0
 34 20  2  0
M  END
>  <ID>  (1) 
conformer_0

$$$$
