
     RDKit          3D

 28 33  0  0  0  0  0  0  0  0999 V2000
   32.7319   30.8286   -0.1873 C   0  0  0  0  0  0  0  0  0  0  0  0
   32.9319   30.2286    1.1127 C   0  0  0  0  0  0  0  0  0  0  0  0
   32.8319   30.0286   -1.2873 C   0  0  0  0  0  0  0  0  0  0  0  0
   33.2319   30.6286   -2.5873 C   0  0  0  0  0  0  0  0  0  0  0  0
   33.4319   29.6286   -3.6873 C   0  0  0  0  0  0  0  0  0  0  0  0
   32.7319   28.4286   -3.1873 C   0  0  0  0  0  0  0  0  0  0  0  0
   33.5319   28.8286   -0.9873 C   0  0  0  0  0  0  0  0  0  0  0  0
   33.1319   27.8286   -1.9873 C   0  0  0  0  0  0  0  0  0  0  0  0
   33.1319   26.4286   -1.6873 C   0  0  0  0  0  0  0  0  0  0  0  0
   34.1319   25.9286   -0.6873 C   0  0  0  0  0  0  0  0  0  0  0  0
   33.7319   28.2286    0.3127 C   0  0  0  0  0  0  0  0  0  0  0  0
   34.5319   26.9286    0.2127 C   0  0  0  0  0  0  0  0  0  0  0  0
   33.6319   29.1286    1.4127 C   0  0  0  0  0  0  0  0  0  0  0  0
   31.9319   25.6286   -1.6873 C   0  0  0  0  0  0  0  0  0  0  0  0
   32.8319   32.0286   -2.7873 C   0  0  0  0  0  0  0  0  0  0  0  0
   34.2319   24.6286   -0.4873 O   0  0  0  0  0  0  0  0  0  0  0  0
   32.3319   32.5286   -4.0873 C   0  0  0  0  0  0  0  0  0  0  0  0
   32.2319   31.5286   -5.1873 C   0  0  0  0  0  0  0  0  0  0  0  0
   32.6319   30.2286   -4.7873 O   0  0  0  0  0  0  0  0  0  0  0  0
   32.0319   32.0286   -6.5873 C   0  0  0  0  0  0  0  0  0  0  0  0
   32.0319   30.9286   -7.5873 C   0  0  0  0  0  0  0  0  0  0  0  0
   31.9319   31.0286   -8.9873 C   0  0  0  0  0  0  0  0  0  0  0  0
   31.8319   29.6286   -6.8873 C   0  0  0  0  0  0  0  0  0  0  0  0
   30.6319   30.2286   -7.0873 C   0  0  0  0  0  0  0  0  0  0  0  0
   31.4319   25.0286   -0.5873 O   0  0  0  0  0  0  0  0  0  0  0  0
   32.9319   30.6286   -9.9873 C   0  0  0  0  0  0  0  0  0  0  0  0
   34.2319   30.8286   -9.2873 C   0  0  0  0  0  0  0  0  0  0  0  0
   33.6319   29.6286   -8.9873 C   0  0  0  0  0  0  0  0  0  0  0  0
  2  1  2  0
  3  1  1  0
  4  3  1  0
  5  4  1  0
  6  5  2  0
  7  3  2  0
  8  6  1  0
  8  7  1  0
  9  8  2  0
 10  9  1  0
 11  7  1  0
 12 10  2  0
 12 11  1  0
 13  2  1  0
 13 11  2  0
 14  9  1  0
 15  4  2  0
 16 10  1  0
 17 15  1  0
 18 17  2  0
 19  5  1  0
 19 18  1  0
 20 18  1  0
 21 20  1  0
 22 21  1  0
 23 21  1  0
 24 21  1  0
 24 23  1  0
 25 14  1  0
 26 22  1  0
 27 26  1  0
 28 26  1  0
 28 27  1  0
M  END
>  <ID>  (1) 
conformer_0

$$$$
