
     RDKit          3D

 25 28  0  0  0  0  0  0  0  0999 V2000
   32.7319   30.8286   -0.1873 C   0  0  0  0  0  0  0  0  0  0  0  0
   32.9319   30.2286    1.1127 C   0  0  0  0  0  0  0  0  0  0  0  0
   32.8319   30.0286   -1.2873 C   0  0  0  0  0  0  0  0  0  0  0  0
   33.2319   30.6286   -2.5873 C   0  0  0  0  0  0  0  0  0  0  0  0
   33.4319   29.6286   -3.6873 C   0  0  0  0  0  0  0  0  0  0  0  0
   32.7319   28.4286   -3.1873 C   0  0  0  0  0  0  0  0  0  0  0  0
   33.5319   28.8286   -0.9873 C   0  0  0  0  0  0  0  0  0  0  0  0
   33.1319   27.8286   -1.9873 C   0  0  0  0  0  0  0  0  0  0  0  0
   33.1319   26.4286   -1.6873 C   0  0  0  0  0  0  0  0  0  0  0  0
   34.1319   25.9286   -0.6873 C   0  0  0  0  0  0  0  0  0  0  0  0
   33.7319   28.2286    0.3127 C   0  0  0  0  0  0  0  0  0  0  0  0
   34.4319   26.9286    0.3127 C   0  0  0  0  0  0  0  0  0  0  0  0
   33.8319   29.2286    1.4127 C   0  0  0  0  0  0  0  0  0  0  0  0
   31.9319   25.6286   -1.5873 C   0  0  0  0  0  0  0  0  0  0  0  0
   32.4319   31.8286   -2.9873 C   0  0  0  0  0  0  0  0  0  0  0  0
   32.0319   31.8286   -4.3873 C   0  0  0  0  0  0  0  0  0  0  0  0
   34.2319   24.6286   -0.5873 O   0  0  0  0  0  0  0  0  0  0  0  0
   30.7319   31.9286   -4.6873 C   0  0  0  0  0  0  0  0  0  0  0  0
   30.2319   32.0286   -5.8873 C   0  0  0  0  0  0  0  0  0  0  0  0
   30.7319   31.6286   -7.0873 C   0  0  0  0  0  0  0  0  0  0  0  0
   32.1319   31.4286   -7.1873 C   0  0  0  0  0  0  0  0  0  0  0  0
   32.6319   30.7286   -8.3873 C   0  0  0  0  0  0  0  0  0  0  0  0
   30.1319   31.2286   -8.3873 C   0  0  0  0  0  0  0  0  0  0  0  0
   32.4319   31.3286   -9.4873 C   0  0  0  0  0  0  0  0  0  0  0  0
   30.9319   31.3286   -9.4873 C   0  0  0  0  0  0  0  0  0  0  0  0
  2  1  2  0
  3  1  1  0
  4  3  1  0
  5  4  2  0
  6  5  1  0
  7  3  2  0
  8  6  1  0
  8  7  1  0
  9  8  2  0
 10  9  1  0
 11  7  1  0
 12 10  2  0
 12 11  1  0
 13  2  1  0
 13 11  2  0
 14  9  1  0
 15  4  1  0
 16 15  1  0
 17 10  1  0
 18 16  2  3
 19 18  1  0
 20 19  1  0
 21 20  2  0
 22 21  1  0
 23 20  1  0
 24 22  2  0
 25 23  2  0
 25 24  1  0
M  END
>  <ID>  (1) 
conformer_0

$$$$
