
     RDKit          3D

 34 39  0  0  0  0  0  0  0  0999 V2000
   32.0734   30.8939   -2.1223 C   0  0  0  0  0  0  0  0  0  0  0  0
   32.5734   30.8939   -0.8223 C   0  0  0  0  0  0  0  0  0  0  0  0
   33.0734   29.6939   -0.2223 C   0  0  0  0  0  0  0  0  0  0  0  0
   30.8734   31.4939   -2.5223 C   0  0  0  0  0  0  0  0  0  0  0  0
   32.7734   29.7939   -2.8223 C   0  0  0  0  0  0  0  0  0  0  0  0
   32.7734   28.4939   -2.2223 C   0  0  0  0  0  0  0  0  0  0  0  0
   33.1734   28.4939   -0.9223 C   0  0  0  0  0  0  0  0  0  0  0  0
   30.3734   31.4939   -3.8223 C   0  0  0  0  0  0  0  0  0  0  0  0
   32.3734   29.8939   -4.2223 C   0  0  0  0  0  0  0  0  0  0  0  0
   31.1734   30.5939   -4.7223 C   0  0  0  0  0  0  0  0  0  0  0  0
   33.5734   27.2939   -0.2223 C   0  0  0  0  0  0  0  0  0  0  0  0
   33.3734   26.0939   -0.9223 C   0  0  0  0  0  0  0  0  0  0  0  0
   32.6734   26.1939   -2.1223 C   0  0  0  0  0  0  0  0  0  0  0  0
   34.7734   27.4939    0.5777 C   0  0  0  0  0  0  0  0  0  0  0  0
   30.8734   30.2939   -6.1223 C   0  0  0  0  0  0  0  0  0  0  0  0
   31.9734   30.0939   -7.1223 C   0  0  0  0  0  0  0  0  0  0  0  0
   31.7734   30.7939   -8.4223 C   0  0  0  0  0  0  0  0  0  0  0  0
   32.7734   31.3939   -9.1223 C   0  0  0  0  0  0  0  0  0  0  0  0
   30.4734   31.2939   -8.5223 C   0  0  0  0  0  0  0  0  0  0  0  0
   29.3734   30.6939   -8.0223 O   0  0  0  0  0  0  0  0  0  0  0  0
   33.9734   30.6939   -9.3223 C   0  0  0  0  0  0  0  0  0  0  0  0
   34.2734   25.0939   -0.8223 O   0  0  0  0  0  0  0  0  0  0  0  0
   34.7734   23.8939   -0.3223 C   0  0  0  0  0  0  0  0  0  0  0  0
   35.8734   23.1939   -0.7223 C   0  0  0  0  0  0  0  0  0  0  0  0
   32.6734   27.2939   -2.9223 O   0  0  0  0  0  0  0  0  0  0  0  0
   33.8734   22.8939    0.2777 C   0  0  0  0  0  0  0  0  0  0  0  0
   34.5734   21.6939    0.5777 C   0  0  0  0  0  0  0  0  0  0  0  0
   35.7734   21.7939   -0.2223 C   0  0  0  0  0  0  0  0  0  0  0  0
   34.0734   20.7939    1.2777 O   0  0  0  0  0  0  0  0  0  0  0  0
   34.8734   28.7939    1.1777 C   0  0  0  0  0  0  0  0  0  0  0  0
   33.8734   29.6939    0.8777 N   0  0  0  0  0  0  0  0  0  0  0  0
   30.2734   32.6939   -8.7223 C   0  0  0  0  0  0  0  0  0  0  0  0
   31.4734   33.4939   -8.8223 C   0  0  0  0  0  0  0  0  0  0  0  0
   32.6734   32.8939   -9.0223 C   0  0  0  0  0  0  0  0  0  0  0  0
  2  1  2  0
  3  2  1  0
  4  1  1  0
  5  1  1  0
  6  5  2  0
  7  3  2  0
  7  6  1  0
  8  4  2  0
  9  5  1  0
 10  8  1  0
 10  9  2  0
 11  7  1  0
 12 11  1  0
 13 12  2  0
 14 11  2  0
 15 10  1  0
 16 15  1  0
 17 16  1  0
 18 17  2  0
 19 17  1  0
 20 19  1  0
 21 18  1  0
 22 12  1  0
 23 22  1  0
 24 23  1  0
 25  6  1  0
 25 13  1  0
 26 23  1  0
 27 26  1  0
 28 24  1  0
 28 27  1  0
 29 27  2  0
 30 14  1  0
 31  3  1  0
 31 30  2  0
 32 19  2  0
 33 32  1  0
 34 18  1  0
 34 33  2  0
M  END
>  <ID>  (1) 
conformer_0

$$$$
