
     RDKit          3D

 13 12  0  0  0  0  0  0  0  0999 V2000
   35.4795   23.1893   -0.4653 C   0  0  0  0  0  0  0  0  0  0  0  0
   34.7795   24.4893   -0.4653 C   0  0  0  0  0  0  0  0  0  0  0  0
   33.5795   25.1893   -0.7653 C   0  0  0  0  0  0  0  0  0  0  0  0
   33.5795   26.5893   -0.3653 C   0  0  0  0  0  0  0  0  0  0  0  0
   33.1795   27.5893   -1.3653 C   0  0  0  0  0  0  0  0  0  0  0  0
   32.7795   26.8893   -2.5653 C   0  0  0  0  0  0  0  0  0  0  0  0
   32.6795   27.8893   -3.6653 C   0  0  0  0  0  0  0  0  0  0  0  0
   33.1795   29.1893   -3.4653 C   0  0  0  0  0  0  0  0  0  0  0  0
   33.7795   29.7893   -2.2653 C   0  0  0  0  0  0  0  0  0  0  0  0
   33.5795   31.1893   -2.0653 C   0  0  0  0  0  0  0  0  0  0  0  0
   32.2795   31.3893   -1.3653 C   0  0  0  0  0  0  0  0  0  0  0  0
   31.1795   30.8893   -2.1653 C   0  0  0  0  0  0  0  0  0  0  0  0
   29.8795   31.1893   -2.4653 C   0  0  0  0  0  0  0  0  0  0  0  0
  2  1  1  0
  3  2  1  0
  4  3  1  0
  5  4  1  0
  6  5  1  0
  7  6  1  0
  8  7  2  3
  9  8  1  0
 10  9  1  0
 11 10  1  0
 12 11  1  0
 13 12  2  0
M  END
>  <ID>  (1) 
conformer_0

$$$$
