
     RDKit          3D

 16 19  0  0  0  0  0  0  0  0999 V2000
   32.8348   30.8874   -0.0768 C   0  0  0  0  0  0  0  0  0  0  0  0
   33.0348   29.7874   -1.0768 C   0  0  0  0  0  0  0  0  0  0  0  0
   33.6348   30.1874   -2.3768 C   0  0  0  0  0  0  0  0  0  0  0  0
   32.7348   30.5874    1.2232 C   0  0  0  0  0  0  0  0  0  0  0  0
   33.5348   28.5874   -0.4768 C   0  0  0  0  0  0  0  0  0  0  0  0
   33.6348   28.2874    0.8232 C   0  0  0  0  0  0  0  0  0  0  0  0
   33.3348   29.3874    1.7232 C   0  0  0  0  0  0  0  0  0  0  0  0
   33.5348   27.3874   -1.3768 C   0  0  0  0  0  3  0  0  0  0  0  0
   32.9348   27.6874   -2.6768 C   0  0  0  0  0  0  0  0  0  0  0  0
   33.3348   29.0874   -3.2768 C   0  0  0  0  0  0  0  0  0  0  0  0
   31.9348   28.6874   -2.8768 C   0  0  0  0  0  0  0  0  0  0  0  0
   33.3348   26.0874   -0.8768 O   0  0  0  0  0  0  0  0  0  0  0  0
   32.1348   25.5874   -1.0768 C   0  0  0  0  0  0  0  0  0  0  0  0
   31.7348   24.3874   -0.2768 C   0  0  0  0  0  0  0  0  0  0  0  0
   32.0348   25.2874   -2.3768 O   0  0  0  0  0  0  0  0  0  0  0  0
   32.4348   26.3874   -3.2768 C   0  0  0  0  0  0  0  0  0  0  0  0
  2  1  2  0
  3  2  1  0
  4  1  1  0
  5  2  1  0
  6  5  2  0
  7  4  2  0
  7  6  1  0
  8  5  1  0
  9  8  1  0
 10  3  2  0
 10  9  1  0
 11  9  1  0
 11 10  1  0
 12  8  1  0
 13 12  1  0
 14 13  1  0
 15 13  1  0
 16  9  1  0
 16 15  1  0
M  END
>  <ID>  (1) 
conformer_0

$$$$
