
     RDKit          3D

 33 37  0  0  0  0  0  0  0  0999 V2000
   32.0734   30.8939   -2.1223 C   0  0  0  0  0  0  0  0  0  0  0  0
   32.5734   30.8939   -0.8223 C   0  0  0  0  0  0  0  0  0  0  0  0
   33.0734   29.6939   -0.2223 C   0  0  0  0  0  0  0  0  0  0  0  0
   30.8734   31.4939   -2.5223 C   0  0  0  0  0  0  0  0  0  0  0  0
   32.7734   29.7939   -2.8223 C   0  0  0  0  0  0  0  0  0  0  0  0
   32.7734   28.4939   -2.2223 C   0  0  0  0  0  0  0  0  0  0  0  0
   33.3734   28.5939   -0.9223 C   0  0  0  0  0  0  0  0  0  0  0  0
   30.1734   30.6939   -3.5223 C   0  0  0  0  0  0  0  0  0  0  0  0
   32.2734   29.6939   -4.2223 C   0  0  0  0  0  0  0  0  0  0  0  0
   31.0734   30.2939   -4.5223 C   0  0  0  0  0  0  0  0  0  0  0  0
   33.5734   27.2939   -0.2223 C   0  0  0  0  0  0  0  0  0  0  0  0
   33.9734   25.9939   -0.8223 C   0  0  0  0  0  0  0  0  0  0  0  0
   35.0734   25.1939   -0.3223 C   0  0  0  0  0  0  0  0  0  0  0  0
   32.7734   25.1939   -0.8223 C   0  0  0  0  0  0  0  0  0  0  0  0
   34.8734   23.7939   -0.4223 C   0  0  0  0  0  0  0  0  0  0  0  0
   35.5734   22.9939   -1.1223 O   0  0  0  0  0  0  0  0  0  0  0  0
   30.7734   30.4939   -5.9223 C   0  0  0  0  0  0  0  0  0  0  0  0
   31.4734   29.6939   -6.9223 C   0  0  0  0  0  0  0  0  0  0  0  0
   32.2734   30.2939   -7.9223 C   0  0  0  0  0  0  0  0  0  0  0  0
   33.2734   29.7939   -8.6223 C   0  0  0  0  0  0  0  0  0  0  0  0
   32.4734   31.6939   -7.5223 C   0  0  0  0  0  0  0  0  0  0  0  0
   34.0734   30.7939   -9.3223 C   0  0  0  0  0  0  0  0  0  0  0  0
   32.9734   32.5939   -8.3223 C   0  0  0  0  0  0  0  0  0  0  0  0
   33.6734   23.0939    0.0777 C   0  0  0  0  0  0  0  0  0  0  0  0
   33.9734   21.6939    0.3777 C   0  0  0  0  0  0  0  0  0  0  0  0
   35.3734   21.4939    0.7777 C   0  0  0  0  0  0  0  0  0  0  0  0
   36.1734   21.9939   -0.3223 C   0  0  0  0  0  0  0  0  0  0  0  0
   29.8734   31.5939   -6.3223 C   0  0  0  0  0  0  0  0  0  0  0  0
   28.8734   31.0939   -6.9223 O   0  0  0  0  0  0  0  0  0  0  0  0
   32.6734   26.1939   -1.8223 C   0  0  0  0  0  0  0  0  0  0  0  0
   30.0734   32.8939   -6.5223 N   0  0  0  0  0  0  0  0  0  0  0  0
   34.2734   31.9939   -8.7223 C   0  0  0  0  0  0  0  0  0  0  0  0
   34.0734   27.6939    1.0777 C   0  0  0  0  0  0  0  0  0  0  0  0
  2  1  2  0
  3  2  1  0
  4  1  1  0
  5  1  1  0
  6  5  2  0
  7  3  2  0
  7  6  1  0
  8  4  2  0
  9  5  1  0
 10  8  1  0
 10  9  2  0
 11  7  1  0
 12 11  1  0
 13 12  1  0
 14 12  1  0
 15 13  1  0
 16 15  1  0
 17 10  1  0
 18 17  1  0
 19 18  1  0
 20 19  2  0
 21 19  1  0
 22 20  1  0
 23 21  2  0
 24 15  1  0
 25 24  1  0
 26 25  1  0
 27 16  1  0
 27 26  1  0
 28 17  1  0
 29 28  2  0
 30 12  1  0
 30 14  1  0
 31 28  1  0
 32 22  2  0
 32 23  1  0
 33 11  1  0
M  END
>  <ID>  (1) 
conformer_0

$$$$
