
     RDKit          3D

 18 21  0  0  0  0  0  0  0  0999 V2000
   32.7319   30.8286   -0.1873 C   0  0  0  0  0  0  0  0  0  0  0  0
   32.9319   30.2286    1.1127 C   0  0  0  0  0  0  0  0  0  0  0  0
   32.8319   30.0286   -1.2873 C   0  0  0  0  0  0  0  0  0  0  0  0
   33.2319   30.6286   -2.5873 C   0  0  0  0  0  0  0  0  0  0  0  0
   33.4319   29.6286   -3.6873 C   0  0  0  0  0  0  0  0  0  0  0  0
   32.7319   28.4286   -3.1873 C   0  0  0  0  0  0  0  0  0  0  0  0
   33.5319   28.8286   -0.9873 C   0  0  0  0  0  0  0  0  0  0  0  0
   33.1319   27.8286   -1.9873 C   0  0  0  0  0  0  0  0  0  0  0  0
   33.1319   26.4286   -1.6873 C   0  0  0  0  0  0  0  0  0  0  0  0
   34.1319   25.9286   -0.6873 C   0  0  0  0  0  0  0  0  0  0  0  0
   33.7319   28.2286    0.3127 C   0  0  0  0  0  0  0  0  0  0  0  0
   34.5319   26.9286    0.2127 C   0  0  0  0  0  0  0  0  0  0  0  0
   33.7319   29.1286    1.3127 C   0  0  0  0  0  0  0  0  0  0  0  0
   31.9319   25.6286   -1.4873 C   0  0  0  0  0  0  0  0  0  0  0  0
   33.0319   31.9286   -2.9873 C   0  0  0  0  0  0  0  0  0  0  0  0
   34.1319   24.6286   -0.5873 O   0  0  0  0  0  0  0  0  0  0  0  0
   32.5319   32.3286   -4.0873 O   0  0  0  0  0  0  0  0  0  0  0  0
   31.9319   32.8286   -3.0873 C   0  0  0  0  0  0  0  0  0  0  0  0
  2  1  2  0
  3  1  1  0
  4  3  1  0
  5  4  2  0
  6  5  1  0
  7  3  2  0
  8  6  1  0
  8  7  1  0
  9  8  2  0
 10  9  1  0
 11  7  1  0
 12 10  2  0
 12 11  1  0
 13  2  1  0
 13 11  2  0
 14  9  1  0
 15  4  1  0
 16 10  1  0
 17 15  1  0
 18 15  1  0
 18 17  1  0
M  END
>  <ID>  (1) 
conformer_0

$$$$
