
     RDKit          3D

 25 29  0  0  0  0  0  0  0  0999 V2000
   32.0734   30.8939   -2.1223 C   0  0  0  0  0  0  0  0  0  0  0  0
   32.5734   30.8939   -0.8223 C   0  0  0  0  0  0  0  0  0  0  0  0
   33.0734   29.6939   -0.2223 C   0  0  0  0  0  0  0  0  0  0  0  0
   32.5734   29.8939   -3.1223 C   0  0  0  0  0  0  0  0  0  0  0  0
   33.1734   28.7939   -2.5223 C   0  0  0  0  0  0  0  0  0  0  0  0
   33.0734   28.5939   -1.1223 C   0  0  0  0  0  0  0  0  0  0  0  0
   31.6734   32.1939   -2.7223 C   0  0  0  0  0  0  0  0  0  0  0  0
   32.7734   30.2939   -4.4223 C   0  0  0  0  0  0  0  0  0  0  0  0
   31.6734   32.3939   -4.1223 C   0  0  0  0  0  0  0  0  0  0  0  0
   31.7734   31.1939   -4.9223 C   0  0  0  0  0  0  0  0  0  0  0  0
   33.4734   27.2939   -0.6223 C   0  0  0  0  0  0  0  0  0  0  0  0
   33.2734   26.0939   -1.2223 C   0  0  0  0  0  0  0  0  0  0  0  0
   33.5734   27.4939    0.7777 C   0  0  0  0  0  0  0  0  0  0  0  0
   31.6734   31.2939   -6.3223 C   0  0  0  0  0  0  0  0  0  0  0  0
   32.3734   30.1939   -6.9223 C   0  0  0  0  0  0  0  0  0  0  0  0
   31.0734   32.2939   -7.0223 C   0  0  0  0  0  0  0  0  0  0  0  0
   32.3734   30.2939   -8.3223 C   0  0  0  0  0  0  0  0  0  0  0  0
   31.9734   31.4939   -8.9223 C   0  0  0  0  0  0  0  0  0  0  0  0
   31.1734   32.2939   -8.2223 N   0  0  0  0  0  0  0  0  0  0  0  0
   32.1734   25.2939   -0.6223 C   0  0  0  0  0  0  0  0  0  0  0  0
   34.1734   28.5939    1.3777 C   0  0  0  0  0  0  0  0  0  0  0  0
   33.3734   29.6939    1.0777 N   0  0  0  0  0  0  0  0  0  0  0  0
   32.6734   24.1939    0.1777 C   0  0  0  0  0  0  0  0  0  0  0  0
   34.0734   23.8939   -0.1223 C   0  0  0  0  0  0  0  0  0  0  0  0
   34.2734   25.0939   -1.0223 O   0  0  0  0  0  0  0  0  0  0  0  0
  2  1  2  0
  3  2  1  0
  4  1  1  0
  5  4  2  0
  6  3  2  0
  6  5  1  0
  7  1  1  0
  8  4  1  0
  9  7  2  0
 10  8  2  0
 10  9  1  0
 11  6  1  0
 12 11  1  0
 13 11  2  0
 14 10  1  0
 15 14  2  0
 16 14  1  0
 17 15  1  0
 18 17  2  0
 19 16  2  0
 19 18  1  0
 20 12  2  0
 21 13  1  0
 22  3  1  0
 22 21  2  0
 23 20  1  0
 24 23  2  0
 25 12  1  0
 25 24  1  0
M  END
>  <ID>  (1) 
conformer_0

$$$$
