
     RDKit          3D

 26 31  0  0  0  0  0  0  0  0999 V2000
   32.0734   30.8939   -2.1223 C   0  0  0  0  0  0  0  0  0  0  0  0
   32.5734   30.8939   -0.8223 C   0  0  0  0  0  0  0  0  0  0  0  0
   33.0734   29.6939   -0.2223 C   0  0  0  0  0  0  0  0  0  0  0  0
   32.5734   29.8939   -3.1223 C   0  0  0  0  0  0  0  0  0  0  0  0
   33.0734   28.6939   -2.4223 C   0  0  0  0  0  0  0  0  0  0  0  0
   33.3734   28.5939   -1.1223 C   0  0  0  0  0  0  0  0  0  0  0  0
   31.5734   32.1939   -2.6223 C   0  0  0  0  0  0  0  0  0  0  0  0
   32.3734   29.9939   -4.4223 C   0  0  0  0  0  0  0  0  0  0  0  0
   31.5734   32.2939   -4.0223 C   0  0  0  0  0  0  0  0  0  0  0  0
   31.6734   31.0939   -4.8223 C   0  0  0  0  0  0  0  0  0  0  0  0
   33.6734   27.3939   -0.4223 C   0  0  0  0  0  0  0  0  0  0  0  0
   33.4734   26.0939   -1.0223 C   0  0  0  0  0  0  0  0  0  0  0  0
   33.6734   27.6939    0.9777 C   0  0  0  0  0  0  0  0  0  0  0  0
   32.5734   26.2939   -2.1223 C   0  0  0  0  0  0  0  0  0  0  0  0
   31.3734   31.4939   -6.2223 C   0  0  0  0  0  0  0  0  0  0  0  0
   30.6734   32.7939   -6.3223 C   0  0  0  0  0  0  0  0  0  0  0  0
   31.6734   30.6939   -7.3223 C   0  0  0  0  0  0  0  0  0  0  0  0
   32.6734   30.2939   -8.1223 C   0  0  0  0  0  0  0  0  0  0  0  0
   32.4734   29.5939   -6.9223 C   0  0  0  0  0  0  0  0  0  0  0  0
   33.3734   29.0939    1.0777 O   0  0  0  0  0  0  0  0  0  0  0  0
   32.7734   27.3939   -3.0223 O   0  0  0  0  0  0  0  0  0  0  0  0
   33.5734   29.8939   -9.0223 C   0  0  0  0  0  0  0  0  0  0  0  0
   33.4734   30.2939  -10.4223 C   0  0  0  0  0  0  0  0  0  0  0  0
   29.2734   32.5939   -6.1223 C   0  0  0  0  0  0  0  0  0  0  0  0
   34.4734   30.8939   -9.6223 O   0  0  0  0  0  0  0  0  0  0  0  0
   32.1734   25.2939   -2.8223 O   0  0  0  0  0  0  0  0  0  0  0  0
  2  1  2  0
  3  2  1  0
  4  1  1  0
  5  4  2  0
  6  3  2  0
  6  5  1  0
  7  1  1  0
  8  4  1  0
  9  7  2  0
 10  8  2  0
 10  9  1  0
 11  6  1  0
 12 11  1  0
 13 11  2  0
 14 12  1  0
 15 10  1  0
 16 15  1  0
 17 15  1  0
 18 17  1  0
 19 17  1  0
 19 18  2  0
 20  3  1  0
 20 13  1  0
 21  5  1  0
 21 14  1  0
 22 18  1  0
 23 22  1  0
 24 16  1  0
 25 22  1  0
 25 23  1  0
 26 14  2  0
M  END
>  <ID>  (1) 
conformer_0

$$$$
