
     RDKit          3D

 13 14  0  0  0  0  0  0  0  0999 V2000
   31.9443   30.8526   -1.8436 C   0  0  0  0  0  0  0  0  0  0  0  0
   32.5443   30.6526   -0.5436 C   0  0  0  0  0  0  0  0  0  0  0  0
   30.7443   30.5526   -2.2436 C   0  0  0  0  0  0  0  0  0  0  0  0
   32.9443   31.0526   -2.9436 C   0  0  0  0  0  0  0  0  0  0  0  0
   32.2443   30.9526   -4.2436 C   0  0  0  0  0  0  0  0  0  0  0  0
   34.1443   30.3526   -2.7436 C   0  0  0  0  0  0  0  0  0  0  0  0
   33.7443   30.1526   -0.4436 C   0  0  0  0  0  0  0  0  0  0  0  0
   30.0443   31.1526   -3.3436 C   0  0  0  0  0  0  0  0  0  0  0  0
   31.0443   31.6526   -4.3436 C   0  0  0  0  0  0  0  0  0  0  0  0
   30.3443   32.3526   -5.4436 C   0  0  0  0  0  0  0  0  0  0  0  0
   29.0443   32.0526   -5.8436 C   0  0  0  0  0  0  0  0  0  0  0  0
   34.6443   30.6526   -1.4436 C   0  0  0  0  0  0  0  0  0  0  0  0
   28.5443   31.3526   -6.8436 O   0  0  0  0  0  0  0  0  0  0  0  0
  2  1  2  0
  3  1  1  0
  4  1  1  0
  5  4  1  0
  6  4  2  0
  7  2  1  0
  8  3  2  0
  9  5  2  0
  9  8  1  0
 10  9  1  0
 11 10  1  0
 12  6  1  0
 12  7  2  0
 13 11  1  0
M  END
>  <ID>  (1) 
conformer_0

$$$$
