
     RDKit          3D

 15 16  0  0  0  0  0  0  0  0999 V2000
   32.7319   30.8286   -0.1873 C   0  0  0  0  0  0  0  0  0  0  0  0
   33.0319   29.6286   -0.8873 C   0  0  0  0  0  0  0  0  0  0  0  0
   33.4319   29.9286   -2.2873 C   0  0  0  0  0  0  0  0  0  0  0  0
   32.9319   31.2286   -2.6873 C   0  0  0  0  0  0  0  0  0  0  0  0
   33.2319   28.8286   -3.1873 C   0  0  0  0  0  0  0  0  0  0  0  0
   32.8319   27.6286   -2.4873 C   0  0  0  0  0  0  0  0  0  0  0  0
   33.7319   28.4286   -0.3873 C   0  0  0  0  0  0  0  0  0  0  0  0
   33.2319   27.3286   -1.1873 C   0  0  0  0  0  0  0  0  0  0  0  0
   33.6319   26.0286   -0.5873 C   0  0  0  0  0  0  0  0  0  0  0  0
   31.8319   31.9286   -2.1873 C   0  0  0  0  0  0  0  0  0  0  0  0
   34.7319   25.1286   -0.3873 C   0  0  0  0  0  0  0  0  0  0  0  0
   34.9319   23.8286   -0.2873 C   0  0  0  0  0  0  0  0  0  0  0  0
   35.6319   23.1286   -1.1873 O   0  0  0  0  0  0  0  0  0  0  0  0
   33.8319   22.9286   -0.0873 O   0  0  0  0  0  0  0  0  0  0  0  0
   31.6319   31.5286   -0.7873 C   0  0  0  0  0  0  0  0  0  0  0  0
  2  1  2  0
  3  2  1  0
  4  3  2  0
  5  3  1  0
  6  5  2  0
  7  2  1  0
  8  6  1  0
  8  7  2  0
  9  8  1  0
 10  4  1  0
 11  9  1  0
 12 11  1  0
 13 12  1  0
 14 12  1  0
 15  1  1  0
 15 10  2  0
M  END
>  <ID>  (1) 
conformer_0

$$$$
