
     RDKit          3D

 15 16  0  0  0  0  0  0  0  0999 V2000
   32.7319   30.8286   -0.1873 C   0  0  0  0  0  0  0  0  0  0  0  0
   33.0319   29.6286   -0.8873 C   0  0  0  0  0  0  0  0  0  0  0  0
   33.4319   29.9286   -2.2873 C   0  0  0  0  0  0  0  0  0  0  0  0
   32.9319   31.2286   -2.6873 C   0  0  0  0  0  0  0  0  0  0  0  0
   33.2319   28.8286   -3.1873 C   0  0  0  0  0  0  0  0  0  0  0  0
   32.8319   27.7286   -2.4873 C   0  0  0  0  0  0  0  0  0  0  0  0
   33.6319   28.5286   -0.3873 C   0  0  0  0  0  0  0  0  0  0  0  0
   33.3319   27.3286   -1.1873 C   0  0  0  0  0  0  0  0  0  0  0  0
   33.6319   25.9286   -1.0873 C   0  0  0  0  0  0  0  0  0  0  0  0
   34.8319   25.2286   -0.5873 C   0  0  0  0  0  0  0  0  0  0  0  0
   34.9319   23.8286   -0.2873 C   0  0  0  0  0  0  0  0  0  0  0  0
   31.9319   31.9286   -2.1873 C   0  0  0  0  0  0  0  0  0  0  0  0
   31.6319   31.5286   -0.7873 C   0  0  0  0  0  0  0  0  0  0  0  0
   35.7319   23.1286   -1.1873 O   0  0  0  0  0  0  0  0  0  0  0  0
   33.7319   23.0286    0.1127 C   0  0  0  0  0  0  0  0  0  0  0  0
  2  1  2  0
  3  2  1  0
  4  3  2  0
  5  3  1  0
  6  5  2  0
  7  2  1  0
  8  6  1  0
  8  7  2  0
  9  8  1  0
 10  9  2  3
 11 10  1  0
 12  4  1  0
 13  1  1  0
 13 12  2  0
 14 11  1  0
 15 11  1  0
M  END
>  <ID>  (1) 
conformer_0

$$$$
