
     RDKit          3D

 12 11  0  0  0  0  0  0  0  0999 V2000
   35.4795   23.1893   -0.4653 C   0  0  0  0  0  0  0  0  0  0  0  0
   34.7795   24.4893   -0.4653 C   0  0  0  0  0  0  0  0  0  0  0  0
   33.5795   25.1893   -0.7653 C   0  0  0  0  0  0  0  0  0  0  0  0
   33.5795   26.5893   -0.3653 C   0  0  0  0  0  0  0  0  0  0  0  0
   33.1795   27.5893   -1.3653 C   0  0  0  0  0  0  0  0  0  0  0  0
   32.7795   26.8893   -2.5653 C   0  0  0  0  0  0  0  0  0  0  0  0
   32.6795   27.8893   -3.6653 C   0  0  0  0  0  0  0  0  0  0  0  0
   33.1795   29.1893   -3.3653 C   0  0  0  0  0  0  0  0  0  0  0  0
   33.6795   29.8893   -2.2653 C   0  0  0  0  0  0  0  0  0  0  0  0
   33.1795   31.1893   -1.7653 C   0  0  0  0  0  0  0  0  0  0  0  0
   31.7795   31.5893   -1.8653 C   0  0  0  0  0  0  0  0  0  0  0  0
   30.8795   30.4893   -2.2653 C   0  0  0  0  0  0  0  0  0  0  0  0
  2  1  1  0
  3  2  1  0
  4  3  1  0
  5  4  1  0
  6  5  1  0
  7  6  1  0
  8  7  2  3
  9  8  1  0
 10  9  1  0
 11 10  1  0
 12 11  1  0
M  END
>  <ID>  (1) 
conformer_0

$$$$
