
     RDKit          3D

 32 39  0  0  0  0  0  0  0  0999 V2000
   32.0734   30.8939   -2.1223 C   0  0  0  0  0  0  0  0  0  0  0  0
   32.5734   30.8939   -0.8223 C   0  0  0  0  0  0  0  0  0  0  0  0
   33.0734   29.6939   -0.2223 C   0  0  0  0  0  0  0  0  0  0  0  0
   30.8734   31.4939   -2.5223 C   0  0  0  0  0  0  0  0  0  0  0  0
   32.7734   29.7939   -2.8223 C   0  0  0  0  0  0  0  0  0  0  0  0
   32.7734   28.4939   -2.2223 C   0  0  0  0  0  0  0  0  0  0  0  0
   33.3734   28.5939   -0.9223 C   0  0  0  0  0  0  0  0  0  0  0  0
   30.1734   30.6939   -3.5223 C   0  0  0  0  0  0  0  0  0  0  0  0
   32.2734   29.6939   -4.2223 C   0  0  0  0  0  0  0  0  0  0  0  0
   31.0734   30.2939   -4.5223 C   0  0  0  0  0  0  0  0  0  0  0  0
   33.5734   27.2939   -0.2223 C   0  0  0  0  0  0  0  0  0  0  0  0
   33.9734   25.9939   -0.8223 C   0  0  0  0  0  0  0  0  0  0  0  0
   35.0734   25.1939   -0.3223 C   0  0  0  0  0  0  0  0  0  0  0  0
   32.7734   25.1939   -0.8223 C   0  0  0  0  0  0  0  0  0  0  0  0
   34.8734   23.7939   -0.4223 C   0  0  0  0  0  0  0  0  0  0  0  0
   35.5734   22.9939   -1.1223 O   0  0  0  0  0  0  0  0  0  0  0  0
   30.7734   30.4939   -5.9223 C   0  0  0  0  0  0  0  0  0  0  0  0
   31.4734   29.6939   -6.9223 C   0  0  0  0  0  0  0  0  0  0  0  0
   32.2734   30.3939   -7.9223 C   0  0  0  0  0  0  0  0  0  0  0  0
   33.1734   29.6939   -8.7223 C   0  0  0  0  0  0  0  0  0  0  0  0
   32.4734   31.6939   -7.5223 C   0  0  0  0  0  0  0  0  0  0  0  0
   34.0734   30.6939   -9.3223 C   0  0  0  0  0  0  0  0  0  0  0  0
   30.2734   31.7939   -6.4223 C   0  0  0  0  0  0  0  0  0  0  0  0
   31.7734   31.5939   -8.6223 C   0  0  0  0  0  0  0  0  0  0  0  0
   30.2734   31.7939   -7.9223 C   0  0  0  0  0  0  0  0  0  0  0  0
   29.2734   30.8939   -5.9223 C   0  0  0  0  0  0  0  0  0  0  0  0
   32.6734   26.1939   -1.8223 C   0  0  0  0  0  0  0  0  0  0  0  0
   33.7734   23.0939    0.1777 O   0  0  0  0  0  0  0  0  0  0  0  0
   34.0734   21.7939    0.4777 C   0  0  0  0  0  0  0  0  0  0  0  0
   34.2734   21.3939    1.8777 C   0  0  0  0  0  0  0  0  0  0  0  0
   33.1734   29.9939  -10.1223 C   0  0  0  0  0  0  0  0  0  0  0  0
   33.0734   27.1939   -2.7223 O   0  0  0  0  0  0  0  0  0  0  0  0
  2  1  2  0
  3  2  1  0
  4  1  1  0
  5  1  1  0
  6  5  2  0
  7  3  2  0
  7  6  1  0
  8  4  2  0
  9  5  1  0
 10  8  1  0
 10  9  2  0
 11  7  1  0
 12 11  1  0
 13 12  1  0
 14 12  1  0
 15 13  1  0
 16 15  2  0
 17 10  1  0
 18 17  1  0
 19 18  1  0
 20 19  1  0
 21 19  1  0
 22 20  1  0
 23 17  1  0
 24 19  1  0
 24 21  1  0
 25 23  1  0
 25 24  1  0
 26 17  1  0
 26 23  1  0
 27 12  1  0
 27 14  1  0
 28 15  1  0
 29 28  1  0
 30 29  1  0
 31 20  1  0
 31 22  2  0
 32  6  1  0
 32 27  1  0
M  END
>  <ID>  (1) 
conformer_0

$$$$
