
     RDKit          3D

 32 36  0  0  0  0  0  0  0  0999 V2000
   32.0734   30.8939   -2.1223 C   0  0  0  0  0  0  0  0  0  0  0  0
   32.5734   30.8939   -0.8223 C   0  0  0  0  0  0  0  0  0  0  0  0
   33.0734   29.6939   -0.2223 C   0  0  0  0  0  0  0  0  0  0  0  0
   30.8734   31.4939   -2.5223 C   0  0  0  0  0  0  0  0  0  0  0  0
   32.7734   29.7939   -2.8223 C   0  0  0  0  0  0  0  0  0  0  0  0
   32.7734   28.4939   -2.2223 C   0  0  0  0  0  0  0  0  0  0  0  0
   33.1734   28.4939   -0.9223 C   0  0  0  0  0  0  0  0  0  0  0  0
   30.3734   31.4939   -3.8223 C   0  0  0  0  0  0  0  0  0  0  0  0
   32.3734   29.8939   -4.2223 C   0  0  0  0  0  0  0  0  0  0  0  0
   31.1734   30.5939   -4.7223 C   0  0  0  0  0  0  0  0  0  0  0  0
   33.5734   27.2939   -0.2223 C   0  0  0  0  0  0  0  0  0  0  0  0
   33.3734   26.0939   -0.9223 C   0  0  0  0  0  0  0  0  0  0  0  0
   32.6734   26.1939   -2.1223 C   0  0  0  0  0  0  0  0  0  0  0  0
   34.6734   27.3939    0.7777 C   0  0  0  0  0  0  0  0  0  0  0  0
   31.1734   31.0939   -6.0223 C   0  0  0  0  0  0  0  0  0  0  0  0
   29.7734   31.2939   -6.5223 C   0  0  0  0  0  0  0  0  0  0  0  0
   32.0734   30.5939   -7.0223 C   0  0  0  0  0  0  0  0  0  0  0  0
   31.7734   30.9939   -8.4223 C   0  0  0  0  0  0  0  0  0  0  0  0
   32.9734   30.5939   -9.2223 C   0  0  0  0  0  0  0  0  0  0  0  0
   32.6734   27.2939   -2.8223 N   0  0  0  0  0  0  0  0  0  0  0  0
   31.2734   32.3939   -8.5223 C   0  0  0  0  0  0  0  0  0  0  0  0
   30.6734   32.3939   -6.2223 C   0  0  0  0  0  0  0  0  0  0  0  0
   34.1734   24.8939   -0.5223 O   0  0  0  0  0  0  0  0  0  0  0  0
   35.4734   24.6939   -0.3223 C   0  0  0  0  0  0  0  0  0  0  0  0
   35.7734   23.2939   -0.6223 C   0  0  0  0  0  0  0  0  0  0  0  0
   34.4734   22.6939   -0.3223 O   0  0  0  0  0  0  0  0  0  0  0  0
   34.2734   21.5939    0.4777 C   0  0  0  0  0  0  0  0  0  0  0  0
   34.1734   21.2939    1.8777 C   0  0  0  0  0  0  0  0  0  0  0  0
   35.2734   20.7939    2.5777 O   0  0  0  0  0  0  0  0  0  0  0  0
   35.0734   21.2939    3.8777 C   0  0  0  0  0  0  0  0  0  0  0  0
   30.4734   31.1939   -8.7223 C   0  0  0  0  0  0  0  0  0  0  0  0
   32.0734   29.0939   -7.0223 C   0  0  0  0  0  0  0  0  0  0  0  0
  2  1  2  0
  3  2  1  0
  4  1  1  0
  5  1  1  0
  6  5  2  0
  7  3  2  0
  7  6  1  0
  8  4  2  0
  9  5  1  0
 10  8  1  0
 10  9  2  0
 11  7  1  0
 12 11  2  0
 13 12  1  0
 14 11  1  0
 15 10  1  0
 16 15  1  0
 17 15  1  0
 18 17  1  0
 19 18  1  0
 20  6  1  0
 20 13  2  0
 21 18  1  0
 22 15  1  0
 22 16  1  0
 23 12  1  0
 24 23  1  0
 25 24  1  0
 26 25  1  0
 27 26  1  0
 28 27  1  0
 29 28  1  0
 30 29  1  0
 31 18  1  0
 31 21  1  0
 32 17  1  0
M  END
>  <ID>  (1) 
conformer_0

$$$$
