
     RDKit          3D

 31 36  0  0  0  0  0  0  0  0999 V2000
   32.0734   30.8939   -2.1223 C   0  0  0  0  0  0  0  0  0  0  0  0
   32.5734   30.8939   -0.8223 C   0  0  0  0  0  0  0  0  0  0  0  0
   33.0734   29.6939   -0.2223 C   0  0  0  0  0  0  0  0  0  0  0  0
   32.5734   29.8939   -3.1223 C   0  0  0  0  0  0  0  0  0  0  0  0
   33.1734   28.7939   -2.5223 C   0  0  0  0  0  0  0  0  0  0  0  0
   33.0734   28.5939   -1.1223 C   0  0  0  0  0  0  0  0  0  0  0  0
   31.6734   32.1939   -2.7223 C   0  0  0  0  0  0  0  0  0  0  0  0
   32.7734   30.2939   -4.4223 C   0  0  0  0  0  0  0  0  0  0  0  0
   31.6734   32.3939   -4.1223 C   0  0  0  0  0  0  0  0  0  0  0  0
   31.7734   31.1939   -4.9223 C   0  0  0  0  0  0  0  0  0  0  0  0
   33.4734   27.1939   -0.8223 C   0  0  0  0  0  0  0  0  0  0  0  0
   32.8734   26.3939   -1.9223 C   0  0  0  0  0  0  0  0  0  0  0  0
   34.2734   26.7939    0.2777 C   0  0  0  0  0  0  0  0  0  0  0  0
   31.7734   31.4939   -6.3223 C   0  0  0  0  0  0  0  0  0  0  0  0
   30.9734   32.3939   -6.8223 N   0  0  0  0  0  0  0  0  0  0  0  0
   31.8734   30.4939   -7.3223 C   0  0  0  0  0  0  0  0  0  0  0  0
   31.3734   30.8939   -8.5223 C   0  0  0  0  0  0  0  0  0  0  0  0
   32.0734   32.0939   -9.0223 C   0  0  0  0  0  0  0  0  0  0  0  0
   31.3734   29.1939   -6.9223 C   0  0  0  0  0  0  0  0  0  0  0  0
   34.4734   25.3939   -0.2223 C   0  0  0  0  0  0  0  0  0  0  0  0
   33.1734   24.6939   -0.3223 C   0  0  0  0  0  0  0  0  0  0  0  0
   33.2734   23.3939   -0.3223 O   0  0  0  0  0  0  0  0  0  0  0  0
   32.7734   25.0939   -1.5223 O   0  0  0  0  0  0  0  0  0  0  0  0
   30.1734   30.7939   -8.9223 O   0  0  0  0  0  0  0  0  0  0  0  0
   33.4734   31.8939   -8.8223 C   0  0  0  0  0  0  0  0  0  0  0  0
   34.0734   30.7939   -9.0223 C   0  0  0  0  0  0  0  0  0  0  0  0
   32.8734   32.5939   -8.1223 N   0  0  0  0  0  0  0  0  0  0  0  0
   33.5734   29.4939   -9.3223 C   0  0  0  0  0  0  0  0  0  0  0  0
   32.1734   32.7939   -6.8223 N   0  0  0  0  0  0  0  0  0  0  0  0
   34.0734   28.2939   -9.2223 C   0  0  0  0  0  0  0  0  0  0  0  0
   32.7734   27.3939   -3.0223 O   0  0  0  0  0  0  0  0  0  0  0  0
  2  1  2  0
  3  2  1  0
  4  1  1  0
  5  4  2  0
  6  3  2  0
  6  5  1  0
  7  1  1  0
  8  4  1  0
  9  7  2  0
 10  8  2  0
 10  9  1  0
 11  6  1  0
 12 11  1  0
 13 11  2  0
 14 10  1  0
 15 14  1  0
 16 14  1  0
 17 16  1  0
 18 17  1  0
 19 16  1  0
 20 13  1  0
 21 20  1  0
 22 21  2  0
 23 12  1  0
 23 21  1  0
 24 17  2  0
 25 18  1  0
 26 25  1  0
 27 18  1  0
 27 25  1  0
 28 26  2  3
 29 14  1  0
 29 27  1  0
 30 28  1  0
 31  5  1  0
 31 12  1  0
M  END
>  <ID>  (1) 
conformer_0

$$$$
