
     RDKit          3D

 20 23  0  0  0  0  0  0  0  0999 V2000
   -4.8244   16.8047   25.1359 C   0  0  0  0  0  0  0  0  0  0  0  0
   -4.2233   17.7589   24.6747 C   0  0  0  0  0  0  0  0  0  0  0  0
   -6.2370   16.8917   25.1189 C   0  0  0  0  0  0  0  0  0  0  0  0
   -7.0900   15.8107   25.6880 O   0  0  0  0  0  0  0  0  0  0  0  0
   -2.7244   17.7604   24.3967 C   0  0  0  0  0  0  0  0  0  0  0  0
   -4.8275   18.9803   24.1538 C   0  0  0  0  0  0  0  0  0  0  0  0
   -4.0618   20.0758   23.5778 C   0  0  0  0  0  0  0  0  0  0  0  0
   -4.7174   21.1322   22.9240 C   0  0  0  0  0  0  0  0  0  0  0  0
   -2.8791   19.6675   22.7834 C   0  0  0  0  0  0  0  0  0  0  0  0
   -6.1145   19.0610   24.0975 C   0  0  0  0  0  0  0  0  0  0  0  0
   -5.9171   20.8836   22.4966 C   0  0  0  0  0  0  0  0  0  0  0  0
   -2.2131   18.9293   23.6910 C   0  0  0  0  0  0  0  0  0  0  0  0
   -6.8836   18.0897   24.6233 C   0  0  0  0  0  0  0  0  0  0  0  0
   -3.8194   22.0275   22.1461 C   0  0  0  0  0  0  0  0  0  0  0  0
   -3.3175   18.9228   21.5543 C   0  0  0  0  0  0  0  0  0  0  0  0
   -8.4194   18.0784   24.7233 C   0  0  0  0  0  0  0  0  0  0  0  0
   -6.8996   20.3080   23.7806 C   0  0  0  0  0  0  0  0  0  0  0  0
   -2.1592   20.9582   22.3990 C   0  0  0  0  0  0  0  0  0  0  0  0
   -9.0614   17.2844   23.8889 O   0  0  0  0  0  0  0  0  0  0  0  0
   -3.9657   22.0656   20.6712 C   0  0  0  0  0  0  0  0  0  0  0  0
  1  2  2  0
  1  3  1  0
  3  4  1  0
  2  5  1  0
  2  6  1  0
  6  7  1  0
  7  8  1  0
  7  9  1  0
  6 10  2  0
  8 11  1  0
  5 12  1  0
  9 12  1  0
  3 13  2  0
 10 13  1  0
  8 14  1  0
  9 15  1  0
 13 16  1  0
 10 17  1  0
 11 17  1  0
  9 18  1  0
 14 18  1  0
 16 19  1  0
 14 20  1  0
M  END
>  <ID>  (1) 
conformer_0

$$$$
