
     RDKit          3D

 19 22  0  0  0  0  0  0  0  0999 V2000
   -2.0695   19.1054   22.9845 C   0  0  0  0  0  0  0  0  0  0  0  0
   -3.1994   18.6314   23.5912 C   0  0  0  0  0  0  0  0  0  0  0  0
   -3.1403   17.5783   24.4443 C   0  0  0  0  0  0  0  0  0  0  0  0
   -4.4429   17.2159   25.0820 C   0  0  0  0  0  0  0  0  0  0  0  0
   -2.1556   20.2782   22.1189 C   0  0  0  0  0  0  0  0  0  0  0  0
   -3.2915   20.9530   22.0070 C   0  0  0  0  0  0  0  0  0  0  0  0
   -4.3934   19.2850   23.3023 C   0  0  0  0  0  0  0  0  0  0  0  0
   -5.5808   18.8449   24.0597 C   0  0  0  0  0  0  0  0  0  0  0  0
   -5.5624   17.7618   24.8759 C   0  0  0  0  0  0  0  0  0  0  0  0
   -6.8365   19.5494   23.9166 C   0  0  0  0  0  0  0  0  0  0  0  0
   -4.4766   20.4903   22.5798 C   0  0  0  0  0  0  0  0  0  0  0  0
   -7.9655   18.9339   24.6707 C   0  0  0  0  0  0  0  0  0  0  0  0
   -7.0342   20.5254   23.0851 N   0  0  0  0  0  0  0  0  0  0  0  0
   -6.8499   17.2972   25.5179 C   0  0  0  0  0  0  0  0  0  0  0  0
   -7.9590   18.0356   25.2609 C   0  0  0  0  0  0  0  0  0  0  0  0
   -3.2637   22.1394   21.1034 C   0  0  0  0  0  0  0  0  0  0  0  0
   -9.1240   17.4573   25.9877 C   0  0  0  0  0  0  0  0  0  0  0  0
   -8.8641   16.4483   26.9299 N   0  0  0  0  0  0  0  0  0  0  0  0
   -5.8433   21.1189   22.3045 C   0  0  0  0  0  0  0  0  0  0  0  0
  1  2  1  0
  2  3  1  0
  3  4  2  0
  1  5  2  0
  5  6  1  0
  2  7  2  0
  7  8  1  0
  4  9  1  0
  8  9  2  0
  8 10  1  0
  6 11  2  0
  7 11  1  0
 10 12  1  0
 10 13  2  0
  9 14  1  0
 12 15  2  0
 14 15  1  0
  6 16  1  0
 15 17  1  0
 17 18  1  0
 11 19  1  0
 13 19  1  0
M  END
>  <ID>  (1) 
conformer_0

$$$$
