
     RDKit          3D

 18 20  0  0  0  0  0  0  0  0999 V2000
   -2.4469   18.7788   23.6209 C   0  0  0  0  0  0  0  0  0  0  0  0
   -3.6278   18.4467   24.0291 C   0  0  0  0  0  0  0  0  0  0  0  0
   -3.8607   17.3532   24.9521 C   0  0  0  0  0  0  0  0  0  0  0  0
   -2.3203   19.8767   22.6886 C   0  0  0  0  0  0  0  0  0  0  0  0
   -4.8166   19.2753   23.9663 C   0  0  0  0  0  0  0  0  0  0  0  0
   -6.0725   18.9180   24.5027 C   0  0  0  0  0  0  0  0  0  0  0  0
   -4.5574   20.4107   23.0555 C   0  0  0  0  0  0  0  0  0  0  0  0
   -7.2064   19.7005   24.2360 C   0  0  0  0  0  0  0  0  0  0  0  0
   -3.3411   20.7018   22.4686 C   0  0  0  0  0  0  0  0  0  0  0  0
   -3.1552   21.9190   21.6188 C   0  0  0  0  0  0  0  0  0  0  0  0
   -2.3942   21.7124   20.6055 F   0  0  0  0  0  0  0  0  0  0  0  0
   -4.3738   22.3747   21.1592 F   0  0  0  0  0  0  0  0  0  0  0  0
   -2.5618   22.9496   22.2610 F   0  0  0  0  0  0  0  0  0  0  0  0
   -4.9666   16.7647   24.9816 C   0  0  0  0  0  0  0  0  0  0  0  0
   -6.1114   17.6566   25.0534 C   0  0  0  0  0  0  0  0  0  0  0  0
   -8.3197   19.0928   24.8477 C   0  0  0  0  0  0  0  0  0  0  0  0
   -7.4975   17.1091   24.5932 C   0  0  0  0  0  0  0  0  0  0  0  0
   -8.6018   17.7638   24.4650 N   0  0  0  0  0  0  0  0  0  0  0  0
  1  2  2  0
  2  3  1  0
  1  4  1  0
  2  5  1  0
  5  6  1  0
  5  7  2  0
  6  8  1  0
  4  9  2  0
  7  9  1  0
  9 10  1  0
 10 11  1  0
 10 12  1  0
 10 13  1  0
  3 14  1  0
  6 15  1  0
 14 15  1  0
  8 16  1  0
 15 17  1  0
 16 18  1  0
 17 18  1  0
M  END
>  <ID>  (1) 
conformer_0

$$$$
