
     RDKit          3D

 20 23  0  0  0  0  0  0  0  0999 V2000
   -2.0695   19.1054   22.9845 C   0  0  0  0  0  0  0  0  0  0  0  0
   -3.1994   18.6314   23.5912 C   0  0  0  0  0  0  0  0  0  0  0  0
   -3.1403   17.5783   24.4443 C   0  0  0  0  0  0  0  0  0  0  0  0
   -4.4429   17.2159   25.0820 C   0  0  0  0  0  0  0  0  0  0  0  0
   -2.1556   20.2782   22.1189 C   0  0  0  0  0  0  0  0  0  0  0  0
   -3.2915   20.9530   22.0070 C   0  0  0  0  0  0  0  0  0  0  0  0
   -4.3934   19.2850   23.3023 C   0  0  0  0  0  0  0  0  0  0  0  0
   -5.5808   18.8449   24.0597 C   0  0  0  0  0  0  0  0  0  0  0  0
   -5.5624   17.7618   24.8759 C   0  0  0  0  0  0  0  0  0  0  0  0
   -6.8365   19.5494   23.9166 C   0  0  0  0  0  0  0  0  0  0  0  0
   -4.4766   20.4903   22.5798 C   0  0  0  0  0  0  0  0  0  0  0  0
   -7.9655   18.9339   24.6707 C   0  0  0  0  0  0  0  0  0  0  0  0
   -7.0342   20.5254   23.0851 N   0  0  0  0  0  0  0  0  0  0  0  0
   -7.7850   17.8135   25.4221 C   0  0  0  0  0  0  0  0  0  0  0  0
   -5.7872   21.1677   22.3943 C   0  0  0  0  0  0  0  0  0  0  0  0
   -3.3297   22.0973   21.1147 O   0  0  0  0  0  0  0  0  0  0  0  0
   -8.9904   17.3452   26.1579 N   0  0  0  0  0  0  0  0  0  0  0  0
   -9.9372   16.7958   25.4887 C   0  0  0  0  0  0  0  0  0  0  0  0
   -6.5812   17.3390   25.4365 N   0  0  0  0  0  0  0  0  0  0  0  0
   -6.4520   16.0716   26.2061 O   0  0  0  0  0  0  0  0  0  0  0  0
  1  2  1  0
  2  3  1  0
  3  4  2  0
  1  5  2  0
  5  6  1  0
  2  7  2  0
  7  8  1  0
  4  9  1  0
  8  9  2  0
  8 10  1  0
  6 11  2  0
  7 11  1  0
 10 12  1  0
 10 13  2  0
 12 14  2  0
 11 15  1  0
 13 15  1  0
  6 16  1  0
 14 17  1  0
 17 18  1  0
  9 19  1  0
 14 19  1  0
 19 20  1  0
M  END
>  <ID>  (1) 
conformer_0

$$$$
