
     RDKit          3D

 18 20  0  0  0  0  0  0  0  0999 V2000
   -4.8244   16.8047   25.1359 C   0  0  0  0  0  0  0  0  0  0  0  0
   -4.2233   17.7589   24.6747 C   0  0  0  0  0  0  0  0  0  0  0  0
   -6.2370   16.8917   25.1189 C   0  0  0  0  0  0  0  0  0  0  0  0
   -4.7153   18.9095   24.1824 C   0  0  0  0  0  0  0  0  0  0  0  0
   -7.0735   15.7908   25.6919 O   0  0  0  0  0  0  0  0  0  0  0  0
   -8.3336   16.0701   26.1442 C   0  0  0  0  0  0  0  0  0  0  0  0
   -3.8892   20.0139   23.6134 C   0  0  0  0  0  0  0  0  0  0  0  0
   -9.1565   16.5456   25.2000 C   0  0  0  0  0  0  0  0  0  0  0  0
   -6.9925   17.9654   24.6614 C   0  0  0  0  0  0  0  0  0  0  0  0
   -4.2638   21.1757   23.4927 C   0  0  0  0  0  0  0  0  0  0  0  0
  -10.3215   16.7152   25.3740 O   0  0  0  0  0  0  0  0  0  0  0  0
   -2.7668   19.5311   22.7126 C   0  0  0  0  0  0  0  0  0  0  0  0
   -3.5366   22.2063   22.7113 C   0  0  0  0  0  0  0  0  0  0  0  0
   -6.1681   19.1131   24.0367 C   0  0  0  0  0  0  0  0  0  0  0  0
   -8.5412   18.0070   24.7350 C   0  0  0  0  0  0  0  0  0  0  0  0
   -3.9757   23.4672   22.6986 O   0  0  0  0  0  0  0  0  0  0  0  0
   -2.4926   21.8317   21.9617 C   0  0  0  0  0  0  0  0  0  0  0  0
   -1.9987   20.4610   21.9854 C   0  0  0  0  0  0  0  0  0  0  0  0
  1  2  2  0
  1  3  1  0
  2  4  1  0
  3  5  1  0
  5  6  1  0
  4  7  1  0
  6  8  1  0
  3  9  2  0
  7 10  2  0
  8 11  1  0
  7 12  1  0
 10 13  1  0
  4 14  2  0
  9 14  1  0
  8 15  1  0
  9 15  1  0
 13 16  1  0
 13 17  2  0
 12 18  2  0
 17 18  1  0
M  END
>  <ID>  (1) 
conformer_0

$$$$
