
     RDKit          3D

 17 19  0  0  0  0  0  0  0  0999 V2000
   -3.5733   17.8885   24.0663 C   0  0  0  0  0  0  0  0  0  0  0  0
   -4.9083   18.0208   24.0511 C   0  0  0  0  0  0  0  0  0  0  0  0
   -5.8503   17.2377   24.8058 C   0  0  0  0  0  0  0  0  0  0  0  0
   -2.7765   18.7060   23.3544 C   0  0  0  0  0  0  0  0  0  0  0  0
   -3.2173   19.6875   22.5829 C   0  0  0  0  0  0  0  0  0  0  0  0
   -5.3865   19.0567   23.2332 C   0  0  0  0  0  0  0  0  0  0  0  0
   -4.5818   19.8412   22.4810 C   0  0  0  0  0  0  0  0  0  0  0  0
   -5.3578   16.3061   25.5484 O   0  0  0  0  0  0  0  0  0  0  0  0
   -7.1726   17.4441   24.8908 N   0  0  0  0  0  0  0  0  0  0  0  0
   -2.2803   20.5051   21.8128 C   0  0  0  0  0  0  0  0  0  0  0  0
   -7.7791   18.4618   24.1313 C   0  0  0  0  0  0  0  0  0  0  0  0
   -8.0843   16.5934   25.6681 C   0  0  0  0  0  0  0  0  0  0  0  0
   -6.9337   19.2553   23.0823 C   0  0  0  0  0  0  0  0  0  0  0  0
   -8.9554   18.5611   24.2847 O   0  0  0  0  0  0  0  0  0  0  0  0
   -5.1947   20.8413   21.5586 C   0  0  0  0  0  0  0  0  0  0  0  0
   -4.1263   21.6763   20.8543 C   0  0  0  0  0  0  0  0  0  0  0  0
   -2.7943   21.4920   21.0393 C   0  0  0  0  0  0  0  0  0  0  0  0
  1  2  1  0
  2  3  1  0
  1  4  2  0
  4  5  1  0
  2  6  2  0
  5  7  2  0
  6  7  1  0
  3  8  2  0
  3  9  1  0
  5 10  1  0
  9 11  1  0
  9 12  1  0
  6 13  1  0
 11 13  1  0
 11 14  2  0
  7 15  1  0
 15 16  2  0
 10 17  2  0
 16 17  1  0
M  END
>  <ID>  (1) 
conformer_0

$$$$
