
     RDKit          3D

 20 23  0  0  0  0  0  0  0  0999 V2000
   -4.8244   16.8047   25.1359 C   0  0  0  0  0  0  0  0  0  0  0  0
   -6.0826   17.1891   25.1886 C   0  0  0  0  0  0  0  0  0  0  0  0
   -3.9538   17.6505   24.4557 C   0  0  0  0  0  0  0  0  0  0  0  0
   -2.6003   17.2833   24.1421 O   0  0  0  0  0  0  0  0  0  0  0  0
   -6.5159   18.4634   24.8810 C   0  0  0  0  0  0  0  0  0  0  0  0
   -4.3372   18.8448   24.0522 C   0  0  0  0  0  0  0  0  0  0  0  0
   -3.4497   19.8729   23.4152 C   0  0  0  0  0  0  0  0  0  0  0  0
   -7.0018   16.2058   26.0899 C   0  0  0  0  0  0  0  0  0  0  0  0
   -7.9769   18.8124   25.1380 C   0  0  0  0  0  0  0  0  0  0  0  0
   -5.7246   19.3172   24.2985 C   0  0  0  0  0  0  0  0  0  0  0  0
   -6.1816   20.7030   23.8564 C   0  0  0  0  0  0  0  0  0  0  0  0
   -8.2737   16.5710   26.3324 C   0  0  0  0  0  0  0  0  0  0  0  0
   -5.3934   21.3951   22.9209 C   0  0  0  0  0  0  0  0  0  0  0  0
   -2.4700   19.3755   22.6812 O   0  0  0  0  0  0  0  0  0  0  0  0
   -4.0300   21.0654   22.7553 C   0  0  0  0  0  0  0  0  0  0  0  0
   -1.9064   20.4671   21.8672 C   0  0  0  0  0  0  0  0  0  0  0  0
   -3.1250   21.5852   21.8320 C   0  0  0  0  0  0  0  0  0  0  0  0
   -5.3864   22.8134   23.2686 O   0  0  0  0  0  0  0  0  0  0  0  0
   -6.1662   21.3150   21.6274 O   0  0  0  0  0  0  0  0  0  0  0  0
   -8.8049   17.8084   25.8151 C   0  0  0  0  0  0  0  0  0  0  0  0
  1  2  2  0
  1  3  1  0
  3  4  1  0
  2  5  1  0
  3  6  2  0
  6  7  1  0
  2  8  1  0
  5  9  1  0
  5 10  2  0
  6 10  1  0
 10 11  1  0
  8 12  2  0
 11 13  1  0
  7 14  1  0
  7 15  1  0
 13 15  1  0
 14 16  1  0
 15 17  1  0
 16 17  1  0
 13 18  1  0
 13 19  1  0
  9 20  2  0
 12 20  1  0
M  END
>  <ID>  (1) 
conformer_0

$$$$
