
     RDKit          3D

 20 23  0  0  0  0  0  0  0  0999 V2000
   -2.8386   18.0058   23.9657 C   0  0  0  0  0  0  0  0  0  0  0  0
   -4.0867   18.4070   23.8039 C   0  0  0  0  0  0  0  0  0  0  0  0
   -4.5223   19.4559   23.1837 C   0  0  0  0  0  0  0  0  0  0  0  0
   -3.4400   20.2618   22.5162 C   0  0  0  0  0  0  0  0  0  0  0  0
   -5.9426   19.8938   22.9864 C   0  0  0  0  0  0  0  0  0  0  0  0
   -5.1225   17.6669   24.7259 C   0  0  0  0  0  0  0  0  0  0  0  0
   -6.1621   21.1860   23.0699 C   0  0  0  0  0  0  0  0  0  0  0  0
   -3.7433   21.4331   21.5964 C   0  0  0  0  0  0  0  0  0  0  0  0
   -6.4506   18.2019   24.6733 C   0  0  0  0  0  0  0  0  0  0  0  0
   -2.1182   19.8925   22.5528 C   0  0  0  0  0  0  0  0  0  0  0  0
   -3.7997   21.0843   20.2413 C   0  0  0  0  0  0  0  0  0  0  0  0
   -1.8258   18.7667   23.3424 C   0  0  0  0  0  0  0  0  0  0  0  0
   -6.8722   19.2326   24.0112 C   0  0  0  0  0  0  0  0  0  0  0  0
   -8.0730   19.5823   24.0738 N   0  0  0  0  0  0  0  0  0  0  0  0
   -8.5920   18.6663   25.0556 N   0  0  0  0  0  0  0  0  0  0  0  0
   -2.8585   22.5501   21.9569 C   0  0  0  0  0  0  0  0  0  0  0  0
   -7.5313   17.6765   25.5646 C   0  0  0  0  0  0  0  0  0  0  0  0
   -9.8540   18.5595   25.5087 C   0  0  0  0  0  0  0  0  0  0  0  0
   -7.6011   16.7755   26.3211 O   0  0  0  0  0  0  0  0  0  0  0  0
   -5.3654   21.9510   21.8211 C   0  0  0  0  0  0  0  0  0  0  0  0
  1  2  1  0
  2  3  2  0
  3  4  1  0
  3  5  1  0
  2  6  1  0
  5  7  1  0
  4  8  1  0
  6  9  2  0
  4 10  2  0
  8 11  1  0
  1 12  2  0
 10 12  1  0
  5 13  1  0
  9 13  1  0
 13 14  2  0
 14 15  1  0
  8 16  1  0
  9 17  1  0
 15 17  1  0
 15 18  1  0
 17 19  2  0
  7 20  1  0
  8 20  1  0
M  END
>  <ID>  (1) 
conformer_0

$$$$
