
     RDKit          3D

 19 22  0  0  0  0  0  0  0  0999 V2000
   -4.8244   16.8047   25.1359 C   0  0  0  0  0  0  0  0  0  0  0  0
   -6.0826   17.1891   25.1886 C   0  0  0  0  0  0  0  0  0  0  0  0
   -3.8841   17.6227   24.5115 C   0  0  0  0  0  0  0  0  0  0  0  0
   -4.2231   18.8994   24.1272 C   0  0  0  0  0  0  0  0  0  0  0  0
   -5.5454   19.3047   24.3514 C   0  0  0  0  0  0  0  0  0  0  0  0
   -5.9722   20.6583   23.9645 C   0  0  0  0  0  0  0  0  0  0  0  0
   -5.1487   21.5137   23.6747 C   0  0  0  0  0  0  0  0  0  0  0  0
   -3.2398   19.7681   23.5579 C   0  0  0  0  0  0  0  0  0  0  0  0
   -4.0144   20.9763   22.8402 C   0  0  0  0  0  0  0  0  0  0  0  0
   -6.4156   18.3298   24.8170 C   0  0  0  0  0  0  0  0  0  0  0  0
   -2.0692   19.3191   23.1074 C   0  0  0  0  0  0  0  0  0  0  0  0
   -6.8385   16.1995   25.7520 O   0  0  0  0  0  0  0  0  0  0  0  0
   -7.8520   18.7226   25.0449 C   0  0  0  0  0  0  0  0  0  0  0  0
   -2.8575   22.0154   22.4788 C   0  0  0  0  0  0  0  0  0  0  0  0
   -8.7251   17.5953   25.0882 C   0  0  0  0  0  0  0  0  0  0  0  0
   -4.5244   20.4403   21.5213 C   0  0  0  0  0  0  0  0  0  0  0  0
   -1.7628   21.3935   21.6992 C   0  0  0  0  0  0  0  0  0  0  0  0
   -1.1509   20.3407   22.5385 C   0  0  0  0  0  0  0  0  0  0  0  0
   -8.1406   16.7477   26.2069 C   0  0  0  0  0  0  0  0  0  0  0  0
  1  2  1  0
  1  3  2  0
  3  4  1  0
  4  5  2  0
  5  6  1  0
  6  7  1  0
  4  8  1  0
  7  9  1  0
  8  9  1  0
  2 10  2  0
  5 10  1  0
  8 11  1  0
  2 12  1  0
 10 13  1  0
  9 14  1  0
 13 15  1  0
  9 16  1  0
 14 17  1  0
 11 18  1  0
 17 18  1  0
 12 19  1  0
 15 19  1  0
M  END
>  <ID>  (1) 
conformer_0

$$$$
