
     RDKit          3D

 20 23  0  0  0  0  0  0  0  0999 V2000
   -2.7856   18.1842   23.9764 C   0  0  0  0  0  0  0  0  0  0  0  0
   -2.4362   19.0702   23.0858 C   0  0  0  0  0  0  0  0  0  0  0  0
   -4.1022   18.0443   24.2565 C   0  0  0  0  0  0  0  0  0  0  0  0
   -5.0238   18.9588   23.7088 C   0  0  0  0  0  0  0  0  0  0  0  0
   -4.5896   17.1259   25.3764 C   0  0  0  0  0  0  0  0  0  0  0  0
   -5.9362   17.0069   25.5969 C   0  0  0  0  0  0  0  0  0  0  0  0
   -0.9934   19.2263   22.6380 F   0  0  0  0  0  0  0  0  0  0  0  0
   -3.2917   19.8864   22.4283 C   0  0  0  0  0  0  0  0  0  0  0  0
   -6.4647   16.0329   26.4632 O   0  0  0  0  0  0  0  0  0  0  0  0
   -6.8776   17.8514   24.9824 C   0  0  0  0  0  0  0  0  0  0  0  0
   -6.4154   18.7693   24.0281 C   0  0  0  0  0  0  0  0  0  0  0  0
   -4.5962   19.8073   22.7687 C   0  0  0  0  0  0  0  0  0  0  0  0
   -7.8416   16.2549   26.5372 C   0  0  0  0  0  0  0  0  0  0  0  0
   -7.2550   18.6003   22.7752 C   0  0  0  0  0  0  0  0  0  0  0  0
   -8.0997   17.6147   22.9591 C   0  0  0  0  0  0  0  0  0  0  0  0
   -8.3024   17.2292   25.5841 C   0  0  0  0  0  0  0  0  0  0  0  0
   -8.6485   16.6826   24.1643 C   0  0  0  0  0  0  0  0  0  0  0  0
   -6.6790   20.2154   24.5240 C   0  0  0  0  0  0  0  0  0  0  0  0
   -2.7942   20.8499   21.4247 O   0  0  0  0  0  0  0  0  0  0  0  0
   -2.7147   22.1361   21.7014 C   0  0  0  0  0  0  0  0  0  0  0  0
  1  2  2  0
  1  3  1  0
  3  4  2  0
  3  5  1  0
  5  6  2  0
  2  7  1  0
  2  8  1  0
  6  9  1  0
  6 10  1  0
  4 11  1  0
 10 11  1  0
  4 12  1  0
  8 12  2  0
  9 13  1  0
 11 14  1  0
 14 15  1  0
 10 16  1  0
 13 16  1  0
 15 17  2  0
 16 17  1  0
 11 18  1  0
  8 19  1  0
 19 20  1  0
M  END
>  <ID>  (1) 
conformer_0

$$$$
