
     RDKit          3D

 20 24  0  0  0  0  0  0  0  0999 V2000
   -2.0695   19.1054   22.9845 C   0  0  0  0  0  0  0  0  0  0  0  0
   -2.0544   20.1406   22.2426 C   0  0  0  0  0  0  0  0  0  0  0  0
   -3.2523   18.6707   23.6312 C   0  0  0  0  0  0  0  0  0  0  0  0
   -3.2834   17.5111   24.4374 O   0  0  0  0  0  0  0  0  0  0  0  0
   -4.5986   16.9272   24.6094 C   0  0  0  0  0  0  0  0  0  0  0  0
   -4.3771   19.4101   23.4153 C   0  0  0  0  0  0  0  0  0  0  0  0
   -4.8220   15.8771   25.2585 C   0  0  0  0  0  0  0  0  0  0  0  0
   -5.6833   17.8782   24.6544 C   0  0  0  0  0  0  0  0  0  0  0  0
   -5.5680   18.9517   23.9758 C   0  0  0  0  0  0  0  0  0  0  0  0
   -6.8486   19.7828   23.8820 C   0  0  0  0  0  0  0  0  0  0  0  0
   -4.2805   20.6336   22.6142 C   0  0  0  0  0  0  0  0  0  0  0  0
   -5.5512   21.4765   22.4132 C   0  0  0  0  0  0  0  0  0  0  0  0
   -6.2346   15.8840   25.6016 C   0  0  0  0  0  0  0  0  0  0  0  0
   -6.6913   17.1450   25.2458 N   0  0  0  0  0  0  0  0  0  0  0  0
   -6.6165   21.1185   23.2553 N   0  0  0  0  0  0  0  0  0  0  0  0
   -7.5596   19.9706   25.0781 O   0  0  0  0  0  0  0  0  0  0  0  0
   -5.6033   22.3366   21.5539 O   0  0  0  0  0  0  0  0  0  0  0  0
   -8.1508   17.3688   25.1599 C   0  0  0  0  0  0  0  0  0  0  0  0
   -3.1140   20.9836   22.0432 C   0  0  0  0  0  0  0  0  0  0  0  0
   -7.7721   18.8159   25.7553 C   0  0  0  0  0  0  0  0  0  0  0  0
  1  2  1  0
  1  3  2  0
  3  4  1  0
  4  5  1  0
  3  6  1  0
  5  7  1  0
  5  8  2  0
  6  9  2  0
  8  9  1  0
  9 10  1  0
  6 11  1  0
 11 12  1  0
  7 13  2  0
  8 14  1  0
 13 14  1  0
 10 15  1  0
 12 15  1  0
 10 16  1  0
 12 17  2  0
 14 18  1  0
  2 19  2  0
 11 19  1  0
 16 20  1  0
 18 20  1  0
M  END
>  <ID>  (1) 
conformer_0

$$$$
