
     RDKit          3D

 17 20  0  0  0  0  0  0  0  0999 V2000
   -4.8244   16.8047   25.1359 C   0  0  0  0  0  0  0  0  0  0  0  0
   -4.2233   17.7589   24.6747 C   0  0  0  0  0  0  0  0  0  0  0  0
   -6.2370   16.8917   25.1189 C   0  0  0  0  0  0  0  0  0  0  0  0
   -7.0900   15.8107   25.6880 O   0  0  0  0  0  0  0  0  0  0  0  0
   -2.7244   17.7604   24.3967 C   0  0  0  0  0  0  0  0  0  0  0  0
   -4.8275   18.9803   24.1538 C   0  0  0  0  0  0  0  0  0  0  0  0
   -4.0618   20.0758   23.5778 C   0  0  0  0  0  0  0  0  0  0  0  0
   -4.7174   21.1322   22.9240 C   0  0  0  0  0  0  0  0  0  0  0  0
   -2.8791   19.6675   22.7834 C   0  0  0  0  0  0  0  0  0  0  0  0
   -6.1145   19.0610   24.0975 C   0  0  0  0  0  0  0  0  0  0  0  0
   -4.2566   21.3743   21.5356 C   0  0  0  0  0  0  0  0  0  0  0  0
   -6.8527   20.2591   23.5293 C   0  0  0  0  0  0  0  0  0  0  0  0
   -8.4369   16.0158   25.5507 C   0  0  0  0  0  0  0  0  0  0  0  0
   -6.9963   18.0277   24.6769 C   0  0  0  0  0  0  0  0  0  0  0  0
   -2.0045   18.7580   23.6680 C   0  0  0  0  0  0  0  0  0  0  0  0
   -2.3499   20.8954   22.1234 C   0  0  0  0  0  0  0  0  0  0  0  0
   -6.1781   20.7814   22.7149 O   0  0  0  0  0  0  0  0  0  0  0  0
  1  2  2  0
  1  3  1  0
  3  4  1  0
  2  5  1  0
  2  6  1  0
  6  7  1  0
  7  8  1  0
  7  9  1  0
  6 10  2  0
  8 11  1  0
 10 12  1  0
  4 13  1  0
  3 14  2  0
 10 14  1  0
  5 15  1  0
  9 15  1  0
  9 16  1  0
 11 16  1  0
  8 17  1  0
 12 17  1  0
M  END
>  <ID>  (1) 
conformer_0

$$$$
