
     RDKit          3D

 20 23  0  0  0  0  0  0  0  0999 V2000
   -4.8244   16.8047   25.1359 C   0  0  0  0  0  0  0  0  0  0  0  0
   -6.0826   17.1891   25.1886 C   0  0  0  0  0  0  0  0  0  0  0  0
   -3.8841   17.6227   24.5115 C   0  0  0  0  0  0  0  0  0  0  0  0
   -4.2231   18.8994   24.1272 C   0  0  0  0  0  0  0  0  0  0  0  0
   -5.5454   19.3047   24.3514 C   0  0  0  0  0  0  0  0  0  0  0  0
   -5.9722   20.6583   23.9645 C   0  0  0  0  0  0  0  0  0  0  0  0
   -5.1487   21.5137   23.6747 C   0  0  0  0  0  0  0  0  0  0  0  0
   -3.2009   19.7856   23.5834 C   0  0  0  0  0  0  0  0  0  0  0  0
   -6.5054   18.4275   24.9236 C   0  0  0  0  0  0  0  0  0  0  0  0
   -2.2590   19.1975   22.7138 C   0  0  0  0  0  0  0  0  0  0  0  0
   -5.6027   22.5533   22.7068 C   0  0  0  0  0  0  0  0  0  0  0  0
   -6.9931   16.2688   25.8751 O   0  0  0  0  0  0  0  0  0  0  0  0
   -7.8842   18.7410   25.1804 C   0  0  0  0  0  0  0  0  0  0  0  0
   -8.8020   18.3959   24.2477 O   0  0  0  0  0  0  0  0  0  0  0  0
   -3.8239   20.9654   22.8941 N   0  0  0  0  0  0  0  0  0  0  0  0
   -4.4383   22.9513   21.8359 C   0  0  0  0  0  0  0  0  0  0  0  0
   -1.7929   20.2534   21.6162 C   0  0  0  0  0  0  0  0  0  0  0  0
   -8.2277   19.5150   26.1562 O   0  0  0  0  0  0  0  0  0  0  0  0
   -3.2600   22.1010   22.4120 C   0  0  0  0  0  0  0  0  0  0  0  0
   -2.3165   21.5396   21.3008 C   0  0  0  0  0  0  0  0  0  0  0  0
  1  2  1  0
  1  3  2  0
  3  4  1  0
  4  5  2  0
  5  6  1  0
  6  7  1  0
  4  8  1  0
  2  9  2  0
  5  9  1  0
  8 10  1  0
  7 11  1  0
  2 12  1  0
  9 13  1  0
 13 14  2  0
  7 15  1  0
  8 15  1  0
 11 16  1  0
 10 17  1  0
 13 18  1  0
 15 19  1  0
 16 19  1  0
 17 20  1  0
 19 20  1  0
M  END
>  <ID>  (1) 
conformer_0

$$$$
