
     RDKit          3D

 20 23  0  0  0  0  0  0  0  0999 V2000
   -6.1697   16.5199   25.9544 O   0  0  0  0  0  0  0  0  0  0  0  0
   -5.5090   17.1985   25.2227 C   0  0  0  0  0  0  0  0  0  0  0  0
   -6.1675   18.3803   24.7251 C   0  0  0  0  0  0  0  0  0  0  0  0
   -7.5705   16.8631   25.8742 C   0  0  0  0  0  0  0  0  0  0  0  0
   -7.5688   18.0769   25.1704 C   0  0  0  0  0  0  0  0  0  0  0  0
   -8.6496   16.2177   26.5506 C   0  0  0  0  0  0  0  0  0  0  0  0
   -5.7107   19.3411   23.8562 C   0  0  0  0  0  0  0  0  0  0  0  0
   -4.2602   16.9683   24.9252 C   0  0  0  0  0  0  0  0  0  0  0  0
   -6.3993   20.3972   23.3491 C   0  0  0  0  0  0  0  0  0  0  0  0
   -3.5837   17.9311   24.0793 C   0  0  0  0  0  0  0  0  0  0  0  0
   -5.5305   21.2919   22.5554 C   0  0  0  0  0  0  0  0  0  0  0  0
   -5.8972   22.4826   22.0118 O   0  0  0  0  0  0  0  0  0  0  0  0
   -4.2713   20.7510   21.9922 N   0  0  0  0  0  0  0  0  0  0  0  0
   -4.2949   19.0994   23.7113 C   0  0  0  0  0  0  0  0  0  0  0  0
   -3.4974   21.5932   21.0692 C   0  0  0  0  0  0  0  0  0  0  0  0
   -9.7294   16.0227   25.7793 O   0  0  0  0  0  0  0  0  0  0  0  0
   -2.5650   20.5550   20.5292 C   0  0  0  0  0  0  0  0  0  0  0  0
   -1.6384   20.5781   21.6492 C   0  0  0  0  0  0  0  0  0  0  0  0
   -2.3269   20.5510   22.8776 C   0  0  0  0  0  0  0  0  0  0  0  0
   -3.6145   19.8460   23.0073 C   0  0  0  0  0  0  0  0  0  0  0  0
  1  2  1  0
  2  3  2  0
  1  4  1  0
  3  5  1  0
  4  5  2  0
  4  6  1  0
  3  7  1  0
  2  8  1  0
  7  9  2  0
  8 10  2  0
  9 11  1  0
 11 12  2  0
 11 13  1  0
  7 14  1  0
 10 14  1  0
 13 15  1  0
  6 16  1  0
 15 17  1  0
 17 18  1  0
 18 19  1  0
 13 20  1  0
 14 20  2  0
 19 20  1  0
M  END
>  <ID>  (1) 
conformer_0

$$$$
