
     RDKit          3D

 20 24  0  0  0  0  0  0  0  0999 V2000
   -4.8244   16.8047   25.1359 C   0  0  0  0  0  0  0  0  0  0  0  0
   -4.2233   17.7589   24.6747 C   0  0  0  0  0  0  0  0  0  0  0  0
   -6.2370   16.8917   25.1189 C   0  0  0  0  0  0  0  0  0  0  0  0
   -7.0900   15.8107   25.6880 O   0  0  0  0  0  0  0  0  0  0  0  0
   -2.7244   17.7604   24.3967 C   0  0  0  0  0  0  0  0  0  0  0  0
   -4.8275   18.9803   24.1538 C   0  0  0  0  0  0  0  0  0  0  0  0
   -4.0618   20.0758   23.5778 C   0  0  0  0  0  0  0  0  0  0  0  0
   -4.7174   21.1322   22.9240 C   0  0  0  0  0  0  0  0  0  0  0  0
   -2.8791   19.6675   22.7834 C   0  0  0  0  0  0  0  0  0  0  0  0
   -6.1145   19.0610   24.0975 C   0  0  0  0  0  0  0  0  0  0  0  0
   -5.9171   20.8836   22.4966 C   0  0  0  0  0  0  0  0  0  0  0  0
   -2.2131   18.9293   23.6910 C   0  0  0  0  0  0  0  0  0  0  0  0
   -6.9324   17.9883   24.6500 C   0  0  0  0  0  0  0  0  0  0  0  0
   -8.3729   18.0573   24.7720 C   0  0  0  0  0  0  0  0  0  0  0  0
   -8.9947   16.8207   24.9085 C   0  0  0  0  0  0  0  0  0  0  0  0
   -2.0331   20.8618   22.3428 C   0  0  0  0  0  0  0  0  0  0  0  0
   -8.3868   16.0761   25.8659 C   0  0  0  0  0  0  0  0  0  0  0  0
   -3.0358   21.9140   21.9323 C   0  0  0  0  0  0  0  0  0  0  0  0
   -4.2457   21.6093   21.5097 C   0  0  0  0  0  0  0  0  0  0  0  0
   -6.9378   20.2592   23.7787 C   0  0  0  0  0  0  0  0  0  0  0  0
  1  2  2  0
  1  3  1  0
  3  4  1  0
  2  5  1  0
  2  6  1  0
  6  7  1  0
  7  8  1  0
  7  9  1  0
  6 10  2  0
  8 11  1  0
  5 12  1  0
  9 12  1  0
  3 13  2  0
 10 13  1  0
 13 14  1  0
 14 15  1  0
  9 16  1  0
  4 17  1  0
 15 17  1  0
 16 18  1  0
  8 19  1  0
 18 19  1  0
 10 20  1  0
 11 20  1  0
M  END
>  <ID>  (1) 
conformer_0

$$$$
