
     RDKit          3D

 20 23  0  0  0  0  0  0  0  0999 V2000
   -3.8443   17.6275   24.6634 C   0  0  0  0  0  0  0  0  0  0  0  0
   -4.9430   17.1422   24.9454 C   0  0  0  0  0  0  0  0  0  0  0  0
   -3.6872   18.6203   23.8746 C   0  0  0  0  0  0  0  0  0  0  0  0
   -4.7933   19.3886   23.4555 C   0  0  0  0  0  0  0  0  0  0  0  0
   -6.0241   18.9988   23.8167 C   0  0  0  0  0  0  0  0  0  0  0  0
   -2.2803   19.1553   23.3923 C   0  0  0  0  0  0  0  0  0  0  0  0
   -4.6035   20.6736   22.5424 C   0  0  0  0  0  0  0  0  0  0  0  0
   -2.2004   20.2014   22.4367 C   0  0  0  0  0  0  0  0  0  0  0  0
   -3.3197   20.9629   22.1397 C   0  0  0  0  0  0  0  0  0  0  0  0
   -5.4585   20.6311   21.4196 C   0  0  0  0  0  0  0  0  0  0  0  0
   -3.0942   22.1041   21.3073 C   0  0  0  0  0  0  0  0  0  0  0  0
   -4.1117   22.1563   20.5695 C   0  0  0  0  0  0  0  0  0  0  0  0
   -6.1481   17.8069   24.5954 C   0  0  0  0  0  0  0  0  0  0  0  0
   -7.2676   17.2620   25.0480 C   0  0  0  0  0  0  0  0  0  0  0  0
   -7.5482   16.7737   26.2299 C   0  0  0  0  0  0  0  0  0  0  0  0
   -5.3369   21.5967   20.6261 C   0  0  0  0  0  0  0  0  0  0  0  0
   -8.4252   17.3604   24.1053 C   0  0  0  0  0  0  0  0  0  0  0  0
   -8.7631   16.1745   26.5876 C   0  0  0  0  0  0  0  0  0  0  0  0
   -9.8551   16.2966   25.7652 C   0  0  0  0  0  0  0  0  0  0  0  0
   -9.7376   16.9273   24.5556 C   0  0  0  0  0  0  0  0  0  0  0  0
  1  2  2  0
  1  3  1  0
  3  4  2  0
  4  5  1  0
  3  6  1  0
  4  7  1  0
  6  8  2  0
  7  9  1  0
  8  9  1  0
  7 10  1  0
  9 11  1  0
 11 12  2  0
  2 13  1  0
  5 13  2  0
 13 14  1  0
 14 15  1  0
 10 16  1  0
 12 16  1  0
 14 17  2  0
 15 18  2  0
 18 19  1  0
 17 20  1  0
 19 20  2  0
M  END
>  <ID>  (1) 
conformer_0

$$$$
