
     RDKit          3D

 17 19  0  0  0  0  0  0  0  0999 V2000
   -3.5733   17.8885   24.0663 C   0  0  0  0  0  0  0  0  0  0  0  0
   -4.9083   18.0208   24.0511 C   0  0  0  0  0  0  0  0  0  0  0  0
   -5.8707   17.2099   24.7465 C   0  0  0  0  0  0  0  0  0  0  0  0
   -5.5024   19.0999   23.3606 C   0  0  0  0  0  0  0  0  0  0  0  0
   -6.8445   19.3515   23.3336 C   0  0  0  0  0  0  0  0  0  0  0  0
   -5.4899   16.0765   25.4442 O   0  0  0  0  0  0  0  0  0  0  0  0
   -7.6738   18.4596   24.0595 C   0  0  0  0  0  0  0  0  0  0  0  0
   -4.3153   19.5906   22.7099 C   0  0  0  0  0  0  0  0  0  0  0  0
   -9.0937   18.6806   24.1071 F   0  0  0  0  0  0  0  0  0  0  0  0
   -3.1810   18.9648   23.1229 C   0  0  0  0  0  0  0  0  0  0  0  0
   -7.2428   17.3920   24.8693 N   0  0  0  0  0  0  0  0  0  0  0  0
   -8.1488   16.5008   25.5045 C   0  0  0  0  0  0  0  0  0  0  0  0
   -4.1991   20.7619   21.7994 C   0  0  0  0  0  0  0  0  0  0  0  0
   -3.0090   21.2285   21.4419 C   0  0  0  0  0  0  0  0  0  0  0  0
   -2.0860   19.4205   22.6773 C   0  0  0  0  0  0  0  0  0  0  0  0
   -5.5793   21.6179   21.2406 Cl  0  0  0  0  0  0  0  0  0  0  0  0
   -1.8928   20.5640   21.7729 C   0  0  0  0  0  0  0  0  0  0  0  0
  1  2  2  0
  2  3  1  0
  2  4  1  0
  4  5  1  0
  3  6  2  0
  5  7  2  0
  4  8  2  0
  7  9  1  0
  1 10  1  0
  8 10  1  0
  3 11  1  0
  7 11  1  0
 11 12  1  0
  8 13  1  0
 13 14  2  0
 10 15  2  0
 13 16  1  0
 14 17  1  0
 15 17  1  0
M  END
>  <ID>  (1) 
conformer_0

$$$$
