
     RDKit          3D

  8  8  0  0  0  0  0  0  0  0999 V2000
   -2.0877   21.7305   21.9654 C   0  0  0  0  0  0  0  0  0  0  0  0
   -2.4692   20.4391   22.1581 C   0  0  0  0  0  0  0  0  0  0  0  0
   -3.0387   22.5827   21.4861 C   0  0  0  0  0  0  0  0  0  0  0  0
   -4.4061   22.2051   21.3087 C   0  0  0  0  0  0  0  0  0  0  0  0
   -5.3902   23.0944   20.9460 O   0  0  0  0  0  0  0  0  0  0  0  0
   -1.4837   19.4375   22.6295 O   0  0  0  0  0  0  0  0  0  0  0  0
   -4.8076   20.8294   21.6448 C   0  0  0  0  0  0  0  0  0  0  0  0
   -3.6368   19.9675   22.0639 C   0  0  0  0  0  0  0  0  0  0  0  0
  1  2  2  0
  1  3  1  0
  3  4  2  0
  4  5  1  0
  2  6  1  0
  4  7  1  0
  2  8  1  0
  7  8  2  0
M  END
>  <ID>  (1) 
conformer_0

$$$$
