
     RDKit          3D

 18 20  0  0  0  0  0  0  0  0999 V2000
   -4.8244   16.8047   25.1359 C   0  0  0  0  0  0  0  0  0  0  0  0
   -6.0826   17.1891   25.1886 C   0  0  0  0  0  0  0  0  0  0  0  0
   -3.8841   17.6227   24.5115 C   0  0  0  0  0  0  0  0  0  0  0  0
   -4.2231   18.8994   24.1272 C   0  0  0  0  0  0  0  0  0  0  0  0
   -5.5454   19.3047   24.3514 C   0  0  0  0  0  0  0  0  0  0  0  0
   -5.9722   20.6583   23.9645 C   0  0  0  0  0  0  0  0  0  0  0  0
   -5.1487   21.5137   23.6747 C   0  0  0  0  0  0  0  0  0  0  0  0
   -3.2009   19.7856   23.5834 C   0  0  0  0  0  0  0  0  0  0  0  0
   -6.5054   18.4275   24.9236 C   0  0  0  0  0  0  0  0  0  0  0  0
   -2.2590   19.1975   22.7138 C   0  0  0  0  0  0  0  0  0  0  0  0
   -5.6027   22.5533   22.7068 C   0  0  0  0  0  0  0  0  0  0  0  0
   -7.0981   16.2492   25.9172 C   0  0  0  0  0  0  0  0  0  0  0  0
   -3.8360   20.9346   22.8442 N   0  0  0  0  0  0  0  0  0  0  0  0
   -1.7452   20.4423   21.7962 C   0  0  0  0  0  0  0  0  0  0  0  0
   -6.9364   15.8838   26.9489 O   0  0  0  0  0  0  0  0  0  0  0  0
   -2.5814   21.5768   22.3194 C   0  0  0  0  0  0  0  0  0  0  0  0
   -8.2671   16.0786   25.1855 O   0  0  0  0  0  0  0  0  0  0  0  0
   -7.7848   19.0960   25.2953 C   0  0  0  0  0  0  0  0  0  0  0  0
  1  2  1  0
  1  3  2  0
  3  4  1  0
  4  5  2  0
  5  6  1  0
  6  7  1  0
  4  8  1  0
  2  9  2  0
  5  9  1  0
  8 10  1  0
  7 11  1  0
  2 12  1  0
  7 13  1  0
  8 13  1  0
 10 14  1  0
 12 15  2  0
 13 16  1  0
 14 16  1  0
 12 17  1  0
  9 18  1  0
M  END
>  <ID>  (1) 
conformer_0

$$$$
