
     RDKit          3D

 19 22  0  0  0  0  0  0  0  0999 V2000
   -3.8443   17.6275   24.6634 C   0  0  0  0  0  0  0  0  0  0  0  0
   -5.0874   17.8422   24.6706 C   0  0  0  0  0  0  0  0  0  0  0  0
   -3.1928   18.3861   23.7140 C   0  0  0  0  0  0  0  0  0  0  0  0
   -3.6989   19.3720   22.9658 C   0  0  0  0  0  0  0  0  0  0  0  0
   -5.7974   18.8101   23.9433 C   0  0  0  0  0  0  0  0  0  0  0  0
   -5.9150   16.9249   25.6528 C   0  0  0  0  0  0  0  0  0  0  0  0
   -7.2587   17.2676   25.8477 C   0  0  0  0  0  0  0  0  0  0  0  0
   -5.0972   19.5609   23.0631 C   0  0  0  0  0  0  0  0  0  0  0  0
   -7.9521   18.2152   25.1066 C   0  0  0  0  0  0  0  0  0  0  0  0
   -9.2548   18.3175   25.3274 F   0  0  0  0  0  0  0  0  0  0  0  0
   -5.7665   20.5671   22.3807 C   0  0  0  0  0  0  0  0  0  0  0  0
   -7.1871   20.6845   22.5530 C   0  0  0  0  0  0  0  0  0  0  0  0
   -3.1971   20.2101   21.9662 C   0  0  0  0  0  0  0  0  0  0  0  0
   -7.7710   19.9478   23.5066 C   0  0  0  0  0  0  0  0  0  0  0  0
   -5.0536   21.3717   21.4269 C   0  0  0  0  0  0  0  0  0  0  0  0
   -3.5317   21.1409   21.3406 C   0  0  0  0  0  0  0  0  0  0  0  0
   -7.1575   18.9726   24.2780 C   0  0  0  0  0  0  0  0  0  0  0  0
   -8.0421   16.3065   26.8055 C   0  0  0  0  0  0  0  0  0  0  0  0
   -2.9560   22.1258   20.4156 C   0  0  0  0  0  0  0  0  0  0  0  0
  1  2  1  0
  1  3  2  0
  3  4  1  0
  2  5  2  0
  2  6  1  0
  6  7  2  0
  4  8  1  0
  5  8  1  0
  7  9  1  0
  9 10  1  0
  8 11  2  0
 11 12  1  0
  4 13  2  0
 12 14  2  0
 11 15  1  0
 13 16  1  0
 15 16  2  0
  5 17  1  0
  9 17  2  0
 14 17  1  0
  7 18  1  0
 16 19  1  0
M  END
>  <ID>  (1) 
conformer_0

$$$$
