
     RDKit          3D

 19 22  0  0  0  0  0  0  0  0999 V2000
   -2.8386   18.0058   23.9657 C   0  0  0  0  0  0  0  0  0  0  0  0
   -4.0867   18.4070   23.8039 C   0  0  0  0  0  0  0  0  0  0  0  0
   -4.5223   19.4559   23.1837 C   0  0  0  0  0  0  0  0  0  0  0  0
   -3.4400   20.2618   22.5162 C   0  0  0  0  0  0  0  0  0  0  0  0
   -5.9426   19.8938   22.9864 C   0  0  0  0  0  0  0  0  0  0  0  0
   -5.1225   17.6669   24.7259 C   0  0  0  0  0  0  0  0  0  0  0  0
   -6.1621   21.1860   23.0699 C   0  0  0  0  0  0  0  0  0  0  0  0
   -3.7433   21.4331   21.5964 C   0  0  0  0  0  0  0  0  0  0  0  0
   -6.4506   18.2019   24.6733 C   0  0  0  0  0  0  0  0  0  0  0  0
   -2.1182   19.8925   22.5528 C   0  0  0  0  0  0  0  0  0  0  0  0
   -2.0021   18.7333   23.2872 C   0  0  0  0  0  0  0  0  0  0  0  0
   -6.8142   19.2418   23.9637 C   0  0  0  0  0  0  0  0  0  0  0  0
   -7.3475   17.5434   25.6900 C   0  0  0  0  0  0  0  0  0  0  0  0
   -8.0850   18.8772   23.4094 O   0  0  0  0  0  0  0  0  0  0  0  0
   -4.8778   16.3751   25.2854 C   0  0  0  0  0  0  0  0  0  0  0  0
   -5.1704   21.9950   22.0065 C   0  0  0  0  0  0  0  0  0  0  0  0
   -5.8286   15.7909   26.0666 C   0  0  0  0  0  0  0  0  0  0  0  0
   -3.0102   22.0056   20.6970 C   0  0  0  0  0  0  0  0  0  0  0  0
   -7.0320   16.3381   26.2387 C   0  0  0  0  0  0  0  0  0  0  0  0
  1  2  1  0
  2  3  2  0
  3  4  1  0
  3  5  1  0
  2  6  1  0
  5  7  1  0
  4  8  1  0
  6  9  2  0
  4 10  2  0
  1 11  2  0
 10 11  1  0
  5 12  1  0
  9 12  1  0
  9 13  1  0
 12 14  1  0
  6 15  1  0
  7 16  1  0
  8 16  2  0
 15 17  2  0
  8 18  1  0
 13 19  2  0
 17 19  1  0
M  END
>  <ID>  (1) 
conformer_0

$$$$
