
     RDKit          3D

 17 18  0  0  0  0  0  0  0  0999 V2000
   -3.5733   17.8885   24.0663 C   0  0  0  0  0  0  0  0  0  0  0  0
   -3.2181   18.8386   23.4108 C   0  0  0  0  0  0  0  0  0  0  0  0
   -1.8383   19.0091   23.1294 C   0  0  0  0  0  0  0  0  0  0  0  0
   -5.0014   17.7008   24.5340 C   0  0  0  0  0  0  0  0  0  0  0  0
   -4.0952   19.8616   22.9975 C   0  0  0  0  0  0  0  0  0  0  0  0
   -5.4758   19.7183   23.3223 C   0  0  0  0  0  0  0  0  0  0  0  0
   -3.7697   21.0872   22.2333 C   0  0  0  0  0  0  0  0  0  0  0  0
   -3.4238   22.1782   23.0097 C   0  0  0  0  0  0  0  0  0  0  0  0
   -5.8856   18.6375   24.1156 C   0  0  0  0  0  0  0  0  0  0  0  0
   -7.3395   18.5481   24.5050 C   0  0  0  0  0  0  0  0  0  0  0  0
   -7.7368   17.2761   24.9043 C   0  0  0  0  0  0  0  0  0  0  0  0
   -8.0937   19.5934   24.3453 O   0  0  0  0  0  0  0  0  0  0  0  0
   -4.9874   21.5649   21.3915 C   0  0  0  0  0  0  0  0  0  0  0  0
   -2.6381   20.7553   21.2196 C   0  0  0  0  0  0  0  0  0  0  0  0
   -1.6287   20.0257   22.0054 C   0  0  0  0  0  0  0  0  0  0  0  0
   -9.2314   17.2165   24.8874 C   0  0  0  0  0  0  0  0  0  0  0  0
   -9.8385   16.6252   26.0632 C   0  0  0  0  0  0  0  0  0  0  0  0
  1  2  2  0
  2  3  1  0
  1  4  1  0
  2  5  1  0
  5  6  2  0
  5  7  1  0
  7  8  1  0
  4  9  2  0
  6  9  1  0
  9 10  1  0
 10 11  1  0
 10 12  2  0
  7 13  1  0
  7 14  1  0
  3 15  1  0
 14 15  1  0
 11 16  1  0
 16 17  1  0
M  END
>  <ID>  (1) 
conformer_0

$$$$
