
     RDKit          3D

 18 20  0  0  0  0  0  0  0  0999 V2000
   -2.0695   19.1054   22.9845 C   0  0  0  0  0  0  0  0  0  0  0  0
   -2.0544   20.1406   22.2426 C   0  0  0  0  0  0  0  0  0  0  0  0
   -3.2523   18.6707   23.6312 C   0  0  0  0  0  0  0  0  0  0  0  0
   -3.2834   17.5111   24.4374 O   0  0  0  0  0  0  0  0  0  0  0  0
   -4.5986   16.9272   24.6094 C   0  0  0  0  0  0  0  0  0  0  0  0
   -4.3771   19.4101   23.4153 C   0  0  0  0  0  0  0  0  0  0  0  0
   -4.8220   15.8771   25.2585 C   0  0  0  0  0  0  0  0  0  0  0  0
   -5.6833   17.8782   24.6544 C   0  0  0  0  0  0  0  0  0  0  0  0
   -5.5680   18.9517   23.9758 C   0  0  0  0  0  0  0  0  0  0  0  0
   -6.8486   19.7828   23.8820 C   0  0  0  0  0  0  0  0  0  0  0  0
   -4.2805   20.6336   22.6142 C   0  0  0  0  0  0  0  0  0  0  0  0
   -7.0846   20.5450   24.9529 O   0  0  0  0  0  0  0  0  0  0  0  0
   -3.1230   20.9983   22.0613 C   0  0  0  0  0  0  0  0  0  0  0  0
   -6.7686   17.0632   25.2133 C   0  0  0  0  0  0  0  0  0  0  0  0
   -6.1387   15.7749   25.5283 C   0  0  0  0  0  0  0  0  0  0  0  0
   -8.1099   17.3242   25.3992 C   0  0  0  0  0  0  0  0  0  0  0  0
   -9.0478   17.1195   24.4632 C   0  0  0  0  0  0  0  0  0  0  0  0
   -2.8624   22.2691   21.3129 C   0  0  0  0  0  0  0  0  0  0  0  0
  1  2  1  0
  1  3  2  0
  3  4  1  0
  4  5  1  0
  3  6  1  0
  5  7  1  0
  5  8  2  0
  6  9  2  0
  8  9  1  0
  9 10  1  0
  6 11  1  0
 10 12  1  0
  2 13  2  0
 11 13  1  0
  8 14  1  0
  7 15  2  0
 14 15  2  0
 14 16  1  0
 16 17  1  0
 13 18  1  0
M  END
>  <ID>  (1) 
conformer_0

$$$$
