
     RDKit          3D

 17 19  0  0  0  0  0  0  0  0999 V2000
   -4.8244   16.8047   25.1359 C   0  0  0  0  0  0  0  0  0  0  0  0
   -6.0826   17.1891   25.1886 C   0  0  0  0  0  0  0  0  0  0  0  0
   -3.8841   17.6227   24.5115 C   0  0  0  0  0  0  0  0  0  0  0  0
   -4.2231   18.8994   24.1272 C   0  0  0  0  0  0  0  0  0  0  0  0
   -5.5454   19.3047   24.3514 C   0  0  0  0  0  0  0  0  0  0  0  0
   -5.9722   20.6583   23.9645 C   0  0  0  0  0  0  0  0  0  0  0  0
   -5.1487   21.5137   23.6747 C   0  0  0  0  0  0  0  0  0  0  0  0
   -3.2009   19.7856   23.5834 C   0  0  0  0  0  0  0  0  0  0  0  0
   -6.7802   21.1296   25.1287 C   0  0  0  0  0  0  0  0  0  0  0  0
   -3.9029   20.9313   22.8153 N   0  0  0  0  0  0  0  0  0  0  0  0
   -6.3964   18.2639   24.8414 C   0  0  0  0  0  0  0  0  0  0  0  0
   -3.4985   21.4538   21.6733 C   0  0  0  0  0  0  0  0  0  0  0  0
   -7.8602   18.7296   25.0172 C   0  0  0  0  0  0  0  0  0  0  0  0
   -7.8886   20.1037   25.6057 C   0  0  0  0  0  0  0  0  0  0  0  0
   -4.2403   20.9882   20.5755 C   0  0  0  0  0  0  0  0  0  0  0  0
   -6.9594   16.1905   25.7471 O   0  0  0  0  0  0  0  0  0  0  0  0
   -2.5769   22.3429   21.6120 O   0  0  0  0  0  0  0  0  0  0  0  0
  1  2  1  0
  1  3  2  0
  3  4  1  0
  4  5  2  0
  5  6  1  0
  6  7  1  0
  4  8  1  0
  6  9  1  0
  7 10  1  0
  8 10  1  0
  2 11  2  0
  5 11  1  0
 10 12  1  0
 11 13  1  0
  9 14  1  0
 13 14  1  0
 12 15  1  0
  2 16  1  0
 12 17  2  0
M  END
>  <ID>  (1) 
conformer_0

$$$$
