
     RDKit          3D

 18 20  0  0  0  0  0  0  0  0999 V2000
   -2.1717   19.7415   22.2227 C   0  0  0  0  0  0  0  0  0  0  0  0
   -2.1501   20.9532   21.6552 C   0  0  0  0  0  0  0  0  0  0  0  0
   -3.1303   19.2877   22.7846 C   0  0  0  0  0  0  0  0  0  0  0  0
   -3.1037   18.0361   23.5303 C   0  0  0  0  0  0  0  0  0  0  0  0
   -4.2820   17.7778   24.4346 C   0  0  0  0  0  0  0  0  0  0  0  0
   -4.3431   20.1667   22.9054 C   0  0  0  0  0  0  0  0  0  0  0  0
   -5.3710   18.6651   24.3514 C   0  0  0  0  0  0  0  0  0  0  0  0
   -3.1521   21.6963   21.7176 C   0  0  0  0  0  0  0  0  0  0  0  0
   -4.5391   16.4752   24.9504 C   0  0  0  0  0  0  0  0  0  0  0  0
   -5.6202   16.2067   25.6078 C   0  0  0  0  0  0  0  0  0  0  0  0
   -6.5079   18.4472   25.2482 C   0  0  0  0  0  0  0  0  0  0  0  0
   -6.6096   17.1690   25.8461 C   0  0  0  0  0  0  0  0  0  0  0  0
   -7.8828   16.8675   26.6828 O   0  0  0  0  0  0  0  0  0  0  0  0
   -5.5010   19.9397   23.7095 C   0  0  0  0  0  0  0  0  0  0  0  0
   -5.6504   21.1100   24.5928 C   0  0  0  0  0  0  0  0  0  0  0  0
   -6.5871   20.0858   22.7049 C   0  0  0  0  0  0  0  0  0  0  0  0
   -4.3200   21.4210   22.3449 C   0  0  0  0  0  0  0  0  0  0  0  0
   -9.0067   17.1355   25.9066 C   0  0  0  0  0  0  0  0  0  0  0  0
  1  2  1  0
  1  3  2  0
  3  4  1  0
  4  5  1  0
  3  6  1  0
  5  7  2  0
  2  8  2  0
  5  9  1  0
  9 10  2  0
  7 11  1  0
 10 12  1  0
 11 12  2  0
 12 13  1  0
  6 14  1  0
  7 14  1  0
 14 15  1  0
 14 16  1  0
  6 17  2  0
  8 17  1  0
 13 18  1  0
M  END
>  <ID>  (1) 
conformer_0

$$$$
