
     RDKit          3D

 20 23  0  0  0  0  0  0  0  0999 V2000
   -2.4469   18.7788   23.6209 C   0  0  0  0  0  0  0  0  0  0  0  0
   -2.2024   19.6298   22.6536 C   0  0  0  0  0  0  0  0  0  0  0  0
   -3.7174   18.6629   24.0374 C   0  0  0  0  0  0  0  0  0  0  0  0
   -4.7164   19.4432   23.5364 C   0  0  0  0  0  0  0  0  0  0  0  0
   -3.1541   20.4780   22.1216 C   0  0  0  0  0  0  0  0  0  0  0  0
   -4.0928   17.5882   25.1504 C   0  0  0  0  0  0  0  0  0  0  0  0
   -2.7925   21.4410   21.0241 C   0  0  0  0  0  0  0  0  0  0  0  0
   -5.5098   17.3794   25.3832 C   0  0  0  0  0  0  0  0  0  0  0  0
   -6.1098   19.2937   24.0594 C   0  0  0  0  0  0  0  0  0  0  0  0
   -6.4666   18.2529   24.8456 C   0  0  0  0  0  0  0  0  0  0  0  0
   -7.1464   20.1258   23.3987 C   0  0  0  0  0  0  0  0  0  0  0  0
   -3.8651   22.0328   20.4970 C   0  0  0  0  0  0  0  0  0  0  0  0
   -4.4826   20.4324   22.5751 C   0  0  0  0  0  0  0  0  0  0  0  0
   -7.8041   18.0117   25.3724 C   0  0  0  0  0  0  0  0  0  0  0  0
   -8.2116   16.7040   25.5919 C   0  0  0  0  0  0  0  0  0  0  0  0
   -5.2349   21.7408   21.2095 C   0  0  0  0  0  0  0  0  0  0  0  0
   -5.4425   21.0490   22.0446 C   0  0  0  0  0  0  0  0  0  0  0  0
   -6.8322   21.0089   22.3730 C   0  0  0  0  0  0  0  0  0  0  0  0
   -9.4802   16.4507   25.7098 C   0  0  0  0  0  0  0  0  0  0  0  0
  -10.0030   15.1428   26.0476 C   0  0  0  0  0  0  0  0  0  0  0  0
  1  2  1  0
  1  3  2  0
  3  4  1  0
  2  5  2  0
  3  6  1  0
  5  7  1  0
  6  8  2  0
  4  9  1  0
  8 10  1  0
  9 10  2  0
  9 11  1  0
  7 12  2  0
  4 13  2  0
  5 13  1  0
 10 14  1  0
 14 15  1  0
 12 16  1  0
 13 17  1  0
 16 17  2  0
 11 18  2  0
 17 18  1  0
 15 19  2  3
 19 20  1  0
M  END
>  <ID>  (1) 
conformer_0

$$$$
