
     RDKit          3D

 20 23  0  0  0  0  0  0  0  0999 V2000
   -2.0695   19.1054   22.9845 C   0  0  0  0  0  0  0  0  0  0  0  0
   -2.0544   20.1406   22.2426 C   0  0  0  0  0  0  0  0  0  0  0  0
   -3.2523   18.6707   23.6312 C   0  0  0  0  0  0  0  0  0  0  0  0
   -3.2834   17.5111   24.4374 O   0  0  0  0  0  0  0  0  0  0  0  0
   -4.5986   16.9272   24.6094 C   0  0  0  0  0  0  0  0  0  0  0  0
   -4.3771   19.4101   23.4153 C   0  0  0  0  0  0  0  0  0  0  0  0
   -4.8220   15.8771   25.2585 C   0  0  0  0  0  0  0  0  0  0  0  0
   -5.6833   17.8782   24.6544 C   0  0  0  0  0  0  0  0  0  0  0  0
   -5.5680   18.9517   23.9758 C   0  0  0  0  0  0  0  0  0  0  0  0
   -6.8486   19.7828   23.8820 C   0  0  0  0  0  0  0  0  0  0  0  0
   -4.2805   20.6336   22.6142 C   0  0  0  0  0  0  0  0  0  0  0  0
   -5.5512   21.4765   22.4132 C   0  0  0  0  0  0  0  0  0  0  0  0
   -3.1434   20.9981   22.0629 C   0  0  0  0  0  0  0  0  0  0  0  0
   -2.9028   22.2905   21.3100 C   0  0  0  0  0  0  0  0  0  0  0  0
   -6.2150   15.8586   25.5752 C   0  0  0  0  0  0  0  0  0  0  0  0
   -6.5945   20.9419   23.1594 N   0  0  0  0  0  0  0  0  0  0  0  0
   -5.6876   22.3533   21.6420 O   0  0  0  0  0  0  0  0  0  0  0  0
   -6.9599   17.0360   25.4064 C   0  0  0  0  0  0  0  0  0  0  0  0
   -8.0776   16.8240   24.5076 C   0  0  0  0  0  0  0  0  0  0  0  0
   -9.3319   17.0070   25.2397 C   0  0  0  0  0  0  0  0  0  0  0  0
  1  2  1  0
  1  3  2  0
  3  4  1  0
  4  5  1  0
  3  6  1  0
  5  7  1  0
  5  8  2  0
  6  9  2  0
  8  9  1  0
  9 10  1  0
  6 11  1  0
 11 12  1  0
  2 13  2  0
 11 13  1  0
 13 14  1  0
  7 15  2  0
 10 16  2  0
 12 16  1  0
 12 17  2  0
  8 18  1  0
 15 18  1  0
 18 19  1  0
 19 20  1  0
M  END
>  <ID>  (1) 
conformer_0

$$$$
