
     RDKit          3D

 19 22  0  0  0  0  0  0  0  0999 V2000
   -2.0695   19.1054   22.9845 C   0  0  0  0  0  0  0  0  0  0  0  0
   -2.0544   20.1406   22.2426 C   0  0  0  0  0  0  0  0  0  0  0  0
   -3.2523   18.6707   23.6312 C   0  0  0  0  0  0  0  0  0  0  0  0
   -3.2834   17.5111   24.4374 O   0  0  0  0  0  0  0  0  0  0  0  0
   -4.5986   16.9272   24.6094 C   0  0  0  0  0  0  0  0  0  0  0  0
   -4.3771   19.4101   23.4153 C   0  0  0  0  0  0  0  0  0  0  0  0
   -4.8220   15.8771   25.2585 C   0  0  0  0  0  0  0  0  0  0  0  0
   -5.6833   17.8782   24.6544 C   0  0  0  0  0  0  0  0  0  0  0  0
   -5.5618   19.1306   23.9940 C   0  0  0  0  0  0  0  0  0  0  0  0
   -3.1463   20.9877   22.0610 C   0  0  0  0  0  0  0  0  0  0  0  0
   -6.1025   15.5547   25.7189 C   0  0  0  0  0  0  0  0  0  0  0  0
   -6.7289   19.9220   23.8994 N   0  0  0  0  0  0  0  0  0  0  0  0
   -6.9685   17.4588   25.2021 C   0  0  0  0  0  0  0  0  0  0  0  0
   -8.1052   18.4156   25.0783 C   0  0  0  0  0  0  0  0  0  0  0  0
   -9.1382   18.1700   25.6237 O   0  0  0  0  0  0  0  0  0  0  0  0
   -7.1339   16.2581   25.7420 C   0  0  0  0  0  0  0  0  0  0  0  0
   -7.8126   19.7186   24.7548 N   0  0  0  0  0  0  0  0  0  0  0  0
   -4.2771   20.5855   22.6484 C   0  0  0  0  0  0  0  0  0  0  0  0
   -2.9658   22.3420   21.2022 Cl  0  0  0  0  0  0  0  0  0  0  0  0
  1  2  1  0
  1  3  2  0
  3  4  1  0
  4  5  1  0
  3  6  1  0
  5  7  1  0
  5  8  2  0
  6  9  2  0
  8  9  1  0
  2 10  2  0
  7 11  2  0
  9 12  1  0
  8 13  1  0
 13 14  1  0
 14 15  2  0
 11 16  1  0
 13 16  2  0
 12 17  1  0
 14 17  1  0
  6 18  1  0
 10 18  1  0
 10 19  1  0
M  END
>  <ID>  (1) 
conformer_0

$$$$
