
     RDKit          3D

 20 23  0  0  0  0  0  0  0  0999 V2000
   -4.8244   16.8047   25.1359 C   0  0  0  0  0  0  0  0  0  0  0  0
   -4.2233   17.7589   24.6747 C   0  0  0  0  0  0  0  0  0  0  0  0
   -4.6146   18.7379   24.0935 C   0  0  0  0  0  0  0  0  0  0  0  0
   -6.0600   18.8898   23.9466 C   0  0  0  0  0  0  0  0  0  0  0  0
   -6.8498   17.8268   24.4993 C   0  0  0  0  0  0  0  0  0  0  0  0
   -6.2105   16.7619   25.0997 C   0  0  0  0  0  0  0  0  0  0  0  0
   -6.7257   20.0295   23.3528 C   0  0  0  0  0  0  0  0  0  0  0  0
   -3.8706   19.8731   23.4763 C   0  0  0  0  0  0  0  0  0  0  0  0
   -2.7271   19.5655   22.7050 C   0  0  0  0  0  0  0  0  0  0  0  0
   -4.5967   20.8554   22.5565 C   0  0  0  0  0  0  0  0  0  0  0  0
   -8.3000   17.7200   24.4975 C   0  0  0  0  0  0  0  0  0  0  0  0
   -5.7991   21.2807   23.4388 C   0  0  0  0  0  0  0  0  0  0  0  0
   -8.9033   16.9309   23.6773 C   0  0  0  0  0  0  0  0  0  0  0  0
   -3.7516   22.0437   22.0643 C   0  0  0  0  0  0  0  0  0  0  0  0
   -8.8280   17.5899   25.8923 C   0  0  0  0  0  0  0  0  0  0  0  0
   -1.8467   20.6533   22.2738 C   0  0  0  0  0  0  0  0  0  0  0  0
   -4.9573   20.3494   21.2876 C   0  0  0  0  0  0  0  0  0  0  0  0
   -2.5397   21.7665   21.9672 C   0  0  0  0  0  0  0  0  0  0  0  0
   -8.0367   16.6357   26.6075 C   0  0  0  0  0  0  0  0  0  0  0  0
   -7.0240   15.8296   25.8710 O   0  0  0  0  0  0  0  0  0  0  0  0
  1  2  2  0
  2  3  1  0
  3  4  2  0
  4  5  1  0
  1  6  1  0
  5  6  2  0
  4  7  1  0
  3  8  1  0
  8  9  1  0
  8 10  1  0
  5 11  1  0
  7 12  1  0
 10 12  1  0
 11 13  1  0
 10 14  1  0
 11 15  1  0
  9 16  1  0
 10 17  1  0
 14 18  1  0
 16 18  1  0
 15 19  1  0
  6 20  1  0
 19 20  1  0
M  END
>  <ID>  (1) 
conformer_0

$$$$
