
     RDKit          3D

 20 23  0  0  0  0  0  0  0  0999 V2000
   -2.8386   18.0058   23.9657 C   0  0  0  0  0  0  0  0  0  0  0  0
   -4.0867   18.4070   23.8039 C   0  0  0  0  0  0  0  0  0  0  0  0
   -4.5223   19.4559   23.1837 C   0  0  0  0  0  0  0  0  0  0  0  0
   -3.4400   20.2618   22.5162 C   0  0  0  0  0  0  0  0  0  0  0  0
   -5.9426   19.8938   22.9864 C   0  0  0  0  0  0  0  0  0  0  0  0
   -5.1225   17.6669   24.7259 C   0  0  0  0  0  0  0  0  0  0  0  0
   -6.1621   21.1860   23.0699 C   0  0  0  0  0  0  0  0  0  0  0  0
   -3.7433   21.4331   21.5964 C   0  0  0  0  0  0  0  0  0  0  0  0
   -6.4506   18.2019   24.6733 C   0  0  0  0  0  0  0  0  0  0  0  0
   -2.1182   19.8925   22.5528 C   0  0  0  0  0  0  0  0  0  0  0  0
   -3.7997   21.0843   20.2413 C   0  0  0  0  0  0  0  0  0  0  0  0
   -1.8258   18.7667   23.3424 C   0  0  0  0  0  0  0  0  0  0  0  0
   -6.8722   19.2326   24.0112 C   0  0  0  0  0  0  0  0  0  0  0  0
   -8.0730   19.5823   24.0738 N   0  0  0  0  0  0  0  0  0  0  0  0
   -8.8478   18.9658   24.9560 C   0  0  0  0  0  0  0  0  0  0  0  0
   -7.2686   17.5144   25.6289 C   0  0  0  0  0  0  0  0  0  0  0  0
   -4.9820   22.1694   22.1902 C   0  0  0  0  0  0  0  0  0  0  0  0
   -2.7730   22.5738   21.5555 C   0  0  0  0  0  0  0  0  0  0  0  0
   -6.7755   16.3715   26.3996 C   0  0  0  0  0  0  0  0  0  0  0  0
   -8.4827   17.8994   25.7080 C   0  0  0  0  0  0  0  0  0  0  0  0
  1  2  1  0
  2  3  2  0
  3  4  1  0
  3  5  1  0
  2  6  1  0
  5  7  1  0
  4  8  1  0
  6  9  2  0
  4 10  2  0
  8 11  1  0
  1 12  2  0
 10 12  1  0
  5 13  1  0
  9 13  1  0
 13 14  2  0
 14 15  1  0
  9 16  1  0
  7 17  1  0
  8 17  1  0
  8 18  1  0
 16 19  1  0
 15 20  2  0
 16 20  2  0
M  END
>  <ID>  (1) 
conformer_0

$$$$
