
     RDKit          3D

 18 20  0  0  0  0  0  0  0  0999 V2000
   -3.8443   17.6275   24.6634 C   0  0  0  0  0  0  0  0  0  0  0  0
   -3.4288   18.5518   23.9886 C   0  0  0  0  0  0  0  0  0  0  0  0
   -5.1783   17.4392   25.0466 C   0  0  0  0  0  0  0  0  0  0  0  0
   -2.0518   18.6960   23.5197 C   0  0  0  0  0  0  0  0  0  0  0  0
   -1.8002   19.8486   22.5959 C   0  0  0  0  0  0  0  0  0  0  0  0
   -4.2457   19.8190   23.8985 C   0  0  0  0  0  0  0  0  0  0  0  0
   -4.3342   20.4586   22.6282 C   0  0  0  0  0  0  0  0  0  0  0  0
   -5.6695   16.2857   25.7846 O   0  0  0  0  0  0  0  0  0  0  0  0
   -5.5387   19.5668   24.5550 C   0  0  0  0  0  0  0  0  0  0  0  0
   -6.5168   20.7334   24.4317 C   0  0  0  0  0  0  0  0  0  0  0  0
   -6.0037   18.5033   25.0473 C   0  0  0  0  0  0  0  0  0  0  0  0
   -7.3291   18.3353   25.6072 C   0  0  0  0  0  0  0  0  0  0  0  0
   -2.8404   20.7194   22.1458 C   0  0  0  0  0  0  0  0  0  0  0  0
   -5.1094   20.0768   21.4926 C   0  0  0  0  0  0  0  0  0  0  0  0
   -6.9760   16.3808   25.8209 C   0  0  0  0  0  0  0  0  0  0  0  0
   -2.5582   21.7482   21.3371 O   0  0  0  0  0  0  0  0  0  0  0  0
   -7.7365   17.2651   25.9824 C   0  0  0  0  0  0  0  0  0  0  0  0
   -9.0426   16.9108   26.3132 O   0  0  0  0  0  0  0  0  0  0  0  0
  1  2  1  0
  1  3  2  0
  2  4  1  0
  4  5  2  0
  2  6  2  0
  6  7  1  0
  3  8  1  0
  6  9  1  0
  9 10  1  0
  3 11  1  0
  9 11  2  0
 11 12  1  0
  5 13  1  0
  7 13  1  0
  7 14  1  0
  8 15  1  0
 13 16  2  0
 12 17  1  0
 15 17  1  0
 17 18  2  0
M  END
>  <ID>  (1) 
conformer_0

$$$$
