
     RDKit          3D

 20 24  0  0  0  0  0  0  0  0999 V2000
   -3.8443   17.6275   24.6634 C   0  0  0  0  0  0  0  0  0  0  0  0
   -3.4288   18.5518   23.9886 C   0  0  0  0  0  0  0  0  0  0  0  0
   -5.1783   17.4392   25.0466 C   0  0  0  0  0  0  0  0  0  0  0  0
   -2.0518   18.6960   23.5197 C   0  0  0  0  0  0  0  0  0  0  0  0
   -1.8002   19.8486   22.5959 C   0  0  0  0  0  0  0  0  0  0  0  0
   -4.2457   19.8190   23.8985 C   0  0  0  0  0  0  0  0  0  0  0  0
   -4.3342   20.4586   22.6282 C   0  0  0  0  0  0  0  0  0  0  0  0
   -5.6695   16.2857   25.7846 O   0  0  0  0  0  0  0  0  0  0  0  0
   -5.5387   19.5668   24.5550 C   0  0  0  0  0  0  0  0  0  0  0  0
   -5.2463   21.5145   22.4206 C   0  0  0  0  0  0  0  0  0  0  0  0
   -6.4995   20.7615   24.4772 C   0  0  0  0  0  0  0  0  0  0  0  0
   -5.1903   22.0217   21.0875 C   0  0  0  0  0  0  0  0  0  0  0  0
   -7.0387   16.4825   26.0880 C   0  0  0  0  0  0  0  0  0  0  0  0
   -6.0573   18.5655   24.9517 C   0  0  0  0  0  0  0  0  0  0  0  0
   -4.3953   21.3381   20.1888 C   0  0  0  0  0  0  0  0  0  0  0  0
   -2.7888   20.7705   22.1169 C   0  0  0  0  0  0  0  0  0  0  0  0
   -7.3322   18.1324   25.5463 C   0  0  0  0  0  0  0  0  0  0  0  0
   -7.7731   15.8582   26.5831 O   0  0  0  0  0  0  0  0  0  0  0  0
   -6.6236   21.0486   22.8732 C   0  0  0  0  0  0  0  0  0  0  0  0
   -2.8725   21.2546   20.8035 C   0  0  0  0  0  0  0  0  0  0  0  0
  1  2  1  0
  1  3  2  0
  2  4  1  0
  4  5  2  0
  2  6  2  0
  6  7  1  0
  3  8  1  0
  6  9  1  0
  7 10  1  0
  9 11  1  0
 10 12  1  0
  8 13  1  0
  3 14  1  0
  9 14  2  0
 12 15  1  0
  5 16  1  0
  7 16  1  0
 13 17  1  0
 14 17  1  0
 13 18  2  0
 10 19  1  0
 11 19  1  0
 15 20  1  0
 16 20  1  0
M  END
>  <ID>  (1) 
conformer_0

$$$$
