
     RDKit          3D

 20 24  0  0  0  0  0  0  0  0999 V2000
   -4.8244   16.8047   25.1359 C   0  0  0  0  0  0  0  0  0  0  0  0
   -6.0826   17.1891   25.1886 C   0  0  0  0  0  0  0  0  0  0  0  0
   -3.8841   17.6227   24.5115 C   0  0  0  0  0  0  0  0  0  0  0  0
   -4.2231   18.8994   24.1272 C   0  0  0  0  0  0  0  0  0  0  0  0
   -5.5454   19.3047   24.3514 C   0  0  0  0  0  0  0  0  0  0  0  0
   -5.9722   20.6583   23.9645 C   0  0  0  0  0  0  0  0  0  0  0  0
   -5.1487   21.5137   23.6747 C   0  0  0  0  0  0  0  0  0  0  0  0
   -3.2009   19.7856   23.5834 C   0  0  0  0  0  0  0  0  0  0  0  0
   -6.5054   18.4275   24.9236 C   0  0  0  0  0  0  0  0  0  0  0  0
   -2.2590   19.1975   22.7138 C   0  0  0  0  0  0  0  0  0  0  0  0
   -5.6027   22.5533   22.7068 C   0  0  0  0  0  0  0  0  0  0  0  0
   -5.0441   22.2409   21.2935 C   0  0  0  0  0  0  0  0  0  0  0  0
   -3.8342   21.0004   22.9157 N   0  0  0  0  0  0  0  0  0  0  0  0
   -3.6213   21.5633   21.7302 C   0  0  0  0  0  0  0  0  0  0  0  0
   -1.8084   20.1685   21.5472 C   0  0  0  0  0  0  0  0  0  0  0  0
   -7.8798   18.7624   25.2054 C   0  0  0  0  0  0  0  0  0  0  0  0
   -8.7278   17.5854   25.5493 C   0  0  0  0  0  0  0  0  0  0  0  0
   -2.7928   21.0646   20.8661 C   0  0  0  0  0  0  0  0  0  0  0  0
   -7.0682   16.2128   25.8442 C   0  0  0  0  0  0  0  0  0  0  0  0
   -8.0985   16.8383   26.5164 N   0  0  0  0  0  0  0  0  0  0  0  0
  1  2  1  0
  1  3  2  0
  3  4  1  0
  4  5  2  0
  5  6  1  0
  6  7  1  0
  4  8  1  0
  2  9  2  0
  5  9  1  0
  8 10  1  0
  7 11  1  0
 11 12  1  0
  7 13  1  0
  8 13  1  0
 12 14  1  0
 13 14  1  0
 10 15  1  0
  9 16  1  0
 16 17  1  0
 14 18  1  0
 15 18  1  0
  2 19  1  0
 17 20  1  0
 19 20  1  0
M  END
>  <ID>  (1) 
conformer_0

$$$$
