
     RDKit          3D

 19 21  0  0  0  0  0  0  0  0999 V2000
   -2.8386   18.0058   23.9657 C   0  0  0  0  0  0  0  0  0  0  0  0
   -2.5023   18.9376   23.1232 C   0  0  0  0  0  0  0  0  0  0  0  0
   -4.2114   17.7730   24.0882 C   0  0  0  0  0  0  0  0  0  0  0  0
   -5.1137   18.5960   23.4959 C   0  0  0  0  0  0  0  0  0  0  0  0
   -4.7344   16.7422   25.0881 C   0  0  0  0  0  0  0  0  0  0  0  0
   -3.2983   19.7484   22.4117 C   0  0  0  0  0  0  0  0  0  0  0  0
   -4.6578   19.5839   22.6182 C   0  0  0  0  0  0  0  0  0  0  0  0
   -2.7730   20.7397   21.4037 C   0  0  0  0  0  0  0  0  0  0  0  0
   -6.0410   16.6032   24.9898 C   0  0  0  0  0  0  0  0  0  0  0  0
   -3.8533   21.5035   20.7924 C   0  0  0  0  0  0  0  0  0  0  0  0
   -5.1335   21.3182   21.6817 C   0  0  0  0  0  0  0  0  0  0  0  0
   -7.0153   17.4158   24.5209 C   0  0  0  0  0  0  0  0  0  0  0  0
   -6.3612   18.4768   23.7867 C   0  0  0  0  0  0  0  0  0  0  0  0
   -4.2067   20.7613   19.5828 C   0  0  0  0  0  0  0  0  0  0  0  0
   -8.4001   17.1734   24.6387 C   0  0  0  0  0  0  0  0  0  0  0  0
   -9.0586   17.7798   23.8130 O   0  0  0  0  0  0  0  0  0  0  0  0
   -5.5720   20.5741   22.2503 C   0  0  0  0  0  0  0  0  0  0  0  0
   -8.9655   16.2706   25.4320 O   0  0  0  0  0  0  0  0  0  0  0  0
   -3.4935   22.8835   20.6839 C   0  0  0  0  0  0  0  0  0  0  0  0
  1  2  1  0
  1  3  2  0
  3  4  1  0
  3  5  1  0
  2  6  2  0
  4  7  2  0
  6  7  1  0
  6  8  1  0
  5  9  2  0
  8 10  1  0
 10 11  1  0
  9 12  1  0
  4 13  1  0
 12 13  2  0
 10 14  1  0
 12 15  1  0
 15 16  2  0
  7 17  1  0
 11 17  2  0
 15 18  1  0
 10 19  1  0
M  END
>  <ID>  (1) 
conformer_0

$$$$
