
     RDKit          3D

 20 24  0  0  0  0  0  0  0  0999 V2000
   -4.8244   16.8047   25.1359 C   0  0  0  0  0  0  0  0  0  0  0  0
   -4.2233   17.7589   24.6747 C   0  0  0  0  0  0  0  0  0  0  0  0
   -6.2370   16.8917   25.1189 C   0  0  0  0  0  0  0  0  0  0  0  0
   -7.0900   15.8107   25.6880 O   0  0  0  0  0  0  0  0  0  0  0  0
   -2.7244   17.7604   24.3967 C   0  0  0  0  0  0  0  0  0  0  0  0
   -4.8275   18.9803   24.1538 C   0  0  0  0  0  0  0  0  0  0  0  0
   -4.0618   20.0758   23.5778 C   0  0  0  0  0  0  0  0  0  0  0  0
   -4.7174   21.1322   22.9240 C   0  0  0  0  0  0  0  0  0  0  0  0
   -2.8791   19.6675   22.7834 C   0  0  0  0  0  0  0  0  0  0  0  0
   -6.1145   19.0610   24.0975 C   0  0  0  0  0  0  0  0  0  0  0  0
   -5.9171   20.8836   22.4966 C   0  0  0  0  0  0  0  0  0  0  0  0
   -8.4194   16.0158   25.5360 C   0  0  0  0  0  0  0  0  0  0  0  0
   -6.9100   18.0229   24.6709 C   0  0  0  0  0  0  0  0  0  0  0  0
   -8.4056   18.1467   24.7275 C   0  0  0  0  0  0  0  0  0  0  0  0
   -1.9942   18.6856   23.5900 C   0  0  0  0  0  0  0  0  0  0  0  0
   -3.3182   19.4268   21.6149 C   0  0  0  0  0  0  0  0  0  0  0  0
   -1.9421   21.0089   22.7460 C   0  0  0  0  0  0  0  0  0  0  0  0
   -2.9376   22.0251   22.5332 C   0  0  0  0  0  0  0  0  0  0  0  0
   -6.7720   20.1793   23.4301 C   0  0  0  0  0  0  0  0  0  0  0  0
   -9.0400   16.8894   24.4550 C   0  0  0  0  0  0  0  0  0  0  0  0
  1  2  2  0
  1  3  1  0
  3  4  1  0
  2  5  1  0
  2  6  1  0
  6  7  1  0
  7  8  1  0
  7  9  1  0
  6 10  2  0
  8 11  1  0
  4 12  1  0
  3 13  2  0
 10 13  1  0
 13 14  1  0
  5 15  2  0
  9 15  1  0
  9 16  1  0
  9 17  1  0
  8 18  1  0
 17 18  1  0
 10 19  1  0
 11 19  1  0
 12 20  1  0
 14 20  1  0
M  END
>  <ID>  (1) 
conformer_0

$$$$
