
     RDKit          3D

 19 21  0  0  0  0  0  0  0  0999 V2000
   -4.8244   16.8047   25.1359 C   0  0  0  0  0  0  0  0  0  0  0  0
   -6.0826   17.1891   25.1886 C   0  0  0  0  0  0  0  0  0  0  0  0
   -3.8841   17.6227   24.5115 C   0  0  0  0  0  0  0  0  0  0  0  0
   -4.2231   18.8994   24.1272 C   0  0  0  0  0  0  0  0  0  0  0  0
   -5.5454   19.3047   24.3514 C   0  0  0  0  0  0  0  0  0  0  0  0
   -5.9722   20.6583   23.9645 C   0  0  0  0  0  0  0  0  0  0  0  0
   -5.1487   21.5137   23.6747 C   0  0  0  0  0  0  0  0  0  0  0  0
   -3.2398   19.7681   23.5579 C   0  0  0  0  0  0  0  0  0  0  0  0
   -7.0480   20.4605   23.0010 O   0  0  0  0  0  0  0  0  0  0  0  0
   -7.0646   16.2596   25.8802 O   0  0  0  0  0  0  0  0  0  0  0  0
   -5.5109   22.4809   22.7223 O   0  0  0  0  0  0  0  0  0  0  0  0
   -8.2735   16.0830   25.3420 C   0  0  0  0  0  0  0  0  0  0  0  0
   -3.9191   20.9907   22.8551 C   0  0  0  0  0  0  0  0  0  0  0  0
   -2.8581   22.0545   22.6181 C   0  0  0  0  0  0  0  0  0  0  0  0
   -2.4626   19.0828   22.4883 C   0  0  0  0  0  0  0  0  0  0  0  0
   -6.5119   18.4661   24.8875 C   0  0  0  0  0  0  0  0  0  0  0  0
   -4.0393   20.4409   21.6478 C   0  0  0  0  0  0  0  0  0  0  0  0
   -3.3322   19.1988   21.3478 C   0  0  0  0  0  0  0  0  0  0  0  0
   -9.2458   15.8486   26.3598 C   0  0  0  0  0  0  0  0  0  0  0  0
  1  2  1  0
  1  3  2  0
  3  4  1  0
  4  5  2  0
  5  6  1  0
  6  7  1  0
  4  8  1  0
  6  9  1  0
  2 10  1  0
  7 11  1  0
 10 12  1  0
  7 13  1  0
  8 13  1  0
 13 14  1  0
  8 15  1  0
  2 16  2  0
  5 16  1  0
 13 17  1  0
 15 18  1  0
 17 18  1  0
 12 19  1  0
M  END
>  <ID>  (1) 
conformer_0

$$$$
