
     RDKit          3D

  7  7  0  0  0  0  0  0  0  0999 V2000
   -1.9293   21.2346   22.0236 C   0  0  0  0  0  0  0  0  0  0  0  0
   -2.2482   20.1854   22.1993 C   0  0  0  0  0  0  0  0  0  0  0  0
   -2.9934   22.0761   21.3313 C   0  0  0  0  0  0  0  0  0  0  0  0
   -1.2937   19.2332   22.9388 F   0  0  0  0  0  0  0  0  0  0  0  0
   -3.2797   19.4624   22.0707 C   0  0  0  0  0  0  0  0  0  0  0  0
   -4.3926   20.1134   21.4720 C   0  0  0  0  0  0  0  0  0  0  0  0
   -4.2240   21.4587   21.1242 C   0  0  0  0  0  0  0  0  0  0  0  0
  1  2  1  0
  1  3  2  0
  2  4  1  0
  2  5  2  0
  5  6  1  0
  3  7  1  0
  6  7  2  0
M  END
>  <ID>  (1) 
conformer_0

$$$$
