
     RDKit          3D

 19 21  0  0  0  0  0  0  0  0999 V2000
   -2.4469   18.7788   23.6209 C   0  0  0  0  0  0  0  0  0  0  0  0
   -2.2024   19.6298   22.6536 C   0  0  0  0  0  0  0  0  0  0  0  0
   -3.7174   18.6629   24.0374 C   0  0  0  0  0  0  0  0  0  0  0  0
   -4.7164   19.4432   23.5364 C   0  0  0  0  0  0  0  0  0  0  0  0
   -3.1541   20.4780   22.1216 C   0  0  0  0  0  0  0  0  0  0  0  0
   -4.0928   17.5882   25.1504 C   0  0  0  0  0  0  0  0  0  0  0  0
   -2.7925   21.4410   21.0241 C   0  0  0  0  0  0  0  0  0  0  0  0
   -5.5098   17.3794   25.3832 C   0  0  0  0  0  0  0  0  0  0  0  0
   -6.1098   19.2937   24.0594 C   0  0  0  0  0  0  0  0  0  0  0  0
   -3.9045   21.9533   20.4255 C   0  0  0  0  0  0  0  0  0  0  0  0
   -4.4369   20.3703   22.5268 C   0  0  0  0  0  0  0  0  0  0  0  0
   -5.1877   21.9063   20.9283 C   0  0  0  0  0  0  0  0  0  0  0  0
   -5.8330   16.3852   26.2577 O   0  0  0  0  0  0  0  0  0  0  0  0
   -6.5243   18.1840   24.9432 C   0  0  0  0  0  0  0  0  0  0  0  0
   -7.6667   17.9304   25.4933 C   0  0  0  0  0  0  0  0  0  0  0  0
   -8.8599   17.7965   24.7410 C   0  0  0  0  0  0  0  0  0  0  0  0
   -7.9759   18.7991   26.6497 O   0  0  0  0  0  0  0  0  0  0  0  0
   -8.6640   16.9202   23.7615 O   0  0  0  0  0  0  0  0  0  0  0  0
   -5.4740   20.9908   22.0188 C   0  0  0  0  0  0  0  0  0  0  0  0
  1  2  1  0
  1  3  2  0
  3  4  1  0
  2  5  2  0
  3  6  1  0
  5  7  1  0
  6  8  2  0
  4  9  1  0
  7 10  2  0
  4 11  1  0
  5 11  1  0
 10 12  1  0
  8 13  1  0
  8 14  1  0
  9 14  2  0
 14 15  1  0
 15 16  1  0
 15 17  1  0
 16 18  1  0
 11 19  1  0
 12 19  2  0
M  END
>  <ID>  (1) 
conformer_0

$$$$
