
     RDKit          3D

 19 21  0  0  0  0  0  0  0  0999 V2000
   -2.8386   18.0058   23.9657 C   0  0  0  0  0  0  0  0  0  0  0  0
   -4.0867   18.4070   23.8039 C   0  0  0  0  0  0  0  0  0  0  0  0
   -4.5223   19.4559   23.1837 C   0  0  0  0  0  0  0  0  0  0  0  0
   -3.4400   20.2618   22.5162 C   0  0  0  0  0  0  0  0  0  0  0  0
   -5.9426   19.8938   22.9864 C   0  0  0  0  0  0  0  0  0  0  0  0
   -5.1225   17.6669   24.7259 C   0  0  0  0  0  0  0  0  0  0  0  0
   -6.1621   21.1860   23.0699 C   0  0  0  0  0  0  0  0  0  0  0  0
   -3.7433   21.4331   21.5964 C   0  0  0  0  0  0  0  0  0  0  0  0
   -6.4506   18.2019   24.6733 C   0  0  0  0  0  0  0  0  0  0  0  0
   -1.8898   18.7697   23.1495 C   0  0  0  0  0  0  0  0  0  0  0  0
   -5.1598   21.9919   22.5129 C   0  0  0  0  0  0  0  0  0  0  0  0
   -2.1838   19.8125   22.4729 C   0  0  0  0  0  0  0  0  0  0  0  0
   -7.4618   17.3729   25.4942 C   0  0  0  0  0  0  0  0  0  0  0  0
   -8.6507   17.2449   24.9398 C   0  0  0  0  0  0  0  0  0  0  0  0
   -6.9117   19.2758   23.9229 C   0  0  0  0  0  0  0  0  0  0  0  0
   -6.8923   15.9397   25.7680 C   0  0  0  0  0  0  0  0  0  0  0  0
   -4.3009   21.0466   20.2325 C   0  0  0  0  0  0  0  0  0  0  0  0
   -2.7873   22.4509   21.5477 C   0  0  0  0  0  0  0  0  0  0  0  0
   -7.6435   18.0460   26.8280 C   0  0  0  0  0  0  0  0  0  0  0  0
  1  2  1  0
  2  3  2  0
  3  4  1  0
  3  5  1  0
  2  6  1  0
  5  7  1  0
  4  8  1  0
  6  9  2  0
  1 10  2  0
  7 11  1  0
  8 11  1  0
  4 12  2  0
 10 12  1  0
  9 13  1  0
 13 14  1  0
  5 15  1  0
  9 15  1  0
 13 16  1  0
  8 17  1  0
  8 18  1  0
 13 19  1  0
M  END
>  <ID>  (1) 
conformer_0

$$$$
