
     RDKit          3D

 19 22  0  0  0  0  0  0  0  0999 V2000
   -4.8244   16.8047   25.1359 C   0  0  0  0  0  0  0  0  0  0  0  0
   -4.2233   17.7589   24.6747 C   0  0  0  0  0  0  0  0  0  0  0  0
   -6.2370   16.8917   25.1189 C   0  0  0  0  0  0  0  0  0  0  0  0
   -7.0900   15.8107   25.6880 O   0  0  0  0  0  0  0  0  0  0  0  0
   -2.7244   17.7604   24.3967 C   0  0  0  0  0  0  0  0  0  0  0  0
   -4.8275   18.9803   24.1538 C   0  0  0  0  0  0  0  0  0  0  0  0
   -4.0618   20.0758   23.5778 C   0  0  0  0  0  0  0  0  0  0  0  0
   -4.7174   21.1322   22.9240 C   0  0  0  0  0  0  0  0  0  0  0  0
   -2.8791   19.6675   22.7834 C   0  0  0  0  0  0  0  0  0  0  0  0
   -6.1145   19.0610   24.0975 C   0  0  0  0  0  0  0  0  0  0  0  0
   -5.9171   20.8836   22.4966 C   0  0  0  0  0  0  0  0  0  0  0  0
   -2.2131   18.9293   23.6910 C   0  0  0  0  0  0  0  0  0  0  0  0
   -3.3139   18.9158   21.6772 C   0  0  0  0  0  0  0  0  0  0  0  0
   -6.8595   18.0892   24.6757 C   0  0  0  0  0  0  0  0  0  0  0  0
   -3.7476   21.9174   22.1156 C   0  0  0  0  0  0  0  0  0  0  0  0
   -2.2074   20.9671   22.4138 C   0  0  0  0  0  0  0  0  0  0  0  0
   -3.7778   22.5496   21.1296 O   0  0  0  0  0  0  0  0  0  0  0  0
   -6.8708   20.1461   23.3904 C   0  0  0  0  0  0  0  0  0  0  0  0
   -8.4216   16.0518   25.6444 C   0  0  0  0  0  0  0  0  0  0  0  0
  1  2  2  0
  1  3  1  0
  3  4  1  0
  2  5  1  0
  2  6  1  0
  6  7  1  0
  7  8  1  0
  7  9  1  0
  6 10  2  0
  8 11  1  0
  5 12  1  0
  9 12  1  0
  9 13  1  0
  3 14  2  0
 10 14  1  0
  8 15  1  0
  9 16  1  0
 15 16  1  0
 15 17  2  0
 10 18  1  0
 11 18  1  0
  4 19  1  0
M  END
>  <ID>  (1) 
conformer_0

$$$$
