
     RDKit          3D

 19 21  0  0  0  0  0  0  0  0999 V2000
   -4.8244   16.8047   25.1359 C   0  0  0  0  0  0  0  0  0  0  0  0
   -4.2233   17.7589   24.6747 C   0  0  0  0  0  0  0  0  0  0  0  0
   -4.8021   18.8468   24.2689 C   0  0  0  0  0  0  0  0  0  0  0  0
   -4.1530   20.0472   23.6828 C   0  0  0  0  0  0  0  0  0  0  0  0
   -4.5831   21.2424   23.8209 C   0  0  0  0  0  0  0  0  0  0  0  0
   -6.2181   16.8414   25.2922 C   0  0  0  0  0  0  0  0  0  0  0  0
   -6.2535   18.8880   24.5295 C   0  0  0  0  0  0  0  0  0  0  0  0
   -6.8749   17.9168   25.0518 C   0  0  0  0  0  0  0  0  0  0  0  0
   -8.2599   17.8484   25.3199 C   0  0  0  0  0  0  0  0  0  0  0  0
   -5.8466   21.5113   24.2691 C   0  0  0  0  0  0  0  0  0  0  0  0
   -3.8642   22.3531   23.0968 C   0  0  0  0  0  0  0  0  0  0  0  0
   -8.7558   17.7878   26.3767 O   0  0  0  0  0  0  0  0  0  0  0  0
   -2.6456   21.9866   22.4401 C   0  0  0  0  0  0  0  0  0  0  0  0
   -2.9452   19.7241   22.9168 C   0  0  0  0  0  0  0  0  0  0  0  0
   -6.6733   20.1671   24.3942 C   0  0  0  0  0  0  0  0  0  0  0  0
   -9.0544   17.6808   24.2548 O   0  0  0  0  0  0  0  0  0  0  0  0
   -1.9661   23.0257   21.8960 F   0  0  0  0  0  0  0  0  0  0  0  0
   -2.2029   20.6972   22.3649 C   0  0  0  0  0  0  0  0  0  0  0  0
   -6.7746   15.5716   25.7783 O   0  0  0  0  0  0  0  0  0  0  0  0
  1  2  1  0
  2  3  2  0
  3  4  1  0
  4  5  2  0
  1  6  2  0
  3  7  1  0
  6  8  1  0
  7  8  2  0
  8  9  1  0
  5 10  1  0
  5 11  1  0
  9 12  2  0
 11 13  2  0
  4 14  1  0
  7 15  1  0
 10 15  1  0
  9 16  1  0
 13 17  1  0
 13 18  1  0
 14 18  2  0
  6 19  1  0
M  END
>  <ID>  (1) 
conformer_0

$$$$
