
     RDKit          3D

 19 22  0  0  0  0  0  0  0  0999 V2000
   -4.8244   16.8047   25.1359 C   0  0  0  0  0  0  0  0  0  0  0  0
   -4.2233   17.7589   24.6747 C   0  0  0  0  0  0  0  0  0  0  0  0
   -6.2370   16.8917   25.1189 C   0  0  0  0  0  0  0  0  0  0  0  0
   -7.0900   15.8107   25.6880 O   0  0  0  0  0  0  0  0  0  0  0  0
   -2.7244   17.7604   24.3967 C   0  0  0  0  0  0  0  0  0  0  0  0
   -4.8275   18.9803   24.1538 C   0  0  0  0  0  0  0  0  0  0  0  0
   -4.0618   20.0758   23.5778 C   0  0  0  0  0  0  0  0  0  0  0  0
   -4.7174   21.1322   22.9240 C   0  0  0  0  0  0  0  0  0  0  0  0
   -2.8791   19.6675   22.7834 C   0  0  0  0  0  0  0  0  0  0  0  0
   -6.1145   19.0610   24.0975 C   0  0  0  0  0  0  0  0  0  0  0  0
   -4.2566   21.3743   21.5356 C   0  0  0  0  0  0  0  0  0  0  0  0
   -6.8527   20.2591   23.5293 C   0  0  0  0  0  0  0  0  0  0  0  0
   -4.5797   22.2727   23.6931 O   0  0  0  0  0  0  0  0  0  0  0  0
   -6.0873   20.9547   22.5668 C   0  0  0  0  0  0  0  0  0  0  0  0
   -2.2511   20.5769   22.0213 C   0  0  0  0  0  0  0  0  0  0  0  0
   -8.2627   16.1158   26.2186 C   0  0  0  0  0  0  0  0  0  0  0  0
   -2.7992   21.5780   21.3497 C   0  0  0  0  0  0  0  0  0  0  0  0
   -1.9940   18.7625   23.6951 C   0  0  0  0  0  0  0  0  0  0  0  0
   -6.9975   18.0410   24.6485 C   0  0  0  0  0  0  0  0  0  0  0  0
  1  2  2  0
  1  3  1  0
  3  4  1  0
  2  5  1  0
  2  6  1  0
  6  7  1  0
  7  8  1  0
  7  9  1  0
  6 10  2  0
  8 11  1  0
 10 12  1  0
  8 13  1  0
  8 14  1  0
 12 14  1  0
  9 15  1  0
  4 16  1  0
 11 17  1  0
 15 17  1  0
  5 18  1  0
  9 18  1  0
  3 19  2  0
 10 19  1  0
M  END
>  <ID>  (1) 
conformer_0

$$$$
