
     RDKit          3D

 18 19  0  0  0  0  0  0  0  0999 V2000
   -3.5733   17.8885   24.0663 C   0  0  0  0  0  0  0  0  0  0  0  0
   -3.2181   18.8386   23.4108 C   0  0  0  0  0  0  0  0  0  0  0  0
   -1.8383   19.0091   23.1294 C   0  0  0  0  0  0  0  0  0  0  0  0
   -5.0014   17.7008   24.5340 C   0  0  0  0  0  0  0  0  0  0  0  0
   -4.0952   19.8616   22.9975 C   0  0  0  0  0  0  0  0  0  0  0  0
   -5.4758   19.7183   23.3223 C   0  0  0  0  0  0  0  0  0  0  0  0
   -3.7697   21.0872   22.2333 C   0  0  0  0  0  0  0  0  0  0  0  0
   -3.4238   22.1782   23.0097 C   0  0  0  0  0  0  0  0  0  0  0  0
   -5.8856   18.6375   24.1156 C   0  0  0  0  0  0  0  0  0  0  0  0
   -7.3395   18.5481   24.5050 C   0  0  0  0  0  0  0  0  0  0  0  0
   -7.7368   17.2761   24.9043 C   0  0  0  0  0  0  0  0  0  0  0  0
   -9.1531   17.1199   24.7014 C   0  0  0  0  0  0  0  0  0  0  0  0
   -9.9576   17.2701   25.6355 O   0  0  0  0  0  0  0  0  0  0  0  0
   -9.5465   16.9530   23.4689 O   0  0  0  0  0  0  0  0  0  0  0  0
   -2.5948   20.6609   21.3166 C   0  0  0  0  0  0  0  0  0  0  0  0
   -1.6027   20.0752   22.2062 C   0  0  0  0  0  0  0  0  0  0  0  0
   -4.9865   21.5467   21.3583 C   0  0  0  0  0  0  0  0  0  0  0  0
   -7.3293   16.6952   26.1601 C   0  0  0  0  0  0  0  0  0  0  0  0
  1  2  2  0
  2  3  1  0
  1  4  1  0
  2  5  1  0
  5  6  2  0
  5  7  1  0
  7  8  1  0
  4  9  2  0
  6  9  1  0
  9 10  1  0
 10 11  1  0
 11 12  1  0
 12 13  2  0
 12 14  1  0
  7 15  1  0
  3 16  2  0
 15 16  1  0
  7 17  1  0
 11 18  1  0
M  END
>  <ID>  (1) 
conformer_0

$$$$
