
     RDKit          3D

 17 19  0  0  0  0  0  0  0  0999 V2000
   -4.8244   16.8047   25.1359 C   0  0  0  0  0  0  0  0  0  0  0  0
   -4.2233   17.7589   24.6747 C   0  0  0  0  0  0  0  0  0  0  0  0
   -6.2370   16.8917   25.1189 C   0  0  0  0  0  0  0  0  0  0  0  0
   -4.7153   18.9095   24.1824 C   0  0  0  0  0  0  0  0  0  0  0  0
   -7.0735   15.7908   25.6919 O   0  0  0  0  0  0  0  0  0  0  0  0
   -8.3336   16.0701   26.1442 C   0  0  0  0  0  0  0  0  0  0  0  0
   -3.8892   20.0139   23.6134 C   0  0  0  0  0  0  0  0  0  0  0  0
   -9.1565   16.5456   25.2000 C   0  0  0  0  0  0  0  0  0  0  0  0
   -6.9925   17.9654   24.6614 C   0  0  0  0  0  0  0  0  0  0  0  0
   -4.2638   21.1757   23.4927 C   0  0  0  0  0  0  0  0  0  0  0  0
  -10.3215   16.7152   25.3740 O   0  0  0  0  0  0  0  0  0  0  0  0
   -2.7668   19.5311   22.7126 C   0  0  0  0  0  0  0  0  0  0  0  0
   -6.1453   19.0197   24.1716 C   0  0  0  0  0  0  0  0  0  0  0  0
   -8.5196   17.9944   24.7504 C   0  0  0  0  0  0  0  0  0  0  0  0
   -1.9588   20.4426   22.0721 C   0  0  0  0  0  0  0  0  0  0  0  0
   -2.3739   21.8229   22.0061 C   0  0  0  0  0  0  0  0  0  0  0  0
   -3.4853   22.2152   22.5891 C   0  0  0  0  0  0  0  0  0  0  0  0
  1  2  2  0
  1  3  1  0
  2  4  1  0
  3  5  1  0
  5  6  1  0
  4  7  1  0
  6  8  1  0
  3  9  2  0
  7 10  2  0
  8 11  1  0
  7 12  1  0
  4 13  2  0
  9 13  1  0
  8 14  1  0
  9 14  1  0
 12 15  2  0
 15 16  1  0
 10 17  1  0
 16 17  2  0
M  END
>  <ID>  (1) 
conformer_0

$$$$
