
     RDKit          3D

 19 22  0  0  0  0  0  0  0  0999 V2000
   -4.8244   16.8047   25.1359 C   0  0  0  0  0  0  0  0  0  0  0  0
   -4.2233   17.7589   24.6747 C   0  0  0  0  0  0  0  0  0  0  0  0
   -6.2370   16.8917   25.1189 C   0  0  0  0  0  0  0  0  0  0  0  0
   -7.0900   15.8107   25.6880 O   0  0  0  0  0  0  0  0  0  0  0  0
   -2.7244   17.7604   24.3967 C   0  0  0  0  0  0  0  0  0  0  0  0
   -4.8275   18.9803   24.1538 C   0  0  0  0  0  0  0  0  0  0  0  0
   -4.0618   20.0758   23.5778 C   0  0  0  0  0  0  0  0  0  0  0  0
   -2.0803   18.6299   23.3821 C   0  0  0  0  0  0  0  0  0  0  0  0
   -8.3858   16.0791   26.0827 C   0  0  0  0  0  0  0  0  0  0  0  0
   -4.8243   21.1107   22.9042 C   0  0  0  0  0  0  0  0  0  0  0  0
   -2.6834   20.0080   23.5029 C   0  0  0  0  0  0  0  0  0  0  0  0
   -6.1299   18.9774   24.1600 C   0  0  0  0  0  0  0  0  0  0  0  0
   -6.1339   21.1741   22.7383 C   0  0  0  0  0  0  0  0  0  0  0  0
   -6.8892   17.9753   24.7265 C   0  0  0  0  0  0  0  0  0  0  0  0
   -1.9927   20.9406   22.5692 C   0  0  0  0  0  0  0  0  0  0  0  0
   -6.6818   22.1942   22.1098 O   0  0  0  0  0  0  0  0  0  0  0  0
   -6.9090   20.1766   23.4882 C   0  0  0  0  0  0  0  0  0  0  0  0
   -3.9734   22.2181   22.3096 C   0  0  0  0  0  0  0  0  0  0  0  0
   -2.5762   21.9860   22.1068 C   0  0  0  0  0  0  0  0  0  0  0  0
  1  2  2  0
  1  3  1  0
  3  4  1  0
  2  5  1  0
  2  6  1  0
  6  7  1  0
  5  8  1  0
  4  9  1  0
  7 10  2  0
  7 11  1  0
  8 11  1  0
  6 12  2  0
 10 13  1  0
  3 14  2  0
 12 14  1  0
 11 15  1  0
 13 16  1  0
 12 17  1  0
 13 17  2  0
 10 18  1  0
 15 19  1  0
 18 19  1  0
M  END
>  <ID>  (1) 
conformer_0

$$$$
