
     RDKit          3D

 18 21  0  0  0  0  0  0  0  0999 V2000
   -4.8244   16.8047   25.1359 C   0  0  0  0  0  0  0  0  0  0  0  0
   -4.2233   17.7589   24.6747 C   0  0  0  0  0  0  0  0  0  0  0  0
   -6.2370   16.8917   25.1189 C   0  0  0  0  0  0  0  0  0  0  0  0
   -7.0900   15.8107   25.6880 O   0  0  0  0  0  0  0  0  0  0  0  0
   -2.7244   17.7604   24.3967 C   0  0  0  0  0  0  0  0  0  0  0  0
   -4.8275   18.9803   24.1538 C   0  0  0  0  0  0  0  0  0  0  0  0
   -4.0618   20.0758   23.5778 C   0  0  0  0  0  0  0  0  0  0  0  0
   -2.0803   18.6299   23.3821 C   0  0  0  0  0  0  0  0  0  0  0  0
   -8.3858   16.0791   26.0827 C   0  0  0  0  0  0  0  0  0  0  0  0
   -4.8243   21.1107   22.9042 C   0  0  0  0  0  0  0  0  0  0  0  0
   -4.0512   22.2219   22.2744 C   0  0  0  0  0  0  0  0  0  0  0  0
   -2.8470   19.7674   22.9749 C   0  0  0  0  0  0  0  0  0  0  0  0
   -2.0883   20.7387   22.0892 C   0  0  0  0  0  0  0  0  0  0  0  0
   -6.1566   19.0260   24.2392 C   0  0  0  0  0  0  0  0  0  0  0  0
   -6.9718   20.2788   23.8063 C   0  0  0  0  0  0  0  0  0  0  0  0
   -6.9257   18.0188   24.7725 C   0  0  0  0  0  0  0  0  0  0  0  0
   -6.2518   21.2474   22.9782 C   0  0  0  0  0  0  0  0  0  0  0  0
   -2.7461   21.8564   21.7181 C   0  0  0  0  0  0  0  0  0  0  0  0
  1  2  2  0
  1  3  1  0
  3  4  1  0
  2  5  1  0
  2  6  1  0
  6  7  1  0
  5  8  1  0
  4  9  1  0
  7 10  2  0
 10 11  1  0
  7 12  1  0
  8 12  2  0
 12 13  1  0
  6 14  2  0
 14 15  1  0
  3 16  2  0
 14 16  1  0
 10 17  1  0
 15 17  1  0
 11 18  1  0
 13 18  1  0
M  END
>  <ID>  (1) 
conformer_0

$$$$
