
     RDKit          3D

 19 22  0  0  0  0  0  0  0  0999 V2000
   -4.8244   16.8047   25.1359 C   0  0  0  0  0  0  0  0  0  0  0  0
   -4.2233   17.7589   24.6747 C   0  0  0  0  0  0  0  0  0  0  0  0
   -6.2370   16.8917   25.1189 C   0  0  0  0  0  0  0  0  0  0  0  0
   -7.0900   15.8107   25.6880 O   0  0  0  0  0  0  0  0  0  0  0  0
   -2.7244   17.7604   24.3967 C   0  0  0  0  0  0  0  0  0  0  0  0
   -4.8275   18.9803   24.1538 C   0  0  0  0  0  0  0  0  0  0  0  0
   -4.0618   20.0758   23.5778 C   0  0  0  0  0  0  0  0  0  0  0  0
   -4.7174   21.1322   22.9240 C   0  0  0  0  0  0  0  0  0  0  0  0
   -2.8791   19.6675   22.7834 C   0  0  0  0  0  0  0  0  0  0  0  0
   -6.1145   19.0610   24.0975 C   0  0  0  0  0  0  0  0  0  0  0  0
   -4.2566   21.3743   21.5356 C   0  0  0  0  0  0  0  0  0  0  0  0
   -1.9965   18.7600   23.6011 C   0  0  0  0  0  0  0  0  0  0  0  0
   -2.1345   20.9887   22.2693 C   0  0  0  0  0  0  0  0  0  0  0  0
   -5.8339   21.6245   23.4323 C   0  0  0  0  0  0  0  0  0  0  0  0
   -6.9137   17.9985   24.6394 C   0  0  0  0  0  0  0  0  0  0  0  0
   -8.3344   16.2231   26.1055 C   0  0  0  0  0  0  0  0  0  0  0  0
   -6.8034   20.4381   23.8215 C   0  0  0  0  0  0  0  0  0  0  0  0
   -2.8742   21.4359   21.1841 C   0  0  0  0  0  0  0  0  0  0  0  0
   -5.1026   22.0409   20.5261 C   0  0  0  0  0  0  0  0  0  0  0  0
  1  2  2  0
  1  3  1  0
  3  4  1  0
  2  5  1  0
  2  6  1  0
  6  7  1  0
  7  8  1  0
  7  9  1  0
  6 10  2  0
  8 11  1  0
  5 12  2  0
  9 12  1  0
  9 13  1  0
  8 14  2  0
  3 15  2  0
 10 15  1  0
  4 16  1  0
 10 17  1  0
 14 17  1  0
 11 18  2  0
 13 18  1  0
 11 19  1  0
M  END
>  <ID>  (1) 
conformer_0

$$$$
