
     RDKit          3D

 20 23  0  0  0  0  0  0  0  0999 V2000
   -2.4469   18.7788   23.6209 C   0  0  0  0  0  0  0  0  0  0  0  0
   -3.6278   18.4467   24.0291 C   0  0  0  0  0  0  0  0  0  0  0  0
   -2.4855   19.6386   22.4658 C   0  0  0  0  0  0  0  0  0  0  0  0
   -3.7561   17.4905   25.2165 C   0  0  0  0  0  0  0  0  0  0  0  0
   -4.9168   16.6487   25.1148 C   0  0  0  0  0  0  0  0  0  0  0  0
   -6.2027   17.2991   25.5979 C   0  0  0  0  0  0  0  0  0  0  0  0
   -1.2429   20.1258   21.8816 F   0  0  0  0  0  0  0  0  0  0  0  0
   -4.8772   19.1952   23.8154 C   0  0  0  0  0  0  0  0  0  0  0  0
   -4.8226   20.1057   22.7580 C   0  0  0  0  0  0  0  0  0  0  0  0
   -6.0194   20.8065   22.3103 C   0  0  0  0  0  0  0  0  0  0  0  0
   -3.5682   20.4616   22.1512 C   0  0  0  0  0  0  0  0  0  0  0  0
   -5.8649   21.7856   21.3627 C   0  0  0  0  0  0  0  0  0  0  0  0
   -6.7641   18.3058   24.7028 N   0  0  0  0  0  0  0  0  0  0  0  0
   -6.1245   19.0995   24.2866 C   0  0  0  0  0  0  0  0  0  0  0  0
   -6.7257   19.9515   23.1014 C   0  0  0  0  0  0  0  0  0  0  0  0
   -7.1335   16.0993   25.8546 C   0  0  0  0  0  0  0  0  0  0  0  0
   -3.4043   21.4653   21.0189 C   0  0  0  0  0  0  0  0  0  0  0  0
   -7.8498   15.9135   24.7967 O   0  0  0  0  0  0  0  0  0  0  0  0
   -4.6806   22.0947   20.8397 C   0  0  0  0  0  0  0  0  0  0  0  0
   -7.2978   15.6967   26.9925 O   0  0  0  0  0  0  0  0  0  0  0  0
  1  2  1  0
  1  3  2  0
  2  4  1  0
  4  5  1  0
  5  6  1  0
  3  7  1  0
  2  8  2  0
  8  9  1  0
  9 10  1  0
  3 11  1  0
  9 11  2  0
 10 12  1  0
  6 13  1  0
  8 14  1  0
 13 14  1  0
 10 15  2  0
 14 15  1  0
  6 16  1  0
 11 17  1  0
 16 18  2  0
 12 19  1  0
 17 19  2  0
 16 20  1  0
M  END
>  <ID>  (1) 
conformer_0

$$$$
