
     RDKit          3D

 19 22  0  0  0  0  0  0  0  0999 V2000
   -4.8244   16.8047   25.1359 C   0  0  0  0  0  0  0  0  0  0  0  0
   -6.0826   17.1891   25.1886 C   0  0  0  0  0  0  0  0  0  0  0  0
   -3.8841   17.6227   24.5115 C   0  0  0  0  0  0  0  0  0  0  0  0
   -4.2231   18.8994   24.1272 C   0  0  0  0  0  0  0  0  0  0  0  0
   -5.5454   19.3047   24.3514 C   0  0  0  0  0  0  0  0  0  0  0  0
   -5.9722   20.6583   23.9645 C   0  0  0  0  0  0  0  0  0  0  0  0
   -5.1487   21.5137   23.6747 C   0  0  0  0  0  0  0  0  0  0  0  0
   -3.2009   19.7856   23.5834 C   0  0  0  0  0  0  0  0  0  0  0  0
   -6.5054   18.4275   24.9236 C   0  0  0  0  0  0  0  0  0  0  0  0
   -7.8938   18.7895   25.2045 C   0  0  0  0  0  0  0  0  0  0  0  0
   -7.1077   16.2727   25.9677 C   0  0  0  0  0  0  0  0  0  0  0  0
   -2.2451   19.1797   22.7021 C   0  0  0  0  0  0  0  0  0  0  0  0
   -8.7453   17.8064   25.7744 C   0  0  0  0  0  0  0  0  0  0  0  0
   -3.9806   21.0554   23.0112 C   0  0  0  0  0  0  0  0  0  0  0  0
   -8.2681   16.5258   26.0631 C   0  0  0  0  0  0  0  0  0  0  0  0
   -3.4757   21.5916   21.8578 C   0  0  0  0  0  0  0  0  0  0  0  0
   -1.6289   20.1851   21.7801 C   0  0  0  0  0  0  0  0  0  0  0  0
   -4.2280   22.7691   21.3240 C   0  0  0  0  0  0  0  0  0  0  0  0
   -2.0980   21.3110   21.3244 C   0  0  0  0  0  0  0  0  0  0  0  0
  1  2  1  0
  1  3  2  0
  3  4  1  0
  4  5  2  0
  5  6  1  0
  6  7  1  0
  4  8  1  0
  2  9  2  0
  5  9  1  0
  9 10  1  0
  2 11  1  0
  8 12  1  0
 10 13  2  0
  7 14  1  0
  8 14  1  0
 11 15  2  0
 13 15  1  0
 14 16  2  0
 12 17  1  0
 16 18  1  0
 16 19  1  0
 17 19  2  0
M  END
>  <ID>  (1) 
conformer_0

$$$$
