
     RDKit          3D

 17 19  0  0  0  0  0  0  0  0999 V2000
   -6.9359   20.2675   25.2451 C   0  0  0  0  0  0  0  0  0  0  0  0
   -6.0889   20.4071   24.3665 C   0  0  0  0  0  0  0  0  0  0  0  0
   -5.8116   21.5977   23.6825 C   0  0  0  0  0  0  0  0  0  0  0  0
   -5.0800   21.6245   22.5188 C   0  0  0  0  0  0  0  0  0  0  0  0
   -4.3276   20.6951   22.0758 C   0  0  0  0  0  0  0  0  0  0  0  0
   -5.1242   19.3193   24.1516 C   0  0  0  0  0  0  0  0  0  0  0  0
   -4.2200   19.4977   22.9501 C   0  0  0  0  0  0  0  0  0  0  0  0
   -4.8975   20.2114   20.6989 C   0  0  0  0  0  0  0  0  0  0  0  0
   -5.1952   18.1720   24.8564 C   0  0  0  0  0  0  0  0  0  0  0  0
   -6.2202   18.0806   25.7929 C   0  0  0  0  0  0  0  0  0  0  0  0
   -6.3085   16.8163   26.5024 O   0  0  0  0  0  0  0  0  0  0  0  0
   -7.5177   16.0681   26.3995 C   0  0  0  0  0  0  0  0  0  0  0  0
   -7.0801   19.0474   26.0347 C   0  0  0  0  0  0  0  0  0  0  0  0
   -2.9620   21.0218   21.9890 C   0  0  0  0  0  0  0  0  0  0  0  0
   -2.8085   19.6493   23.5125 C   0  0  0  0  0  0  0  0  0  0  0  0
   -2.0324   20.1447   22.3910 C   0  0  0  0  0  0  0  0  0  0  0  0
   -2.6580   22.1985   21.4769 O   0  0  0  0  0  0  0  0  0  0  0  0
  1  2  2  0
  2  3  1  0
  3  4  2  0
  4  5  1  0
  2  6  1  0
  5  7  1  0
  6  7  1  0
  5  8  1  0
  6  9  2  0
  9 10  1  0
 10 11  1  0
 11 12  1  0
  1 13  1  0
 10 13  2  0
  5 14  1  0
  7 15  1  0
 14 16  1  0
 15 16  1  0
 14 17  2  0
M  END
>  <ID>  (1) 
conformer_0

$$$$
