
     RDKit          3D

 19 21  0  0  0  0  0  0  0  0999 V2000
   -1.9410   19.2595   22.9826 C   0  0  0  0  0  0  0  0  0  0  0  0
   -3.0519   18.6580   23.5552 C   0  0  0  0  0  0  0  0  0  0  0  0
   -1.9914   20.2976   22.2636 C   0  0  0  0  0  0  0  0  0  0  0  0
   -4.2902   19.2985   23.3020 C   0  0  0  0  0  0  0  0  0  0  0  0
   -3.1221   21.0440   21.9703 C   0  0  0  0  0  0  0  0  0  0  0  0
   -4.3546   20.5301   22.6257 C   0  0  0  0  0  0  0  0  0  0  0  0
   -5.5006   18.7850   23.9326 C   0  0  0  0  0  0  0  0  0  0  0  0
   -5.8310   18.7936   25.2277 C   0  0  0  0  0  0  0  0  0  0  0  0
   -4.8512   19.3288   26.2969 C   0  0  0  0  0  0  0  0  0  0  0  0
   -6.5461   18.3314   23.1607 C   0  0  0  0  0  0  0  0  0  0  0  0
   -6.4163   18.2972   21.7270 C   0  0  0  0  0  0  0  0  0  0  0  0
   -5.4233   20.7961   21.6626 C   0  0  0  0  0  0  0  0  0  0  0  0
   -2.9804   22.2117   21.3335 O   0  0  0  0  0  0  0  0  0  0  0  0
   -7.7195   17.7899   23.6184 C   0  0  0  0  0  0  0  0  0  0  0  0
   -7.0446   18.1805   25.7532 C   0  0  0  0  0  0  0  0  0  0  0  0
   -7.9239   17.7092   24.9342 C   0  0  0  0  0  0  0  0  0  0  0  0
   -6.4795   19.7596   21.2369 C   0  0  0  0  0  0  0  0  0  0  0  0
   -9.3010   17.1042   25.5327 C   0  0  0  0  0  0  0  0  0  0  0  0
   -9.1110   16.4334   26.7133 N   0  0  0  0  0  0  0  0  0  0  0  0
  1  2  1  0
  1  3  2  0
  2  4  2  0
  3  5  1  0
  4  6  1  0
  5  6  1  0
  4  7  1  0
  7  8  2  0
  8  9  1  0
  7 10  1  0
 10 11  1  0
  6 12  1  0
  5 13  2  0
 10 14  2  0
  8 15  1  0
 14 16  1  0
 15 16  2  0
 11 17  1  0
 12 17  1  0
 16 18  1  0
 18 19  1  0
M  END
>  <ID>  (1) 
conformer_0

$$$$
