
     RDKit          3D

 19 22  0  0  0  0  0  0  0  0999 V2000
   -4.8244   16.8047   25.1359 C   0  0  0  0  0  0  0  0  0  0  0  0
   -6.0826   17.1891   25.1886 C   0  0  0  0  0  0  0  0  0  0  0  0
   -3.8841   17.6227   24.5115 C   0  0  0  0  0  0  0  0  0  0  0  0
   -4.2231   18.8994   24.1272 C   0  0  0  0  0  0  0  0  0  0  0  0
   -5.5454   19.3047   24.3514 C   0  0  0  0  0  0  0  0  0  0  0  0
   -5.9722   20.6583   23.9645 C   0  0  0  0  0  0  0  0  0  0  0  0
   -5.1487   21.5137   23.6747 C   0  0  0  0  0  0  0  0  0  0  0  0
   -3.2009   19.7856   23.5834 C   0  0  0  0  0  0  0  0  0  0  0  0
   -6.5054   18.4275   24.9236 C   0  0  0  0  0  0  0  0  0  0  0  0
   -2.2590   19.1975   22.7138 C   0  0  0  0  0  0  0  0  0  0  0  0
   -5.6027   22.5533   22.7068 C   0  0  0  0  0  0  0  0  0  0  0  0
   -3.9203   20.8769   22.7970 N   0  0  0  0  0  0  0  0  0  0  0  0
   -6.8947   16.2372   25.7721 O   0  0  0  0  0  0  0  0  0  0  0  0
   -2.3318   20.0406   21.4588 C   0  0  0  0  0  0  0  0  0  0  0  0
   -7.9451   18.7195   24.9897 C   0  0  0  0  0  0  0  0  0  0  0  0
   -8.7700   18.1446   24.2225 O   0  0  0  0  0  0  0  0  0  0  0  0
   -4.5594   22.8662   21.7267 C   0  0  0  0  0  0  0  0  0  0  0  0
   -3.3810   21.9661   22.2224 C   0  0  0  0  0  0  0  0  0  0  0  0
   -2.2289   21.5616   21.4295 C   0  0  0  0  0  0  0  0  0  0  0  0
  1  2  1  0
  1  3  2  0
  3  4  1  0
  4  5  2  0
  5  6  1  0
  6  7  1  0
  4  8  1  0
  2  9  2  0
  5  9  1  0
  8 10  1  0
  7 11  1  0
  7 12  1  0
  8 12  1  0
  2 13  1  0
 10 14  1  0
  9 15  1  0
 15 16  1  0
 11 17  1  0
 12 18  1  0
 17 18  1  0
 14 19  1  0
 18 19  1  0
M  END
>  <ID>  (1) 
conformer_0

$$$$
