
     RDKit          3D

 20 21  0  0  0  0  0  0  0  0999 V2000
   12.3546   -4.1347   33.2370 O   0  0  0  0  0  1  0  0  0  0  0  0
   11.0546   -3.7347   32.8370 P   0  0  0  0  0  4  0  0  0  0  0  0
   10.7545   -4.1347   31.4370 O   0  0  0  0  0  0  0  0  0  0  0  0
   10.0546   -4.2347   33.8370 O   0  0  0  0  0  0  0  0  0  0  0  0
   10.9545   -2.3347   33.0370 O   0  0  0  0  0  0  0  0  0  0  0  0
   12.0546   -1.3347   33.1370 C   0  0  0  0  0  0  0  0  0  0  0  0
   11.8546   -0.0347   32.5370 C   0  0  0  0  0  0  0  0  0  0  0  0
   12.9546    0.9653   32.3370 N   0  0  0  0  0  0  0  0  0  0  0  0
   13.7546    1.3653   31.4370 C   0  0  0  0  0  0  0  0  0  0  0  0
   14.4546    2.3653   31.4370 N   0  0  0  0  0  0  0  0  0  0  0  0
   14.0546    3.1653   32.6370 C   0  0  0  0  0  0  0  0  0  0  0  0
   12.6546    3.4653   32.4370 C   0  0  0  0  0  0  0  0  0  0  0  0
   11.9546    4.2653   33.4370 C   0  0  0  0  0  0  0  0  0  0  0  0
   11.9546    2.2653   32.3370 C   0  0  0  0  0  0  0  0  0  0  0  0
   10.5546    3.8653   33.4370 N   0  0  0  0  0  0  0  0  0  0  0  0
   12.2546    3.0653   31.1370 C   0  0  0  0  0  0  0  0  0  0  0  0
    9.8546    4.3653   34.6370 C   0  0  0  0  0  0  0  0  0  0  0  0
    9.1546    3.2653   35.3370 C   0  0  0  0  0  0  0  0  0  0  0  0
    9.5546    2.6653   36.5370 C   0  0  0  0  0  0  0  0  0  0  0  0
    9.9546    1.2653   36.7370 C   0  0  0  0  0  0  0  0  0  0  0  0
  2  1  2  0
  3  2  1  0
  4  2  1  0
  5  2  1  0
  6  5  1  0
  7  6  2  3
  8  7  1  0
  9  8  1  0
 10  9  1  0
 11 10  1  0
 12 11  1  0
 13 12  1  0
 14  8  1  0
 14 12  1  0
 15 13  1  0
 16 12  1  0
 16 14  1  0
 17 15  1  0
 18 17  1  0
 19 18  1  0
 20 19  1  0
M  END
>  <ID>  (1) 
conformer_0

$$$$
