
     RDKit          3D

 20 21  0  0  0  0  0  0  0  0999 V2000
   12.4334   -3.9215   33.3419 O   0  0  0  0  0  1  0  0  0  0  0  0
   11.1334   -3.6215   32.7419 P   0  0  0  0  0  4  0  0  0  0  0  0
   10.9334   -3.9215   31.3419 O   0  0  0  0  0  0  0  0  0  0  0  0
   10.1334   -4.0215   33.7419 O   0  0  0  0  0  0  0  0  0  0  0  0
   10.7334   -2.2215   32.8419 O   0  0  0  0  0  0  0  0  0  0  0  0
   10.8334   -1.1215   33.6419 C   0  0  0  0  0  0  0  0  0  0  0  0
   11.0334    0.1785   33.1419 C   0  0  0  0  0  0  0  0  0  0  0  0
   12.1334    0.7785   32.5419 C   0  0  0  0  0  0  0  0  0  0  0  0
   13.3334    0.2785   32.1419 C   0  0  0  0  0  0  0  0  0  0  0  0
   12.0334    2.1785   32.3419 C   0  0  0  0  0  0  0  0  0  0  0  0
   13.9334    1.1785   31.2419 N   0  0  0  0  0  0  0  0  0  0  0  0
   14.6334    0.6785   30.0419 C   0  0  0  0  0  0  0  0  0  0  0  0
   14.2334    2.4785   31.5419 N   0  0  0  0  0  0  0  0  0  0  0  0
   14.6334   -0.6215   30.2419 N   0  0  0  0  0  2  0  0  0  0  0  0
   15.3334    1.7785   29.3419 S   0  0  0  0  0  3  0  0  0  0  0  0
   13.3334    2.7785   32.6419 C   0  0  0  0  0  0  0  0  0  0  0  0
   13.6334   -0.9215   31.3419 N   0  0  0  0  0  0  0  0  0  0  0  0
   16.1334    2.5785   28.8419 O   0  0  0  0  0  1  0  0  0  0  0  0
   14.1334    1.4785   29.0419 N   0  0  0  0  0  0  0  0  0  0  0  0
   13.9334    2.5785   29.2419 N   0  0  0  0  0  0  0  0  0  0  0  0
  2  1  2  0
  3  2  1  0
  4  2  1  0
  5  2  1  0
  6  5  1  0
  7  6  1  0
  8  7  1  0
  9  8  1  0
 10  8  2  0
 11  9  1  0
 12 11  1  0
 13 11  1  0
 14 12  1  0
 15 12  1  0
 16 10  1  0
 16 13  2  0
 17  9  2  0
 17 14  1  0
 18 15  2  0
 19 12  1  0
 20 19  1  0
M  END
>  <ID>  (1) 
conformer_0

$$$$
