
     RDKit          3D

 19 21  0  0  0  0  0  0  0  0999 V2000
   10.9552   -3.8426   32.9602 P   0  0  0  0  0  4  0  0  0  0  0  0
   10.9552   -3.8426   31.4602 O   0  0  0  0  0  1  0  0  0  0  0  0
   10.1552   -4.7426   33.7602 O   0  0  0  0  0  0  0  0  0  0  0  0
   12.3552   -3.8426   33.4602 O   0  0  0  0  0  0  0  0  0  0  0  0
   10.4552   -2.5426   33.2602 O   0  0  0  0  0  0  0  0  0  0  0  0
   11.2552   -1.3426   33.4602 C   0  0  0  0  0  0  0  0  0  0  0  0
   12.6552   -1.3426   32.9602 C   0  0  0  0  0  0  0  0  0  0  0  0
   13.1552   -2.6426   33.4602 C   0  0  0  0  0  0  0  0  0  0  0  0
   13.0552   -0.3426   32.0602 N   0  0  0  0  0  0  0  0  0  0  0  0
   13.3552    0.9574   32.2602 C   0  0  0  0  0  0  0  0  0  0  0  0
   12.2552    1.9574   32.3602 C   0  0  0  0  0  0  0  0  0  0  0  0
   12.6552    3.2574   32.2602 C   0  0  0  0  0  0  0  0  0  0  0  0
   11.5552    4.0574   31.8602 N   0  0  0  0  0  0  0  0  0  0  0  0
   14.0552    1.5574   31.1602 C   0  0  0  0  0  0  0  0  0  0  0  0
   14.5552    0.5574   30.3602 C   0  0  0  0  0  0  0  0  0  0  0  0
   14.5552   -0.7426   30.2602 N   0  0  0  0  0  0  0  0  0  0  0  0
   13.7552    3.7574   31.8602 N   0  0  0  0  0  0  0  0  0  0  0  0
   14.4552    2.7574   31.3602 N   0  0  0  0  0  0  0  0  0  0  0  0
   13.9552   -1.1426   31.4602 C   0  0  0  0  0  0  0  0  0  0  0  0
  2  1  2  0
  3  1  1  0
  4  1  1  0
  5  1  1  0
  6  5  1  0
  7  6  1  0
  8  4  1  0
  8  7  1  0
  9  7  1  0
 10  9  1  0
 11 10  1  0
 12 11  2  0
 13 12  1  0
 14 10  1  0
 15 14  2  0
 16 15  1  0
 17 12  1  0
 18 14  1  0
 18 17  2  0
 19  9  1  0
 19 16  2  0
M  END
>  <ID>  (1) 
conformer_0

$$$$
