
     RDKit          3D

 21 23  0  0  0  0  0  0  0  0999 V2000
   10.8764   -3.9594   31.1907 O   0  0  0  0  0  1  0  0  0  0  0  0
   11.0764   -3.8594   32.5907 P   0  0  0  0  0  4  0  0  0  0  0  0
   10.3764   -4.5594   33.6907 O   0  0  0  0  0  0  0  0  0  0  0  0
   12.4764   -3.7594   33.0907 O   0  0  0  0  0  0  0  0  0  0  0  0
   13.1764   -2.5594   33.4907 C   0  0  0  0  0  0  0  0  0  0  0  0
   12.3764   -1.5594   32.9907 C   0  0  0  0  0  0  0  0  0  0  0  0
   10.9764   -2.0594   32.8907 O   0  0  0  0  0  0  0  0  0  0  0  0
   12.6764   -0.2594   32.5907 C   0  0  0  0  0  0  0  0  0  0  0  0
   13.5764    0.4406   31.7907 C   0  0  0  0  0  0  0  0  0  0  0  0
   13.7764    1.7406   31.7907 C   0  0  0  0  0  0  0  0  0  0  0  0
   14.0764   -0.3594   30.6907 N   0  0  0  0  0  0  0  0  0  0  0  0
   14.7764    0.4406   29.8907 C   0  0  0  0  0  0  0  0  0  0  0  0
   14.8764    1.8406   30.3907 S   0  0  0  0  0  0  0  0  0  0  0  0
   11.5764    0.6406   32.9907 O   0  0  0  0  0  0  0  0  0  0  0  0
   11.2764    2.0406   32.9907 C   0  0  0  0  0  0  0  0  0  0  0  0
   10.8764    2.7406   34.1907 C   0  0  0  0  0  0  0  0  0  0  0  0
   11.3764    2.7406   31.6907 C   0  0  0  0  0  0  0  0  0  0  0  0
   12.7764    2.8406   31.5907 N   0  0  0  0  0  0  0  0  0  0  0  0
   10.6764    3.7406   31.3907 O   0  0  0  0  0  0  0  0  0  0  0  0
   13.3764    4.1406   31.8907 C   0  0  0  0  0  0  0  0  0  0  0  0
   15.8764   -0.1594   29.1907 N   0  0  0  0  0  0  0  0  0  0  0  0
  2  1  2  0
  3  2  1  0
  4  2  1  0
  5  4  1  0
  6  5  1  0
  7  2  1  0
  7  6  1  0
  8  6  1  0
  9  8  1  0
 10  9  2  0
 11  9  1  0
 12 11  2  0
 13 10  1  0
 13 12  1  0
 14  8  1  0
 15 14  1  0
 16 15  1  0
 17 15  1  0
 18 10  1  0
 18 17  1  0
 19 17  1  0
 20 18  1  0
 21 12  1  0
M  END
>  <ID>  (1) 
conformer_0

$$$$
