
     RDKit          3D

 18 19  0  0  0  0  0  0  0  0999 V2000
   12.4334   -3.9215   33.3419 O   0  0  0  0  0  1  0  0  0  0  0  0
   11.0334   -3.7215   32.8419 P   0  0  0  0  0  4  0  0  0  0  0  0
   10.8334   -4.1215   31.4419 O   0  0  0  0  0  0  0  0  0  0  0  0
   10.1334   -4.3215   33.8419 O   0  0  0  0  0  0  0  0  0  0  0  0
   10.6334   -2.3215   33.0419 O   0  0  0  0  0  0  0  0  0  0  0  0
   10.6334   -1.3215   33.9419 C   0  0  0  0  0  0  0  0  0  0  0  0
   10.8334   -0.0215   33.2419 C   0  0  0  0  0  0  0  0  0  0  0  0
   10.5334    1.2785   33.7419 C   0  0  0  0  0  0  0  0  0  0  0  0
   12.0334    0.0785   32.4419 O   0  0  0  0  0  0  0  0  0  0  0  0
   12.8334    1.2785   32.5419 C   0  0  0  0  0  0  0  0  0  0  0  0
   13.9334    1.9785   32.7419 N   0  0  0  0  0  0  0  0  0  0  0  0
   11.6334    2.1785   33.3419 C   0  0  0  0  0  0  0  0  0  0  0  0
   13.8334    3.1785   33.3419 C   0  0  0  0  0  0  0  0  0  0  0  0
   14.6334    4.3785   33.2419 C   0  0  0  0  0  0  0  0  0  0  0  0
   11.4334    3.4785   33.0419 O   0  0  0  0  0  0  0  0  0  0  0  0
    9.2334    1.9785   33.7419 O   0  0  0  0  0  0  0  0  0  0  0  0
   14.8334    3.4785   34.3419 N   0  0  0  0  0  0  0  0  0  0  0  0
   14.9334    5.4785   33.1419 O   0  0  0  0  0  0  0  0  0  0  0  0
  2  1  2  0
  3  2  1  0
  4  2  1  0
  5  2  1  0
  6  5  1  0
  7  6  1  0
  8  7  2  0
  9  7  1  0
 10  9  1  0
 11 10  1  0
 12  8  1  0
 12 10  2  0
 13 11  1  0
 14 13  1  0
 15 12  1  0
 16  8  1  0
 17 13  1  0
 17 14  1  0
 18 14  2  0
M  END
>  <ID>  (1) 
conformer_0

$$$$
