
     RDKit          3D

 17 19  0  0  0  0  0  0  0  0999 V2000
   12.4334   -3.9215   33.3419 O   0  0  0  0  0  0  0  0  0  0  0  0
   11.0334   -3.7215   32.8419 P   0  0  0  0  0  4  0  0  0  0  0  0
   10.7334   -4.1215   31.4419 O   0  0  0  0  0  1  0  0  0  0  0  0
   10.0334   -4.2215   33.8419 O   0  0  0  0  0  0  0  0  0  0  0  0
   11.0334   -2.2215   32.8419 O   0  0  0  0  0  0  0  0  0  0  0  0
   12.2334   -1.5215   32.9419 C   0  0  0  0  0  0  0  0  0  0  0  0
   13.2334   -2.5215   33.4419 C   0  0  0  0  0  0  0  0  0  0  0  0
   12.8334   -0.4215   32.1419 C   0  0  0  0  0  0  0  0  0  0  0  0
   13.2334    0.8785   32.1419 C   0  0  0  0  0  0  0  0  0  0  0  0
   12.4334    1.9785   32.2419 C   0  0  0  0  0  0  0  0  0  0  0  0
   12.5334    3.0785   31.6419 N   0  0  0  0  0  0  0  0  0  0  0  0
   14.3334    1.1785   31.3419 N   0  0  0  0  0  0  0  0  0  0  0  0
   14.3334    2.1785   30.4419 C   0  0  0  0  0  0  0  0  0  0  0  0
   13.4334    3.0785   32.4419 C   0  0  0  0  0  0  0  0  0  0  0  0
   13.4334    3.7785   33.7419 C   0  0  0  0  0  0  0  0  0  0  0  0
   15.3334    1.9785   29.3419 C   0  0  0  0  0  0  0  0  0  0  0  0
   14.0334    3.1785   31.3419 N   0  0  0  0  0  0  0  0  0  0  0  0
  2  1  1  0
  3  2  2  0
  4  2  1  0
  5  2  1  0
  6  5  1  0
  7  1  1  0
  7  6  1  0
  8  6  1  0
  9  8  1  0
 10  9  2  0
 11 10  1  0
 12  9  1  0
 13 12  2  0
 14 10  1  0
 14 11  1  0
 15 14  1  0
 16 13  1  0
 17 13  1  0
 17 14  1  0
M  END
>  <ID>  (1) 
conformer_0

$$$$
