
     RDKit          3D

 15 16  0  0  0  0  0  0  0  0999 V2000
   12.2365   -3.7674   33.2043 O   0  0  0  0  0  0  0  0  0  0  0  0
   10.8365   -3.8674   32.8043 P   0  0  0  0  0  4  0  0  0  0  0  0
   10.7365   -4.2674   31.4043 O   0  0  0  0  0  1  0  0  0  0  0  0
   10.2365   -4.9674   33.6043 O   0  0  0  0  0  0  0  0  0  0  0  0
   10.0365   -2.6674   33.2043 O   0  0  0  0  0  0  0  0  0  0  0  0
   12.9365   -2.4674   33.4043 C   0  0  0  0  0  0  0  0  0  0  0  0
   12.0365   -1.3674   33.0043 C   0  0  0  0  0  0  0  0  0  0  0  0
   10.7365   -1.4674   33.7043 C   0  0  0  0  0  0  0  0  0  0  0  0
   12.2365   -0.2674   32.2043 O   0  0  0  0  0  0  0  0  0  0  0  0
   13.1365    0.6326   31.9043 C   0  0  0  0  0  0  0  0  0  0  0  0
   14.0365    0.1326   31.0043 N   0  0  0  0  0  0  0  0  0  0  0  0
   13.5365    1.8326   32.5043 C   0  0  0  0  0  0  0  0  0  0  0  0
   14.2365    2.6326   31.6043 C   0  0  0  0  0  0  0  0  0  0  0  0
   14.7365    0.8326   30.2043 C   0  0  0  0  0  0  0  0  0  0  0  0
   14.4365    2.1326   30.3043 C   0  0  0  0  0  0  0  0  0  0  0  0
  2  1  1  0
  3  2  2  0
  4  2  1  0
  5  2  1  0
  6  1  1  0
  7  6  1  0
  8  5  1  0
  8  7  1  0
  9  7  1  0
 10  9  1  0
 11 10  2  0
 12 10  1  0
 13 12  2  0
 14 11  1  0
 15 13  1  0
 15 14  1  0
M  END
>  <ID>  (1) 
conformer_0

$$$$
