
     RDKit          3D

 21 23  0  0  0  0  0  0  0  0999 V2000
   11.0600   -3.8099   31.4557 O   0  0  0  0  0  1  0  0  0  0  0  0
   11.0600   -3.6099   32.8557 P   0  0  0  0  0  4  0  0  0  0  0  0
   10.3600   -4.7099   33.5557 O   0  0  0  0  0  0  0  0  0  0  0  0
   12.4600   -3.7099   33.3557 O   0  0  0  0  0  0  0  0  0  0  0  0
   10.4600   -2.3099   33.2557 O   0  0  0  0  0  0  0  0  0  0  0  0
   11.1600   -1.0099   33.1557 C   0  0  0  0  0  0  0  0  0  0  0  0
   12.5600   -1.4099   32.8557 C   0  0  0  0  0  0  0  0  0  0  0  0
   13.1600   -2.5099   33.6557 C   0  0  0  0  0  0  0  0  0  0  0  0
   13.2600   -0.4099   32.0557 N   0  0  0  0  0  0  0  0  0  0  0  0
   13.3600    0.8901   32.3557 C   0  0  0  0  0  0  0  0  0  0  0  0
   13.8600    1.6901   31.2557 C   0  0  0  0  0  0  0  0  0  0  0  0
   14.4600    1.0901   30.2557 C   0  0  0  0  0  0  0  0  0  0  0  0
   14.6600   -0.2099   30.0557 N   0  0  0  0  0  0  0  0  0  0  0  0
   14.1600   -0.8099   31.0557 C   0  0  0  0  0  0  0  0  0  0  0  0
   13.8600    3.0901   31.5557 C   0  0  0  0  0  0  0  0  0  0  0  0
   13.0600    3.3901   32.7557 C   0  0  0  0  0  0  0  0  0  0  0  0
   11.7600    2.7901   32.5557 C   0  0  0  0  0  0  0  0  0  0  0  0
   10.8600    3.1901   33.6557 C   0  0  0  0  0  0  0  0  0  0  0  0
   11.1600    3.2901   31.3557 O   0  0  0  0  0  0  0  0  0  0  0  0
   11.5600    4.5901   31.1557 C   0  0  0  0  0  0  0  0  0  0  0  0
   12.0600    1.3901   32.8557 N   0  0  0  0  0  0  0  0  0  0  0  0
  2  1  2  0
  3  2  1  0
  4  2  1  0
  5  2  1  0
  6  5  1  0
  7  6  1  0
  8  4  1  0
  8  7  1  0
  9  7  1  0
 10  9  1  0
 11 10  1  0
 12 11  2  0
 13 12  1  0
 14  9  1  0
 14 13  2  0
 15 11  1  0
 16 15  1  0
 17 16  1  0
 18 17  1  0
 19 17  1  0
 20 19  1  0
 21 10  1  0
 21 17  1  0
M  END
>  <ID>  (1) 
conformer_0

$$$$
