
     RDKit          3D

 22 24  0  0  0  0  0  0  0  0999 V2000
   12.3743   -3.7149   33.4036 O   0  0  0  0  0  0  0  0  0  0  0  0
   11.0743   -3.6149   32.8036 P   0  0  0  0  0  4  0  0  0  0  0  0
   10.9743   -4.0149   31.4036 O   0  0  0  0  0  1  0  0  0  0  0  0
   10.1743   -4.1149   33.8036 O   0  0  0  0  0  0  0  0  0  0  0  0
   10.6743   -2.2149   32.7036 O   0  0  0  0  0  0  0  0  0  0  0  0
   10.8743   -1.1149   33.6036 C   0  0  0  0  0  0  0  0  0  0  0  0
   11.3743    0.0851   32.9036 C   0  0  0  0  0  0  0  0  0  0  0  0
   12.6743   -0.1149   32.4036 C   0  0  0  0  0  0  0  0  0  0  0  0
   13.4743    1.0851   32.3036 C   0  0  0  0  0  0  0  0  0  0  0  0
   12.4743    2.1851   32.2036 C   0  0  0  0  0  0  0  0  0  0  0  0
   13.1743   -1.4149   32.6036 C   0  0  0  0  0  0  0  0  0  0  0  0
   11.2743    2.4851   32.8036 C   0  0  0  0  0  0  0  0  0  0  0  0
   10.7743    3.6851   32.6036 N   0  0  0  0  0  0  0  0  0  0  0  0
   12.7743    3.2851   31.4036 N   0  0  0  0  0  0  0  0  0  0  0  0
   11.6743    4.1851   31.6036 N   0  0  0  0  0  0  0  0  0  0  0  0
   13.1743   -2.3149   33.6036 C   0  0  0  0  0  0  0  0  0  0  0  0
   12.7743    4.4851   32.0036 C   0  0  0  0  0  0  0  0  0  0  0  0
   10.9743    1.2851   33.7036 C   0  0  0  0  0  0  0  0  0  0  0  0
   14.1743    1.2851   31.0036 N   0  0  0  0  0  0  0  0  0  0  0  0
   14.7743    1.8851   30.1036 C   0  0  0  0  0  0  0  0  0  0  0  0
   15.6743    2.0851   29.2036 C   0  0  0  0  0  0  0  0  0  0  0  0
   14.5743    2.4851   31.2036 N   0  0  0  0  0  0  0  0  0  0  0  0
  2  1  1  0
  3  2  2  0
  4  2  1  0
  5  2  1  0
  6  5  1  0
  7  6  1  0
  8  7  1  0
  9  8  1  0
 10  9  1  0
 11  8  1  0
 12 10  1  0
 13 12  2  0
 14 10  1  0
 15 13  1  0
 16  1  1  0
 16 11  1  0
 17 14  1  0
 17 15  1  0
 18  7  1  0
 18 12  1  0
 19  9  1  0
 20 19  1  0
 21 20  2  0
 22 20  1  0
M  END
>  <ID>  (1) 
conformer_0

$$$$
