
     RDKit          3D

 14 15  0  0  0  0  0  0  0  0999 V2000
   12.4334   -3.9215   33.3419 O   0  0  0  0  0  0  0  0  0  0  0  0
   11.0334   -3.7215   32.8419 P   0  0  0  0  0  4  0  0  0  0  0  0
   10.7334   -4.1215   31.4419 O   0  0  0  0  0  1  0  0  0  0  0  0
   10.0334   -4.2215   33.8419 O   0  0  0  0  0  0  0  0  0  0  0  0
   10.7334   -2.3215   33.0419 O   0  0  0  0  0  0  0  0  0  0  0  0
   11.7334   -1.3215   32.6419 C   0  0  0  0  0  0  0  0  0  0  0  0
   13.1334   -1.6215   32.6419 C   0  0  0  0  0  0  0  0  0  0  0  0
   13.3334   -2.8215   33.4419 C   0  0  0  0  0  0  0  0  0  0  0  0
   13.9334   -1.5215   31.4419 N   0  0  0  0  0  0  0  0  0  0  0  0
   14.0334   -0.3215   30.8419 N   0  0  0  0  0  0  0  0  0  0  0  0
   14.8334    0.0785   29.8419 C   0  0  0  0  0  0  0  0  0  0  0  0
   14.9334    1.4785   29.5419 C   0  0  0  0  0  0  0  0  0  0  0  0
   14.3334    1.9785   30.6419 C   0  0  0  0  0  0  0  0  0  0  0  0
   13.6334    0.8785   31.6419 C   0  0  0  0  0  0  0  0  0  0  0  0
  2  1  1  0
  3  2  2  0
  4  2  1  0
  5  2  1  0
  6  5  1  0
  7  6  1  0
  8  1  1  0
  8  7  1  0
  9  7  1  0
 10  9  1  0
 11 10  1  0
 12 11  1  0
 13 12  1  0
 14 10  1  0
 14 13  1  0
M  END
>  <ID>  (1) 
conformer_0

$$$$
