
     RDKit          3D

 17 19  0  0  0  0  0  0  0  0999 V2000
   12.4334   -3.9215   33.3419 O   0  0  0  0  0  0  0  0  0  0  0  0
   11.1334   -3.6215   32.7419 P   0  0  0  0  0  4  0  0  0  0  0  0
   10.9334   -4.1215   31.3419 O   0  0  0  0  0  1  0  0  0  0  0  0
   10.1334   -4.1215   33.7419 O   0  0  0  0  0  0  0  0  0  0  0  0
   11.1334   -2.1215   32.7419 O   0  0  0  0  0  0  0  0  0  0  0  0
   12.4334   -1.5215   32.6419 C   0  0  0  0  0  0  0  0  0  0  0  0
   13.4334   -2.2215   31.8419 C   0  0  0  0  0  0  0  0  0  0  0  0
   14.1334   -1.4215   30.8419 N   0  0  0  0  0  0  0  0  0  0  0  0
   13.8334   -0.1215   31.1419 N   0  0  0  0  0  0  0  0  0  0  0  0
   12.9334   -0.2215   32.2419 C   0  0  0  0  0  0  0  0  0  0  0  0
   14.2334    1.0785   30.6419 C   0  0  0  0  0  0  0  0  0  0  0  0
   14.0334    2.2785   31.4419 C   0  0  0  0  0  0  0  0  0  0  0  0
   15.5334    1.1785   29.9419 N   0  0  0  0  0  0  0  0  0  0  0  0
   13.6334    1.9785   32.7419 C   0  0  0  0  0  0  0  0  0  0  0  0
   13.9334    2.9785   33.7419 N   0  0  0  0  0  0  0  0  0  0  0  0
   12.8334    1.8785   31.9419 N   0  0  0  0  0  0  0  0  0  0  0  0
   13.7334   -3.3215   32.7419 C   0  0  0  0  0  0  0  0  0  0  0  0
  2  1  1  0
  3  2  2  0
  4  2  1  0
  5  2  1  0
  6  5  1  0
  7  6  1  0
  8  7  1  0
  9  8  1  0
 10  6  1  0
 10  9  1  0
 11  9  1  0
 12 11  1  0
 13 11  1  0
 14 12  1  0
 15 14  1  0
 16 12  1  0
 16 14  1  0
 17  1  1  0
 17  7  1  0
M  END
>  <ID>  (1) 
conformer_0

$$$$
