
     RDKit          3D

 13 13  0  0  0  0  0  0  0  0999 V2000
   11.0600   -3.8099   31.4557 O   0  0  0  0  0  1  0  0  0  0  0  0
   11.0600   -3.6099   32.8557 P   0  0  0  0  0  4  0  0  0  0  0  0
   10.3600   -4.5099   33.7557 O   0  0  0  0  0  0  0  0  0  0  0  0
   12.4600   -3.9099   33.2557 O   0  0  0  0  0  0  0  0  0  0  0  0
   10.7600   -2.2099   33.2557 O   0  0  0  0  0  0  0  0  0  0  0  0
   11.7600   -1.2099   33.0557 C   0  0  0  0  0  0  0  0  0  0  0  0
   13.0600   -1.7099   33.0557 C   0  0  0  0  0  0  0  0  0  0  0  0
   13.4600   -3.0099   33.6557 C   0  0  0  0  0  0  0  0  0  0  0  0
   13.7600   -1.5099   31.7557 N   0  0  0  0  0  0  0  0  0  0  0  0
   13.8600   -0.4099   31.1557 N   0  0  0  0  0  0  0  0  0  0  0  0
   14.6600   -0.0099   30.1557 C   0  0  0  0  0  0  0  0  0  0  0  0
   14.6600    0.9901   29.2557 N   0  0  0  0  0  0  0  0  0  0  0  0
   15.6600    1.9901   29.4557 C   0  0  0  0  0  0  0  0  0  0  0  0
  2  1  2  0
  3  2  1  0
  4  2  1  0
  5  2  1  0
  6  5  1  0
  7  6  1  0
  8  4  1  0
  8  7  1  0
  9  7  1  0
 10  9  1  0
 11 10  2  3
 12 11  1  0
 13 12  1  0
M  END
>  <ID>  (1) 
conformer_0

$$$$
