
     RDKit          3D

 18 21  0  0  0  0  0  0  0  0999 V2000
   10.8764   -3.9594   31.1907 O   0  0  0  0  0  1  0  0  0  0  0  0
   11.0764   -3.8594   32.5907 P   0  0  0  0  0  4  0  0  0  0  0  0
   10.3764   -4.5594   33.6907 O   0  0  0  0  0  0  0  0  0  0  0  0
   12.4764   -3.7594   33.0907 O   0  0  0  0  0  0  0  0  0  0  0  0
   13.1764   -2.5594   33.4907 C   0  0  0  0  0  0  0  0  0  0  0  0
   12.3764   -1.5594   32.9907 C   0  0  0  0  0  0  0  0  0  0  0  0
   10.9764   -2.0594   32.8907 O   0  0  0  0  0  0  0  0  0  0  0  0
   12.6764   -0.2594   32.5907 C   0  0  0  0  0  0  0  0  0  0  0  0
   13.4764    0.7406   31.8907 C   0  0  0  0  0  0  0  0  0  0  0  0
   13.6764    1.9406   32.5907 C   0  0  0  0  0  0  0  0  0  0  0  0
   14.1764    0.4406   30.7907 N   0  0  0  0  0  0  0  0  0  0  0  0
   14.8764    0.4406   29.6907 C   0  0  0  0  0  0  0  0  0  0  0  0
   13.8764    3.1406   31.8907 C   0  0  0  0  0  0  0  0  0  0  0  0
   14.8764    1.6406   30.3907 C   0  0  0  0  0  0  0  0  0  0  0  0
   12.8764    4.2406   32.0907 N   0  0  0  0  0  0  0  0  0  0  0  0
   12.5764    4.4406   33.4907 C   0  0  0  0  0  0  0  0  0  0  0  0
   11.7764    3.4406   32.6907 C   0  0  0  0  0  0  0  0  0  0  0  0
   14.1764    2.6406   30.6907 N   0  0  0  0  0  0  0  0  0  0  0  0
  2  1  2  0
  3  2  1  0
  4  2  1  0
  5  4  1  0
  6  5  1  0
  7  2  1  0
  7  6  1  0
  8  6  1  0
  9  8  1  0
 10  9  1  0
 11  9  1  0
 12 11  1  0
 13 10  2  0
 14 11  1  0
 14 12  1  0
 15 13  1  0
 16 15  1  0
 17 15  1  0
 17 16  1  0
 18 13  1  0
 18 14  2  0
M  END
>  <ID>  (1) 
conformer_0

$$$$
