
     RDKit          3D

 15 16  0  0  0  0  0  0  0  0999 V2000
   10.8764   -3.9594   31.1907 O   0  0  0  0  0  1  0  0  0  0  0  0
   11.0764   -3.8594   32.5907 P   0  0  0  0  0  4  0  0  0  0  0  0
   12.3764   -3.9594   33.2907 O   0  0  0  0  0  0  0  0  0  0  0  0
   10.3764   -4.8594   33.3907 O   0  0  0  0  0  0  0  0  0  0  0  0
   10.4764   -2.6594   33.1907 O   0  0  0  0  0  0  0  0  0  0  0  0
   11.0764   -1.3594   33.4907 C   0  0  0  0  0  0  0  0  0  0  0  0
   12.4764   -1.5594   33.1907 C   0  0  0  0  0  0  0  0  0  0  0  0
   13.1764   -2.7594   33.5907 C   0  0  0  0  0  0  0  0  0  0  0  0
   13.0764   -0.7594   32.1907 N   0  0  0  0  0  0  0  0  0  0  0  0
   13.3764    0.5406   31.9907 C   0  0  0  0  0  0  0  0  0  0  0  0
   14.1764    1.1406   31.1907 N   0  0  0  0  0  4  0  0  0  0  0  0
   14.7764    1.5406   30.1907 C   0  0  0  0  0  0  0  0  0  0  0  0
   14.4764    0.2406   30.2907 N   0  0  0  0  0  0  0  0  0  0  0  0
   13.5764    1.7406   32.1907 C   0  0  0  0  0  0  0  0  0  0  0  0
   15.5764    1.9406   29.2907 C   0  0  0  0  0  0  0  0  0  0  0  0
  2  1  2  0
  3  2  1  0
  4  2  1  0
  5  2  1  0
  6  5  1  0
  7  6  1  0
  8  3  1  0
  8  7  1  0
  9  7  1  0
 10  9  2  3
 11 10  1  0
 12 11  1  0
 13 12  2  0
 14 10  1  0
 14 11  1  0
 15 12  1  0
M  END
>  <ID>  (1) 
conformer_0

$$$$
