
     RDKit          3D

 20 22  0  0  0  0  0  0  0  0999 V2000
   12.3743   -3.7149   33.4036 O   0  0  0  0  0  0  0  0  0  0  0  0
   11.0743   -3.8149   32.7036 P   0  0  0  0  0  4  0  0  0  0  0  0
   10.8743   -4.0149   31.3036 O   0  0  0  0  0  1  0  0  0  0  0  0
   10.3743   -4.9149   33.4036 O   0  0  0  0  0  0  0  0  0  0  0  0
   10.4743   -2.5149   33.0036 O   0  0  0  0  0  0  0  0  0  0  0  0
   13.2743   -2.6149   33.4036 C   0  0  0  0  0  0  0  0  0  0  0  0
   12.5743   -1.4149   32.9036 C   0  0  0  0  0  0  0  0  0  0  0  0
   11.1743   -1.3149   33.4036 C   0  0  0  0  0  0  0  0  0  0  0  0
   13.0743   -0.5149   31.9036 N   0  0  0  0  0  0  0  0  0  0  0  0
   13.3743    0.6851   31.9036 C   0  0  0  0  0  0  0  0  0  0  0  0
   12.9743    1.7851   32.5036 C   0  0  0  0  0  0  0  0  0  0  0  0
   13.4743    3.0851   32.6036 C   0  0  0  0  0  0  0  0  0  0  0  0
   12.6743    4.1851   32.6036 N   0  0  0  0  0  0  0  0  0  0  0  0
   11.5743    3.7851   32.0036 N   0  0  0  0  0  0  0  0  0  0  0  0
   13.9743   -1.1149   30.9036 N   0  0  0  0  0  0  0  0  0  0  0  0
   14.6743   -0.2149   30.1036 C   0  0  0  0  0  0  0  0  0  0  0  0
   14.4743    1.0851   30.8036 N   0  0  0  0  0  0  0  0  0  0  0  0
   14.8743    2.2851   30.5036 C   0  0  0  0  0  0  0  0  0  0  0  0
   14.4743    3.2851   31.5036 N   0  0  0  0  0  0  0  0  0  0  0  0
   11.5743    3.6851   33.4036 C   0  0  0  0  0  0  0  0  0  0  0  0
  2  1  1  0
  3  2  2  0
  4  2  1  0
  5  2  1  0
  6  1  1  0
  7  6  1  0
  8  5  1  0
  8  7  1  0
  9  7  1  0
 10  9  1  0
 11 10  1  0
 12 11  2  0
 13 12  1  0
 15  9  1  0
 16 15  2  0
 17 10  1  0
 17 16  1  0
 18 17  1  0
 19 12  1  0
 19 18  2  0
 20 13  1  0
 20 14  2  0
M  END
>  <ID>  (1) 
conformer_0

$$$$
