
     RDKit          3D

 15 16  0  0  0  0  0  0  0  0999 V2000
   10.9552   -3.8426   32.9602 P   0  0  0  0  0  4  0  0  0  0  0  0
   10.9552   -3.8426   31.4602 O   0  0  0  0  0  1  0  0  0  0  0  0
   10.1552   -4.7426   33.7602 O   0  0  0  0  0  0  0  0  0  0  0  0
   12.3552   -3.8426   33.4602 O   0  0  0  0  0  0  0  0  0  0  0  0
   10.3552   -2.5426   33.3602 O   0  0  0  0  0  0  0  0  0  0  0  0
   10.7552   -1.2426   33.6602 C   0  0  0  0  0  0  0  0  0  0  0  0
   11.3552   -0.3426   32.6602 C   0  0  0  0  0  0  0  0  0  0  0  0
   11.1552    1.0574   32.7602 C   0  0  0  0  0  0  0  0  0  0  0  0
   12.2552    1.9574   32.3602 C   0  0  0  0  0  0  0  0  0  0  0  0
   13.3552    0.9574   32.1602 C   0  0  0  0  0  0  0  0  0  0  0  0
   14.2552    1.4574   31.1602 N   0  0  0  0  0  0  0  0  0  0  0  0
   12.4552    2.9574   31.4602 N   0  0  0  0  0  0  0  0  0  0  0  0
   14.7552    0.6574   30.0602 C   0  0  0  0  0  0  0  0  0  0  0  0
   13.7552    2.6574   30.8602 C   0  0  0  0  0  0  0  0  0  0  0  0
   12.8552   -0.4426   32.1602 N   0  0  0  0  0  0  0  0  0  0  0  0
  2  1  2  0
  3  1  1  0
  4  1  1  0
  5  1  1  0
  6  5  1  0
  7  6  1  0
  8  7  1  0
  9  8  1  0
 10  9  1  0
 11 10  1  0
 12  9  1  0
 13 11  1  0
 14 11  1  0
 14 12  2  0
 15  7  1  0
 15 10  1  0
M  END
>  <ID>  (1) 
conformer_0

$$$$
