
     RDKit          3D

 16 19  0  0  0  0  0  0  0  0999 V2000
   11.0600   -3.8099   31.4557 O   0  0  0  0  0  1  0  0  0  0  0  0
   11.1600   -3.8099   32.8557 P   0  0  0  0  0  4  0  0  0  0  0  0
   10.1600   -4.3099   33.8557 O   0  0  0  0  0  0  0  0  0  0  0  0
   12.5600   -3.8099   33.3557 O   0  0  0  0  0  0  0  0  0  0  0  0
   10.8600   -2.4099   33.1557 O   0  0  0  0  0  0  0  0  0  0  0  0
   11.5600   -1.2099   33.1557 C   0  0  0  0  0  0  0  0  0  0  0  0
   12.9600   -1.5099   32.7557 C   0  0  0  0  0  0  0  0  0  0  0  0
   13.3600   -2.6099   33.6557 C   0  0  0  0  0  0  0  0  0  0  0  0
   11.1600    0.0901   32.6557 C   0  0  0  0  0  0  0  0  0  0  0  0
   13.4600   -0.4099   31.9557 N   0  0  0  0  0  0  0  0  0  0  0  0
   14.1600   -0.4099   30.8557 N   0  0  0  0  0  0  0  0  0  0  0  0
   14.6600    0.4901   30.1557 C   0  0  0  0  0  0  0  0  0  0  0  0
   14.8600    1.6901   29.5557 C   0  0  0  0  0  0  0  0  0  0  0  0
   14.1600    1.7901   30.8557 C   0  0  0  0  0  0  0  0  0  0  0  0
   13.2600    1.9901   31.8557 C   0  0  0  0  0  0  0  0  0  0  0  0
   12.6600    0.6901   32.3557 C   0  0  0  0  0  0  0  0  0  0  0  0
  2  1  2  0
  3  2  1  0
  4  2  1  0
  5  2  1  0
  6  5  1  0
  7  6  1  0
  8  4  1  0
  8  7  1  0
  9  6  1  0
 10  7  1  0
 11 10  1  0
 12 11  1  0
 13 12  1  0
 14 12  1  0
 14 13  1  0
 15 14  1  0
 16  9  1  0
 16 10  1  0
 16 15  1  0
M  END
>  <ID>  (1) 
conformer_0

$$$$
