
     RDKit          3D

 24 26  0  0  0  0  0  0  0  0999 V2000
   12.4334   -3.9215   33.3419 O   0  0  0  0  0  0  0  0  0  0  0  0
   11.0334   -3.7215   32.8419 P   0  0  0  0  0  4  0  0  0  0  0  0
   10.7334   -4.1215   31.4419 O   0  0  0  0  0  1  0  0  0  0  0  0
   10.0334   -4.2215   33.8419 O   0  0  0  0  0  0  0  0  0  0  0  0
   11.0334   -2.2215   32.8419 O   0  0  0  0  0  0  0  0  0  0  0  0
   12.2334   -1.5215   32.9419 C   0  0  0  0  0  0  0  0  0  0  0  0
   13.2334   -2.5215   33.4419 C   0  0  0  0  0  0  0  0  0  0  0  0
   12.8334   -0.4215   32.1419 C   0  0  0  0  0  0  0  0  0  0  0  0
   12.9334    0.9785   32.4419 C   0  0  0  0  0  0  0  0  0  0  0  0
   13.9334    1.5785   31.8419 C   0  0  0  0  0  0  0  0  0  0  0  0
   11.7334    1.5785   32.6419 N   0  0  0  0  0  0  0  0  0  0  0  0
   10.8335    1.7785   33.7419 C   0  0  0  0  0  0  0  0  0  0  0  0
   11.9334    2.7785   31.9419 N   0  0  0  0  0  0  0  0  0  0  0  0
   13.2334    2.9785   31.4419 C   0  0  0  0  0  0  0  0  0  0  0  0
   10.0335    0.8785   34.2419 N   0  0  0  0  0  0  0  0  0  0  0  0
   10.6335    3.0785   34.0419 C   0  0  0  0  0  0  0  0  0  0  0  0
   10.0335    3.0785   35.3419 C   0  0  0  0  0  0  0  0  0  0  0  0
    9.2334    0.8785   35.2419 C   0  0  0  0  0  0  0  0  0  0  0  0
    9.1335    2.1785   35.8419 N   0  0  0  0  0  0  0  0  0  0  0  0
    8.2335    2.3785   36.8419 C   0  0  0  0  0  0  0  0  0  0  0  0
    7.4335    3.3785   36.8419 O   0  0  0  0  0  0  0  0  0  0  0  0
   13.7334   -0.7215   31.0419 N   0  0  0  0  0  0  0  0  0  0  0  0
   14.5334   -0.1215   30.2419 N   0  0  0  0  0  0  0  0  0  0  0  0
   15.2334    0.8785   29.6419 C   0  0  0  0  0  3  0  0  0  0  0  0
  2  1  1  0
  3  2  2  0
  4  2  1  0
  5  2  1  0
  6  5  1  0
  7  1  1  0
  7  6  1  0
  8  6  1  0
  9  8  1  0
 10  9  2  0
 11  9  1  0
 12 11  1  0
 13 11  1  0
 14 10  1  0
 14 13  2  0
 15 12  1  0
 16 12  2  0
 17 16  1  0
 18 15  2  0
 19 17  1  0
 19 18  1  0
 20 19  1  0
 21 20  2  0
 22  8  2  3
 23 22  1  0
 24 23  2  0
M  END
>  <ID>  (1) 
conformer_0

$$$$
