
     RDKit          3D

 17 19  0  0  0  0  0  0  0  0999 V2000
   12.3743   -3.7149   33.4036 O   0  0  0  0  0  0  0  0  0  0  0  0
   11.0743   -3.8149   32.7036 P   0  0  0  0  0  4  0  0  0  0  0  0
   10.8743   -4.1149   31.3036 O   0  0  0  0  0  1  0  0  0  0  0  0
   10.3743   -4.7149   33.6036 O   0  0  0  0  0  0  0  0  0  0  0  0
   10.5743   -2.4149   32.8036 O   0  0  0  0  0  0  0  0  0  0  0  0
   13.1743   -2.5149   33.6036 C   0  0  0  0  0  0  0  0  0  0  0  0
   12.7743   -1.5149   32.6036 C   0  0  0  0  0  0  0  0  0  0  0  0
   11.3743   -1.2149   32.8036 C   0  0  0  0  0  0  0  0  0  0  0  0
   13.4743   -0.6149   31.7036 N   0  0  0  0  0  0  0  0  0  0  0  0
   13.5743    0.6851   32.1036 C   0  0  0  0  0  0  0  0  0  0  0  0
   14.2743   -1.0149   30.7036 N   0  0  0  0  0  0  0  0  0  0  0  0
   14.7743    0.0851   30.0036 C   0  0  0  0  0  0  0  0  0  0  0  0
   14.1743    1.0851   30.8036 C   0  0  0  0  0  0  0  0  0  0  0  0
   14.5743    2.3851   30.6036 C   0  0  0  0  0  0  0  0  0  0  0  0
   12.5743    1.7851   32.3036 C   0  0  0  0  0  0  0  0  0  0  0  0
   12.5743    2.8851   31.4036 N   0  0  0  0  0  0  0  0  0  0  0  0
   13.7743    3.2851   31.4036 N   0  0  0  0  0  0  0  0  0  0  0  0
  2  1  1  0
  3  2  2  0
  4  2  1  0
  5  2  1  0
  6  1  1  0
  7  6  1  0
  8  5  1  0
  8  7  1  0
  9  7  1  0
 10  9  1  0
 11  9  1  0
 12 11  2  0
 13 10  2  0
 13 12  1  0
 14 13  1  0
 15 10  1  0
 16 15  1  0
 17 14  1  0
 17 16  1  0
M  END
>  <ID>  (1) 
conformer_0

$$$$
