
     RDKit          3D

 19 21  0  0  0  0  0  0  0  0999 V2000
   12.2365   -3.7674   33.2043 O   0  0  0  0  0  0  0  0  0  0  0  0
   10.8365   -3.8674   32.8043 P   0  0  0  0  0  4  0  0  0  0  0  0
   10.7365   -4.2674   31.4043 O   0  0  0  0  0  1  0  0  0  0  0  0
   10.2365   -4.9674   33.6043 O   0  0  0  0  0  0  0  0  0  0  0  0
   10.0365   -2.6674   33.2043 O   0  0  0  0  0  0  0  0  0  0  0  0
   12.9365   -2.4674   33.4043 C   0  0  0  0  0  0  0  0  0  0  0  0
   12.0365   -1.4674   33.1043 C   0  0  0  0  0  0  0  0  0  0  0  0
   10.7365   -1.6674   33.8043 C   0  0  0  0  0  0  0  0  0  0  0  0
   12.1365   -0.6674   32.0043 O   0  0  0  0  0  0  0  0  0  0  0  0
   13.1365    0.3326   32.0043 C   0  0  0  0  0  0  0  0  0  0  0  0
   13.9365    0.3326   30.9043 N   0  0  0  0  0  0  0  0  0  0  0  0
   14.7365    1.3326   30.5043 C   0  0  0  0  0  0  0  0  0  0  0  0
   15.7365    1.3326   29.8043 N   0  0  0  0  0  0  0  0  0  0  0  0
   14.4365   -0.7674   30.3043 N   0  0  0  0  0  0  0  0  0  0  0  0
   14.6365    1.3326   29.2043 N   0  0  0  0  0  0  0  0  0  0  0  0
   12.7365    1.7326   32.3043 C   0  0  0  0  0  0  0  0  0  0  0  0
   11.5365    1.8326   33.1043 O   0  0  0  0  0  0  0  0  0  0  0  0
   15.0365   -0.6674   29.2043 N   0  0  0  0  0  0  0  0  0  0  0  0
   15.3365    0.4326   28.8043 C   0  0  0  0  0  0  0  0  0  0  0  0
  2  1  1  0
  3  2  2  0
  4  2  1  0
  5  2  1  0
  6  1  1  0
  7  6  1  0
  8  5  1  0
  8  7  1  0
  9  7  1  0
 10  9  1  0
 11 10  1  0
 12 11  1  0
 13 12  1  0
 14 11  1  0
 15 12  1  0
 16 10  1  0
 17 16  1  0
 18 14  1  0
 19 13  1  0
 19 15  1  0
 19 18  2  0
M  END
>  <ID>  (1) 
conformer_0

$$$$
