
     RDKit          3D

 13 13  0  0  0  0  0  0  0  0999 V2000
   12.3743   -3.7149   33.4036 O   0  0  0  0  0  1  0  0  0  0  0  0
   11.0743   -3.6149   32.8036 P   0  0  0  0  0  4  0  0  0  0  0  0
   10.9743   -4.0149   31.4036 O   0  0  0  0  0  0  0  0  0  0  0  0
   10.2743   -4.5149   33.6036 O   0  0  0  0  0  0  0  0  0  0  0  0
   10.6743   -2.2149   33.0036 O   0  0  0  0  0  0  0  0  0  0  0  0
   11.3743   -1.0149   32.9036 C   0  0  0  0  0  0  0  0  0  0  0  0
   12.7743   -1.3149   32.6036 C   0  0  0  0  0  0  0  0  0  0  0  0
   13.3743   -0.5149   31.6036 N   0  0  0  0  0  0  0  0  0  0  0  0
   14.1743   -1.2149   30.7036 N   0  0  0  0  0  0  0  0  0  0  0  0
   14.7743   -0.1149   29.9036 C   0  0  0  0  0  0  0  0  0  0  0  0
   14.4743    1.1851   30.4036 C   0  0  0  0  0  0  0  0  0  0  0  0
   13.4743    0.7851   31.6036 C   0  0  0  0  0  0  0  0  0  0  0  0
   14.9743    2.3851   30.3036 C   0  0  0  0  0  0  0  0  0  0  0  0
  2  1  2  0
  3  2  1  0
  4  2  1  0
  5  2  1  0
  6  5  1  0
  7  6  1  0
  8  7  1  0
  9  8  1  0
 10  9  2  0
 11 10  1  0
 12  8  1  0
 12 11  2  0
 13 11  1  0
M  END
>  <ID>  (1) 
conformer_0

$$$$
