
     RDKit          3D

 22 24  0  0  0  0  0  0  0  0999 V2000
   11.0600   -3.8099   31.4557 O   0  0  0  0  0  1  0  0  0  0  0  0
   11.0600   -3.6099   32.8557 P   0  0  0  0  0  4  0  0  0  0  0  0
   10.3600   -4.7099   33.5557 O   0  0  0  0  0  0  0  0  0  0  0  0
   12.4600   -3.7099   33.3557 O   0  0  0  0  0  0  0  0  0  0  0  0
   10.4600   -2.3099   33.2557 O   0  0  0  0  0  0  0  0  0  0  0  0
   11.1600   -1.0099   33.1557 C   0  0  0  0  0  0  0  0  0  0  0  0
   12.5600   -1.4099   32.8557 C   0  0  0  0  0  0  0  0  0  0  0  0
   13.1600   -2.4099   33.6557 C   0  0  0  0  0  0  0  0  0  0  0  0
   13.2600   -0.4099   32.0557 N   0  0  0  0  0  0  0  0  0  0  0  0
   13.5600    0.7901   31.8557 C   0  0  0  0  0  0  0  0  0  0  0  0
   12.7600    1.8901   32.1557 C   0  0  0  0  0  0  0  0  0  0  0  0
   13.2600    3.1901   32.3557 C   0  0  0  0  0  0  0  0  0  0  0  0
   12.3600    4.1901   31.9557 N   0  0  0  0  0  0  0  0  0  0  0  0
   11.1600    3.5901   32.0557 N   0  0  0  0  0  0  0  0  0  0  0  0
   11.6600    1.4901   32.9557 N   0  0  0  0  0  0  0  0  0  0  0  0
   10.8600    2.6901   32.9557 C   0  0  0  0  0  0  0  0  0  0  0  0
   14.2600   -1.2099   31.3557 N   0  0  0  0  0  0  0  0  0  0  0  0
   14.6600   -0.8099   30.2557 N   0  0  0  0  0  0  0  0  0  0  0  0
   14.9600    0.3901   29.7557 C   0  0  0  0  0  0  0  0  0  0  0  0
   14.3600    1.0901   30.7557 C   0  0  0  0  0  0  0  0  0  0  0  0
    9.9600    2.7901   34.0557 N   0  0  0  0  0  0  0  0  0  0  0  0
   15.0600    2.3901   30.7557 F   0  0  0  0  0  0  0  0  0  0  0  0
  2  1  2  0
  3  2  1  0
  4  2  1  0
  5  2  1  0
  6  5  1  0
  7  6  1  0
  8  4  1  0
  8  7  1  0
  9  7  1  0
 10  9  1  0
 11 10  1  0
 12 11  1  0
 13 12  1  0
 14 13  1  0
 15 11  1  0
 16 14  2  0
 16 15  1  0
 17  9  1  0
 18 17  2  0
 19 18  1  0
 20 10  1  0
 20 19  2  0
 21 16  1  0
 22 20  1  0
M  END
>  <ID>  (1) 
conformer_0

$$$$
