
     RDKit          3D

 21 23  0  0  0  0  0  0  0  0999 V2000
   11.0600   -3.8099   31.4557 O   0  0  0  0  0  1  0  0  0  0  0  0
   11.0600   -3.6099   32.8557 P   0  0  0  0  0  4  0  0  0  0  0  0
   10.3600   -4.7099   33.5557 O   0  0  0  0  0  0  0  0  0  0  0  0
   12.4600   -3.7099   33.3557 O   0  0  0  0  0  0  0  0  0  0  0  0
   10.4600   -2.3099   33.2557 O   0  0  0  0  0  0  0  0  0  0  0  0
   11.1600   -1.0099   33.1557 C   0  0  0  0  0  0  0  0  0  0  0  0
   12.5600   -1.4099   32.8557 C   0  0  0  0  0  0  0  0  0  0  0  0
   13.1600   -2.4099   33.6557 C   0  0  0  0  0  0  0  0  0  0  0  0
   13.2600   -0.4099   32.0557 N   0  0  0  0  0  0  0  0  0  0  0  0
   13.6600    0.7901   32.3557 C   0  0  0  0  0  0  0  0  0  0  0  0
   13.2600    2.0901   32.5557 C   0  0  0  0  0  0  0  0  0  0  0  0
   13.9600    3.0901   31.8557 C   0  0  0  0  0  0  0  0  0  0  0  0
   13.8600    4.3901   32.1557 N   0  0  0  0  0  0  0  0  0  0  0  0
   12.5600    4.2901   32.8557 N   0  0  0  0  0  0  0  0  0  0  0  0
   13.6600    4.2901   33.5557 C   0  0  0  0  0  0  0  0  0  0  0  0
   14.0600   -1.0099   31.0557 N   0  0  0  0  0  0  0  0  0  0  0  0
   14.5600   -0.1099   30.0557 C   0  0  0  0  0  0  0  0  0  0  0  0
   14.2600    0.9901   30.7557 C   0  0  0  0  0  0  0  0  0  0  0  0
   14.6600    2.3901   30.7557 C   0  0  0  0  0  0  0  0  0  0  0  0
   15.6600    2.2901   29.6557 C   0  0  0  0  0  0  0  0  0  0  0  0
   14.3600    5.1901   34.4557 C   0  0  0  0  0  0  0  0  0  0  0  0
  2  1  2  0
  3  2  1  0
  4  2  1  0
  5  2  1  0
  6  5  1  0
  7  6  1  0
  8  4  1  0
  8  7  1  0
  9  7  1  0
 10  9  1  0
 11 10  2  0
 12 11  1  0
 13 12  1  0
 15 13  1  0
 15 14  1  0
 16  9  1  0
 17 16  2  0
 18 10  1  0
 18 17  1  0
 19 12  2  0
 19 18  1  0
 20 19  1  0
 21 15  1  0
M  END
>  <ID>  (1) 
conformer_0

$$$$
