
     RDKit          3D

 12 12  0  0  0  0  0  0  0  0999 V2000
   10.8764   -3.9594   31.1907 O   0  0  0  0  0  1  0  0  0  0  0  0
   11.1764   -3.5594   32.5907 P   0  0  0  0  0  4  0  0  0  0  0  0
   12.3764   -4.0594   33.2907 O   0  0  0  0  0  0  0  0  0  0  0  0
    9.8764   -3.3594   33.2907 O   0  0  0  0  0  0  0  0  0  0  0  0
   11.5764   -2.1594   32.2907 O   0  0  0  0  0  0  0  0  0  0  0  0
   12.6764   -1.3594   32.6907 C   0  0  0  0  0  0  0  0  0  0  0  0
   12.9764   -0.0594   32.0907 C   0  0  0  0  0  0  0  0  0  0  0  0
   13.9764   -0.2594   31.0907 N   0  0  0  0  0  0  0  0  0  0  0  0
   14.5764    0.6406   30.1907 C   0  0  0  0  0  0  0  0  0  0  0  0
   14.3764    1.8406   30.7907 C   0  0  0  0  0  0  0  0  0  0  0  0
   13.9764    1.9406   32.0907 C   0  0  0  0  0  0  0  0  0  0  0  0
   12.9764    1.1406   32.4907 C   0  0  0  0  0  0  0  0  0  0  0  0
  2  1  2  0
  3  2  1  0
  4  2  1  0
  5  2  1  0
  6  5  1  0
  7  6  1  0
  8  7  2  0
  9  8  1  0
 10  9  2  0
 11 10  1  0
 12  7  1  0
 12 11  2  0
M  END
>  <ID>  (1) 
conformer_0

$$$$
