
     RDKit          3D

 18 20  0  0  0  0  0  0  0  0999 V2000
   12.4334   -3.9215   33.3419 O   0  0  0  0  0  1  0  0  0  0  0  0
   11.1334   -3.6215   32.7419 P   0  0  0  0  0  4  0  0  0  0  0  0
   10.9334   -4.0215   31.3419 O   0  0  0  0  0  0  0  0  0  0  0  0
   10.1334   -4.0215   33.7419 O   0  0  0  0  0  0  0  0  0  0  0  0
   11.1334   -2.1215   32.7419 O   0  0  0  0  0  0  0  0  0  0  0  0
   12.1334   -1.1215   32.8419 C   0  0  0  0  0  0  0  0  0  0  0  0
   11.9334    0.2785   32.5419 C   0  0  0  0  0  0  0  0  0  0  0  0
   13.2334    0.8785   32.1419 C   0  0  0  0  0  0  0  0  0  0  0  0
   13.5334    2.1785   32.7419 C   0  0  0  0  0  0  0  0  0  0  0  0
   14.0334    0.4785   31.0419 N   0  0  0  0  0  0  0  0  0  0  0  0
   14.6334    1.6785   30.6419 C   0  0  0  0  0  0  0  0  0  0  0  0
   15.6334    1.8785   29.5419 S   0  0  0  0  0  0  0  0  0  0  0  0
   14.5334    2.7785   31.6419 N   0  0  0  0  0  0  0  0  0  0  0  0
   10.5334    0.4785   32.3419 O   0  0  0  0  0  0  0  0  0  0  0  0
   11.1334    1.2785   33.2419 C   0  0  0  0  0  0  0  0  0  0  0  0
   11.1334    2.6785   32.9419 C   0  0  0  0  0  0  0  0  0  0  0  0
   10.1334    2.9785   31.9419 O   0  0  0  0  0  0  0  0  0  0  0  0
   12.4334    3.1785   32.7419 C   0  0  0  0  0  0  0  0  0  0  0  0
  2  1  2  0
  3  2  1  0
  4  2  1  0
  5  2  1  0
  6  5  1  0
  7  6  1  0
  8  7  1  0
  9  8  1  0
 10  8  1  0
 11 10  1  0
 12 11  2  0
 13  9  1  0
 13 11  1  0
 14  7  1  0
 15  7  1  0
 15 14  1  0
 16 15  1  0
 17 16  1  0
 18  9  1  0
 18 16  1  0
M  END
>  <ID>  (1) 
conformer_0

$$$$
