
     RDKit          3D

 14 16  0  0  0  0  0  0  0  0999 V2000
   10.8764   -3.9594   31.1907 O   0  0  0  0  0  1  0  0  0  0  0  0
   11.0764   -3.8594   32.5907 P   0  0  0  0  0  4  0  0  0  0  0  0
   10.3764   -4.5594   33.6907 O   0  0  0  0  0  0  0  0  0  0  0  0
   12.4764   -3.7594   33.0907 O   0  0  0  0  0  0  0  0  0  0  0  0
   13.1764   -2.5594   33.4907 C   0  0  0  0  0  0  0  0  0  0  0  0
   12.3764   -1.5594   32.9907 C   0  0  0  0  0  0  0  0  0  0  0  0
   10.9764   -2.0594   32.8907 O   0  0  0  0  0  0  0  0  0  0  0  0
   12.8764   -0.3594   32.2907 C   0  0  0  0  0  0  0  0  0  0  0  0
   12.8764    1.0406   32.5907 C   0  0  0  0  0  0  0  0  0  0  0  0
   11.7764    1.9406   32.2907 C   0  0  0  0  0  0  0  0  0  0  0  0
   11.7764    3.1406   33.0907 C   0  0  0  0  0  0  0  0  0  0  0  0
   13.9764    1.9406   32.9907 N   0  0  0  0  0  0  0  0  0  0  0  0
   12.4764    3.2406   31.7907 N   0  0  0  0  0  0  0  0  0  0  0  0
   13.8764    3.2406   32.2907 C   0  0  0  0  0  0  0  0  0  0  0  0
  2  1  2  0
  3  2  1  0
  4  2  1  0
  5  4  1  0
  6  5  1  0
  7  2  1  0
  7  6  1  0
  8  6  1  0
  9  8  1  0
 10  9  1  0
 11 10  1  0
 12  9  1  0
 13 10  1  0
 13 11  1  0
 14 12  1  0
 14 13  1  0
M  END
>  <ID>  (1) 
conformer_0

$$$$
