
     RDKit          3D

 24 27  0  0  0  0  0  0  0  0999 V2000
   10.8764   -3.9594   31.1907 O   0  0  0  0  0  1  0  0  0  0  0  0
   11.0764   -3.8594   32.5907 P   0  0  0  0  0  4  0  0  0  0  0  0
   10.3764   -4.5594   33.6907 O   0  0  0  0  0  0  0  0  0  0  0  0
   12.4764   -3.7594   33.0907 O   0  0  0  0  0  0  0  0  0  0  0  0
   13.1764   -2.5594   33.4907 C   0  0  0  0  0  0  0  0  0  0  0  0
   12.3764   -1.5594   32.9907 C   0  0  0  0  0  0  0  0  0  0  0  0
   10.9764   -2.0594   32.8907 O   0  0  0  0  0  0  0  0  0  0  0  0
   12.6764   -0.2594   32.5907 C   0  0  0  0  0  0  0  0  0  0  0  0
   13.4764    0.7406   31.8907 C   0  0  0  0  0  0  0  0  0  0  0  0
   13.6764    1.9406   32.5907 C   0  0  0  0  0  0  0  0  0  0  0  0
   14.1764    0.4406   30.7907 N   0  0  0  0  0  0  0  0  0  0  0  0
   14.8764    0.2406   29.7907 C   0  0  0  0  0  0  0  0  0  0  0  0
   12.7764    3.0406   32.8907 C   0  0  0  0  0  0  0  0  0  0  0  0
   13.5764    4.2406   32.9907 C   0  0  0  0  0  0  0  0  0  0  0  0
   11.7764    2.9406   31.7907 C   0  0  0  0  0  0  0  0  0  0  0  0
   11.0764    4.1406   31.7907 N   0  0  0  0  0  4  0  0  0  0  0  0
   12.0764    5.0406   31.5907 N   0  0  0  0  0  0  0  0  0  0  0  0
   11.3764    5.0406   32.6907 C   0  0  0  0  0  0  0  0  0  0  0  0
   14.7764    1.5406   30.2907 C   0  0  0  0  0  0  0  0  0  0  0  0
   15.7764    2.2406   29.5907 C   0  0  0  0  0  0  0  0  0  0  0  0
   14.6764    4.2406   33.8907 N   0  0  0  0  0  0  0  0  0  0  0  0
   13.7764    5.3406   33.5907 C   0  0  0  0  0  0  0  0  0  0  0  0
   10.3764    3.0406   32.0907 C   0  0  0  0  0  0  0  0  0  0  0  0
    9.5764    2.3406   31.5907 O   0  0  0  0  0  0  0  0  0  0  0  0
  2  1  2  0
  3  2  1  0
  4  2  1  0
  5  4  1  0
  6  5  1  0
  7  2  1  0
  7  6  1  0
  8  6  1  0
  9  8  1  0
 10  9  1  0
 11  9  1  0
 12 11  1  0
 13 10  1  0
 14 13  1  0
 15 13  1  0
 16 15  1  0
 18 16  1  0
 18 17  2  0
 19 11  1  0
 19 12  2  0
 20 19  1  0
 21 14  1  0
 22 14  1  0
 22 21  1  0
 23 15  1  0
 23 16  1  0
 24 23  2  0
M  END
>  <ID>  (1) 
conformer_0

$$$$
