
     RDKit          3D

 21 24  0  0  0  0  0  0  0  0999 V2000
   12.4334   -3.9215   33.3419 O   0  0  0  0  0  0  0  0  0  0  0  0
   11.0334   -3.7215   32.8419 P   0  0  0  0  0  4  0  0  0  0  0  0
   10.7334   -4.1215   31.4419 O   0  0  0  0  0  1  0  0  0  0  0  0
   10.0334   -4.2215   33.8419 O   0  0  0  0  0  0  0  0  0  0  0  0
   11.0334   -2.2215   32.8419 O   0  0  0  0  0  0  0  0  0  0  0  0
   12.2334   -1.5215   32.9419 C   0  0  0  0  0  0  0  0  0  0  0  0
   13.2334   -2.5215   33.4419 C   0  0  0  0  0  0  0  0  0  0  0  0
   12.8334   -0.4215   32.1419 C   0  0  0  0  0  0  0  0  0  0  0  0
   12.9334    0.9785   32.4419 C   0  0  0  0  0  0  0  0  0  0  0  0
   13.9334    1.5785   31.8419 C   0  0  0  0  0  0  0  0  0  0  0  0
   11.8334    1.6785   32.8419 N   0  0  0  0  0  0  0  0  0  0  0  0
   11.8334    2.9785   32.3419 C   0  0  0  0  0  0  0  0  0  0  0  0
   12.5334    3.1785   31.2419 N   0  0  0  0  0  0  0  0  0  0  0  0
   13.8334    2.8785   31.6419 C   0  0  0  0  0  3  0  0  0  0  0  0
   12.1334    2.7785   33.5419 N   0  0  0  0  0  0  0  0  0  0  0  0
   13.8334   -0.7215   31.1419 N   0  0  0  0  0  0  0  0  0  0  0  0
   14.6334   -0.2215   30.2419 N   0  0  0  0  0  0  0  0  0  0  0  0
   14.9334    0.9785   29.7419 C   0  0  0  0  0  0  0  0  0  0  0  0
   14.1334    2.4785   32.8419 N   0  0  0  0  0  0  0  0  0  0  0  0
   15.5335    2.1785   30.0419 C   0  0  0  0  0  0  0  0  0  0  0  0
   14.3335    2.0785   29.2419 C   0  0  0  0  0  0  0  0  0  0  0  0
  2  1  1  0
  3  2  2  0
  4  2  1  0
  5  2  1  0
  6  5  1  0
  7  1  1  0
  7  6  1  0
  8  6  1  0
  9  8  1  0
 10  9  1  0
 11  9  1  0
 12 11  1  0
 13 12  2  0
 14 10  1  0
 14 13  1  0
 15 12  1  0
 16  8  1  0
 17 16  2  3
 18 17  1  0
 19 10  1  0
 19 14  1  0
 20 18  1  0
 21 18  1  0
 21 20  1  0
M  END
>  <ID>  (1) 
conformer_0

$$$$
