
     RDKit          3D

 22 25  0  0  0  0  0  0  0  0999 V2000
   11.0600   -3.8099   31.4557 O   0  0  0  0  0  1  0  0  0  0  0  0
   11.0600   -3.6099   32.8557 P   0  0  0  0  0  4  0  0  0  0  0  0
   10.3600   -4.7099   33.5557 O   0  0  0  0  0  0  0  0  0  0  0  0
   12.4600   -3.7099   33.3557 O   0  0  0  0  0  0  0  0  0  0  0  0
   10.4600   -2.3099   33.2557 O   0  0  0  0  0  0  0  0  0  0  0  0
   11.1600   -1.0099   33.1557 C   0  0  0  0  0  0  0  0  0  0  0  0
   12.5600   -1.4099   32.8557 C   0  0  0  0  0  0  0  0  0  0  0  0
   13.1600   -2.4099   33.6557 C   0  0  0  0  0  0  0  0  0  0  0  0
   13.2600   -0.4099   32.0557 N   0  0  0  0  0  0  0  0  0  0  0  0
   13.5600    0.7901   31.8557 C   0  0  0  0  0  0  0  0  0  0  0  0
   12.7600    1.8901   32.1557 C   0  0  0  0  0  0  0  0  0  0  0  0
   13.2600    3.1901   32.3557 C   0  0  0  0  0  0  0  0  0  0  0  0
   12.4600    4.1901   32.0557 N   0  0  0  0  0  0  0  0  0  0  0  0
   11.3600    3.6901   31.3557 N   0  0  0  0  0  0  0  0  0  0  0  0
   11.4600    1.4901   32.4557 N   0  0  0  0  0  0  0  0  0  0  0  0
   11.0600    0.2901   32.5557 C   0  0  0  0  0  0  0  0  0  0  0  0
   11.1600    3.8901   32.6557 C   0  0  0  0  0  0  0  0  0  0  0  0
   14.0600   -1.1099   31.0557 N   0  0  0  0  0  0  0  0  0  0  0  0
   14.6600   -0.2099   30.1557 C   0  0  0  0  0  0  0  0  0  0  0  0
   14.5600    0.9901   30.9557 N   0  0  0  0  0  0  0  0  0  0  0  0
   10.4600    1.4901   33.0557 C   0  0  0  0  0  0  0  0  0  0  0  0
   15.5600   -0.1099   29.2557 N   0  0  0  0  0  0  0  0  0  0  0  0
  2  1  2  0
  3  2  1  0
  4  2  1  0
  5  2  1  0
  6  5  1  0
  7  6  1  0
  8  4  1  0
  8  7  1  0
  9  7  1  0
 10  9  1  0
 11 10  2  0
 12 11  1  0
 13 12  1  0
 15 11  1  0
 16  6  2  0
 16 15  1  0
 17 13  1  0
 17 14  2  0
 18  9  1  0
 19 18  2  0
 20 10  1  0
 20 19  1  0
 21 15  1  0
 21 16  1  0
 22 19  1  0
M  END
>  <ID>  (1) 
conformer_0

$$$$
