
     RDKit          3D

 13 13  0  0  0  0  0  0  0  0999 V2000
   12.3535   -3.7544   33.2828 O   0  0  0  0  0  1  0  0  0  0  0  0
   11.0535   -3.7544   32.6828 P   0  0  0  0  0  4  0  0  0  0  0  0
   10.9535   -4.1544   31.2828 O   0  0  0  0  0  0  0  0  0  0  0  0
   10.0535   -4.2544   33.6828 O   0  0  0  0  0  0  0  0  0  0  0  0
   10.8535   -2.3544   32.4828 O   0  0  0  0  0  0  0  0  0  0  0  0
   11.9535   -1.4544   32.2828 C   0  0  0  0  0  0  0  0  0  0  0  0
   11.9535   -0.0544   32.3828 C   0  0  0  0  0  0  0  0  0  0  0  0
   13.1535    0.5456   31.8828 N   0  0  0  0  0  0  0  0  0  0  0  0
   13.7535    1.6456   32.3828 C   0  0  0  0  0  0  0  0  0  0  0  0
   13.8535   -0.1544   30.9828 N   0  0  0  0  0  0  0  0  0  0  0  0
   14.6535    0.1456   29.9828 C   0  0  0  0  0  0  0  0  0  0  0  0
   14.4535    2.3456   31.2828 C   0  0  0  0  0  0  0  0  0  0  0  0
   15.0535    1.5456   30.2828 C   0  0  0  0  0  0  0  0  0  0  0  0
  2  1  2  0
  3  2  1  0
  4  2  1  0
  5  2  1  0
  6  5  1  0
  7  6  1  0
  8  7  1  0
  9  8  1  0
 10  8  1  0
 11 10  1  0
 12  9  1  0
 13 11  1  0
 13 12  1  0
M  END
>  <ID>  (1) 
conformer_0

$$$$
