
     RDKit          3D

 18 20  0  0  0  0  0  0  0  0999 V2000
   11.0600   -3.8099   31.4557 O   0  0  0  0  0  1  0  0  0  0  0  0
   11.0600   -3.6099   32.8557 P   0  0  0  0  0  4  0  0  0  0  0  0
   10.3600   -4.7099   33.5557 O   0  0  0  0  0  0  0  0  0  0  0  0
   12.4600   -3.7099   33.3557 O   0  0  0  0  0  0  0  0  0  0  0  0
   10.4600   -2.3099   33.2557 O   0  0  0  0  0  0  0  0  0  0  0  0
   11.1600   -1.0099   33.1557 C   0  0  0  0  0  0  0  0  0  0  0  0
   12.5600   -1.4099   32.8557 C   0  0  0  0  0  0  0  0  0  0  0  0
   13.1600   -2.5099   33.6557 C   0  0  0  0  0  0  0  0  0  0  0  0
   13.2600   -0.6099   32.0557 N   0  0  0  0  0  0  0  0  0  0  0  0
   14.1600   -0.7099   31.0557 N   0  0  0  0  0  0  0  0  0  0  0  0
   14.5600    0.3901   30.4557 C   0  0  0  0  0  0  0  0  0  0  0  0
   14.0600    1.4901   31.0557 C   0  0  0  0  0  0  0  0  0  0  0  0
   14.3600    2.7901   31.3557 C   0  0  0  0  0  0  0  0  0  0  0  0
   13.2600    0.7901   32.2557 C   0  0  0  0  0  0  0  0  0  0  0  0
   13.3600    3.3901   32.2557 C   0  0  0  0  0  0  0  0  0  0  0  0
   12.0600    2.7901   32.0557 C   0  0  0  0  0  0  0  0  0  0  0  0
   10.9600    3.4901   31.7557 N   0  0  0  0  0  0  0  0  0  0  0  0
   12.6600    2.7901   32.9557 N   0  0  0  0  0  0  0  0  0  0  0  0
  2  1  2  0
  3  2  1  0
  4  2  1  0
  5  2  1  0
  6  5  1  0
  7  6  1  0
  8  4  1  0
  8  7  1  0
  9  7  1  0
 10  9  1  0
 11 10  2  0
 12 11  1  0
 13 12  1  0
 14  9  1  0
 14 12  2  0
 15 13  1  0
 16 15  1  0
 17 16  1  0
 18 15  1  0
 18 16  1  0
M  END
>  <ID>  (1) 
conformer_0

$$$$
