
     RDKit          3D

 18 20  0  0  0  0  0  0  0  0999 V2000
   13.4538   35.7254   15.6648 C   0  0  0  0  0  0  0  0  0  0  0  0
   12.1626   33.3893   15.5520 C   0  0  0  0  0  3  0  0  0  0  0  0
   16.6349   34.1460   13.0376 C   0  0  0  0  0  0  0  0  0  0  0  0
   12.4828   36.2210   16.6764 C   0  0  0  0  0  0  0  0  0  0  0  0
   14.3887   33.0247   13.9297 S   0  0  0  0  0  4  0  0  0  0  0  0
    9.7839   32.6349   17.0057 N   0  0  0  0  0  0  0  0  0  0  0  0
   13.4423   34.2859   14.8727 C   0  0  0  0  0  0  0  0  0  0  0  0
   17.9634   35.2221   11.1516 N   0  0  0  0  0  0  0  0  0  0  0  0
   15.3548   32.0258   14.7868 O   0  0  0  0  0  1  0  0  0  0  0  0
   10.6767   33.0712   16.6372 C   0  0  0  0  0  0  0  0  0  0  0  0
   15.2387   34.8619   11.5532 C   0  0  0  0  0  0  0  0  0  0  0  0
   17.4358   35.6974   13.1052 C   0  0  0  0  0  0  0  0  0  0  0  0
   11.6527   34.5332   16.3015 C   0  0  0  0  0  0  0  0  0  0  0  0
   10.7636   35.4383   17.1740 C   0  0  0  0  0  0  0  0  0  0  0  0
   13.7263   32.2431   13.2952 O   0  0  0  0  0  1  0  0  0  0  0  0
   17.1836   35.5293   11.7824 C   0  0  0  0  0  0  0  0  0  0  0  0
   10.9438   31.3440   16.2976 N   0  0  0  0  0  0  0  0  0  0  0  0
   15.5263   34.3889   12.7148 N   0  0  0  0  0  0  0  0  0  0  0  0
  4  1  2  0
  7  1  1  0
  7  2  1  0
  7  5  1  0
  9  5  1  0
 10  2  1  0
 10  6  1  0
 12  3  1  0
 13  2  1  0
 13  4  1  0
 13 10  1  0
 14  4  1  0
 14 13  1  0
 15  5  1  0
 16  8  1  0
 16 12  1  0
 17 10  1  0
 18  3  1  0
 18  5  1  0
 18 11  1  0
M  RAD  3   2   2   9   2  15   2
M  END
>  <ID>  (1) 
conformer_0

$$$$
