
     RDKit          3D

 18 20  0  0  0  0  0  0  0  0999 V2000
   13.7538   35.6221   15.4184 C   0  0  0  0  0  0  0  0  0  0  0  0
   12.7984   35.9732   16.4158 C   0  0  0  0  0  0  0  0  0  0  0  0
   14.6008   34.7524   11.7630 C   0  0  0  0  0  0  0  0  0  0  0  0
   17.6994   35.6559   13.1807 C   0  0  0  0  0  0  0  0  0  0  0  0
   11.2550   34.9416   16.8922 C   0  0  0  0  0  3  0  0  0  0  0  0
   10.5923   32.0135   16.4957 C   0  0  0  0  0  0  0  0  0  0  0  0
   13.3646   34.1131   15.0442 C   0  0  1  0  0  0  0  0  0  0  0  0
    9.7515   32.9447   17.0705 N   0  0  0  0  0  0  0  0  0  0  0  0
   15.2980   34.3250   13.0164 N   0  0  0  0  0  0  0  0  0  0  0  0
   13.7501   32.2225   13.2865 O   0  0  0  0  0  1  0  0  0  0  0  0
   14.2405   33.1110   14.0954 S   0  0  0  0  0  4  0  0  0  0  0  0
   16.8426   34.9673   12.8546 C   0  0  0  0  0  0  0  0  0  0  0  0
   16.9012   35.4616   10.6995 N   0  0  0  0  0  0  0  0  0  0  0  0
   12.2138   34.1826   16.0287 C   0  0  1  0  0  0  0  0  0  0  0  0
   11.7580   32.7192   15.9540 C   0  0  0  0  0  0  0  0  0  0  0  0
   10.0286   33.9667   17.0273 C   0  0  0  0  0  0  0  0  0  0  0  0
   15.1190   32.2075   14.8938 O   0  0  0  0  0  1  0  0  0  0  0  0
   16.0657   35.3208   11.0530 C   0  0  0  0  0  0  0  0  0  0  0  0
  2  1  2  0
  5  2  1  0
  7  1  1  0
  8  6  1  0
  9  3  1  0
  7 11  1  1
 11  9  1  0
 11 10  1  0
 12  4  2  3
 12  9  1  0
 14  2  1  0
 14  5  1  0
 14  7  1  0
 15  6  2  0
 14 15  1  1
 16  5  1  0
 16  8  2  0
 17 11  1  0
 18  3  1  0
 18 13  1  0
M  RAD  3   5   2  10   2  17   2
M  END
>  <ID>  (1) 
conformer_0

$$$$
