
     RDKit          3D

 20 21  0  0  0  0  0  0  0  0999 V2000
   12.8576   36.4361   15.8470 C   0  0  0  0  0  0  0  0  0  0  0  0
   11.8719   34.4085   16.2945 C   0  0  0  0  0  0  0  0  0  0  0  0
   16.3824   35.1147   10.7343 C   0  0  0  0  0  0  0  0  0  0  0  0
   11.7421   36.3961   16.7223 C   0  0  0  0  0  0  0  0  0  0  0  0
   17.6772   35.6855   13.0503 C   0  0  0  0  0  0  0  0  0  0  0  0
   14.6482   33.3242   13.8024 S   0  0  0  0  0  4  0  0  0  0  0  0
    9.7805   32.9914   17.1506 N   0  0  0  0  0  0  0  0  0  0  0  0
   16.5863   35.5471   10.2048 N   0  0  0  0  0  0  0  0  0  0  0  0
   10.5931   32.0239   16.5129 C   0  0  0  0  0  0  0  0  0  0  0  0
   15.5552   34.3482   12.9197 N   0  0  0  0  0  0  0  0  0  0  0  0
   15.4356   32.4440   14.6019 O   0  0  0  0  0  1  0  0  0  0  0  0
   11.6326   32.4529   16.0718 C   0  0  0  0  0  0  0  0  0  0  0  0
   13.4903   34.1225   14.8891 C   0  0  0  0  0  0  0  0  0  0  0  0
   16.9517   34.8648   12.9226 C   0  0  0  0  0  0  0  0  0  0  0  0
   10.7186   35.0632   16.9298 C   0  0  0  0  0  0  0  0  0  0  0  0
   10.0378   34.0773   17.0977 C   0  0  0  0  0  0  0  0  0  0  0  0
   14.1707   32.5023   13.0139 O   0  0  0  0  0  1  0  0  0  0  0  0
   12.4342   33.6666   15.4086 C   0  0  0  0  0  0  0  0  0  0  0  0
   14.9523   34.7882   11.6252 C   0  0  0  0  0  0  0  0  0  0  0  0
   13.6778   35.4641   15.4177 C   0  0  0  0  0  0  0  0  0  0  0  0
  4  1  2  0
  8  3  1  0
  9  7  2  0
 10  6  1  0
 11  6  1  0
 12  9  1  0
 13  6  1  0
 14  5  2  3
 14 10  1  0
 15  2  2  0
 15  4  1  0
 16  7  1  0
 16 15  1  0
 17  6  1  0
 18  2  1  0
 18 12  1  0
 18 13  2  0
 19  3  1  0
 19 10  1  0
 20  1  1  0
 20 13  1  0
M  RAD  2  11   2  17   2
M  END
>  <ID>  (1) 
conformer_0

$$$$
