
     RDKit          3D

 16 17  0  0  0  0  0  0  0  0999 V2000
   12.6615   36.3687   16.3656 C   0  0  0  0  0  0  0  0  0  0  0  0
   13.6411   35.8739   15.5561 C   0  0  0  0  0  0  0  0  0  0  0  0
   16.7730   34.6424   10.3685 C   0  0  0  0  0  0  0  0  0  0  0  0
   11.9973   34.3557   15.9808 C   0  0  0  0  0  3  0  0  0  0  0  0
   10.6593   31.8661   16.4332 C   0  0  0  0  0  0  0  0  0  0  0  0
   13.5338   34.4258   15.0514 C   0  0  2  0  0  0  0  0  0  0  0  0
   17.7714   34.8286   12.9742 C   0  0  0  0  0  0  0  0  0  0  0  0
    9.7718   32.7422   17.0990 N   0  0  0  0  0  0  0  0  0  0  0  0
   14.6589   33.4028   14.0006 S   0  0  0  0  0  3  0  0  0  0  0  0
   14.7796   34.9929   11.7541 C   0  0  0  0  0  0  0  0  0  0  0  0
   14.9339   32.5861   14.0844 O   0  0  0  0  0  1  0  0  0  0  0  0
   11.2276   35.2458   16.8178 C   0  0  0  0  0  0  0  0  0  0  0  0
   16.7440   34.9831   12.3066 C   0  0  0  0  0  0  0  0  0  0  0  0
   10.0308   33.9336   17.0594 C   0  0  0  0  0  0  0  0  0  0  0  0
   11.8573   33.0914   15.8815 C   0  0  0  0  0  0  0  0  0  0  0  0
   16.7931   35.4695   10.1016 N   0  0  0  0  0  0  0  0  0  0  0  0
  2  1  2  0
  6  2  1  0
  6  4  1  0
  8  5  1  0
  9  6  1  0
  6 10  1  6
 11  9  1  0
 12  1  1  0
 12  4  1  0
 13  3  1  0
 13  7  2  3
 13 10  1  0
 14  8  2  0
 14 12  1  0
 15  4  1  0
 15  5  2  0
 16  3  1  0
M  RAD  3   4   2   9   2  11   2
M  END
>  <ID>  (1) 
conformer_0

$$$$
