
     RDKit          3D

 21 24  0  0  0  0  0  0  0  0999 V2000
   13.2141   36.2422   16.6394 C   0  0  0  0  0  0  0  0  0  0  0  0
   11.9039   35.8344   17.0717 C   0  0  0  0  0  0  0  0  0  0  0  0
   16.6365   34.6269   13.5461 C   0  0  0  0  0  0  0  0  0  0  0  0
   17.4584   36.7589   12.8938 C   0  0  0  0  0  0  0  0  0  0  0  0
   12.3481   33.8654   15.5480 C   0  0  0  0  0  0  0  0  0  0  0  0
   16.4328   35.7292   10.6254 N   0  0  0  0  0  0  0  0  0  0  0  0
   10.6186   33.7467   16.8591 C   0  0  0  0  0  0  0  0  0  0  0  0
    9.9377   32.7717   17.1140 N   0  0  0  0  0  0  0  0  0  0  0  0
   14.2807   33.2207   14.0051 S   0  0  0  0  0  4  0  0  0  0  0  0
   13.2472   34.1332   15.1137 C   0  0  0  0  0  0  0  0  0  0  0  0
   13.6757   32.4838   13.0499 O   0  0  0  0  0  1  0  0  0  0  0  0
   15.5398   34.2834   13.2428 N   0  0  0  0  0  0  0  0  0  0  0  0
   14.9484   34.9839   12.1748 C   0  0  0  0  0  0  0  0  0  0  0  0
   13.6875   35.6093   15.5709 C   0  0  0  0  0  0  0  0  0  0  0  0
   15.1010   32.3043   14.6991 O   0  0  0  0  0  1  0  0  0  0  0  0
   11.7197   32.3025   15.7417 C   0  0  0  0  0  0  0  0  0  0  0  0
   10.6374   31.6387   16.4067 C   0  0  0  0  0  0  0  0  0  0  0  0
   17.1058   35.8975   11.8559 C   0  0  0  0  0  0  0  0  0  0  0  0
   17.7857   35.1877   13.0939 C   0  0  0  0  0  0  0  0  0  0  0  0
   11.3420   34.4909   16.6515 C   0  0  0  0  0  0  0  0  0  0  0  0
   15.4607   35.0403   10.5966 C   0  0  0  0  0  0  0  0  0  0  0  0
  2  1  2  0
  8  7  1  0
 10  5  1  0
 10  9  1  0
 11  9  1  0
 12  3  1  0
 12  9  1  0
 13 12  1  0
 14  1  1  0
 14 10  2  0
 15  9  1  0
 16  5  1  0
 17  8  2  0
 17 16  1  0
 18  4  1  0
 18  6  1  0
 19  3  1  0
 19  4  1  0
 19 18  1  0
 20  2  1  0
 20  5  2  0
 20  7  1  0
 21  6  1  0
 21 13  1  0
M  RAD  2  11   2  15   2
M  END
>  <ID>  (1) 
conformer_0

$$$$
