
     RDKit          3D

 20 23  0  0  0  0  0  0  0  0999 V2000
   13.7154   35.5027   15.4029 C   0  0  0  0  0  0  0  0  0  0  0  0
   13.2352   36.3055   16.4075 C   0  0  0  0  0  0  0  0  0  0  0  0
   16.6152   34.6543   13.2045 C   0  0  0  0  0  0  0  0  0  0  0  0
   11.9369   36.0623   16.7362 C   0  0  0  0  0  0  0  0  0  0  0  0
   10.7625   31.5267   16.1855 C   0  0  0  0  0  0  0  0  0  0  0  0
   17.7754   35.2714   13.2615 C   0  0  0  0  0  0  0  0  0  0  0  0
   14.3977   33.3057   14.0734 S   0  0  0  0  0  4  0  0  0  0  0  0
    9.9948   32.5344   16.9716 N   0  0  0  0  0  0  0  0  0  0  0  0
   13.2470   34.1204   15.1134 C   0  0  0  0  0  0  0  0  0  0  0  0
   15.3773   32.6686   14.9305 O   0  0  0  0  0  1  0  0  0  0  0  0
   14.5530   34.9749   12.3858 C   0  0  0  0  0  0  0  0  0  0  0  0
   11.2925   34.5904   16.7656 C   0  0  0  0  0  0  0  0  0  0  0  0
   15.8327   34.5261   12.7309 N   0  0  0  0  0  0  0  0  0  0  0  0
   16.7355   36.0278   11.4691 N   0  0  0  0  0  0  0  0  0  0  0  0
   14.0511   32.3682   13.3807 O   0  0  0  0  0  1  0  0  0  0  0  0
   12.2737   34.1026   15.6721 C   0  0  0  0  0  0  0  0  0  0  0  0
   10.7535   33.4558   16.7006 C   0  0  0  0  0  0  0  0  0  0  0  0
   15.5591   34.9552   10.8033 C   0  0  0  0  0  0  0  0  0  0  0  0
   17.3250   35.9711   11.8244 C   0  0  0  0  0  0  0  0  0  0  0  0
   11.9283   32.3272   15.7489 C   0  0  0  0  0  0  0  0  0  0  0  0
  2  1  2  0
  4  2  1  0
  6  3  1  0
  8  5  1  0
  9  1  1  0
  9  7  1  0
 10  7  1  0
 11  7  1  0
 12  4  2  0
 13  3  1  0
 13 11  1  0
 15  7  1  0
 16  9  2  0
 16 12  1  0
 17  8  2  0
 17 12  1  0
 18 11  1  0
 18 14  1  0
 19  6  1  0
 19 14  1  0
 20  5  1  0
 20 16  1  0
 20 17  1  0
M  RAD  2  10   2  15   2
M  END
>  <ID>  (1) 
conformer_0

$$$$
