
     RDKit          3D

 20 22  0  0  0  0  0  0  0  0999 V2000
   10.9973   34.6234   16.8028 C   0  0  0  0  0  0  0  0  0  0  0  0
   13.6915   35.6693   15.5064 C   0  0  0  0  0  0  0  0  0  0  0  0
   14.9995   34.5995   11.2617 C   0  0  0  0  0  0  0  0  0  0  0  0
   17.2979   36.2636   12.4927 C   0  0  0  0  0  0  0  0  0  0  0  0
   12.2291   34.2832   15.8175 C   0  0  0  0  0  0  0  0  0  0  0  0
   15.3435   34.0786   12.9740 N   0  0  0  0  0  0  0  0  0  0  0  0
   10.6780   31.7582   16.2848 C   0  0  0  0  0  0  0  0  0  0  0  0
   15.2609   32.4523   14.7732 O   0  0  0  0  0  1  0  0  0  0  0  0
   14.2925   33.1495   13.9377 S   0  0  0  0  0  4  0  0  0  0  0  0
   16.6084   35.2705   10.3633 N   0  0  0  0  0  0  0  0  0  0  0  0
   12.9907   36.4982   16.3346 C   0  0  0  0  0  0  0  0  0  0  0  0
    9.8858   32.6865   17.0743 N   0  0  0  0  0  0  0  0  0  0  0  0
   13.1770   34.1740   15.0698 C   0  0  0  0  0  0  0  0  0  0  0  0
   16.2711   35.5640   11.4198 C   0  0  0  0  0  0  0  0  0  0  0  0
   13.6545   32.3203   13.2108 O   0  0  0  0  0  1  0  0  0  0  0  0
   11.6841   32.6815   15.7888 C   0  0  0  0  0  0  0  0  0  0  0  0
   11.7078   36.0429   16.8554 C   0  0  0  0  0  0  0  0  0  0  0  0
   10.1528   33.5499   17.0032 C   0  0  0  0  0  0  0  0  0  0  0  0
   16.4632   34.6489   13.2742 C   0  0  0  0  0  0  0  0  0  0  0  0
   17.7499   35.0333   13.3841 C   0  0  0  0  0  0  0  0  0  0  0  0
  5  1  1  0
  6  3  1  0
  9  6  1  0
  9  8  1  0
 11  2  2  0
 12  7  1  0
 13  2  1  0
 13  5  2  0
 13  9  1  0
 14  3  1  0
 14  4  1  0
 14 10  1  0
 15  9  1  0
 16  5  1  0
 16  7  2  0
 17  1  2  0
 17 11  1  0
 18  1  1  0
 18 12  2  0
 19  6  1  0
 20  4  1  0
 20 19  1  0
M  RAD  2   8   2  15   2
M  END
>  <ID>  (1) 
conformer_0

$$$$
