
     RDKit          3D

 20 23  0  0  0  0  0  0  0  0999 V2000
   13.2179   36.4224   16.4367 C   0  0  0  0  0  0  0  0  0  0  0  0
   13.5382   35.3679   15.6898 C   0  0  0  0  0  0  0  0  0  0  0  0
   16.3961   34.4713   13.2049 C   0  0  0  0  0  0  0  0  0  0  0  0
   12.1404   33.4149   15.6006 C   0  0  0  0  0  0  0  0  0  0  0  0
   14.3449   32.9926   14.0463 S   0  0  0  0  0  4  0  0  0  0  0  0
   10.3247   32.2449   16.4887 C   0  0  0  0  0  0  0  0  0  0  0  0
    9.8387   33.4103   17.1356 N   0  0  0  0  0  0  0  0  0  0  0  0
   11.4299   32.0116   15.7002 C   0  0  0  0  0  0  0  0  0  0  0  0
   15.3863   32.3221   14.9080 O   0  0  0  0  0  1  0  0  0  0  0  0
   17.5058   35.8781   13.4091 C   0  0  0  0  0  0  0  0  0  0  0  0
   14.6244   34.7861   12.0505 C   0  0  0  0  0  0  0  0  0  0  0  0
   13.2864   33.7168   15.0841 C   0  0  0  0  0  0  0  0  0  0  0  0
   15.3600   34.1676   13.1544 N   0  0  0  0  0  0  0  0  0  0  0  0
   16.7488   35.6625   11.2275 N   0  0  0  0  0  0  0  0  0  0  0  0
   13.7904   32.1061   13.2333 O   0  0  0  0  0  1  0  0  0  0  0  0
   11.6870   34.6838   16.4657 C   0  0  0  0  0  0  0  0  0  0  0  0
   11.7620   36.1373   17.0053 C   0  0  0  0  0  0  0  0  0  0  0  0
   15.6483   35.0540   10.7056 C   0  0  0  0  0  0  0  0  0  0  0  0
   10.5787   34.2762   16.9474 C   0  0  0  0  0  0  0  0  0  0  0  0
   17.2211   35.6862   11.9907 C   0  0  0  0  0  0  0  0  0  0  0  0
  2  1  2  0
  7  6  1  0
  8  4  1  0
  8  6  2  0
  9  5  1  0
 10  3  1  0
 12  2  1  0
 12  4  2  0
 12  5  1  0
 13  3  1  0
 13  5  1  0
 13 11  1  0
 15  5  1  0
 16  4  1  0
 17  1  1  0
 17 16  2  0
 18 11  1  0
 18 14  1  0
 19  7  2  0
 19 16  1  0
 20  3  1  0
 20 10  1  0
 20 14  1  0
M  RAD  2   9   2  15   2
M  END
>  <ID>  (1) 
conformer_0

$$$$
