
     RDKit          3D

 19 21  0  0  0  0  0  0  0  0999 V2000
   13.8565   35.6481   15.2676 C   0  0  0  0  0  0  0  0  0  0  0  0
   11.8052   35.7663   16.5957 C   0  0  0  0  0  0  0  0  0  0  0  0
   16.0153   35.4103   11.6027 C   0  0  0  0  0  0  0  0  0  0  0  0
   12.5002   33.9841   15.6372 C   0  0  0  0  0  0  0  0  0  0  0  0
   17.2635   35.7697   13.4085 C   0  0  0  0  0  0  0  0  0  0  0  0
   13.5443   34.2560   15.1066 C   0  0  0  0  0  0  0  0  0  0  0  0
   10.7851   31.8733   16.3248 C   0  0  0  0  0  0  0  0  0  0  0  0
   14.5158   33.3476   14.0930 S   0  0  0  0  0  4  0  0  0  0  0  0
   15.4112   32.5180   14.9715 O   0  0  0  0  0  1  0  0  0  0  0  0
    9.8838   32.7922   16.9759 N   0  0  0  0  0  0  0  0  0  0  0  0
   14.9022   34.4670   11.4915 C   0  0  1  0  0  0  0  0  0  0  0  0
   15.7423   34.3047   12.7860 N   0  0  0  0  0  0  0  0  0  0  0  0
   12.9683   36.4247   15.9311 C   0  0  0  0  0  0  0  0  0  0  0  0
   15.4498   35.6811   10.4570 N   0  0  0  0  0  0  0  0  0  0  0  0
   10.3574   33.9068   16.9625 C   0  0  0  0  0  0  0  0  0  0  0  0
   14.0692   32.2535   13.5071 O   0  0  0  0  0  1  0  0  0  0  0  0
   11.1970   34.5074   16.7219 C   0  0  0  0  0  0  0  0  0  0  0  0
   11.9034   32.5275   15.7712 C   0  0  0  0  0  0  0  0  0  0  0  0
   16.9556   34.7048   13.1551 C   0  0  0  0  0  0  0  0  0  0  0  0
  6  1  2  0
  6  4  1  0
  8  6  1  0
  9  8  1  0
 10  7  1  0
 11  3  1  0
 11  8  1  1
 12  3  1  0
 13  1  1  0
 13  2  2  0
 14  3  1  0
 14 11  1  0
 15 10  2  0
 16  8  1  0
 17  2  1  0
 17  4  2  0
 17 15  1  0
 18  4  1  0
 18  7  2  0
 19  5  2  3
 19 12  1  0
M  RAD  2   9   2  16   2
M  END
>  <ID>  (1) 
conformer_0

$$$$
