
     RDKit          3D

 19 21  0  0  0  0  0  0  0  0999 V2000
   12.9582   36.4506   16.3592 C   0  0  0  0  0  0  0  0  0  0  0  0
   11.7788   35.9224   16.8976 C   0  0  0  0  0  0  0  0  0  0  0  0
   16.3088   35.3272   11.4128 C   0  0  0  0  0  0  0  0  0  0  0  0
   11.9020   32.9075   15.6964 C   0  0  0  0  0  0  0  0  0  0  0  0
   17.5971   35.7922   13.0624 C   0  0  0  0  0  0  0  0  0  0  0  0
   10.6631   31.9726   16.1667 C   0  0  0  0  0  0  0  0  0  0  0  0
   16.1289   35.4710   10.5519 N   0  0  0  0  0  0  0  0  0  0  0  0
    9.8587   32.7138   16.9529 N   0  0  0  0  0  0  0  0  0  0  0  0
   13.4810   34.3151   15.1176 C   0  0  0  0  0  0  0  0  0  0  0  0
   14.7015   34.6961   11.7033 C   0  0  0  0  0  0  0  0  0  0  0  0
   14.6118   33.2017   14.0252 S   0  0  0  0  0  4  0  0  0  0  0  0
   15.5860   34.1190   13.2655 N   0  0  0  0  0  0  0  0  0  0  0  0
   15.5285   32.2327   14.7608 O   0  0  0  0  0  1  0  0  0  0  0  0
   12.3465   34.1126   15.8544 C   0  0  0  0  0  0  0  0  0  0  0  0
   13.7817   35.6651   15.5636 C   0  0  0  0  0  0  0  0  0  0  0  0
    9.9836   33.9485   17.1519 C   0  0  0  0  0  0  0  0  0  0  0  0
   16.7936   34.5924   13.0401 C   0  0  0  0  0  0  0  0  0  0  0  0
   14.1580   32.1577   13.5107 O   0  0  0  0  0  1  0  0  0  0  0  0
   10.9475   34.6853   16.8596 C   0  0  0  0  0  0  0  0  0  0  0  0
  2  1  2  0
  6  4  2  0
  7  3  1  0
  8  6  1  0
 10  3  1  0
 11  9  1  0
 12 10  1  0
 12 11  1  0
 13 11  1  0
 14  4  1  0
 14  9  1  0
 15  1  1  0
 15  9  2  0
 16  8  2  0
 17  3  1  0
 17  5  1  0
 17 12  1  0
 18 11  1  0
 19  2  1  0
 19 14  2  0
 19 16  1  0
M  RAD  2  13   2  18   2
M  END
>  <ID>  (1) 
conformer_0

$$$$
