
     RDKit          3D

 18 19  0  0  0  0  0  0  0  0999 V2000
   13.4957   35.7368   15.6631 C   0  0  0  0  0  0  0  0  0  0  0  0
   12.5875   36.2496   16.5414 C   0  0  0  0  0  0  0  0  0  0  0  0
   16.9336   34.8601   12.8465 C   0  0  0  0  0  0  0  0  0  0  0  0
   17.5723   35.8053   13.1998 C   0  0  0  0  0  0  0  0  0  0  0  0
   12.0849   33.8101   15.7842 C   0  0  0  0  0  0  0  0  0  0  0  0
   10.4166   34.1993   17.0456 C   0  0  0  0  0  0  0  0  0  0  0  0
    9.8077   33.1862   17.3075 N   0  0  0  0  0  0  0  0  0  0  0  0
   16.5689   35.9181   11.1967 N   0  0  0  0  0  0  0  0  0  0  0  0
   13.2919   34.2559   15.0330 C   0  0  2  0  0  0  0  0  0  0  0  0
   15.4206   32.7667   14.9716 O   0  0  0  0  0  1  0  0  0  0  0  0
   14.4937   33.3595   14.0723 S   0  0  0  0  0  4  0  0  0  0  0  0
   15.6835   34.0815   13.0366 N   0  0  0  0  0  0  0  0  0  0  0  0
   14.6871   34.8395   12.1794 C   0  0  0  0  0  0  0  0  0  0  0  0
   11.6694   32.4716   15.8580 C   0  0  0  0  0  0  0  0  0  0  0  0
   10.3986   32.0015   16.6700 C   0  0  0  0  0  0  0  0  0  0  0  0
   11.4756   35.1875   16.8044 C   0  0  0  0  0  0  0  0  0  0  0  0
   14.3286   32.3256   13.3329 O   0  0  0  0  0  1  0  0  0  0  0  0
   15.9770   35.1249   11.0899 C   0  0  0  0  0  0  0  0  0  0  0  0
  2  1  2  0
  4  3  2  3
  7  6  1  0
  9  1  1  0
  9  5  1  0
  9 11  1  1
 11 10  1  0
 12  3  1  0
 12 11  1  0
 13 12  1  0
 14  5  1  0
 15  7  1  0
 15 14  2  0
 16  2  1  0
 16  5  2  0
 16  6  1  0
 17 11  1  0
 18  8  1  0
 18 13  1  0
M  RAD  2  10   2  17   2
M  END
>  <ID>  (1) 
conformer_0

$$$$
