
     RDKit          3D

 18 20  0  0  0  0  0  0  0  0999 V2000
   13.9268   35.7657   15.4894 C   0  0  0  0  0  0  0  0  0  0  0  0
   12.7568   35.9214   16.2881 C   0  0  0  0  0  0  0  0  0  0  0  0
   15.0737   34.7754   11.6670 C   0  0  1  0  0  0  0  0  0  0  0  0
   17.4410   35.2401   13.0377 C   0  0  0  0  0  0  0  0  0  0  0  0
   11.0360   35.0250   16.8224 C   0  0  0  0  0  3  0  0  0  0  0  0
   13.1690   33.7164   15.5363 C   0  0  0  0  0  3  0  0  0  0  0  0
   10.4764   31.6992   16.4285 C   0  0  0  0  0  0  0  0  0  0  0  0
   16.7112   35.9689   10.6336 N   0  0  0  0  0  0  0  0  0  0  0  0
    9.7685   32.7160   17.0175 N   0  0  0  0  0  0  0  0  0  0  0  0
   14.8577   32.3379   14.1889 O   0  0  0  0  0  1  0  0  0  0  0  0
   14.5972   33.2809   14.0446 S   0  0  0  0  0  3  0  0  0  0  0  0
   12.0967   34.1980   16.0880 C   0  0  1  0  0  0  0  0  0  0  0  0
   16.6209   35.1332   10.4793 C   0  0  0  0  0  0  0  0  0  0  0  0
   11.7395   32.6240   15.9410 C   0  0  0  0  0  0  0  0  0  0  0  0
   15.3530   34.5395   13.0578 N   0  0  0  0  0  0  0  0  0  0  0  0
    9.9691   33.7429   17.0118 C   0  0  0  0  0  0  0  0  0  0  0  0
   16.5474   35.0352   12.6568 C   0  0  0  0  0  0  0  0  0  0  0  0
   14.4040   34.7552   14.4909 C   0  0  2  0  0  0  0  0  0  0  0  0
  2  1  2  0
  9  7  1  0
 11 10  1  0
 12  2  1  0
 12  5  1  1
 12  6  1  0
  3 13  1  6
 13  8  1  0
 14  7  2  0
 14 12  1  0
 15  3  1  0
 16  5  1  0
 16  9  2  0
 17  3  1  0
 17  4  2  3
 17 15  1  0
 18  1  1  0
 18  6  1  0
 18 11  1  1
 18 15  1  0
M  RAD  4   5   2   6   2  10   2  11   2
M  END
>  <ID>  (1) 
conformer_0

$$$$
