
     RDKit          3D

 20 24  0  0  0  0  0  0  0  0999 V2000
   11.7424   32.8176   15.8090 C   0  0  0  0  0  0  0  0  0  0  0  0
   14.9173   34.5338   12.2515 C   0  0  0  0  0  0  0  0  0  0  0  0
   13.1758   36.3830   16.3731 C   0  0  0  0  0  0  0  0  0  0  0  0
   13.5783   35.2461   15.4485 C   0  0  0  0  0  0  0  0  0  0  0  0
   10.8039   31.8627   16.2332 C   0  0  0  0  0  0  0  0  0  0  0  0
    9.9629   32.8690   17.1247 N   0  0  0  0  0  0  0  0  0  0  0  0
   17.0636   35.1237   13.0706 C   0  0  0  0  0  0  0  0  0  0  0  0
   13.0892   33.6980   15.0980 C   0  0  0  0  0  0  0  0  0  0  0  0
   14.1592   33.0907   13.9210 S   0  0  0  0  0  4  0  0  0  0  0  0
   17.8555   35.7606   13.4294 C   0  0  0  0  0  0  0  0  0  0  0  0
   15.4937   34.4929   12.7357 N   0  0  0  0  0  0  0  0  0  0  0  0
   13.6174   32.2026   13.1324 O   0  0  0  0  0  1  0  0  0  0  0  0
   16.9618   35.5313   10.7354 N   0  0  0  0  0  0  0  0  0  0  0  0
   12.2707   34.4296   16.0312 C   0  0  2  0  0  0  0  0  0  0  0  0
   11.8465   36.2547   16.9513 C   0  0  0  0  0  0  0  0  0  0  0  0
   15.5783   34.5608   10.5396 C   0  0  0  0  0  0  0  0  0  0  0  0
   10.2687   33.7245   17.0239 C   0  0  0  0  0  0  0  0  0  0  0  0
   15.2068   32.5943   14.6295 O   0  0  0  0  0  1  0  0  0  0  0  0
   11.0259   34.8959   16.9551 C   0  0  0  0  0  3  0  0  0  0  0  0
   17.2042   35.4681   11.2847 C   0  0  0  0  0  0  0  0  0  0  0  0
  4  3  2  0
  5  1  2  0
  6  5  1  0
  8  1  1  0
  8  4  1  0
  9  8  1  0
 10  7  2  3
 11  2  1  0
 11  7  1  0
 11  9  1  0
 12  9  1  0
 14  1  1  0
 14  4  1  0
 14  8  1  0
 15  3  1  0
 16  2  1  0
 16 13  1  0
 17  6  1  0
 18  9  1  0
 14 19  1  6
 19 15  1  0
 19 17  1  0
 20  7  1  0
 20 13  1  0
M  RAD  3  12   2  18   2  19   2
M  END
>  <ID>  (1) 
conformer_0

$$$$
