
     RDKit          3D

 18 21  0  0  0  0  0  0  0  0999 V2000
   12.2990   33.9249   15.6704 C   0  0  0  0  0  0  0  0  0  0  0  0
   13.5105   35.7109   15.5923 C   0  0  0  0  0  0  0  0  0  0  0  0
   16.9361   35.1853   12.9442 C   0  0  0  0  0  0  0  0  0  0  0  0
   17.7412   35.5728   13.4010 C   0  0  0  0  0  0  0  0  0  0  0  0
   12.5571   36.2657   16.2873 C   0  0  0  0  0  0  0  0  0  0  0  0
    9.9234   33.0955   17.0358 N   0  0  0  0  0  0  0  0  0  0  0  0
   14.5241   33.2997   13.9917 S   0  0  0  0  0  4  0  0  0  0  0  0
   10.3716   34.2112   16.8890 C   0  0  0  0  0  0  0  0  0  0  0  0
   15.7014   34.8636   12.6793 N   0  0  0  0  0  0  0  0  0  0  0  0
   13.9442   32.2263   13.0930 O   0  0  0  0  0  1  0  0  0  0  0  0
   15.8919   35.2534   11.3079 C   0  0  2  0  0  0  0  0  0  0  0  0
   13.5610   34.1217   14.9341 C   0  0  0  0  0  0  0  0  0  0  0  0
   11.9036   32.6169   15.6342 C   0  0  0  0  0  0  0  0  0  0  0  0
   11.3390   35.2204   16.6480 C   0  0  0  0  0  0  0  0  0  0  0  0
   10.5856   31.9569   16.4478 C   0  0  0  0  0  0  0  0  0  0  0  0
   16.7211   35.7693   11.2609 N   0  0  0  0  0  0  0  0  0  0  0  0
   15.4896   32.7257   14.6217 O   0  0  0  0  0  1  0  0  0  0  0  0
   14.4681   34.9412   11.8194 C   0  0  1  0  0  0  0  0  0  0  0  0
  4  3  2  3
  5  2  2  0
  8  6  1  0
  9  3  1  0
 10  7  1  0
 11  9  1  0
 12  1  2  0
 12  2  1  0
 12  7  1  0
 13  1  1  0
 14  1  1  0
 14  5  1  0
 14  8  2  0
 15  6  2  0
 15 13  1  0
 16  3  1  0
 11 16  1  1
 17  7  1  0
 18  7  1  6
 18  9  1  0
 18 11  1  0
M  RAD  2  10   2  17   2
M  END
>  <ID>  (1) 
conformer_0

$$$$
