
     RDKit          3D

 19 20  0  0  0  0  0  0  0  0999 V2000
   11.8185   36.0389   16.9847 C   0  0  0  0  0  0  0  0  0  0  0  0
   12.9706   36.4905   16.3523 C   0  0  0  0  0  0  0  0  0  0  0  0
   14.6085   34.5813   12.3017 C   0  0  0  0  0  0  0  0  0  0  0  0
   11.2182   34.7600   16.6991 C   0  0  0  0  0  0  0  0  0  0  0  0
   17.1512   35.7038   13.1344 C   0  0  0  0  0  0  0  0  0  0  0  0
   10.6060   33.8426   16.8030 C   0  0  0  0  0  0  0  0  0  0  0  0
   14.6532   33.0702   14.1916 S   0  0  0  0  0  4  0  0  0  0  0  0
   13.4188   34.2425   15.0583 C   0  0  0  0  0  0  0  0  0  0  0  0
   15.1216   34.2061   12.9887 N   0  0  0  0  0  0  0  0  0  0  0  0
   15.7310   32.4052   14.9490 O   0  0  0  0  0  1  0  0  0  0  0  0
   10.0237   32.8171   16.9170 N   0  0  0  0  0  0  0  0  0  0  0  0
   13.5957   35.7327   15.4331 C   0  0  0  0  0  0  0  0  0  0  0  0
   16.7926   35.4770   12.2702 C   0  0  0  0  0  0  0  0  0  0  0  0
   16.5201   35.7358   10.9475 N   0  0  0  0  0  0  0  0  0  0  0  0
   12.4482   34.1281   15.5022 C   0  0  0  0  0  0  0  0  0  0  0  0
   11.9913   32.6890   15.7289 C   0  0  0  0  0  0  0  0  0  0  0  0
   14.4175   31.9988   13.6907 O   0  0  0  0  0  1  0  0  0  0  0  0
   15.4869   34.7809   10.8140 C   0  0  0  0  0  0  0  0  0  0  0  0
   10.8649   31.7992   16.2963 C   0  0  0  0  0  0  0  0  0  0  0  0
  2  1  2  0
  4  1  1  0
  6  4  1  0
  8  7  1  0
  9  3  1  0
  9  7  1  0
 10  7  1  0
 11  6  1  0
 12  2  1  0
 12  8  2  0
 13  5  2  3
 14 13  1  0
 15  4  2  0
 15  8  1  0
 16 15  1  0
 17  7  1  0
 18  3  1  0
 18 14  1  0
 19 11  2  0
 19 16  1  0
M  RAD  2  10   2  17   2
M  END
>  <ID>  (1) 
conformer_0

$$$$
