
     RDKit          3D

 18 18  0  0  0  0  0  0  0  0999 V2000
   13.5521   35.4503   15.4732 C   0  0  0  0  0  0  0  0  0  0  0  0
   11.7738   34.3683   16.1523 C   0  0  0  0  0  0  0  0  0  0  0  0
   14.9861   34.8981   11.5288 C   0  0  0  0  0  0  0  0  0  0  0  0
   17.3755   35.4096   12.5998 C   0  0  0  0  0  0  0  0  0  0  0  0
   12.9931   36.3100   16.2908 C   0  0  0  0  0  0  0  0  0  0  0  0
   10.8196   31.8037   16.0868 C   0  0  0  0  0  0  0  0  0  0  0  0
   10.0489   32.7174   16.8448 N   0  0  0  0  0  0  0  0  0  0  0  0
   14.5660   33.1978   14.0115 S   0  0  0  0  0  4  0  0  0  0  0  0
   15.3914   32.2759   14.8633 O   0  0  0  0  0  1  0  0  0  0  0  0
   15.7582   34.0023   13.1899 N   0  0  0  0  0  0  0  0  0  0  0  0
   11.5634   35.7558   16.9256 C   0  0  0  0  0  0  0  0  0  0  0  0
   13.4469   34.1177   15.0524 C   0  0  0  0  0  0  0  0  0  0  0  0
   16.2415   36.0096   11.1951 N   0  0  0  0  0  0  0  0  0  0  0  0
   16.7632   34.3844   13.2293 C   0  0  0  0  0  0  0  0  0  0  0  0
   14.0773   32.4857   13.0833 O   0  0  0  0  0  1  0  0  0  0  0  0
   10.5357   33.8487   16.8654 C   0  0  0  0  0  0  0  0  0  0  0  0
   12.2260   33.0861   15.4708 C   0  0  0  0  0  0  0  0  0  0  0  0
   16.7700   35.8079   11.4203 C   0  0  0  0  0  0  0  0  0  0  0  0
  5  1  2  0
  7  6  1  0
  9  8  1  0
 10  8  1  0
 11  2  2  0
 11  5  1  0
 12  1  1  0
 12  8  1  0
 13  3  1  0
 14  4  1  0
 14 10  1  0
 15  8  1  0
 16  2  1  0
 16  7  2  3
 17  2  1  0
 17 12  2  0
 18  4  1  0
 18 13  1  0
M  RAD  2   9   2  15   2
M  END
>  <ID>  (1) 
conformer_0

$$$$
