
     RDKit          3D

 20 22  0  0  0  0  0  0  0  0999 V2000
   12.8859   36.4322   16.1509 C   0  0  0  0  0  0  0  0  0  0  0  0
   13.6133   35.5312   15.3924 C   0  0  0  0  0  0  0  0  0  0  0  0
   16.7485   34.4636   13.3296 C   0  0  0  0  0  0  0  0  0  0  0  0
   11.7955   35.7329   16.8143 C   0  0  0  0  0  0  0  0  0  0  0  0
   17.5952   35.8803   13.2625 C   0  0  0  0  0  0  0  0  0  0  0  0
   14.6533   33.1000   14.1798 S   0  0  0  0  0  4  0  0  0  0  0  0
   15.6354   34.3734   12.8712 N   0  0  0  0  0  0  0  0  0  0  0  0
    9.7660   32.6953   17.0787 N   0  0  0  0  0  0  0  0  0  0  0  0
   10.6004   31.9219   16.2037 C   0  0  0  0  0  0  0  0  0  0  0  0
   15.5609   32.3448   14.9821 O   0  0  0  0  0  1  0  0  0  0  0  0
   13.6278   34.0395   15.0291 C   0  0  0  0  0  0  0  0  0  0  0  0
   14.5441   35.1197   12.1204 C   0  0  0  0  0  0  0  0  0  0  0  0
   12.4274   33.9842   15.7971 C   0  0  0  0  0  0  0  0  0  0  0  0
   17.1315   35.8459   10.9277 N   0  0  0  0  0  0  0  0  0  0  0  0
    9.9571   33.9547   17.1741 C   0  0  0  0  0  0  0  0  0  0  0  0
   11.8754   32.8358   15.7401 C   0  0  0  0  0  0  0  0  0  0  0  0
   14.2289   32.0667   13.5927 O   0  0  0  0  0  1  0  0  0  0  0  0
   17.2154   35.7739   12.0244 C   0  0  0  0  0  0  0  0  0  0  0  0
   15.5876   34.9565   10.7569 C   0  0  0  0  0  0  0  0  0  0  0  0
   11.0516   34.5432   16.7664 C   0  0  0  0  0  0  0  0  0  0  0  0
  2  1  2  0
  4  1  1  0
  5  3  1  0
  7  3  1  0
  7  6  1  0
  9  8  1  0
 10  6  1  0
 11  2  1  0
 11  6  1  0
 12  7  1  0
 13 11  2  0
 15  8  2  0
 16  9  2  0
 16 13  1  0
 17  6  1  0
 18  5  1  0
 18 14  1  0
 19 12  1  0
 19 14  1  0
 20  4  2  0
 20 13  1  0
 20 15  1  0
M  RAD  2  10   2  17   2
M  END
>  <ID>  (1) 
conformer_0

$$$$
