
     RDKit          3D

 17 18  0  0  0  0  0  0  0  0999 V2000
   11.3733   34.9603   16.8221 C   0  0  0  0  0  0  0  0  0  0  0  0
   12.6044   36.1084   16.4437 C   0  0  0  0  0  0  0  0  0  0  0  0
   16.6378   34.7526   12.9270 C   0  0  0  0  0  0  0  0  0  0  0  0
   13.6030   35.8233   15.6738 C   0  0  0  0  0  0  0  0  0  0  0  0
   13.6648   34.2129   15.1561 C   0  0  0  0  0  0  0  0  0  0  0  0
   10.2375   33.8805   17.2491 C   0  0  0  0  0  0  0  0  0  0  0  0
   17.2496   35.3310   12.9276 C   0  0  0  0  0  0  0  0  0  0  0  0
    9.8493   32.8904   17.5009 N   0  0  0  0  0  0  0  0  0  0  0  0
   15.1308   32.4423   14.5262 O   0  0  0  0  0  1  0  0  0  0  0  0
   14.6631   33.3057   14.2061 S   0  0  0  0  0  3  0  0  0  0  0  0
   12.1604   34.0090   15.9877 C   0  0  0  0  0  0  0  0  0  0  0  0
   15.2312   34.6421   10.5071 C   0  0  0  0  0  0  0  0  0  0  0  0
   15.6944   34.3454   12.5720 N   0  0  0  0  0  0  0  0  0  0  0  0
   14.7058   34.9057   12.3998 C   0  0  1  0  0  0  0  0  0  0  0  0
   11.6791   32.7201   15.8920 C   0  0  0  0  0  0  0  0  0  0  0  0
   10.4429   31.9587   16.6612 C   0  0  0  0  0  0  0  0  0  0  0  0
   17.0581   35.1560   10.5502 C   0  0  0  0  0  0  0  0  0  0  0  0
  2  1  2  0
  4  2  1  0
  5  4  2  0
  6  1  1  0
  7  3  2  3
  8  6  1  0
 10  5  1  0
 10  9  1  0
 11  1  1  0
 11  5  1  0
 13  3  1  0
 14  4  1  0
 14 12  1  6
 14 13  1  0
 15 11  2  0
 16  8  1  0
 16 15  1  0
 17 12  1  0
M  RAD  2   9   2  10   2
M  END
>  <ID>  (1) 
conformer_0

$$$$
