
     RDKit          3D

 19 20  0  0  0  0  0  0  0  0999 V2000
   12.8265   36.4151   16.4687 C   0  0  0  0  0  0  0  0  0  0  0  0
   12.2989   34.0530   15.7110 C   0  0  0  0  0  0  0  0  0  0  0  0
   17.2219   35.2891   12.3150 C   0  0  0  0  0  0  0  0  0  0  0  0
   13.6258   35.7002   15.5798 C   0  0  0  0  0  0  0  0  0  0  0  0
   14.4501   33.3190   14.0366 S   0  0  0  0  0  4  0  0  0  0  0  0
   10.7731   31.6793   16.2949 C   0  0  0  0  0  0  0  0  0  0  0  0
   13.4853   34.2872   15.1050 C   0  0  0  0  0  0  0  0  0  0  0  0
   15.3576   32.3503   14.5077 O   0  0  0  0  0  1  0  0  0  0  0  0
   15.6541   34.4224   12.6583 N   0  0  0  0  0  0  0  0  0  0  0  0
   17.3216   35.3789   13.2515 C   0  0  0  0  0  0  0  0  0  0  0  0
    9.9384   32.5948   17.1068 N   0  0  0  0  0  0  0  0  0  0  0  0
   11.6613   35.6793   16.9391 C   0  0  0  0  0  0  0  0  0  0  0  0
   15.9296   34.7930   10.5960 C   0  0  0  0  0  0  0  0  0  0  0  0
   13.7729   32.7763   13.1243 O   0  0  0  0  0  1  0  0  0  0  0  0
   17.1416   35.9788   11.1179 N   0  0  0  0  0  0  0  0  0  0  0  0
   11.7670   32.5000   15.7500 C   0  0  0  0  0  0  0  0  0  0  0  0
   10.1402   33.5260   16.9233 C   0  0  0  0  0  0  0  0  0  0  0  0
   15.5252   35.0227   12.6813 C   0  0  0  0  0  0  0  0  0  0  0  0
   11.1205   34.3900   16.7229 C   0  0  0  0  0  0  0  0  0  0  0  0
  4  1  2  0
  7  2  2  0
  7  4  1  0
  7  5  1  0
  8  5  1  0
  9  5  1  0
 10  3  1  0
 11  6  1  0
 12  1  1  0
 14  5  1  0
 15  3  1  0
 15 13  1  0
 16  2  1  0
 16  6  2  0
 17 11  2  0
 18  3  1  0
 18  9  1  0
 19  2  1  0
 19 12  2  0
 19 17  1  0
M  RAD  2   8   2  14   2
M  END
>  <ID>  (1) 
conformer_0

$$$$
