
     RDKit          3D

 20 23  0  0  0  0  0  0  0  0999 V2000
   11.6829   32.7836   15.8193 C   0  0  0  0  0  0  0  0  0  0  0  0
   13.0014   36.3225   15.9598 C   0  0  0  0  0  0  0  0  0  0  0  0
   15.0367   35.0210   11.2635 C   0  0  0  0  0  0  0  0  0  0  0  0
   17.6052   35.9687   13.4874 C   0  0  0  0  0  0  0  0  0  0  0  0
   11.7306   35.5983   16.5661 C   0  0  0  0  0  0  0  0  0  0  0  0
   10.6093   32.1750   16.6776 C   0  0  0  0  0  0  0  0  0  0  0  0
    9.7472   33.1169   17.1970 N   0  0  0  0  0  0  0  0  0  0  0  0
   13.4813   34.2882   14.7634 C   0  0  0  0  0  0  0  0  0  0  0  0
   14.5478   33.3374   13.7362 S   0  0  0  0  0  4  0  0  0  0  0  0
   14.0598   32.7126   12.7455 O   0  0  0  0  0  1  0  0  0  0  0  0
   15.6944   34.6179   12.6736 N   0  0  0  0  0  0  0  0  0  0  0  0
   13.7974   35.6349   15.0931 C   0  0  0  0  0  0  0  0  0  0  0  0
   16.6644   34.8414   13.2428 C   0  0  0  0  0  0  0  0  0  0  0  0
   16.8102   36.0056   11.0998 N   0  0  0  0  0  0  0  0  0  0  0  0
   15.0690   32.3197   14.6300 O   0  0  0  0  0  1  0  0  0  0  0  0
    9.9967   34.2186   17.0994 C   0  0  0  0  0  0  0  0  0  0  0  0
   12.4947   33.9896   15.3319 C   0  0  0  0  0  3  0  0  0  0  0  0
   16.9206   35.6449   11.2280 C   0  0  0  0  0  0  0  0  0  0  0  0
   17.5582   34.8167   11.9407 C   0  0  0  0  0  0  0  0  0  0  0  0
   11.2673   34.4630   16.6230 C   0  0  0  0  0  0  0  0  0  0  0  0
  5  2  2  0
  6  1  2  0
  7  6  1  0
  9  8  1  0
 10  9  1  0
 11  3  1  0
 11  9  1  0
 12  2  1  0
 12  8  2  0
 13  4  1  0
 13 11  1  0
 15  9  1  0
 16  7  2  0
 17  1  1  0
 17  8  1  0
 18 14  1  0
 19  4  1  0
 19 13  1  0
 19 18  1  0
 20  1  1  0
 20  5  1  0
 20 16  1  0
 20 17  1  0
M  RAD  3  10   2  15   2  17   2
M  END
>  <ID>  (1) 
conformer_0

$$$$
