
     RDKit          3D

 17 18  0  0  0  0  0  0  0  0999 V2000
   13.6261   35.5626   15.6368 C   0  0  0  0  0  0  0  0  0  0  0  0
   12.8623   36.0195   16.5318 C   0  0  0  0  0  0  0  0  0  0  0  0
   16.9148   34.3397   13.0405 C   0  0  0  0  0  0  0  0  0  0  0  0
   17.5289   35.2887   13.1943 C   0  0  0  0  0  0  0  0  0  0  0  0
   11.2447   35.1820   16.8592 C   0  0  1  0  0  0  0  0  0  0  0  0
   10.5484   31.9897   16.3873 C   0  0  0  0  0  0  0  0  0  0  0  0
    9.7128   32.9003   17.0248 N   0  0  0  0  0  0  0  0  0  0  0  0
   14.5513   33.2757   13.9839 S   0  0  0  0  0  4  0  0  0  0  0  0
   13.5422   34.2045   14.9769 C   0  0  0  0  0  0  0  0  0  0  0  0
   15.4833   32.4392   14.7889 O   0  0  0  0  0  1  0  0  0  0  0  0
   15.5628   34.2943   13.0074 N   0  0  0  0  0  0  0  0  0  0  0  0
   14.6799   34.8348   11.7677 C   0  0  0  0  0  0  0  0  0  0  0  0
   11.9603   34.1515   16.0173 C   0  0  0  0  0  0  0  0  0  0  0  0
    9.9490   34.0873   16.9958 C   0  0  0  0  0  0  0  0  0  0  0  0
   11.9506   33.0506   15.6870 C   0  0  0  0  0  0  0  0  0  0  0  0
   14.0116   32.4013   13.3229 O   0  0  0  0  0  1  0  0  0  0  0  0
   16.3508   35.3186   11.4059 C   0  0  0  0  0  0  0  0  0  0  0  0
  2  1  2  0
  4  3  2  3
  5  2  1  1
  7  6  1  0
  9  1  1  0
  9  8  1  0
 10  8  1  0
 11  3  1  0
 11  8  1  0
 12 11  1  0
 13  5  1  0
 13  9  2  0
 14  5  1  0
 14  7  2  0
 15  6  2  0
 15 13  1  0
 16  8  1  0
 17 12  1  0
M  RAD  2  10   2  16   2
M  END
>  <ID>  (1) 
conformer_0

$$$$
