
     RDKit          3D

 16 17  0  0  0  0  0  0  0  0999 V2000
   13.6368   35.7533   15.7387 C   0  0  0  0  0  0  0  0  0  0  0  0
   12.8189   36.3356   16.5905 C   0  0  0  0  0  0  0  0  0  0  0  0
   16.5832   35.1342   10.6910 C   0  0  0  0  0  0  0  0  0  0  0  0
   12.0716   34.2300   15.8547 C   0  0  0  0  0  0  0  0  0  0  0  0
   17.8498   35.0293   12.8346 C   0  0  0  0  0  0  0  0  0  0  0  0
    9.8240   33.2053   17.1895 N   0  0  0  0  0  0  0  0  0  0  0  0
   10.3719   32.1158   16.3736 C   0  0  0  0  0  0  0  0  0  0  0  0
   14.5297   33.2890   14.0743 S   0  0  0  0  0  3  0  0  0  0  0  0
   13.4255   34.2424   15.1591 C   0  0  2  0  0  0  0  0  0  0  0  0
   14.8084   32.3941   14.2948 O   0  0  0  0  0  1  0  0  0  0  0  0
   14.6331   34.6096   11.7966 C   0  0  0  0  0  0  0  0  0  0  0  0
   15.6436   34.2435   12.8061 N   0  0  0  0  0  0  0  0  0  0  0  0
   11.6992   32.9514   15.6320 C   0  0  0  0  0  0  0  0  0  0  0  0
   11.5136   35.5209   16.8871 C   0  0  0  0  0  0  0  0  0  0  0  0
   10.3924   34.3045   17.0747 C   0  0  0  0  0  0  0  0  0  0  0  0
   16.8524   34.8604   12.6260 C   0  0  0  0  0  0  0  0  0  0  0  0
  2  1  2  0
  7  6  1  0
  9  1  1  0
  9  4  1  0
  9  8  1  0
 10  8  1  0
  9 11  1  1
 12 11  1  0
 13  4  1  0
 13  7  2  0
 14  2  1  0
 14  4  2  0
 15  6  1  0
 15 14  1  0
 16  3  1  0
 16  5  2  3
 16 12  1  0
M  RAD  2   8   2  10   2
M  END
>  <ID>  (1) 
conformer_0

$$$$
