
     RDKit          3D

 20 22  0  0  0  0  0  0  0  0999 V2000
   12.9724   36.8292   15.9173 C   0  0  0  0  0  0  0  0  0  0  0  0
   13.6829   36.0213   15.1152 C   0  0  0  0  0  0  0  0  0  0  0  0
   17.0502   34.2656   12.6635 C   0  0  0  0  0  0  0  0  0  0  0  0
   11.2200   34.7810   16.8040 C   0  0  0  0  0  0  0  0  0  0  0  0
   10.7167   31.9442   16.2632 C   0  0  0  0  0  0  0  0  0  0  0  0
    9.8422   32.8806   17.0544 N   0  0  0  0  0  0  0  0  0  0  0  0
   17.8172   35.4211   13.4616 C   0  0  0  0  0  0  0  0  0  0  0  0
   13.2190   34.3757   15.0805 C   0  0  0  0  0  0  0  0  0  0  0  0
   14.1791   33.2254   14.0068 S   0  0  0  0  0  4  0  0  0  0  0  0
   15.2950   32.6102   14.8515 O   0  0  0  0  0  1  0  0  0  0  0  0
   14.5661   34.4797   12.4037 C   0  0  0  0  0  0  0  0  0  0  0  0
   15.0465   34.4442   13.1033 N   0  0  0  0  0  0  0  0  0  0  0  0
   12.3579   34.3809   15.8782 C   0  0  0  0  0  0  0  0  0  0  0  0
   10.1663   33.9383   17.0914 C   0  0  0  0  0  0  0  0  0  0  0  0
   17.1507   35.3825   11.3637 N   0  0  0  0  0  0  0  0  0  0  0  0
   11.7902   32.6893   15.8021 C   0  0  0  0  0  0  0  0  0  0  0  0
   13.9122   32.2052   13.5128 O   0  0  0  0  0  1  0  0  0  0  0  0
   15.4454   34.9855   11.1326 C   0  0  0  0  0  0  0  0  0  0  0  0
   11.9548   36.2221   16.7401 C   0  0  0  0  0  0  0  0  0  0  0  0
   17.1362   35.9082   12.2511 C   0  0  0  0  0  0  0  0  0  0  0  0
  2  1  2  0
  6  5  1  0
  7  3  1  0
  8  2  1  0
  9  8  1  0
 10  9  1  0
 12  3  1  0
 12  9  1  0
 12 11  1  0
 13  4  1  0
 13  8  2  0
 14  4  1  0
 14  6  2  0
 16  5  2  0
 16 13  1  0
 17  9  1  0
 18 11  1  0
 19  1  1  0
 19  4  2  0
 20  3  1  0
 20  7  1  0
 20 15  1  0
M  RAD  2  10   2  17   2
M  END
>  <ID>  (1) 
conformer_0

$$$$
