
     RDKit          3D

 19 20  0  0  0  0  0  0  0  0999 V2000
   13.0233   36.4674   16.5453 C   0  0  0  0  0  0  0  0  0  0  0  0
   13.8005   35.8466   15.6199 C   0  0  0  0  0  0  0  0  0  0  0  0
   16.8589   35.1809   12.4657 C   0  0  0  0  0  0  0  0  0  0  0  0
   11.7983   35.9013   16.9157 C   0  0  0  0  0  0  0  0  0  0  0  0
   17.6075   35.6157   12.8525 C   0  0  0  0  0  0  0  0  0  0  0  0
   10.6570   31.5921   16.1381 C   0  0  0  0  0  0  0  0  0  0  0  0
    9.8742   32.4857   17.0445 N   0  0  0  0  0  0  0  0  0  0  0  0
   13.5533   34.4979   15.1145 C   0  0  0  0  0  0  0  0  0  0  0  0
   14.7236   33.2161   14.0035 S   0  0  0  0  0  4  0  0  0  0  0  0
   15.7471   34.6300   12.4857 N   0  0  0  0  0  0  0  0  0  0  0  0
   15.4052   32.2488   14.7320 O   0  0  0  0  0  1  0  0  0  0  0  0
   11.2467   34.5044   16.6796 C   0  0  0  0  0  0  0  0  0  0  0  0
   15.7494   35.3496   10.5963 C   0  0  0  0  0  0  0  0  0  0  0  0
   11.8007   32.7011   15.6952 C   0  0  0  0  0  0  0  0  0  0  0  0
   16.3657   35.8709   10.7311 N   0  0  0  0  0  0  0  0  0  0  0  0
   10.1766   33.6075   16.9913 C   0  0  0  0  0  0  0  0  0  0  0  0
   14.2670   32.3529   13.1977 O   0  0  0  0  0  1  0  0  0  0  0  0
   14.6895   35.0137   12.0165 C   0  0  1  0  0  0  0  0  0  0  0  0
   12.3448   34.0731   15.6735 C   0  0  0  0  0  0  0  0  0  0  0  0
  2  1  2  0
  4  1  1  0
  5  3  2  3
  7  6  1  0
  8  2  1  0
  9  8  1  0
 10  3  1  0
 11  9  1  0
 12  4  2  0
 14  6  2  0
 15 13  1  0
 16  7  2  0
 16 12  1  0
 17  9  1  0
 18  9  1  0
 18 10  1  0
 18 13  1  6
 19  8  2  0
 19 12  1  0
 19 14  1  0
M  RAD  2  11   2  17   2
M  END
>  <ID>  (1) 
conformer_0

$$$$
