
     RDKit          3D

 21 25  0  0  0  0  0  0  0  0999 V2000
   13.8310   35.3189   15.4636 C   0  0  0  0  0  0  0  0  0  0  0  0
   11.8161   36.4004   16.7601 C   0  0  0  0  0  0  0  0  0  0  0  0
   14.4176   34.7503   11.5670 C   0  0  0  0  0  0  0  0  0  0  0  0
   12.5657   33.6553   15.5941 C   0  0  0  0  0  0  0  0  0  0  0  0
   17.5566   34.9124   13.2585 C   0  0  0  0  0  0  0  0  0  0  0  0
   10.2269   33.9902   17.1894 C   0  0  0  0  0  0  0  0  0  0  0  0
   15.6151   32.4107   14.6659 O   0  0  0  0  0  1  0  0  0  0  0  0
    9.9369   32.9103   17.4308 N   0  0  0  0  0  0  0  0  0  0  0  0
   17.1972   35.3430   11.5036 C   0  0  0  0  0  0  0  0  0  0  0  0
   14.5065   33.1555   13.9973 S   0  0  0  0  0  4  0  0  0  0  0  0
   15.3379   34.3073   12.6451 N   0  0  0  0  0  0  0  0  0  0  0  0
   13.5038   34.0663   15.0934 C   0  0  0  0  0  0  0  0  0  0  0  0
   11.7900   32.4789   16.2561 C   0  0  0  0  0  0  0  0  0  0  0  0
   16.7700   35.7912   10.7081 N   0  0  0  0  0  0  0  0  0  0  0  0
   14.0194   32.3164   13.2538 O   0  0  0  0  0  1  0  0  0  0  0  0
   12.9784   36.2971   16.0159 C   0  0  0  0  0  0  0  0  0  0  0  0
   15.6691   34.8852   10.2355 C   0  0  0  0  0  0  0  0  0  0  0  0
   10.6759   32.0207   16.7051 C   0  0  0  0  0  0  0  0  0  0  0  0
   11.9656   34.5039   16.5900 C   0  0  0  0  0  0  0  0  0  0  0  0
   16.1533   35.0813   12.8694 C   0  0  0  0  0  0  0  0  0  0  0  0
   10.6452   35.1371   16.9887 C   0  0  0  0  0  0  0  0  0  0  0  0
  8  6  1  0
  9  5  1  0
 10  7  1  0
 11  3  1  0
 11 10  1  0
 12  1  2  0
 12  4  1  0
 12 10  1  0
 13  4  1  0
 14  9  1  0
 15 10  1  0
 16  1  1  0
 16  2  2  0
 17  3  1  0
 17 14  1  0
 18  8  1  0
 18 13  1  0
 19  2  1  0
 19  4  2  0
 20  5  1  0
 20  9  1  0
 20 11  1  0
 21  2  1  0
 21  6  1  0
 21 19  1  0
M  RAD  2   7   2  15   2
M  END
>  <ID>  (1) 
conformer_0

$$$$
