
     RDKit          3D

 18 19  0  0  0  0  0  0  0  0999 V2000
   13.0152   36.4136   16.4886 C   0  0  0  0  0  0  0  0  0  0  0  0
   13.7718   35.8165   15.6251 C   0  0  0  0  0  0  0  0  0  0  0  0
   14.4385   34.9442   11.9640 C   0  0  0  0  0  0  0  0  0  0  0  0
   11.6827   35.4843   16.8621 C   0  0  0  0  0  0  0  0  0  0  0  0
   17.7594   34.8821   13.2608 C   0  0  0  0  0  0  0  0  0  0  0  0
   15.0542   34.3315   13.1757 N   0  0  0  0  0  0  0  0  0  0  0  0
    9.8159   32.7441   17.0551 N   0  0  0  0  0  0  0  0  0  0  0  0
   14.4204   33.4295   14.1282 S   0  0  0  0  0  4  0  0  0  0  0  0
   13.5835   34.3645   15.1352 C   0  0  0  0  0  3  0  0  0  0  0  0
   10.7818   31.6938   16.2069 C   0  0  0  0  0  0  0  0  0  0  0  0
   15.4805   32.6991   14.8011 O   0  0  0  0  0  1  0  0  0  0  0  0
   16.8290   34.9067   12.7183 C   0  0  0  0  0  0  0  0  0  0  0  0
   12.0298   34.3762   16.0573 C   0  0  0  0  0  0  0  0  0  0  0  0
   15.9673   35.1114   10.6958 C   0  0  0  0  0  0  0  0  0  0  0  0
   13.8133   32.4686   13.5162 O   0  0  0  0  0  1  0  0  0  0  0  0
   11.8846   33.0540   15.7705 C   0  0  0  0  0  0  0  0  0  0  0  0
   10.3738   33.8244   16.9220 C   0  0  0  0  0  0  0  0  0  0  0  0
   16.1177   35.0022   11.7546 N   0  0  0  0  0  0  0  0  0  0  0  0
  2  1  2  0
  4  1  1  0
  6  3  1  0
  8  6  1  0
  9  2  1  0
  9  8  1  0
 10  7  1  0
 11  8  1  0
 12  5  3  0
 13  4  1  0
 13  9  1  0
 15  8  1  0
 16 10  2  0
 16 13  1  0
 17  7  2  0
 17 13  1  0
 18  3  1  0
 18 12  1  0
 18 14  1  0
M  RAD  3   9   2  11   2  15   2
M  END
>  <ID>  (1) 
conformer_0

$$$$
