
     RDKit          3D

 20 22  0  0  0  0  0  0  0  0999 V2000
   12.9740   36.4043   16.4160 C   0  0  0  0  0  0  0  0  0  0  0  0
   13.5561   35.5979   15.5510 C   0  0  0  0  0  0  0  0  0  0  0  0
   16.5494   34.4678   13.2454 C   0  0  0  0  0  0  0  0  0  0  0  0
   11.7637   36.0236   17.0045 C   0  0  0  0  0  0  0  0  0  0  0  0
   10.7882   31.7771   16.4101 C   0  0  0  0  0  0  0  0  0  0  0  0
   15.4615   34.0894   13.0559 N   0  0  0  0  0  0  0  0  0  0  0  0
   14.3244   34.9051   12.1484 C   0  0  0  0  0  0  0  0  0  0  0  0
   14.1621   32.9311   14.0312 S   0  0  0  0  0  4  0  0  0  0  0  0
   17.6791   36.1582   13.3112 C   0  0  0  0  0  0  0  0  0  0  0  0
    9.9005   32.7728   17.1492 N   0  0  0  0  0  0  0  0  0  0  0  0
   13.2037   33.9204   15.0959 C   0  0  0  0  0  0  0  0  0  0  0  0
   13.6701   32.0704   13.1478 O   0  0  0  0  0  1  0  0  0  0  0  0
   12.3055   33.9701   15.7277 C   0  0  0  0  0  0  0  0  0  0  0  0
   16.5226   35.9961   11.2015 N   0  0  0  0  0  0  0  0  0  0  0  0
   11.8087   32.2853   15.8459 C   0  0  0  0  0  0  0  0  0  0  0  0
   10.3874   33.7806   16.9825 C   0  0  0  0  0  0  0  0  0  0  0  0
   15.0304   32.1662   14.7589 O   0  0  0  0  0  1  0  0  0  0  0  0
   15.5160   35.0248   11.1453 C   0  0  0  0  0  0  0  0  0  0  0  0
   17.4028   35.7559   12.1498 C   0  0  0  0  0  0  0  0  0  0  0  0
   11.3210   34.5735   16.7591 C   0  0  0  0  0  0  0  0  0  0  0  0
  2  1  2  0
  4  1  1  0
  6  3  1  0
  7  6  1  0
  8  6  1  0
 10  5  2  0
 11  2  1  0
 11  8  1  0
 12  8  1  0
 13 11  2  0
 15  5  1  0
 15 13  1  0
 16 10  1  0
 17  8  1  0
 18  7  1  0
 18 14  1  0
 19  3  1  0
 19  9  1  0
 19 14  1  0
 20  4  2  0
 20 13  1  0
 20 16  1  0
M  RAD  2  12   2  17   2
M  END
>  <ID>  (1) 
conformer_0

$$$$
