
     RDKit          3D

 16 18  0  0  0  0  0  0  0  0999 V2000
   13.4149   35.8342   15.6080 C   0  0  0  0  0  0  0  0  0  0  0  0
   12.5330   34.4665   15.6987 C   0  0  0  0  0  0  0  0  0  0  0  0
   16.8103   35.1522   12.3937 C   0  0  0  0  0  0  0  0  0  0  0  0
   12.1040   36.1555   16.5840 C   0  0  0  0  0  0  0  0  0  0  0  0
   10.9743   32.1236   16.3203 C   0  0  0  0  0  0  0  0  0  0  0  0
   14.3820   33.0508   13.8832 S   0  0  0  0  0  4  0  0  0  0  0  0
   13.4418   33.9156   14.8557 C   0  0  0  0  0  0  0  0  0  0  0  0
   15.4359   32.1630   14.6848 O   0  0  0  0  0  1  0  0  0  0  0  0
   15.0613   34.8769   11.7904 C   0  0  0  0  0  0  0  0  0  0  0  0
   17.6175   35.6175   13.0673 C   0  0  0  0  0  0  0  0  0  0  0  0
   10.9650   35.1696   16.9435 C   0  0  0  0  0  0  0  0  0  0  0  0
   10.0408   32.8628   17.0715 N   0  0  0  0  0  0  0  0  0  0  0  0
   15.4057   34.2028   13.1000 N   0  0  0  0  0  0  0  0  0  0  0  0
   11.9533   33.0712   15.7941 C   0  0  0  0  0  0  0  0  0  0  0  0
   14.0743   32.1554   13.1539 O   0  0  0  0  0  1  0  0  0  0  0  0
   10.2855   34.0069   17.0435 C   0  0  0  0  0  0  0  0  0  0  0  0
  2  1  1  0
  4  1  2  0
  4  2  1  0
  7  2  1  0
  7  6  1  0
  8  6  1  0
  9  3  1  0
 10  3  1  0
 11  4  1  0
 12  5  1  0
 13  3  1  0
 13  6  1  0
 13  9  1  0
 14  2  1  0
 14  5  2  0
 15  6  1  0
 16 11  3  0
 16 12  1  0
M  RAD  2   8   2  15   2
M  END
>  <ID>  (1) 
conformer_0

$$$$
