
     RDKit          3D

 21 24  0  0  0  0  0  0  0  0999 V2000
   13.0212   36.3985   16.3607 C   0  0  0  0  0  0  0  0  0  0  0  0
   13.6064   35.4947   15.6188 C   0  0  0  0  0  0  0  0  0  0  0  0
   16.3322   34.5219   13.1331 C   0  0  0  0  0  0  0  0  0  0  0  0
   11.7717   35.9686   16.8797 C   0  0  0  0  0  0  0  0  0  0  0  0
   10.5792   31.9925   16.2919 C   0  0  0  0  0  0  0  0  0  0  0  0
   14.6040   33.1461   14.1569 S   0  0  0  0  0  4  0  0  0  0  0  0
   15.4785   34.4072   12.8232 N   0  0  0  0  0  0  0  0  0  0  0  0
   15.4059   32.2665   14.9708 O   0  0  0  0  0  1  0  0  0  0  0  0
    9.8586   32.7753   17.1342 N   0  0  0  0  0  0  0  0  0  0  0  0
   17.8006   35.6105   13.2755 C   0  0  0  0  0  0  0  0  0  0  0  0
   13.3313   33.9683   15.2946 C   0  0  0  0  0  0  0  0  0  0  0  0
   12.2845   33.9922   15.8760 C   0  0  0  0  0  0  0  0  0  0  0  0
   14.3073   34.8144   12.0083 C   0  0  0  0  0  0  0  0  0  0  0  0
   16.3311   35.8997   11.0548 N   0  0  0  0  0  0  0  0  0  0  0  0
   11.7714   32.5893   15.6583 C   0  0  0  0  0  0  0  0  0  0  0  0
   10.1288   33.8531   17.1100 C   0  0  0  0  0  0  0  0  0  0  0  0
   14.3123   32.2181   13.4849 O   0  0  0  0  0  1  0  0  0  0  0  0
   17.2871   34.6848   10.9810 C   0  0  0  0  0  0  0  0  0  0  0  0
   15.5876   34.9256   10.5974 C   0  0  0  0  0  0  0  0  0  0  0  0
   11.0706   34.7288   16.8555 C   0  0  0  0  0  0  0  0  0  0  0  0
   17.2512   35.8320   11.9124 C   0  0  0  0  0  0  0  0  0  0  0  0
  2  1  2  0
  4  1  1  0
  7  3  1  0
  7  6  1  0
  8  6  1  0
  9  5  1  0
 10  3  1  0
 11  2  1  0
 11  6  1  0
 12 11  2  0
 13  7  1  0
 15  5  2  0
 15 12  1  0
 16  9  2  0
 17  6  1  0
 19 13  1  0
 19 14  1  0
 19 18  1  0
 20  4  2  0
 20 12  1  0
 20 16  1  0
 21 10  1  0
 21 14  1  0
 21 18  1  0
M  RAD  2   8   2  17   2
M  END
>  <ID>  (1) 
conformer_0

$$$$
