
     RDKit          3D

 21 24  0  0  0  0  0  0  0  0999 V2000
   13.0870   36.5993   16.1248 C   0  0  0  0  0  0  0  0  0  0  0  0
   11.1875   35.3125   16.9406 C   0  0  0  0  0  3  0  0  0  0  0  0
   17.2699   35.9688   11.5480 C   0  0  0  0  0  0  0  0  0  0  0  0
   12.4718   36.0010   16.8828 C   0  0  0  0  0  0  0  0  0  0  0  0
   16.6090   35.8429   10.7252 N   0  0  0  0  0  0  0  0  0  0  0  0
   10.5494   32.1561   16.5734 C   0  0  0  0  0  0  0  0  0  0  0  0
   17.5681   36.0011   13.0622 C   0  0  0  0  0  0  0  0  0  0  0  0
   14.5630   32.8986   14.0048 S   0  0  0  0  0  4  0  0  0  0  0  0
    9.8462   33.0104   17.3441 N   0  0  0  0  0  0  0  0  0  0  0  0
   15.6110   32.2754   14.8279 O   0  0  0  0  0  1  0  0  0  0  0  0
   13.4402   33.8420   15.0500 C   0  0  0  0  0  0  0  0  0  0  0  0
   15.4250   34.0441   12.9856 N   0  0  0  0  0  0  0  0  0  0  0  0
   13.9102   35.5024   15.4112 C   0  0  0  0  0  0  0  0  0  0  0  0
   15.6653   35.0693   10.5612 C   0  0  0  0  0  0  0  0  0  0  0  0
   13.9281   32.0891   13.2677 O   0  0  0  0  0  1  0  0  0  0  0  0
   11.6072   33.8470   16.4261 C   0  0  0  0  0  0  0  0  0  0  0  0
   11.8554   32.3377   15.8072 C   0  0  0  0  0  0  0  0  0  0  0  0
   10.1268   34.1050   17.1255 C   0  0  0  0  0  0  0  0  0  0  0  0
   14.7087   34.7876   11.9475 C   0  0  0  0  0  0  0  0  0  0  0  0
   16.4864   34.7007   12.9068 C   0  0  0  0  0  0  0  0  0  0  0  0
   12.7318   34.1246   15.5360 C   0  0  0  0  0  0  0  0  0  0  0  0
  4  1  2  0
  4  2  1  0
  5  3  1  0
  7  3  1  0
  9  6  1  0
 10  8  1  0
 11  8  1  0
 12  8  1  0
 13  1  1  0
 13 11  1  0
 14  5  1  0
 15  8  1  0
 16  2  1  0
 17  6  2  0
 17 16  1  0
 18  2  1  0
 18  9  2  0
 18 16  1  0
 19 12  1  0
 19 14  1  0
 20  7  1  0
 20 12  1  0
 21 11  2  0
 21 16  1  0
M  RAD  3   2   2  10   2  15   2
M  END
>  <ID>  (1) 
conformer_0

$$$$
