
     RDKit          3D

 19 21  0  0  0  0  0  0  0  0999 V2000
   13.6074   35.7447   15.3348 C   0  0  0  0  0  0  0  0  0  0  0  0
   12.5417   36.5618   16.2703 C   0  0  0  0  0  0  0  0  0  0  0  0
   17.6777   34.2972   11.7554 C   0  0  0  0  0  0  0  0  0  0  0  0
   10.8058   35.3196   16.9693 C   0  0  0  0  0  0  0  0  0  0  0  0
   10.5934   32.1193   16.5090 C   0  0  0  0  0  0  0  0  0  0  0  0
   14.2893   33.3731   13.8896 S   0  0  0  0  0  4  0  0  0  0  0  0
   17.4860   35.1418   12.8347 C   0  0  0  0  0  0  0  0  0  0  0  0
   12.1395   35.1836   16.3333 C   0  0  0  0  0  0  0  0  0  0  0  0
   13.2794   34.1058   15.0082 C   0  0  0  0  0  0  0  0  0  0  0  0
    9.8357   33.0113   17.1690 N   0  0  0  0  0  0  0  0  0  0  0  0
   16.0846   35.0621   10.7097 C   0  0  0  0  0  0  0  0  0  0  0  0
   17.1862   35.5860   10.3730 N   0  0  0  0  0  0  0  0  0  0  0  0
   15.3191   32.5763   14.6300 O   0  0  0  0  0  1  0  0  0  0  0  0
   12.0907   33.6350   15.9690 C   0  0  0  0  0  0  0  0  0  0  0  0
   13.9274   32.4828   13.0619 O   0  0  0  0  0  1  0  0  0  0  0  0
   11.6143   32.1656   15.9156 C   0  0  0  0  0  0  0  0  0  0  0  0
   10.1189   34.0294   16.9897 C   0  0  0  0  0  0  0  0  0  0  0  0
   14.5488   34.6740   11.9725 C   0  0  0  0  0  0  0  0  0  0  0  0
   16.4143   35.5305   12.6526 C   0  0  0  0  0  0  0  0  0  0  0  0
  2  1  2  0
  7  3  1  0
  8  1  1  0
  8  2  1  0
  8  4  1  0
  9  1  1  0
  9  6  1  0
 10  5  2  0
 12  3  1  0
 12 11  1  0
 13  6  1  0
 14  8  1  0
 14  9  1  0
 15  6  1  0
 16  5  1  0
 16 14  2  0
 17  4  1  0
 17 10  1  0
 18  6  1  0
 18 11  1  0
 19  7  1  0
M  RAD  2  13   2  15   2
M  END
>  <ID>  (1) 
conformer_0

$$$$
