
     RDKit          3D

 20 22  0  0  0  0  0  0  0  0999 V2000
   11.8310   35.8484   16.8472 C   0  0  0  0  0  0  0  0  0  0  0  0
   12.9737   36.5158   16.1385 C   0  0  0  0  0  0  0  0  0  0  0  0
   16.7911   34.4679   13.4078 C   0  0  0  0  0  0  0  0  0  0  0  0
   16.3403   35.3562   10.3683 N   0  0  0  0  0  0  0  0  0  0  0  0
   10.7119   31.9850   16.2587 C   0  0  0  0  0  0  0  0  0  0  0  0
   11.8492   32.5980   15.5933 C   0  0  0  0  0  0  0  0  0  0  0  0
   17.5700   35.6608   13.0454 C   0  0  0  0  0  0  0  0  0  0  0  0
   13.4879   34.4486   14.9041 C   0  0  0  0  0  0  0  0  0  0  0  0
    9.9225   33.0690   17.0479 N   0  0  0  0  0  0  0  0  0  0  0  0
   14.4806   33.3218   14.0738 S   0  0  0  0  0  4  0  0  0  0  0  0
   15.2460   32.5129   14.9884 O   0  0  0  0  0  1  0  0  0  0  0  0
   15.7554   34.2151   13.1813 N   0  0  0  0  0  0  0  0  0  0  0  0
   14.8079   35.0275   12.2896 C   0  0  0  0  0  0  0  0  0  0  0  0
   11.3774   34.4861   16.5610 C   0  0  0  0  0  0  0  0  0  0  0  0
   10.4324   34.0486   16.9575 C   0  0  0  0  0  0  0  0  0  0  0  0
   14.0245   32.3893   13.3052 O   0  0  0  0  0  1  0  0  0  0  0  0
   17.2193   35.3161   11.4718 C   0  0  0  0  0  0  0  0  0  0  0  0
   12.5793   34.2149   15.4418 C   0  0  0  0  0  0  0  0  0  0  0  0
   13.8323   35.9431   15.2459 C   0  0  0  0  0  0  0  0  0  0  0  0
   15.2847   34.9293   10.7084 C   0  0  0  0  0  0  0  0  0  0  0  0
  2  1  2  0
  6  5  1  0
  7  3  1  0
  9  5  2  0
 10  8  1  0
 11 10  1  0
 12  3  1  0
 12 10  1  0
 13 12  1  0
 14  1  1  0
 15  9  1  0
 15 14  2  0
 16 10  1  0
 17  4  1  0
 17  7  1  0
 18  6  2  0
 18  8  1  0
 18 14  1  0
 19  2  1  0
 19  8  2  0
 20  4  1  0
 20 13  1  0
M  RAD  2  11   2  16   2
M  END
>  <ID>  (1) 
conformer_0

$$$$
