
     RDKit          3D

 19 23  0  0  0  0  0  0  0  0999 V2000
   12.9510   36.3938   16.2561 C   0  0  0  0  0  0  0  0  0  0  0  0
   13.6225   35.4751   15.4705 C   0  0  0  0  0  0  0  0  0  0  0  0
   16.6004   34.8387   13.0969 C   0  0  0  0  0  0  0  0  0  0  0  0
   11.6467   35.5150   16.8881 C   0  0  0  0  0  0  0  0  0  0  0  0
   10.7285   31.7824   16.1049 C   0  0  0  0  0  0  0  0  0  0  0  0
   13.3197   34.0707   15.2277 C   0  0  0  0  0  0  0  0  0  0  0  0
    9.8833   32.6884   16.9308 N   0  0  0  0  0  0  0  0  0  0  0  0
   14.1942   35.0345   12.0478 C   0  0  0  0  0  0  0  0  0  0  0  0
   13.8119   32.4789   12.9897 O   0  0  0  0  0  1  0  0  0  0  0  0
   14.3411   33.1844   13.9595 S   0  0  0  0  0  4  0  0  0  0  0  0
   17.7350   35.2953   12.9034 C   0  0  0  0  0  0  0  0  0  0  0  0
   15.6162   34.7039   12.5885 N   0  0  0  0  0  0  0  0  0  0  0  0
   11.8891   34.2832   16.2781 C   0  0  0  0  0  0  0  0  0  0  0  0
   10.3583   33.8784   16.9431 C   0  0  0  0  0  0  0  0  0  0  0  0
   16.5382   35.9255   10.9351 N   0  0  0  0  0  0  0  0  0  0  0  0
   15.2540   32.3969   14.5202 O   0  0  0  0  0  1  0  0  0  0  0  0
   11.9565   32.8484   15.6281 C   0  0  0  0  0  0  0  0  0  0  0  0
   15.3734   35.1818   10.9221 C   0  0  0  0  0  0  0  0  0  0  0  0
   17.4543   35.7190   11.7179 C   0  0  0  0  0  0  0  0  0  0  0  0
  2  1  2  0
  4  1  1  0
  6  2  1  0
  7  5  1  0
 10  6  1  0
 10  8  1  0
 10  9  1  0
 11  3  1  0
 12  3  1  0
 12  8  1  0
 13  4  1  0
 13  6  1  0
 14  7  2  0
 14 13  1  0
 16 10  1  0
 17  5  2  0
 17  6  1  0
 17 13  1  0
 18  8  1  0
 18 12  1  0
 18 15  1  0
 19 11  1  0
 19 15  1  0
M  RAD  2   9   2  16   2
M  END
>  <ID>  (1) 
conformer_0

$$$$
