
     RDKit          3D

 19 21  0  0  0  0  0  0  0  0999 V2000
   13.5320   35.9754   15.5471 C   0  0  0  0  0  0  0  0  0  0  0  0
   15.2846   34.7451   12.2167 C   0  0  0  0  0  0  0  0  0  0  0  0
   12.6226   36.5971   16.3582 C   0  0  0  0  0  0  0  0  0  0  0  0
   17.6004   35.4375   13.2209 C   0  0  0  0  0  0  0  0  0  0  0  0
   10.9163   31.9941   16.1123 C   0  0  0  0  0  0  0  0  0  0  0  0
   11.4884   35.4642   16.8329 C   0  0  0  0  0  0  0  0  0  0  0  0
   13.2157   34.0515   15.0434 C   0  0  0  0  0  0  0  0  0  0  0  0
    9.9137   32.9404   17.0860 N   0  0  0  0  0  0  0  0  0  0  0  0
   14.4100   33.1843   13.9086 S   0  0  0  0  0  4  0  0  0  0  0  0
   15.5359   32.7015   14.6909 O   0  0  0  0  0  1  0  0  0  0  0  0
   10.3334   34.0729   17.0545 C   0  0  0  0  0  0  0  0  0  0  0  0
   14.7336   34.2839   13.4810 N   0  0  0  0  0  0  0  0  0  0  0  0
   17.4058   35.2806   12.1241 C   0  0  0  0  0  0  0  0  0  0  0  0
   12.0786   34.4175   15.9915 C   0  0  0  0  0  0  0  0  0  0  0  0
   16.9021   35.3796   10.8826 N   0  0  0  0  0  0  0  0  0  0  0  0
   14.3178   32.2742   13.0574 O   0  0  0  0  0  1  0  0  0  0  0  0
   16.4457   35.0353   11.8368 N   0  0  0  0  0  0  0  0  0  0  0  0
   15.6854   34.8482   10.6120 C   0  0  0  0  0  0  0  0  0  0  0  0
   11.8520   32.8642   15.6104 C   0  0  0  0  0  0  0  0  0  0  0  0
  3  1  1  0
  6  3  1  0
  8  5  2  0
  9  7  1  0
 10  9  1  0
 11  6  2  0
 11  8  1  0
 12  2  1  0
 12  9  1  0
 13  4  1  0
 14  6  1  0
 14  7  1  0
 15 13  1  0
 16  9  1  0
 17  2  1  0
 17 13  1  0
 17 15  1  0
 18  2  1  0
 19  5  1  0
 19  7  1  0
 19 14  2  0
M  RAD  2  10   2  16   2
M  END
>  <ID>  (1) 
conformer_0

$$$$
