
     RDKit          3D

 16 18  0  0  0  0  0  0  0  0999 V2000
   13.5153   35.8503   15.5584 C   0  0  0  0  0  0  0  0  0  0  0  0
   12.5751   36.3368   16.4216 C   0  0  0  0  0  0  0  0  0  0  0  0
   14.7121   34.6080   11.5697 C   0  0  1  0  0  0  0  0  0  0  0  0
   17.6463   35.5410   13.1762 C   0  0  0  0  0  0  0  0  0  0  0  0
   11.8181   32.9562   15.8574 C   0  0  0  0  0  0  0  0  0  0  0  0
    9.7452   32.9632   17.0087 N   0  0  0  0  0  0  0  0  0  0  0  0
   15.5174   34.4695   12.8111 N   0  0  0  0  0  0  0  0  0  0  0  0
   10.5450   31.9559   16.4288 C   0  0  0  0  0  0  0  0  0  0  0  0
   13.4813   34.4147   15.1614 C   0  0  1  0  0  0  0  0  0  0  0  0
   15.0159   32.4186   14.4052 O   0  0  0  0  0  1  0  0  0  0  0  0
   14.6631   33.3884   14.1340 S   0  0  0  0  0  3  0  0  0  0  0  0
   16.1929   35.5612   11.4063 C   0  0  0  0  0  0  0  0  0  0  0  0
   12.2037   34.2298   15.9879 C   0  0  0  0  0  3  0  0  0  0  0  0
   11.3505   35.1663   16.8894 C   0  0  0  0  0  0  0  0  0  0  0  0
   10.2696   33.9947   17.0364 C   0  0  0  0  0  0  0  0  0  0  0  0
   16.8219   34.6156   13.2635 C   0  0  0  0  0  0  0  0  0  0  0  0
  2  1  2  0
  7  3  1  0
  8  5  1  0
  8  6  2  0
  9  1  1  0
  9  3  1  0
  9 11  1  1
 11 10  1  0
  3 12  1  1
 12  7  1  0
 13  5  1  0
 13  9  1  0
 14  2  1  0
 14 13  1  0
 15  6  1  0
 15 14  2  0
 16  4  2  3
 16  7  1  0
M  RAD  3  10   2  11   2  13   2
M  END
>  <ID>  (1) 
conformer_0

$$$$
