
     RDKit          3D

 21 24  0  0  0  0  0  0  0  0999 V2000
   13.4190   36.2353   16.5846 C   0  0  0  0  0  0  0  0  0  0  0  0
   13.7744   35.5287   15.4533 C   0  0  0  0  0  0  0  0  0  0  0  0
   15.4941   34.9148   10.6828 C   0  0  0  0  0  0  0  0  0  0  0  0
   12.6153   34.1057   15.4580 C   0  0  0  0  0  0  0  0  0  0  0  0
   10.7075   32.0398   16.2768 C   0  0  0  0  0  0  0  0  0  0  0  0
   14.6194   32.9169   14.0839 S   0  0  0  0  0  4  0  0  0  0  0  0
    9.9130   32.9000   17.0245 N   0  0  0  0  0  0  0  0  0  0  0  0
   12.2751   36.4562   16.9106 C   0  0  0  0  0  0  0  0  0  0  0  0
   15.6572   32.1748   14.9410 O   0  0  0  0  0  1  0  0  0  0  0  0
   17.4373   35.5058   12.8307 C   0  0  0  0  0  0  0  0  0  0  0  0
   14.4137   34.7770   12.0359 C   0  0  0  0  0  0  0  0  0  0  0  0
   16.6904   35.4176   10.6199 N   0  0  0  0  0  0  0  0  0  0  0  0
   13.3640   33.8007   15.0327 C   0  0  0  0  0  0  0  0  0  0  0  0
   11.8368   32.3997   15.5954 C   0  0  0  0  0  0  0  0  0  0  0  0
   14.0958   31.9936   13.3895 O   0  0  0  0  0  1  0  0  0  0  0  0
   15.3699   34.0418   13.0480 N   0  0  0  0  0  0  0  0  0  0  0  0
   16.5989   34.4304   13.1176 C   0  0  0  0  0  0  0  0  0  0  0  0
   10.1134   33.9259   17.0172 C   0  0  0  0  0  0  0  0  0  0  0  0
   17.3782   35.5798   11.3724 C   0  0  0  0  0  0  0  0  0  0  0  0
   11.0835   35.4411   17.0334 C   0  0  0  0  0  0  0  0  0  0  0  0
   11.5750   34.2727   16.3491 C   0  0  0  0  0  0  0  0  0  0  0  0
  2  1  2  0
  7  5  1  0
  8  1  1  0
  9  6  1  0
 11  3  1  0
 12  3  1  0
 13  2  1  0
 13  4  2  0
 13  6  1  0
 14  4  1  0
 14  5  2  0
 15  6  1  0
 16  6  1  0
 16 11  1  0
 17 10  1  0
 17 16  1  0
 18  7  2  0
 19 10  1  0
 19 12  1  0
 20  8  1  0
 20 18  1  0
 21  4  1  0
 21 18  1  0
 21 20  2  0
M  RAD  2   9   2  15   2
M  END
>  <ID>  (1) 
conformer_0

$$$$
