
     RDKit          3D

 18 21  0  0  0  0  0  0  0  0999 V2000
   13.0858   36.3564   16.5995 C   0  0  0  0  0  0  0  0  0  0  0  0
   13.8543   35.8528   15.6875 C   0  0  0  0  0  0  0  0  0  0  0  0
   16.8626   34.8121   12.8537 C   0  0  0  0  0  0  0  0  0  0  0  0
   11.8224   35.3008   16.7626 C   0  0  0  0  0  0  0  0  0  0  0  0
   17.5272   35.4736   13.1013 C   0  0  0  0  0  0  0  0  0  0  0  0
    9.9762   33.0647   17.1270 N   0  0  0  0  0  0  0  0  0  0  0  0
   10.5005   31.8494   16.3775 C   0  0  0  0  0  0  0  0  0  0  0  0
   14.3078   33.3845   13.9025 S   0  0  0  0  0  4  0  0  0  0  0  0
   13.5468   34.3133   15.1190 C   0  0  0  0  0  3  0  0  0  0  0  0
   13.8224   32.5158   12.9996 O   0  0  0  0  0  1  0  0  0  0  0  0
   15.9378   35.0025   11.2137 C   0  0  0  0  0  0  0  0  0  0  0  0
   15.5341   34.3697   12.9324 N   0  0  0  0  0  0  0  0  0  0  0  0
   12.1748   34.0798   15.8911 C   0  0  0  0  0  0  0  0  0  0  0  0
   10.7024   33.9720   16.8845 C   0  0  0  0  0  0  0  0  0  0  0  0
   11.7869   32.5135   15.6720 C   0  0  0  0  0  0  0  0  0  0  0  0
   16.2739   35.6805   11.1650 N   0  0  0  0  0  0  0  0  0  0  0  0
   15.1129   32.5729   14.5298 O   0  0  0  0  0  1  0  0  0  0  0  0
   14.4680   34.9911   11.9368 C   0  0  0  0  0  0  0  0  0  0  0  0
  2  1  2  0
  4  1  1  0
  5  3  1  0
  7  6  1  0
  9  2  1  0
  9  8  1  0
 10  8  1  0
 11  3  1  0
 12  3  1  0
 12  8  1  0
 13  4  1  0
 13  9  1  0
 14  4  1  0
 14  6  2  0
 14 13  1  0
 15  7  2  0
 15 13  1  0
 16 11  1  0
 17  8  1  0
 18 11  1  0
 18 12  1  0
M  RAD  3   9   2  10   2  17   2
M  END
>  <ID>  (1) 
conformer_0

$$$$
