
     RDKit          3D

 20 22  0  0  0  0  0  0  0  0999 V2000
   12.9540   36.4467   16.4029 C   0  0  0  0  0  0  0  0  0  0  0  0
   11.5629   36.3557   16.9269 C   0  0  0  0  0  0  0  0  0  0  0  0
   16.9945   34.1659   13.6222 C   0  0  0  0  0  0  0  0  0  0  0  0
   13.5838   35.5791   15.5968 C   0  0  0  0  0  0  0  0  0  0  0  0
   17.6455   35.6867   12.9884 C   0  0  0  0  0  0  0  0  0  0  0  0
   10.3133   34.3322   17.1194 C   0  0  0  0  0  0  0  0  0  0  0  0
   14.4695   33.0857   14.0980 S   0  0  0  0  0  4  0  0  0  0  0  0
    9.7573   33.2446   17.2133 N   0  0  0  0  0  0  0  0  0  0  0  0
   15.7743   34.0895   13.1629 N   0  0  0  0  0  0  0  0  0  0  0  0
   15.2821   32.4392   14.9156 O   0  0  0  0  0  1  0  0  0  0  0  0
   16.6361   35.5566   10.7053 N   0  0  0  0  0  0  0  0  0  0  0  0
   13.2102   34.1428   15.1807 C   0  0  0  0  0  0  0  0  0  0  0  0
   14.8486   34.5927   12.2520 C   0  0  0  0  0  0  0  0  0  0  0  0
   12.2267   34.1971   15.7460 C   0  0  0  0  0  0  0  0  0  0  0  0
   13.8708   32.0378   13.4794 O   0  0  0  0  0  1  0  0  0  0  0  0
   16.9837   35.8324   11.9332 C   0  0  0  0  0  0  0  0  0  0  0  0
   10.5639   32.2294   16.4462 C   0  0  0  0  0  0  0  0  0  0  0  0
   11.0826   35.0254   16.9151 C   0  0  0  0  0  0  0  0  0  0  0  0
   11.7175   32.7988   15.8257 C   0  0  0  0  0  0  0  0  0  0  0  0
   15.6269   34.9260   10.7351 C   0  0  0  0  0  0  0  0  0  0  0  0
  2  1  2  0
  4  1  1  0
  5  3  1  0
  8  6  1  0
  9  3  1  0
  9  7  1  0
 10  7  1  0
 12  4  2  0
 12  7  1  0
 13  9  1  0
 14 12  1  0
 15  7  1  0
 16  5  1  0
 16 11  1  0
 17  8  2  0
 18  2  1  0
 18  6  2  0
 18 14  1  0
 19 14  2  0
 19 17  1  0
 20 11  1  0
 20 13  1  0
M  RAD  2  10   2  15   2
M  END
>  <ID>  (1) 
conformer_0

$$$$
