
     RDKit          3D

 19 20  0  0  0  0  0  0  0  0999 V2000
   11.8353   35.8522   16.7283 C   0  0  0  0  0  0  0  0  0  0  0  0
   14.8009   34.9731   12.0064 C   0  0  0  0  0  0  0  0  0  0  0  0
   13.0616   36.4851   16.0716 C   0  0  0  0  0  0  0  0  0  0  0  0
   13.7231   35.6188   15.2855 C   0  0  0  0  0  0  0  0  0  0  0  0
   10.4863   31.8787   16.3673 C   0  0  0  0  0  0  0  0  0  0  0  0
   16.9095   35.2749   12.8897 C   0  0  0  0  0  0  0  0  0  0  0  0
    9.8361   32.9106   17.1445 N   0  0  0  0  0  0  0  0  0  0  0  0
   15.5848   34.5776   12.8427 N   0  0  0  0  0  0  0  0  0  0  0  0
   14.4189   33.1820   14.1416 S   0  0  0  0  0  4  0  0  0  0  0  0
   13.3843   34.1866   15.0846 C   0  0  0  0  0  0  0  0  0  0  0  0
   17.5389   36.0348   13.3588 C   0  0  0  0  0  0  0  0  0  0  0  0
   15.3707   32.2685   14.7566 O   0  0  0  0  0  1  0  0  0  0  0  0
   12.4471   33.9541   15.8253 C   0  0  0  0  0  0  0  0  0  0  0  0
   16.5189   35.9183   10.4972 N   0  0  0  0  0  0  0  0  0  0  0  0
   10.1284   33.9170   17.0006 C   0  0  0  0  0  0  0  0  0  0  0  0
   15.7035   35.0363   10.7134 C   0  0  0  0  0  0  0  0  0  0  0  0
   13.8069   32.4338   13.3694 O   0  0  0  0  0  1  0  0  0  0  0  0
   11.3156   34.4648   16.6685 C   0  0  0  0  0  0  0  0  0  0  0  0
   11.6420   32.3095   15.8692 C   0  0  0  0  0  0  0  0  0  0  0  0
  3  1  2  0
  4  3  1  0
  7  5  1  0
  8  2  1  0
  8  6  1  0
  9  8  1  0
 10  4  2  0
 10  9  1  0
 11  6  2  3
 12  9  1  0
 13 10  1  0
 15  7  2  0
 16  2  1  0
 16 14  1  0
 17  9  1  0
 18  1  1  0
 18 13  2  0
 18 15  1  0
 19  5  2  0
 19 13  1  0
M  RAD  2  12   2  17   2
M  END
>  <ID>  (1) 
conformer_0

$$$$
