
     RDKit          3D

 20 22  0  0  0  0  0  0  0  0999 V2000
   13.7566   35.6879   15.5280 C   0  0  0  0  0  0  0  0  0  0  0  0
   13.0158   36.2718   16.5164 C   0  0  0  0  0  0  0  0  0  0  0  0
   17.7326   35.3988   12.8432 C   0  0  0  0  0  0  0  0  0  0  0  0
   17.0350   35.0125   11.7263 C   0  0  0  0  0  0  0  0  0  0  0  0
   11.7972   35.5360   16.8562 C   0  0  0  0  0  0  0  0  0  0  0  0
   14.3420   33.3871   13.8802 S   0  0  0  0  0  4  0  0  0  0  0  0
   10.5286   31.6963   16.3144 C   0  0  0  0  0  0  0  0  0  0  0  0
   13.5220   34.3509   14.9908 C   0  0  0  0  0  0  0  0  0  0  0  0
    9.7602   32.7017   16.9835 N   0  0  0  0  0  0  0  0  0  0  0  0
   13.7204   32.4429   13.2579 O   0  0  0  0  0  1  0  0  0  0  0  0
   12.3612   33.9312   15.5495 C   0  0  0  0  0  0  0  0  0  0  0  0
   15.0333   34.2254   10.9890 C   0  0  0  0  0  0  0  0  0  0  0  0
   15.5021   32.7114   14.6782 O   0  0  0  0  0  1  0  0  0  0  0  0
   11.6895   32.5579   15.7393 C   0  0  0  0  0  0  0  0  0  0  0  0
   17.1652   36.3735   13.2258 C   0  0  0  0  0  0  0  0  0  0  0  0
   15.3538   34.4380   13.2667 N   0  0  0  0  0  0  0  0  0  0  0  0
   16.3566   35.1971   10.7440 N   0  0  0  0  0  0  0  0  0  0  0  0
   10.0804   33.7203   17.0097 C   0  0  0  0  0  0  0  0  0  0  0  0
   15.3683   35.0893   12.5576 C   0  0  0  0  0  0  0  0  0  0  0  0
   11.1853   34.3500   16.6081 C   0  0  0  0  0  0  0  0  0  0  0  0
  2  1  2  0
  4  3  1  0
  5  2  1  0
  8  1  1  0
  8  6  1  0
  9  7  1  0
 10  6  1  0
 11  8  2  0
 13  6  1  0
 14  7  2  0
 14 11  1  0
 15  3  1  0
 16  6  1  0
 17  4  1  0
 17 12  1  0
 18  9  2  0
 19  4  1  0
 19 12  1  0
 19 16  1  0
 20  5  2  0
 20 11  1  0
 20 18  1  0
M  RAD  2  10   2  13   2
M  END
>  <ID>  (1) 
conformer_0

$$$$
