
     RDKit          3D

 13 13  0  0  0  0  0  0  0  0999 V2000
   12.2408   35.7015   16.5605 C   0  0  0  0  0  0  0  0  0  0  0  0
   13.2543   35.6992   15.8055 C   0  0  0  0  0  0  0  0  0  0  0  0
   17.0060   35.3024   11.8371 C   0  0  0  0  0  0  0  0  0  0  0  0
   11.2459   34.5887   16.7469 C   0  0  0  0  0  0  0  0  0  0  0  0
   10.3835   32.6748   16.6876 C   0  0  0  0  0  0  0  0  0  0  0  0
   17.8002   35.5081   12.9909 C   0  0  0  0  0  0  0  0  0  0  0  0
    9.9444   32.5089   17.1423 N   0  0  0  0  0  0  0  0  0  0  0  0
   13.2859   34.1074   15.1419 C   0  0  0  0  0  0  0  0  0  0  0  0
   14.4451   33.4512   13.9764 S   0  0  0  0  0  3  0  0  0  0  0  0
   14.8874   32.6126   14.2284 O   0  0  0  0  0  1  0  0  0  0  0  0
   15.1408   34.7812   11.8563 C   0  0  0  0  0  0  0  0  0  0  0  0
   11.8863   33.3495   15.8382 C   0  0  0  0  0  3  0  0  0  0  0  0
   15.7990   34.3485   12.8614 N   0  0  0  0  0  0  0  0  0  0  0  0
  2  1  2  0
  4  1  1  0
  6  3  1  0
  7  5  3  0
  8  2  1  0
  9  8  1  0
 10  9  1  0
 11  8  1  0
 12  4  1  0
 12  5  1  0
 12  8  1  0
 13  3  1  0
 13 11  1  0
M  RAD  3   9   2  10   2  12   2
M  END
>  <ID>  (1) 
conformer_0

$$$$
