
     RDKit          3D

 19 20  0  0  0  0  0  0  0  0999 V2000
   12.4023   36.5046   16.7019 C   0  0  0  0  0  0  0  0  0  0  0  0
   13.6134   36.1914   15.8148 C   0  0  0  0  0  0  0  0  0  0  0  0
   16.5555   35.3005   11.3218 C   0  0  0  0  0  0  0  0  0  0  0  0
   11.3656   35.3891   16.9146 C   0  0  0  0  0  0  0  0  0  0  0  0
   17.5884   35.5467   13.1639 C   0  0  0  0  0  0  0  0  0  0  0  0
   10.6147   31.7648   16.3200 C   0  0  0  0  0  0  0  0  0  0  0  0
   15.3821   34.2689   12.9622 N   0  0  0  0  0  0  0  0  0  0  0  0
   13.2569   33.7351   15.1529 C   0  0  0  0  0  0  0  0  0  0  0  0
   13.0041   34.7115   15.6950 C   0  0  0  0  0  3  0  0  0  0  0  0
   14.2594   33.1530   13.9519 S   0  0  0  0  0  4  0  0  0  0  0  0
   16.6159   35.5059   10.7905 N   0  0  0  0  0  0  0  0  0  0  0  0
    9.9547   33.0016   17.1122 N   0  0  0  0  0  0  0  0  0  0  0  0
   13.6385   32.5540   13.0553 O   0  0  0  0  0  1  0  0  0  0  0  0
   16.6147   34.6429   13.2091 C   0  0  0  0  0  0  0  0  0  0  0  0
   11.7175   33.8793   16.1987 C   0  0  2  0  0  0  0  0  0  0  0  0
   15.2474   32.3527   14.7250 O   0  0  0  0  0  1  0  0  0  0  0  0
   11.7649   32.1425   15.6624 C   0  0  0  0  0  0  0  0  0  0  0  0
   10.5388   33.6502   16.9089 C   0  0  0  0  0  0  0  0  0  0  0  0
   14.8012   34.6853   11.4295 C   0  0  0  0  0  0  0  0  0  0  0  0
  2  1  2  0
  4  1  1  0
  9  2  1  0
  9  8  1  0
 10  7  1  0
 10  8  1  0
 11  3  1  0
 12  6  1  0
 13 10  1  0
 14  5  2  3
 14  7  1  0
 15  4  1  1
 15  9  1  0
 16 10  1  0
 17  6  2  0
 17 15  1  0
 18 12  2  0
 18 15  1  0
 19  3  1  0
 19  7  1  0
M  RAD  3   9   2  13   2  16   2
M  END
>  <ID>  (1) 
conformer_0

$$$$
