
     RDKit          3D

 20 22  0  0  0  0  0  0  0  0999 V2000
   11.6749   32.7750   15.9171 C   0  0  0  0  0  0  0  0  0  0  0  0
   12.4700   33.9751   15.5329 C   0  0  0  0  0  0  0  0  0  0  0  0
   15.5845   34.8270   10.6458 C   0  0  0  0  0  0  0  0  0  0  0  0
   17.4145   36.1583   13.0857 C   0  0  0  0  0  0  0  0  0  0  0  0
   12.7680   36.4084   16.2550 C   0  0  0  0  0  0  0  0  0  0  0  0
   15.5317   34.2418   13.1611 N   0  0  0  0  0  0  0  0  0  0  0  0
   10.4985   31.8417   16.5458 C   0  0  0  0  0  0  0  0  0  0  0  0
   16.5721   35.6339   10.3867 N   0  0  0  0  0  0  0  0  0  0  0  0
    9.7313   32.8717   17.2652 N   0  0  0  0  0  0  0  0  0  0  0  0
   13.5355   34.3333   14.8791 C   0  0  0  0  0  0  0  0  0  0  0  0
   14.5001   33.4721   13.8114 S   0  0  0  0  0  4  0  0  0  0  0  0
   14.0969   32.4870   12.8912 O   0  0  0  0  0  1  0  0  0  0  0  0
   13.6281   35.7567   15.4741 C   0  0  0  0  0  0  0  0  0  0  0  0
   15.3498   35.3209   12.0539 C   0  0  0  0  0  0  0  0  0  0  0  0
   11.6128   35.7433   16.8762 C   0  0  0  0  0  3  0  0  0  0  0  0
   10.0196   33.9222   17.1838 C   0  0  0  0  0  0  0  0  0  0  0  0
   15.3854   32.6493   14.4893 O   0  0  0  0  0  1  0  0  0  0  0  0
   17.0563   34.4704   13.1792 C   0  0  0  0  0  0  0  0  0  0  0  0
   11.2457   34.4319   16.7060 C   0  0  0  0  0  0  0  0  0  0  0  0
   17.7270   34.7266   12.8516 C   0  0  0  0  0  0  0  0  0  0  0  0
  2  1  1  0
  7  1  2  0
  8  3  1  0
  9  7  1  0
 10  2  2  0
 11  6  1  0
 11 10  1  0
 12 11  1  0
 13  5  2  0
 13 10  1  0
 14  3  1  0
 14  6  1  0
 15  5  1  0
 16  9  2  0
 17 11  1  0
 18  6  1  0
 19  1  1  0
 19  2  1  0
 19 15  1  0
 19 16  1  0
 20  4  1  0
 20 18  1  0
M  RAD  3  12   2  15   2  17   2
M  END
>  <ID>  (1) 
conformer_0

$$$$
