
     RDKit          3D

 18 20  0  0  0  0  0  0  0  0999 V2000
   12.9808   35.8996   16.4753 C   0  0  0  0  0  0  0  0  0  0  0  0
   13.8219   35.6011   15.6617 C   0  0  0  0  0  0  0  0  0  0  0  0
   16.3722   35.3167   11.2037 C   0  0  0  0  0  0  0  0  0  0  0  0
   11.8694   32.7373   15.8073 C   0  0  0  0  0  0  0  0  0  0  0  0
   17.6067   35.5524   13.1106 C   0  0  0  0  0  0  0  0  0  0  0  0
   16.9700   35.3823   10.6699 N   0  0  0  0  0  0  0  0  0  0  0  0
   13.4557   34.0640   14.9894 C   0  0  0  0  0  0  0  0  0  0  0  0
   14.3372   33.3150   13.7602 S   0  0  0  0  0  4  0  0  0  0  0  0
   10.6290   32.1672   16.4250 C   0  0  0  0  0  0  0  0  0  0  0  0
    9.7771   32.9848   17.0233 N   0  0  0  0  0  0  0  0  0  0  0  0
   15.1974   32.2162   14.3068 O   0  0  0  0  0  1  0  0  0  0  0  0
   15.2650   34.6003   12.9553 N   0  0  0  0  0  0  0  0  0  0  0  0
   14.6116   34.9573   11.7538 C   0  0  0  0  0  0  0  0  0  0  0  0
   12.2792   34.0905   15.8956 C   0  0  0  0  0  0  0  0  0  0  0  0
   11.3947   34.9264   16.7706 C   0  0  0  0  0  0  0  0  0  0  0  0
   10.0188   34.1366   17.0494 C   0  0  0  0  0  0  0  0  0  0  0  0
   13.6990   32.6058   12.8774 O   0  0  0  0  0  1  0  0  0  0  0  0
   16.7722   34.8952   12.9926 C   0  0  0  0  0  0  0  0  0  0  0  0
  2  1  2  0
  6  3  1  0
  7  2  1  0
  8  7  1  0
  9  4  1  0
 10  9  2  0
 11  8  1  0
 12  8  1  0
 13  3  1  0
 13 12  1  0
 14  4  1  0
 14  7  2  0
 15  1  1  0
 15 14  1  0
 16 10  1  0
 16 15  2  0
 17  8  1  0
 18  3  1  0
 18  5  1  0
 18 12  1  0
M  RAD  2  11   2  17   2
M  END
>  <ID>  (1) 
conformer_0

$$$$
