
     RDKit          3D

 14 16  0  0  0  0  0  0  0  0999 V2000
   12.6456   35.7041   16.5251 C   0  0  0  0  0  0  0  0  0  0  0  0
   13.5394   35.6465   15.7744 C   0  0  0  0  0  0  0  0  0  0  0  0
   16.8932   35.2487   12.5359 C   0  0  0  0  0  0  0  0  0  0  0  0
   11.9659   33.1126   15.7891 C   0  0  0  0  0  0  0  0  0  0  0  0
   10.5475   33.1090   16.8317 C   0  0  0  0  0  0  0  0  0  0  0  0
   14.2376   33.3852   13.5712 S   0  0  0  0  0  0  0  0  0  0  0  0
   13.2219   34.0807   15.0218 C   0  0  0  0  0  0  0  0  0  0  0  0
   17.6194   35.8823   13.3123 C   0  0  0  0  0  0  0  0  0  0  0  0
   14.2561   32.5745   13.3834 O   0  0  0  0  0  0  0  0  0  0  0  0
   15.3573   34.8426   11.6515 C   0  0  0  0  0  0  0  0  0  0  0  0
   16.8168   35.7837   11.1203 N   0  0  0  0  0  0  0  0  0  0  0  0
   11.4944   34.6456   16.6615 C   0  0  1  0  0  0  0  0  0  0  0  0
    9.4850   33.2173   17.6736 O   0  0  0  0  0  0  0  0  0  0  0  0
   15.6368   34.4520   12.8001 N   0  0  0  0  0  0  0  0  0  0  0  0
  2  1  2  0
  5  4  1  0
  7  2  1  0
  7  4  2  0
  7  6  1  0
  8  3  2  3
  9  6  1  0
 11  3  1  0
 11 10  1  0
 12  1  1  0
 12  4  1  0
 12  5  1  1
 13  5  1  0
 14  3  1  0
 14  9  1  0
 14 10  1  0
M  END
>  <ID>  (1) 
conformer_0

$$$$
