
     RDKit          3D

 20 21  0  0  0  0  0  0  0  0999 V2000
   13.0699   36.4320   16.2199 C   0  0  0  0  0  0  0  0  0  0  0  0
   13.8698   35.6761   15.3411 C   0  0  0  0  0  0  0  0  0  0  0  0
   16.2735   34.9236   13.0834 C   0  0  0  0  0  0  0  0  0  0  0  0
   12.4397   34.3758   15.7625 C   0  0  0  0  0  0  0  0  0  0  0  0
   16.7343   35.7051   10.4315 N   0  0  0  0  0  0  0  0  0  0  0  0
   14.4921   33.2988   13.9025 S   0  0  0  0  0  4  0  0  0  0  0  0
   11.1414   32.3849   16.2025 C   0  0  0  0  0  0  0  0  0  0  0  0
   10.0050   32.8084   16.9897 N   0  0  0  0  0  0  0  0  0  0  0  0
   13.6313   34.3414   14.9780 C   0  0  0  0  0  0  0  0  0  0  0  0
   15.2338   32.3316   14.6850 O   0  0  0  0  0  1  0  0  0  0  0  0
   17.6718   35.0192   12.4824 C   0  0  0  0  0  0  0  0  0  0  0  0
   15.3205   34.2205   13.2761 N   0  0  0  0  0  0  0  0  0  0  0  0
   10.6429   31.3858   16.0337 N   0  0  0  0  0  0  0  0  0  0  0  0
   11.9391   36.0240   16.8523 C   0  0  0  0  0  0  0  0  0  0  0  0
   15.1331   34.7346   11.3607 C   0  0  0  0  0  0  0  0  0  0  0  0
   13.9616   32.4736   12.8864 O   0  0  0  0  0  1  0  0  0  0  0  0
   11.0862   34.7649   16.8823 C   0  0  0  0  0  0  0  0  0  0  0  0
   12.1139   33.1215   15.5744 C   0  0  0  0  0  0  0  0  0  0  0  0
   10.2701   34.1149   17.1488 C   0  0  0  0  0  0  0  0  0  0  0  0
   17.1341   35.3445   11.2243 C   0  0  0  0  0  0  0  0  0  0  0  0
  2  1  2  0
  8  7  1  0
  9  2  1  0
  9  4  2  0
  9  6  1  0
 10  6  1  0
 11  3  1  0
 12  3  1  0
 12  6  1  0
 13  7  1  0
 14  1  1  0
 15 12  1  0
 16  6  1  0
 17  4  1  0
 17 14  2  0
 18  4  1  0
 18  7  2  0
 19  8  2  0
 19 17  1  0
 20  5  1  0
 20 11  1  0
M  RAD  2  10   2  16   2
M  END
>  <ID>  (1) 
conformer_0

$$$$
