
     RDKit          3D

 21 24  0  0  0  0  0  0  0  0999 V2000
   13.2535   36.1991   16.2850 C   0  0  0  0  0  0  0  0  0  0  0  0
   13.8066   35.3756   15.3066 C   0  0  0  0  0  0  0  0  0  0  0  0
   14.7991   34.7641   12.1218 C   0  0  0  0  0  0  0  0  0  0  0  0
   17.4804   35.5834   13.2088 C   0  0  0  0  0  0  0  0  0  0  0  0
   12.0223   35.6222   16.8308 C   0  0  0  0  0  0  0  0  0  0  0  0
   10.3861   31.8288   16.4153 C   0  0  0  0  0  0  0  0  0  0  0  0
   15.3458   33.8407   13.1483 N   0  0  0  0  0  0  0  0  0  0  0  0
   13.4482   33.9892   15.1136 C   0  0  0  0  0  0  0  0  0  0  0  0
    9.6356   32.8075   17.0992 N   0  0  0  0  0  0  0  0  0  0  0  0
   15.7094   32.2138   14.9047 O   0  0  0  0  0  1  0  0  0  0  0  0
   14.7140   33.0865   14.0194 S   0  0  0  0  0  4  0  0  0  0  0  0
   16.8922   35.8166   11.9955 C   0  0  0  0  0  0  0  0  0  0  0  0
   12.4069   33.8137   15.7154 C   0  0  0  0  0  0  0  0  0  0  0  0
   10.0762   34.0128   17.0724 C   0  0  0  0  0  0  0  0  0  0  0  0
   16.5237   35.9255   10.8913 N   0  0  0  0  0  0  0  0  0  0  0  0
   14.1715   32.1526   13.4246 O   0  0  0  0  0  1  0  0  0  0  0  0
   11.5356   32.5121   15.8209 C   0  0  0  0  0  0  0  0  0  0  0  0
   16.9429   34.0611   13.3668 C   0  0  0  0  0  0  0  0  0  0  0  0
   15.8636   35.3583   11.9054 N   0  0  0  0  0  0  0  0  0  0  0  0
   11.1700   34.4991   16.6995 C   0  0  0  0  0  0  0  0  0  0  0  0
   15.2597   35.3548   10.5658 C   0  0  0  0  0  0  0  0  0  0  0  0
  2  1  2  0
  5  1  1  0
  7  3  1  0
  8  2  1  0
  9  6  1  0
 11  7  1  0
 11  8  1  0
 11 10  1  0
 12  4  1  0
 13  8  2  0
 14  9  2  0
 15 12  1  0
 16 11  1  0
 17  6  2  0
 17 13  1  0
 18  4  1  0
 18  7  1  0
 19  3  1  0
 19 12  1  0
 19 15  1  0
 20  5  2  0
 20 13  1  0
 20 14  1  0
 21  3  1  0
M  RAD  2  10   2  16   2
M  END
>  <ID>  (1) 
conformer_0

$$$$
