
     RDKit          3D

 20 22  0  0  0  0  0  0  0  0999 V2000
   13.3324   36.4755   16.2445 C   0  0  0  0  0  0  0  0  0  0  0  0
   13.9037   35.8070   15.3076 C   0  0  0  0  0  0  0  0  0  0  0  0
   17.3731   35.8178   11.8272 C   0  0  0  0  0  0  0  0  0  0  0  0
   12.2381   35.7093   16.7588 C   0  0  0  0  0  0  0  0  0  0  0  0
   10.4274   31.7796   16.4627 C   0  0  0  0  0  0  0  0  0  0  0  0
   16.7145   35.9389   10.5940 N   0  0  0  0  0  0  0  0  0  0  0  0
   17.5632   35.5169   13.2032 C   0  0  0  0  0  0  0  0  0  0  0  0
   13.4820   34.4184   15.0415 C   0  0  0  0  0  0  0  0  0  0  0  0
    9.7267   32.8229   17.0707 N   0  0  0  0  0  0  0  0  0  0  0  0
   15.5634   32.5322   14.8380 O   0  0  0  0  0  1  0  0  0  0  0  0
   14.6105   33.3508   14.0427 S   0  0  0  0  0  4  0  0  0  0  0  0
   15.5856   35.1127   10.6220 C   0  0  0  0  0  0  0  0  0  0  0  0
   15.4371   34.3845   13.0595 N   0  0  0  0  0  0  0  0  0  0  0  0
   12.4032   33.9273   15.7847 C   0  0  0  0  0  0  0  0  0  0  0  0
   11.6643   32.3430   15.8979 C   0  0  0  0  0  0  0  0  0  0  0  0
   13.9782   32.5365   13.4643 O   0  0  0  0  0  1  0  0  0  0  0  0
   10.1438   33.8296   17.0317 C   0  0  0  0  0  0  0  0  0  0  0  0
   14.9074   35.1988   12.1209 C   0  0  0  0  0  0  0  0  0  0  0  0
   11.3758   34.3460   16.6543 C   0  0  0  0  0  0  0  0  0  0  0  0
   16.7447   34.4550   13.0269 C   0  0  0  0  0  0  0  0  0  0  0  0
  2  1  2  0
  4  1  1  0
  6  3  1  0
  7  3  1  0
  8  2  1  0
  9  5  1  0
 11  8  1  0
 11 10  1  0
 12  6  1  0
 13 11  1  0
 14  8  2  0
 15  5  2  0
 15 14  1  0
 16 11  1  0
 17  9  2  0
 18 12  1  0
 18 13  1  0
 19  4  2  0
 19 14  1  0
 19 17  1  0
 20  7  1  0
 20 13  1  0
M  RAD  2  10   2  16   2
M  END
>  <ID>  (1) 
conformer_0

$$$$
