
     RDKit          3D

 20 22  0  0  0  0  0  0  0  0999 V2000
   13.3952   35.4364   15.5158 C   0  0  0  0  0  0  0  0  0  0  0  0
   12.6473   36.3452   16.2396 C   0  0  0  0  0  0  0  0  0  0  0  0
   15.6372   34.9824   10.5040 C   0  0  0  0  0  0  0  0  0  0  0  0
   12.3459   33.7743   15.6003 C   0  0  0  0  0  0  0  0  0  0  0  0
   16.6673   35.7928   10.4921 N   0  0  0  0  0  0  0  0  0  0  0  0
   14.6080   33.1433   14.1245 S   0  0  0  0  0  4  0  0  0  0  0  0
   10.4726   32.0615   16.4536 C   0  0  0  0  0  0  0  0  0  0  0  0
   15.6700   33.9777   13.0495 N   0  0  0  0  0  0  0  0  0  0  0  0
   15.5958   32.1095   14.8529 O   0  0  0  0  0  1  0  0  0  0  0  0
   17.4252   35.3988   13.3131 C   0  0  0  0  0  0  0  0  0  0  0  0
    9.7445   32.9692   17.1276 N   0  0  0  0  0  0  0  0  0  0  0  0
   13.3803   33.9162   15.0734 C   0  0  0  0  0  0  0  0  0  0  0  0
   17.0839   35.6643   11.7015 C   0  0  0  0  0  0  0  0  0  0  0  0
   11.7819   32.3987   15.7749 C   0  0  0  0  0  0  0  0  0  0  0  0
   14.0319   32.4198   13.3405 O   0  0  0  0  0  1  0  0  0  0  0  0
   11.2587   34.4347   16.5682 C   0  0  0  0  0  0  0  0  0  0  0  0
   10.0914   34.1427   17.0594 C   0  0  0  0  0  0  0  0  0  0  0  0
   14.7259   34.9293   12.1502 C   0  0  0  0  0  0  0  0  0  0  0  0
   16.7098   34.5860   13.4558 C   0  0  0  0  0  0  0  0  0  0  0  0
   11.3493   35.8146   16.9172 C   0  0  0  0  0  0  0  0  0  0  0  0
  2  1  2  0
  5  3  1  0
  8  6  1  0
  9  6  1  0
 11  7  1  0
 12  1  1  0
 12  4  2  0
 12  6  1  0
 13  5  1  0
 13 10  1  0
 14  4  1  0
 14  7  2  0
 15  6  1  0
 16  4  1  0
 17 11  2  0
 17 16  1  0
 18  3  1  0
 18  8  1  0
 19  8  1  0
 19 10  1  0
 20  2  1  0
 20 16  2  0
M  RAD  2   9   2  15   2
M  END
>  <ID>  (1) 
conformer_0

$$$$
