
     RDKit          3D

 20 22  0  0  0  0  0  0  0  0999 V2000
   11.8876   35.8358   16.8330 C   0  0  0  0  0  0  0  0  0  0  0  0
   13.2215   36.3275   16.4719 C   0  0  0  0  0  0  0  0  0  0  0  0
   14.5178   34.9334   12.1410 C   0  0  0  0  0  0  0  0  0  0  0  0
   11.2462   34.5459   16.7179 C   0  0  0  0  0  0  0  0  0  0  0  0
   17.6264   35.4899   13.0409 C   0  0  0  0  0  0  0  0  0  0  0  0
    9.7848   32.9316   17.2480 N   0  0  0  0  0  0  0  0  0  0  0  0
   10.2132   34.0618   17.2276 C   0  0  0  0  0  0  0  0  0  0  0  0
   16.6083   35.9760   10.9878 N   0  0  0  0  0  0  0  0  0  0  0  0
   15.7337   32.5576   14.6384 O   0  0  0  0  0  1  0  0  0  0  0  0
   13.1243   34.1758   15.0851 C   0  0  0  0  0  0  0  0  0  0  0  0
   14.5697   33.1451   13.8861 S   0  0  0  0  0  4  0  0  0  0  0  0
   16.7188   34.5525   13.0852 C   0  0  0  0  0  0  0  0  0  0  0  0
   12.2198   33.7272   15.6477 C   0  0  0  0  0  0  0  0  0  0  0  0
   15.2387   34.1558   13.0424 N   0  0  0  0  0  0  0  0  0  0  0  0
   14.0793   32.1752   13.3450 O   0  0  0  0  0  1  0  0  0  0  0  0
   10.4044   32.0290   16.5175 C   0  0  0  0  0  0  0  0  0  0  0  0
   11.5650   32.3668   15.6792 C   0  0  0  0  0  0  0  0  0  0  0  0
   15.3227   35.1828   10.5797 C   0  0  0  0  0  0  0  0  0  0  0  0
   17.1869   35.7158   11.6613 C   0  0  0  0  0  0  0  0  0  0  0  0
   13.6107   35.5340   15.5551 C   0  0  0  0  0  0  0  0  0  0  0  0
  2  1  2  0
  4  1  1  0
  7  4  2  0
  7  6  1  0
 11  9  1  0
 11 10  1  0
 12  5  1  0
 13  4  1  0
 13 10  1  0
 14  3  1  0
 14 11  1  0
 14 12  1  0
 15 11  1  0
 16  6  2  0
 17 13  2  0
 17 16  1  0
 18  3  1  0
 18  8  1  0
 19  5  1  0
 19  8  1  0
 20  2  1  0
 20 10  2  0
M  RAD  2   9   2  15   2
M  END
>  <ID>  (1) 
conformer_0

$$$$
