
     RDKit          3D

 20 24  0  0  0  0  0  0  0  0999 V2000
   12.9381   36.2590   16.3112 C   0  0  0  0  0  0  0  0  0  0  0  0
   11.8095   35.3715   16.7940 C   0  0  0  0  0  0  0  0  0  0  0  0
   15.9784   35.0421   13.0340 C   0  0  0  0  0  0  0  0  0  0  0  0
   13.7533   35.4963   15.4322 C   0  0  0  0  0  0  0  0  0  0  0  0
   17.6270   35.5061   13.3274 C   0  0  0  0  0  0  0  0  0  0  0  0
    9.7453   32.7645   17.2034 N   0  0  0  0  0  0  0  0  0  0  0  0
   14.4099   33.3199   13.8903 S   0  0  0  0  0  4  0  0  0  0  0  0
   13.5436   34.0877   14.9426 C   0  0  0  0  0  0  0  0  0  0  0  0
   10.0566   34.0089   17.1634 C   0  0  0  0  0  0  0  0  0  0  0  0
   15.4689   34.6964   12.8504 N   0  0  0  0  0  0  0  0  0  0  0  0
   13.8248   32.6871   12.8626 O   0  0  0  0  0  1  0  0  0  0  0  0
   15.2167   34.7807   11.0152 C   0  0  0  0  0  0  0  0  0  0  0  0
   12.5227   33.8060   15.4833 C   0  0  0  0  0  3  0  0  0  0  0  0
   17.9347   34.0554   11.5566 O   0  0  0  0  0  0  0  0  0  0  0  0
   15.3394   32.3453   14.4026 O   0  0  0  0  0  1  0  0  0  0  0  0
   16.7304   35.6558   10.8586 N   0  0  0  0  0  0  0  0  0  0  0  0
   10.5301   31.8522   16.4089 C   0  0  0  0  0  0  0  0  0  0  0  0
   11.6805   32.5031   15.6838 C   0  0  0  0  0  0  0  0  0  0  0  0
   17.1678   35.5825   11.7815 C   0  0  0  0  0  0  0  0  0  0  0  0
   11.2828   34.2008   16.5255 C   0  0  0  0  0  0  0  0  0  0  0  0
  2  1  2  0
  4  1  1  0
  5  3  1  0
  8  4  2  0
  8  7  1  0
  9  6  2  0
 10  3  1  0
 10  7  1  0
 11  7  1  0
 12 10  1  0
 13  8  1  0
 15  7  1  0
 16 12  1  0
 17  6  1  0
 18 13  1  0
 18 17  2  0
 19  3  1  0
 19  5  1  0
 19 14  1  0
 19 16  1  0
 20  2  1  0
 20  9  1  0
 20 13  1  0
 20 18  1  0
M  RAD  3  11   2  13   2  15   2
M  END
>  <ID>  (1) 
conformer_0

$$$$
