
     RDKit          3D

 16 18  0  0  0  0  0  0  0  0999 V2000
   12.0642   33.2508   15.8507 C   0  0  0  0  0  0  0  0  0  0  0  0
   12.6736   36.3132   16.2968 C   0  0  0  0  0  0  0  0  0  0  0  0
   16.0475   34.6330   12.9514 C   0  0  1  0  0  0  0  0  0  0  0  0
   13.2857   35.5215   15.5598 C   0  0  0  0  0  0  0  0  0  0  0  0
   10.8455   32.3217   16.4756 C   0  0  0  0  0  0  0  0  0  0  0  0
   17.6072   35.1675   13.1719 C   0  0  0  0  0  0  0  0  0  0  0  0
   13.1714   33.9758   15.0648 C   0  0  0  0  0  0  0  0  0  0  0  0
   16.8524   35.7877   10.9315 N   0  0  0  0  0  0  0  0  0  0  0  0
   14.2757   33.2239   14.0846 S   0  0  0  0  0  3  0  0  0  0  0  0
   14.6989   32.4256   14.3300 O   0  0  0  0  0  1  0  0  0  0  0  0
   14.8700   34.6632   11.3361 C   0  0  0  0  0  0  0  0  0  0  0  0
   11.1179   34.2500   16.6737 C   0  0  0  0  0  0  0  0  0  0  0  0
   10.1589   32.2484   16.8525 N   0  0  0  0  0  0  0  0  0  0  0  0
   11.4027   35.5059   16.9074 C   0  0  0  0  0  0  0  0  0  0  0  0
   17.0511   35.4405   11.5265 C   0  0  2  0  0  0  0  0  0  0  0  0
   15.2845   34.3500   12.7293 N   0  0  0  0  0  0  0  0  0  0  0  0
  4  2  2  0
  4  3  1  0
  5  1  1  0
  6  3  1  0
  7  1  2  0
  7  4  1  0
  9  7  1  0
 10  9  1  0
 12  1  1  0
 12  5  1  0
 13  5  2  3
 14  2  1  0
 14 12  2  0
 15  3  1  0
 15  6  1  0
 15  8  1  1
  3 16  1  6
 16 11  1  0
M  RAD  2   9   2  10   2
M  END
>  <ID>  (1) 
conformer_0

$$$$
