
     RDKit          3D

 19 21  0  0  0  0  0  0  0  0999 V2000
   14.0249   35.6974   15.5380 C   0  0  0  0  0  0  0  0  0  0  0  0
   13.3483   36.3728   16.5365 C   0  0  0  0  0  0  0  0  0  0  0  0
   17.0577   34.8864   12.6113 C   0  0  0  0  0  0  0  0  0  0  0  0
   17.6268   35.7459   12.9624 C   0  0  0  0  0  0  0  0  0  0  0  0
   11.1339   34.7981   16.8457 C   0  0  0  0  0  0  0  0  0  0  0  0
    9.9620   32.6580   16.7988 N   0  0  0  0  0  0  0  0  0  0  0  0
   10.7828   31.9134   16.0909 C   0  0  0  0  0  0  0  0  0  0  0  0
   13.4358   34.2371   15.1814 C   0  0  0  0  0  0  0  0  0  0  0  0
   16.2721   35.3111   10.4583 N   0  0  0  0  0  0  0  0  0  0  0  0
   14.4123   33.2600   14.0475 S   0  0  0  0  0  4  0  0  0  0  0  0
   15.5781   32.5472   14.8025 O   0  0  0  0  0  1  0  0  0  0  0  0
   14.5561   34.2304   11.9646 C   0  0  0  0  0  0  0  0  0  0  0  0
   12.0688   36.0801   17.0156 C   0  0  0  0  0  0  0  0  0  0  0  0
   15.4066   34.2563   13.0302 N   0  0  0  0  0  0  0  0  0  0  0  0
   13.9415   32.1613   13.6562 O   0  0  0  0  0  1  0  0  0  0  0  0
   11.8734   32.8396   15.6308 C   0  0  0  0  0  0  0  0  0  0  0  0
   10.2657   33.7425   16.9040 C   0  0  0  0  0  0  0  0  0  0  0  0
   15.8289   35.1189   11.2649 C   0  0  0  0  0  0  0  0  0  0  0  0
   12.3704   34.3522   15.8531 C   0  0  0  0  0  0  0  0  0  0  0  0
  2  1  2  0
  4  3  1  0
  7  6  1  0
  8  1  1  0
 10  8  1  0
 11 10  1  0
 13  2  1  0
 13  5  2  0
 14  3  1  0
 14 10  1  0
 14 12  1  0
 15 10  1  0
 16  7  2  0
 17  5  1  0
 17  6  2  0
 18  3  1  0
 18  9  1  0
 18 12  1  0
 19  5  1  0
 19  8  2  0
 19 16  1  0
M  RAD  2  11   2  15   2
M  END
>  <ID>  (1) 
conformer_0

$$$$
