
     RDKit          3D

 19 20  0  0  0  0  0  0  0  0999 V2000
   13.7879   35.6413   15.3332 C   0  0  0  0  0  0  0  0  0  0  0  0
   11.8338   35.7457   16.8403 C   0  0  0  0  0  0  0  0  0  0  0  0
   17.2666   35.3464   11.9715 C   0  0  0  0  0  0  0  0  0  0  0  0
   11.9522   33.0402   15.6574 C   0  0  0  0  0  0  0  0  0  0  0  0
   10.8271   32.1194   16.1433 C   0  0  0  0  0  0  0  0  0  0  0  0
   17.2937   35.4034   13.0406 C   0  0  0  0  0  0  0  0  0  0  0  0
   17.2592   35.5184   10.6921 N   0  0  0  0  0  0  0  0  0  0  0  0
    9.8184   32.7060   16.8961 N   0  0  0  0  0  0  0  0  0  0  0  0
   15.8260   32.5502   14.8461 O   0  0  0  0  0  1  0  0  0  0  0  0
   13.4596   34.3135   14.9535 C   0  0  0  0  0  0  0  0  0  0  0  0
   14.8621   33.2143   13.9430 S   0  0  0  0  0  4  0  0  0  0  0  0
   12.5266   34.2882   15.7199 C   0  0  0  0  0  0  0  0  0  0  0  0
   15.3724   35.0463   10.8767 C   0  0  0  0  0  0  0  0  0  0  0  0
   15.1166   34.2984   13.0127 N   0  0  0  0  0  0  0  0  0  0  0  0
   10.0894   33.9386   17.0202 C   0  0  0  0  0  0  0  0  0  0  0  0
   14.4320   32.2830   13.4915 O   0  0  0  0  0  1  0  0  0  0  0  0
   13.0032   36.3871   16.3269 C   0  0  0  0  0  0  0  0  0  0  0  0
   15.5196   34.7276   12.6377 C   0  0  0  0  0  0  0  0  0  0  0  0
   10.9410   34.6469   16.8333 C   0  0  0  0  0  0  0  0  0  0  0  0
  5  4  1  0
  6  3  1  0
  7  3  1  0
  8  5  2  0
 10  1  2  0
 11  9  1  0
 11 10  1  0
 12  2  1  0
 12  4  2  0
 12 10  1  0
 14 11  1  0
 15  8  1  0
 16 11  1  0
 17  1  1  0
 17  2  1  0
 18  6  1  0
 18 13  1  0
 18 14  1  0
 19  2  2  0
 19 15  2  0
M  RAD  2   9   2  16   2
M  END
>  <ID>  (1) 
conformer_0

$$$$
