
     RDKit          3D

 17 21  0  0  0  0  0  0  0  0999 V2000
   12.9443   36.3548   16.6407 C   0  0  0  0  0  0  0  0  0  0  0  0
   17.0101   35.5263   11.6860 C   0  0  0  0  0  0  0  0  0  0  0  0
   13.7847   35.8892   15.6024 C   0  0  0  0  0  0  0  0  0  0  0  0
   10.7008   31.7834   16.2345 C   0  0  0  0  0  0  0  0  0  0  0  0
   11.5914   35.1695   16.9385 C   0  0  0  0  0  0  0  0  0  0  0  0
   15.5852   33.9261   13.1010 N   0  0  0  0  0  0  0  0  0  0  0  0
    9.9992   32.7588   17.2356 N   0  0  0  0  0  0  0  0  0  0  0  0
   14.3122   33.2770   14.1258 S   0  0  0  0  0  0  0  0  0  0  0  0
   13.3423   34.0489   15.1459 C   0  0  0  0  0  0  0  0  0  0  0  0
   14.8858   32.3505   14.4477 O   0  0  0  0  0  0  0  0  0  0  0  0
   16.6783   34.7293   13.2209 C   0  0  0  0  0  0  0  0  0  0  0  0
   12.5015   34.4858   15.8707 C   0  0  0  0  0  0  0  0  0  0  0  0
   10.5817   33.6406   17.0954 C   0  0  0  0  0  0  0  0  0  0  0  0
   17.6635   35.7600   12.9420 C   0  0  0  0  0  0  0  0  0  0  0  0
   11.7470   32.9558   15.8737 C   0  0  0  0  0  0  0  0  0  0  0  0
   14.7614   34.2168   12.0589 C   0  0  0  0  0  0  0  0  0  0  0  0
   15.4681   35.0545   10.6313 C   0  0  0  0  0  0  0  0  0  0  0  0
  3  1  2  0
  5  1  1  0
  7  4  1  0
  9  8  1  0
 10  6  1  0
 10  8  1  0
 11  2  1  0
 11  6  1  0
 12  3  1  0
 12  5  1  0
 12  9  1  0
 13  5  1  0
 13  7  1  0
 14  2  1  0
 14 11  1  0
 15  4  1  0
 15 12  1  0
 15 13  2  0
 16  6  1  0
 17  2  1  0
 17 16  1  0
M  END
>  <ID>  (1) 
conformer_0

$$$$
