
     RDKit          3D

 19 20  0  0  0  0  0  0  0  0999 V2000
   11.0948   34.4148   16.7143 C   0  0  0  0  0  0  0  0  0  0  0  0
   13.0918   36.2412   16.3076 C   0  0  0  0  0  0  0  0  0  0  0  0
   17.0209   35.0548   12.5818 C   0  0  0  0  0  0  0  0  0  0  0  0
   13.9167   35.7431   15.5088 C   0  0  0  0  0  0  0  0  0  0  0  0
   13.7334   34.2550   14.9224 C   0  0  0  0  0  0  0  0  0  0  0  0
   17.5558   35.7895   13.2999 C   0  0  0  0  0  0  0  0  0  0  0  0
   10.5686   31.6443   16.2797 C   0  0  0  0  0  0  0  0  0  0  0  0
   16.5913   35.5695   10.2484 N   0  0  0  0  0  0  0  0  0  0  0  0
    9.8109   32.5054   17.0932 N   0  0  0  0  0  0  0  0  0  0  0  0
   14.5874   33.3254   13.8729 S   0  0  0  0  0  4  0  0  0  0  0  0
   15.4315   32.6150   14.7445 O   0  0  0  0  0  1  0  0  0  0  0  0
   12.3951   33.9406   15.7857 C   0  0  0  0  0  0  0  0  0  0  0  0
   15.8370   35.0037   10.6639 C   0  0  0  0  0  0  0  0  0  0  0  0
   15.9941   34.4805   12.7097 N   0  0  0  0  0  0  0  0  0  0  0  0
   10.0353   33.6616   17.0904 C   0  0  0  0  0  0  0  0  0  0  0  0
   11.7133   32.5922   15.7784 C   0  0  0  0  0  0  0  0  0  0  0  0
   14.9981   35.1022   12.1471 C   0  0  0  0  0  0  0  0  0  0  0  0
   11.8404   35.6490   16.7917 C   0  0  0  0  0  0  0  0  0  0  0  0
   14.1065   32.4523   13.2624 O   0  0  0  0  0  1  0  0  0  0  0  0
  4  2  2  0
  5  4  1  0
  6  3  2  3
  9  7  1  0
 10  5  1  0
 11 10  1  0
 12  1  1  0
 12  5  2  0
 13  8  1  0
 14  3  1  0
 14 10  1  0
 15  1  1  0
 15  9  2  0
 16  7  2  0
 16 12  1  0
 17 13  1  0
 17 14  1  0
 18  1  2  0
 18  2  1  0
 19 10  1  0
M  RAD  2  11   2  19   2
M  END
>  <ID>  (1) 
conformer_0

$$$$
