
     RDKit          3D

 19 20  0  0  0  0  0  0  0  0999 V2000
   13.9276   35.6899   15.5506 C   0  0  0  0  0  0  0  0  0  0  0  0
   13.2763   36.4210   16.5092 C   0  0  0  0  0  0  0  0  0  0  0  0
   17.1427   35.0648   12.4402 C   0  0  0  0  0  0  0  0  0  0  0  0
   12.0168   35.8513   16.8319 C   0  0  0  0  0  0  0  0  0  0  0  0
   10.6147   31.8893   16.4246 C   0  0  0  0  0  0  0  0  0  0  0  0
   17.4641   35.7303   13.0466 C   0  0  0  0  0  0  0  0  0  0  0  0
    9.9769   32.7322   17.2751 N   0  0  0  0  0  0  0  0  0  0  0  0
   13.3876   34.3975   15.2373 C   0  0  0  0  0  0  0  0  0  0  0  0
   14.3518   33.5196   14.0109 S   0  0  0  0  0  4  0  0  0  0  0  0
   16.3255   35.6693   10.5147 N   0  0  0  0  0  0  0  0  0  0  0  0
   15.3811   32.7037   14.6774 O   0  0  0  0  0  1  0  0  0  0  0  0
   15.1538   35.1386   12.2548 C   0  0  0  0  0  0  0  0  0  0  0  0
   15.5224   34.3898   12.9413 N   0  0  0  0  0  0  0  0  0  0  0  0
   12.3835   34.0416   15.8412 C   0  0  0  0  0  0  0  0  0  0  0  0
   10.2696   33.8641   17.1253 C   0  0  0  0  0  0  0  0  0  0  0  0
   13.7914   32.6027   13.1919 O   0  0  0  0  0  1  0  0  0  0  0  0
   11.1873   34.5322   16.7296 C   0  0  0  0  0  0  0  0  0  0  0  0
   11.6987   32.5099   15.7711 C   0  0  0  0  0  0  0  0  0  0  0  0
   15.9197   34.9777   10.7260 C   0  0  0  0  0  0  0  0  0  0  0  0
  2  1  2  0
  4  2  1  0
  6  3  1  0
  7  5  1  0
  8  1  1  0
  9  8  1  0
 11  9  1  0
 13  3  1  0
 13  9  1  0
 13 12  1  0
 14  8  2  0
 15  7  2  0
 16  9  1  0
 17  4  2  0
 17 14  1  0
 17 15  1  0
 18  5  2  0
 18 14  1  0
 19 10  1  0
 19 12  1  0
M  RAD  2  11   2  16   2
M  END
>  <ID>  (1) 
conformer_0

$$$$
