
     RDKit          3D

 20 21  0  0  0  0  0  0  0  0999 V2000
   14.0205   35.5733   15.3622 C   0  0  0  0  0  0  0  0  0  0  0  0
   13.3473   36.3521   16.2220 C   0  0  0  0  0  0  0  0  0  0  0  0
   16.2109   34.5779   13.1325 C   0  0  0  0  0  0  0  0  0  0  0  0
   17.4148   35.0847   12.8404 C   0  0  0  0  0  0  0  0  0  0  0  0
    9.8855   32.9645   17.1925 N   0  0  0  0  0  0  0  0  0  0  0  0
   12.5435   34.1155   15.6901 C   0  0  0  0  0  0  0  0  0  0  0  0
   16.9553   35.7497   10.6414 N   0  0  0  0  0  0  0  0  0  0  0  0
   13.6097   34.0233   15.0722 C   0  0  0  0  0  0  0  0  0  0  0  0
   10.9001   32.1585   16.3844 C   0  0  0  0  0  0  0  0  0  0  0  0
   14.5054   33.1414   13.9920 S   0  0  0  0  0  4  0  0  0  0  0  0
   14.0915   32.1294   13.2554 O   0  0  0  0  0  1  0  0  0  0  0  0
   12.1912   35.8666   16.7553 C   0  0  0  0  0  0  0  0  0  0  0  0
   14.3123   34.7409   12.1036 C   0  0  0  0  0  0  0  0  0  0  0  0
   15.4106   34.2239   13.1214 N   0  0  0  0  0  0  0  0  0  0  0  0
   15.3591   32.2794   14.9168 O   0  0  0  0  0  1  0  0  0  0  0  0
   15.5805   35.1541   10.5850 C   0  0  0  0  0  0  0  0  0  0  0  0
   11.9491   32.7749   15.7086 C   0  0  0  0  0  0  0  0  0  0  0  0
   10.2811   34.1121   17.1141 C   0  0  0  0  0  0  0  0  0  0  0  0
   17.3684   35.4642   11.5095 C   0  0  0  0  0  0  0  0  0  0  0  0
   11.2347   34.6670   16.7410 C   0  0  0  0  0  0  0  0  0  0  0  0
  2  1  2  0
  4  3  1  0
  8  1  1  0
  8  6  2  0
  9  5  1  0
 10  8  1  0
 11 10  1  0
 12  2  1  0
 14  3  1  0
 14 10  1  0
 14 13  1  0
 15 10  1  0
 16  7  1  0
 17  6  1  0
 17  9  2  0
 18  5  2  0
 19  4  1  0
 19  7  1  0
 20  6  1  0
 20 12  2  0
 20 18  1  0
M  RAD  2  11   2  15   2
M  END
>  <ID>  (1) 
conformer_0

$$$$
