
     RDKit          3D

 20 22  0  0  0  0  0  0  0  0999 V2000
   13.7857   35.6774   15.5914 C   0  0  0  0  0  0  0  0  0  0  0  0
   13.0691   36.4296   16.4532 C   0  0  0  0  0  0  0  0  0  0  0  0
   16.9265   34.6325   13.2418 C   0  0  0  0  0  0  0  0  0  0  0  0
   11.7639   32.6746   15.7356 C   0  0  0  0  0  0  0  0  0  0  0  0
   17.8116   35.2485   12.9392 C   0  0  0  0  0  0  0  0  0  0  0  0
   14.6970   33.3156   14.2345 S   0  0  0  0  0  4  0  0  0  0  0  0
    9.7799   32.8952   16.9141 N   0  0  0  0  0  0  0  0  0  0  0  0
   10.6602   31.8153   16.1361 C   0  0  0  0  0  0  0  0  0  0  0  0
   13.5302   34.2497   15.2618 C   0  0  0  0  0  0  0  0  0  0  0  0
   15.6111   32.6154   15.0748 O   0  0  0  0  0  1  0  0  0  0  0  0
   14.6064   34.9250   12.4531 C   0  0  0  0  0  0  0  0  0  0  0  0
   15.8209   34.3015   13.2079 N   0  0  0  0  0  0  0  0  0  0  0  0
   16.1548   35.9101   11.0419 N   0  0  0  0  0  0  0  0  0  0  0  0
   12.4807   34.0090   15.6784 C   0  0  0  0  0  0  0  0  0  0  0  0
   11.8958   35.9537   16.9670 C   0  0  0  0  0  0  0  0  0  0  0  0
   14.2769   32.3817   13.6084 O   0  0  0  0  0  1  0  0  0  0  0  0
   10.3556   33.9996   16.8832 C   0  0  0  0  0  0  0  0  0  0  0  0
   15.2241   35.0033   10.9437 C   0  0  0  0  0  0  0  0  0  0  0  0
   17.1095   35.6765   11.5755 C   0  0  0  0  0  0  0  0  0  0  0  0
   11.3580   34.6186   16.7029 C   0  0  0  0  0  0  0  0  0  0  0  0
  2  1  2  0
  5  3  1  0
  8  4  2  0
  8  7  1  0
  9  1  1  0
  9  6  1  0
 10  6  1  0
 12  3  1  0
 12  6  1  0
 12 11  1  0
 14  4  1  0
 14  9  2  0
 15  2  1  0
 16  6  1  0
 17  7  2  0
 18 11  1  0
 18 13  1  0
 19  5  1  0
 19 13  1  0
 20 14  1  0
 20 15  2  0
 20 17  1  0
M  RAD  2  10   2  16   2
M  END
>  <ID>  (1) 
conformer_0

$$$$
