
     RDKit          3D

 19 21  0  0  0  0  0  0  0  0999 V2000
   11.3800   34.7081   16.6028 C   0  0  0  0  0  0  0  0  0  0  0  0
   13.5204   35.4662   15.4973 C   0  0  0  0  0  0  0  0  0  0  0  0
   16.6610   35.5993   11.1781 C   0  0  0  0  0  0  0  0  0  0  0  0
   12.2982   33.8996   15.5313 C   0  0  0  0  0  0  0  0  0  0  0  0
   10.5171   31.9838   16.2009 C   0  0  0  0  0  0  0  0  0  0  0  0
    9.8346   33.0122   17.0091 N   0  0  0  0  0  0  0  0  0  0  0  0
   14.4835   33.2357   13.8923 S   0  0  0  0  0  4  0  0  0  0  0  0
   15.4756   32.4719   14.7191 O   0  0  0  0  0  1  0  0  0  0  0  0
   17.7586   35.7383   12.8279 C   0  0  0  0  0  0  0  0  0  0  0  0
   16.9273   35.2176   10.7617 N   0  0  0  0  0  0  0  0  0  0  0  0
   13.3365   34.0089   14.9174 C   0  0  0  0  0  0  0  0  0  0  0  0
   11.7302   32.4696   15.5148 C   0  0  0  0  0  0  0  0  0  0  0  0
   15.0394   35.0349   11.7844 C   0  0  0  0  0  0  0  0  0  0  0  0
   15.4321   34.5013   12.9624 N   0  0  0  0  0  0  0  0  0  0  0  0
   14.0231   32.5286   13.0404 O   0  0  0  0  0  1  0  0  0  0  0  0
   10.3209   34.0605   16.9286 C   0  0  0  0  0  0  0  0  0  0  0  0
   11.8144   35.9930   17.0711 C   0  0  0  0  0  0  0  0  0  0  0  0
   13.1723   36.2214   16.5540 C   0  0  0  0  0  0  0  0  0  0  0  0
   17.0931   34.8408   12.7797 C   0  0  0  0  0  0  0  0  0  0  0  0
  4  1  2  0
  6  5  1  0
  8  7  1  0
 10  3  1  0
 11  2  2  0
 11  4  1  0
 11  7  1  0
 12  4  1  0
 12  5  2  0
 13  3  1  0
 14  7  1  0
 14 13  1  0
 15  7  1  0
 16  1  1  0
 16  6  2  0
 17  1  1  0
 18  2  1  0
 18 17  2  0
 19  3  1  0
 19  9  1  0
 19 14  1  0
M  RAD  2   8   2  15   2
M  END
>  <ID>  (1) 
conformer_0

$$$$
