
     RDKit          3D

 22 24  0  0  0  0  0  0  0  0999 V2000
   13.9443   35.6672   15.1627 C   0  0  0  0  0  0  0  0  0  0  0  0
   12.7314   34.3297   15.6528 C   0  0  0  0  0  0  0  0  0  0  0  0
   14.6364   34.8638   11.8721 C   0  0  0  0  0  0  0  0  0  0  0  0
   11.8851   35.9962   16.7928 C   0  0  0  0  0  0  0  0  0  0  0  0
   14.5718   33.2111   13.9481 S   0  0  0  0  0  4  0  0  0  0  0  0
   10.8739   31.9417   16.4245 C   0  0  0  0  0  0  0  0  0  0  0  0
   13.6503   34.0123   15.1008 C   0  0  0  0  0  0  0  0  0  0  0  0
   16.6792   34.7901   12.9818 C   0  0  0  0  0  0  0  0  0  0  0  0
   15.6840   32.4255   14.6331 O   0  0  0  0  0  1  0  0  0  0  0  0
   17.3588   35.7544   13.1701 C   0  0  0  0  0  0  0  0  0  0  0  0
    9.8458   32.6634   17.0045 N   0  0  0  0  0  0  0  0  0  0  0  0
   12.8897   36.5008   15.9525 C   0  0  0  0  0  0  0  0  0  0  0  0
   16.8406   35.7067   10.8395 N   0  0  0  0  0  0  0  0  0  0  0  0
   10.4353   30.8399   16.1339 N   0  0  0  0  0  0  0  0  0  0  0  0
   11.9157   32.4198   15.9110 C   0  0  0  0  0  0  0  0  0  0  0  0
   15.7387   34.5678   12.5207 N   0  0  0  0  0  0  0  0  0  0  0  0
   14.2225   32.2799   13.2200 O   0  0  0  0  0  1  0  0  0  0  0  0
   10.0767   33.7200   17.1375 C   0  0  0  0  0  0  0  0  0  0  0  0
   17.6162   35.6949   11.7411 C   0  0  0  0  0  0  0  0  0  0  0  0
   15.6231   35.0553   10.6438 C   0  0  0  0  0  0  0  0  0  0  0  0
   11.7225   34.0176   16.4535 C   0  0  0  0  0  0  0  0  0  0  0  0
   10.5540   34.9516   17.0746 C   0  0  0  0  0  0  0  0  0  0  0  0
  5  3  1  0
  7  1  2  0
  7  2  1  0
  7  5  1  0
  9  5  1  0
 10  8  1  0
 11  6  2  0
 12  1  1  0
 12  4  1  0
 14  6  1  0
 15  6  1  0
 16  3  1  0
 16  8  2  0
 17  5  1  0
 18 11  1  0
 19 10  1  0
 19 13  1  0
 20  3  1  0
 20 13  1  0
 21  2  2  0
 21 15  1  0
 22  4  2  0
 22 18  1  0
 22 21  1  0
M  RAD  2   9   2  17   2
M  END
>  <ID>  (1) 
conformer_0

$$$$
