
     RDKit          3D

 20 22  0  0  0  0  0  0  0  0999 V2000
   13.1177   36.3708   16.3458 C   0  0  0  0  0  0  0  0  0  0  0  0
   13.7523   35.6271   15.4998 C   0  0  0  0  0  0  0  0  0  0  0  0
   16.5428   34.8376   13.3319 C   0  0  0  0  0  0  0  0  0  0  0  0
   11.2989   34.4364   16.6055 C   0  0  0  0  0  0  0  0  0  0  0  0
   17.5586   35.4977   13.1012 C   0  0  0  0  0  0  0  0  0  0  0  0
   14.3563   33.3145   13.8456 S   0  0  0  0  0  4  0  0  0  0  0  0
   15.4962   34.1825   13.0385 N   0  0  0  0  0  0  0  0  0  0  0  0
    9.6687   33.0310   17.2219 N   0  0  0  0  0  0  0  0  0  0  0  0
   10.3067   31.9309   16.4796 C   0  0  0  0  0  0  0  0  0  0  0  0
   13.4278   34.2816   14.9980 C   0  0  0  0  0  0  0  0  0  0  0  0
   13.6386   32.5860   13.1456 O   0  0  0  0  0  1  0  0  0  0  0  0
   17.2098   35.3056   11.6220 C   0  0  0  0  0  0  0  0  0  0  0  0
   11.4870   32.5828   15.7681 C   0  0  0  0  0  0  0  0  0  0  0  0
   16.6680   35.5958   10.6402 N   0  0  0  0  0  0  0  0  0  0  0  0
   15.3656   32.5118   14.6684 O   0  0  0  0  0  1  0  0  0  0  0  0
   11.7694   35.6518   16.8280 C   0  0  0  0  0  0  0  0  0  0  0  0
   10.1312   34.1102   17.1514 C   0  0  0  0  0  0  0  0  0  0  0  0
   14.7972   34.5496   11.7873 C   0  0  0  0  0  0  0  0  0  0  0  0
   15.8051   34.3127   10.4667 C   0  0  0  0  0  0  0  0  0  0  0  0
   12.4149   33.9576   15.5562 C   0  0  0  0  0  0  0  0  0  0  0  0
  2  1  2  0
  5  3  1  0
  7  3  1  0
  7  6  1  0
  9  8  1  0
 10  2  1  0
 10  6  1  0
 11  6  1  0
 12  5  1  0
 13  9  2  0
 14 12  1  0
 15  6  1  0
 16  1  1  0
 16  4  2  0
 17  4  1  0
 17  8  2  0
 18  7  1  0
 19 14  1  0
 19 18  1  0
 20  4  1  0
 20 10  2  0
 20 13  1  0
M  RAD  2  11   2  15   2
M  END
>  <ID>  (1) 
conformer_0

$$$$
