
     RDKit          3D

 19 20  0  0  0  0  0  0  0  0999 V2000
   13.2314   36.2948   16.4061 C   0  0  0  0  0  0  0  0  0  0  0  0
   13.9758   35.5896   15.4514 C   0  0  0  0  0  0  0  0  0  0  0  0
   15.5721   34.6648   10.5852 C   0  0  0  0  0  0  0  0  0  0  0  0
   11.9840   32.7893   15.8283 C   0  0  0  0  0  0  0  0  0  0  0  0
   10.9239   31.8800   16.3044 C   0  0  0  0  0  0  0  0  0  0  0  0
   14.4822   33.4134   13.8786 S   0  0  0  0  0  4  0  0  0  0  0  0
    9.8894   32.6423   16.9471 N   0  0  0  0  0  0  0  0  0  0  0  0
   17.6420   35.9965   12.9359 C   0  0  0  0  0  0  0  0  0  0  0  0
   16.5752   35.4873   10.3662 N   0  0  0  0  0  0  0  0  0  0  0  0
   13.5337   34.1286   15.0511 C   0  0  0  0  0  0  0  0  0  0  0  0
   13.7057   32.6911   13.0033 O   0  0  0  0  0  1  0  0  0  0  0  0
   15.7326   32.8169   14.6027 O   0  0  0  0  0  1  0  0  0  0  0  0
   15.4615   34.6000   13.0426 N   0  0  0  0  0  0  0  0  0  0  0  0
   17.1707   35.3283   11.9944 C   0  0  0  0  0  0  0  0  0  0  0  0
   12.4909   34.1541   15.8562 C   0  0  0  0  0  0  0  0  0  0  0  0
   11.9711   35.8756   16.8465 C   0  0  0  0  0  0  0  0  0  0  0  0
   10.1625   33.8092   16.9570 C   0  0  0  0  0  0  0  0  0  0  0  0
   15.2204   34.9136   12.1872 C   0  0  0  0  0  0  0  0  0  0  0  0
   11.0865   34.6142   16.8462 C   0  0  0  0  0  0  0  0  0  0  0  0
  2  1  2  0
  5  4  2  0
  7  5  1  0
  9  3  1  0
 10  2  1  0
 10  6  1  0
 11  6  1  0
 12  6  1  0
 13  6  1  0
 14  8  2  3
 14  9  1  0
 15  4  1  0
 15 10  2  0
 16  1  1  0
 17  7  2  0
 18  3  1  0
 18 13  1  0
 19 15  1  0
 19 16  2  0
 19 17  1  0
M  RAD  2  11   2  12   2
M  END
>  <ID>  (1) 
conformer_0

$$$$
