
     RDKit          3D

 17 19  0  0  0  0  0  0  0  0999 V2000
   12.6042   36.1982   16.5783 C   0  0  0  0  0  0  0  0  0  0  0  0
   12.3127   34.1391   15.9343 C   0  0  0  0  0  3  0  0  0  0  0  0
   16.8596   35.2443   12.5514 C   0  0  0  0  0  0  0  0  0  0  0  0
   17.4552   35.5922   13.0412 C   0  0  0  0  0  0  0  0  0  0  0  0
   13.6187   35.6530   15.7101 C   0  0  0  0  0  0  0  0  0  0  0  0
   13.4686   34.0010   15.2200 C   0  0  1  0  0  0  0  0  0  0  0  0
   10.7946   31.7399   16.4366 C   0  0  0  0  0  0  0  0  0  0  0  0
    9.8752   32.8973   17.0265 N   0  0  0  0  0  0  0  0  0  0  0  0
   14.4048   34.4450   11.9547 C   0  0  0  0  0  0  0  0  0  0  0  0
   14.6041   33.3368   13.9651 S   0  0  0  0  0  3  0  0  0  0  0  0
   17.3218   36.1539   10.8379 N   0  0  0  0  0  0  0  0  0  0  0  0
   15.1355   32.3764   14.1762 O   0  0  0  0  0  1  0  0  0  0  0  0
   11.3713   35.0953   16.8958 C   0  0  0  0  0  0  0  0  0  0  0  0
   15.6234   34.7028   12.0775 N   0  0  0  0  0  0  0  0  0  0  0  0
   16.1346   35.3554   10.7698 C   0  0  2  0  0  0  0  0  0  0  0  0
   11.8643   32.7320   16.0288 C   0  0  0  0  0  0  0  0  0  0  0  0
   10.4562   33.7991   16.9519 C   0  0  0  0  0  0  0  0  0  0  0  0
  4  3  2  3
  5  1  2  0
  6  2  1  0
  6  5  1  0
  8  7  1  0
  6  9  1  6
 10  6  1  0
 12 10  1  0
 13  1  1  0
 13  2  1  0
 14  3  1  0
 14  9  1  0
 15  3  1  0
 15 11  1  1
 15 14  1  0
 16  2  1  0
 16  7  2  0
 17  8  1  0
 17 13  1  0
M  RAD  3   2   2  10   2  12   2
M  END
>  <ID>  (1) 
conformer_0

$$$$
