
     RDKit          3D

 20 22  0  0  0  0  0  0  0  0999 V2000
   11.1810   34.6209   16.7796 C   0  0  0  0  0  0  0  0  0  0  0  0
   11.8970   35.8763   16.9092 C   0  0  0  0  0  0  0  0  0  0  0  0
   16.9470   35.7133   11.9990 C   0  0  0  0  0  0  0  0  0  0  0  0
   12.4239   34.1171   15.8070 C   0  0  0  0  0  0  0  0  0  0  0  0
    9.8206   32.8891   17.2085 N   0  0  0  0  0  0  0  0  0  0  0  0
   10.6247   31.9809   16.2973 C   0  0  0  0  0  0  0  0  0  0  0  0
   17.6853   35.9799   13.0588 C   0  0  0  0  0  0  0  0  0  0  0  0
   13.8977   32.9630   13.9316 S   0  0  0  0  0  4  0  0  0  0  0  0
   15.4824   32.4402   14.5385 O   0  0  0  0  0  1  0  0  0  0  0  0
   14.5167   34.6020   12.2209 C   0  0  0  0  0  0  0  0  0  0  0  0
   15.7500   34.1259   12.9261 N   0  0  0  0  0  0  0  0  0  0  0  0
   13.2437   33.9744   14.8501 C   0  0  0  0  0  0  0  0  0  0  0  0
   13.6571   35.5449   15.4340 C   0  0  0  0  0  0  0  0  0  0  0  0
   13.1246   36.5117   16.2308 C   0  0  0  0  0  0  0  0  0  0  0  0
   16.5163   35.9698   10.8213 N   0  0  0  0  0  0  0  0  0  0  0  0
   10.1343   33.9669   17.2494 C   0  0  0  0  0  0  0  0  0  0  0  0
   13.8462   32.1003   13.1138 O   0  0  0  0  0  1  0  0  0  0  0  0
   16.8920   34.3556   13.4183 C   0  0  0  0  0  0  0  0  0  0  0  0
   15.5543   34.7582   10.9153 C   0  0  0  0  0  0  0  0  0  0  0  0
   11.6740   32.6376   15.8116 C   0  0  0  0  0  0  0  0  0  0  0  0
  2  1  2  0
  4  1  1  0
  6  5  1  0
  7  3  1  0
  9  8  1  0
 10  8  1  0
 11 10  1  0
 12  4  2  0
 12  8  1  0
 13 12  1  0
 14  2  1  0
 14 13  2  0
 15  3  1  0
 16  1  1  0
 16  5  2  0
 17  8  1  0
 18  7  1  0
 18 11  2  0
 19 10  1  0
 19 15  1  0
 20  4  1  0
 20  6  2  0
M  RAD  2   9   2  17   2
M  END
>  <ID>  (1) 
conformer_0

$$$$
