
     RDKit          3D

 19 23  0  0  0  0  0  0  0  0999 V2000
   13.0042   36.1408   16.1454 C   0  0  0  0  0  0  0  0  0  0  0  0
   13.4046   35.1124   15.3539 C   0  0  0  0  0  3  0  0  0  0  0  0
   16.4917   34.6164   13.2970 C   0  0  0  0  0  0  0  0  0  0  0  0
   11.8087   34.3939   16.2888 C   0  0  0  0  0  0  0  0  0  0  0  0
   13.4456   33.8719   14.8325 C   0  0  0  0  0  0  0  0  0  0  0  0
   17.8701   35.5717   13.3253 C   0  0  0  0  0  0  0  0  0  0  0  0
   11.0600   32.3343   16.2263 C   0  0  0  0  0  0  0  0  0  0  0  0
   14.4053   33.9509   11.9352 C   0  0  0  0  0  0  0  0  0  0  0  0
   10.0603   32.7083   16.8814 N   0  0  0  0  0  0  0  0  0  0  0  0
   14.2533   33.0590   14.1143 S   0  0  0  0  0  3  0  0  0  0  0  0
   10.4280   35.0320   17.1621 C   0  0  0  0  0  0  0  0  0  0  0  0
   15.0584   32.5999   13.8012 O   0  0  0  0  0  1  0  0  0  0  0  0
   15.5680   34.9447   10.7847 C   0  0  0  0  0  0  0  0  0  0  0  0
   16.1930   34.9502   12.5112 N   0  0  0  0  0  0  0  0  0  0  0  0
   16.2868   35.6682   11.4170 N   0  0  0  0  0  0  0  0  0  0  0  0
   11.9913   33.0928   15.6272 C   0  0  0  0  0  0  0  0  0  0  0  0
    9.9434   33.7693   17.1572 C   0  0  0  0  0  0  0  0  0  0  0  0
   17.1760   35.5614   11.9479 C   0  0  0  0  0  0  0  0  0  0  0  0
   11.5847   36.0907   16.8601 C   0  0  0  0  0  0  0  0  0  0  0  0
  2  1  2  0
  5  2  1  0
  6  3  1  0
  8  5  1  0
  9  7  1  0
 10  5  1  0
 11  4  2  0
 12 10  1  0
 13  8  1  0
 14  3  1  0
 14 13  1  0
 15 13  1  0
 16  4  1  0
 16  5  1  0
 16  7  2  0
 17  9  2  0
 17 11  1  0
 18  6  1  0
 18 14  1  0
 18 15  1  0
 19  1  1  0
 19  4  1  0
 19 11  1  0
M  RAD  3   2   2  10   2  12   2
M  END
>  <ID>  (1) 
conformer_0

$$$$
