
     RDKit          3D

 17 20  0  0  0  0  0  0  0  0999 V2000
   10.9674   35.2449   16.9602 C   0  0  0  0  0  3  0  0  0  0  0  0
   14.7313   34.6504   12.1147 C   0  0  0  0  0  0  0  0  0  0  0  0
   12.0171   34.2358   16.2160 C   0  0  1  0  0  0  0  0  0  0  0  0
   13.5066   35.2301   15.6748 C   0  0  0  0  0  3  0  0  0  0  0  0
   17.5087   35.3426   13.0128 C   0  0  0  0  0  0  0  0  0  0  0  0
   10.9589   31.7775   16.1089 C   0  0  0  0  0  0  0  0  0  0  0  0
   16.7331   35.7864   10.6647 N   0  0  0  0  0  0  0  0  0  0  0  0
   14.5392   33.3020   14.0822 S   0  0  0  0  0  4  0  0  0  0  0  0
   15.5952   32.5271   14.9315 O   0  0  0  0  0  1  0  0  0  0  0  0
   13.4456   33.7994   15.1536 C   0  0  2  0  0  0  0  0  0  0  0  0
   10.1019   32.6316   16.9763 N   0  0  0  0  0  0  0  0  0  0  0  0
   16.8229   35.5544   12.2929 C   0  0  0  0  0  0  0  0  0  0  0  0
   12.3214   36.0704   16.4723 C   0  0  0  0  0  0  0  0  0  0  0  0
   14.3542   32.3668   13.3691 O   0  0  0  0  0  1  0  0  0  0  0  0
   12.1077   32.7714   15.7121 C   0  0  0  0  0  0  0  0  0  0  0  0
   15.7276   35.0424   10.6067 C   0  0  0  0  0  0  0  0  0  0  0  0
   10.5219   33.6233   16.9818 C   0  0  0  0  0  0  0  0  0  0  0  0
  3  1  1  6
  8  2  1  0
  9  8  1  0
 10  3  1  0
 10  4  1  0
 10  8  1  6
 11  6  1  0
 12  5  2  3
 12  7  1  0
 13  1  1  0
 13  4  1  0
 14  8  1  0
 15  3  1  0
 15  6  2  0
 15 10  1  0
 16  2  1  0
 16  7  1  0
 17  1  1  0
 17  3  1  0
 17 11  2  0
M  RAD  4   1   2   4   2   9   2  14   2
M  END
>  <ID>  (1) 
conformer_0

$$$$
