
     RDKit          3D

 20 21  0  0  0  0  0  0  0  0999 V2000
   13.6471   35.5044   15.4538 C   0  0  0  0  0  0  0  0  0  0  0  0
   12.8977   36.4910   16.1494 C   0  0  0  0  0  0  0  0  0  0  0  0
   14.5986   34.7897   12.2705 C   0  0  0  0  0  0  0  0  0  0  0  0
   12.3805   33.9580   15.6387 C   0  0  0  0  0  0  0  0  0  0  0  0
   17.6654   35.7630   13.2370 C   0  0  0  0  0  0  0  0  0  0  0  0
   10.5296   32.0513   16.4399 C   0  0  0  0  0  0  0  0  0  0  0  0
   14.6021   33.1100   14.0529 S   0  0  0  0  0  4  0  0  0  0  0  0
   15.8036   32.4161   14.6873 O   0  0  0  0  0  1  0  0  0  0  0  0
    9.7306   33.0904   17.0903 N   0  0  0  0  0  0  0  0  0  0  0  0
   13.3447   33.8680   15.0702 C   0  0  0  0  0  0  0  0  0  0  0  0
   15.6990   34.2637   12.9605 N   0  0  0  0  0  0  0  0  0  0  0  0
   16.9208   34.8462   13.2808 C   0  0  0  0  0  0  0  0  0  0  0  0
   15.6951   35.2032   10.5646 N   0  0  0  0  0  0  0  0  0  0  0  0
   11.7213   32.3340   15.8347 C   0  0  0  0  0  0  0  0  0  0  0  0
   14.1060   32.1258   13.5678 O   0  0  0  0  0  1  0  0  0  0  0  0
   11.3574   34.5273   16.5441 C   0  0  0  0  0  0  0  0  0  0  0  0
   10.2455   34.1920   16.9804 C   0  0  0  0  0  0  0  0  0  0  0  0
   16.9025   35.4682   11.4351 C   0  0  0  0  0  0  0  0  0  0  0  0
   15.3928   34.3479   10.5138 C   0  0  0  0  0  0  0  0  0  0  0  0
   11.6174   35.9750   16.7715 C   0  0  0  0  0  0  0  0  0  0  0  0
  2  1  2  0
  8  7  1  0
  9  6  1  0
 10  1  1  0
 10  4  2  0
 10  7  1  0
 11  3  1  0
 11  7  1  0
 12  5  1  0
 12 11  1  0
 14  4  1  0
 14  6  2  0
 15  7  1  0
 16  4  1  0
 17  9  2  0
 17 16  1  0
 18 12  1  0
 18 13  1  0
 19 13  1  0
 20  2  1  0
 20 16  2  0
M  RAD  2   8   2  15   2
M  END
>  <ID>  (1) 
conformer_0

$$$$
