
     RDKit          3D

 14 15  0  0  0  0  0  0  0  0999 V2000
   13.2988   35.5461   15.5823 C   0  0  0  0  0  0  0  0  0  0  0  0
   12.1720   35.8994   16.5224 C   0  0  0  0  0  0  0  0  0  0  0  0
   16.6013   34.9582   12.4804 C   0  0  1  0  0  0  0  0  0  0  0  0
   11.4859   34.6323   16.4833 C   0  0  0  0  0  0  0  0  0  0  0  0
   10.5470   33.1549   16.8014 C   0  0  0  0  0  0  0  0  0  0  0  0
   13.4518   34.0907   15.0908 C   0  0  1  0  0  0  0  0  0  0  0  0
   14.5808   33.2768   13.9033 S   0  0  0  0  0  3  0  0  0  0  0  0
    9.8812   32.9962   17.1860 N   0  0  0  0  0  0  0  0  0  0  0  0
   14.8145   32.4090   13.7636 O   0  0  0  0  0  1  0  0  0  0  0  0
   17.5830   34.7319   12.2231 C   0  0  0  0  0  0  0  0  0  0  0  0
   15.5080   35.1593   11.2724 C   0  0  0  0  0  0  0  0  0  0  0  0
   12.0560   33.0200   15.7184 C   0  0  0  0  0  0  0  0  0  0  0  0
   17.0902   36.2467   10.9692 N   0  0  0  0  0  0  0  0  0  0  0  0
   15.6953   34.1755   12.9416 N   0  0  0  0  0  0  0  0  0  0  0  0
  2  1  2  0
  4  2  1  0
  5  4  1  0
  6  1  1  0
  8  5  2  3
  9  7  1  0
  3 10  1  6
 11  3  1  0
 12  4  2  0
 12  5  1  0
 12  6  1  0
 13 11  1  0
 14  3  1  0
  6 14  1  6
 14  7  1  0
M  RAD  2   7   2   9   2
M  END
>  <ID>  (1) 
conformer_0

$$$$
