
     RDKit          3D

 20 21  0  0  0  0  0  0  0  0999 V2000
   13.6092   35.5046   15.3585 C   0  0  0  0  0  0  0  0  0  0  0  0
   12.8953   36.2639   16.1657 C   0  0  0  0  0  0  0  0  0  0  0  0
   11.5903   35.8001   16.8310 C   0  0  0  0  0  0  0  0  0  0  0  0
   17.0963   35.3768   10.9988 C   0  0  0  0  0  0  0  0  0  0  0  0
   17.7647   35.2758   13.0132 C   0  0  0  0  0  0  0  0  0  0  0  0
   17.3678   35.9346   10.7233 N   0  0  0  0  0  0  0  0  0  0  0  0
   14.5441   33.2508   14.0714 S   0  0  0  0  0  4  0  0  0  0  0  0
   10.1687   34.2045   16.9941 C   0  0  0  0  0  0  0  0  0  0  0  0
    9.7877   33.0579   17.0659 N   0  0  0  0  0  0  0  0  0  0  0  0
   13.4483   34.0252   15.0532 C   0  0  0  0  0  0  0  0  0  0  0  0
   15.5780   32.3802   14.8154 O   0  0  0  0  0  1  0  0  0  0  0  0
   12.4993   33.7868   15.6535 C   0  0  0  0  0  0  0  0  0  0  0  0
   15.9291   34.6089   10.6440 C   0  0  0  0  0  0  0  0  0  0  0  0
   15.5068   34.3943   13.0440 N   0  0  0  0  0  0  0  0  0  0  0  0
   14.1373   32.3581   13.2768 O   0  0  0  0  0  1  0  0  0  0  0  0
   10.5709   32.0778   16.4117 C   0  0  0  0  0  0  0  0  0  0  0  0
   14.9826   34.8700   11.7822 C   0  0  0  0  0  0  0  0  0  0  0  0
   11.3463   34.4570   16.6575 C   0  0  0  0  0  0  0  0  0  0  0  0
   11.7868   32.4047   15.7776 C   0  0  0  0  0  0  0  0  0  0  0  0
   16.5033   35.2025   13.0795 C   0  0  0  0  0  0  0  0  0  0  0  0
  2  1  2  0
  3  2  1  0
  6  4  1  0
  9  8  2  0
 10  1  1  0
 10  7  1  0
 11  7  1  0
 12 10  2  0
 13  4  1  0
 14  7  1  0
 15  7  1  0
 16  9  1  0
 17 13  1  0
 17 14  1  0
 18  3  2  0
 18  8  1  0
 18 12  1  0
 19 12  1  0
 19 16  2  0
 20  5  2  3
 20 14  1  0
M  RAD  2  11   2  15   2
M  END
>  <ID>  (1) 
conformer_0

$$$$
