
     RDKit          3D

 19 21  0  0  0  0  0  0  0  0999 V2000
   13.3054   36.2846   16.4423 C   0  0  0  0  0  0  0  0  0  0  0  0
   13.8699   35.5932   15.4535 C   0  0  0  0  0  0  0  0  0  0  0  0
   16.9607   34.8405   12.5631 C   0  0  0  0  0  0  0  0  0  0  0  0
   17.4586   35.4411   12.9957 C   0  0  0  0  0  0  0  0  0  0  0  0
   12.3726   33.9597   15.7755 C   0  0  0  0  0  0  0  0  0  0  0  0
   10.6153   31.7257   16.1823 C   0  0  0  0  0  0  0  0  0  0  0  0
    9.8574   32.7913   16.9201 N   0  0  0  0  0  0  0  0  0  0  0  0
   13.4632   34.2741   15.1479 C   0  0  0  0  0  0  0  0  0  0  0  0
   14.5502   33.3951   14.0574 S   0  0  0  0  0  4  0  0  0  0  0  0
   16.6022   35.2762   10.7316 N   0  0  0  0  0  0  0  0  0  0  0  0
   15.7338   32.6027   14.7002 O   0  0  0  0  0  1  0  0  0  0  0  0
   14.5515   34.9564   12.0306 C   0  0  0  0  0  0  0  0  0  0  0  0
   11.7755   32.4616   15.7375 C   0  0  0  0  0  0  0  0  0  0  0  0
   10.2596   33.8320   16.9459 C   0  0  0  0  0  0  0  0  0  0  0  0
   15.3870   34.3039   13.0657 N   0  0  0  0  0  0  0  0  0  0  0  0
   14.1245   32.4785   13.6000 O   0  0  0  0  0  1  0  0  0  0  0  0
   12.0160   35.8163   16.9342 C   0  0  0  0  0  0  0  0  0  0  0  0
   11.2608   34.5234   16.6942 C   0  0  0  0  0  0  0  0  0  0  0  0
   15.8018   34.9017   10.9647 C   0  0  0  0  0  0  0  0  0  0  0  0
  2  1  2  0
  4  3  1  0
  7  6  1  0
  8  2  1  0
  8  5  2  0
  9  8  1  0
 10  3  1  0
 11  9  1  0
 13  5  1  0
 13  6  2  0
 14  7  2  0
 15  3  1  0
 15  9  1  0
 15 12  1  0
 16  9  1  0
 17  1  1  0
 18  5  1  0
 18 14  1  0
 18 17  2  0
 19 10  1  0
 19 12  1  0
M  RAD  2  11   2  16   2
M  END
>  <ID>  (1) 
conformer_0

$$$$
