
     RDKit          3D

 16 17  0  0  0  0  0  0  0  0999 V2000
   12.7191   36.3227   16.1693 C   0  0  0  0  0  0  0  0  0  0  0  0
   13.7317   35.6980   15.4677 C   0  0  0  0  0  0  0  0  0  0  0  0
   16.4274   34.8390   12.4309 C   0  0  0  0  0  0  0  0  0  0  0  0
   11.3011   35.1702   16.7220 C   0  0  0  0  0  0  0  0  0  0  0  0
   17.3510   35.7262   13.0157 C   0  0  0  0  0  0  0  0  0  0  0  0
   10.7985   31.8272   16.2943 C   0  0  0  0  0  0  0  0  0  0  0  0
   13.4861   34.0849   15.0927 C   0  0  0  0  0  0  0  0  0  0  0  0
   15.7588   35.6308   10.4939 N   0  0  0  0  0  0  0  0  0  0  0  0
   14.4299   33.0200   14.1016 S   0  0  0  0  0  4  0  0  0  0  0  0
    9.9280   32.7034   17.1234 N   0  0  0  0  0  0  0  0  0  0  0  0
   15.3930   32.1110   14.8649 O   0  0  0  0  0  1  0  0  0  0  0  0
   15.0197   34.7824   11.6864 C   0  0  0  0  0  0  0  0  0  0  0  0
   12.1674   34.2479   16.0730 C   0  0  0  0  0  0  0  0  0  0  0  0
   13.8841   32.1468   13.4154 O   0  0  0  0  0  1  0  0  0  0  0  0
   11.9268   32.7037   15.7813 C   0  0  0  0  0  0  0  0  0  0  0  0
   10.2719   33.8005   16.9571 C   0  0  0  0  0  0  0  0  0  0  0  0
  2  1  2  0
  4  1  1  0
  5  3  1  0
  7  2  1  0
  9  7  1  0
 10  6  2  0
 11  9  1  0
 12  3  1  0
 12  8  1  0
 12  9  1  0
 13  4  1  0
 13  7  2  0
 14  9  1  0
 15  6  1  0
 15 13  1  0
 16  4  1  0
 16 10  1  0
M  RAD  2  11   2  14   2
M  END
>  <ID>  (1) 
conformer_0

$$$$
