
     RDKit          3D

 20 22  0  0  0  0  0  0  0  0999 V2000
   13.9030   35.3724   15.1813 C   0  0  0  0  0  0  0  0  0  0  0  0
   13.3726   36.1561   16.1944 C   0  0  0  0  0  0  0  0  0  0  0  0
   15.8739   34.8016   12.7692 C   0  0  0  0  0  0  0  0  0  0  0  0
   12.4320   33.5465   15.4421 C   0  0  0  0  0  0  0  0  0  0  0  0
   16.9733   35.8331   10.7753 N   0  0  0  0  0  0  0  0  0  0  0  0
   17.3486   35.5077   13.1019 C   0  0  0  0  0  0  0  0  0  0  0  0
   10.2874   32.2254   16.5108 C   0  0  0  0  0  0  0  0  0  0  0  0
   15.5376   32.2374   14.8101 O   0  0  0  0  0  1  0  0  0  0  0  0
    9.7130   33.2226   17.1168 N   0  0  0  0  0  0  0  0  0  0  0  0
   14.5783   33.1427   13.9473 S   0  0  0  0  0  4  0  0  0  0  0  0
   11.3712   32.3464   15.8906 C   0  0  0  0  0  0  0  0  0  0  0  0
   15.6199   34.0142   13.0464 N   0  0  0  0  0  0  0  0  0  0  0  0
   13.6180   34.2037   14.8826 C   0  0  0  0  0  0  0  0  0  0  0  0
   13.9742   32.4639   13.0172 O   0  0  0  0  0  1  0  0  0  0  0  0
   12.2472   36.2957   16.6768 C   0  0  0  0  0  0  0  0  0  0  0  0
   15.6545   34.9771   10.8194 C   0  0  0  0  0  0  0  0  0  0  0  0
   10.1559   34.2600   16.9942 C   0  0  0  0  0  0  0  0  0  0  0  0
   11.8950   34.3288   16.2591 C   0  0  0  0  0  0  0  0  0  0  0  0
   17.2989   35.5612   11.9731 C   0  0  0  0  0  0  0  0  0  0  0  0
   10.9332   35.2542   17.0106 C   0  0  0  0  0  0  0  0  0  0  0  0
  2  1  1  0
  6  3  1  0
  9  7  1  0
 10  8  1  0
 11  4  1  0
 11  7  2  0
 12  3  1  0
 12 10  1  0
 13  1  2  0
 13  4  1  0
 13 10  1  0
 14 10  1  0
 15  2  1  0
 16  3  1  0
 16  5  1  0
 17  9  1  0
 18  4  2  0
 19  5  1  0
 19  6  1  0
 20 15  1  0
 20 17  1  0
 20 18  2  0
M  RAD  2   8   2  14   2
M  END
>  <ID>  (1) 
conformer_0

$$$$
