
     RDKit          3D

 20 22  0  0  0  0  0  0  0  0999 V2000
   13.8344   35.6763   15.3652 C   0  0  0  0  0  0  0  0  0  0  0  0
   13.4100   36.3274   16.3978 C   0  0  0  0  0  0  0  0  0  0  0  0
   14.4937   35.0114   11.9312 C   0  0  0  0  0  0  0  0  0  0  0  0
   12.1453   35.6642   16.7584 C   0  0  0  0  0  0  0  0  0  0  0  0
   10.8062   31.7930   16.3614 C   0  0  0  0  0  0  0  0  0  0  0  0
   17.5212   35.5624   13.2151 C   0  0  0  0  0  0  0  0  0  0  0  0
   13.3796   34.2613   15.0579 C   0  0  0  0  0  0  0  0  0  0  0  0
   10.0272   32.6524   17.1913 N   0  0  0  0  0  0  0  0  0  0  0  0
   15.4307   34.3244   12.9286 N   0  0  0  0  0  0  0  0  0  0  0  0
   14.4639   33.2383   13.9488 S   0  0  0  0  0  4  0  0  0  0  0  0
   15.3599   32.3941   14.6819 O   0  0  0  0  0  1  0  0  0  0  0  0
   16.5695   34.6534   13.2853 C   0  0  0  0  0  0  0  0  0  0  0  0
   16.3344   35.6852   10.7324 N   0  0  0  0  0  0  0  0  0  0  0  0
   12.3698   33.9504   15.6901 C   0  0  0  0  0  0  0  0  0  0  0  0
   11.8566   32.4369   15.7306 C   0  0  0  0  0  0  0  0  0  0  0  0
   13.9074   32.5054   13.0654 O   0  0  0  0  0  1  0  0  0  0  0  0
   10.2829   33.6847   17.0278 C   0  0  0  0  0  0  0  0  0  0  0  0
   16.8694   35.6883   11.7868 C   0  0  0  0  0  0  0  0  0  0  0  0
   15.4583   34.7974   10.5195 C   0  0  0  0  0  0  0  0  0  0  0  0
   11.1525   34.5638   16.7035 C   0  0  0  0  0  0  0  0  0  0  0  0
  2  1  2  0
  4  2  1  0
  7  1  1  0
  8  5  1  0
  9  3  1  0
 10  7  1  0
 10  9  1  0
 11 10  1  0
 12  6  1  0
 12  9  1  0
 14  7  2  0
 15  5  2  0
 15 14  1  0
 16 10  1  0
 17  8  2  0
 18  6  1  0
 18 13  1  0
 19  3  1  0
 19 13  1  0
 20  4  2  0
 20 14  1  0
 20 17  1  0
M  RAD  2  11   2  16   2
M  END
>  <ID>  (1) 
conformer_0

$$$$
