
     RDKit          3D

 18 19  0  0  0  0  0  0  0  0999 V2000
   11.8097   32.6698   15.5630 C   0  0  0  0  0  0  0  0  0  0  0  0
   12.6069   35.9632   16.4705 C   0  0  0  0  0  0  0  0  0  0  0  0
   14.6718   34.8860   12.1489 C   0  0  0  0  0  0  0  0  0  0  0  0
   17.5517   35.6617   13.1970 C   0  0  0  0  0  0  0  0  0  0  0  0
   13.6632   35.7117   15.5848 C   0  0  0  0  0  0  0  0  0  0  0  0
    9.8150   32.6892   17.0071 N   0  0  0  0  0  0  0  0  0  0  0  0
   13.5579   34.2183   14.9597 C   0  0  0  0  0  0  0  0  0  0  0  0
   10.5572   31.6932   16.0846 C   0  0  0  0  0  0  0  0  0  0  0  0
   14.6240   33.2509   13.9990 S   0  0  0  0  0  4  0  0  0  0  0  0
   15.5079   32.4282   14.8536 O   0  0  0  0  0  1  0  0  0  0  0  0
   16.9290   35.0207   12.6966 C   0  0  0  0  0  0  0  0  0  0  0  0
   15.8738   34.3528   12.7183 N   0  0  0  0  0  0  0  0  0  0  0  0
   16.4328   35.8054   10.9643 N   0  0  0  0  0  0  0  0  0  0  0  0
   12.2150   33.9711   15.6975 C   0  0  0  0  0  0  0  0  0  0  0  0
   11.3310   34.9516   16.8006 C   0  0  1  0  0  0  0  0  0  0  0  0
   14.2052   32.3573   13.2160 O   0  0  0  0  0  1  0  0  0  0  0  0
   10.4438   33.8844   16.9508 C   0  0  0  0  0  0  0  0  0  0  0  0
   15.8083   35.0757   10.8913 C   0  0  0  0  0  0  0  0  0  0  0  0
  5  2  2  0
  7  5  1  0
  8  1  2  0
  8  6  1  0
  9  7  1  0
 10  9  1  0
 11  4  2  3
 12  3  1  0
 12  9  1  0
 12 11  1  0
 14  1  1  0
 14  7  2  0
 15  2  1  1
 15 14  1  0
 16  9  1  0
 17  6  2  0
 17 15  1  0
 18  3  1  0
 18 13  1  0
M  RAD  2  10   2  16   2
M  END
>  <ID>  (1) 
conformer_0

$$$$
