
     RDKit          3D

 16 17  0  0  0  0  0  0  0  0999 V2000
   11.7572   35.5617   16.8062 C   0  0  0  0  0  0  0  0  0  0  0  0
   13.4965   35.3815   15.3068 C   0  0  0  0  0  0  0  0  0  0  0  0
   16.6423   35.0488   12.1202 C   0  0  0  0  0  0  0  0  0  0  0  0
   17.4714   35.4503   12.8746 C   0  0  0  0  0  0  0  0  0  0  0  0
   11.6605   34.3046   16.3006 C   0  0  0  0  0  0  0  0  0  0  0  0
   10.9228   31.9361   16.1803 C   0  0  0  0  0  0  0  0  0  0  0  0
   14.4733   33.1079   13.9898 S   0  0  0  0  0  4  0  0  0  0  0  0
   15.3209   32.2045   14.7833 O   0  0  0  0  0  1  0  0  0  0  0  0
   10.0625   32.6353   17.0077 N   0  0  0  0  0  0  0  0  0  0  0  0
   13.3661   34.1020   14.8754 C   0  0  0  0  0  0  0  0  0  0  0  0
   14.9394   35.1311   11.8353 C   0  0  0  0  0  0  0  0  0  0  0  0
   13.1339   36.3555   16.1458 C   0  0  0  0  0  0  0  0  0  0  0  0
   16.5288   35.4068   10.9509 N   0  0  0  0  0  0  0  0  0  0  0  0
   10.1918   33.8457   17.0467 C   0  0  0  0  0  0  0  0  0  0  0  0
   12.1945   33.1524   15.5024 C   0  0  0  0  0  0  0  0  0  0  0  0
   14.0974   32.2822   13.2476 O   0  0  0  0  0  1  0  0  0  0  0  0
  4  3  1  0
  5  1  2  0
  8  7  1  0
  9  6  1  0
 10  2  2  0
 10  7  1  0
 11  3  1  0
 11  7  1  0
 12  1  1  0
 12  2  1  0
 13  3  1  0
 14  5  1  0
 14  9  2  0
 15  5  1  0
 15  6  2  0
 15 10  1  0
 16  7  1  0
M  RAD  2   8   2  16   2
M  END
>  <ID>  (1) 
conformer_0

$$$$
