
     RDKit          3D

 19 20  0  0  0  0  0  0  0  0999 V2000
   13.2302   36.1909   16.5466 C   0  0  0  0  0  0  0  0  0  0  0  0
   11.8874   32.8258   15.6333 C   0  0  0  0  0  0  0  0  0  0  0  0
   17.3403   34.9503   12.5950 C   0  0  0  0  0  0  0  0  0  0  0  0
   13.7613   35.6255   15.4379 C   0  0  0  0  0  0  0  0  0  0  0  0
   17.7787   35.8161   13.2783 C   0  0  0  0  0  0  0  0  0  0  0  0
    9.8238   32.7341   17.0650 N   0  0  0  0  0  0  0  0  0  0  0  0
   15.5598   34.5247   12.9482 N   0  0  0  0  0  0  0  0  0  0  0  0
   10.7959   31.9244   16.3539 C   0  0  0  0  0  0  0  0  0  0  0  0
   14.3830   33.4461   13.8813 S   0  0  0  0  0  4  0  0  0  0  0  0
   13.5152   34.2924   14.8647 C   0  0  0  0  0  0  0  0  0  0  0  0
   15.3586   32.5383   14.7430 O   0  0  0  0  0  1  0  0  0  0  0  0
   15.5808   35.3260   12.3553 C   0  0  0  0  0  0  0  0  0  0  0  0
   12.4885   34.0027   15.5063 C   0  0  0  0  0  0  0  0  0  0  0  0
   11.9912   35.7481   16.9192 C   0  0  0  0  0  0  0  0  0  0  0  0
   16.0871   35.3649   10.4778 N   0  0  0  0  0  0  0  0  0  0  0  0
   10.2341   33.9302   17.0064 C   0  0  0  0  0  0  0  0  0  0  0  0
   14.0155   32.4523   13.0902 O   0  0  0  0  0  1  0  0  0  0  0  0
   15.1605   34.6395   11.0700 C   0  0  0  0  0  0  0  0  0  0  0  0
   11.2530   34.5298   16.7454 C   0  0  0  0  0  0  0  0  0  0  0  0
  4  1  2  0
  5  3  1  0
  8  2  2  0
  8  6  1  0
  9  7  1  0
 10  4  1  0
 10  9  1  0
 11  9  1  0
 12  3  1  0
 12  7  1  0
 13  2  1  0
 13 10  2  0
 14  1  1  0
 16  6  2  0
 17  9  1  0
 18 12  1  0
 18 15  1  0
 19 13  1  0
 19 14  2  0
 19 16  1  0
M  RAD  2  11   2  17   2
M  END
>  <ID>  (1) 
conformer_0

$$$$
