
     RDKit          3D

 16 18  0  0  0  0  0  0  0  0999 V2000
   12.1496   34.1958   16.0083 C   0  0  1  0  0  0  0  0  0  0  0  0
   12.5526   36.3804   16.3704 C   0  0  0  0  0  0  0  0  0  0  0  0
   16.9363   35.4732   11.8911 C   0  0  0  0  0  0  0  0  0  0  0  0
   13.3902   35.6331   15.6118 C   0  0  0  0  0  0  0  0  0  0  0  0
   17.5434   35.8212   13.0721 C   0  0  0  0  0  0  0  0  0  0  0  0
   14.5999   33.0534   13.9809 S   0  0  0  0  0  4  0  0  0  0  0  0
   10.4490   32.1622   16.3923 C   0  0  0  0  0  0  0  0  0  0  0  0
   15.5253   34.3596   12.7762 N   0  0  0  0  0  0  0  0  0  0  0  0
    9.7428   33.1293   17.1267 N   0  0  0  0  0  0  0  0  0  0  0  0
   15.6285   32.4658   14.7687 O   0  0  0  0  0  1  0  0  0  0  0  0
   11.9402   32.9533   15.7600 C   0  0  0  0  0  3  0  0  0  0  0  0
   13.5582   33.8842   15.0908 C   0  0  2  0  0  0  0  0  0  0  0  0
   15.3029   34.7215   11.8547 C   0  0  0  0  0  0  0  0  0  0  0  0
   11.3186   35.4684   16.9066 C   0  0  0  0  0  0  0  0  0  0  0  0
   10.0987   34.2838   17.1265 C   0  0  0  0  0  0  0  0  0  0  0  0
   14.1131   32.0131   13.3120 O   0  0  0  0  0  1  0  0  0  0  0  0
  4  1  1  0
  4  2  2  0
  5  3  2  3
  8  6  1  0
  9  7  2  0
 10  6  1  0
  1 11  1  6
 11  7  1  0
 12  1  1  0
 12  4  1  0
 12  6  1  6
 13  3  1  0
 13  8  1  0
 14  1  1  0
 14  2  1  0
 15  9  1  0
 15 14  2  0
 16  6  1  0
M  RAD  3  10   2  11   2  16   2
M  END
>  <ID>  (1) 
conformer_0

$$$$
