
     RDKit          3D

 18 20  0  0  0  0  0  0  0  0999 V2000
   13.4972   35.6241   15.6319 C   0  0  0  0  0  0  0  0  0  0  0  0
   12.6598   36.2922   16.4787 C   0  0  0  0  0  0  0  0  0  0  0  0
   17.0347   35.6875   11.9139 C   0  0  0  0  0  0  0  0  0  0  0  0
   12.0250   34.2190   16.0503 C   0  0  0  0  0  0  0  0  0  0  0  0
   17.5002   35.4538   13.3045 C   0  0  0  0  0  0  0  0  0  0  0  0
   10.6743   31.7933   16.3638 C   0  0  0  0  0  0  0  0  0  0  0  0
   14.4084   33.1955   14.1370 S   0  0  0  0  0  4  0  0  0  0  0  0
    9.9027   32.8485   17.1451 N   0  0  0  0  0  0  0  0  0  0  0  0
   14.6645   34.5307   11.5429 C   0  0  0  0  0  0  0  0  0  0  0  0
   15.4145   32.6873   15.0642 O   0  0  0  0  0  1  0  0  0  0  0  0
   13.4126   34.0940   15.0552 C   0  0  0  0  0  0  0  0  0  0  0  0
   17.2345   36.1446   11.2955 N   0  0  0  0  0  0  0  0  0  0  0  0
   11.8378   32.9411   15.7886 C   0  0  0  0  0  0  0  0  0  0  0  0
   11.2886   35.3436   16.9224 C   0  0  0  0  0  0  0  0  0  0  0  0
   10.2570   33.8224   17.0322 C   0  0  0  0  0  0  0  0  0  0  0  0
   14.1323   32.0979   13.7177 O   0  0  0  0  0  1  0  0  0  0  0  0
   15.5013   34.7250   12.3656 N   0  0  0  0  0  0  0  0  0  0  0  0
   15.9742   34.7857   12.8465 C   0  0  0  0  0  0  0  0  0  0  0  0
  2  1  2  0
  5  3  1  0
  8  6  1  0
  9  7  1  0
 10  7  1  0
 11  1  1  0
 11  4  1  0
 11  7  1  0
 12  3  1  0
 13  4  1  0
 13  6  2  0
 14  2  1  0
 14  4  2  0
 15  8  1  0
 15 14  1  0
 16  7  1  0
 17  9  1  0
 18  3  1  0
 18  5  1  0
 18 17  1  0
M  RAD  2  10   2  16   2
M  END
>  <ID>  (1) 
conformer_0

$$$$
