
     RDKit          3D

 19 20  0  0  0  0  0  0  0  0999 V2000
   12.5825   36.3842   16.3531 C   0  0  0  0  0  0  0  0  0  0  0  0
   13.5296   35.7602   15.5556 C   0  0  0  0  0  0  0  0  0  0  0  0
   16.8700   35.1635   10.7507 C   0  0  0  0  0  0  0  0  0  0  0  0
   17.5335   35.3206   12.9970 C   0  0  0  0  0  0  0  0  0  0  0  0
   11.2672   35.3149   16.8307 C   0  0  0  0  0  0  0  0  0  0  0  0
    9.8166   32.8924   17.1215 N   0  0  0  0  0  0  0  0  0  0  0  0
   10.7333   31.8671   16.4627 C   0  0  0  0  0  0  0  0  0  0  0  0
   13.4290   34.2836   15.0482 C   0  0  0  0  0  0  0  0  0  0  0  0
   14.6289   33.4905   13.8162 S   0  0  0  0  0  4  0  0  0  0  0  0
   14.5837   34.6289   11.3948 C   0  0  0  0  0  0  0  0  0  0  0  0
   15.5360   32.7782   14.6788 O   0  0  0  0  0  1  0  0  0  0  0  0
   11.9988   34.2709   16.0112 C   0  0  0  0  0  0  0  0  0  0  0  0
   10.1444   33.9945   17.0392 C   0  0  0  0  0  0  0  0  0  0  0  0
   11.9243   32.9466   15.7441 C   0  0  0  0  0  0  0  0  0  0  0  0
   16.4301   35.5855   11.1384 N   0  0  0  0  0  0  0  0  0  0  0  0
   15.7795   34.6148   12.6716 N   0  0  0  0  0  0  0  0  0  0  0  0
   14.5088   32.4939   13.0380 O   0  0  0  0  0  1  0  0  0  0  0  0
   15.2319   35.4010   12.6784 C   0  0  0  0  0  0  0  0  0  0  0  0
   17.3072   34.7039   12.6601 C   0  0  0  0  0  0  0  0  0  0  0  0
  2  1  2  0
  5  1  1  0
  7  6  1  0
  8  2  1  0
  9  8  1  0
 11  9  1  0
 12  5  1  0
 12  8  2  0
 13  5  1  0
 13  6  1  0
 14  7  2  0
 14 12  1  0
 15  3  1  0
 16  9  1  0
 17  9  1  0
 18 10  1  0
 18 15  1  0
 18 16  1  0
 19  4  1  0
 19 16  1  0
M  RAD  2  11   2  17   2
M  END
>  <ID>  (1) 
conformer_0

$$$$
