
     RDKit          3D

 20 22  0  0  0  0  0  0  0  0999 V2000
   13.4967   35.4648   15.4484 C   0  0  0  0  0  0  0  0  0  0  0  0
   11.7713   36.2150   16.9580 C   0  0  0  0  0  0  0  0  0  0  0  0
   14.9951   35.3248   11.8543 C   0  0  0  0  0  0  0  0  0  0  0  0
   11.3315   34.8270   16.7139 C   0  0  0  0  0  0  0  0  0  0  0  0
   17.5787   35.4398   12.8367 C   0  0  0  0  0  0  0  0  0  0  0  0
   17.0575   35.7192   10.5548 N   0  0  0  0  0  0  0  0  0  0  0  0
    9.8295   33.1479   17.2768 N   0  0  0  0  0  0  0  0  0  0  0  0
   14.4388   33.1752   13.9902 S   0  0  0  0  0  4  0  0  0  0  0  0
   10.3522   32.0462   16.5598 C   0  0  0  0  0  0  0  0  0  0  0  0
   15.4820   32.4814   14.6186 O   0  0  0  0  0  1  0  0  0  0  0  0
   11.4179   32.2805   15.7954 C   0  0  0  0  0  0  0  0  0  0  0  0
   13.2905   33.9813   15.1131 C   0  0  0  0  0  0  0  0  0  0  0  0
   15.9807   34.4999   10.3890 C   0  0  0  0  0  0  0  0  0  0  0  0
   13.8567   32.5404   13.0769 O   0  0  0  0  0  1  0  0  0  0  0  0
   12.1768   33.8954   15.7191 C   0  0  0  0  0  0  0  0  0  0  0  0
   15.6754   34.2839   12.8279 N   0  0  0  0  0  0  0  0  0  0  0  0
   10.4010   34.1528   17.0805 C   0  0  0  0  0  0  0  0  0  0  0  0
   17.3530   35.9485   11.4042 C   0  0  0  0  0  0  0  0  0  0  0  0
   16.6791   34.6956   13.0753 C   0  0  0  0  0  0  0  0  0  0  0  0
   13.0808   36.4634   16.2389 C   0  0  0  0  0  0  0  0  0  0  0  0
  4  2  1  0
  9  7  1  0
 10  8  1  0
 11  9  2  0
 12  1  2  0
 12  8  1  0
 13  3  1  0
 13  6  1  0
 14  8  1  0
 15  4  2  0
 15 11  1  0
 15 12  1  0
 16  3  1  0
 16  8  1  0
 17  4  1  0
 17  7  2  0
 18  5  1  0
 18  6  1  0
 19  5  1  0
 19 16  1  0
 20  1  1  0
 20  2  2  0
M  RAD  2  10   2  14   2
M  END
>  <ID>  (1) 
conformer_0

$$$$
