
     RDKit          3D

 22 25  0  0  0  0  0  0  0  0999 V2000
   13.1780   36.6422   16.0582 C   0  0  0  0  0  0  0  0  0  0  0  0
   13.9896   35.8379   15.1056 C   0  0  0  0  0  0  0  0  0  0  0  0
   15.1703   34.6664   10.6103 C   0  0  0  0  0  0  0  0  0  0  0  0
   11.6462   33.6084   16.1832 C   0  0  0  0  0  0  0  0  0  0  0  0
   10.4684   31.7834   16.4448 C   0  0  0  0  0  0  0  0  0  0  0  0
   13.4470   34.2623   15.0025 C   0  0  0  0  0  0  0  0  0  0  0  0
    9.8497   32.7768   17.2746 N   0  0  0  0  0  0  0  0  0  0  0  0
   14.3398   33.3843   13.9236 S   0  0  0  0  0  4  0  0  0  0  0  0
   18.0255   33.3770   12.9144 O   0  0  0  0  0  0  0  0  0  0  0  0
   17.1059   34.1894   13.0898 C   0  0  0  0  0  0  0  0  0  0  0  0
   17.5340   35.3791   12.9750 C   0  0  0  0  0  0  0  0  0  0  0  0
   15.4074   32.6413   14.6693 O   0  0  0  0  0  1  0  0  0  0  0  0
   12.7455   34.3193   15.7314 C   0  0  0  0  0  0  0  0  0  0  0  0
   16.2253   35.2431   10.6000 N   0  0  0  0  0  0  0  0  0  0  0  0
   11.5453   32.0772   15.6193 C   0  0  0  0  0  3  0  0  0  0  0  0
   15.4289   34.3542   12.9758 N   0  0  0  0  0  0  0  0  0  0  0  0
   10.2787   33.7891   17.1356 C   0  0  0  0  0  0  0  0  0  0  0  0
   14.7204   35.1333   12.3290 C   0  0  0  0  0  0  0  0  0  0  0  0
   13.8972   32.6305   13.2040 O   0  0  0  0  0  1  0  0  0  0  0  0
   11.3082   34.9159   16.9701 C   0  0  0  0  0  0  0  0  0  0  0  0
   16.7717   35.2132   11.6221 C   0  0  0  0  0  0  0  0  0  0  0  0
   12.1497   36.2102   16.7405 C   0  0  0  0  0  0  0  0  0  0  0  0
  2  1  2  0
  6  2  1  0
  7  5  2  0
  8  6  1  0
 10  9  1  0
 11 10  1  0
 12  8  1  0
 13  4  1  0
 13  6  2  0
 14  3  1  0
 15  4  1  0
 15  5  1  0
 16  8  1  0
 16 10  1  0
 17  4  1  0
 17  7  1  0
 18  3  1  0
 18 16  1  0
 19  8  1  0
 20  4  1  0
 20 17  1  0
 21 11  1  0
 21 14  1  0
 22  1  1  0
 22 20  2  0
M  RAD  3  12   2  15   2  19   2
M  END
>  <ID>  (1) 
conformer_0

$$$$
