
     RDKit          3D

 19 21  0  0  0  0  0  0  0  0999 V2000
   13.2391   36.4779   16.1290 C   0  0  0  0  0  0  0  0  0  0  0  0
   13.9939   35.8267   15.2735 C   0  0  0  0  0  0  0  0  0  0  0  0
   15.9251   34.3369   10.4958 C   0  0  0  0  0  0  0  0  0  0  0  0
   17.6941   35.5529   12.8888 C   0  0  0  0  0  0  0  0  0  0  0  0
   11.3513   34.2931   16.4223 C   0  0  0  0  0  0  0  0  0  0  0  0
   10.5642   31.6395   16.2933 C   0  0  0  0  0  0  0  0  0  0  0  0
    9.7564   32.7179   16.8147 N   0  0  0  0  0  0  0  0  0  0  0  0
   14.5507   33.4061   13.9623 S   0  0  0  0  0  4  0  0  0  0  0  0
   15.5831   32.6395   14.6317 O   0  0  0  0  0  1  0  0  0  0  0  0
   13.7943   34.5269   14.9708 C   0  0  0  0  0  0  0  0  0  0  0  0
   16.6053   35.2516   10.4701 N   0  0  0  0  0  0  0  0  0  0  0  0
   12.0208   35.6159   16.6579 C   0  0  0  0  0  0  0  0  0  0  0  0
   15.6021   34.5345   12.8768 N   0  0  0  0  0  0  0  0  0  0  0  0
   16.9104   35.4372   12.1955 C   0  0  0  0  0  0  0  0  0  0  0  0
   13.9110   32.6057   13.2518 O   0  0  0  0  0  1  0  0  0  0  0  0
   12.6244   33.9760   15.6367 C   0  0  0  0  0  0  0  0  0  0  0  0
   10.1032   33.8235   16.8603 C   0  0  0  0  0  0  0  0  0  0  0  0
   15.0625   34.8842   12.0643 C   0  0  0  0  0  0  0  0  0  0  0  0
   11.7398   32.4107   15.7373 C   0  0  0  0  0  0  0  0  0  0  0  0
  2  1  2  0
  7  6  1  0
  9  8  1  0
 10  2  1  0
 10  8  1  0
 11  3  1  0
 12  1  1  0
 12  5  2  0
 13  8  1  0
 14  4  2  3
 14 11  1  0
 14 13  1  0
 15  8  1  0
 16  5  1  0
 16 10  2  0
 17  5  1  0
 17  7  2  0
 18  3  1  0
 18 13  1  0
 19  6  2  0
 19 16  1  0
M  RAD  2   9   2  15   2
M  END
>  <ID>  (1) 
conformer_0

$$$$
