
     RDKit          3D

 20 22  0  0  0  0  0  0  0  0999 V2000
   12.9091   36.4910   16.0617 C   0  0  0  0  0  0  0  0  0  0  0  0
   13.9080   35.8743   15.3138 C   0  0  0  0  0  0  0  0  0  0  0  0
   14.8537   34.7764   11.9965 C   0  0  0  0  0  0  0  0  0  0  0  0
   10.9038   34.8585   16.9245 C   0  0  1  0  0  0  0  0  0  0  0  0
   10.5369   31.6027   16.1206 C   0  0  0  0  0  0  0  0  0  0  0  0
    9.8157   32.5493   16.9218 N   0  0  0  0  0  0  0  0  0  0  0  0
   13.6010   34.3923   15.0487 C   0  0  0  0  0  0  0  0  0  0  0  0
   14.6683   33.3460   14.1030 S   0  0  0  0  0  4  0  0  0  0  0  0
   15.6278   32.7324   14.9557 O   0  0  0  0  0  1  0  0  0  0  0  0
   15.5504   34.4053   12.8718 N   0  0  0  0  0  0  0  0  0  0  0  0
   17.4626   35.4053   12.9711 C   0  0  0  0  0  0  0  0  0  0  0  0
   12.0351   35.8598   16.7326 C   0  0  0  0  0  0  0  0  0  0  0  0
   17.1793   34.7319   12.8759 C   0  0  0  0  0  0  0  0  0  0  0  0
   16.7537   35.6540   11.1487 N   0  0  0  0  0  0  0  0  0  0  0  0
   11.6706   33.6355   16.1648 C   0  0  2  0  0  0  0  0  0  0  0  0
   10.1575   33.5919   16.9552 C   0  0  2  0  0  0  0  0  0  0  0  0
   14.3837   32.3734   13.4971 O   0  0  0  0  0  1  0  0  0  0  0  0
   15.9304   35.2670   10.9197 C   0  0  0  0  0  0  0  0  0  0  0  0
   11.7238   32.1196   15.4890 C   0  0  0  0  0  0  0  0  0  0  0  0
   12.6731   34.0913   15.4995 C   0  0  0  0  0  3  0  0  0  0  0  0
  2  1  1  0
  6  5  2  0
  7  2  1  0
  8  7  1  0
  9  8  1  0
 10  3  1  0
 10  8  1  0
 12  1  1  0
  4 12  1  1
 13 10  1  0
 13 11  2  3
 15  4  1  0
 16  4  1  0
 16  6  1  1
 16 15  1  0
 17  8  1  0
 18  3  1  0
 18 14  1  0
 19  5  1  0
 15 19  1  6
 20  7  2  0
 20 15  1  0
M  RAD  3   9   2  17   2  20   2
M  END
>  <ID>  (1) 
conformer_0

$$$$
