
     RDKit          3D

 16 18  0  0  0  0  0  0  0  0999 V2000
   12.8381   36.3001   16.4410 C   0  0  0  0  0  0  0  0  0  0  0  0
   13.8080   35.7521   15.5384 C   0  0  0  0  0  0  0  0  0  0  0  0
   14.7331   34.7390   11.5768 C   0  0  0  0  0  0  0  0  0  0  0  0
   17.6548   35.4794   13.3971 C   0  0  0  0  0  0  0  0  0  0  0  0
   15.5296   34.4974   12.8927 N   0  0  0  0  0  0  0  0  0  0  0  0
   11.4721   35.1852   16.8468 C   0  0  0  0  0  0  0  0  0  0  0  0
   10.9693   31.9444   16.2648 C   0  0  0  0  0  0  0  0  0  0  0  0
    9.9265   32.9826   17.1540 N   0  0  0  0  0  0  0  0  0  0  0  0
   13.5555   34.1255   15.0382 C   0  0  1  0  0  0  0  0  0  0  0  0
   14.9220   32.4386   14.3692 O   0  0  0  0  0  1  0  0  0  0  0  0
   14.3214   33.3090   14.1220 S   0  0  0  0  0  3  0  0  0  0  0  0
   16.5216   35.1722   12.4165 C   0  0  0  0  0  0  0  0  0  0  0  0
   16.6017   35.4538   10.9466 N   0  0  0  0  0  0  0  0  0  0  0  0
   12.4464   34.3913   15.8573 C   0  0  0  0  0  3  0  0  0  0  0  0
   11.8213   33.1673   15.8543 C   0  0  0  0  0  0  0  0  0  0  0  0
   10.3964   33.8822   17.0061 C   0  0  0  0  0  0  0  0  0  0  0  0
  2  1  2  0
  5  3  1  0
  6  1  1  0
  8  7  1  0
  9  2  1  0
  9  3  1  6
 11  9  1  0
 11 10  1  0
 12  4  1  0
 12  5  1  0
 13 12  2  3
 14  6  1  0
 14  9  1  0
 15  7  2  0
 15 14  1  0
 16  6  1  0
 16  8  2  0
 16 15  1  0
M  RAD  3  10   2  11   2  14   2
M  END
>  <ID>  (1) 
conformer_0

$$$$
