
     RDKit          3D

 20 22  0  0  0  0  0  0  0  0999 V2000
   13.6627   35.3285   15.4193 C   0  0  0  0  0  0  0  0  0  0  0  0
   13.1565   36.2436   16.2483 C   0  0  0  0  0  0  0  0  0  0  0  0
   16.2604   34.9049   12.8999 C   0  0  0  0  0  0  0  0  0  0  0  0
   11.0848   34.7676   16.8086 C   0  0  0  0  0  0  0  0  0  0  0  0
   17.6719   35.5005   13.0386 C   0  0  0  0  0  0  0  0  0  0  0  0
   10.4736   31.8506   16.4017 C   0  0  0  0  0  0  0  0  0  0  0  0
    9.7620   32.9095   17.0004 N   0  0  0  0  0  0  0  0  0  0  0  0
   14.6049   33.1203   14.2166 S   0  0  0  0  0  4  0  0  0  0  0  0
   16.5727   35.4066   10.6733 N   0  0  0  0  0  0  0  0  0  0  0  0
   13.5421   33.9146   15.2659 C   0  0  0  0  0  0  0  0  0  0  0  0
   15.4732   32.1308   14.9632 O   0  0  0  0  0  1  0  0  0  0  0  0
   12.2491   34.0124   15.9194 C   0  0  0  0  0  0  0  0  0  0  0  0
   14.6578   35.0286   11.8026 C   0  0  0  0  0  0  0  0  0  0  0  0
   11.7178   32.4843   15.9663 C   0  0  0  0  0  0  0  0  0  0  0  0
   13.9995   32.4423   13.3818 O   0  0  0  0  0  1  0  0  0  0  0  0
   10.1006   33.8654   16.9986 C   0  0  0  0  0  0  0  0  0  0  0  0
   15.8423   34.8337   10.2409 C   0  0  0  0  0  0  0  0  0  0  0  0
   15.8397   34.1065   13.7322 N   0  0  0  0  0  0  0  0  0  0  0  0
   11.8926   36.0231   16.9196 C   0  0  0  0  0  0  0  0  0  0  0  0
   17.4210   35.6332   11.3992 C   0  0  0  0  0  0  0  0  0  0  0  0
  2  1  2  0
  5  3  1  0
  7  6  1  0
 10  1  1  0
 10  8  1  0
 11  8  1  0
 12  4  1  0
 12 10  2  0
 13  3  1  0
 14  6  2  0
 14 12  1  0
 15  8  1  0
 16  4  1  0
 16  7  2  0
 17  9  1  0
 17 13  1  0
 18  3  1  0
 18  8  1  0
 19  2  1  0
 19  4  2  0
 20  5  1  0
 20  9  1  0
M  RAD  2  11   2  15   2
M  END
>  <ID>  (1) 
conformer_0

$$$$
