
     RDKit          3D

 19 21  0  0  0  0  0  0  0  0999 V2000
   13.0462   36.2692   16.4581 C   0  0  0  0  0  0  0  0  0  0  0  0
   13.7880   35.4548   15.5543 C   0  0  0  0  0  0  0  0  0  0  0  0
   17.3726   36.4524   12.8797 C   0  0  0  0  0  0  0  0  0  0  0  0
   14.9090   34.7907   11.1227 C   0  0  0  0  0  0  0  0  0  0  0  0
   12.3554   33.9859   15.6350 C   0  0  0  0  0  0  0  0  0  0  0  0
   10.5600   31.8987   16.1840 C   0  0  0  0  0  0  0  0  0  0  0  0
   13.3998   34.1099   15.0710 C   0  0  0  0  0  0  0  0  0  0  0  0
   14.6152   33.3450   13.8298 S   0  0  0  0  0  4  0  0  0  0  0  0
    9.8518   32.8406   17.0082 N   0  0  0  0  0  0  0  0  0  0  0  0
   15.8670   34.3472   12.7887 N   0  0  0  0  0  0  0  0  0  0  0  0
   15.5034   32.4854   14.5866 O   0  0  0  0  0  1  0  0  0  0  0  0
   11.8397   35.6636   16.8180 C   0  0  0  0  0  0  0  0  0  0  0  0
   15.9261   35.6765   12.1900 C   0  0  0  0  0  0  0  0  0  0  0  0
   14.1492   32.6251   12.9169 O   0  0  0  0  0  1  0  0  0  0  0  0
   11.6936   32.5655   15.6557 C   0  0  0  0  0  0  0  0  0  0  0  0
   17.8634   35.0763   13.3923 C   0  0  0  0  0  0  0  0  0  0  0  0
   10.1314   33.7631   17.0044 C   0  0  0  0  0  0  0  0  0  0  0  0
   10.9959   34.6214   16.7359 C   0  0  0  0  0  0  0  0  0  0  0  0
   17.0668   34.3032   13.1165 C   0  0  0  0  0  0  0  0  0  0  0  0
  2  1  2  0
  7  2  1  0
  7  5  2  0
  8  7  1  0
  9  6  1  0
 10  8  1  0
 11  8  1  0
 12  1  1  0
 13  3  1  0
 13  4  1  0
 13 10  1  0
 14  8  1  0
 15  5  1  0
 15  6  2  0
 16  3  1  0
 17  9  2  0
 18  5  1  0
 18 12  2  0
 18 17  1  0
 19 10  1  0
 19 16  1  0
M  RAD  2  11   2  14   2
M  END
>  <ID>  (1) 
conformer_0

$$$$
