
     RDKit          3D

 21 24  0  0  0  0  0  0  0  0999 V2000
   12.6090   33.9872   15.3281 C   0  0  0  0  0  0  0  0  0  0  0  0
   13.9710   35.6369   15.4474 C   0  0  0  0  0  0  0  0  0  0  0  0
   16.6700   34.4676   13.1011 C   0  0  0  0  0  0  0  0  0  0  0  0
   10.5847   35.1579   17.1867 C   0  0  0  0  0  0  0  0  0  0  0  0
   14.6476   33.3362   14.1333 S   0  0  0  0  0  4  0  0  0  0  0  0
   10.4698   32.0622   16.3167 C   0  0  0  0  0  0  0  0  0  0  0  0
    9.7329   32.9532   16.9781 N   0  0  0  0  0  0  0  0  0  0  0  0
   17.5626   35.2685   13.2681 C   0  0  0  0  0  0  0  0  0  0  0  0
   15.5433   32.5016   14.9751 O   0  0  0  0  0  1  0  0  0  0  0  0
   15.7065   34.1425   13.0223 N   0  0  0  0  0  0  0  0  0  0  0  0
   15.7141   34.5453   10.5828 C   0  0  0  0  0  0  0  0  0  0  0  0
   11.6597   32.6567   15.7599 C   0  0  0  0  0  0  0  0  0  0  0  0
   16.7348   35.1362   10.3714 N   0  0  0  0  0  0  0  0  0  0  0  0
   13.8423   34.2476   15.0343 C   0  0  0  0  0  0  0  0  0  0  0  0
   11.7838   36.2261   16.7570 C   0  0  0  0  0  0  0  0  0  0  0  0
   14.1971   32.2202   13.4632 O   0  0  0  0  0  1  0  0  0  0  0  0
   10.0592   34.0563   17.0298 C   0  0  0  0  0  0  0  0  0  0  0  0
   14.7310   34.9590   11.9210 C   0  0  0  0  0  0  0  0  0  0  0  0
   13.0635   35.9859   16.3876 C   0  0  0  0  0  0  0  0  0  0  0  0
   17.1741   35.4941   11.5657 C   0  0  0  0  0  0  0  0  0  0  0  0
   11.7432   34.3010   16.2978 C   0  0  0  0  0  0  0  0  0  0  0  0
  7  6  2  0
  8  3  1  0
  9  5  1  0
 10  3  1  0
 10  5  1  0
 12  1  1  0
 12  6  1  0
 13 11  1  0
 14  1  2  0
 14  2  1  0
 14  5  1  0
 15  4  2  0
 16  5  1  0
 17  4  1  0
 17  7  1  0
 18 10  1  0
 18 11  1  0
 19  2  2  0
 19 15  1  0
 20  8  1  0
 20 13  1  0
 21  1  1  0
 21  4  1  0
 21 12  2  0
M  RAD  2   9   2  16   2
M  END
>  <ID>  (1) 
conformer_0

$$$$
