
     RDKit          3D

 18 20  0  0  0  0  0  0  0  0999 V2000
   13.0935   36.4076   16.4907 C   0  0  0  0  0  0  0  0  0  0  0  0
   13.6673   35.6044   15.4360 C   0  0  0  0  0  0  0  0  0  0  0  0
   17.5087   35.9197   12.9108 C   0  0  0  0  0  0  0  0  0  0  0  0
   14.9243   35.0919   11.4653 C   0  0  0  0  0  0  0  0  0  0  0  0
   12.4214   34.0557   15.6766 C   0  0  0  0  0  0  0  0  0  0  0  0
   10.5683   31.8646   16.3910 C   0  0  0  0  0  0  0  0  0  0  0  0
   13.7335   32.4221   13.2582 O   0  0  0  0  0  1  0  0  0  0  0  0
    9.8328   32.8382   17.1815 N   0  0  0  0  0  0  0  0  0  0  0  0
   14.4854   33.1370   13.9423 S   0  0  0  0  0  4  0  0  0  0  0  0
   13.3007   34.1463   15.1046 C   0  0  0  0  0  0  0  0  0  0  0  0
   11.9427   35.8523   16.9469 C   0  0  0  0  0  0  0  0  0  0  0  0
   15.6383   32.4944   14.5862 O   0  0  0  0  0  1  0  0  0  0  0  0
   16.4697   35.1143   12.4063 C   0  0  0  0  0  0  0  0  0  0  0  0
   15.4576   34.3962   10.1974 C   0  0  0  0  0  0  0  0  0  0  0  0
   15.2106   34.2865   13.0128 N   0  0  0  0  0  0  0  0  0  0  0  0
   10.2367   33.8848   17.1149 C   0  0  0  0  0  0  0  0  0  0  0  0
   11.2214   34.5672   16.7470 C   0  0  0  0  0  0  0  0  0  0  0  0
   11.6978   32.6051   15.8461 C   0  0  0  0  0  0  0  0  0  0  0  0
  2  1  2  0
  8  6  1  0
  9  7  1  0
 10  2  1  0
 10  5  2  0
 10  9  1  0
 11  1  1  0
 12  9  1  0
 13  3  1  0
 13  4  1  0
 14  4  1  0
 15  4  1  0
 15  9  1  0
 15 13  1  0
 16  8  2  0
 17  5  1  0
 17 11  2  0
 17 16  1  0
 18  5  1  0
 18  6  2  0
M  RAD  2   7   2  12   2
M  END
>  <ID>  (1) 
conformer_0

$$$$
