
     RDKit          3D

 20 24  0  0  0  0  0  0  0  0999 V2000
   13.3650   36.2878   16.2408 C   0  0  0  0  0  0  0  0  0  0  0  0
   13.9779   35.4530   15.2678 C   0  0  0  0  0  0  0  0  0  0  0  0
   15.2636   35.0277   10.6504 C   0  0  0  0  0  0  0  0  0  0  0  0
   11.1612   34.5273   16.7083 C   0  0  0  0  0  3  0  0  0  0  0  0
   10.6023   31.7090   16.3546 C   0  0  0  0  0  0  0  0  0  0  0  0
    9.8550   32.6966   16.8802 N   0  0  0  0  0  0  0  0  0  0  0  0
   13.6025   34.1085   15.0284 C   0  0  0  0  0  0  0  0  0  0  0  0
   15.5501   32.1496   14.8261 O   0  0  0  0  0  1  0  0  0  0  0  0
   15.4348   34.2237   13.0821 N   0  0  0  0  0  0  0  0  0  0  0  0
   16.5527   34.5766   13.1865 C   0  0  0  0  0  0  0  0  0  0  0  0
   14.5946   33.1179   14.1229 S   0  0  0  0  0  4  0  0  0  0  0  0
   17.6622   35.5102   13.0430 C   0  0  0  0  0  0  0  0  0  0  0  0
   16.3516   35.6907   10.5198 N   0  0  0  0  0  0  0  0  0  0  0  0
   12.4676   34.1137   15.6798 C   0  0  0  0  0  0  0  0  0  0  0  0
   13.9823   32.2936   13.3207 O   0  0  0  0  0  1  0  0  0  0  0  0
   10.1964   33.7327   16.9358 C   0  0  0  0  0  0  0  0  0  0  0  0
   14.4821   35.1134   12.1395 C   0  0  0  0  0  0  0  0  0  0  0  0
   11.7624   32.5954   15.9887 C   0  0  0  0  0  0  0  0  0  0  0  0
   17.0970   35.5210   11.6073 C   0  0  0  0  0  0  0  0  0  0  0  0
   12.1464   35.6315   16.7879 C   0  0  0  0  0  0  0  0  0  0  0  0
  2  1  1  0
  6  5  1  0
  7  2  2  0
 10  9  1  0
 11  7  1  0
 11  8  1  0
 11  9  1  0
 12 10  1  0
 13  3  1  0
 14  4  1  0
 14  7  1  0
 15 11  1  0
 16  4  1  0
 16  6  2  0
 17  3  1  0
 17  9  1  0
 18  5  2  0
 18 14  1  0
 19 10  1  0
 19 12  1  0
 19 13  1  0
 20  1  2  0
 20  4  1  0
 20 14  1  0
M  RAD  3   4   2   8   2  15   2
M  END
>  <ID>  (1) 
conformer_0

$$$$
