
     RDKit          3D

 19 20  0  0  0  0  0  0  0  0999 V2000
   11.3431   34.7299   16.7263 C   0  0  0  0  0  0  0  0  0  0  0  0
   13.3272   36.3704   16.5895 C   0  0  0  0  0  0  0  0  0  0  0  0
   16.6649   34.7979   13.0108 C   0  0  0  0  0  0  0  0  0  0  0  0
   13.8110   35.6720   15.6722 C   0  0  0  0  0  0  0  0  0  0  0  0
   13.4088   34.2238   15.2099 C   0  0  0  0  0  0  0  0  0  0  0  0
   17.6555   35.3980   12.8322 C   0  0  0  0  0  0  0  0  0  0  0  0
   10.3711   32.0732   16.4007 C   0  0  0  0  0  0  0  0  0  0  0  0
   14.5179   33.3128   14.1049 S   0  0  0  0  0  4  0  0  0  0  0  0
   15.6276   32.4981   14.9454 O   0  0  0  0  0  1  0  0  0  0  0  0
   15.8485   34.1263   13.0637 N   0  0  0  0  0  0  0  0  0  0  0  0
    9.7063   33.1894   17.0419 N   0  0  0  0  0  0  0  0  0  0  0  0
   12.2846   33.9914   15.7410 C   0  0  0  0  0  0  0  0  0  0  0  0
   14.7660   34.8007   11.7113 C   0  0  0  0  0  0  0  0  0  0  0  0
   11.5514   32.4216   15.8585 C   0  0  0  0  0  0  0  0  0  0  0  0
   14.0048   32.5039   13.5145 O   0  0  0  0  0  1  0  0  0  0  0  0
   16.5438   35.1347   10.8571 C   0  0  0  0  0  0  0  0  0  0  0  0
   16.2420   35.3190   10.7134 N   0  0  0  0  0  0  0  0  0  0  0  0
   10.2415   34.1023   17.0327 C   0  0  0  0  0  0  0  0  0  0  0  0
   12.0020   35.9898   17.0594 C   0  0  0  0  0  0  0  0  0  0  0  0
  4  2  2  0
  5  4  1  0
  6  3  3  0
  8  5  1  0
  9  8  1  0
 10  3  1  0
 10  8  1  0
 11  7  1  0
 12  1  1  0
 12  5  2  0
 13 10  1  0
 14  7  2  0
 14 12  1  0
 15  8  1  0
 17 13  1  0
 17 16  1  0
 18  1  1  0
 18 11  2  0
 19  1  2  0
 19  2  1  0
M  RAD  2   9   2  15   2
M  END
>  <ID>  (1) 
conformer_0

$$$$
