
     RDKit          3D

 18 20  0  0  0  0  0  0  0  0999 V2000
   13.6718   35.4539   15.5438 C   0  0  0  0  0  0  0  0  0  0  0  0
   13.0641   36.4140   16.4216 C   0  0  0  0  0  0  0  0  0  0  0  0
   17.3681   35.6606   12.8362 C   0  0  0  0  0  0  0  0  0  0  0  0
   16.7913   35.5871   10.6830 C   0  0  0  0  0  0  0  0  0  0  0  0
   11.6833   35.8262   16.8470 C   0  0  0  0  0  3  0  0  0  0  0  0
   10.5090   34.2179   16.9311 C   0  0  0  0  0  0  0  0  0  0  0  0
    9.9067   33.1287   17.0634 N   0  0  0  0  0  0  0  0  0  0  0  0
   14.5931   33.0798   14.1701 S   0  0  0  0  0  4  0  0  0  0  0  0
   15.5833   32.2124   15.0007 O   0  0  0  0  0  1  0  0  0  0  0  0
   13.3269   34.1094   15.1104 C   0  0  0  0  0  0  0  0  0  0  0  0
   15.8025   34.1539   12.6018 N   0  0  0  0  0  0  0  0  0  0  0  0
   11.9603   34.3459   16.1038 C   0  0  0  0  0  0  0  0  0  0  0  0
   14.7747   34.9035   11.6525 C   0  0  0  0  0  0  0  0  0  0  0  0
   10.6251   31.9215   16.3489 C   0  0  0  0  0  0  0  0  0  0  0  0
   16.7134   34.4853   12.8228 C   0  0  0  0  0  0  0  0  0  0  0  0
   16.8728   35.9616   10.5202 N   0  0  0  0  0  0  0  0  0  0  0  0
   14.2385   32.1697   13.5734 O   0  0  0  0  0  1  0  0  0  0  0  0
   12.0365   32.7665   15.6843 C   0  0  0  0  0  0  0  0  0  0  0  0
  2  1  2  0
  4  3  1  0
  5  2  1  0
  7  6  2  0
  9  8  1  0
 10  1  1  0
 10  8  1  0
 11  8  1  0
 12  5  1  0
 12  6  1  0
 12 10  1  0
 13 11  1  0
 14  7  1  0
 15  3  1  0
 15 11  1  0
 16  4  1  0
 17  8  1  0
 18 10  1  0
 18 12  1  0
 18 14  2  0
M  RAD  3   5   2   9   2  17   2
M  END
>  <ID>  (1) 
conformer_0

$$$$
