
     RDKit          3D

 17 18  0  0  0  0  0  0  0  0999 V2000
   13.5186   35.7354   15.5895 C   0  0  0  0  0  0  0  0  0  0  0  0
   12.5826   36.1763   16.5255 C   0  0  0  0  0  0  0  0  0  0  0  0
   15.1996   34.7264   12.6120 C   0  0  0  0  0  0  0  0  0  0  0  0
   12.1286   34.2000   15.8480 C   0  0  0  0  0  0  0  0  0  0  0  0
   16.5052   35.6559   11.0294 N   0  0  0  0  0  0  0  0  0  0  0  0
   10.2509   33.9817   16.9522 C   0  0  0  0  0  0  0  0  0  0  0  0
   13.3182   34.1883   15.0368 C   0  0  0  0  0  0  0  0  0  0  0  0
    9.7949   33.0098   17.1592 N   0  0  0  0  0  0  0  0  0  0  0  0
   14.5804   33.1915   14.0818 S   0  0  0  0  0  3  0  0  0  0  0  0
   14.9291   32.3971   14.3908 O   0  0  0  0  0  1  0  0  0  0  0  0
   17.2024   35.1858   12.6029 C   0  0  0  0  0  0  0  0  0  0  0  0
   11.2994   35.1212   16.8723 C   0  0  0  0  0  0  0  0  0  0  0  0
   17.3545   35.9597   13.0145 C   0  0  0  0  0  0  0  0  0  0  0  0
   15.4731   34.0833   13.3774 N   0  0  0  0  0  0  0  0  0  0  0  0
   11.6990   32.7389   15.7093 C   0  0  0  0  0  0  0  0  0  0  0  0
   15.4971   34.5937   10.9565 C   0  0  0  0  0  0  0  0  0  0  0  0
   10.4679   32.0330   16.4215 C   0  0  0  0  0  0  0  0  0  0  0  0
  2  1  2  0
  3  1  1  0
  7  1  1  0
  7  4  1  0
  8  6  1  0
 10  9  1  0
 11  5  1  0
 12  2  1  0
 12  4  2  0
 12  6  1  0
 13 11  1  0
 14  3  1  0
 14  9  1  0
 15  4  1  0
 16  3  1  0
 16  5  1  0
 17  8  2  0
 17 15  1  0
M  RAD  2   9   2  10   2
M  END
>  <ID>  (1) 
conformer_0

$$$$
