
     RDKit          3D

 20 21  0  0  0  0  0  0  0  0999 V2000
   13.8583   35.6451   15.3817 C   0  0  0  0  0  0  0  0  0  0  0  0
   13.4066   36.2216   16.5865 C   0  0  0  0  0  0  0  0  0  0  0  0
   17.0200   35.0483   12.5687 C   0  0  0  0  0  0  0  0  0  0  0  0
   12.4061   34.3030   15.8730 C   0  0  0  0  0  0  0  0  0  0  0  0
   10.8083   32.0802   16.2911 C   0  0  0  0  0  0  0  0  0  0  0  0
   14.3873   33.4114   13.7983 S   0  0  0  0  0  4  0  0  0  0  0  0
   15.5714   34.3545   12.6604 N   0  0  0  0  0  0  0  0  0  0  0  0
    9.8840   32.7543   16.9345 N   0  0  0  0  0  0  0  0  0  0  0  0
   17.8742   35.3396   13.1029 C   0  0  0  0  0  0  0  0  0  0  0  0
   15.4614   32.4879   14.5449 O   0  0  0  0  0  1  0  0  0  0  0  0
   13.4209   34.2778   15.0583 C   0  0  0  0  0  0  0  0  0  0  0  0
   14.7872   34.9339   11.7744 C   0  0  0  0  0  0  0  0  0  0  0  0
   13.6734   32.7178   13.0236 O   0  0  0  0  0  1  0  0  0  0  0  0
   12.1483   35.9573   17.0052 C   0  0  0  0  0  0  0  0  0  0  0  0
   17.4070   35.7365   10.6852 N   0  0  0  0  0  0  0  0  0  0  0  0
   10.1242   34.0188   17.0089 C   0  0  0  0  0  0  0  0  0  0  0  0
   10.7627   31.0530   15.8413 N   0  0  0  0  0  0  0  0  0  0  0  0
   16.6269   35.2263   10.8041 C   0  0  0  0  0  0  0  0  0  0  0  0
   11.9490   32.9735   15.7107 C   0  0  0  0  0  0  0  0  0  0  0  0
   11.1049   34.8021   16.8777 C   0  0  0  0  0  0  0  0  0  0  0  0
  2  1  2  0
  7  3  1  0
  7  6  1  0
  8  5  1  0
  9  3  2  3
 10  6  1  0
 11  1  1  0
 11  4  2  0
 11  6  1  0
 12  7  1  0
 13  6  1  0
 14  2  1  0
 16  8  2  0
 17  5  1  0
 18  3  1  0
 18 15  1  0
 19  4  1  0
 19  5  2  0
 20  4  1  0
 20 14  2  0
 20 16  1  0
M  RAD  2  10   2  13   2
M  END
>  <ID>  (1) 
conformer_0

$$$$
