
     RDKit          3D

 20 22  0  0  0  0  0  0  0  0999 V2000
   12.9573   36.5381   16.1377 C   0  0  0  0  0  0  0  0  0  0  0  0
   13.4938   35.4413   15.5537 C   0  0  0  0  0  0  0  0  0  0  0  0
   14.3282   34.5630   12.3550 C   0  0  0  0  0  0  0  0  0  0  0  0
   12.2494   34.0226   15.7404 C   0  0  0  0  0  0  0  0  0  0  0  0
   17.7843   35.4312   12.9922 C   0  0  0  0  0  0  0  0  0  0  0  0
   10.7253   31.7101   16.3370 C   0  0  0  0  0  0  0  0  0  0  0  0
   14.3626   33.1467   13.8801 S   0  0  0  0  0  4  0  0  0  0  0  0
   10.1795   32.6595   17.2229 N   0  0  0  0  0  0  0  0  0  0  0  0
   11.8715   32.5133   15.6405 C   0  0  0  0  0  0  0  0  0  0  0  0
   16.7149   34.7604   13.3123 C   0  0  0  0  0  0  0  0  0  0  0  0
   15.3420   32.4692   14.7043 O   0  0  0  0  0  1  0  0  0  0  0  0
   16.4190   35.4291   10.5381 N   0  0  0  0  0  0  0  0  0  0  0  0
   13.3075   33.9944   14.9511 C   0  0  0  0  0  0  0  0  0  0  0  0
   15.7716   34.2963   12.8774 N   0  0  0  0  0  0  0  0  0  0  0  0
   11.3679   34.7465   16.6975 C   0  0  0  0  0  0  0  0  0  0  0  0
   15.1810   34.7401   10.7770 C   0  0  0  0  0  0  0  0  0  0  0  0
   10.6264   33.6648   17.0616 C   0  0  0  0  0  0  0  0  0  0  0  0
   13.9603   32.1646   13.2628 O   0  0  0  0  0  1  0  0  0  0  0  0
   16.8244   35.6519   11.5338 C   0  0  0  0  0  0  0  0  0  0  0  0
   11.6258   36.2422   16.8035 C   0  0  0  0  0  0  0  0  0  0  0  0
  2  1  2  0
  7  3  1  0
  8  6  1  0
  9  4  1  0
  9  6  2  0
 10  5  1  0
 11  7  1  0
 13  2  1  0
 13  4  2  0
 13  7  1  0
 14  3  1  0
 14 10  1  0
 15  4  1  0
 16  3  1  0
 16 12  1  0
 17  8  2  0
 17 15  1  0
 18  7  1  0
 19  5  1  0
 19 12  1  0
 20  1  1  0
 20 15  2  0
M  RAD  2  11   2  18   2
M  END
>  <ID>  (1) 
conformer_0

$$$$
