
     RDKit          3D

 20 22  0  0  0  0  0  0  0  0999 V2000
   10.9091   34.8012   16.7946 C   0  0  0  0  0  0  0  0  0  0  0  0
   11.7158   35.8472   16.7199 C   0  0  0  0  0  0  0  0  0  0  0  0
   17.4850   35.6631   11.8325 C   0  0  0  0  0  0  0  0  0  0  0  0
   12.3306   34.0386   15.7015 C   0  0  0  0  0  0  0  0  0  0  0  0
   15.3803   34.4532   12.8488 N   0  0  0  0  0  0  0  0  0  0  0  0
    9.8002   32.8913   16.9735 N   0  0  0  0  0  0  0  0  0  0  0  0
   10.6945   31.8633   16.3685 C   0  0  0  0  0  0  0  0  0  0  0  0
   17.4052   35.8410   13.1928 C   0  0  0  0  0  0  0  0  0  0  0  0
   14.3894   34.7251   11.8985 C   0  0  0  0  0  0  0  0  0  0  0  0
   13.5389   34.2514   15.0062 C   0  0  0  0  0  0  0  0  0  0  0  0
   14.4636   33.3333   14.0504 S   0  0  0  0  0  4  0  0  0  0  0  0
   13.9639   32.1501   13.4650 O   0  0  0  0  0  1  0  0  0  0  0  0
   17.2925   35.8345   10.8618 N   0  0  0  0  0  0  0  0  0  0  0  0
   13.7800   35.5738   15.3804 C   0  0  0  0  0  0  0  0  0  0  0  0
   10.1192   33.9397   16.9328 C   0  0  0  0  0  0  0  0  0  0  0  0
   11.8682   32.8224   15.8596 C   0  0  0  0  0  0  0  0  0  0  0  0
   15.4117   32.5878   14.8461 O   0  0  0  0  0  1  0  0  0  0  0  0
   16.7081   34.5950   13.3238 C   0  0  0  0  0  0  0  0  0  0  0  0
   15.6433   35.0485   10.8426 C   0  0  0  0  0  0  0  0  0  0  0  0
   13.0589   36.3483   16.1477 C   0  0  0  0  0  0  0  0  0  0  0  0
  2  1  2  0
  4  1  1  0
  7  6  1  0
  8  3  1  0
  9  5  1  0
 10  4  2  0
 11  5  1  0
 11 10  1  0
 12 11  1  0
 13  3  1  0
 14 10  1  0
 15  1  1  0
 15  6  2  0
 16  4  1  0
 16  7  2  0
 17 11  1  0
 18  5  1  0
 18  8  1  0
 19  9  1  0
 19 13  1  0
 20  2  1  0
 20 14  2  0
M  RAD  2  12   2  17   2
M  END
>  <ID>  (1) 
conformer_0

$$$$
