
     RDKit          3D

 16 17  0  0  0  0  0  0  0  0999 V2000
   13.4991   35.6949   15.6157 C   0  0  0  0  0  0  0  0  0  0  0  0
   11.7315   32.9536   15.8929 C   0  0  0  0  0  0  0  0  0  0  0  0
   16.8832   35.2362   11.9106 C   0  0  0  0  0  0  0  0  0  0  0  0
   12.4250   36.2693   16.5289 C   0  0  0  0  0  0  0  0  0  0  0  0
   17.6521   36.0759   12.9888 C   0  0  0  0  0  0  0  0  0  0  0  0
    9.8033   33.0700   17.2265 N   0  0  0  0  0  0  0  0  0  0  0  0
   14.6042   33.1147   14.0563 S   0  0  0  0  0  4  0  0  0  0  0  0
   10.6199   31.9662   16.5187 C   0  0  0  0  0  0  0  0  0  0  0  0
   15.5531   34.3011   12.7920 N   0  0  0  0  0  0  0  0  0  0  0  0
   14.9253   34.8083   11.8749 C   0  0  0  0  0  0  0  0  0  0  0  0
   13.5400   33.9334   15.0567 C   0  0  0  0  0  0  0  0  0  0  0  0
   15.3707   32.4680   14.9321 O   0  0  0  0  0  1  0  0  0  0  0  0
   12.3776   34.1671   15.7187 C   0  0  0  0  0  0  0  0  0  0  0  0
   11.2718   35.3151   16.8659 C   0  0  0  0  0  0  0  0  0  0  0  0
   10.2200   34.1460   17.0765 C   0  0  0  0  0  0  0  0  0  0  0  0
   14.4068   31.9104   13.3410 O   0  0  0  0  0  1  0  0  0  0  0  0
  4  1  2  0
  5  3  1  0
  8  2  2  0
  8  6  1  0
  9  3  1  0
  9  7  1  0
 10  9  1  0
 11  1  1  0
 11  7  1  0
 12  7  1  0
 13  2  1  0
 13 11  1  0
 14  4  1  0
 14 13  2  0
 15  6  1  0
 15 14  1  0
 16  7  1  0
M  RAD  2  12   2  16   2
M  END
>  <ID>  (1) 
conformer_0

$$$$
