
     RDKit          3D

 20 21  0  0  0  0  0  0  0  0999 V2000
   -7.4555   30.2455   -3.4889 C   0  0  0  0  0  0  0  0  0  0  0  0
   -6.1555   30.1455   -3.3889 C   0  0  0  0  0  0  0  0  0  0  0  0
   -8.3555   29.2455   -3.9889 C   0  0  0  0  0  0  0  0  0  0  0  0
   -9.7555   29.6455   -3.9889 N   0  0  0  0  0  0  0  0  0  0  0  0
   -9.8555   30.8455   -3.2889 C   0  0  0  0  0  0  0  0  0  0  0  0
   -9.3555   31.4455   -2.2889 C   0  0  0  0  0  0  0  0  0  0  0  0
  -10.0555   32.1455   -1.1889 C   0  0  0  0  0  0  0  0  0  0  0  0
   -7.5555   28.4455   -4.8889 C   0  0  0  0  0  0  0  0  0  0  0  0
   -5.4555   29.5455   -4.4889 C   0  0  0  0  0  0  0  0  0  0  0  0
   -4.0555   29.3455   -4.2889 O   0  0  0  0  0  0  0  0  0  0  0  0
   -3.5555   29.8455   -3.0889 C   0  0  0  0  0  0  0  0  0  0  0  0
   -6.2555   28.5455   -5.1889 C   0  0  0  0  0  0  0  0  0  0  0  0
  -10.5555   33.0455   -0.3889 C   0  0  0  0  0  0  0  0  0  0  0  0
   -4.0555   31.0455   -2.4889 C   0  0  0  0  0  0  0  0  0  0  0  0
  -11.3555   32.9455    0.8111 C   0  0  0  0  0  0  0  0  0  0  0  0
   -3.6555   31.3455   -1.1889 N   0  0  0  0  0  0  0  0  0  0  0  0
  -12.7555   32.8455    0.6111 O   0  0  0  0  0  0  0  0  0  0  0  0
  -10.6555   32.2455    1.9111 C   0  0  0  0  0  0  0  0  0  0  0  0
   -4.1555   31.9455   -0.1889 N   0  0  0  0  0  0  0  0  0  0  0  0
  -10.8555   33.7455    1.9111 C   0  0  0  0  0  0  0  0  0  0  0  0
  2  1  2  0
  3  1  1  0
  4  3  1  0
  5  4  1  0
  6  5  1  0
  7  6  2  0
  8  3  2  0
  9  2  1  0
 10  9  1  0
 11 10  1  0
 12  8  1  0
 12  9  2  0
 13  7  2  0
 14 11  2  3
 15 13  1  0
 16 14  1  0
 17 15  1  0
 18 15  1  0
 19 16  2  0
 20 15  1  0
 20 18  1  0
M  END
>  <ID>  (1) 
conformer_0

$$$$
