
     RDKit          3D

 23 26  0  0  0  0  0  0  0  0999 V2000
  -11.4929   33.0364    0.3998 C   0  0  0  0  0  0  0  0  0  0  0  0
  -10.7929   32.1364    1.1998 N   0  0  0  0  0  2  0  0  0  0  0  0
  -11.7929   34.1364    0.9998 N   0  0  0  0  0  0  0  0  0  0  0  0
  -10.8929   32.3364    2.4998 C   0  0  0  0  0  0  0  0  0  0  0  0
  -12.4929   34.1364    2.1998 C   0  0  0  0  0  0  0  0  0  0  0  0
  -11.3929   33.5364    3.0998 C   0  0  0  0  0  0  0  0  0  0  0  0
  -11.1929   32.8364   -1.0002 N   0  0  0  0  0  0  0  0  0  0  0  0
  -10.1929   32.0364   -1.3002 C   0  0  0  0  0  0  0  0  0  0  0  0
   -9.9929   31.3364   -2.5002 C   0  0  0  0  0  0  0  0  0  0  0  0
  -10.7929   31.7364   -3.7002 C   0  0  0  0  0  0  0  0  0  0  0  0
   -8.6929   30.6364   -2.7002 C   0  0  0  0  0  0  0  0  0  0  0  0
   -8.6929   29.6364   -3.8002 C   0  0  0  0  0  0  0  0  0  0  0  0
  -10.0929   29.3364   -4.1002 C   0  0  0  0  0  0  0  0  0  0  0  0
  -10.6929   30.5364   -4.5002 N   0  0  0  0  0  0  0  0  0  0  0  0
   -7.4929   28.9364   -4.2002 C   0  0  0  0  0  0  0  0  0  0  0  0
   -6.8929   28.9364   -5.4002 N   0  0  0  0  0  0  0  0  0  0  0  0
   -6.1929   27.7364   -5.9002 C   0  0  0  0  0  0  0  0  0  0  0  0
   -5.0929   27.6364   -5.7002 O   0  0  0  0  0  0  0  0  0  0  0  0
   -6.8929   27.2364   -7.1002 C   0  0  0  0  0  0  0  0  0  0  0  0
   -6.1929   29.6364   -4.3002 C   0  0  0  0  0  0  0  0  0  0  0  0
  -10.3929   34.3364    3.5998 N   0  0  0  0  0  0  0  0  0  0  0  0
   -7.2929   30.9364   -2.4002 C   0  0  0  0  0  0  0  0  0  0  0  0
   -6.1929   30.5364   -3.1002 C   0  0  0  0  0  0  0  0  0  0  0  0
  2  1  1  0
  3  1  2  0
  4  2  1  0
  5  3  1  0
  6  4  1  0
  6  5  1  0
  7  1  1  0
  8  7  1  0
  9  8  1  0
 10  9  1  0
 11  9  1  0
 12 11  1  0
 13 12  1  0
 14 10  1  0
 14 13  1  0
 15 12  1  0
 16 15  1  0
 17 16  1  0
 18 17  2  0
 19 17  1  0
 20 15  1  0
 20 16  1  0
 21  6  1  0
 22 11  1  0
 23 20  1  0
 23 22  2  0
M  END
>  <ID>  (1) 
conformer_0

$$$$
