
     RDKit          3D

 25 27  0  0  0  0  0  0  0  0999 V2000
  -10.7076   33.0709   -0.0840 C   0  0  0  0  0  0  0  0  0  0  0  0
  -11.8076   33.1709    0.7161 C   0  0  0  0  0  0  0  0  0  0  0  0
  -12.0076   34.3709    1.3161 O   0  0  0  0  0  0  0  0  0  0  0  0
  -10.2076   32.0709   -0.8839 C   0  0  0  0  0  0  0  0  0  0  0  0
   -9.8076   31.8709   -2.1839 N   0  0  0  0  0  0  0  0  0  0  0  0
  -10.4076   31.3709   -3.2839 C   0  0  0  0  0  0  0  0  0  0  0  0
   -9.7076   30.4709   -4.1839 C   0  0  0  0  0  0  0  0  0  0  0  0
  -10.3076   29.9709   -5.3840 C   0  0  0  0  0  0  0  0  0  0  0  0
   -8.4076   30.0709   -3.5840 C   0  0  0  0  0  0  0  0  0  0  0  0
   -7.9076   28.7709   -4.0840 C   0  0  0  0  0  0  0  0  0  0  0  0
   -7.5076   30.8709   -2.8839 C   0  0  0  0  0  0  0  0  0  0  0  0
   -6.1076   30.3709   -2.9839 C   0  0  0  0  0  0  0  0  0  0  0  0
   -8.2076   28.5709   -5.4840 C   0  0  0  0  0  0  0  0  0  0  0  0
  -10.4076   28.9709   -4.3840 C   0  0  0  0  0  0  0  0  0  0  0  0
   -7.5076   27.4709   -5.9840 N   0  0  0  0  0  0  0  0  0  0  0  0
   -5.2076   31.1709   -2.2839 C   0  0  0  0  0  0  0  0  0  0  0  0
   -3.8076   30.8709   -2.3839 C   0  0  0  0  0  0  0  0  0  0  0  0
   -3.3076   31.4709   -1.1839 N   0  0  0  0  0  0  0  0  0  0  0  0
   -4.1076   31.9709   -0.2839 N   0  0  0  0  0  0  0  0  0  0  0  0
  -11.4076   32.2709    1.7161 C   0  0  0  0  0  0  0  0  0  0  0  0
  -10.1076   31.9709    2.1161 C   0  0  0  0  0  0  0  0  0  0  0  0
   -9.8076   31.8709    3.5160 C   0  0  0  0  0  0  0  0  0  0  0  0
   -9.3076   31.0709   -1.2839 C   0  0  0  0  0  0  0  0  0  0  0  0
  -11.3076   32.0709   -3.8839 O   0  0  0  0  0  0  0  0  0  0  0  0
  -10.3076   30.8709    2.9160 O   0  0  0  0  0  0  0  0  0  0  0  0
  2  1  1  0
  3  2  1  0
  4  1  1  0
  5  4  1  0
  6  5  1  0
  7  6  1  0
  8  7  1  0
  9  7  1  0
 10  9  1  0
 11  9  1  0
 12 11  1  0
 13 10  1  0
 14  7  1  0
 14  8  1  0
 15 13  1  0
 16 12  1  0
 17 16  1  0
 18 17  1  0
 19 18  1  0
 20  2  1  0
 21 20  1  0
 22 21  1  0
 23  4  1  0
 23  5  1  0
 24  6  2  0
 25 21  1  0
 25 22  1  0
M  END
>  <ID>  (1) 
conformer_0

$$$$
