
     RDKit          3D

 22 24  0  0  0  0  0  0  0  0999 V2000
  -11.4929   33.0364    0.3998 C   0  0  0  0  0  0  0  0  0  0  0  0
  -10.7929   32.2364    1.1998 N   0  0  0  0  0  2  0  0  0  0  0  0
  -12.0929   34.0364    0.6998 N   0  0  0  0  0  0  0  0  0  0  0  0
  -10.9929   32.7364    2.4998 C   0  0  0  0  0  0  0  0  0  0  0  0
  -11.1929   32.6364   -1.0002 N   0  0  0  0  0  0  0  0  0  0  0  0
  -10.0929   31.9364   -1.2002 C   0  0  0  0  0  0  0  0  0  0  0  0
   -9.8929   31.3364   -2.4002 C   0  0  0  0  0  0  0  0  0  0  0  0
  -10.5929   31.6364   -3.6002 C   0  0  0  0  0  0  0  0  0  0  0  0
   -8.5929   30.6364   -2.6002 C   0  0  0  0  0  0  0  0  0  0  0  0
   -8.4929   30.0364   -3.9002 C   0  0  0  0  0  0  0  0  0  0  0  0
  -12.4929   34.3364    1.9998 C   0  0  0  0  0  0  0  0  0  0  0  0
  -11.8929   33.5364    2.9998 C   0  0  0  0  0  0  0  0  0  0  0  0
   -7.4929   29.1364   -4.2002 C   0  0  0  0  0  0  0  0  0  0  0  0
   -9.7929   29.4364   -4.1002 C   0  0  0  0  0  0  0  0  0  0  0  0
  -10.6929   30.5364   -4.5002 N   0  0  0  0  0  0  0  0  0  0  0  0
   -7.0929   28.7364   -5.5002 N   0  0  0  0  0  0  0  0  0  0  0  0
   -5.7929   28.0364   -5.7002 C   0  0  0  0  0  0  0  0  0  0  0  0
   -5.9929   27.3364   -7.0002 C   0  0  0  0  0  0  0  0  0  0  0  0
   -4.7929   28.5364   -5.2002 O   0  0  0  0  0  0  0  0  0  0  0  0
   -7.3929   30.9364   -1.8002 C   0  0  0  0  0  0  0  0  0  0  0  0
   -6.0929   30.7364   -2.4002 C   0  0  0  0  0  0  0  0  0  0  0  0
   -6.0929   30.0364   -3.7002 C   0  0  0  0  0  0  0  0  0  0  0  0
  2  1  1  0
  3  1  2  0
  4  2  1  0
  5  1  1  0
  6  5  2  3
  7  6  1  0
  8  7  1  0
  9  7  1  0
 10  9  1  0
 11  3  1  0
 12  4  1  0
 12 11  1  0
 13 10  1  0
 14 10  1  0
 15  8  1  0
 15 14  1  0
 16 13  1  0
 17 16  1  0
 18 17  1  0
 19 17  2  0
 20  9  1  0
 21 20  2  0
 22 13  1  0
 22 21  1  0
M  END
>  <ID>  (1) 
conformer_0

$$$$
