
     RDKit          3D

 20 21  0  0  0  0  0  0  0  0999 V2000
   -7.4555   30.2455   -3.4889 C   0  0  0  0  0  0  0  0  0  0  0  0
   -6.1555   30.1455   -3.3889 C   0  0  0  0  0  0  0  0  0  0  0  0
   -8.3555   29.2455   -3.9889 C   0  0  0  0  0  0  0  0  0  0  0  0
   -9.7555   29.6455   -3.9889 N   0  0  0  0  0  0  0  0  0  0  0  0
   -9.8555   30.8455   -3.2889 C   0  0  0  0  0  0  0  0  0  0  0  0
   -9.3555   31.4455   -2.2889 C   0  0  0  0  0  0  0  0  0  0  0  0
  -10.0555   32.1455   -1.1889 C   0  0  0  0  0  0  0  0  0  0  0  0
   -7.5555   28.4455   -4.8889 C   0  0  0  0  0  0  0  0  0  0  0  0
   -5.4555   29.5455   -4.4889 C   0  0  0  0  0  0  0  0  0  0  0  0
   -4.0555   29.3455   -4.2889 O   0  0  0  0  0  0  0  0  0  0  0  0
   -3.6555   30.1455   -3.0889 C   0  0  0  0  0  0  0  0  0  0  0  0
   -6.1555   28.4455   -5.0889 C   0  0  0  0  0  0  0  0  0  0  0  0
  -10.6555   33.0455   -0.1889 C   0  0  0  0  0  0  0  0  0  0  0  0
  -10.8555   32.8455    1.2111 C   0  0  0  0  0  0  0  0  0  0  0  0
  -10.6555   31.7455    1.9111 N   0  0  0  0  0  0  0  0  0  0  0  0
  -11.7555   33.7455    1.7111 N   0  0  0  0  0  0  0  0  0  0  0  0
  -12.0555   34.5455    0.6111 N   0  0  0  0  0  0  0  0  0  0  0  0
  -12.7555   33.5455    1.0111 C   0  0  0  0  0  0  0  0  0  0  0  0
  -10.1555   31.8455    3.3111 C   0  0  0  0  0  0  0  0  0  0  0  0
  -11.1555   34.2455   -0.2889 C   0  0  0  0  0  0  0  0  0  0  0  0
  2  1  2  0
  3  1  1  0
  4  3  1  0
  5  4  1  0
  6  5  1  0
  7  6  2  0
  8  3  2  0
  9  2  1  0
 10  9  1  0
 11 10  1  0
 12  8  1  0
 12  9  2  0
 13  7  2  0
 14 13  1  0
 15 14  1  0
 16 14  1  0
 18 16  1  0
 18 17  1  0
 19 15  1  0
 20 13  1  0
 20 17  1  0
M  END
>  <ID>  (1) 
conformer_0

$$$$
