
     RDKit          3D

 21 23  0  0  0  0  0  0  0  0999 V2000
  -11.4929   33.0364    0.3998 C   0  0  0  0  0  0  0  0  0  0  0  0
  -10.7929   32.1364    1.1998 N   0  0  0  0  0  2  0  0  0  0  0  0
  -11.7929   34.1364    0.9998 N   0  0  0  0  0  0  0  0  0  0  0  0
  -10.8929   32.3364    2.4998 C   0  0  0  0  0  0  0  0  0  0  0  0
  -12.4929   34.1364    2.1998 C   0  0  0  0  0  0  0  0  0  0  0  0
  -11.3929   33.5364    3.0998 C   0  0  0  0  0  0  0  0  0  0  0  0
  -11.1929   32.8364   -1.0002 N   0  0  0  0  0  0  0  0  0  0  0  0
  -10.0929   32.0364   -1.2002 C   0  0  0  0  0  0  0  0  0  0  0  0
   -9.7929   31.4364   -2.5002 C   0  0  0  0  0  0  0  0  0  0  0  0
  -10.6929   31.5364   -3.6002 C   0  0  0  0  0  0  0  0  0  0  0  0
   -8.4929   30.7364   -2.7002 C   0  0  0  0  0  0  0  0  0  0  0  0
   -8.4929   30.0364   -4.0002 C   0  0  0  0  0  0  0  0  0  0  0  0
   -9.7929   29.4364   -4.3002 C   0  0  0  0  0  0  0  0  0  0  0  0
  -10.6929   30.4364   -4.5002 N   0  0  0  0  0  0  0  0  0  0  0  0
   -7.3929   29.1364   -4.2002 C   0  0  0  0  0  0  0  0  0  0  0  0
   -7.0929   28.2364   -5.3002 C   0  0  0  0  0  0  0  0  0  0  0  0
   -6.2929   29.8364   -3.5002 N   0  0  0  0  0  0  0  0  0  0  0  0
   -4.8929   30.0364   -3.8002 C   0  0  0  0  0  0  0  0  0  0  0  0
   -3.9929   30.6364   -2.8002 C   0  0  0  0  0  0  0  0  0  0  0  0
   -6.8929   30.8364   -2.6002 C   0  0  0  0  0  0  0  0  0  0  0  0
  -10.4929   34.4364    3.4998 O   0  0  0  0  0  0  0  0  0  0  0  0
  2  1  1  0
  3  1  2  0
  4  2  1  0
  5  3  1  0
  6  4  1  0
  6  5  1  0
  7  1  1  0
  8  7  2  3
  9  8  1  0
 10  9  1  0
 11  9  1  0
 12 11  1  0
 13 12  1  0
 14 10  2  0
 14 13  1  0
 15 12  1  0
 16 15  1  0
 17 15  1  0
 18 17  1  0
 19 18  1  0
 20 11  1  0
 20 17  1  0
 21  6  1  0
M  END
>  <ID>  (1) 
conformer_0

$$$$
