
     RDKit          3D

 23 24  0  0  0  0  0  0  0  0999 V2000
  -11.4929   33.0364    0.3998 C   0  0  0  0  0  0  0  0  0  0  0  0
  -10.7929   32.1364    1.1998 N   0  0  0  0  0  2  0  0  0  0  0  0
  -11.7929   34.1364    0.9998 N   0  0  0  0  0  0  0  0  0  0  0  0
  -10.8929   32.3364    2.4998 C   0  0  0  0  0  0  0  0  0  0  0  0
  -12.4929   34.1364    2.1998 C   0  0  0  0  0  0  0  0  0  0  0  0
  -11.3929   33.5364    3.0998 C   0  0  0  0  0  0  0  0  0  0  0  0
  -11.1929   32.8364   -1.0002 N   0  0  0  0  0  0  0  0  0  0  0  0
  -10.1929   32.0364   -1.3002 C   0  0  0  0  0  0  0  0  0  0  0  0
   -9.9929   31.3364   -2.5002 C   0  0  0  0  0  0  0  0  0  0  0  0
  -10.7929   31.7364   -3.7002 C   0  0  0  0  0  0  0  0  0  0  0  0
   -8.6929   30.7364   -2.8002 C   0  0  0  0  0  0  0  0  0  0  0  0
   -8.9929   29.8364   -3.9002 C   0  0  0  0  0  0  0  0  0  0  0  0
  -10.8929   31.1364   -4.8002 N   0  0  0  0  0  0  0  0  0  0  0  0
  -10.1929   29.8364   -4.6002 C   0  0  0  0  0  0  0  0  0  0  0  0
   -7.3929   31.0364   -2.4002 C   0  0  0  0  0  0  0  0  0  0  0  0
   -6.2929   30.5364   -3.1002 O   0  0  0  0  0  0  0  0  0  0  0  0
   -4.9929   30.6364   -2.7002 C   0  0  0  0  0  0  0  0  0  0  0  0
   -3.7929   30.3364   -3.4002 C   0  0  0  0  0  0  0  0  0  0  0  0
   -2.7929   29.6364   -2.6002 C   0  0  0  0  0  0  0  0  0  0  0  0
   -1.6929   29.0364   -3.1002 N   0  0  0  0  0  0  0  0  0  0  0  0
   -2.5929   30.1364   -1.3002 O   0  0  0  0  0  0  0  0  0  0  0  0
   -1.3929   29.2364   -4.5002 C   0  0  0  0  0  0  0  0  0  0  0  0
  -10.5929   34.4364    3.4998 O   0  0  0  0  0  0  0  0  0  0  0  0
  2  1  1  0
  3  1  2  0
  4  2  1  0
  5  3  1  0
  6  4  1  0
  6  5  1  0
  7  1  1  0
  8  7  1  0
  9  8  1  0
 10  9  1  0
 11  9  1  0
 12 11  1  0
 13 10  1  0
 14 12  1  0
 14 13  1  0
 15 11  2  3
 16 15  1  0
 17 16  1  0
 18 17  1  0
 19 18  1  0
 20 19  1  0
 21 19  2  0
 22 20  1  0
 23  6  2  0
M  END
>  <ID>  (1) 
conformer_0

$$$$
