
     RDKit          3D

  9  9  0  0  0  0  0  0  0  0999 V2000
  -12.9222   32.9083    0.0557 O   0  0  0  0  0  0  0  0  0  0  0  0
  -11.6222   32.9083    0.7557 C   0  0  0  0  0  0  0  0  0  0  0  0
  -11.6222   32.9083    2.1557 C   0  0  0  0  0  0  0  0  0  0  0  0
  -10.5222   32.2083    2.8557 C   0  0  0  0  0  0  0  0  0  0  0  0
  -10.5222   32.6083   -0.0443 C   0  0  0  0  0  0  0  0  0  0  0  0
  -10.8222   32.3083   -1.3443 O   0  0  0  0  0  0  0  0  0  0  0  0
  -10.0222   33.0083    3.9557 N   0  0  0  0  0  0  0  0  0  0  0  0
   -9.6222   31.5083    2.1557 C   0  0  0  0  0  0  0  0  0  0  0  0
   -9.5222   31.9083    0.7557 C   0  0  0  0  0  0  0  0  0  0  0  0
  2  1  1  0
  3  2  2  0
  4  3  1  0
  5  2  1  0
  6  5  1  0
  7  4  1  0
  8  4  2  0
  9  5  2  0
  9  8  1  0
M  END
>  <ID>  (1) 
conformer_0

$$$$
