
     RDKit          3D

 25 28  0  0  0  0  0  0  0  0999 V2000
  -11.4929   33.0364    0.3998 C   0  0  0  0  0  0  0  0  0  0  0  0
  -10.7929   32.2364    1.1998 N   0  0  0  0  0  2  0  0  0  0  0  0
  -12.0929   34.0364    0.6998 N   0  0  0  0  0  0  0  0  0  0  0  0
  -10.9929   32.7364    2.4998 C   0  0  0  0  0  0  0  0  0  0  0  0
  -11.1929   32.6364   -1.0002 N   0  0  0  0  0  0  0  0  0  0  0  0
  -10.0929   31.9364   -1.2002 C   0  0  0  0  0  0  0  0  0  0  0  0
   -9.8929   31.3364   -2.4002 C   0  0  0  0  0  0  0  0  0  0  0  0
  -10.5929   31.6364   -3.6002 C   0  0  0  0  0  0  0  0  0  0  0  0
   -8.5929   30.6364   -2.6002 C   0  0  0  0  0  0  0  0  0  0  0  0
   -8.4929   30.0364   -3.9002 C   0  0  0  0  0  0  0  0  0  0  0  0
  -12.4929   34.3364    1.9998 C   0  0  0  0  0  0  0  0  0  0  0  0
  -11.8929   33.5364    2.9998 C   0  0  0  0  0  0  0  0  0  0  0  0
   -7.4929   29.1364   -4.2002 C   0  0  0  0  0  0  0  0  0  0  0  0
   -9.7929   29.4364   -4.3002 C   0  0  0  0  0  0  0  0  0  0  0  0
  -10.5929   30.6364   -4.6002 N   0  0  0  0  0  0  0  0  0  0  0  0
   -6.1929   29.1364   -4.7002 N   0  0  0  0  0  0  0  0  0  0  0  0
   -5.2929   30.1364   -4.1002 C   0  0  0  0  0  0  0  0  0  0  0  0
   -5.6929   30.5364   -3.0002 O   0  0  0  0  0  0  0  0  0  0  0  0
   -3.8929   30.1364   -4.5002 C   0  0  0  0  0  0  0  0  0  0  0  0
   -2.8929   30.1364   -3.4002 C   0  0  0  0  0  0  0  0  0  0  0  0
   -1.6929   29.4364   -3.7002 C   0  0  0  0  0  0  0  0  0  0  0  0
   -1.7929   28.6364   -4.9002 C   0  0  0  0  0  0  0  0  0  0  0  0
   -2.6929   27.7364   -4.9002 O   0  0  0  0  0  0  0  0  0  0  0  0
   -2.6929   28.7364   -5.9002 C   0  0  0  0  0  0  0  0  0  0  0  0
   -2.9929   30.9364   -4.8002 O   0  0  0  0  0  0  0  0  0  0  0  0
  2  1  1  0
  3  1  2  0
  4  2  1  0
  5  1  1  0
  6  5  2  3
  7  6  1  0
  8  7  1  0
  9  7  1  0
 10  9  1  0
 11  3  1  0
 12  4  1  0
 12 11  1  0
 13 10  1  0
 14 10  1  0
 15  8  2  0
 15 14  1  0
 16 13  1  0
 17 16  1  0
 18 17  2  0
 19 17  1  0
 20 19  1  0
 21 20  1  0
 22 21  1  0
 23 22  1  0
 24 22  1  0
 24 23  1  0
 25 19  1  0
 25 20  1  0
M  END
>  <ID>  (1) 
conformer_0

$$$$
