
     RDKit          3D

 25 28  0  0  0  0  0  0  0  0999 V2000
  -11.4929   33.0364    0.3998 C   0  0  0  0  0  0  0  0  0  0  0  0
  -10.7929   32.1364    1.1998 N   0  0  0  0  0  0  0  0  0  0  0  0
  -11.7929   34.1364    0.9998 N   0  0  0  0  0  0  0  0  0  0  0  0
  -10.8929   32.3364    2.4998 C   0  0  0  0  0  0  0  0  0  0  0  0
  -12.4929   34.1364    2.1998 C   0  0  0  0  0  0  0  0  0  0  0  0
  -11.3929   33.5364    3.0998 C   0  0  0  0  0  0  0  0  0  0  0  0
  -11.1929   32.8364   -1.0002 N   0  0  0  0  0  0  0  0  0  0  0  0
  -10.0929   32.0364   -1.2002 C   0  0  0  0  0  0  0  0  0  0  0  0
   -9.7929   31.4364   -2.5002 C   0  0  0  0  0  0  0  0  0  0  0  0
  -10.6929   31.7364   -3.6002 C   0  0  0  0  0  0  0  0  0  0  0  0
   -8.5929   30.7364   -2.8002 C   0  0  0  0  0  0  0  0  0  0  0  0
   -8.6929   29.7364   -3.9002 C   0  0  0  0  0  0  0  0  0  0  0  0
  -10.7929   31.0364   -4.7002 N   0  0  0  0  0  0  0  0  0  0  0  0
  -10.0929   29.7364   -4.4002 C   0  0  0  0  0  0  0  0  0  0  0  0
   -7.2929   30.8364   -2.3002 C   0  0  0  0  0  0  0  0  0  0  0  0
   -7.4929   29.1364   -4.3002 C   0  0  0  0  0  0  0  0  0  0  0  0
   -6.1929   29.6364   -4.1002 C   0  0  0  0  0  0  0  0  0  0  0  0
   -5.9929   30.4364   -2.9002 C   0  0  0  0  0  0  0  0  0  0  0  0
  -10.2929   34.2364    3.4998 N   0  0  0  0  0  0  0  0  0  0  0  0
   -4.6929   30.8364   -2.6002 N   0  0  0  0  0  0  0  0  0  0  0  0
   -3.7929   31.3364   -1.9002 N   0  0  0  0  0  0  0  0  0  0  0  0
   -3.4929   30.5364   -2.8002 C   0  0  0  0  0  0  0  0  0  0  0  0
   -2.5929   29.5364   -2.8002 C   0  0  0  0  0  0  0  0  0  0  0  0
   -2.0929   28.8364   -3.6002 N   0  0  0  0  0  0  0  0  0  0  0  0
   -9.9929   33.3364   -1.0002 C   0  0  0  0  0  0  0  0  0  0  0  0
  2  1  2  0
  3  1  1  0
  4  2  1  0
  5  3  1  0
  6  4  1  0
  6  5  1  0
  7  1  1  0
  8  7  1  0
  9  8  1  0
 10  9  1  0
 11  9  1  0
 12 11  2  0
 13 10  1  0
 14 12  1  0
 14 13  1  0
 15 11  1  0
 16 12  1  0
 17 16  2  0
 18 15  2  0
 18 17  1  0
 19  6  1  0
 20 18  1  0
 22 20  1  0
 22 21  1  0
 23 22  1  0
 24 23  2  0
 25  7  1  0
 25  8  1  0
M  END
>  <ID>  (1) 
conformer_0

$$$$
