
     RDKit          3D

 15 16  0  0  0  0  0  0  0  0999 V2000
  -11.4929   33.0364    0.3998 C   0  0  0  0  0  0  0  0  0  0  0  0
  -10.7929   32.1364    1.1998 N   0  0  0  0  0  2  0  0  0  0  0  0
  -11.7929   34.1364    0.9998 N   0  0  0  0  0  0  0  0  0  0  0  0
  -10.8929   32.3364    2.4998 C   0  0  0  0  0  0  0  0  0  0  0  0
  -12.1929   34.2364    2.2998 C   0  0  0  0  0  0  0  0  0  0  0  0
  -11.2929   33.4364    3.0998 C   0  0  0  0  0  0  0  0  0  0  0  0
  -11.1929   32.9364   -1.0002 N   0  0  0  0  0  0  0  0  0  0  0  0
  -10.0929   32.0364   -1.3002 C   0  0  0  0  0  0  0  0  0  0  0  0
   -9.8929   31.4364   -2.4002 C   0  0  0  0  0  0  0  0  0  0  0  0
  -10.5929   31.3364   -3.6002 C   0  0  0  0  0  0  0  0  0  0  0  0
   -8.5929   30.7364   -2.5002 C   0  0  0  0  0  0  0  0  0  0  0  0
  -10.0929   30.6364   -4.7002 C   0  0  0  0  0  0  0  0  0  0  0  0
   -8.2929   29.7364   -3.4002 C   0  0  0  0  0  0  0  0  0  0  0  0
   -9.2929   29.3364   -4.4002 C   0  0  0  0  0  0  0  0  0  0  0  0
   -9.6929   28.1364   -4.9002 N   0  0  0  0  0  0  0  0  0  0  0  0
  2  1  1  0
  3  1  2  0
  4  2  1  0
  5  3  1  0
  6  4  1  0
  6  5  1  0
  7  1  1  0
  8  7  1  0
  9  8  1  0
 10  9  2  0
 11  9  1  0
 12 10  1  0
 13 11  2  0
 14 12  2  0
 14 13  1  0
 15 14  1  0
M  END
>  <ID>  (1) 
conformer_0

$$$$
