
     RDKit          3D

 20 22  0  0  0  0  0  0  0  0999 V2000
  -12.9222   32.9083    0.0557 O   0  0  0  0  0  0  0  0  0  0  0  0
  -11.6222   32.9083    0.7557 C   0  0  0  0  0  0  0  0  0  0  0  0
  -11.6222   32.9083    2.1557 C   0  0  0  0  0  0  0  0  0  0  0  0
  -10.5222   32.2083    2.8557 C   0  0  0  0  0  0  0  0  0  0  0  0
  -10.4222   32.7083   -0.0443 C   0  0  0  0  0  0  0  0  0  0  0  0
  -10.3222   32.0083   -1.1443 N   0  0  0  0  0  0  0  0  0  0  0  0
   -9.5222   31.8083   -2.1443 C   0  0  0  0  0  0  0  0  0  0  0  0
   -9.6222   30.8083   -3.1443 C   0  0  0  0  0  0  0  0  0  0  0  0
  -10.7222   31.1083   -3.8443 O   0  0  0  0  0  0  0  0  0  0  0  0
   -8.4222   30.1083   -3.6443 C   0  0  0  0  0  0  0  0  0  0  0  0
   -7.3222   30.6083   -2.8443 C   0  0  0  0  0  0  0  0  0  0  0  0
   -6.0222   30.3083   -3.2443 C   0  0  0  0  0  0  0  0  0  0  0  0
   -4.8222   30.2083   -3.1443 O   0  0  0  0  0  0  0  0  0  0  0  0
   -6.3222   29.6083   -4.4443 N   0  0  0  0  0  0  0  0  0  0  0  0
   -8.5222   28.7083   -4.0443 C   0  0  0  0  0  0  0  0  0  0  0  0
   -9.7222   28.3083   -4.6443 N   0  0  0  0  0  0  0  0  0  0  0  0
   -7.1222   28.4083   -4.6443 C   0  0  0  0  0  0  0  0  0  0  0  0
   -9.2222   32.5083    0.7557 C   0  0  0  0  0  0  0  0  0  0  0  0
   -9.4222   32.1083    2.1557 C   0  0  0  0  0  0  0  0  0  0  0  0
   -7.8222   31.6083   -1.8443 C   0  0  0  0  0  0  0  0  0  0  0  0
  2  1  1  0
  3  2  2  0
  4  3  1  0
  5  2  1  0
  6  5  1  0
  7  6  1  0
  8  7  1  0
  9  8  1  0
 10  8  1  0
 11 10  1  0
 12 11  1  0
 13 12  2  0
 14 12  1  0
 15 10  1  0
 16 15  1  0
 17 14  1  0
 17 15  1  0
 18  5  2  0
 19  4  2  0
 19 18  1  0
 20  7  1  0
 20 11  2  0
M  END
>  <ID>  (1) 
conformer_0

$$$$
