
     RDKit          3D

 17 17  0  0  0  0  0  0  0  0999 V2000
  -12.9222   32.9083    0.0557 O   0  0  0  0  0  0  0  0  0  0  0  0
  -11.6222   32.9083    0.7557 C   0  0  0  0  0  0  0  0  0  0  0  0
  -11.6222   32.9083    2.1557 C   0  0  0  0  0  0  0  0  0  0  0  0
  -10.6222   32.4083    2.9557 C   0  0  0  0  0  0  0  0  0  0  0  0
  -10.5222   32.5083   -0.0443 C   0  0  0  0  0  0  0  0  0  0  0  0
  -10.7222   31.9083   -1.3443 N   0  0  0  0  0  0  0  0  0  0  0  0
   -9.5222   31.7083   -2.1443 C   0  0  0  0  0  0  0  0  0  0  0  0
   -9.9222   30.8083   -3.1443 C   0  0  0  0  0  0  0  0  0  0  0  0
  -10.9222   31.3083   -4.0443 O   0  0  0  0  0  0  0  0  0  0  0  0
   -8.9222   30.0083   -3.8443 C   0  0  0  0  0  0  0  0  0  0  0  0
   -7.6222   30.1083   -3.1443 C   0  0  0  0  0  0  0  0  0  0  0  0
   -6.4222   29.9083   -3.9443 C   0  0  0  0  0  0  0  0  0  0  0  0
   -5.1222   30.2083   -3.5443 C   0  0  0  0  0  0  0  0  0  0  0  0
   -3.9222   29.7083   -4.1443 C   0  0  0  0  0  0  0  0  0  0  0  0
   -2.7222   29.6083   -3.3443 C   0  0  0  0  0  0  0  0  0  0  0  0
   -9.4222   32.1083    0.7557 C   0  0  0  0  0  0  0  0  0  0  0  0
   -9.6222   31.7083    2.1557 C   0  0  0  0  0  0  0  0  0  0  0  0
  2  1  1  0
  3  2  2  0
  4  3  1  0
  5  2  1  0
  6  5  1  0
  7  6  1  0
  8  7  1  0
  9  8  1  0
 10  8  1  0
 11 10  1  0
 12 11  1  0
 13 12  2  3
 14 13  1  0
 15 14  1  0
 16  5  2  0
 17  4  2  0
 17 16  1  0
M  END
>  <ID>  (1) 
conformer_0

$$$$
