
     RDKit          3D

 19 21  0  0  0  0  0  0  0  0999 V2000
  -12.9222   32.9083    0.0557 O   0  0  0  0  0  0  0  0  0  0  0  0
  -11.6222   32.9083    0.7557 C   0  0  0  0  0  0  0  0  0  0  0  0
  -11.6222   32.9083    2.1557 C   0  0  0  0  0  0  0  0  0  0  0  0
  -10.5222   32.2083    2.8557 C   0  0  0  0  0  0  0  0  0  0  0  0
  -10.5222   32.6083   -0.0443 C   0  0  0  0  0  0  0  0  0  0  0  0
  -11.0222   32.1083   -1.3443 O   0  0  0  0  0  0  0  0  0  0  0  0
  -10.0222   31.5083   -2.0443 C   0  0  0  0  0  0  0  0  0  0  0  0
  -10.3222   30.7083   -3.2443 C   0  0  0  0  0  0  0  0  0  0  0  0
   -9.3222   29.7083   -3.6443 C   0  0  0  0  0  0  0  0  0  0  0  0
   -9.3222   28.9083   -4.8443 C   0  0  0  0  0  0  0  0  0  0  0  0
   -8.0222   30.2083   -3.2443 C   0  0  0  0  0  0  0  0  0  0  0  0
  -10.0222   27.9083   -5.4443 N   0  0  0  0  0  0  0  0  0  0  0  0
   -7.0222   29.6083   -4.1443 C   0  0  0  0  0  0  0  0  0  0  0  0
   -7.9222   28.7083   -5.1443 C   0  0  0  0  0  0  0  0  0  0  0  0
   -9.4222   32.0083    0.6557 C   0  0  0  0  0  0  0  0  0  0  0  0
   -8.7222   32.0083   -1.7443 C   0  0  0  0  0  0  0  0  0  0  0  0
   -7.8222   31.1083   -2.3443 C   0  0  0  0  0  0  0  0  0  0  0  0
   -9.3222   32.2083    2.1557 C   0  0  0  0  0  0  0  0  0  0  0  0
   -9.9222   31.8083   -2.4443 C   0  0  0  0  0  0  0  0  0  0  0  0
  2  1  1  0
  3  2  2  0
  4  3  1  0
  5  2  1  0
  6  5  1  0
  7  6  1  0
  9  8  1  0
 10  9  2  0
 11  9  1  0
 12 10  1  0
 13 11  1  0
 14 10  1  0
 14 13  2  0
 15  5  2  0
 17 11  1  0
 17 16  1  0
 18  4  2  0
 18 15  1  0
 19  7  1  0
 19  8  1  0
 19 16  1  0
M  END
>  <ID>  (1) 
conformer_0

$$$$
