
     RDKit          3D

  9 10  0  0  0  0  0  0  0  0999 V2000
  -11.4929   33.0364    0.3998 C   0  0  0  0  0  0  0  0  0  0  0  0
  -10.7929   32.1364    1.1998 N   0  0  0  0  0  0  0  0  0  0  0  0
  -11.9929   34.1364    1.0998 N   0  0  0  0  0  4  0  0  0  0  0  0
  -10.6929   32.6364    2.4998 C   0  0  0  0  0  0  0  0  0  0  0  0
  -11.6929   33.8364    2.4998 C   0  0  0  0  0  0  0  0  0  0  0  0
   -9.9929   32.5364    3.5998 C   0  0  0  0  0  0  0  0  0  0  0  0
  -10.8929   34.2364    0.3998 C   0  0  0  0  0  0  0  0  0  0  0  0
  -12.6929   33.2364    1.9998 O   0  0  0  0  0  0  0  0  0  0  0  0
  -10.5929   33.6364    2.7998 C   0  0  0  0  0  0  0  0  0  0  0  0
  2  1  1  0
  3  1  1  0
  4  2  1  0
  5  3  1  0
  6  4  2  0
  7  1  1  0
  7  3  1  0
  8  5  1  0
  9  4  1  0
  9  5  1  0
M  END
>  <ID>  (1) 
conformer_0

$$$$
