
     RDKit          3D

 15 16  0  0  0  0  0  0  0  0999 V2000
  -11.4929   33.0364    0.3998 C   0  0  0  0  0  3  0  0  0  0  0  0
  -10.7929   32.1364    1.1998 N   0  0  0  0  0  0  0  0  0  0  0  0
  -11.7929   34.1364    0.9998 N   0  0  0  0  0  0  0  0  0  0  0  0
  -10.8929   32.3364    2.4998 C   0  0  0  0  0  0  0  0  0  0  0  0
  -12.4929   34.1364    2.1998 C   0  0  0  0  0  0  0  0  0  0  0  0
  -11.4929   33.4364    3.0998 C   0  0  0  0  0  0  0  0  0  0  0  0
  -10.8929   33.1364   -0.9002 N   0  0  0  0  0  0  0  0  0  0  0  0
  -10.2929   32.0364   -1.4002 C   0  0  0  0  0  0  0  0  0  0  0  0
   -9.8929   31.4364   -2.5002 C   0  0  0  0  0  0  0  0  0  0  0  0
   -8.4929   31.0364   -2.8002 C   0  0  0  0  0  0  0  0  0  0  0  0
   -8.3929   29.8364   -3.6002 C   0  0  0  0  0  0  0  0  0  0  0  0
   -9.6929   29.2364   -3.9002 C   0  0  0  0  0  0  0  0  0  0  0  0
  -11.5929   32.2364   -1.5002 N   0  0  0  0  0  0  0  0  0  0  0  0
   -9.6929   28.2364   -5.0002 N   0  0  0  0  0  0  0  0  0  0  0  0
  -10.2929   33.6364    2.7998 N   0  0  0  0  0  0  0  0  0  0  0  0
  2  1  1  0
  3  1  1  0
  4  2  2  0
  5  3  1  0
  6  4  1  0
  6  5  1  0
  7  1  1  0
  8  7  1  0
  9  8  1  0
 10  9  1  0
 11 10  1  0
 12 11  1  0
 13  8  1  0
 14 12  1  0
 15  4  1  0
 15  6  1  0
M  END
>  <ID>  (1) 
conformer_0

$$$$
