
     RDKit          3D

 11 11  0  0  0  0  0  0  0  0999 V2000
  -12.9222   32.9083    0.0557 O   0  0  0  0  0  0  0  0  0  0  0  0
  -11.6222   32.9083    0.7557 C   0  0  0  0  0  0  0  0  0  0  0  0
  -11.6222   32.9083    2.1557 C   0  0  0  0  0  0  0  0  0  0  0  0
  -10.6222   32.4083    2.9557 C   0  0  0  0  0  0  0  0  0  0  0  0
  -10.5222   32.5083   -0.0443 C   0  0  0  0  0  0  0  0  0  0  0  0
  -10.7222   32.2083   -1.3443 N   0  0  0  0  0  0  0  0  0  0  0  0
   -9.9222   31.6083   -2.1443 C   0  0  0  0  0  0  0  0  0  0  0  0
  -10.2222   31.2083   -3.5443 C   0  0  0  0  0  0  0  0  0  0  0  0
  -11.3222   31.9083   -4.0443 O   0  0  0  0  0  0  0  0  0  0  0  0
   -9.4222   32.1083    0.7557 C   0  0  0  0  0  0  0  0  0  0  0  0
   -9.4222   32.0083    2.2557 C   0  0  0  0  0  0  0  0  0  0  0  0
  2  1  1  0
  3  2  2  0
  4  3  1  0
  5  2  1  0
  6  5  1  0
  7  6  2  3
  8  7  1  0
  9  8  1  0
 10  5  2  0
 11  4  2  0
 11 10  1  0
M  END
>  <ID>  (1) 
conformer_0

$$$$
