
     RDKit          3D

  7  8  0  0  0  0  0  0  0  0999 V2000
  -11.4929   33.0364    0.3998 C   0  0  0  0  0  0  0  0  0  0  0  0
  -10.7929   32.1364    1.1998 N   0  0  0  0  0  0  0  0  0  0  0  0
  -11.9929   34.1364    1.0998 N   0  0  0  0  0  0  0  0  0  0  0  0
  -10.6929   32.6364    2.4998 C   0  0  0  0  0  0  0  0  0  0  0  0
  -11.6929   33.7364    2.5998 C   0  0  0  0  0  0  0  0  0  0  0  0
   -9.9929   32.0364    3.3998 C   0  0  0  0  0  0  0  0  0  0  0  0
  -10.8929   34.3364    0.4998 C   0  0  0  0  0  0  0  0  0  0  0  0
  2  1  1  0
  3  1  1  0
  4  2  1  0
  5  3  1  0
  5  4  1  0
  6  4  2  0
  7  1  1  0
  7  3  1  0
M  END
>  <ID>  (1) 
conformer_0

$$$$
