
     RDKit          3D

 14 14  0  0  0  0  0  0  0  0999 V2000
  -12.9222   32.9083    0.0557 O   0  0  0  0  0  0  0  0  0  0  0  0
  -11.6222   32.9083    0.7557 C   0  0  0  0  0  0  0  0  0  0  0  0
  -11.6222   32.9083    2.1557 C   0  0  0  0  0  0  0  0  0  0  0  0
  -10.6222   32.4083    2.9557 C   0  0  0  0  0  0  0  0  0  0  0  0
  -10.5222   32.5083   -0.0443 C   0  0  0  0  0  0  0  0  0  0  0  0
  -10.7222   31.9083   -1.3443 N   0  0  0  0  0  0  0  0  0  0  0  0
   -9.7222   31.8083   -2.2443 C   0  0  0  0  0  0  0  0  0  0  0  0
   -9.4222   30.6083   -3.0443 C   0  0  0  0  0  0  0  0  0  0  0  0
   -8.0222   30.3083   -3.2443 C   0  0  0  0  0  0  0  0  0  0  0  0
   -7.6222   29.2083   -4.1443 C   0  0  0  0  0  0  0  0  0  0  0  0
   -8.8222   28.9083   -4.9443 C   0  0  0  0  0  0  0  0  0  0  0  0
   -8.8222   32.9083   -1.8443 C   0  0  0  0  0  0  0  0  0  0  0  0
   -9.4222   32.1083    0.8557 C   0  0  0  0  0  0  0  0  0  0  0  0
   -9.5222   31.9083    2.2557 C   0  0  0  0  0  0  0  0  0  0  0  0
  2  1  1  0
  3  2  2  0
  4  3  1  0
  5  2  1  0
  6  5  1  0
  7  6  1  0
  8  7  1  0
  9  8  2  3
 10  9  1  0
 11 10  1  0
 12  7  1  0
 13  5  2  0
 14  4  2  0
 14 13  1  0
M  END
>  <ID>  (1) 
conformer_0

$$$$
