
     RDKit          3D

 25 26  0  0  0  0  0  0  0  0999 V2000
  -11.4929   33.0364    0.3998 C   0  0  0  0  0  0  0  0  0  0  0  0
  -10.7929   32.1364    1.1998 N   0  0  0  0  0  2  0  0  0  0  0  0
  -11.7929   34.1364    0.9998 N   0  0  0  0  0  0  0  0  0  0  0  0
  -10.8929   32.3364    2.4998 C   0  0  0  0  0  0  0  0  0  0  0  0
  -12.4929   34.1364    2.1998 C   0  0  0  0  0  0  0  0  0  0  0  0
  -11.3929   33.5364    3.0998 C   0  0  0  0  0  0  0  0  0  0  0  0
  -11.1929   32.8364   -1.0002 N   0  0  0  0  0  0  0  0  0  0  0  0
  -10.1929   31.9364   -1.2002 C   0  0  0  0  0  0  0  0  0  0  0  0
   -9.7929   31.4364   -2.4002 C   0  0  0  0  0  0  0  0  0  0  0  0
  -10.5929   31.7364   -3.6002 C   0  0  0  0  0  0  0  0  0  0  0  0
   -8.4929   30.8364   -2.8002 C   0  0  0  0  0  0  0  0  0  0  0  0
   -8.7929   30.0364   -4.0002 C   0  0  0  0  0  0  0  0  0  0  0  0
  -10.0929   30.7364   -4.6002 N   0  0  0  0  0  0  0  0  0  0  0  0
   -7.1929   31.0364   -2.4002 C   0  0  0  0  0  0  0  0  0  0  0  0
   -5.9929   30.7364   -3.1002 O   0  0  0  0  0  0  0  0  0  0  0  0
   -4.6929   30.8364   -2.6002 C   0  0  0  0  0  0  0  0  0  0  0  0
   -3.5929   30.0364   -3.1002 C   0  0  0  0  0  0  0  0  0  0  0  0
   -2.5929   29.8364   -2.2002 C   0  0  0  0  0  0  0  0  0  0  0  0
   -4.0929   31.7364   -1.6002 N   0  0  0  0  0  0  0  0  0  0  0  0
   -1.4929   29.3364   -2.9002 N   0  0  0  0  0  0  0  0  0  0  0  0
   -2.3929   30.2364   -1.0002 O   0  0  0  0  0  0  0  0  0  0  0  0
   -4.1929   32.2364   -0.4002 N   0  0  0  0  0  0  0  0  0  0  0  0
   -5.3929   32.1364   -1.0002 C   0  0  0  0  0  0  0  0  0  0  0  0
  -10.5929   34.5364    3.4998 O   0  0  0  0  0  0  0  0  0  0  0  0
   -9.6929   33.7364    4.2998 C   0  0  0  0  0  0  0  0  0  0  0  0
  2  1  1  0
  3  1  2  0
  4  2  1  0
  5  3  1  0
  6  4  1  0
  6  5  1  0
  7  1  1  0
  8  7  2  3
  9  8  1  0
 10  9  1  0
 11  9  1  0
 12 11  1  0
 13 10  1  0
 13 12  1  0
 14 11  1  0
 15 14  1  0
 16 15  1  0
 17 16  1  0
 18 17  1  0
 19 16  1  0
 20 18  1  0
 21 18  2  0
 23 19  1  0
 23 22  1  0
 24  6  1  0
 25 24  1  0
M  END
>  <ID>  (1) 
conformer_0

$$$$
