
     RDKit          3D

 23 27  0  0  0  0  0  0  0  0999 V2000
  -11.4929   33.0364    0.3998 C   0  0  0  0  0  0  0  0  0  0  0  0
  -10.7929   32.2364    1.1998 N   0  0  0  0  0  2  0  0  0  0  0  0
  -12.0929   34.0364    0.6998 N   0  0  0  0  0  0  0  0  0  0  0  0
  -10.9929   32.7364    2.4998 C   0  0  0  0  0  0  0  0  0  0  0  0
  -11.1929   32.6364   -1.0002 N   0  0  0  0  0  0  0  0  0  0  0  0
  -10.0929   31.9364   -1.2002 C   0  0  0  0  0  0  0  0  0  0  0  0
   -9.8929   31.3364   -2.4002 C   0  0  0  0  0  0  0  0  0  0  0  0
  -10.5929   31.6364   -3.6002 C   0  0  0  0  0  0  0  0  0  0  0  0
   -8.5929   30.6364   -2.6002 C   0  0  0  0  0  0  0  0  0  0  0  0
   -8.5929   29.9364   -3.9002 C   0  0  0  0  0  0  0  0  0  0  0  0
  -10.3929   31.2364   -4.8002 N   0  0  0  0  0  0  0  0  0  0  0  0
  -12.4929   34.4364    1.9998 C   0  0  0  0  0  0  0  0  0  0  0  0
  -11.6929   33.7364    2.9998 C   0  0  0  0  0  0  0  0  0  0  0  0
   -7.3929   29.2364   -4.2002 C   0  0  0  0  0  0  0  0  0  0  0  0
   -9.8929   29.3364   -3.9002 N   0  0  0  0  0  0  0  0  0  0  0  0
   -6.2929   30.0364   -3.6002 C   0  0  0  0  0  0  0  0  0  0  0  0
   -7.4929   31.0364   -1.7002 C   0  0  0  0  0  0  0  0  0  0  0  0
   -6.1929   30.8364   -2.5002 C   0  0  0  0  0  0  0  0  0  0  0  0
   -9.5929   30.1364   -4.7002 C   0  0  0  0  0  0  0  0  0  0  0  0
   -4.9929   29.7364   -4.1002 O   0  0  0  0  0  0  0  0  0  0  0  0
   -3.7929   30.0364   -3.3002 C   0  0  0  0  0  0  0  0  0  0  0  0
   -3.7929   31.1364   -2.3002 C   0  0  0  0  0  0  0  0  0  0  0  0
   -5.0929   31.4364   -2.0002 O   0  0  0  0  0  0  0  0  0  0  0  0
  2  1  1  0
  3  1  2  0
  4  2  1  0
  5  1  1  0
  6  5  2  3
  7  6  1  0
  8  7  2  0
  9  7  1  0
 10  9  1  0
 11  8  1  0
 12  3  1  0
 13  4  2  0
 13 12  1  0
 14 10  1  0
 15 10  1  0
 16 14  1  0
 17  9  1  0
 18 16  2  0
 18 17  1  0
 19 10  1  0
 19 11  1  0
 19 15  1  0
 20 16  1  0
 21 20  1  0
 22 21  1  0
 23 18  1  0
 23 22  1  0
M  END
>  <ID>  (1) 
conformer_0

$$$$
