
     RDKit          3D

 16 17  0  0  0  0  0  0  0  0999 V2000
  -11.4929   33.0364    0.3998 C   0  0  0  0  0  0  0  0  0  0  0  0
  -10.7929   32.1364    1.1998 N   0  0  0  0  0  0  0  0  0  0  0  0
  -11.7929   34.1364    0.9998 N   0  0  0  0  0  0  0  0  0  0  0  0
  -10.8929   32.3364    2.4998 C   0  0  0  0  0  0  0  0  0  0  0  0
  -12.1929   34.2364    2.2998 C   0  0  0  0  0  0  0  0  0  0  0  0
  -11.2929   33.4364    3.0998 C   0  0  0  0  0  0  0  0  0  0  0  0
  -11.0929   33.0364   -0.9002 N   0  0  0  0  0  0  0  0  0  0  0  0
  -10.0929   32.1364   -1.2002 C   0  0  0  0  0  0  0  0  0  0  0  0
   -9.8929   31.5364   -2.4002 C   0  0  0  0  0  0  0  0  0  0  0  0
   -9.9929   30.6364   -3.4002 C   0  0  0  0  0  0  0  0  0  0  0  0
  -10.7929   31.0364   -4.6002 N   0  0  0  0  0  0  0  0  0  0  0  0
   -8.7929   29.9364   -3.9002 C   0  0  0  0  0  0  0  0  0  0  0  0
   -8.7929   29.5364   -5.3002 C   0  0  0  0  0  0  0  0  0  0  0  0
   -7.9929   28.4364   -5.8002 C   0  0  0  0  0  0  0  0  0  0  0  0
   -8.6929   27.3364   -6.5002 N   0  0  0  0  0  0  0  0  0  0  0  0
   -9.7929   33.4364   -0.8002 C   0  0  0  0  0  0  0  0  0  0  0  0
  2  1  2  0
  3  1  1  0
  4  2  1  0
  5  3  1  0
  6  4  1  0
  6  5  1  0
  7  1  1  0
  8  7  1  0
  9  8  1  0
 10  9  1  0
 11 10  1  0
 12 10  1  0
 13 12  1  0
 14 13  1  0
 15 14  1  0
 16  7  1  0
 16  8  1  0
M  END
>  <ID>  (1) 
conformer_0

$$$$
