
     RDKit          3D

  8  8  0  0  0  0  0  0  0  0999 V2000
  -13.0201   33.0318    0.2539 O   0  0  0  0  0  0  0  0  0  0  0  0
  -11.7201   32.9318    0.9539 C   0  0  0  0  0  0  0  0  0  0  0  0
  -11.5201   33.0318    2.2539 C   0  0  0  0  0  0  0  0  0  0  0  0
  -10.5201   32.2318    2.9539 C   0  0  0  0  0  0  0  0  0  0  0  0
  -10.6201   32.7318    0.0539 C   0  0  0  0  0  0  0  0  0  0  0  0
  -11.0201   32.6318   -1.3461 O   0  0  0  0  0  0  0  0  0  0  0  0
   -9.5201   32.0318    0.6539 C   0  0  0  0  0  0  0  0  0  0  0  0
   -9.5201   31.7318    2.0539 C   0  0  0  0  0  0  0  0  0  0  0  0
  2  1  1  0
  3  2  2  0
  4  3  1  0
  5  2  1  0
  6  5  1  0
  7  5  2  0
  8  4  2  0
  8  7  1  0
M  END
>  <ID>  (1) 
conformer_0

$$$$
