
     RDKit          3D

 21 23  0  0  0  0  0  0  0  0999 V2000
  -12.6744   33.1136    0.5029 O   0  0  0  0  0  0  0  0  0  0  0  0
  -11.2744   32.9136    0.7029 C   0  0  0  0  0  0  0  0  0  0  0  0
  -10.9744   32.4136    2.0029 C   0  0  0  0  0  0  0  0  0  0  0  0
  -10.5744   32.7136   -0.4971 C   0  0  0  0  0  0  0  0  0  0  0  0
   -9.8744   31.8136   -1.2971 C   0  0  0  0  0  0  0  0  0  0  0  0
  -10.0744   31.5136   -2.5971 C   0  0  0  0  0  0  0  0  0  0  0  0
   -9.8744   30.4136   -3.2971 C   0  0  0  0  0  0  0  0  0  0  0  0
  -10.1744   30.2136   -4.6971 C   0  0  0  0  0  0  0  0  0  0  0  0
   -9.6744   28.9136   -5.1971 C   0  0  0  0  0  0  0  0  0  0  0  0
   -8.3744   28.9136   -4.4971 C   0  0  0  0  0  0  0  0  0  0  0  0
   -7.7744   30.1136   -3.8971 C   0  0  0  0  0  0  0  0  0  0  0  0
   -6.3744   30.1136   -3.7971 C   0  0  0  0  0  0  0  0  0  0  0  0
   -5.6744   30.6136   -2.5971 C   0  0  0  0  0  0  0  0  0  0  0  0
   -4.2744   30.8136   -2.6971 C   0  0  0  0  0  0  0  0  0  0  0  0
   -3.7744   31.5136   -1.4971 N   0  0  0  0  0  0  0  0  0  0  0  0
  -10.0744   32.3136    2.9029 C   0  0  0  0  0  0  0  0  0  0  0  0
   -9.7744   33.3136    3.9029 C   0  0  0  0  0  0  0  0  0  0  0  0
  -10.1744   34.5136    3.7029 C   0  0  0  0  0  0  0  0  0  0  0  0
   -8.5744   30.4136   -2.7971 O   0  0  0  0  0  0  0  0  0  0  0  0
  -11.3744   34.6136    3.0029 C   0  0  0  0  0  0  0  0  0  0  0  0
  -11.1744   33.9136    1.8029 C   0  0  0  0  0  0  0  0  0  0  0  0
  2  1  1  0
  3  2  1  0
  4  2  1  0
  5  4  1  0
  6  5  1  0
  7  6  1  0
  8  7  1  0
  9  8  1  0
 10  9  1  0
 11 10  1  0
 12 11  1  0
 13 12  2  3
 14 13  1  0
 15 14  1  0
 16  3  2  0
 17 16  1  0
 18 17  2  0
 19  7  1  0
 19 11  1  0
 20 18  1  0
 21  2  1  0
 21  3  1  0
 21 20  2  0
M  END
>  <ID>  (1) 
conformer_0

$$$$
