
     RDKit          3D

 11 10  0  0  0  0  0  0  0  0999 V2000
   -5.8167    2.2212  -32.1741 O   0  0  0  0  0  0  0  0  0  0  0  0
   -7.1131    2.6507  -32.3696 P   0  0  0  0  0  0  0  0  0  0  0  0
   -8.0901    1.7264  -32.3705 O   0  0  0  0  0  0  0  0  0  0  0  0
   -7.2996    3.6476  -31.0138 O   0  0  0  0  0  0  0  0  0  0  0  0
   -8.5721    3.7287  -30.3945 C   0  0  0  0  0  0  0  0  0  0  0  0
   -8.7242    4.4962  -29.2208 C   0  0  0  0  0  0  0  0  0  0  0  0
   -9.8428    4.3616  -28.4662 C   0  0  0  0  0  0  0  0  0  0  0  0
   -9.9818    5.2232  -27.3585 O   0  0  0  0  0  0  0  0  0  0  0  0
  -10.6028    3.3577  -28.5815 O   0  0  0  0  0  0  0  0  0  0  0  0
   -7.1642    3.6175  -33.5015 O   0  0  0  0  0  0  0  0  0  0  0  0
   -8.2215    5.9145  -29.2810 N   0  0  0  0  0  0  0  0  0  0  0  0
  1  2  1  0
  2  3  2  0
  2  4  1  0
  4  5  1  0
  5  6  1  0
  6  7  1  0
  7  8  2  0
  7  9  1  0
  2 10  1  0
  6 11  1  0
M  END
>  <ID>  (1) 
conformer_0

$$$$
