
     RDKit          3D

 12 12  0  0  0  0  0  0  0  0999 V2000
   -6.6265    3.7414  -30.1777 O   0  0  0  0  0  0  0  0  0  0  0  0
   -7.4127    3.4623  -31.1993 C   0  0  0  0  0  0  0  0  0  0  0  0
   -8.6104    3.9419  -31.1831 C   0  0  0  0  0  0  0  0  0  0  0  0
   -6.9717    4.8766  -29.4564 C   0  0  0  0  0  0  0  0  0  0  0  0
   -8.4142    4.9806  -29.4653 C   0  0  0  0  0  0  0  0  0  0  0  0
   -9.1154    4.6039  -30.4246 N   0  0  0  0  0  0  0  0  0  0  0  0
   -8.8742    5.6814  -28.2679 C   0  0  0  0  0  0  0  0  0  0  0  0
   -9.9880    5.1320  -27.6880 O   0  0  0  0  0  0  0  0  0  0  0  0
   -8.3506    6.6195  -27.6509 O   0  0  0  0  0  0  0  0  0  0  0  0
   -6.8612    2.5779  -32.2722 C   0  0  0  0  0  0  0  0  0  0  0  0
   -6.1030    1.6960  -31.9664 O   0  0  0  0  0  0  0  0  0  0  0  0
   -7.4437    2.6468  -33.3312 O   0  0  0  0  0  0  0  0  0  0  0  0
  1  2  1  0
  2  3  2  0
  1  4  1  0
  4  5  1  0
  3  6  1  0
  5  6  2  0
  5  7  1  0
  7  8  1  0
  7  9  2  0
  2 10  1  0
 10 11  2  0
 10 12  1  0
M  END
>  <ID>  (1) 
conformer_0

$$$$
