
     RDKit          3D

 11 12  0  0  0  0  0  0  0  0999 V2000
   -6.6265    3.7414  -30.1777 O   0  0  0  0  0  0  0  0  0  0  0  0
   -7.0412    3.1362  -31.3513 C   0  0  0  0  0  0  0  0  0  0  0  0
   -7.6695    4.1107  -29.3049 C   0  0  0  0  0  0  0  0  0  0  0  0
   -7.5878    5.2533  -28.6644 C   0  0  0  0  0  0  0  0  0  0  0  0
   -8.2817    3.4880  -31.8238 C   0  0  0  0  0  0  0  0  0  0  0  0
   -9.2873    4.0141  -31.0777 C   0  0  0  0  0  0  0  0  0  0  0  0
   -9.0314    4.1208  -29.6698 C   0  0  0  0  0  0  0  0  0  0  0  0
   -8.6364    5.7695  -27.9745 C   0  0  0  0  0  0  0  0  0  0  0  0
   -9.7563    3.2101  -28.9395 C   0  0  0  0  0  0  0  0  0  0  0  0
   -9.6492    5.3940  -28.9967 N   0  0  0  0  0  0  0  0  0  0  0  0
   -6.0787    2.5045  -32.0811 O   0  0  0  0  0  0  0  0  0  0  0  0
  1  2  1  0
  1  3  1  0
  3  4  1  0
  2  5  2  0
  5  6  1  0
  3  7  1  0
  6  7  1  0
  4  8  1  0
  7  9  1  0
  7 10  1  0
  8 10  1  0
  2 11  1  0
M  END
>  <ID>  (1) 
conformer_0

$$$$
