
     RDKit          3D

 11 12  0  0  0  0  0  0  0  0999 V2000
   -6.6265    3.7414  -30.1777 O   0  0  0  0  0  0  0  0  0  0  0  0
   -7.0412    3.1362  -31.3513 C   0  0  0  0  0  0  0  0  0  0  0  0
   -7.6695    4.1107  -29.3049 C   0  0  0  0  0  0  0  0  0  0  0  0
   -7.5878    5.2533  -28.6644 C   0  0  0  0  0  0  0  0  0  0  0  0
   -8.2817    3.4880  -31.8238 C   0  0  0  0  0  0  0  0  0  0  0  0
   -8.9938    4.1120  -30.0892 C   0  0  0  0  0  0  0  0  0  0  0  0
   -8.6848    5.7618  -27.9862 C   0  0  0  0  0  0  0  0  0  0  0  0
   -9.9038    5.1289  -28.4503 N   0  0  0  0  0  0  0  0  0  0  0  0
   -6.1185    2.4861  -32.1944 O   0  0  0  0  0  0  0  0  0  0  0  0
   -9.8580    4.1346  -29.1830 C   0  0  0  0  0  0  0  0  0  0  0  0
  -10.7688    3.2325  -29.1656 O   0  0  0  0  0  0  0  0  0  0  0  0
  1  2  1  0
  1  3  1  0
  3  4  1  0
  2  5  2  0
  3  6  1  0
  5  6  1  0
  4  7  1  0
  7  8  1  0
  2  9  1  0
  6 10  1  0
  8 10  1  0
 10 11  2  0
M  END
>  <ID>  (1) 
conformer_0

$$$$
