
     RDKit          3D

 11 11  0  0  0  0  0  0  0  0999 V2000
   -6.6924    3.8495  -30.2856 O   0  0  0  0  0  0  0  0  0  0  0  0
   -7.0918    3.1227  -31.4761 P   0  0  0  0  0  0  0  0  0  0  0  0
   -7.4621    4.6021  -29.6478 C   0  0  0  0  0  0  0  0  0  0  0  0
   -7.5960    4.0298  -32.4766 O   0  0  0  0  0  0  0  0  0  0  0  0
   -7.3391    5.2554  -28.4936 C   0  0  0  0  0  0  0  0  0  0  0  0
   -8.8874    4.5654  -29.9948 C   0  0  0  0  0  0  0  0  0  0  0  0
   -8.2251    5.9497  -27.7875 C   0  0  0  0  0  0  0  0  0  0  0  0
   -9.5605    5.8962  -28.1705 N   0  0  0  0  0  0  0  0  0  0  0  0
   -9.8845    5.2053  -29.2193 C   0  0  0  0  0  0  0  0  0  0  0  0
   -8.1417    2.1061  -31.0627 O   0  0  0  0  0  0  0  0  0  0  0  0
   -5.9112    2.1907  -32.0470 O   0  0  0  0  0  0  0  0  0  0  0  0
  1  2  1  0
  1  3  1  0
  2  4  2  0
  3  5  1  0
  3  6  2  0
  5  7  2  0
  7  8  1  0
  6  9  1  0
  8  9  2  0
  2 10  1  0
  2 11  1  0
M  END
>  <ID>  (1) 
conformer_0

$$$$
