
     RDKit          3D

 12 12  0  0  0  0  0  0  0  0999 V2000
  -10.6542    2.9520  -29.5336 O   0  0  0  0  0  0  0  0  0  0  0  0
  -10.1121    4.0849  -29.1332 C   0  0  0  0  0  0  0  0  0  0  0  0
   -8.8041    4.4141  -29.6764 C   0  0  0  0  0  0  0  0  0  0  0  0
   -8.1753    3.4814  -30.6494 C   0  0  0  0  0  0  0  0  0  0  0  0
  -10.6865    4.9935  -28.4550 N   0  0  0  0  0  0  0  0  0  0  0  0
   -9.8564    5.5580  -27.3499 C   0  0  0  0  0  0  0  0  0  0  0  0
   -7.9417    5.1944  -28.9153 C   0  0  0  0  0  0  0  0  0  0  0  0
   -6.8581    3.2415  -30.7193 C   0  0  0  0  0  0  0  0  0  0  0  0
   -8.5218    6.0468  -27.8773 C   0  0  0  0  0  0  0  0  0  0  0  0
   -6.5107    2.4572  -31.9798 C   0  0  0  0  0  0  0  0  0  0  0  0
   -7.3074    2.6772  -32.8894 O   0  0  0  0  0  0  0  0  0  0  0  0
   -5.4931    1.8985  -31.9796 O   0  0  0  0  0  0  0  0  0  0  0  0
  1  2  2  0
  2  3  1  0
  3  4  1  0
  2  5  1  0
  5  6  1  0
  3  7  2  0
  4  8  1  0
  6  9  1  0
  7  9  1  0
  8 10  1  0
 10 11  2  0
 10 12  1  0
M  END
>  <ID>  (1) 
conformer_0

$$$$
