
     RDKit          3D

 11 10  0  0  0  0  0  0  0  0999 V2000
   -5.8067    2.3511  -31.3870 O   0  0  0  0  0  0  0  0  0  0  0  0
   -7.1581    2.9057  -31.5157 P   0  0  0  0  0  0  0  0  0  0  0  0
   -7.5817    3.8688  -30.5255 O   0  0  0  0  0  0  0  0  0  0  0  0
   -8.4998    4.7381  -30.5233 C   0  0  0  0  0  0  0  0  0  0  0  0
   -8.8954    5.2478  -29.2010 C   0  0  0  0  0  0  0  0  0  0  0  0
   -9.7424    4.2713  -28.4854 C   0  0  0  0  0  0  0  0  0  0  0  0
  -10.1687    4.5798  -27.3264 O   0  0  0  0  0  0  0  0  0  0  0  0
   -8.2091    1.8204  -31.5547 O   0  0  0  0  0  0  0  0  0  0  0  0
   -7.7672    5.5645  -28.2861 C   0  0  0  0  0  0  0  0  0  0  0  0
  -10.3135    3.3552  -29.2003 O   0  0  0  0  0  0  0  0  0  0  0  0
   -7.2384    3.7336  -32.8523 O   0  0  0  0  0  0  0  0  0  0  0  0
  1  2  1  0
  2  3  1  0
  3  4  1  0
  4  5  1  0
  5  6  1  0
  6  7  2  0
  2  8  2  0
  5  9  1  0
  6 10  1  0
  2 11  1  0
M  END
>  <ID>  (1) 
conformer_0

$$$$
