
     RDKit          3D

 12 13  0  0  0  0  0  0  0  0999 V2000
  -10.7206    3.3766  -29.3973 C   0  0  0  0  0  0  0  0  0  0  0  0
  -10.3356    3.9443  -28.3478 C   0  0  0  0  0  0  0  0  0  0  0  0
   -9.8921    3.4397  -30.5087 C   0  0  0  0  0  0  0  0  0  0  0  0
  -10.1521    2.6980  -31.7219 C   0  0  0  0  0  0  0  0  0  0  0  0
   -8.5956    4.0859  -30.4081 C   0  0  0  0  0  0  0  0  0  0  0  0
   -7.6740    4.0483  -31.5671 C   0  0  0  0  0  0  0  0  0  0  0  0
   -7.6989    2.8397  -32.3014 C   0  0  0  0  0  0  0  0  0  0  0  0
   -9.1720    4.8481  -28.2600 C   0  0  0  0  0  0  0  0  0  0  0  0
   -8.3319    4.8617  -29.2784 C   0  0  0  0  0  0  0  0  0  0  0  0
   -6.5828    2.4279  -32.7133 O   0  0  0  0  0  0  0  0  0  0  0  0
   -7.0701    5.7113  -29.1578 O   0  0  0  0  0  0  0  0  0  0  0  0
   -9.0888    2.2691  -32.4994 C   0  0  0  0  0  0  0  0  0  0  0  0
  1  2  2  0
  1  3  1  0
  3  4  1  0
  3  5  2  0
  5  6  1  0
  6  7  1  0
  2  8  1  0
  5  9  1  0
  8  9  2  0
  7 10  2  0
  9 11  1  0
  4 12  2  0
  7 12  1  0
M  END
>  <ID>  (1) 
conformer_0

$$$$
