
     RDKit          3D

 12 12  0  0  0  0  0  0  0  0999 V2000
   -7.2138    3.3942  -33.3249 O   0  0  0  0  0  0  0  0  0  0  0  0
   -7.5941    2.9931  -32.0281 P   0  0  0  0  0  0  0  0  0  0  0  0
   -7.7916    4.3099  -31.2738 O   0  0  0  0  0  0  0  0  0  0  0  0
   -8.8010    4.3668  -30.1666 C   0  0  0  0  0  0  0  0  0  0  0  0
   -8.3992    5.1496  -29.1019 C   0  0  0  0  0  0  0  0  0  0  0  0
   -9.2532    5.1828  -27.9641 C   0  0  0  0  0  0  0  0  0  0  0  0
   -6.4258    2.2692  -31.2417 O   0  0  0  0  0  0  0  0  0  0  0  0
   -8.7217    2.0481  -31.9459 O   0  0  0  0  0  0  0  0  0  0  0  0
   -9.9253    3.7983  -30.5394 C   0  0  0  0  0  0  0  0  0  0  0  0
  -10.9051    3.9099  -29.3593 C   0  0  0  0  0  0  0  0  0  0  0  0
   -6.9898    5.7436  -28.8922 C   0  0  0  0  0  0  0  0  0  0  0  0
  -10.5491    4.6598  -28.0575 C   0  0  0  0  0  0  0  0  0  0  0  0
  1  2  1  0
  2  3  1  0
  3  4  1  0
  4  5  1  0
  5  6  2  0
  2  7  2  0
  2  8  1  0
  4  9  2  0
  9 10  1  0
  5 11  1  0
  6 12  1  0
 10 12  2  0
M  END
>  <ID>  (1) 
conformer_0

$$$$
