
     RDKit          3D

 11 10  0  0  0  0  0  0  0  0999 V2000
   -7.2138    3.3942  -33.3249 O   0  0  0  0  0  0  0  0  0  0  0  0
   -7.5941    2.9931  -32.0281 P   0  0  0  0  0  0  0  0  0  0  0  0
   -7.7916    4.3099  -31.2738 O   0  0  0  0  0  0  0  0  0  0  0  0
   -8.8010    4.3668  -30.1666 C   0  0  0  0  0  0  0  0  0  0  0  0
   -8.3992    5.1496  -29.1019 C   0  0  0  0  0  0  0  0  0  0  0  0
   -6.3195    2.3993  -31.2150 O   0  0  0  0  0  0  0  0  0  0  0  0
   -8.6178    1.9578  -31.8822 O   0  0  0  0  0  0  0  0  0  0  0  0
   -7.2954    5.9404  -29.1970 O   0  0  0  0  0  0  0  0  0  0  0  0
  -10.1206    4.1582  -30.4059 C   0  0  0  0  0  0  0  0  0  0  0  0
  -10.6921    2.9169  -30.1660 O   0  0  0  0  0  0  0  0  0  0  0  0
   -9.0003    5.1227  -27.9583 C   0  0  0  0  0  0  0  0  0  0  0  0
  1  2  1  0
  2  3  1  0
  3  4  1  0
  4  5  1  0
  2  6  1  0
  2  7  2  0
  5  8  1  0
  4  9  1  0
  9 10  1  0
  5 11  2  0
M  END
>  <ID>  (1) 
conformer_0

$$$$
