
     RDKit          3D

 11 12  0  0  0  0  0  0  0  0999 V2000
   -7.6618    5.8402  -28.6760 N   0  0  0  0  0  0  0  0  0  0  0  0
   -8.1863    4.8799  -29.3852 C   0  0  0  0  0  0  0  0  0  0  0  0
   -8.8748    4.0064  -28.7586 C   0  0  0  0  0  0  0  0  0  0  0  0
   -8.9330    4.2740  -27.3689 C   0  0  0  0  0  0  0  0  0  0  0  0
   -9.3729    2.8541  -29.4121 C   0  0  0  0  0  0  0  0  0  0  0  0
   -7.7361    4.9104  -30.7678 N   0  0  0  0  0  0  0  0  0  0  0  0
   -7.8637    3.7689  -31.4913 C   0  0  0  0  0  0  0  0  0  0  0  0
   -7.3742    3.4280  -32.5399 N   0  0  0  0  0  0  0  0  0  0  0  0
   -6.6281    2.3716  -32.7278 O   0  0  0  0  0  0  0  0  0  0  0  0
   -8.1675    5.6073  -27.3215 N   0  0  0  0  0  0  0  0  0  0  0  0
   -9.0259    2.7945  -31.0006 C   0  0  0  0  0  0  0  0  0  0  0  0
  1  2  1  0
  2  3  2  0
  3  4  1  0
  3  5  1  0
  2  6  1  0
  6  7  1  0
  7  8  1  0
  8  9  1  0
  1 10  1  0
  4 10  2  0
  5 11  1  0
  7 11  2  0
M  END
>  <ID>  (1) 
conformer_0

$$$$
