
     RDKit          3D

  9  9  0  0  0  0  0  0  0  0999 V2000
   -7.6618    5.8402  -28.6760 C   0  0  0  0  0  0  0  0  0  0  0  0
   -8.1870    4.9127  -29.4669 C   0  0  0  0  0  0  0  0  0  0  0  0
   -8.8357    4.0192  -28.9100 C   0  0  0  0  0  0  0  0  0  0  0  0
   -7.8324    5.1378  -30.8218 O   0  0  0  0  0  0  0  0  0  0  0  0
   -8.0892    6.0251  -27.3560 C   0  0  0  0  0  0  0  0  0  0  0  0
   -9.2959    2.9367  -29.8997 C   0  0  0  0  0  0  0  0  0  0  0  0
   -9.3169    4.1163  -27.6440 C   0  0  0  0  0  0  0  0  0  0  0  0
   -9.0008    5.1399  -26.8394 C   0  0  0  0  0  0  0  0  0  0  0  0
   -9.9226    3.4536  -31.0132 N   0  0  0  0  0  0  0  0  0  0  0  0
  1  2  1  0
  2  3  2  0
  2  4  1  0
  1  5  2  0
  3  6  1  0
  3  7  1  0
  5  8  1  0
  7  8  2  0
  6  9  1  0
M  END
>  <ID>  (1) 
conformer_0

$$$$
