
     RDKit          3D

 10 11  0  0  0  0  0  0  0  0999 V2000
   -9.2769    5.8370  -27.8525 N   0  0  0  0  0  0  0  0  0  0  0  0
   -8.0284    6.1382  -28.1874 C   0  0  0  0  0  0  0  0  0  0  0  0
   -7.5792    5.4138  -29.4093 C   0  0  0  0  0  0  0  0  0  0  0  0
   -7.3256    4.0128  -29.1746 C   0  0  0  0  0  0  0  0  0  0  0  0
   -8.6280    3.3104  -29.3412 C   0  0  0  0  0  0  0  0  0  0  0  0
   -9.8872    4.6267  -28.2202 C   0  0  0  0  0  0  0  0  0  0  0  0
   -8.4617    5.6336  -30.5419 C   0  0  0  0  0  0  0  0  0  0  0  0
   -9.6745    4.1052  -29.4042 C   0  0  0  0  0  0  0  0  0  0  0  0
  -10.9720    3.3700  -29.8078 C   0  0  0  0  0  0  0  0  0  0  0  0
   -9.5803    5.0764  -30.5539 C   0  0  0  0  0  0  0  0  0  0  0  0
  1  2  1  0
  2  3  1  0
  3  4  1  0
  4  5  1  0
  1  6  1  0
  3  7  1  0
  5  8  1  0
  6  8  1  0
  8  9  1  0
  7 10  2  0
  8 10  1  0
M  END
>  <ID>  (1) 
conformer_0

$$$$
