
     RDKit          3D

 12 12  0  0  0  0  0  0  0  0999 V2000
   -6.6924    3.8495  -30.2856 C   0  0  0  0  0  0  0  0  0  0  0  0
   -7.5600    4.5536  -29.6564 N   0  0  0  0  0  0  0  0  0  0  0  0
   -8.7582    4.2456  -29.2096 C   0  0  0  0  0  0  0  0  0  0  0  0
   -9.3337    4.8739  -28.0727 C   0  0  0  0  0  0  0  0  0  0  0  0
   -7.1223    3.3330  -31.5291 C   0  0  0  0  0  0  0  0  0  0  0  0
  -10.5032    4.3753  -27.6104 C   0  0  0  0  0  0  0  0  0  0  0  0
   -6.4906    2.3535  -32.1427 O   0  0  0  0  0  0  0  0  0  0  0  0
  -11.2086    3.5425  -28.3182 C   0  0  0  0  0  0  0  0  0  0  0  0
   -8.1258    3.8141  -32.1898 O   0  0  0  0  0  0  0  0  0  0  0  0
   -8.4874    5.9623  -27.6145 N   0  0  0  0  0  0  0  0  0  0  0  0
  -10.6483    2.9104  -29.3666 C   0  0  0  0  0  0  0  0  0  0  0  0
   -9.4087    3.3133  -29.9111 C   0  0  0  0  0  0  0  0  0  0  0  0
  1  2  1  0
  2  3  1  0
  3  4  1  0
  1  5  1  0
  4  6  2  0
  5  7  1  0
  6  8  1  0
  5  9  2  0
  4 10  1  0
  8 11  2  0
  3 12  2  0
 11 12  1  0
M  END
>  <ID>  (1) 
conformer_0

$$$$
