
     RDKit          3D

 12 13  0  0  0  0  0  0  0  0999 V2000
   -6.6924    3.8495  -30.2856 C   0  0  0  0  0  0  0  0  0  0  0  0
   -7.5600    4.5536  -29.6564 N   0  0  0  0  0  0  0  0  0  0  0  0
   -8.7582    4.2456  -29.2096 C   0  0  0  0  0  0  0  0  0  0  0  0
   -9.3337    4.8739  -28.0727 C   0  0  0  0  0  0  0  0  0  0  0  0
   -9.4075    3.3774  -29.9735 C   0  0  0  0  0  0  0  0  0  0  0  0
   -7.2815    3.1431  -31.4239 C   0  0  0  0  0  0  0  0  0  0  0  0
   -6.5760    2.4072  -32.2962 O   0  0  0  0  0  0  0  0  0  0  0  0
   -8.7445    2.7959  -31.2085 C   0  0  0  0  0  0  0  0  0  0  0  0
  -10.4404    4.3107  -27.6064 C   0  0  0  0  0  0  0  0  0  0  0  0
  -10.7540    2.9424  -29.5145 C   0  0  0  0  0  0  0  0  0  0  0  0
  -11.2193    3.4463  -28.3841 C   0  0  0  0  0  0  0  0  0  0  0  0
   -8.5037    5.8754  -27.4446 C   0  0  0  0  0  0  0  0  0  0  0  0
  1  2  1  0
  2  3  1  0
  3  4  1  0
  3  5  2  0
  1  6  1  0
  6  7  1  0
  5  8  1  0
  6  8  1  0
  4  9  2  0
  5 10  1  0
  9 11  1  0
 10 11  2  0
  4 12  1  0
M  END
>  <ID>  (1) 
conformer_0

$$$$
