
     RDKit          3D

 12 12  0  0  0  0  0  0  0  0999 V2000
   -7.1239    2.9998  -33.0883 O   0  0  0  0  0  0  0  0  0  0  0  0
   -7.3070    2.8614  -31.8487 C   0  0  0  0  0  0  0  0  0  0  0  0
   -7.5179    3.8713  -30.9664 C   0  0  0  0  0  0  0  0  0  0  0  0
   -8.3773    4.8451  -31.2062 O   0  0  0  0  0  0  0  0  0  0  0  0
   -7.8275    3.4058  -29.6154 C   0  0  0  0  0  0  0  0  0  0  0  0
   -8.5221    4.4549  -28.7604 C   0  0  0  0  0  0  0  0  0  0  0  0
   -8.9126    5.3882  -29.9649 C   0  0  0  0  0  0  0  0  0  0  0  0
   -9.6931    3.8991  -28.1727 C   0  0  0  0  0  0  0  0  0  0  0  0
   -7.2579    1.6544  -31.4384 O   0  0  0  0  0  0  0  0  0  0  0  0
  -10.5380    4.7698  -27.6419 O   0  0  0  0  0  0  0  0  0  0  0  0
   -7.6881    5.2658  -28.0048 O   0  0  0  0  0  0  0  0  0  0  0  0
  -10.3100    2.9058  -28.7826 O   0  0  0  0  0  0  0  0  0  0  0  0
  1  2  2  0
  2  3  1  0
  3  4  1  0
  3  5  1  0
  5  6  1  0
  4  7  1  0
  6  7  1  0
  6  8  1  0
  2  9  1  0
  8 10  1  0
  6 11  1  0
  8 12  1  0
M  END
>  <ID>  (1) 
conformer_0

$$$$
