
     RDKit          3D

 12 12  0  0  0  0  0  0  0  0999 V2000
   -6.6265    3.7414  -30.1777 O   0  0  0  0  0  0  0  0  0  0  0  0
   -7.0412    3.1362  -31.3513 C   0  0  0  0  0  0  0  0  0  0  0  0
   -7.6695    4.1107  -29.3049 C   0  0  0  0  0  0  0  0  0  0  0  0
   -7.5878    5.2533  -28.6644 C   0  0  0  0  0  0  0  0  0  0  0  0
   -8.2817    3.4880  -31.8238 C   0  0  0  0  0  0  0  0  0  0  0  0
   -8.9938    4.1120  -30.0892 C   0  0  0  0  0  0  0  0  0  0  0  0
   -7.2694    5.6319  -27.6393 O   0  0  0  0  0  0  0  0  0  0  0  0
  -10.2014    4.1149  -29.9574 C   0  0  0  0  0  0  0  0  0  0  0  0
   -6.1498    2.4855  -32.2124 O   0  0  0  0  0  0  0  0  0  0  0  0
   -8.1269    6.4718  -29.3973 N   0  0  0  0  0  0  0  0  0  0  0  0
  -11.2253    3.8989  -30.9261 N   0  0  0  0  0  0  0  0  0  0  0  0
  -10.5773    4.3658  -28.5656 C   0  0  0  0  0  0  0  0  0  0  0  0
  1  2  1  0
  1  3  1  0
  3  4  1  0
  2  5  2  0
  3  6  1  0
  5  6  1  0
  4  7  2  0
  6  8  2  3
  2  9  1  0
  4 10  1  0
  8 11  1  0
  8 12  1  0
M  END
>  <ID>  (1) 
conformer_0

$$$$
