
     RDKit          3D

 12 13  0  0  0  0  0  0  0  0999 V2000
   -6.6265    3.7414  -30.1777 O   0  0  0  0  0  0  0  0  0  0  0  0
   -7.0412    3.1362  -31.3513 C   0  0  0  0  0  0  0  0  0  0  0  0
   -7.6695    4.1107  -29.3049 C   0  0  0  0  0  0  0  0  0  0  0  0
   -6.3380    2.5071  -32.1960 O   0  0  0  0  0  0  0  0  0  0  0  0
   -8.9188    4.0504  -29.9915 C   0  0  0  0  0  0  0  0  0  0  0  0
   -8.5428    3.4049  -31.2705 N   0  0  0  0  0  0  0  0  0  0  0  0
   -7.5600    4.6676  -27.9981 C   0  0  0  0  0  0  0  0  0  0  0  0
  -10.1738    4.2556  -29.6262 C   0  0  0  0  0  0  0  0  0  0  0  0
   -8.9025    4.9740  -27.5110 C   0  0  0  0  0  0  0  0  0  0  0  0
   -9.3883    3.1659  -32.4159 C   0  0  0  0  0  0  0  0  0  0  0  0
   -8.9421    5.6014  -26.2153 F   0  0  0  0  0  0  0  0  0  0  0  0
  -10.1061    4.8493  -28.2379 C   0  0  0  0  0  0  0  0  0  0  0  0
  1  2  1  0
  1  3  1  0
  2  4  2  0
  3  5  2  0
  2  6  1  0
  5  6  1  0
  3  7  1  0
  5  8  1  0
  7  9  2  0
  6 10  1  0
  9 11  1  0
  8 12  2  0
  9 12  1  0
M  END
>  <ID>  (1) 
conformer_0

$$$$
