
     RDKit          3D

 11 12  0  0  0  0  0  0  0  0999 V2000
   -6.3730    3.7103  -30.2619 O   0  0  0  0  0  0  0  0  0  0  0  0
   -7.0029    3.1467  -31.4382 C   0  0  0  0  0  0  0  0  0  0  0  0
   -7.3902    4.0992  -29.3355 C   0  0  0  0  0  0  0  0  0  0  0  0
   -8.5875    3.4077  -29.5223 C   0  0  0  0  0  0  0  0  0  0  0  0
   -8.3834    2.9593  -31.3252 C   0  0  0  0  0  0  0  0  0  0  0  0
   -7.1716    5.0113  -28.3673 C   0  0  0  0  0  0  0  0  0  0  0  0
   -8.9644    2.8461  -30.5729 O   0  0  0  0  0  0  0  0  0  0  0  0
   -9.6640    3.5717  -28.4424 C   0  0  0  0  0  0  0  0  0  0  0  0
   -9.4116    4.5274  -27.4832 C   0  0  0  0  0  0  0  0  0  0  0  0
   -8.2152    5.3376  -27.4394 C   0  0  0  0  0  0  0  0  0  0  0  0
   -6.2560    2.6168  -32.4187 O   0  0  0  0  0  0  0  0  0  0  0  0
  1  2  1  0
  1  3  1  0
  3  4  2  0
  2  5  1  0
  3  6  1  0
  4  7  1  0
  5  7  1  0
  4  8  1  0
  8  9  2  0
  6 10  2  0
  9 10  1  0
  2 11  2  0
M  END
>  <ID>  (1) 
conformer_0

$$$$
