
     RDKit          3D

 11 10  0  0  0  0  0  0  0  0999 V2000
   -6.2637    3.6241  -30.2668 O   0  0  0  0  0  0  0  0  0  0  0  0
   -7.2698    3.4342  -31.2579 C   0  0  0  0  0  0  0  0  0  0  0  0
   -6.8850    2.4237  -32.3288 C   0  0  0  0  0  0  0  0  0  0  0  0
   -6.0262    1.7359  -32.3068 O   0  0  0  0  0  0  0  0  0  0  0  0
   -8.3902    4.1057  -31.3043 C   0  0  0  0  0  0  0  0  0  0  0  0
   -7.4369    2.6881  -33.4473 O   0  0  0  0  0  0  0  0  0  0  0  0
   -8.7376    4.8000  -30.1405 C   0  0  0  0  0  0  0  0  0  0  0  0
   -7.9004    5.6810  -29.6169 O   0  0  0  0  0  0  0  0  0  0  0  0
   -9.2094    3.9263  -28.9225 C   0  0  0  0  0  0  0  0  0  0  0  0
  -10.2307    3.1159  -29.1629 C   0  0  0  0  0  0  0  0  0  0  0  0
   -9.5530    4.8483  -27.7810 C   0  0  0  0  0  0  0  0  0  0  0  0
  1  2  1  0
  2  3  1  0
  3  4  2  0
  2  5  2  3
  3  6  1  0
  5  7  1  0
  7  8  1  0
  7  9  1  0
  9 10  1  0
  9 11  1  0
M  END
>  <ID>  (1) 
conformer_0

$$$$
