
     RDKit          3D

 12 12  0  0  0  0  0  0  0  0999 V2000
   -7.2138    3.3942  -33.3249 O   0  0  0  0  0  0  0  0  0  0  0  0
   -7.5941    2.9931  -32.0281 P   0  0  0  0  0  0  0  0  0  0  0  0
   -7.7916    4.3099  -31.2738 O   0  0  0  0  0  0  0  0  0  0  0  0
   -8.8010    4.3668  -30.1666 C   0  0  0  0  0  0  0  0  0  0  0  0
   -8.3992    5.1496  -29.1019 C   0  0  0  0  0  0  0  0  0  0  0  0
   -9.2532    5.1828  -27.9641 C   0  0  0  0  0  0  0  0  0  0  0  0
   -8.8033    2.1639  -32.0104 O   0  0  0  0  0  0  0  0  0  0  0  0
   -7.1897    5.8515  -29.1119 O   0  0  0  0  0  0  0  0  0  0  0  0
  -10.4258    4.4568  -28.0425 C   0  0  0  0  0  0  0  0  0  0  0  0
  -10.6293    3.6998  -28.9817 C   0  0  0  0  0  0  0  0  0  0  0  0
   -6.2989    2.2886  -31.4209 O   0  0  0  0  0  0  0  0  0  0  0  0
   -9.8642    3.5578  -30.1055 C   0  0  0  0  0  0  0  0  0  0  0  0
  1  2  1  0
  2  3  1  0
  3  4  1  0
  4  5  1  0
  5  6  2  0
  2  7  2  0
  5  8  1  0
  6  9  1  0
  9 10  2  0
  2 11  1  0
  4 12  2  0
 10 12  1  0
M  END
>  <ID>  (1) 
conformer_0

$$$$
