
     RDKit          3D

  8  8  0  0  0  0  0  0  0  0999 V2000
   -7.4472    5.2233  -30.7957 O   0  0  0  0  0  0  0  0  0  0  0  0
   -7.5180    3.8856  -31.0244 C   0  0  0  0  0  0  0  0  0  0  0  0
   -7.2824    3.3506  -32.3116 C   0  0  0  0  0  0  0  0  0  0  0  0
   -7.8299    3.6728  -33.2675 O   0  0  0  0  0  0  0  0  0  0  0  0
   -7.8250    3.0719  -29.9555 C   0  0  0  0  0  0  0  0  0  0  0  0
   -7.7824    5.4876  -29.4344 C   0  0  0  0  0  0  0  0  0  0  0  0
   -8.0556    4.2212  -28.8227 C   0  0  0  0  0  0  0  0  0  0  0  0
   -6.3522    2.4731  -32.3581 O   0  0  0  0  0  0  0  0  0  0  0  0
  1  2  1  0
  2  3  1  0
  3  4  1  0
  2  5  2  0
  1  6  1  0
  5  7  1  0
  6  7  2  0
  3  8  2  0
M  END
>  <ID>  (1) 
conformer_0

$$$$
