
     RDKit          3D

 12 12  0  0  0  0  0  0  0  0999 V2000
   -7.4314    5.2484  -30.6203 O   0  0  0  0  0  0  0  0  0  0  0  0
   -7.5505    3.9526  -31.0088 C   0  0  0  0  0  0  0  0  0  0  0  0
   -7.0640    3.5077  -32.2279 C   0  0  0  0  0  0  0  0  0  0  0  0
   -7.9945    5.4866  -29.2120 C   0  0  0  0  0  0  0  0  0  0  0  0
   -6.3761    2.4532  -32.2497 O   0  0  0  0  0  0  0  0  0  0  0  0
   -9.1013    3.5702  -30.8972 C   0  0  0  0  0  0  0  0  0  0  0  0
   -9.3151    2.2308  -31.3930 O   0  0  0  0  0  0  0  0  0  0  0  0
   -9.4136    5.0269  -29.0635 C   0  0  0  0  0  0  0  0  0  0  0  0
   -9.7176    5.0777  -27.5619 C   0  0  0  0  0  0  0  0  0  0  0  0
   -7.8992    3.6786  -33.2020 O   0  0  0  0  0  0  0  0  0  0  0  0
   -9.5521    3.6995  -29.4133 C   0  0  0  0  0  0  0  0  0  0  0  0
  -10.3757    3.9269  -27.2060 O   0  0  0  0  0  0  0  0  0  0  0  0
  1  2  1  0
  2  3  1  0
  1  4  1  0
  3  5  1  0
  2  6  1  0
  6  7  1  0
  4  8  1  0
  8  9  1  0
  3 10  2  0
  6 11  1  0
  8 11  1  0
  9 12  1  0
M  END
>  <ID>  (1) 
conformer_0

$$$$
