
     RDKit          3D

 12 12  0  0  0  0  0  0  0  0999 V2000
   -7.2138    3.3942  -33.3249 O   0  0  0  0  0  0  0  0  0  0  0  0
   -7.5941    2.9931  -32.0281 P   0  0  0  0  0  0  0  0  0  0  0  0
   -7.7916    4.3099  -31.2738 O   0  0  0  0  0  0  0  0  0  0  0  0
   -8.8010    4.3668  -30.1666 C   0  0  0  0  0  0  0  0  0  0  0  0
   -8.3992    5.1496  -29.1019 C   0  0  0  0  0  0  0  0  0  0  0  0
   -9.2532    5.1828  -27.9641 C   0  0  0  0  0  0  0  0  0  0  0  0
   -6.4145    2.3689  -31.2145 O   0  0  0  0  0  0  0  0  0  0  0  0
   -7.1092    5.7882  -29.0445 C   0  0  0  0  0  0  0  0  0  0  0  0
   -8.6846    2.0351  -31.8895 O   0  0  0  0  0  0  0  0  0  0  0  0
   -7.0509    6.2643  -27.7219 C   0  0  0  0  0  0  0  0  0  0  0  0
   -8.3417    6.1274  -27.1409 N   0  0  0  0  0  0  0  0  0  0  0  0
  -10.4852    4.7898  -27.6674 C   0  0  0  0  0  0  0  0  0  0  0  0
  1  2  1  0
  2  3  1  0
  3  4  1  0
  4  5  1  0
  5  6  2  0
  2  7  1  0
  5  8  1  0
  2  9  2  0
  8 10  1  0
  6 11  1  0
 10 11  2  0
  6 12  1  0
M  END
>  <ID>  (1) 
conformer_0

$$$$
