
     RDKit          3D

 12 12  0  0  0  0  0  0  0  0999 V2000
   -6.6924    3.8495  -30.2856 C   0  0  0  0  0  0  0  0  0  0  0  0
   -7.5600    4.5536  -29.6564 N   0  0  0  0  0  0  0  0  0  0  0  0
   -8.7582    4.2456  -29.2096 C   0  0  0  0  0  0  0  0  0  0  0  0
   -9.4410    3.3359  -29.9477 C   0  0  0  0  0  0  0  0  0  0  0  0
  -10.8819    3.1205  -29.6734 C   0  0  0  0  0  0  0  0  0  0  0  0
   -9.2671    5.2560  -28.2046 C   0  0  0  0  0  0  0  0  0  0  0  0
   -8.7846    2.7302  -31.0714 C   0  0  0  0  0  0  0  0  0  0  0  0
   -7.4120    2.9606  -31.2109 C   0  0  0  0  0  0  0  0  0  0  0  0
   -6.7134    2.2555  -32.2536 O   0  0  0  0  0  0  0  0  0  0  0  0
   -8.6936    6.4003  -27.9369 N   0  0  0  0  0  0  0  0  0  0  0  0
   -9.7958    4.5397  -27.2972 O   0  0  0  0  0  0  0  0  0  0  0  0
   -5.5215    4.0469  -30.4223 O   0  0  0  0  0  0  0  0  0  0  0  0
  1  2  1  0
  2  3  1  0
  3  4  2  0
  4  5  1  0
  3  6  1  0
  4  7  1  0
  1  8  1  0
  7  8  2  0
  8  9  1  0
  6 10  1  0
  6 11  2  0
  1 12  2  0
M  END
>  <ID>  (1) 
conformer_0

$$$$
