
     RDKit          3D

 11 11  0  0  0  0  0  0  0  0999 V2000
   -7.1686    3.1704  -33.2481 O   0  0  0  0  0  0  0  0  0  0  0  0
   -7.4917    2.9155  -31.9626 P   0  0  0  0  0  0  0  0  0  0  0  0
   -7.7833    4.1209  -31.1812 O   0  0  0  0  0  0  0  0  0  0  0  0
   -8.1207    4.1759  -29.7406 C   0  0  0  0  0  0  0  0  0  0  0  0
   -6.1190    2.4248  -31.1837 O   0  0  0  0  0  0  0  0  0  0  0  0
   -9.4996    3.8558  -29.4475 C   0  0  0  0  0  0  0  0  0  0  0  0
   -8.4425    1.7460  -31.6733 O   0  0  0  0  0  0  0  0  0  0  0  0
   -9.9135    4.0683  -28.1142 C   0  0  0  0  0  0  0  0  0  0  0  0
   -7.6653    5.5334  -29.2250 C   0  0  0  0  0  0  0  0  0  0  0  0
   -7.9428    5.6929  -27.7903 C   0  0  0  0  0  0  0  0  0  0  0  0
   -9.4648    5.4627  -27.6152 C   0  0  0  0  0  0  0  0  0  0  0  0
  1  2  1  0
  2  3  1  0
  3  4  1  0
  2  5  2  0
  4  6  1  0
  2  7  1  0
  6  8  1  0
  4  9  1  0
  9 10  1  0
  8 11  1  0
 10 11  1  0
M  END
>  <ID>  (1) 
conformer_0

$$$$
