
     RDKit          3D

 12 12  0  0  0  0  0  0  0  0999 V2000
   -7.6835    5.3041  -30.7538 O   0  0  0  0  0  0  0  0  0  0  0  0
   -7.5893    4.0110  -30.9728 C   0  0  0  0  0  0  0  0  0  0  0  0
   -7.3834    3.5294  -32.2639 C   0  0  0  0  0  0  0  0  0  0  0  0
   -8.1934    5.5760  -29.3499 C   0  0  0  0  0  0  0  0  0  0  0  0
   -8.7516    3.1792  -30.3979 C   0  0  0  0  0  0  0  0  0  0  0  0
   -7.3938    5.1614  -28.4811 C   0  0  0  0  0  0  0  0  0  0  0  0
   -9.5528    5.2256  -29.1266 C   0  0  0  0  0  0  0  0  0  0  0  0
   -8.0065    3.8956  -33.2096 O   0  0  0  0  0  0  0  0  0  0  0  0
   -6.8565    2.2089  -32.3852 O   0  0  0  0  0  0  0  0  0  0  0  0
   -9.9493    5.1747  -27.7826 O   0  0  0  0  0  0  0  0  0  0  0  0
   -9.7026    3.7074  -29.5325 C   0  0  0  0  0  0  0  0  0  0  0  0
  -10.9234    3.1616  -29.3507 O   0  0  0  0  0  0  0  0  0  0  0  0
  1  2  1  0
  2  3  1  0
  1  4  1  0
  2  5  1  0
  4  6  1  0
  4  7  1  0
  3  8  1  0
  3  9  1  0
  7 10  1  0
  5 11  2  0
  7 11  1  0
 11 12  1  0
M  END
>  <ID>  (1) 
conformer_0

$$$$
