
     RDKit          3D

 12 12  0  0  0  0  0  0  0  0999 V2000
   -8.2708    1.6104  -32.1539 O   0  0  0  0  0  0  0  0  0  0  0  0
   -7.2093    2.6152  -32.0837 P   0  0  0  0  0  0  0  0  0  0  0  0
   -7.4071    3.5581  -31.0600 O   0  0  0  0  0  0  0  0  0  0  0  0
   -8.3896    4.4401  -30.8304 C   0  0  0  0  0  0  0  0  0  0  0  0
   -8.7098    4.8487  -29.4502 C   0  0  0  0  0  0  0  0  0  0  0  0
   -6.9209    3.3421  -33.2429 O   0  0  0  0  0  0  0  0  0  0  0  0
   -7.7822    5.6743  -28.7826 N   0  0  0  0  0  0  0  0  0  0  0  0
   -5.9054    1.9617  -31.5743 O   0  0  0  0  0  0  0  0  0  0  0  0
   -9.8504    4.4086  -28.6946 C   0  0  0  0  0  0  0  0  0  0  0  0
  -10.8283    3.6112  -29.2330 C   0  0  0  0  0  0  0  0  0  0  0  0
   -9.6068    5.0314  -27.4679 C   0  0  0  0  0  0  0  0  0  0  0  0
   -8.4335    5.7675  -27.5584 O   0  0  0  0  0  0  0  0  0  0  0  0
  1  2  1  0
  2  3  1  0
  3  4  1  0
  4  5  1  0
  2  6  2  0
  5  7  2  0
  2  8  1  0
  5  9  1  0
  9 10  1  0
  9 11  2  0
  7 12  1  0
 11 12  1  0
M  END
>  <ID>  (1) 
conformer_0

$$$$
