
     RDKit          3D

 12 12  0  0  0  0  0  0  0  0999 V2000
   -8.2708    1.6104  -32.1539 O   0  0  0  0  0  0  0  0  0  0  0  0
   -7.2093    2.6152  -32.0837 P   0  0  0  0  0  0  0  0  0  0  0  0
   -7.4071    3.5581  -31.0600 O   0  0  0  0  0  0  0  0  0  0  0  0
   -8.3896    4.4401  -30.8304 C   0  0  0  0  0  0  0  0  0  0  0  0
   -8.7098    4.8487  -29.4502 C   0  0  0  0  0  0  0  0  0  0  0  0
   -5.7868    1.9315  -31.7733 O   0  0  0  0  0  0  0  0  0  0  0  0
   -7.7714    5.7077  -28.8471 N   0  0  0  0  0  0  0  0  0  0  0  0
   -9.8080    4.5381  -28.6766 C   0  0  0  0  0  0  0  0  0  0  0  0
  -10.8411    3.7319  -29.0519 C   0  0  0  0  0  0  0  0  0  0  0  0
   -9.4928    5.1713  -27.4336 N   0  0  0  0  0  0  0  0  0  0  0  0
   -7.2393    3.3206  -33.3938 O   0  0  0  0  0  0  0  0  0  0  0  0
   -8.3503    5.9651  -27.6647 O   0  0  0  0  0  0  0  0  0  0  0  0
  1  2  1  0
  2  3  1  0
  3  4  1  0
  4  5  1  0
  2  6  1  0
  5  7  2  0
  5  8  1  0
  8  9  1  0
  8 10  2  0
  2 11  2  0
  7 12  1  0
 10 12  1  0
M  END
>  <ID>  (1) 
conformer_0

$$$$
