
     RDKit          3D

 11 11  0  0  0  0  0  0  0  0999 V2000
   -7.2138    3.3942  -33.3249 O   0  0  0  0  0  0  0  0  0  0  0  0
   -7.5941    2.9931  -32.0281 P   0  0  0  0  0  0  0  0  0  0  0  0
   -7.7916    4.3099  -31.2738 O   0  0  0  0  0  0  0  0  0  0  0  0
   -8.8010    4.3668  -30.1666 C   0  0  0  0  0  0  0  0  0  0  0  0
   -8.3992    5.1496  -29.1019 C   0  0  0  0  0  0  0  0  0  0  0  0
   -6.3195    2.3993  -31.2150 O   0  0  0  0  0  0  0  0  0  0  0  0
   -7.2607    5.8639  -29.1798 O   0  0  0  0  0  0  0  0  0  0  0  0
   -9.2314    4.9627  -28.1203 C   0  0  0  0  0  0  0  0  0  0  0  0
   -8.6219    1.9821  -31.8353 O   0  0  0  0  0  0  0  0  0  0  0  0
  -10.3198    4.0847  -28.3558 C   0  0  0  0  0  0  0  0  0  0  0  0
   -9.9452    3.6618  -29.7238 C   0  0  0  0  0  0  0  0  0  0  0  0
  1  2  1  0
  2  3  1  0
  3  4  1  0
  4  5  1  0
  2  6  1  0
  5  7  1  0
  5  8  2  0
  2  9  2  0
  8 10  1  0
  4 11  1  0
 10 11  1  0
M  END
>  <ID>  (1) 
conformer_0

$$$$
