
     RDKit          3D

  9  9  0  0  0  0  0  0  0  0999 V2000
   -6.6924    3.8495  -30.2856 C   0  0  0  0  0  0  0  0  0  0  0  0
   -7.5600    4.5536  -29.6564 N   0  0  0  0  0  0  0  0  0  0  0  0
   -7.3819    5.0895  -28.4358 C   0  0  0  0  0  0  0  0  0  0  0  0
   -8.7406    4.9752  -30.1251 C   0  0  0  0  0  0  0  0  0  0  0  0
   -7.1719    3.2328  -31.5054 C   0  0  0  0  0  0  0  0  0  0  0  0
   -9.5214    5.6349  -29.0968 N   0  0  0  0  0  0  0  0  0  0  0  0
   -6.3763    2.3416  -32.0972 O   0  0  0  0  0  0  0  0  0  0  0  0
   -9.2933    4.8319  -31.2263 O   0  0  0  0  0  0  0  0  0  0  0  0
   -8.5842    5.7282  -27.9723 C   0  0  0  0  0  0  0  0  0  0  0  0
  1  2  1  0
  2  3  1  0
  2  4  1  0
  1  5  1  0
  4  6  1  0
  5  7  1  0
  4  8  2  0
  3  9  2  0
  6  9  1  0
M  END
>  <ID>  (1) 
conformer_0

$$$$
