
     RDKit          3D

 10 10  0  0  0  0  0  0  0  0999 V2000
   -6.6924    3.8495  -30.2856 C   0  0  0  0  0  0  0  0  0  0  0  0
   -7.1564    3.1903  -31.5193 C   0  0  0  0  0  0  0  0  0  0  0  0
   -6.4834    2.2692  -32.1161 O   0  0  0  0  0  0  0  0  0  0  0  0
   -7.5495    4.6796  -29.7686 C   0  0  0  0  0  0  0  0  0  0  0  0
   -8.3252    3.6101  -32.1576 O   0  0  0  0  0  0  0  0  0  0  0  0
   -8.7815    5.1047  -30.1647 N   0  0  0  0  0  0  0  0  0  0  0  0
   -7.2096    5.2498  -28.3574 C   0  0  0  0  0  0  0  0  0  0  0  0
   -9.8833    4.9624  -29.2817 C   0  0  0  0  0  0  0  0  0  0  0  0
   -8.3344    5.7091  -27.5201 C   0  0  0  0  0  0  0  0  0  0  0  0
   -9.6069    5.5888  -27.9870 C   0  0  0  0  0  0  0  0  0  0  0  0
  1  2  1  0
  2  3  1  0
  1  4  2  3
  2  5  2  0
  4  6  1  0
  4  7  1  0
  6  8  1  0
  7  9  2  0
  8 10  2  0
  9 10  1  0
M  END
>  <ID>  (1) 
conformer_0

$$$$
