
     RDKit          3D

 12 13  0  0  0  0  0  0  0  0999 V2000
   -6.3730    3.7103  -30.2619 O   0  0  0  0  0  0  0  0  0  0  0  0
   -7.0029    3.1467  -31.4382 C   0  0  0  0  0  0  0  0  0  0  0  0
   -7.3902    4.0992  -29.3355 C   0  0  0  0  0  0  0  0  0  0  0  0
   -6.2971    2.4327  -32.3541 O   0  0  0  0  0  0  0  0  0  0  0  0
   -8.3942    3.2957  -31.5716 C   0  0  0  0  0  0  0  0  0  0  0  0
   -8.7834    4.0890  -30.2759 C   0  0  0  0  0  0  0  0  0  0  0  0
   -9.8570    3.3140  -29.5159 C   0  0  0  0  0  0  0  0  0  0  0  0
  -10.5846    4.0675  -28.4815 C   0  0  0  0  0  0  0  0  0  0  0  0
   -9.7854    4.5249  -27.4590 O   0  0  0  0  0  0  0  0  0  0  0  0
   -7.3293    5.3991  -28.7458 C   0  0  0  0  0  0  0  0  0  0  0  0
   -9.6750    5.9337  -27.0543 C   0  0  0  0  0  0  0  0  0  0  0  0
   -8.3145    5.9271  -27.7803 C   0  0  0  0  0  0  0  0  0  0  0  0
  1  2  1  0
  1  3  1  0
  2  4  2  0
  2  5  1  0
  3  6  1  0
  5  6  1  0
  6  7  1  0
  7  8  1  0
  8  9  1  0
  3 10  1  0
  9 11  1  0
 10 12  1  0
 11 12  1  0
M  END
>  <ID>  (1) 
conformer_0

$$$$
