
     RDKit          3D

 12 13  0  0  0  0  0  0  0  0999 V2000
   -7.4314    5.2484  -30.6203 O   0  0  0  0  0  0  0  0  0  0  0  0
   -7.5505    3.9526  -31.0088 C   0  0  0  0  0  0  0  0  0  0  0  0
   -7.0640    3.5077  -32.2279 C   0  0  0  0  0  0  0  0  0  0  0  0
   -7.9945    5.4866  -29.2120 C   0  0  0  0  0  0  0  0  0  0  0  0
   -7.6238    6.4228  -28.4461 N   0  0  0  0  0  0  0  0  0  0  0  0
   -8.3617    6.2989  -27.2980 C   0  0  0  0  0  0  0  0  0  0  0  0
   -6.3436    2.4568  -32.2055 O   0  0  0  0  0  0  0  0  0  0  0  0
   -7.5754    3.9780  -33.1740 O   0  0  0  0  0  0  0  0  0  0  0  0
   -9.1488    4.5284  -29.0002 C   0  0  0  0  0  0  0  0  0  0  0  0
   -9.8625    4.7677  -27.8498 C   0  0  0  0  0  0  0  0  0  0  0  0
   -9.2675    3.4725  -29.9595 C   0  0  0  0  0  0  0  0  0  0  0  0
   -9.4522    5.7353  -26.9692 C   0  0  0  0  0  0  0  0  0  0  0  0
  1  2  1  0
  2  3  1  0
  1  4  1  0
  4  5  2  0
  5  6  1  0
  3  7  1  0
  3  8  2  0
  4  9  1  0
  9 10  2  0
  2 11  1  0
  9 11  1  0
  6 12  2  0
 10 12  1  0
M  END
>  <ID>  (1) 
conformer_0

$$$$
