
     RDKit          3D

 11 11  0  0  0  0  0  0  0  0999 V2000
  -10.5865    3.8415  -28.1185 C   0  0  0  0  0  0  0  0  0  0  0  0
   -9.6559    4.7466  -27.7742 C   0  0  0  0  0  0  0  0  0  0  0  0
  -10.5615    3.2554  -29.3105 C   0  0  0  0  0  0  0  0  0  0  0  0
   -9.6184    3.5108  -30.2467 C   0  0  0  0  0  0  0  0  0  0  0  0
   -8.5590    4.4103  -29.9381 C   0  0  0  0  0  0  0  0  0  0  0  0
   -7.4865    4.6053  -30.9212 C   0  0  0  0  0  0  0  0  0  0  0  0
   -7.2785    3.4915  -31.7928 C   0  0  0  0  0  0  0  0  0  0  0  0
   -7.7798    3.3799  -33.0240 O   0  0  0  0  0  0  0  0  0  0  0  0
   -8.6138    5.0897  -28.7048 C   0  0  0  0  0  0  0  0  0  0  0  0
   -7.6013    6.0755  -28.3949 O   0  0  0  0  0  0  0  0  0  0  0  0
   -6.4290    2.4985  -31.4895 O   0  0  0  0  0  0  0  0  0  0  0  0
  1  2  1  0
  1  3  2  0
  3  4  1  0
  4  5  2  0
  5  6  1  0
  6  7  1  0
  7  8  2  0
  2  9  2  0
  5  9  1  0
  9 10  1  0
  7 11  1  0
M  END
>  <ID>  (1) 
conformer_0

$$$$
