
     RDKit          3D

 12 12  0  0  0  0  0  0  0  0999 V2000
   -6.2272    2.0989  -32.4815 O   0  0  0  0  0  0  0  0  0  0  0  0
   -7.3654    2.7127  -31.8898 P   0  0  0  0  0  0  0  0  0  0  0  0
   -6.8053    3.6999  -30.7386 O   0  0  0  0  0  0  0  0  0  0  0  0
   -8.2441    1.7159  -31.0683 O   0  0  0  0  0  0  0  0  0  0  0  0
   -7.5583    4.3729  -29.6961 C   0  0  0  0  0  0  0  0  0  0  0  0
   -8.8063    4.1208  -29.5845 C   0  0  0  0  0  0  0  0  0  0  0  0
   -7.1982    5.6629  -29.3279 C   0  0  0  0  0  0  0  0  0  0  0  0
   -8.1096    3.5892  -32.7856 O   0  0  0  0  0  0  0  0  0  0  0  0
   -7.2335    5.8846  -28.0032 C   0  0  0  0  0  0  0  0  0  0  0  0
   -9.7326    3.5207  -30.3334 C   0  0  0  0  0  0  0  0  0  0  0  0
   -9.1904    4.2195  -28.0699 C   0  0  0  0  0  0  0  0  0  0  0  0
   -8.6785    5.5058  -27.5788 C   0  0  0  0  0  0  0  0  0  0  0  0
  1  2  1  0
  2  3  1  0
  2  4  1  0
  3  5  1  0
  5  6  1  0
  5  7  1  0
  2  8  2  0
  7  9  1  0
  6 10  2  0
  6 11  1  0
  9 12  1  0
 11 12  1  0
M  END
>  <ID>  (1) 
conformer_0

$$$$
