
     RDKit          3D

 12 13  0  0  0  0  0  0  0  0999 V2000
   -6.6924    3.8495  -30.2856 C   0  0  0  0  0  0  0  0  0  0  0  0
   -7.5600    4.5536  -29.6564 N   0  0  0  0  0  0  0  0  0  0  0  0
   -7.3819    5.0895  -28.4358 C   0  0  0  0  0  0  0  0  0  0  0  0
   -8.7406    4.9752  -30.1251 C   0  0  0  0  0  0  0  0  0  0  0  0
   -7.2411    3.3063  -31.5170 C   0  0  0  0  0  0  0  0  0  0  0  0
   -9.4564    3.7484  -30.7267 C   0  0  0  0  0  0  0  0  0  0  0  0
   -8.3597    5.9383  -27.9202 C   0  0  0  0  0  0  0  0  0  0  0  0
   -9.3038    5.6816  -28.9279 N   0  0  0  0  0  0  0  0  0  0  0  0
   -8.6256    2.8964  -31.4894 C   0  0  0  0  0  0  0  0  0  0  0  0
  -10.7711    3.5507  -30.4826 C   0  0  0  0  0  0  0  0  0  0  0  0
   -6.3519    2.1844  -32.0529 O   0  0  0  0  0  0  0  0  0  0  0  0
   -9.0794    1.9510  -32.2154 O   0  0  0  0  0  0  0  0  0  0  0  0
  1  2  1  0
  2  3  1  0
  2  4  1  0
  1  5  1  0
  4  6  1  0
  3  7  2  0
  4  8  1  0
  7  8  1  0
  5  9  1  0
  6  9  1  0
  6 10  2  0
  5 11  1  0
  9 12  2  0
M  END
>  <ID>  (1) 
conformer_0

$$$$
