
     RDKit          3D

 12 11  0  0  0  0  0  0  0  0999 V2000
   -7.6618    5.8402  -28.6760 N   0  0  0  0  0  0  0  0  0  0  0  0
   -8.1142    5.4267  -29.6873 C   0  0  0  0  0  0  0  0  0  0  0  0
   -7.5920    4.1336  -30.0964 C   0  0  0  0  0  0  0  0  0  0  0  0
   -7.6194    3.7338  -31.4617 C   0  0  0  0  0  0  0  0  0  0  0  0
   -7.0086    2.5338  -31.9536 C   0  0  0  0  0  0  0  0  0  0  0  0
   -9.5482    5.2844  -29.6308 C   0  0  0  0  0  0  0  0  0  0  0  0
   -9.1081    3.7367  -31.8587 O   0  0  0  0  0  0  0  0  0  0  0  0
   -7.5227    1.6298  -32.2731 O   0  0  0  0  0  0  0  0  0  0  0  0
  -10.0137    4.1514  -28.8533 C   0  0  0  0  0  0  0  0  0  0  0  0
   -9.7290    4.2196  -27.5928 O   0  0  0  0  0  0  0  0  0  0  0  0
  -10.8071    3.3491  -29.3574 N   0  0  0  0  0  0  0  0  0  0  0  0
   -5.8456    2.4501  -31.6303 O   0  0  0  0  0  0  0  0  0  0  0  0
  1  2  1  0
  2  3  1  0
  3  4  1  0
  4  5  1  0
  2  6  1  0
  4  7  1  0
  5  8  1  0
  6  9  1  0
  9 10  2  0
  9 11  1  0
  5 12  2  0
M  END
>  <ID>  (1) 
conformer_0

$$$$
