
     RDKit          3D

 10  9  0  0  0  0  0  0  0  0999 V2000
   -8.3441    6.4892  -27.7223 C   0  0  0  0  0  0  0  0  0  0  0  0
   -9.3376    5.6799  -27.8116 O   0  0  0  0  0  0  0  0  0  0  0  0
   -8.8318    4.6143  -28.6144 C   0  0  0  0  0  0  0  0  0  0  0  0
   -8.2055    4.9321  -29.7998 C   0  0  0  0  0  0  0  0  0  0  0  0
   -9.9712    3.7114  -28.9218 C   0  0  0  0  0  0  0  0  0  0  0  0
  -10.9288    4.0551  -29.4863 O   0  0  0  0  0  0  0  0  0  0  0  0
   -7.5188    3.9841  -30.5711 C   0  0  0  0  0  0  0  0  0  0  0  0
   -6.5125    3.2481  -30.1334 O   0  0  0  0  0  0  0  0  0  0  0  0
   -7.6802    3.9758  -31.9194 N   0  0  0  0  0  0  0  0  0  0  0  0
   -7.1813    2.9872  -32.7537 O   0  0  0  0  0  0  0  0  0  0  0  0
  1  2  1  0
  2  3  1  0
  3  4  1  0
  3  5  1  0
  5  6  2  0
  4  7  1  0
  7  8  2  0
  7  9  1  0
  9 10  1  0
M  END
>  <ID>  (1) 
conformer_0

$$$$
