
     RDKit          3D

  8  7  0  0  0  0  0  0  0  0999 V2000
  -10.4683    4.3067  -27.7143 C   0  0  0  0  0  0  0  0  0  0  0  0
   -9.5227    4.7598  -28.6929 C   0  0  0  0  0  0  0  0  0  0  0  0
   -8.9170    3.8541  -29.5576 C   0  0  0  0  0  0  0  0  0  0  0  0
   -7.7468    4.1882  -30.3763 C   0  0  0  0  0  0  0  0  0  0  0  0
   -7.2103    3.2380  -31.3413 C   0  0  0  0  0  0  0  0  0  0  0  0
   -6.1549    2.5841  -31.1045 O   0  0  0  0  0  0  0  0  0  0  0  0
   -7.7547    3.2268  -32.5329 O   0  0  0  0  0  0  0  0  0  0  0  0
   -8.3380    5.4683  -27.8756 C   0  0  0  0  0  0  0  0  0  0  0  0
  1  2  1  0
  2  3  1  0
  3  4  1  0
  4  5  1  0
  5  6  2  0
  5  7  1  0
  2  8  1  0
M  END
>  <ID>  (1) 
conformer_0

$$$$
