
     RDKit          3D

 10 10  0  0  0  0  0  0  0  0999 V2000
   -7.4314    5.2484  -30.6203 O   0  0  0  0  0  0  0  0  0  0  0  0
   -7.5505    3.9526  -31.0088 C   0  0  0  0  0  0  0  0  0  0  0  0
   -7.0640    3.5077  -32.2279 C   0  0  0  0  0  0  0  0  0  0  0  0
   -7.9945    5.4866  -29.2120 C   0  0  0  0  0  0  0  0  0  0  0  0
   -7.4087    3.5116  -33.1751 O   0  0  0  0  0  0  0  0  0  0  0  0
   -8.4014    3.1234  -30.2664 C   0  0  0  0  0  0  0  0  0  0  0  0
   -8.8454    3.3573  -28.9733 C   0  0  0  0  0  0  0  0  0  0  0  0
   -7.7757    6.8030  -28.7728 O   0  0  0  0  0  0  0  0  0  0  0  0
   -8.6245    4.4994  -28.4316 C   0  0  0  0  0  0  0  0  0  0  0  0
   -5.9216    2.9373  -32.0019 O   0  0  0  0  0  0  0  0  0  0  0  0
  1  2  1  0
  2  3  1  0
  1  4  1  0
  3  5  1  0
  2  6  2  0
  6  7  1  0
  4  8  2  0
  4  9  1  0
  7  9  2  0
  3 10  2  0
M  END
>  <ID>  (1) 
conformer_0

$$$$
