
     RDKit          3D

  9  8  0  0  0  0  0  0  0  0999 V2000
   -6.6924    3.8495  -30.2856 C   0  0  0  0  0  0  0  0  0  0  0  0
   -7.5600    4.5536  -29.6564 N   0  0  0  0  0  0  0  0  0  0  0  0
   -8.7582    4.2456  -29.2096 C   0  0  0  0  0  0  0  0  0  0  0  0
   -9.3337    4.8739  -28.0727 C   0  0  0  0  0  0  0  0  0  0  0  0
   -7.1223    3.3330  -31.5291 C   0  0  0  0  0  0  0  0  0  0  0  0
  -10.5032    4.3753  -27.6104 C   0  0  0  0  0  0  0  0  0  0  0  0
   -6.4906    2.3535  -32.1427 O   0  0  0  0  0  0  0  0  0  0  0  0
   -8.5482    5.9385  -27.3894 C   0  0  0  0  0  0  0  0  0  0  0  0
   -8.4061    3.4339  -31.8822 O   0  0  0  0  0  0  0  0  0  0  0  0
  1  2  1  0
  2  3  1  0
  3  4  1  0
  1  5  1  0
  4  6  2  0
  5  7  1  0
  4  8  1  0
  5  9  2  0
M  END
>  <ID>  (1) 
conformer_0

$$$$
