
     RDKit          3D

 12 12  0  0  0  0  0  0  0  0999 V2000
  -10.7206    3.3766  -29.3973 C   0  0  0  0  0  0  0  0  0  0  0  0
  -10.3356    3.9443  -28.3478 C   0  0  0  0  0  0  0  0  0  0  0  0
   -9.8921    3.4397  -30.5087 C   0  0  0  0  0  0  0  0  0  0  0  0
  -10.1521    2.6980  -31.7219 C   0  0  0  0  0  0  0  0  0  0  0  0
   -8.5956    4.0859  -30.4081 C   0  0  0  0  0  0  0  0  0  0  0  0
   -7.6740    4.0483  -31.5671 C   0  0  0  0  0  0  0  0  0  0  0  0
   -8.3436    4.7438  -29.1443 C   0  0  0  0  0  0  0  0  0  0  0  0
   -7.1429    5.5639  -28.8897 C   0  0  0  0  0  0  0  0  0  0  0  0
   -6.6068    3.4575  -31.4996 O   0  0  0  0  0  0  0  0  0  0  0  0
   -6.3177    2.1775  -32.3619 O   0  0  0  0  0  0  0  0  0  0  0  0
   -9.2472    4.6661  -28.1022 C   0  0  0  0  0  0  0  0  0  0  0  0
   -7.9983    4.5169  -32.5638 O   0  0  0  0  0  0  0  0  0  0  0  0
  1  2  2  0
  1  3  1  0
  3  4  1  0
  3  5  2  0
  5  6  1  0
  5  7  1  0
  7  8  1  0
  6  9  1  0
  9 10  1  0
  2 11  1  0
  7 11  2  0
  6 12  2  0
M  END
>  <ID>  (1) 
conformer_0

$$$$
