
     RDKit          3D

 12 12  0  0  0  0  0  0  0  0999 V2000
   -6.6924    3.8495  -30.2856 C   0  0  0  0  0  0  0  0  0  0  0  0
   -7.5600    4.5536  -29.6564 N   0  0  0  0  0  0  0  0  0  0  0  0
   -8.7582    4.2456  -29.2096 C   0  0  0  0  0  0  0  0  0  0  0  0
   -9.4410    3.3359  -29.9477 C   0  0  0  0  0  0  0  0  0  0  0  0
   -8.7442    2.5306  -30.8885 C   0  0  0  0  0  0  0  0  0  0  0  0
  -10.8236    3.0570  -29.6657 C   0  0  0  0  0  0  0  0  0  0  0  0
   -7.3752    2.8933  -31.1490 C   0  0  0  0  0  0  0  0  0  0  0  0
   -9.2639    1.6986  -31.7757 O   0  0  0  0  0  0  0  0  0  0  0  0
   -9.3078    4.8957  -28.0719 C   0  0  0  0  0  0  0  0  0  0  0  0
   -8.8824    6.0931  -27.7052 O   0  0  0  0  0  0  0  0  0  0  0  0
   -6.4393    1.9889  -31.6571 O   0  0  0  0  0  0  0  0  0  0  0  0
   -9.8647    4.1500  -27.2884 O   0  0  0  0  0  0  0  0  0  0  0  0
  1  2  1  0
  2  3  1  0
  3  4  2  0
  4  5  1  0
  4  6  1  0
  1  7  1  0
  5  7  1  0
  5  8  2  0
  3  9  1  0
  9 10  1  0
  7 11  1  0
  9 12  2  0
M  END
>  <ID>  (1) 
conformer_0

$$$$
