
     RDKit          3D

 12 12  0  0  0  0  0  0  0  0999 V2000
  -10.5865    3.8415  -28.1185 C   0  0  0  0  0  0  0  0  0  0  0  0
   -9.6300    4.6036  -28.8209 C   0  0  0  0  0  0  0  0  0  0  0  0
   -8.9050    3.7813  -29.8562 C   0  0  0  0  0  0  0  0  0  0  0  0
   -7.6186    4.1397  -30.3780 C   0  0  0  0  0  0  0  0  0  0  0  0
   -6.7849    4.4446  -29.2732 O   0  0  0  0  0  0  0  0  0  0  0  0
   -7.0342    2.9516  -31.1532 C   0  0  0  0  0  0  0  0  0  0  0  0
   -7.4167    2.8393  -32.4525 C   0  0  0  0  0  0  0  0  0  0  0  0
   -8.5310    3.1723  -32.8561 O   0  0  0  0  0  0  0  0  0  0  0  0
   -8.7983    5.1452  -27.7874 C   0  0  0  0  0  0  0  0  0  0  0  0
   -6.6031    2.3190  -33.2479 O   0  0  0  0  0  0  0  0  0  0  0  0
   -7.3783    5.6122  -28.5222 C   0  0  0  0  0  0  0  0  0  0  0  0
   -5.6699    3.2575  -31.0808 O   0  0  0  0  0  0  0  0  0  0  0  0
  1  2  1  0
  2  3  1  0
  3  4  1  0
  4  5  1  0
  4  6  1  0
  6  7  1  0
  7  8  1  0
  2  9  1  0
  7 10  2  0
  5 11  1  0
  9 11  1  0
  6 12  1  0
M  END
>  <ID>  (1) 
conformer_0

$$$$
