
     RDKit          3D

 11 11  0  0  0  0  0  0  0  0999 V2000
   -7.6835    5.3041  -30.7538 O   0  0  0  0  0  0  0  0  0  0  0  0
   -7.5893    4.0110  -30.9728 C   0  0  0  0  0  0  0  0  0  0  0  0
   -7.2253    3.1814  -29.9266 C   0  0  0  0  0  0  0  0  0  0  0  0
   -7.7603    3.5217  -32.3366 C   0  0  0  0  0  0  0  0  0  0  0  0
   -7.3349    3.8956  -28.7435 C   0  0  0  0  0  0  0  0  0  0  0  0
   -8.0726    5.1655  -28.7343 C   0  0  0  0  0  0  0  0  0  0  0  0
   -7.5981    4.1354  -33.2364 O   0  0  0  0  0  0  0  0  0  0  0  0
   -8.3990    5.7888  -27.3848 O   0  0  0  0  0  0  0  0  0  0  0  0
   -8.2905    7.0945  -27.4454 C   0  0  0  0  0  0  0  0  0  0  0  0
   -8.1056    2.1952  -32.3200 O   0  0  0  0  0  0  0  0  0  0  0  0
   -8.2434    5.8938  -29.8249 C   0  0  0  0  0  0  0  0  0  0  0  0
  1  2  1  0
  2  3  2  0
  2  4  1  0
  3  5  1  0
  5  6  2  0
  4  7  2  0
  6  8  1  0
  8  9  1  0
  4 10  1  0
  1 11  1  0
  6 11  1  0
M  END
>  <ID>  (1) 
conformer_0

$$$$
