
     RDKit          3D

 10 10  0  0  0  0  0  0  0  0999 V2000
   -6.6924    3.8495  -30.2856 O   0  0  0  0  0  0  0  0  0  0  0  0
   -7.0918    3.1227  -31.4761 C   0  0  0  0  0  0  0  0  0  0  0  0
   -7.8171    4.0705  -29.3964 C   0  0  0  0  0  0  0  0  0  0  0  0
   -8.9369    3.8719  -29.7382 C   0  0  0  0  0  0  0  0  0  0  0  0
  -10.1449    4.1661  -28.9002 C   0  0  0  0  0  0  0  0  0  0  0  0
   -9.8613    4.8614  -27.7971 C   0  0  0  0  0  0  0  0  0  0  0  0
   -6.1724    2.1435  -31.9076 O   0  0  0  0  0  0  0  0  0  0  0  0
   -8.5751    5.2101  -27.4124 C   0  0  0  0  0  0  0  0  0  0  0  0
   -8.0506    3.3848  -32.2888 O   0  0  0  0  0  0  0  0  0  0  0  0
   -7.4996    4.9029  -28.2612 C   0  0  0  0  0  0  0  0  0  0  0  0
  1  2  1  0
  1  3  1  0
  3  4  2  0
  4  5  1  0
  5  6  2  0
  2  7  1  0
  6  8  1  0
  2  9  2  0
  3 10  1  0
  8 10  2  0
M  END
>  <ID>  (1) 
conformer_0

$$$$
