
     RDKit          3D

 12 13  0  0  0  0  0  0  0  0999 V2000
   -7.6618    5.8402  -28.6760 N   0  0  0  0  0  0  0  0  0  0  0  0
   -8.1863    4.8799  -29.3852 C   0  0  0  0  0  0  0  0  0  0  0  0
   -8.8748    4.0064  -28.7586 C   0  0  0  0  0  0  0  0  0  0  0  0
   -8.9330    4.2740  -27.3689 C   0  0  0  0  0  0  0  0  0  0  0  0
   -9.3729    2.8541  -29.4121 C   0  0  0  0  0  0  0  0  0  0  0  0
   -7.7361    4.9104  -30.7678 N   0  0  0  0  0  0  0  0  0  0  0  0
   -8.1300    3.6747  -31.4190 C   0  0  0  0  0  0  0  0  0  0  0  0
   -8.1418    5.6251  -27.3368 C   0  0  0  0  0  0  0  0  0  0  0  0
   -7.4434    3.2476  -32.4827 C   0  0  0  0  0  0  0  0  0  0  0  0
   -7.6866    3.5381  -33.7116 O   0  0  0  0  0  0  0  0  0  0  0  0
   -6.4867    2.3885  -32.2689 O   0  0  0  0  0  0  0  0  0  0  0  0
   -8.6846    2.6134  -30.6537 C   0  0  0  0  0  0  0  0  0  0  0  0
  1  2  1  0
  2  3  2  0
  3  4  1  0
  3  5  1  0
  2  6  1  0
  6  7  1  0
  1  8  1  0
  4  8  2  0
  7  9  1  0
  9 10  1  0
  9 11  2  0
  5 12  1  0
  7 12  2  0
M  END
>  <ID>  (1) 
conformer_0

$$$$
