
     RDKit          3D

 12 13  0  0  0  0  0  0  0  0999 V2000
   -6.6924    3.8495  -30.2856 O   0  0  0  0  0  0  0  0  0  0  0  0
   -7.0918    3.1227  -31.4761 C   0  0  0  0  0  0  0  0  0  0  0  0
   -7.7230    4.4935  -29.5744 C   0  0  0  0  0  0  0  0  0  0  0  0
   -6.1693    2.3607  -32.1683 O   0  0  0  0  0  0  0  0  0  0  0  0
   -8.4318    3.1786  -31.7705 C   0  0  0  0  0  0  0  0  0  0  0  0
   -9.2905    3.6661  -30.9777 N   0  0  0  0  0  0  0  0  0  0  0  0
   -8.9619    4.4264  -29.8644 C   0  0  0  0  0  0  0  0  0  0  0  0
   -7.3168    5.4758  -28.5156 C   0  0  0  0  0  0  0  0  0  0  0  0
   -8.0465    6.0526  -27.8406 C   0  0  0  0  0  0  0  0  0  0  0  0
   -8.8125    2.8707  -33.1098 O   0  0  0  0  0  0  0  0  0  0  0  0
   -9.4794    5.8645  -27.9489 C   0  0  0  0  0  0  0  0  0  0  0  0
  -10.0403    4.9821  -28.9727 C   0  0  0  0  0  0  0  0  0  0  0  0
  1  2  1  0
  1  3  1  0
  2  4  2  0
  2  5  1  0
  5  6  2  0
  3  7  2  0
  6  7  1  0
  3  8  1  0
  8  9  2  0
  5 10  1  0
  9 11  1  0
  7 12  1  0
 11 12  2  0
M  END
>  <ID>  (1) 
conformer_0

$$$$
