
     RDKit          3D

 11 11  0  0  0  0  0  0  0  0999 V2000
   -7.4472    5.2233  -30.7957 O   0  0  0  0  0  0  0  0  0  0  0  0
   -7.5180    3.8856  -31.0244 C   0  0  0  0  0  0  0  0  0  0  0  0
   -8.4657    5.4983  -29.7978 C   0  0  0  0  0  0  0  0  0  0  0  0
   -9.4797    4.5765  -29.7783 C   0  0  0  0  0  0  0  0  0  0  0  0
   -7.1148    3.5645  -32.3500 O   0  0  0  0  0  0  0  0  0  0  0  0
   -6.7581    2.1920  -32.7178 O   0  0  0  0  0  0  0  0  0  0  0  0
   -7.6324    5.6195  -28.4996 C   0  0  0  0  0  0  0  0  0  0  0  0
   -8.0044    6.6226  -27.6861 O   0  0  0  0  0  0  0  0  0  0  0  0
   -8.9645    3.4001  -30.6442 C   0  0  0  0  0  0  0  0  0  0  0  0
  -10.2057    4.2081  -28.8394 O   0  0  0  0  0  0  0  0  0  0  0  0
   -9.6221    3.1688  -31.9570 O   0  0  0  0  0  0  0  0  0  0  0  0
  1  2  1  0
  1  3  1  0
  3  4  1  0
  2  5  1  0
  5  6  1  0
  3  7  1  0
  7  8  1  0
  2  9  1  0
  4  9  1  0
  4 10  1  0
  9 11  1  0
M  END
>  <ID>  (1) 
conformer_0

$$$$
