
     RDKit          3D

 10 10  0  0  0  0  0  0  0  0999 V2000
  -10.3440    4.7481  -27.8110 C   0  0  0  0  0  0  0  0  0  0  0  0
   -9.1896    5.4293  -27.9524 C   0  0  0  0  0  0  0  0  0  0  0  0
   -8.2646    5.0999  -29.0079 C   0  0  0  0  0  0  0  0  0  0  0  0
   -8.5627    4.0399  -29.8490 C   0  0  0  0  0  0  0  0  0  0  0  0
   -7.5885    3.7085  -30.9364 C   0  0  0  0  0  0  0  0  0  0  0  0
   -7.8069    4.2093  -32.0514 O   0  0  0  0  0  0  0  0  0  0  0  0
   -9.8259    3.3419  -29.3684 C   0  0  0  0  0  0  0  0  0  0  0  0
  -10.6014    3.6929  -28.4544 C   0  0  0  0  0  0  0  0  0  0  0  0
   -6.6192    2.8639  -30.6997 O   0  0  0  0  0  0  0  0  0  0  0  0
   -6.9806    5.8584  -29.2352 O   0  0  0  0  0  0  0  0  0  0  0  0
  1  2  2  0
  2  3  1  0
  3  4  2  0
  4  5  1  0
  5  6  1  0
  4  7  1  0
  1  8  1  0
  7  8  2  0
  5  9  2  0
  3 10  1  0
M  END
>  <ID>  (1) 
conformer_0

$$$$
