
     RDKit          3D

  6  5  0  0  0  0  0  0  0  0999 V2000
  -10.1693    5.4260  -27.6701 O   0  0  0  0  0  0  0  0  0  0  0  0
   -9.2865    5.1470  -28.5296 C   0  0  0  0  0  0  0  0  0  0  0  0
   -9.4899    4.0531  -29.3423 C   0  0  0  0  0  0  0  0  0  0  0  0
   -8.6027    6.2405  -29.2059 C   0  0  0  0  0  0  0  0  0  0  0  0
   -7.6995    5.6092  -30.2847 O   0  0  0  0  0  0  0  0  0  0  0  0
  -10.6235    3.9403  -29.9351 C   0  0  0  0  0  0  0  0  0  0  0  0
  1  2  1  0
  2  3  1  0
  2  4  1  0
  4  5  1  0
  3  6  2  0
M  END
>  <ID>  (1) 
conformer_0

$$$$
