
     RDKit          3D

 12 11  0  0  0  0  0  0  0  0999 V2000
   -6.0814    2.0600  -32.3147 O   0  0  0  0  0  0  0  0  0  0  0  0
   -7.2756    2.7157  -32.2694 P   0  0  0  0  0  0  0  0  0  0  0  0
   -8.3492    1.9357  -32.1513 O   0  0  0  0  0  0  0  0  0  0  0  0
   -7.2811    3.6519  -33.3543 O   0  0  0  0  0  0  0  0  0  0  0  0
   -7.1428    3.6523  -30.8575 O   0  0  0  0  0  0  0  0  0  0  0  0
   -8.2187    4.2672  -30.2269 C   0  0  0  0  0  0  0  0  0  0  0  0
   -8.3553    3.9620  -28.9106 C   0  0  0  0  0  0  0  0  0  0  0  0
   -7.9100    4.9549  -28.0475 O   0  0  0  0  0  0  0  0  0  0  0  0
   -9.7987    3.6765  -28.4876 C   0  0  0  0  0  0  0  0  0  0  0  0
   -8.4265    6.1773  -28.1720 C   0  0  0  0  0  0  0  0  0  0  0  0
  -10.5606    3.3436  -29.3319 O   0  0  0  0  0  0  0  0  0  0  0  0
  -10.1248    4.1615  -27.3460 O   0  0  0  0  0  0  0  0  0  0  0  0
  1  2  1  0
  2  3  2  0
  2  4  1  0
  2  5  1  0
  5  6  1  0
  6  7  1  0
  7  8  1  0
  7  9  1  0
  8 10  1  0
  9 11  2  0
  9 12  1  0
M  END
>  <ID>  (1) 
conformer_0

$$$$
