
     RDKit          3D

  9  9  0  0  0  0  0  0  0  0999 V2000
  -10.1693    5.4260  -27.6701 N   0  0  0  0  0  0  0  0  0  0  0  0
   -9.3415    5.0492  -28.5785 C   0  0  0  0  0  0  0  0  0  0  0  0
   -8.0277    5.6079  -28.6839 C   0  0  0  0  0  0  0  0  0  0  0  0
   -7.5901    6.5447  -27.7484 C   0  0  0  0  0  0  0  0  0  0  0  0
   -7.2295    5.1617  -29.7631 C   0  0  0  0  0  0  0  0  0  0  0  0
   -9.7418    4.1457  -29.6259 C   0  0  0  0  0  0  0  0  0  0  0  0
   -7.6329    4.2735  -30.6637 N   0  0  0  0  0  0  0  0  0  0  0  0
   -8.8637    3.7662  -30.6285 C   0  0  0  0  0  0  0  0  0  0  0  0
  -11.2074    3.5674  -29.5240 C   0  0  0  0  0  0  0  0  0  0  0  0
  1  2  1  0
  2  3  2  0
  3  4  1  0
  3  5  1  0
  2  6  1  0
  5  7  2  0
  6  8  2  0
  7  8  1  0
  6  9  1  0
M  END
>  <ID>  (1) 
conformer_0

$$$$
