
     RDKit          3D

 12 12  0  0  0  0  0  0  0  0999 V2000
  -10.7206    3.3766  -29.3973 C   0  0  0  0  0  0  0  0  0  0  0  0
   -9.8594    4.3580  -29.2642 C   0  0  0  0  0  0  0  0  0  0  0  0
   -9.6347    4.7573  -27.8950 C   0  0  0  0  0  0  0  0  0  0  0  0
   -8.5149    4.0381  -30.0279 C   0  0  0  0  0  0  0  0  0  0  0  0
   -7.3842    4.6408  -29.5584 C   0  0  0  0  0  0  0  0  0  0  0  0
  -11.3494    2.9283  -28.5175 O   0  0  0  0  0  0  0  0  0  0  0  0
  -10.9543    2.9393  -30.7430 N   0  0  0  0  0  0  0  0  0  0  0  0
   -8.2975    3.4709  -31.1961 C   0  0  0  0  0  0  0  0  0  0  0  0
   -7.0657    3.1719  -31.5834 C   0  0  0  0  0  0  0  0  0  0  0  0
   -9.7486    6.1687  -27.6598 O   0  0  0  0  0  0  0  0  0  0  0  0
   -6.7241    2.4604  -32.8406 O   0  0  0  0  0  0  0  0  0  0  0  0
   -6.1943    3.5613  -30.6383 N   0  0  0  0  0  0  0  0  0  0  0  0
  1  2  1  0
  2  3  1  0
  2  4  1  0
  4  5  2  0
  1  6  2  0
  1  7  1  0
  4  8  1  0
  8  9  1  0
  3 10  1  0
  9 11  2  0
  5 12  1  0
  9 12  1  0
M  END
>  <ID>  (1) 
conformer_0

$$$$
