
     RDKit          3D

  9  9  0  0  0  0  0  0  0  0999 V2000
   -6.9695    2.6537  -32.5169 O   0  0  0  0  0  0  0  0  0  0  0  0
   -6.8248    2.6181  -31.4654 C   0  0  0  0  0  0  0  0  0  0  0  0
   -6.5791    1.6073  -30.8820 O   0  0  0  0  0  0  0  0  0  0  0  0
   -7.5320    3.6378  -30.5479 C   0  0  0  0  0  0  0  0  0  0  0  0
   -6.8444    4.0532  -29.4716 C   0  0  0  0  0  0  0  0  0  0  0  0
   -7.5008    5.0222  -28.6665 C   0  0  0  0  0  0  0  0  0  0  0  0
   -8.6281    4.4858  -30.9862 C   0  0  0  0  0  0  0  0  0  0  0  0
   -8.6459    5.6741  -28.9264 C   0  0  0  0  0  0  0  0  0  0  0  0
   -9.2063    5.3527  -30.1789 C   0  0  0  0  0  0  0  0  0  0  0  0
  1  2  2  0
  2  3  1  0
  2  4  1  0
  4  5  1  0
  5  6  2  0
  4  7  2  0
  6  8  1  0
  7  9  1  0
  8  9  2  0
M  END
>  <ID>  (1) 
conformer_0

$$$$
