
     RDKit          3D

 12 12  0  0  0  0  0  0  0  0999 V2000
   -6.0814    2.0600  -32.3147 O   0  0  0  0  0  0  0  0  0  0  0  0
   -7.2756    2.7157  -32.2694 P   0  0  0  0  0  0  0  0  0  0  0  0
   -8.3492    1.9357  -32.1513 O   0  0  0  0  0  0  0  0  0  0  0  0
   -7.2811    3.6519  -33.3543 O   0  0  0  0  0  0  0  0  0  0  0  0
   -7.1428    3.6523  -30.8575 O   0  0  0  0  0  0  0  0  0  0  0  0
   -8.2187    4.2672  -30.2269 C   0  0  0  0  0  0  0  0  0  0  0  0
   -8.3553    3.9620  -28.9106 C   0  0  0  0  0  0  0  0  0  0  0  0
   -7.9100    4.9549  -28.0475 O   0  0  0  0  0  0  0  0  0  0  0  0
   -8.5555    6.1754  -28.0314 C   0  0  0  0  0  0  0  0  0  0  0  0
   -9.8865    3.7993  -28.6601 C   0  0  0  0  0  0  0  0  0  0  0  0
   -9.9525    5.9828  -27.6277 C   0  0  0  0  0  0  0  0  0  0  0  0
  -10.2439    4.7828  -27.4715 C   0  0  0  0  0  0  0  0  0  0  0  0
  1  2  1  0
  2  3  2  0
  2  4  1  0
  2  5  1  0
  5  6  1  0
  6  7  1  0
  7  8  1  0
  8  9  1  0
  7 10  1  0
  9 11  1  0
 10 12  1  0
 11 12  1  0
M  END
>  <ID>  (1) 
conformer_0

$$$$
