
     RDKit          3D

 12 12  0  0  0  0  0  0  0  0999 V2000
   -6.3719    3.9653  -30.5957 O   0  0  0  0  0  0  0  0  0  0  0  0
   -7.3729    3.2770  -31.2225 C   0  0  0  0  0  0  0  0  0  0  0  0
   -6.8462    4.3681  -29.2624 C   0  0  0  0  0  0  0  0  0  0  0  0
   -8.5118    3.9681  -31.3731 C   0  0  0  0  0  0  0  0  0  0  0  0
   -9.5290    3.0811  -31.8861 O   0  0  0  0  0  0  0  0  0  0  0  0
   -8.1828    5.0966  -29.4163 C   0  0  0  0  0  0  0  0  0  0  0  0
   -6.7832    2.7653  -32.5307 C   0  0  0  0  0  0  0  0  0  0  0  0
   -9.0844    4.4729  -30.0067 C   0  0  0  0  0  0  0  0  0  0  0  0
   -7.1593    3.1504  -33.5428 O   0  0  0  0  0  0  0  0  0  0  0  0
  -10.3779    5.1261  -29.9842 O   0  0  0  0  0  0  0  0  0  0  0  0
   -6.1986    1.6126  -32.4730 O   0  0  0  0  0  0  0  0  0  0  0  0
   -8.4948    5.6044  -28.0477 O   0  0  0  0  0  0  0  0  0  0  0  0
  1  2  1  0
  1  3  1  0
  2  4  1  0
  4  5  1  0
  3  6  1  0
  2  7  1  0
  4  8  1  0
  6  8  1  0
  7  9  2  0
  8 10  1  0
  7 11  1  0
  6 12  1  0
M  END
>  <ID>  (1) 
conformer_0

$$$$
