
     RDKit          3D

 11 10  0  0  0  0  0  0  0  0999 V2000
   -7.1686    3.1704  -33.2481 O   0  0  0  0  0  0  0  0  0  0  0  0
   -7.1923    2.5588  -32.0753 P   0  0  0  0  0  0  0  0  0  0  0  0
   -8.0265    1.5181  -32.0444 O   0  0  0  0  0  0  0  0  0  0  0  0
   -7.5704    3.6104  -30.8583 O   0  0  0  0  0  0  0  0  0  0  0  0
   -8.6952    4.3444  -30.7975 C   0  0  0  0  0  0  0  0  0  0  0  0
   -8.7817    5.3616  -29.7871 C   0  0  0  0  0  0  0  0  0  0  0  0
   -9.0476    4.8767  -28.4909 C   0  0  0  0  0  0  0  0  0  0  0  0
   -5.7173    2.0952  -31.8184 O   0  0  0  0  0  0  0  0  0  0  0  0
   -8.6716    5.7272  -27.4639 C   0  0  0  0  0  0  0  0  0  0  0  0
   -8.4755    3.6440  -28.1949 C   0  0  0  0  0  0  0  0  0  0  0  0
  -10.5418    4.7324  -28.4324 C   0  0  0  0  0  0  0  0  0  0  0  0
  1  2  1  0
  2  3  2  0
  2  4  1  0
  4  5  1  0
  5  6  1  0
  6  7  1  0
  2  8  1  0
  7  9  1  0
  7 10  1  0
  7 11  1  0
M  END
>  <ID>  (1) 
conformer_0

$$$$
