
     RDKit          3D

  6  5  0  0  0  0  0  0  0  0999 V2000
   -7.4472    5.2233  -30.7957 O   0  0  0  0  0  0  0  0  0  0  0  0
   -7.5180    3.8856  -31.0244 C   0  0  0  0  0  0  0  0  0  0  0  0
   -7.2824    3.3506  -32.3116 C   0  0  0  0  0  0  0  0  0  0  0  0
   -6.7457    3.3089  -29.9269 O   0  0  0  0  0  0  0  0  0  0  0  0
   -7.8021    3.7346  -33.2619 O   0  0  0  0  0  0  0  0  0  0  0  0
   -6.3084    2.4627  -32.3015 O   0  0  0  0  0  0  0  0  0  0  0  0
  1  2  1  0
  2  3  1  0
  2  4  1  0
  3  5  1  0
  3  6  2  0
M  END
>  <ID>  (1) 
conformer_0

$$$$
