
     RDKit          3D

 12 12  0  0  0  0  0  0  0  0999 V2000
   -7.1344    3.2577  -33.1166 O   0  0  0  0  0  0  0  0  0  0  0  0
   -7.1420    2.5434  -32.0678 P   0  0  0  0  0  0  0  0  0  0  0  0
   -7.5074    3.4849  -30.9380 O   0  0  0  0  0  0  0  0  0  0  0  0
   -8.7553    3.6310  -30.2057 C   0  0  0  0  0  0  0  0  0  0  0  0
   -8.1490    1.4296  -32.0205 O   0  0  0  0  0  0  0  0  0  0  0  0
   -5.7606    2.0725  -31.6333 O   0  0  0  0  0  0  0  0  0  0  0  0
   -8.9362    4.5868  -29.0519 C   0  0  0  0  0  0  0  0  0  0  0  0
   -7.6932    5.3977  -28.8474 C   0  0  0  0  0  0  0  0  0  0  0  0
   -7.7445    6.1798  -27.7147 C   0  0  0  0  0  0  0  0  0  0  0  0
   -9.9229    4.7513  -28.2947 C   0  0  0  0  0  0  0  0  0  0  0  0
   -9.9537    5.6587  -27.2837 C   0  0  0  0  0  0  0  0  0  0  0  0
   -8.8564    6.4482  -26.9548 N   0  0  0  0  0  0  0  0  0  0  0  0
  1  2  1  0
  2  3  1  0
  3  4  1  0
  2  5  2  0
  2  6  1  0
  4  7  1  0
  7  8  1  0
  8  9  2  0
  7 10  2  0
 10 11  1  0
  9 12  1  0
 11 12  2  0
M  END
>  <ID>  (1) 
conformer_0

$$$$
