
     RDKit          3D

 11 10  0  0  0  0  0  0  0  0999 V2000
  -10.5865    3.8415  -28.1185 C   0  0  0  0  0  0  0  0  0  0  0  0
   -9.6300    4.6036  -28.8209 C   0  0  0  0  0  0  0  0  0  0  0  0
   -8.9050    3.7813  -29.8562 C   0  0  0  0  0  0  0  0  0  0  0  0
   -7.6186    4.1397  -30.3780 C   0  0  0  0  0  0  0  0  0  0  0  0
   -6.7849    4.4446  -29.2732 O   0  0  0  0  0  0  0  0  0  0  0  0
   -7.0342    2.9516  -31.1532 C   0  0  0  0  0  0  0  0  0  0  0  0
   -7.4167    2.8393  -32.4525 C   0  0  0  0  0  0  0  0  0  0  0  0
   -8.5310    3.1723  -32.8561 O   0  0  0  0  0  0  0  0  0  0  0  0
   -6.5933    2.3607  -33.2420 O   0  0  0  0  0  0  0  0  0  0  0  0
   -7.0642    1.8842  -30.5479 O   0  0  0  0  0  0  0  0  0  0  0  0
   -9.3077    5.7067  -28.4236 O   0  0  0  0  0  0  0  0  0  0  0  0
  1  2  1  0
  2  3  1  0
  3  4  1  0
  4  5  1  0
  4  6  1  0
  6  7  1  0
  7  8  1  0
  7  9  2  0
  6 10  1  0
  2 11  2  0
M  END
>  <ID>  (1) 
conformer_0

$$$$
