
     RDKit          3D

 12 12  0  0  0  0  0  0  0  0999 V2000
  -10.3440    4.7481  -27.8110 C   0  0  0  0  0  0  0  0  0  0  0  0
   -9.1896    5.4293  -27.9524 C   0  0  0  0  0  0  0  0  0  0  0  0
   -8.2646    5.0999  -29.0079 C   0  0  0  0  0  0  0  0  0  0  0  0
   -7.0343    5.7581  -29.1728 O   0  0  0  0  0  0  0  0  0  0  0  0
   -8.5909    4.1920  -29.9890 C   0  0  0  0  0  0  0  0  0  0  0  0
  -11.1610    5.0943  -26.7972 N   0  0  0  0  0  0  0  0  0  0  0  0
   -9.8246    3.4905  -29.7667 C   0  0  0  0  0  0  0  0  0  0  0  0
  -10.6911    3.8025  -28.7162 N   0  0  0  0  0  0  0  0  0  0  0  0
   -7.7347    3.7665  -31.0981 C   0  0  0  0  0  0  0  0  0  0  0  0
   -6.7156    2.7996  -30.8851 C   0  0  0  0  0  0  0  0  0  0  0  0
   -6.3424    2.2282  -32.1228 O   0  0  0  0  0  0  0  0  0  0  0  0
   -8.1178    4.3241  -32.1835 O   0  0  0  0  0  0  0  0  0  0  0  0
  1  2  2  0
  2  3  1  0
  3  4  1  0
  3  5  2  0
  1  6  1  0
  5  7  1  0
  1  8  1  0
  7  8  2  0
  5  9  1  0
  9 10  1  0
 10 11  1  0
  9 12  2  0
M  END
>  <ID>  (1) 
conformer_0

$$$$
