
     RDKit          3D

 12 12  0  0  0  0  0  0  0  0999 V2000
   -6.6924    3.8495  -30.2856 O   0  0  0  0  0  0  0  0  0  0  0  0
   -7.0918    3.1227  -31.4761 P   0  0  0  0  0  0  0  0  0  0  0  0
   -7.6855    4.3919  -29.3619 C   0  0  0  0  0  0  0  0  0  0  0  0
   -7.6168    4.0690  -32.4286 O   0  0  0  0  0  0  0  0  0  0  0  0
   -8.1510    2.1139  -31.1308 O   0  0  0  0  0  0  0  0  0  0  0  0
   -8.9200    3.9080  -29.3084 C   0  0  0  0  0  0  0  0  0  0  0  0
   -9.9246    4.3756  -28.4865 C   0  0  0  0  0  0  0  0  0  0  0  0
  -11.2101    3.8152  -28.6192 C   0  0  0  0  0  0  0  0  0  0  0  0
   -7.3554    5.4637  -28.4284 C   0  0  0  0  0  0  0  0  0  0  0  0
   -8.2446    6.1706  -27.8088 C   0  0  0  0  0  0  0  0  0  0  0  0
   -5.9657    2.2230  -32.0754 O   0  0  0  0  0  0  0  0  0  0  0  0
   -9.5963    5.5778  -27.7764 C   0  0  0  0  0  0  0  0  0  0  0  0
  1  2  1  0
  1  3  1  0
  2  4  1  0
  2  5  1  0
  3  6  2  0
  6  7  1  0
  7  8  1  0
  3  9  1  0
  9 10  2  0
  2 11  2  0
  7 12  2  0
 10 12  1  0
M  END
>  <ID>  (1) 
conformer_0

$$$$
