
     RDKit          3D

 11 11  0  0  0  0  0  0  0  0999 V2000
   -6.6265    3.7414  -30.1777 O   0  0  0  0  0  0  0  0  0  0  0  0
   -7.0412    3.1362  -31.3513 C   0  0  0  0  0  0  0  0  0  0  0  0
   -7.6695    4.1107  -29.3049 C   0  0  0  0  0  0  0  0  0  0  0  0
   -7.5878    5.2533  -28.6644 C   0  0  0  0  0  0  0  0  0  0  0  0
   -8.6521    5.7489  -27.8708 C   0  0  0  0  0  0  0  0  0  0  0  0
   -9.8472    4.9903  -27.8276 C   0  0  0  0  0  0  0  0  0  0  0  0
  -10.8782    5.5217  -27.0881 O   0  0  0  0  0  0  0  0  0  0  0  0
   -6.4152    2.2646  -32.0160 O   0  0  0  0  0  0  0  0  0  0  0  0
   -8.8694    3.4785  -29.4090 C   0  0  0  0  0  0  0  0  0  0  0  0
   -9.9665    3.9005  -28.6515 C   0  0  0  0  0  0  0  0  0  0  0  0
   -7.7669    4.0513  -32.2927 C   0  0  0  0  0  0  0  0  0  0  0  0
  1  2  1  0
  1  3  1  0
  3  4  1  0
  4  5  2  0
  5  6  1  0
  6  7  1  0
  2  8  2  0
  3  9  2  0
  6 10  2  0
  9 10  1  0
  2 11  1  0
M  END
>  <ID>  (1) 
conformer_0

$$$$
