
     RDKit          3D

 12 12  0  0  0  0  0  0  0  0999 V2000
   -6.6265    3.7414  -30.1777 O   0  0  0  0  0  0  0  0  0  0  0  0
   -7.4127    3.4623  -31.1993 C   0  0  0  0  0  0  0  0  0  0  0  0
   -8.6104    3.9419  -31.1831 C   0  0  0  0  0  0  0  0  0  0  0  0
   -6.9717    4.8766  -29.4564 C   0  0  0  0  0  0  0  0  0  0  0  0
   -8.4142    4.9806  -29.4653 C   0  0  0  0  0  0  0  0  0  0  0  0
   -6.9119    2.5392  -32.2351 C   0  0  0  0  0  0  0  0  0  0  0  0
   -7.3873    2.5574  -33.2634 O   0  0  0  0  0  0  0  0  0  0  0  0
   -9.1469    4.8177  -30.3973 N   0  0  0  0  0  0  0  0  0  0  0  0
  -10.5613    4.7184  -30.1463 C   0  0  0  0  0  0  0  0  0  0  0  0
   -5.9545    1.8016  -31.8384 O   0  0  0  0  0  0  0  0  0  0  0  0
   -8.8745    5.6140  -28.2632 O   0  0  0  0  0  0  0  0  0  0  0  0
  -10.8959    3.7528  -29.0654 C   0  0  0  0  0  0  0  0  0  0  0  0
  1  2  1  0
  2  3  2  0
  1  4  1  0
  4  5  1  0
  2  6  1  0
  6  7  2  0
  3  8  1  0
  5  8  1  0
  8  9  1  0
  6 10  1  0
  5 11  2  0
  9 12  1  0
M  END
>  <ID>  (1) 
conformer_0

$$$$
