
     RDKit          3D

 11 11  0  0  0  0  0  0  0  0999 V2000
   -7.6835    5.3041  -30.7538 O   0  0  0  0  0  0  0  0  0  0  0  0
   -7.5893    4.0110  -30.9728 C   0  0  0  0  0  0  0  0  0  0  0  0
   -7.3834    3.5294  -32.2639 C   0  0  0  0  0  0  0  0  0  0  0  0
   -8.1934    5.5760  -29.3499 C   0  0  0  0  0  0  0  0  0  0  0  0
   -8.7516    3.1792  -30.3979 C   0  0  0  0  0  0  0  0  0  0  0  0
   -9.3463    4.8910  -28.9866 C   0  0  0  0  0  0  0  0  0  0  0  0
   -9.6195    5.1373  -27.5410 O   0  0  0  0  0  0  0  0  0  0  0  0
   -6.5829    2.4110  -32.4324 O   0  0  0  0  0  0  0  0  0  0  0  0
   -9.2558    3.4666  -29.1470 C   0  0  0  0  0  0  0  0  0  0  0  0
   -8.2751    2.9699  -28.1129 O   0  0  0  0  0  0  0  0  0  0  0  0
   -7.8719    4.0325  -33.2266 O   0  0  0  0  0  0  0  0  0  0  0  0
  1  2  1  0
  2  3  1  0
  1  4  1  0
  2  5  1  0
  4  6  1  0
  6  7  1  0
  3  8  2  0
  5  9  1  0
  6  9  1  0
  9 10  1  0
  3 11  1  0
M  END
>  <ID>  (1) 
conformer_0

$$$$
