
     RDKit          3D

 11 11  0  0  0  0  0  0  0  0999 V2000
   -5.7078    2.1093  -31.8063 O   0  0  0  0  0  0  0  0  0  0  0  0
   -6.9959    2.5631  -32.3568 C   0  0  0  0  0  0  0  0  0  0  0  0
   -7.6549    3.4112  -31.4878 C   0  0  0  0  0  0  0  0  0  0  0  0
   -8.6857    4.1045  -31.9090 N   0  0  0  0  0  0  0  0  0  0  0  0
   -7.1307    3.7249  -30.1214 C   0  0  0  0  0  0  0  0  0  0  0  0
   -9.3535    5.0114  -31.0824 C   0  0  0  0  0  0  0  0  0  0  0  0
   -7.4205    2.2865  -33.4024 O   0  0  0  0  0  0  0  0  0  0  0  0
   -8.9258    5.2933  -29.7207 C   0  0  0  0  0  0  0  0  0  0  0  0
   -7.7546    4.6361  -29.2708 C   0  0  0  0  0  0  0  0  0  0  0  0
   -9.5743    6.2042  -28.7746 O   0  0  0  0  0  0  0  0  0  0  0  0
   -7.2635    4.9506  -28.0549 O   0  0  0  0  0  0  0  0  0  0  0  0
  1  2  1  0
  2  3  1  0
  3  4  2  0
  3  5  1  0
  4  6  1  0
  2  7  2  0
  6  8  2  0
  5  9  2  0
  8  9  1  0
  8 10  1  0
  9 11  1  0
M  END
>  <ID>  (1) 
conformer_0

$$$$
