
     RDKit          3D

 11 11  0  0  0  0  0  0  0  0999 V2000
  -10.7206    3.3766  -29.3973 C   0  0  0  0  0  0  0  0  0  0  0  0
   -9.8594    4.3580  -29.2642 C   0  0  0  0  0  0  0  0  0  0  0  0
   -9.6347    4.7573  -27.8950 C   0  0  0  0  0  0  0  0  0  0  0  0
   -8.5149    4.0381  -30.0279 C   0  0  0  0  0  0  0  0  0  0  0  0
   -7.3842    4.6408  -29.5584 C   0  0  0  0  0  0  0  0  0  0  0  0
  -11.3494    2.9283  -28.5175 O   0  0  0  0  0  0  0  0  0  0  0  0
   -8.4442    3.3868  -31.1504 C   0  0  0  0  0  0  0  0  0  0  0  0
   -6.2997    4.0718  -30.4581 O   0  0  0  0  0  0  0  0  0  0  0  0
   -7.0497    3.3046  -31.4666 C   0  0  0  0  0  0  0  0  0  0  0  0
   -6.6617    3.1466  -32.7694 O   0  0  0  0  0  0  0  0  0  0  0  0
   -9.4971    6.1942  -27.7083 N   0  0  0  0  0  0  0  0  0  0  0  0
  1  2  1  0
  2  3  1  0
  2  4  1  0
  4  5  2  0
  1  6  2  0
  4  7  1  0
  5  8  1  0
  7  9  1  0
  8  9  1  0
  9 10  1  0
  3 11  1  0
M  END
>  <ID>  (1) 
conformer_0

$$$$
