
     RDKit          3D

 12 12  0  0  0  0  0  0  0  0999 V2000
   -7.6835    5.3041  -30.7538 O   0  0  0  0  0  0  0  0  0  0  0  0
   -8.0660    5.1127  -29.4680 C   0  0  0  0  0  0  0  0  0  0  0  0
   -7.2203    4.0210  -31.0955 C   0  0  0  0  0  0  0  0  0  0  0  0
   -9.1975    4.2930  -29.1879 C   0  0  0  0  0  0  0  0  0  0  0  0
   -6.5234    3.3513  -30.3809 O   0  0  0  0  0  0  0  0  0  0  0  0
   -9.6373    4.1079  -27.8349 C   0  0  0  0  0  0  0  0  0  0  0  0
   -9.2004    4.9384  -26.8885 C   0  0  0  0  0  0  0  0  0  0  0  0
   -7.7037    3.4439  -32.3312 C   0  0  0  0  0  0  0  0  0  0  0  0
   -7.8012    6.0788  -28.4143 C   0  0  0  0  0  0  0  0  0  0  0  0
   -7.0806    2.2723  -32.7258 O   0  0  0  0  0  0  0  0  0  0  0  0
   -8.2779    5.9247  -27.1786 C   0  0  0  0  0  0  0  0  0  0  0  0
   -9.0149    3.4506  -32.5294 O   0  0  0  0  0  0  0  0  0  0  0  0
  1  2  1  0
  1  3  1  0
  2  4  1  0
  3  5  2  0
  4  6  2  0
  6  7  1  0
  3  8  1  0
  2  9  2  0
  8 10  1  0
  7 11  2  0
  9 11  1  0
  8 12  1  0
M  END
>  <ID>  (1) 
conformer_0

$$$$
