
     RDKit          3D

 12 12  0  0  0  0  0  0  0  0999 V2000
   -7.4314    5.2484  -30.6203 O   0  0  0  0  0  0  0  0  0  0  0  0
   -7.5505    3.9526  -31.0088 C   0  0  0  0  0  0  0  0  0  0  0  0
   -7.0640    3.5077  -32.2279 C   0  0  0  0  0  0  0  0  0  0  0  0
   -7.1310    3.1321  -29.8633 C   0  0  0  0  0  0  0  0  0  0  0  0
   -8.3814    5.6035  -29.5724 C   0  0  0  0  0  0  0  0  0  0  0  0
   -9.4092    4.7004  -29.3734 C   0  0  0  0  0  0  0  0  0  0  0  0
   -9.2185    3.9102  -31.0495 C   0  0  0  0  0  0  0  0  0  0  0  0
   -7.6256    3.8895  -33.2283 O   0  0  0  0  0  0  0  0  0  0  0  0
   -6.3694    2.4738  -32.2474 O   0  0  0  0  0  0  0  0  0  0  0  0
   -7.6044    5.8423  -28.1509 C   0  0  0  0  0  0  0  0  0  0  0  0
   -8.4539    6.3911  -27.2725 O   0  0  0  0  0  0  0  0  0  0  0  0
  -10.7198    5.2037  -29.3177 O   0  0  0  0  0  0  0  0  0  0  0  0
  1  2  1  0
  2  3  1  0
  2  4  1  0
  1  5  1  0
  5  6  1  0
  2  7  1  0
  6  7  1  0
  3  8  1  0
  3  9  2  0
  5 10  1  0
 10 11  1  0
  6 12  1  0
M  END
>  <ID>  (1) 
conformer_0

$$$$
