
     RDKit          3D

 11 11  0  0  0  0  0  0  0  0999 V2000
   -7.4472    5.2233  -30.7957 O   0  0  0  0  0  0  0  0  0  0  0  0
   -7.5180    3.8856  -31.0244 C   0  0  0  0  0  0  0  0  0  0  0  0
   -8.4657    5.4983  -29.7978 C   0  0  0  0  0  0  0  0  0  0  0  0
   -9.1611    4.1846  -29.4981 C   0  0  0  0  0  0  0  0  0  0  0  0
   -7.6592    5.8354  -28.5068 C   0  0  0  0  0  0  0  0  0  0  0  0
  -10.4105    4.2006  -28.9223 C   0  0  0  0  0  0  0  0  0  0  0  0
  -10.4056    4.5893  -27.6352 O   0  0  0  0  0  0  0  0  0  0  0  0
   -6.7844    3.1897  -32.0937 N   0  0  0  0  0  0  0  0  0  0  0  0
   -8.6635    3.3090  -30.4229 C   0  0  0  0  0  0  0  0  0  0  0  0
   -7.1533    2.9329  -33.1956 O   0  0  0  0  0  0  0  0  0  0  0  0
  -11.2294    3.2796  -29.1490 O   0  0  0  0  0  0  0  0  0  0  0  0
  1  2  1  0
  1  3  1  0
  3  4  1  0
  3  5  1  0
  4  6  1  0
  6  7  1  0
  2  8  1  0
  2  9  2  0
  4  9  2  0
  8 10  1  0
  6 11  2  0
M  END
>  <ID>  (1) 
conformer_0

$$$$
