
     RDKit          3D

 10  9  0  0  0  0  0  0  0  0999 V2000
   -6.6924    3.8495  -30.2856 C   0  0  0  0  0  0  0  0  0  0  0  0
   -7.5600    4.5536  -29.6564 N   0  0  0  0  0  0  0  0  0  0  0  0
   -7.3819    5.0895  -28.4358 C   0  0  0  0  0  0  0  0  0  0  0  0
   -8.7406    4.9752  -30.1251 C   0  0  0  0  0  0  0  0  0  0  0  0
   -7.1719    3.2328  -31.5054 C   0  0  0  0  0  0  0  0  0  0  0  0
   -8.1953    3.6128  -32.1208 O   0  0  0  0  0  0  0  0  0  0  0  0
   -6.2973    2.5949  -32.3206 O   0  0  0  0  0  0  0  0  0  0  0  0
   -9.8535    4.1369  -29.6899 C   0  0  0  0  0  0  0  0  0  0  0  0
  -10.8522    3.9442  -30.3037 O   0  0  0  0  0  0  0  0  0  0  0  0
   -9.8327    3.9145  -28.3552 O   0  0  0  0  0  0  0  0  0  0  0  0
  1  2  1  0
  2  3  1  0
  2  4  1  0
  1  5  1  0
  5  6  1  0
  5  7  2  0
  4  8  1  0
  8  9  2  0
  8 10  1  0
M  END
>  <ID>  (1) 
conformer_0

$$$$
