
     RDKit          3D

 10 10  0  0  0  0  0  0  0  0999 V2000
  -10.3440    4.7481  -27.8110 C   0  0  0  0  0  0  0  0  0  0  0  0
   -9.1896    5.4293  -27.9524 C   0  0  0  0  0  0  0  0  0  0  0  0
  -10.5911    3.7195  -28.5848 C   0  0  0  0  0  0  0  0  0  0  0  0
   -9.7581    3.3679  -29.6736 C   0  0  0  0  0  0  0  0  0  0  0  0
   -8.8164    6.5473  -27.1298 F   0  0  0  0  0  0  0  0  0  0  0  0
   -8.2614    5.2148  -29.0032 C   0  0  0  0  0  0  0  0  0  0  0  0
   -8.5938    4.1739  -29.8696 C   0  0  0  0  0  0  0  0  0  0  0  0
   -7.6228    3.7891  -31.0211 C   0  0  0  0  0  0  0  0  0  0  0  0
   -6.4725    3.4241  -30.6992 O   0  0  0  0  0  0  0  0  0  0  0  0
   -8.0656    3.6960  -32.2635 O   0  0  0  0  0  0  0  0  0  0  0  0
  1  2  2  0
  1  3  1  0
  3  4  2  0
  2  5  1  0
  2  6  1  0
  4  7  1  0
  6  7  2  0
  7  8  1  0
  8  9  1  0
  8 10  2  0
M  END
>  <ID>  (1) 
conformer_0

$$$$
