
     RDKit          3D

 11 11  0  0  0  0  0  0  0  0999 V2000
   -6.6924    3.8495  -30.2856 C   0  0  0  0  0  0  0  0  0  0  0  0
   -7.5600    4.5536  -29.6564 N   0  0  0  0  0  0  0  0  0  0  0  0
   -8.7582    4.2456  -29.2096 C   0  0  0  0  0  0  0  0  0  0  0  0
   -9.4410    3.3359  -29.9477 C   0  0  0  0  0  0  0  0  0  0  0  0
  -10.8819    3.1205  -29.6734 C   0  0  0  0  0  0  0  0  0  0  0  0
   -7.3372    3.0449  -31.3745 C   0  0  0  0  0  0  0  0  0  0  0  0
   -8.6426    2.6095  -31.0608 C   0  0  0  0  0  0  0  0  0  0  0  0
   -6.6642    2.5517  -32.4245 O   0  0  0  0  0  0  0  0  0  0  0  0
   -9.4979    5.1193  -28.2528 C   0  0  0  0  0  0  0  0  0  0  0  0
   -8.8597    6.2252  -27.8771 N   0  0  0  0  0  0  0  0  0  0  0  0
   -5.5213    4.1336  -30.4435 O   0  0  0  0  0  0  0  0  0  0  0  0
  1  2  1  0
  2  3  1  0
  3  4  2  0
  4  5  1  0
  1  6  1  0
  4  7  1  0
  6  7  2  0
  6  8  1  0
  3  9  1  0
  9 10  1  0
  1 11  2  0
M  END
>  <ID>  (1) 
conformer_0

$$$$
