
     RDKit          3D

 11 11  0  0  0  0  0  0  0  0999 V2000
   -6.6924    3.8495  -30.2856 C   0  0  0  0  0  0  0  0  0  0  0  0
   -7.5600    4.5536  -29.6564 N   0  0  0  0  0  0  0  0  0  0  0  0
   -7.2812    3.4336  -31.5443 C   0  0  0  0  0  0  0  0  0  0  0  0
   -8.6081    4.1097  -28.8656 C   0  0  0  0  0  0  0  0  0  0  0  0
   -9.0384    4.9216  -27.7070 C   0  0  0  0  0  0  0  0  0  0  0  0
   -8.4761    6.1341  -27.6306 N   0  0  0  0  0  0  0  0  0  0  0  0
   -9.7084    3.6322  -29.7434 C   0  0  0  0  0  0  0  0  0  0  0  0
   -8.0120    4.0888  -32.2880 O   0  0  0  0  0  0  0  0  0  0  0  0
  -10.5103    4.9204  -27.7260 N   0  0  0  0  0  0  0  0  0  0  0  0
   -6.5292    2.3857  -32.0967 O   0  0  0  0  0  0  0  0  0  0  0  0
  -10.9003    4.0918  -28.9612 C   0  0  0  0  0  0  0  0  0  0  0  0
  1  2  1  0
  1  3  1  0
  2  4  1  0
  4  5  1  0
  5  6  1  0
  4  7  1  0
  3  8  2  0
  5  9  1  0
  3 10  1  0
  7 11  1  0
  9 11  1  0
M  END
>  <ID>  (1) 
conformer_0

$$$$
