
     RDKit          3D

 12 12  0  0  0  0  0  0  0  0999 V2000
   -7.6835    5.3041  -30.7538 O   0  0  0  0  0  0  0  0  0  0  0  0
   -8.0660    5.1127  -29.4680 C   0  0  0  0  0  0  0  0  0  0  0  0
   -9.3338    4.5406  -29.2207 C   0  0  0  0  0  0  0  0  0  0  0  0
   -9.8705    4.8968  -27.9011 C   0  0  0  0  0  0  0  0  0  0  0  0
   -9.8903    3.6403  -29.9780 C   0  0  0  0  0  0  0  0  0  0  0  0
   -7.1004    4.0745  -31.3222 C   0  0  0  0  0  0  0  0  0  0  0  0
  -10.8455    4.2287  -27.4062 O   0  0  0  0  0  0  0  0  0  0  0  0
   -9.1719    5.8522  -27.1873 N   0  0  0  0  0  0  0  0  0  0  0  0
   -7.6752    6.3587  -28.7267 N   0  0  0  0  0  0  0  0  0  0  0  0
   -7.7065    3.3870  -32.5104 C   0  0  0  0  0  0  0  0  0  0  0  0
   -8.1241    6.5258  -27.6372 C   0  0  0  0  0  0  0  0  0  0  0  0
   -7.1055    2.2690  -32.8128 O   0  0  0  0  0  0  0  0  0  0  0  0
  1  2  1  0
  2  3  1  0
  3  4  1  0
  3  5  2  0
  1  6  1  0
  4  7  2  0
  4  8  1  0
  2  9  2  0
  6 10  1  0
  8 11  2  0
  9 11  1  0
 10 12  1  0
M  END
>  <ID>  (1) 
conformer_0

$$$$
