
     RDKit          3D

 11 11  0  0  0  0  0  0  0  0999 V2000
   -7.1239    2.9998  -33.0883 O   0  0  0  0  0  0  0  0  0  0  0  0
   -7.3070    2.8614  -31.8487 C   0  0  0  0  0  0  0  0  0  0  0  0
   -7.5179    3.8713  -30.9664 C   0  0  0  0  0  0  0  0  0  0  0  0
   -8.3773    4.8451  -31.2062 O   0  0  0  0  0  0  0  0  0  0  0  0
   -7.8275    3.4058  -29.6154 C   0  0  0  0  0  0  0  0  0  0  0  0
   -9.1315    3.6996  -29.1373 C   0  0  0  0  0  0  0  0  0  0  0  0
   -9.2535    5.0446  -30.0045 C   0  0  0  0  0  0  0  0  0  0  0  0
   -6.8535    1.7174  -31.3861 O   0  0  0  0  0  0  0  0  0  0  0  0
   -8.6478    6.1776  -29.2663 C   0  0  0  0  0  0  0  0  0  0  0  0
  -10.2455    2.8819  -29.5224 O   0  0  0  0  0  0  0  0  0  0  0  0
   -8.8173    6.0842  -27.9373 O   0  0  0  0  0  0  0  0  0  0  0  0
  1  2  2  0
  2  3  1  0
  3  4  1  0
  3  5  1  0
  5  6  1  0
  4  7  1  0
  6  7  1  0
  2  8  1  0
  7  9  1  0
  6 10  1  0
  9 11  1  0
M  END
>  <ID>  (1) 
conformer_0

$$$$
