
     RDKit          3D

 12 12  0  0  0  0  0  0  0  0999 V2000
  -20.8543   20.0576  -25.3221 O   0  0  0  0  0  0  0  0  0  0  0  0
  -21.3543   18.8576  -26.0221 C   0  0  0  0  0  0  0  0  0  0  0  0
  -22.3543   17.9576  -25.5221 C   0  0  0  0  0  0  0  0  0  0  0  0
  -21.4543   19.0576  -27.4221 C   0  0  0  0  0  0  0  0  0  0  0  0
  -20.5543   19.7576  -28.1221 O   0  0  0  0  0  0  0  0  0  0  0  0
  -22.4543   17.9576  -24.1221 O   0  0  0  0  0  0  0  0  0  0  0  0
  -23.3543   17.7576  -26.5221 C   0  0  0  0  0  0  0  0  0  0  0  0
  -22.5543   18.1576  -27.8221 C   0  0  0  0  0  0  0  0  0  0  0  0
  -22.9543   18.2576  -29.1221 O   0  0  0  0  0  0  0  0  0  0  0  0
  -22.6543   16.7576  -23.3221 C   0  0  0  0  0  0  0  0  0  0  0  0
  -22.0543   16.4576  -22.1221 F   0  0  0  0  0  0  0  0  0  0  0  0
  -23.8543   16.5576  -23.0221 F   0  0  0  0  0  0  0  0  0  0  0  0
  2  1  1  0
  3  2  2  0
  4  2  1  0
  5  4  1  0
  6  3  1  0
  7  3  1  0
  8  4  1  0
  8  7  2  0
  9  8  1  0
 10  6  1  0
 11 10  1  0
 12 10  1  0
M  END
>  <ID>  (1) 
conformer_0

$$$$
