
     RDKit          3D

 16 16  0  0  0  0  0  0  0  0999 V2000
  -20.4622   19.5356  -25.2462 O   0  0  0  0  0  0  0  0  0  0  0  0
  -19.9622   18.2356  -25.6462 C   0  0  0  0  0  0  0  0  0  0  0  0
  -20.4622   17.7356  -26.8462 C   0  0  0  0  0  0  0  0  0  0  0  0
  -18.7622   17.7356  -25.0462 C   0  0  0  0  0  0  0  0  0  0  0  0
  -21.2622   18.3356  -27.6462 O   0  0  0  0  0  0  0  0  0  0  0  0
  -22.6622   18.1356  -27.9462 C   0  0  0  0  0  0  0  0  0  0  0  0
  -18.0622   16.8356  -25.8462 C   0  0  0  0  0  0  0  0  0  0  0  0
  -18.6622   16.0356  -26.8462 C   0  0  0  0  0  0  0  0  0  0  0  0
  -20.0622   16.3356  -27.0462 C   0  0  0  0  0  0  0  0  0  0  0  0
  -23.1622   17.8356  -29.2462 C   0  0  0  0  0  0  0  0  0  0  0  0
  -24.1622   16.8356  -29.3462 O   0  0  0  0  0  0  0  0  0  0  0  0
  -24.9622   16.8356  -30.4462 C   0  0  0  0  0  0  0  0  0  0  0  0
  -20.4622   15.8356  -28.3462 O   0  0  0  0  0  0  0  0  0  0  0  0
  -19.2622   15.5356  -29.1462 C   0  0  0  0  0  0  0  0  0  0  0  0
  -19.3622   15.6356  -30.5462 C   0  0  0  0  0  0  0  0  0  0  0  0
  -20.6622   15.4356  -31.1462 O   0  0  0  0  0  0  0  0  0  0  0  0
  2  1  1  0
  3  2  2  0
  4  2  1  0
  5  3  1  0
  6  5  1  0
  7  4  2  0
  8  7  1  0
  9  3  1  0
  9  8  2  0
 10  6  1  0
 11 10  1  0
 12 11  1  0
 13  9  1  0
 14 13  1  0
 15 14  1  0
 16 15  1  0
M  END
>  <ID>  (1) 
conformer_0

$$$$
