
     RDKit          3D

 13 14  0  0  0  0  0  0  0  0999 V2000
  -19.7672   15.9666  -29.4377 C   0  0  0  0  0  0  0  0  0  0  0  0
  -18.4672   15.4666  -29.0377 C   0  0  0  0  0  0  0  0  0  0  0  0
  -18.4672   15.2666  -27.6377 C   0  0  0  0  0  0  0  0  0  0  0  0
  -20.6672   15.9666  -28.3377 N   0  0  0  0  0  0  0  0  0  0  0  0
  -19.8672   15.8666  -27.1377 C   0  0  0  0  0  0  0  0  0  0  0  0
  -21.7672   16.8666  -28.1377 C   0  0  0  0  0  0  0  0  0  0  0  0
  -22.4672   16.8666  -29.1377 O   0  0  0  0  0  0  0  0  0  0  0  0
  -21.8672   17.3666  -26.7377 C   0  0  0  0  0  0  0  0  0  0  0  0
  -23.0672   18.1666  -26.6377 C   0  0  0  0  0  0  0  0  0  0  0  0
  -21.3672   16.7666  -25.5377 C   0  0  0  0  0  0  0  0  0  0  0  0
  -22.0672   17.0666  -24.4377 C   0  0  0  0  0  0  0  0  0  0  0  0
  -22.9672   18.1666  -24.3377 C   0  0  0  0  0  0  0  0  0  0  0  0
  -23.8672   18.1666  -25.4377 C   0  0  0  0  0  0  0  0  0  0  0  0
  2  1  1  0
  3  2  1  0
  4  1  1  0
  5  3  1  0
  5  4  1  0
  6  4  1  0
  7  6  2  0
  8  6  1  0
  9  8  2  0
 10  8  1  0
 11 10  2  0
 12 11  1  0
 13  9  1  0
 13 12  2  0
M  END
>  <ID>  (1) 
conformer_0

$$$$
