
     RDKit          3D

 15 16  0  0  0  0  0  0  0  0999 V2000
  -20.4817   19.2624  -26.1292 C   0  0  0  0  0  0  0  0  0  0  0  0
  -21.0817   20.1624  -25.2292 O   0  0  0  0  0  0  0  0  0  0  0  0
  -21.2817   18.4624  -26.9292 C   0  0  0  0  0  0  0  0  0  0  0  0
  -22.5817   18.8624  -27.1292 O   0  0  0  0  0  0  0  0  0  0  0  0
  -23.3817   17.9624  -27.9292 C   0  0  0  0  0  0  0  0  0  0  0  0
  -19.0817   19.0624  -26.1292 C   0  0  0  0  0  0  0  0  0  0  0  0
  -18.4817   19.2624  -24.9292 O   0  0  0  0  0  0  0  0  0  0  0  0
  -24.7817   17.8624  -28.4292 C   0  0  0  0  0  0  0  0  0  0  0  0
  -25.3817   16.8624  -28.9292 O   0  0  0  0  0  0  0  0  0  0  0  0
  -22.5817   16.9624  -28.5292 O   0  0  0  0  0  0  0  0  0  0  0  0
  -21.3817   16.4624  -28.2292 C   0  0  0  0  0  0  0  0  0  0  0  0
  -20.3817   17.4624  -27.7292 C   0  0  0  0  0  0  0  0  0  0  0  0
  -19.1817   17.9624  -28.2292 O   0  0  0  0  0  0  0  0  0  0  0  0
  -18.2817   18.6624  -27.3292 C   0  0  0  0  0  0  0  0  0  0  0  0
  -17.0817   18.2624  -27.2292 O   0  0  0  0  0  0  0  0  0  0  0  0
  2  1  1  0
  3  1  1  0
  4  3  1  0
  5  4  1  0
  6  1  1  0
  7  6  1  0
  8  5  1  0
  9  8  2  0
 10  5  1  0
 11 10  1  0
 12  3  1  0
 12 11  2  0
 13 12  1  0
 14  6  1  0
 14 13  1  0
 15 14  2  0
M  END
>  <ID>  (1) 
conformer_0

$$$$
