
     RDKit          3D

  8  8  0  0  0  0  0  0  0  0999 V2000
  -18.9664   16.1001  -31.0528 O   0  0  0  0  0  0  0  0  0  0  0  0
  -18.4664   15.4001  -29.8528 C   0  0  0  0  0  0  0  0  0  0  0  0
  -17.8664   16.4001  -28.9528 C   0  0  0  0  0  0  0  0  0  0  0  0
  -19.8664   17.0001  -30.5528 C   0  0  0  0  0  0  0  0  0  0  0  0
  -20.2664   17.0001  -29.1528 C   0  0  0  0  0  0  0  0  0  0  0  0
  -18.8664   17.2001  -28.3528 O   0  0  0  0  0  0  0  0  0  0  0  0
  -21.1664   18.1001  -28.7528 C   0  0  0  0  0  0  0  0  0  0  0  0
  -21.1664   19.1001  -29.8528 O   0  0  0  0  0  0  0  0  0  0  0  0
  2  1  1  0
  3  2  1  0
  4  1  1  0
  5  4  1  0
  6  3  1  0
  6  5  1  0
  7  5  1  0
  8  7  1  0
M  END
>  <ID>  (1) 
conformer_0

$$$$
