
     RDKit          3D

 19 21  0  0  0  0  0  0  0  0999 V2000
  -20.4622   19.5356  -25.2462 O   0  0  0  0  0  0  0  0  0  0  0  0
  -19.9622   18.2356  -25.6462 C   0  0  0  0  0  0  0  0  0  0  0  0
  -20.4622   17.7356  -26.8462 C   0  0  0  0  0  0  0  0  0  0  0  0
  -18.7622   17.7356  -25.0462 C   0  0  0  0  0  0  0  0  0  0  0  0
  -21.2622   18.3356  -27.6462 O   0  0  0  0  0  0  0  0  0  0  0  0
  -22.6622   18.1356  -27.9462 C   0  0  0  0  0  0  0  0  0  0  0  0
  -18.0622   16.8356  -25.8462 C   0  0  0  0  0  0  0  0  0  0  0  0
  -18.6622   16.0356  -26.8462 C   0  0  0  0  0  0  0  0  0  0  0  0
  -20.0622   16.3356  -27.1462 C   0  0  0  0  0  0  0  0  0  0  0  0
  -23.0622   17.3356  -29.1462 C   0  0  0  0  0  0  0  0  0  0  0  0
  -24.4622   17.5356  -29.5462 C   0  0  0  0  0  0  0  0  0  0  0  0
  -24.8622   16.6356  -30.3462 O   0  0  0  0  0  0  0  0  0  0  0  0
  -25.1622   17.9356  -28.4462 O   0  0  0  0  0  0  0  0  0  0  0  0
  -22.0622   17.0356  -30.0462 N   0  0  0  0  0  0  0  0  0  0  0  0
  -21.2622   16.1356  -30.6462 C   0  0  0  0  0  0  0  0  0  0  0  0
  -20.5622   16.5356  -31.5462 O   0  0  0  0  0  0  0  0  0  0  0  0
  -20.8622   16.4356  -29.2462 C   0  0  0  0  0  0  0  0  0  0  0  0
  -20.7622   15.7356  -28.1462 O   0  0  0  0  0  0  0  0  0  0  0  0
  -16.8622   16.3356  -25.2462 F   0  0  0  0  0  0  0  0  0  0  0  0
  2  1  1  0
  3  2  2  0
  4  2  1  0
  5  3  1  0
  6  5  1  0
  7  4  2  0
  8  7  1  0
  9  3  1  0
  9  8  2  0
 10  6  2  0
 11 10  1  0
 12 11  1  0
 13 11  1  0
 14 10  1  0
 15 14  1  0
 16 15  1  0
 17 14  1  0
 17 15  1  0
 18  9  1  0
 18 17  1  0
 19  7  1  0
M  END
>  <ID>  (1) 
conformer_0

$$$$
