
     RDKit          3D

 14 14  0  0  0  0  0  0  0  0999 V2000
  -20.4622   19.5356  -25.2462 O   0  0  0  0  0  0  0  0  0  0  0  0
  -19.9622   18.2356  -25.6462 C   0  0  0  0  0  0  0  0  0  0  0  0
  -21.0622   17.3356  -25.6462 C   0  0  0  0  0  0  0  0  0  0  0  0
  -19.1622   18.2356  -26.8462 C   0  0  0  0  0  0  0  0  0  0  0  0
  -21.6622   17.1356  -24.4462 O   0  0  0  0  0  0  0  0  0  0  0  0
  -20.9622   16.4356  -26.7462 C   0  0  0  0  0  0  0  0  0  0  0  0
  -20.7622   16.9356  -28.0462 C   0  0  0  0  0  0  0  0  0  0  0  0
  -19.5622   17.7356  -28.0462 C   0  0  0  0  0  0  0  0  0  0  0  0
  -20.7622   15.9356  -29.0462 O   0  0  0  0  0  0  0  0  0  0  0  0
  -19.7622   16.2356  -30.0462 C   0  0  0  0  0  0  0  0  0  0  0  0
  -19.0622   15.1356  -30.7462 C   0  0  0  0  0  0  0  0  0  0  0  0
  -22.9622   17.8356  -24.3462 C   0  0  0  0  0  0  0  0  0  0  0  0
  -22.8622   19.2356  -24.2462 F   0  0  0  0  0  0  0  0  0  0  0  0
  -24.0622   17.5356  -23.8462 F   0  0  0  0  0  0  0  0  0  0  0  0
  2  1  1  0
  3  2  2  0
  4  2  1  0
  5  3  1  0
  6  3  1  0
  7  6  2  0
  8  4  2  0
  8  7  1  0
  9  7  1  0
 10  9  1  0
 11 10  1  0
 12  5  1  0
 13 12  1  0
 14 12  1  0
M  END
>  <ID>  (1) 
conformer_0

$$$$
