
     RDKit          3D

 12 12  0  0  0  0  0  0  0  0999 V2000
  -20.8543   20.0576  -25.3221 O   0  0  0  0  0  0  0  0  0  0  0  0
  -21.3543   18.8576  -26.0221 C   0  0  0  0  0  0  0  0  0  0  0  0
  -22.3543   17.9576  -25.5221 C   0  0  0  0  0  0  0  0  0  0  0  0
  -21.4543   19.0576  -27.4221 C   0  0  0  0  0  0  0  0  0  0  0  0
  -20.5543   19.7576  -28.1221 O   0  0  0  0  0  0  0  0  0  0  0  0
  -22.3543   18.0576  -28.0221 C   0  0  0  0  0  0  0  0  0  0  0  0
  -22.2543   17.7576  -24.1221 O   0  0  0  0  0  0  0  0  0  0  0  0
  -23.6543   18.1576  -26.0221 C   0  0  0  0  0  0  0  0  0  0  0  0
  -22.1543   17.7576  -29.3221 O   0  0  0  0  0  0  0  0  0  0  0  0
  -23.6543   18.0576  -27.5221 C   0  0  0  0  0  0  0  0  0  0  0  0
  -23.3543   17.2576  -30.0221 C   0  0  0  0  0  0  0  0  0  0  0  0
  -22.2543   16.3576  -23.6221 C   0  0  0  0  0  0  0  0  0  0  0  0
  2  1  1  0
  3  2  2  0
  4  2  1  0
  5  4  1  0
  6  4  2  0
  7  3  1  0
  8  3  1  0
  9  6  1  0
 10  6  1  0
 10  8  2  0
 11  9  1  0
 12  7  1  0
M  END
>  <ID>  (1) 
conformer_0

$$$$
