
     RDKit          3D

 14 14  0  0  0  0  0  0  0  0999 V2000
  -20.8543   20.0576  -25.3221 O   0  0  0  0  0  0  0  0  0  0  0  0
  -21.3543   18.8576  -26.0221 C   0  0  0  0  0  0  0  0  0  0  0  0
  -22.3543   17.9576  -25.5221 C   0  0  0  0  0  0  0  0  0  0  0  0
  -21.4543   19.0576  -27.4221 C   0  0  0  0  0  0  0  0  0  0  0  0
  -20.5543   19.7576  -28.1221 O   0  0  0  0  0  0  0  0  0  0  0  0
  -22.4543   17.9576  -24.1221 O   0  0  0  0  0  0  0  0  0  0  0  0
  -22.4543   18.0576  -27.9221 C   0  0  0  0  0  0  0  0  0  0  0  0
  -23.7543   18.1576  -26.0221 C   0  0  0  0  0  0  0  0  0  0  0  0
  -22.1543   17.8576  -29.3221 O   0  0  0  0  0  0  0  0  0  0  0  0
  -22.7543   16.7576  -30.0221 C   0  0  0  0  0  0  0  0  0  0  0  0
  -24.7543   18.2576  -25.1221 O   0  0  0  0  0  0  0  0  0  0  0  0
  -26.1543   18.1576  -25.4221 C   0  0  0  0  0  0  0  0  0  0  0  0
  -23.7543   17.9576  -27.4221 C   0  0  0  0  0  0  0  0  0  0  0  0
  -22.2543   16.6576  -23.4221 C   0  0  0  0  0  0  0  0  0  0  0  0
  2  1  1  0
  3  2  2  0
  4  2  1  0
  5  4  1  0
  6  3  1  0
  7  4  2  0
  8  3  1  0
  9  7  1  0
 10  9  1  0
 11  8  1  0
 12 11  1  0
 13  7  1  0
 13  8  2  0
 14  6  1  0
M  END
>  <ID>  (1) 
conformer_0

$$$$
