
     RDKit          3D

 18 20  0  0  0  0  0  0  0  0999 V2000
  -19.7672   15.9666  -29.4377 C   0  0  0  0  0  0  0  0  0  0  0  0
  -18.4672   15.4666  -29.0377 C   0  0  0  0  0  0  0  0  0  0  0  0
  -18.4672   15.2666  -27.6377 C   0  0  0  0  0  0  0  0  0  0  0  0
  -20.6672   15.9666  -28.3377 N   0  0  0  0  0  0  0  0  0  0  0  0
  -19.8672   15.8666  -27.1377 C   0  0  0  0  0  0  0  0  0  0  0  0
  -21.7672   16.8666  -28.1377 C   0  0  0  0  0  0  0  0  0  0  0  0
  -22.4672   16.8666  -29.1377 O   0  0  0  0  0  0  0  0  0  0  0  0
  -21.9672   17.4666  -26.8377 C   0  0  0  0  0  0  0  0  0  0  0  0
  -23.1672   18.2666  -26.5377 C   0  0  0  0  0  0  0  0  0  0  0  0
  -21.3672   16.9666  -25.6377 C   0  0  0  0  0  0  0  0  0  0  0  0
  -23.3672   18.2666  -25.1377 C   0  0  0  0  0  0  0  0  0  0  0  0
  -22.3672   18.6666  -24.3377 C   0  0  0  0  0  0  0  0  0  0  0  0
  -24.7672   18.3666  -24.7377 O   0  0  0  0  0  0  0  0  0  0  0  0
  -25.5672   18.2666  -25.9377 C   0  0  0  0  0  0  0  0  0  0  0  0
  -21.1672   17.9666  -24.6377 C   0  0  0  0  0  0  0  0  0  0  0  0
  -20.0672   16.3666  -25.9377 O   0  0  0  0  0  0  0  0  0  0  0  0
  -20.0672   15.9666  -30.8377 C   0  0  0  0  0  0  0  0  0  0  0  0
  -20.8672   17.0666  -31.3377 O   0  0  0  0  0  0  0  0  0  0  0  0
  2  1  1  0
  3  2  1  0
  4  1  1  0
  5  3  1  0
  5  4  1  0
  6  4  1  0
  7  6  2  0
  8  6  1  0
  9  8  2  0
 10  8  1  0
 11  9  1  0
 12 11  2  0
 13 11  1  0
 14 13  1  0
 15 10  2  0
 15 12  1  0
 16  5  1  0
 16 10  1  0
 17  1  1  0
 18 17  1  0
M  END
>  <ID>  (1) 
conformer_0

$$$$
