
     RDKit          3D

 18 19  0  0  0  0  0  0  0  0999 V2000
  -20.8426   17.0162  -25.5190 C   0  0  0  0  0  0  0  0  0  0  0  0
  -21.2426   18.0162  -26.4190 C   0  0  0  0  0  0  0  0  0  0  0  0
  -19.5426   17.4162  -24.9190 O   0  0  0  0  0  0  0  0  0  0  0  0
  -18.8426   18.1162  -26.0190 C   0  0  0  0  0  0  0  0  0  0  0  0
  -21.7426   16.8162  -24.4190 C   0  0  0  0  0  0  0  0  0  0  0  0
  -22.8426   17.7162  -24.5190 C   0  0  0  0  0  0  0  0  0  0  0  0
  -23.4426   18.1162  -25.7190 C   0  0  0  0  0  0  0  0  0  0  0  0
  -22.5426   18.1162  -26.8190 C   0  0  0  0  0  0  0  0  0  0  0  0
  -24.8426   18.2162  -25.8190 C   0  0  0  0  0  0  0  0  0  0  0  0
  -25.5426   18.1162  -24.5190 C   0  0  0  0  0  0  0  0  0  0  0  0
  -26.6426   19.1162  -24.5190 C   0  0  0  0  0  0  0  0  0  0  0  0
  -18.8426   17.4162  -27.3190 C   0  0  0  0  0  0  0  0  0  0  0  0
  -17.5426   17.3162  -28.0190 C   0  0  0  0  0  0  0  0  0  0  0  0
  -17.4426   18.1162  -25.6190 C   0  0  0  0  0  0  0  0  0  0  0  0
  -17.4426   16.8162  -29.3190 C   0  0  0  0  0  0  0  0  0  0  0  0
  -18.2426   15.6162  -29.7190 C   0  0  0  0  0  0  0  0  0  0  0  0
  -18.8426   15.3162  -28.4190 C   0  0  0  0  0  0  0  0  0  0  0  0
  -19.5426   16.3162  -27.8190 N   0  0  0  0  0  0  0  0  0  0  0  0
  2  1  2  0
  3  1  1  0
  4  3  1  0
  5  1  1  0
  6  5  2  0
  7  6  1  0
  8  2  1  0
  8  7  2  0
  9  7  1  0
 10  9  1  0
 11 10  1  0
 12  4  1  0
 13 12  1  0
 14  4  1  0
 15 13  1  0
 16 15  1  0
 17 16  1  0
 18 12  1  0
 18 17  1  0
M  END
>  <ID>  (1) 
conformer_0

$$$$
