
     RDKit          3D

 19 20  0  0  0  0  0  0  0  0999 V2000
  -20.1507   19.4558  -25.4356 O   0  0  0  0  0  0  0  0  0  0  0  0
  -20.9507   18.3558  -25.8356 C   0  0  0  0  0  0  0  0  0  0  0  0
  -22.3507   18.4558  -25.5356 C   0  0  0  0  0  0  0  0  0  0  0  0
  -20.5507   17.6558  -26.9356 C   0  0  0  0  0  0  0  0  0  0  0  0
  -22.5507   18.7558  -24.1356 O   0  0  0  0  0  0  0  0  0  0  0  0
  -21.4507   16.8558  -27.6356 C   0  0  0  0  0  0  0  0  0  0  0  0
  -23.3507   17.8558  -26.4356 C   0  0  0  0  0  0  0  0  0  0  0  0
  -22.7507   17.5558  -27.7356 C   0  0  0  0  0  0  0  0  0  0  0  0
  -23.5507   17.5558  -28.8356 C   0  0  0  0  0  0  0  0  0  0  0  0
  -23.3507   17.0558  -29.9356 O   0  0  0  0  0  0  0  0  0  0  0  0
  -24.7507   17.9558  -28.7356 O   0  0  0  0  0  0  0  0  0  0  0  0
  -19.1507   17.3558  -27.1356 O   0  0  0  0  0  0  0  0  0  0  0  0
  -18.6507   16.0558  -27.0356 C   0  0  0  0  0  0  0  0  0  0  0  0
  -18.7507   15.2558  -28.2356 C   0  0  0  0  0  0  0  0  0  0  0  0
  -19.7507   15.1558  -27.0356 C   0  0  0  0  0  0  0  0  0  0  0  0
  -24.6507   18.0558  -26.1356 N   0  0  0  0  0  0  0  0  0  0  0  0
  -25.1507   18.3558  -24.9356 C   0  0  0  0  0  0  0  0  0  0  0  0
  -24.9507   17.6558  -23.8356 O   0  0  0  0  0  0  0  0  0  0  0  0
  -25.7507   17.0558  -22.9356 C   0  0  0  0  0  0  0  0  0  0  0  0
  2  1  1  0
  3  2  2  0
  4  2  1  0
  5  3  1  0
  6  4  2  0
  7  3  1  0
  8  6  1  0
  8  7  2  0
  9  8  1  0
 10  9  2  0
 11  9  1  0
 12  4  1  0
 13 12  1  0
 14 13  1  0
 15 13  1  0
 15 14  1  0
 16  7  1  0
 17 16  1  0
 18 17  1  0
 19 18  1  0
M  END
>  <ID>  (1) 
conformer_0

$$$$
