
     RDKit          3D

 17 18  0  0  0  0  0  0  0  0999 V2000
  -20.8543   20.0576  -25.3221 O   0  0  0  0  0  0  0  0  0  0  0  0
  -20.6543   18.9576  -26.1221 C   0  0  0  0  0  0  0  0  0  0  0  0
  -21.8543   18.6576  -26.9221 C   0  0  0  0  0  0  0  0  0  0  0  0
  -19.5543   18.1576  -26.3221 C   0  0  0  0  0  0  0  0  0  0  0  0
  -19.6543   17.1576  -27.2221 C   0  0  0  0  0  0  0  0  0  0  0  0
  -20.8543   16.4576  -27.3221 C   0  0  0  0  0  0  0  0  0  0  0  0
  -21.9543   17.3576  -27.4221 C   0  0  0  0  0  0  0  0  0  0  0  0
  -22.9543   17.0576  -28.3221 O   0  0  0  0  0  0  0  0  0  0  0  0
  -24.0543   17.8576  -28.4221 C   0  0  0  0  0  0  0  0  0  0  0  0
  -18.6543   18.2576  -25.2221 O   0  0  0  0  0  0  0  0  0  0  0  0
  -17.5543   17.2576  -25.0221 C   0  0  0  0  0  0  0  0  0  0  0  0
  -20.9543   15.5576  -28.4221 O   0  0  0  0  0  0  0  0  0  0  0  0
  -19.6543   15.7576  -29.1221 C   0  0  0  0  0  0  0  0  0  0  0  0
  -18.5543   15.3576  -28.2221 C   0  0  0  0  0  0  0  0  0  0  0  0
  -18.5543   16.1576  -27.0221 O   0  0  0  0  0  0  0  0  0  0  0  0
  -19.4543   15.7576  -30.5221 C   0  0  0  0  0  0  0  0  0  0  0  0
  -20.6543   15.3576  -31.2221 O   0  0  0  0  0  0  0  0  0  0  0  0
  2  1  1  0
  3  2  2  0
  4  2  1  0
  5  4  2  0
  6  5  1  0
  7  3  1  0
  7  6  2  0
  8  7  1  0
  9  8  1  0
 10  4  1  0
 11 10  1  0
 12  6  1  0
 13 12  1  0
 14 13  1  0
 15  5  1  0
 15 14  1  0
 16 13  1  0
 17 16  1  0
M  END
>  <ID>  (1) 
conformer_0

$$$$
