
     RDKit          3D

 19 20  0  0  0  0  0  0  0  0999 V2000
  -20.1507   19.4558  -25.4356 O   0  0  0  0  0  0  0  0  0  0  0  0
  -20.9507   18.3558  -25.8356 C   0  0  0  0  0  0  0  0  0  0  0  0
  -22.3507   18.4558  -25.5356 C   0  0  0  0  0  0  0  0  0  0  0  0
  -20.3507   17.6558  -26.9356 C   0  0  0  0  0  0  0  0  0  0  0  0
  -22.4507   18.6558  -24.1356 O   0  0  0  0  0  0  0  0  0  0  0  0
  -21.3507   16.8558  -27.6356 C   0  0  0  0  0  0  0  0  0  0  0  0
  -23.1507   18.1558  -26.7356 C   0  0  0  0  0  0  0  0  0  0  0  0
  -22.5507   17.6558  -27.9356 C   0  0  0  0  0  0  0  0  0  0  0  0
  -19.0507   17.1558  -26.7356 O   0  0  0  0  0  0  0  0  0  0  0  0
  -18.6507   15.8558  -27.3356 C   0  0  0  0  0  0  0  0  0  0  0  0
  -23.1507   17.6558  -29.1356 C   0  0  0  0  0  0  0  0  0  0  0  0
  -23.5507   18.3558  -30.0356 O   0  0  0  0  0  0  0  0  0  0  0  0
  -23.2507   16.4558  -29.7356 O   0  0  0  0  0  0  0  0  0  0  0  0
  -19.3507   15.6558  -28.6356 C   0  0  0  0  0  0  0  0  0  0  0  0
  -20.7507   15.9558  -28.5356 O   0  0  0  0  0  0  0  0  0  0  0  0
  -24.4507   18.2558  -26.7356 N   0  0  0  0  0  0  0  0  0  0  0  0
  -18.5507   15.4558  -29.7356 C   0  0  0  0  0  0  0  0  0  0  0  0
  -19.3507   15.2558  -30.8356 O   0  0  0  0  0  0  0  0  0  0  0  0
  -20.3507   15.9558  -31.3356 C   0  0  0  0  0  0  0  0  0  0  0  0
  2  1  1  0
  3  2  2  0
  4  2  1  0
  5  3  1  0
  6  4  2  0
  7  3  1  0
  8  6  1  0
  8  7  2  0
  9  4  1  0
 10  9  1  0
 11  8  1  0
 12 11  2  0
 13 11  1  0
 14 10  1  0
 15  6  1  0
 15 14  1  0
 16  7  1  0
 17 14  1  0
 18 17  1  0
 19 18  1  0
M  END
>  <ID>  (1) 
conformer_0

$$$$
