
     RDKit          3D

 11 11  0  0  0  0  0  0  0  0999 V2000
  -21.4390   16.2957  -28.4661 C   0  0  0  0  0  0  0  0  0  0  0  0
  -22.3390   17.1957  -28.3661 C   0  0  0  0  0  0  0  0  0  0  0  0
  -23.6390   16.9957  -28.9661 O   0  0  0  0  0  0  0  0  0  0  0  0
  -22.3390   18.1957  -27.3661 C   0  0  0  0  0  0  0  0  0  0  0  0
  -24.7390   17.7957  -28.3661 C   0  0  0  0  0  0  0  0  0  0  0  0
  -21.1390   17.9957  -26.5661 C   0  0  0  0  0  0  0  0  0  0  0  0
  -20.8390   16.6957  -26.1661 C   0  0  0  0  0  0  0  0  0  0  0  0
  -20.7390   19.0957  -25.6661 C   0  0  0  0  0  0  0  0  0  0  0  0
  -20.6390   15.8957  -27.3661 C   0  0  0  0  0  0  0  0  0  0  0  0
  -19.5390   19.1957  -25.2661 O   0  0  0  0  0  0  0  0  0  0  0  0
  -21.8390   19.4957  -24.8661 O   0  0  0  0  0  0  0  0  0  0  0  0
  2  1  2  0
  3  2  1  0
  4  2  1  0
  5  3  1  0
  6  4  2  0
  7  6  1  0
  8  6  1  0
  9  1  1  0
  9  7  2  0
 10  8  2  0
 11  8  1  0
M  END
>  <ID>  (1) 
conformer_0

$$$$
