
     RDKit          3D

 14 14  0  0  0  0  0  0  0  0999 V2000
  -20.8543   20.0576  -25.3221 O   0  0  0  0  0  0  0  0  0  0  0  0
  -21.3543   18.8576  -26.0221 C   0  0  0  0  0  0  0  0  0  0  0  0
  -22.3543   17.9576  -25.5221 C   0  0  0  0  0  0  0  0  0  0  0  0
  -21.4543   19.0576  -27.4221 C   0  0  0  0  0  0  0  0  0  0  0  0
  -20.5543   19.7576  -28.1221 O   0  0  0  0  0  0  0  0  0  0  0  0
  -22.4543   17.9576  -24.1221 O   0  0  0  0  0  0  0  0  0  0  0  0
  -23.3543   17.7576  -26.5221 C   0  0  0  0  0  0  0  0  0  0  0  0
  -22.5543   18.1576  -27.8221 C   0  0  0  0  0  0  0  0  0  0  0  0
  -23.0543   18.1576  -29.0221 O   0  0  0  0  0  0  0  0  0  0  0  0
  -24.4543   17.6576  -29.1221 C   0  0  0  0  0  0  0  0  0  0  0  0
  -22.4543   16.6576  -23.4221 C   0  0  0  0  0  0  0  0  0  0  0  0
  -22.5543   16.3576  -22.1221 F   0  0  0  0  0  0  0  0  0  0  0  0
  -21.8543   15.7576  -23.9221 F   0  0  0  0  0  0  0  0  0  0  0  0
  -23.9543   16.6576  -23.4221 F   0  0  0  0  0  0  0  0  0  0  0  0
  2  1  1  0
  3  2  2  0
  4  2  1  0
  5  4  1  0
  6  3  1  0
  7  3  1  0
  8  4  1  0
  8  7  2  0
  9  8  1  0
 10  9  1  0
 11  6  1  0
 12 11  1  0
 13 11  1  0
 14 11  1  0
M  END
>  <ID>  (1) 
conformer_0

$$$$
