
     RDKit          3D

 14 15  0  0  0  0  0  0  0  0999 V2000
  -20.1507   19.4558  -25.4356 O   0  0  0  0  0  0  0  0  0  0  0  0
  -19.9507   18.6558  -26.6356 C   0  0  0  0  0  0  0  0  0  0  0  0
  -20.4507   17.3558  -26.7356 C   0  0  0  0  0  0  0  0  0  0  0  0
  -20.9507   16.8558  -27.9356 C   0  0  0  0  0  0  0  0  0  0  0  0
  -20.3507   19.4558  -27.8356 C   0  0  0  0  0  0  0  0  0  0  0  0
  -21.2507   18.9558  -28.8356 C   0  0  0  0  0  0  0  0  0  0  0  0
  -21.8507   17.6558  -28.6356 C   0  0  0  0  0  0  0  0  0  0  0  0
  -22.7507   17.1558  -29.6356 C   0  0  0  0  0  0  0  0  0  0  0  0
  -22.7507   17.8558  -30.7356 O   0  0  0  0  0  0  0  0  0  0  0  0
  -23.9507   16.9558  -29.2356 O   0  0  0  0  0  0  0  0  0  0  0  0
  -20.3507   16.6558  -25.5356 O   0  0  0  0  0  0  0  0  0  0  0  0
  -19.1507   17.2558  -24.9356 C   0  0  0  0  0  0  0  0  0  0  0  0
  -17.9507   16.8558  -25.5356 C   0  0  0  0  0  0  0  0  0  0  0  0
  -18.0507   18.2558  -25.0356 C   0  0  0  0  0  0  0  0  0  0  0  0
  2  1  1  0
  3  2  2  0
  4  3  1  0
  5  2  1  0
  6  5  2  0
  7  4  2  0
  7  6  1  0
  8  7  1  0
  9  8  1  0
 10  8  1  0
 11  3  1  0
 12 11  1  0
 13 12  1  0
 14 12  1  0
 14 13  1  0
M  END
>  <ID>  (1) 
conformer_0

$$$$
