
     RDKit          3D

 14 15  0  0  0  0  0  0  0  0999 V2000
  -21.4390   16.2957  -28.4661 C   0  0  0  0  0  0  0  0  0  0  0  0
  -22.3390   17.1957  -28.3661 C   0  0  0  0  0  0  0  0  0  0  0  0
  -23.6390   16.9957  -28.9661 O   0  0  0  0  0  0  0  0  0  0  0  0
  -22.3390   18.2957  -27.4661 C   0  0  0  0  0  0  0  0  0  0  0  0
  -24.6390   17.7957  -28.3661 C   0  0  0  0  0  0  0  0  0  0  0  0
  -21.2390   18.3957  -26.5661 C   0  0  0  0  0  0  0  0  0  0  0  0
  -20.2390   16.4957  -27.7661 C   0  0  0  0  0  0  0  0  0  0  0  0
  -20.0390   17.6957  -26.9661 C   0  0  0  0  0  0  0  0  0  0  0  0
  -18.9390   17.5957  -25.9661 C   0  0  0  0  0  0  0  0  0  0  0  0
  -18.0390   16.5957  -26.3661 C   0  0  0  0  0  0  0  0  0  0  0  0
  -17.8390   16.1957  -27.7661 C   0  0  0  0  0  0  0  0  0  0  0  0
  -19.0390   15.9957  -28.4661 O   0  0  0  0  0  0  0  0  0  0  0  0
  -18.6390   18.7957  -25.2661 C   0  0  0  0  0  0  0  0  0  0  0  0
  -19.6390   19.5957  -25.2661 O   0  0  0  0  0  0  0  0  0  0  0  0
  2  1  2  0
  3  2  1  0
  4  2  1  0
  5  3  1  0
  6  4  2  0
  7  1  1  0
  8  6  1  0
  8  7  2  0
  9  8  1  0
 10  9  1  0
 11 10  1  0
 12  7  1  0
 12 11  1  0
 13  9  1  0
 14 13  1  0
M  END
>  <ID>  (1) 
conformer_0

$$$$
