
     RDKit          3D

  9  9  0  0  0  0  0  0  0  0999 V2000
  -19.1718   15.5328  -27.8182 C   0  0  0  0  0  0  0  0  0  0  0  0
  -18.6718   15.5328  -29.2182 C   0  0  0  0  0  0  0  0  0  0  0  0
  -18.4718   16.4328  -26.9182 C   0  0  0  0  0  0  0  0  0  0  0  0
  -17.3718   17.1328  -27.6182 C   0  0  0  0  0  0  0  0  0  0  0  0
  -18.9718   17.1328  -25.7182 C   0  0  0  0  0  0  0  0  0  0  0  0
  -18.2718   18.4328  -25.6182 C   0  0  0  0  0  0  0  0  0  0  0  0
  -18.7718   19.3328  -24.8182 O   0  0  0  0  0  0  0  0  0  0  0  0
  -18.1718   16.6328  -29.9182 C   0  0  0  0  0  0  0  0  0  0  0  0
  -17.4718   17.6328  -29.0182 C   0  0  0  0  0  0  0  0  0  0  0  0
  2  1  1  0
  3  1  1  0
  4  3  1  0
  5  3  1  0
  6  5  1  0
  7  6  1  0
  8  2  1  0
  9  4  1  0
  9  8  1  0
M  END
>  <ID>  (1) 
conformer_0

$$$$
