
     RDKit          3D

 10 11  0  0  0  0  0  0  0  0999 V2000
  -18.7622   15.5453  -27.8132 C   0  0  0  0  0  0  0  0  0  0  0  0
  -18.5622   15.3453  -29.1132 C   0  0  0  0  0  0  0  0  0  0  0  0
  -19.8622   15.7453  -27.1132 C   0  0  0  0  0  0  0  0  0  0  0  0
  -21.0622   16.0453  -27.8132 C   0  0  0  0  0  0  0  0  0  0  0  0
  -19.6622   15.9453  -29.9132 C   0  0  0  0  0  0  0  0  0  0  0  0
  -20.8622   16.2453  -29.2132 C   0  0  0  0  0  0  0  0  0  0  0  0
  -21.5622   17.3453  -29.7132 O   0  0  0  0  0  0  0  0  0  0  0  0
  -22.4622   18.0453  -28.8132 C   0  0  0  0  0  0  0  0  0  0  0  0
  -23.0622   17.6453  -27.6132 C   0  0  0  0  0  0  0  0  0  0  0  0
  -21.9622   16.8453  -27.0132 O   0  0  0  0  0  0  0  0  0  0  0  0
  2  1  2  0
  3  1  1  0
  4  3  2  0
  5  2  1  0
  6  4  1  0
  6  5  2  0
  7  6  1  0
  8  7  1  0
  9  8  1  0
 10  4  1  0
 10  9  1  0
M  END
>  <ID>  (1) 
conformer_0

$$$$
