
     RDKit          3D

  8  8  0  0  0  0  0  0  0  0999 V2000
  -18.4426   15.7573  -27.1321 C   0  0  0  0  0  0  0  0  0  0  0  0
  -18.6426   15.5573  -28.5321 C   0  0  0  0  0  0  0  0  0  0  0  0
  -19.7426   16.1573  -29.0321 C   0  0  0  0  0  0  0  0  0  0  0  0
  -20.9426   16.2573  -28.2321 C   0  0  0  0  0  0  0  0  0  0  0  0
  -20.8426   16.0573  -26.9321 C   0  0  0  0  0  0  0  0  0  0  0  0
  -19.5426   16.0573  -26.3321 C   0  0  0  0  0  0  0  0  0  0  0  0
  -22.1426   16.1573  -28.9321 O   0  0  0  0  0  0  0  0  0  0  0  0
  -21.9426   16.1573  -30.3321 C   0  0  0  0  0  0  0  0  0  0  0  0
  2  1  2  0
  3  2  1  0
  4  3  2  0
  5  4  1  0
  6  1  1  0
  6  5  2  0
  7  4  1  0
  8  7  1  0
M  END
>  <ID>  (1) 
conformer_0

$$$$
