
     RDKit          3D

 19 21  0  0  0  0  0  0  0  0999 V2000
  -20.8543   20.0576  -25.3221 O   0  0  0  0  0  0  0  0  0  0  0  0
  -20.6543   18.9576  -26.1221 C   0  0  0  0  0  0  0  0  0  0  0  0
  -21.8543   18.6576  -26.9221 C   0  0  0  0  0  0  0  0  0  0  0  0
  -19.5543   18.1576  -26.3221 C   0  0  0  0  0  0  0  0  0  0  0  0
  -19.6543   17.1576  -27.2221 C   0  0  0  0  0  0  0  0  0  0  0  0
  -20.8543   16.4576  -27.3221 C   0  0  0  0  0  0  0  0  0  0  0  0
  -21.9543   17.3576  -27.4221 C   0  0  0  0  0  0  0  0  0  0  0  0
  -22.9543   17.0576  -28.3221 O   0  0  0  0  0  0  0  0  0  0  0  0
  -24.1543   17.8576  -28.2221 C   0  0  0  0  0  0  0  0  0  0  0  0
  -18.7543   17.8576  -25.1221 O   0  0  0  0  0  0  0  0  0  0  0  0
  -17.6543   17.0576  -25.7221 C   0  0  0  0  0  0  0  0  0  0  0  0
  -17.3543   17.3576  -27.1221 C   0  0  0  0  0  0  0  0  0  0  0  0
  -18.4543   16.6576  -27.8221 O   0  0  0  0  0  0  0  0  0  0  0  0
  -25.3543   17.3576  -28.8221 C   0  0  0  0  0  0  0  0  0  0  0  0
  -25.3543   16.5576  -30.0221 O   0  0  0  0  0  0  0  0  0  0  0  0
  -23.1543   18.8576  -26.2221 O   0  0  0  0  0  0  0  0  0  0  0  0
  -24.1543   18.1576  -26.7221 C   0  0  0  0  0  0  0  0  0  0  0  0
  -25.5543   18.2576  -26.2221 C   0  0  0  0  0  0  0  0  0  0  0  0
  -25.3543   18.4576  -24.8221 O   0  0  0  0  0  0  0  0  0  0  0  0
  2  1  1  0
  3  2  2  0
  4  2  1  0
  5  4  2  0
  6  5  1  0
  7  3  1  0
  7  6  2  0
  8  7  1  0
  9  8  1  0
 10  4  1  0
 11 10  1  0
 12 11  1  0
 13  5  1  0
 13 12  1  0
 14  9  1  0
 15 14  1  0
 16  3  1  0
 17  9  1  0
 17 16  1  0
 18 17  1  0
 19 18  1  0
M  END
>  <ID>  (1) 
conformer_0

$$$$
