
     RDKit          3D

 11 11  0  0  0  0  0  0  0  0999 V2000
  -20.8543   20.0576  -25.3221 O   0  0  0  0  0  0  0  0  0  0  0  0
  -20.6543   18.9576  -26.1221 C   0  0  0  0  0  0  0  0  0  0  0  0
  -21.8543   18.6576  -26.9221 C   0  0  0  0  0  0  0  0  0  0  0  0
  -19.5543   18.1576  -26.3221 C   0  0  0  0  0  0  0  0  0  0  0  0
  -19.6543   17.1576  -27.2221 C   0  0  0  0  0  0  0  0  0  0  0  0
  -20.8543   16.4576  -27.3221 C   0  0  0  0  0  0  0  0  0  0  0  0
  -21.9543   17.3576  -27.4221 C   0  0  0  0  0  0  0  0  0  0  0  0
  -23.0543   17.1576  -28.3221 O   0  0  0  0  0  0  0  0  0  0  0  0
  -24.2543   17.8576  -28.0221 C   0  0  0  0  0  0  0  0  0  0  0  0
  -18.5543   18.2576  -25.2221 O   0  0  0  0  0  0  0  0  0  0  0  0
  -17.7543   17.0576  -25.4221 C   0  0  0  0  0  0  0  0  0  0  0  0
  2  1  1  0
  3  2  2  0
  4  2  1  0
  5  4  2  0
  6  5  1  0
  7  3  1  0
  7  6  2  0
  8  7  1  0
  9  8  1  0
 10  4  1  0
 11 10  1  0
M  END
>  <ID>  (1) 
conformer_0

$$$$
