
     RDKit          3D

 11 12  0  0  0  0  0  0  0  0999 V2000
  -20.1507   19.4558  -25.4356 O   0  0  0  0  0  0  0  0  0  0  0  0
  -19.9507   18.6558  -26.6356 C   0  0  0  0  0  0  0  0  0  0  0  0
  -20.4507   17.3558  -26.7356 C   0  0  0  0  0  0  0  0  0  0  0  0
  -20.9507   16.8558  -27.9356 C   0  0  0  0  0  0  0  0  0  0  0  0
  -20.4507   19.3558  -27.8356 C   0  0  0  0  0  0  0  0  0  0  0  0
  -21.2507   19.0558  -28.8356 C   0  0  0  0  0  0  0  0  0  0  0  0
  -21.8507   17.4558  -27.1356 O   0  0  0  0  0  0  0  0  0  0  0  0
  -20.9507   17.5558  -29.2356 C   0  0  0  0  0  0  0  0  0  0  0  0
  -22.0507   17.0558  -30.0356 C   0  0  0  0  0  0  0  0  0  0  0  0
  -22.1507   15.7558  -30.1356 O   0  0  0  0  0  0  0  0  0  0  0  0
  -22.6507   17.7558  -30.9356 O   0  0  0  0  0  0  0  0  0  0  0  0
  2  1  1  0
  3  2  2  0
  4  3  1  0
  5  2  1  0
  6  5  2  0
  7  3  1  0
  7  4  1  0
  8  4  2  0
  8  6  1  0
  9  8  1  0
 10  9  2  0
 11  9  1  0
M  END
>  <ID>  (1) 
conformer_0

$$$$
