
     RDKit          3D

 19 20  0  0  0  0  0  0  0  0999 V2000
  -20.1507   19.4558  -25.4356 O   0  0  0  0  0  0  0  0  0  0  0  0
  -20.9507   18.3558  -25.8356 C   0  0  0  0  0  0  0  0  0  0  0  0
  -22.3507   18.4558  -25.5356 C   0  0  0  0  0  0  0  0  0  0  0  0
  -20.5507   17.6558  -26.9356 C   0  0  0  0  0  0  0  0  0  0  0  0
  -22.5507   18.7558  -24.1356 O   0  0  0  0  0  0  0  0  0  0  0  0
  -21.4507   16.8558  -27.6356 C   0  0  0  0  0  0  0  0  0  0  0  0
  -23.3507   17.8558  -26.4356 C   0  0  0  0  0  0  0  0  0  0  0  0
  -22.7507   17.5558  -27.7356 C   0  0  0  0  0  0  0  0  0  0  0  0
  -23.5507   17.4558  -28.9356 C   0  0  0  0  0  0  0  0  0  0  0  0
  -23.1507   16.7558  -29.9356 O   0  0  0  0  0  0  0  0  0  0  0  0
  -24.8507   17.2558  -28.8356 O   0  0  0  0  0  0  0  0  0  0  0  0
  -19.1507   17.4558  -27.3356 N   0  0  0  0  0  0  0  0  0  0  0  0
  -18.8507   16.1558  -27.8356 C   0  0  0  0  0  0  0  0  0  0  0  0
  -17.9507   15.9558  -28.9356 C   0  0  0  0  0  0  0  0  0  0  0  0
  -18.4507   15.1558  -30.0356 C   0  0  0  0  0  0  0  0  0  0  0  0
  -19.5507   15.6558  -30.8356 C   0  0  0  0  0  0  0  0  0  0  0  0
  -19.1507   16.6558  -31.7356 O   0  0  0  0  0  0  0  0  0  0  0  0
  -18.4507   16.5558  -26.5356 C   0  0  0  0  0  0  0  0  0  0  0  0
  -20.1507   17.6558  -31.9356 C   0  0  0  0  0  0  0  0  0  0  0  0
  2  1  1  0
  3  2  2  0
  4  2  1  0
  5  3  1  0
  6  4  2  0
  7  3  1  0
  8  6  1  0
  8  7  2  0
  9  8  1  0
 10  9  2  0
 11  9  1  0
 12  4  1  0
 13 12  1  0
 14 13  1  0
 15 14  1  0
 16 15  1  0
 17 16  1  0
 18 12  1  0
 18 13  1  0
 19 17  1  0
M  END
>  <ID>  (1) 
conformer_0

$$$$
