
     RDKit          3D

 17 18  0  0  0  0  0  0  0  0999 V2000
  -20.1507   19.4558  -25.4356 O   0  0  0  0  0  0  0  0  0  0  0  0
  -20.9507   18.3558  -25.8356 C   0  0  0  0  0  0  0  0  0  0  0  0
  -22.3507   18.4558  -25.5356 C   0  0  0  0  0  0  0  0  0  0  0  0
  -20.3507   17.6558  -26.9356 C   0  0  0  0  0  0  0  0  0  0  0  0
  -22.4507   18.6558  -24.1356 O   0  0  0  0  0  0  0  0  0  0  0  0
  -21.3507   16.8558  -27.6356 C   0  0  0  0  0  0  0  0  0  0  0  0
  -23.1507   18.1558  -26.7356 C   0  0  0  0  0  0  0  0  0  0  0  0
  -22.5507   17.6558  -27.9356 C   0  0  0  0  0  0  0  0  0  0  0  0
  -19.0507   17.1558  -26.7356 O   0  0  0  0  0  0  0  0  0  0  0  0
  -18.8507   15.7558  -27.2356 C   0  0  0  0  0  0  0  0  0  0  0  0
  -23.2507   17.6558  -29.1356 C   0  0  0  0  0  0  0  0  0  0  0  0
  -24.3507   17.0558  -29.4356 O   0  0  0  0  0  0  0  0  0  0  0  0
  -23.0507   18.5558  -30.1356 O   0  0  0  0  0  0  0  0  0  0  0  0
  -18.9507   15.6558  -28.6356 C   0  0  0  0  0  0  0  0  0  0  0  0
  -17.8507   16.4558  -29.2356 C   0  0  0  0  0  0  0  0  0  0  0  0
  -19.1507   16.9558  -29.1356 O   0  0  0  0  0  0  0  0  0  0  0  0
  -21.1507   15.6558  -28.2356 O   0  0  0  0  0  0  0  0  0  0  0  0
  2  1  1  0
  3  2  2  0
  4  2  1  0
  5  3  1  0
  6  4  2  0
  7  3  1  0
  8  6  1  0
  8  7  2  0
  9  4  1  0
 10  9  1  0
 11  8  1  0
 12 11  2  0
 13 11  1  0
 14 10  1  0
 15 14  1  0
 16 14  1  0
 16 15  1  0
 17  6  1  0
M  END
>  <ID>  (1) 
conformer_0

$$$$
