
     RDKit          3D

 10 10  0  0  0  0  0  0  0  0999 V2000
  -20.4622   19.5356  -25.2462 O   0  0  0  0  0  0  0  0  0  0  0  0
  -19.9622   18.2356  -25.6462 C   0  0  0  0  0  0  0  0  0  0  0  0
  -20.4622   17.7356  -26.8462 C   0  0  0  0  0  0  0  0  0  0  0  0
  -18.7622   17.7356  -25.0462 C   0  0  0  0  0  0  0  0  0  0  0  0
  -21.1622   18.6356  -27.6462 O   0  0  0  0  0  0  0  0  0  0  0  0
  -20.6622   20.0356  -27.5462 C   0  0  0  0  0  0  0  0  0  0  0  0
  -20.0622   16.4356  -27.1462 C   0  0  0  0  0  0  0  0  0  0  0  0
  -18.0622   16.8356  -25.9462 C   0  0  0  0  0  0  0  0  0  0  0  0
  -18.6622   16.1356  -27.0462 C   0  0  0  0  0  0  0  0  0  0  0  0
  -18.0622   15.8356  -28.3462 C   0  0  0  0  0  0  0  0  0  0  0  0
  2  1  1  0
  3  2  2  0
  4  2  1  0
  5  3  1  0
  6  5  1  0
  7  3  1  0
  8  4  2  0
  9  7  2  0
  9  8  1  0
 10  9  1  0
M  END
>  <ID>  (1) 
conformer_0

$$$$
