
     RDKit          3D

 11 11  0  0  0  0  0  0  0  0999 V2000
  130.5899   52.9642   31.4683 C   0  0  0  0  0  0  0  0  0  0  0  0
  130.7597   51.9527   32.5715 C   0  0  0  0  0  0  0  0  0  0  0  0
  129.6807   52.9033   30.3365 C   0  0  0  0  0  0  0  0  0  0  0  0
  128.6395   52.1234   29.8960 O   0  0  0  0  0  0  0  0  0  0  0  0
  129.4766   51.1164   32.6258 C   0  0  0  0  0  0  0  0  0  0  0  0
  132.0840   52.2179   33.2559 C   0  0  0  0  0  0  0  0  0  0  0  0
  128.3327   52.0324   32.7856 O   0  0  0  0  0  0  0  0  0  0  0  0
  131.0965   54.5229   30.1020 C   0  0  0  0  0  0  0  0  0  0  0  0
  131.4086   53.9916   31.2845 N   0  0  0  0  0  0  0  0  0  0  0  0
  130.1040   53.8667   29.5035 N   0  0  0  0  0  0  0  0  0  0  0  0
  128.1815   52.3856   28.4897 C   0  0  0  0  0  0  0  0  0  0  0  0
  1  2  1  0
  1  3  2  0
  1  9  1  0
  2  5  1  0
  2  6  1  0
  3  4  1  0
  3 10  1  0
  4 11  1  0
  5  7  1  0
  8  9  1  0
  8 10  1  0
M  END
>  <ID>  (1) 
conformer_0

$$$$
