
     RDKit          3D

  6  5  0  0  0  0  0  0  0  0999 V2000
  129.9379   53.5570   31.5553 O   0  0  0  0  0  0  0  0  0  0  0  0
  130.8999   53.1204   32.3387 C   0  0  0  0  0  0  0  0  0  0  0  0
  130.9014   51.6508   32.7946 C   0  0  0  0  0  0  0  0  0  0  0  0
  128.5211   51.9640   33.1981 O   0  0  0  0  0  0  0  0  0  0  0  0
  131.6896   53.8484   33.0454 O   0  0  0  0  0  0  0  0  0  0  0  0
  129.4306   51.1269   32.4200 C   0  0  0  0  0  0  0  0  0  0  0  0
  1  2  2  0
  2  3  1  0
  2  5  1  0
  3  6  1  0
  4  6  1  0
M  END
>  <ID>  (1) 
conformer_0

$$$$
