
     RDKit          3D

  9  9  0  0  0  0  0  0  0  0999 V2000
  128.6560   51.6812   31.8834 C   0  0  0  0  0  0  0  0  0  0  0  0
  130.4200   53.4878   31.1047 C   0  0  0  0  0  0  0  0  0  0  0  0
  132.2114   53.6876   32.6960 C   0  0  0  0  0  0  0  0  0  0  0  0
  129.7777   51.0254   32.6621 C   0  0  0  0  0  0  0  0  0  0  0  0
  130.5058   52.1466   33.1985 N   0  0  0  0  0  0  0  0  0  0  0  0
  131.0379   53.0092   32.3200 C   0  0  0  0  0  0  0  0  0  0  0  0
  130.9939   54.4895   30.3985 N   0  0  0  0  0  0  0  0  0  0  0  0
  132.9209   54.4051   31.7837 C   0  0  0  0  0  0  0  0  0  0  0  0
  132.2374   54.9508   30.7106 N   0  0  0  0  0  0  0  0  0  0  0  0
  1  4  1  0
  2  6  2  0
  2  7  1  0
  3  6  1  0
  3  8  1  0
  4  5  1  0
  5  6  1  0
  7  9  2  0
  8  9  1  0
M  END
>  <ID>  (1) 
conformer_0

$$$$
