
     RDKit          3D

  8  8  0  0  0  0  0  0  0  0999 V2000
  129.8008   51.2122   32.8048 C   0  0  0  0  0  0  0  0  0  0  0  0
  131.0838   51.9804   32.6067 C   0  0  0  0  0  0  0  0  0  0  0  0
  128.6139   52.0650   32.3253 C   0  0  0  0  0  0  0  0  0  0  0  0
  129.0892   52.7694   28.8710 O   0  0  0  0  0  0  0  0  0  0  0  0
  130.9226   53.3351   32.0857 C   0  0  0  0  0  0  0  0  0  0  0  0
  128.5574   51.8701   30.8941 N   0  0  0  0  0  0  0  0  0  0  0  0
  129.2578   52.7671   30.1045 C   0  0  0  0  0  0  0  0  0  0  0  0
  130.2387   53.6409   30.8015 C   0  0  0  0  0  0  0  0  0  0  0  0
  1  2  1  0
  1  3  1  0
  2  5  1  0
  3  6  1  0
  4  7  2  0
  5  8  1  0
  6  7  1  0
  7  8  1  0
M  END
>  <ID>  (1) 
conformer_0

$$$$
