
     RDKit          3D

 13 14  0  0  0  0  0  0  0  0999 V2000
  128.6877   51.8731   30.5585 N   0  0  0  0  0  0  0  0  0  0  0  0
  131.5286   53.7011   31.6159 C   0  0  0  0  0  0  0  0  0  0  0  0
  127.3673   51.6008   28.0563 C   0  0  0  0  0  0  0  0  0  0  0  0
  131.0071   52.2877   33.5019 N   0  0  0  0  0  0  0  0  0  0  0  0
  132.1426   54.7115   31.0145 N   0  0  0  0  0  0  0  0  0  0  0  0
  131.8800   53.1411   32.8828 C   0  0  0  0  0  0  0  0  0  0  0  0
  129.5929   52.2067   31.5341 C   0  0  0  0  0  0  0  0  0  0  0  0
  128.9648   52.6674   29.5134 C   0  0  0  0  0  0  0  0  0  0  0  0
  126.9558   50.5010   28.4101 N   0  0  0  0  0  0  0  0  0  0  0  0
  130.3996   53.1812   30.9881 C   0  0  0  0  0  0  0  0  0  0  0  0
  129.9569   51.6410   32.8106 C   0  0  0  0  0  0  0  0  0  0  0  0
  129.9593   53.4676   29.7150 N   0  0  0  0  0  0  0  0  0  0  0  0
  128.3268   52.4991   28.2995 N   0  0  0  0  0  0  0  0  0  0  0  0
  1  7  1  0
  1  8  1  0
  2  5  2  0
  2  6  1  0
  2 10  1  0
  3  9  2  0
  3 13  1  0
  4  6  1  0
  4 11  1  0
  7 10  2  0
  7 11  1  0
  8 12  1  0
  8 13  2  3
 10 12  1  0
M  END
>  <ID>  (1) 
conformer_0

$$$$
