
     RDKit          3D

  6  5  0  0  0  0  0  0  0  0999 V2000
  129.6274   50.9135   32.6339 C   0  0  0  0  0  0  0  0  0  0  0  0
  129.5932   53.1507   29.9644 O   0  0  0  0  0  0  0  0  0  0  0  0
  130.8228   54.2725   30.3471 C   0  0  0  0  0  0  0  0  0  0  0  0
  130.8021   53.4559   31.7721 C   0  0  0  0  0  0  0  0  0  0  0  0
  128.8526   52.0977   32.3862 O   0  0  0  0  0  0  0  0  0  0  0  0
  129.4851   52.8451   31.3128 C   0  0  0  0  0  0  0  0  0  0  0  0
  1  5  1  0
  2  6  2  0
  3  4  1  0
  4  6  1  0
  5  6  1  0
M  END
>  <ID>  (1) 
conformer_0

$$$$
