
     RDKit          3D

  8  8  0  0  0  0  0  0  0  0999 V2000
  130.4180   52.3065   32.5022 N   0  0  0  0  0  0  0  0  0  0  0  0
  131.6662   52.2384   33.1940 C   0  0  0  0  0  0  0  0  0  0  0  0
  128.6366   51.7521   31.1313 C   0  0  0  0  0  0  0  0  0  0  0  0
  130.3868   53.3320   31.4823 C   0  0  0  0  0  0  0  0  0  0  0  0
  129.3740   52.8860   30.5701 C   0  0  0  0  0  0  0  0  0  0  0  0
  131.7928   53.6289   33.7151 O   0  0  0  0  0  0  0  0  0  0  0  0
  129.3679   51.3811   32.4143 C   0  0  0  0  0  0  0  0  0  0  0  0
  129.2661   53.1553   29.2642 N   0  0  0  0  0  0  0  0  0  0  0  0
  1  2  1  0
  1  4  1  0
  1  7  1  0
  2  6  1  0
  3  5  1  0
  3  7  1  0
  4  5  1  0
  5  8  1  0
M  END
>  <ID>  (1) 
conformer_0

$$$$
