
     RDKit          3D

 20 21  0  0  0  0  0  0  0  0999 V2000
  135.8537   54.8128   33.8988 C   0  0  0  0  0  0  0  0  0  0  0  0
  137.2587   54.5351   35.8364 C   0  0  0  0  0  0  0  0  0  0  0  0
  130.4750   53.1495   31.2972 N   0  0  0  0  0  0  0  0  0  0  0  0
  127.0104   50.2682   28.7527 O   0  0  0  0  0  0  0  0  0  0  0  0
  128.5305   52.5324   29.7546 C   0  0  0  0  0  0  0  0  0  0  0  0
  130.9520   51.4962   32.8942 C   0  0  0  0  0  0  0  0  0  0  0  0
  128.0761   52.3684   28.3542 C   0  0  0  0  0  0  0  0  0  0  0  0
  132.4955   53.5817   32.6653 N   0  0  0  0  0  0  0  0  0  0  0  0
  136.1707   53.9430   34.9991 O   0  0  0  0  0  0  0  0  0  0  0  0
  134.0450   55.1566   32.2290 C   0  0  0  0  0  0  0  0  0  0  0  0
  134.5597   54.4913   33.2993 C   0  0  0  0  0  0  0  0  0  0  0  0
  132.8344   54.5960   31.8648 C   0  0  0  0  0  0  0  0  0  0  0  0
  131.2413   52.8416   32.4591 C   0  0  0  0  0  0  0  0  0  0  0  0
  129.5344   50.9904   32.7014 C   0  0  0  0  0  0  0  0  0  0  0  0
  128.6968   51.9249   32.0966 N   0  0  0  0  0  0  0  0  0  0  0  0
  129.2599   52.6028   31.0688 C   0  0  0  0  0  0  0  0  0  0  0  0
  126.5496   51.4069   26.8593 O   0  0  0  0  0  0  0  0  0  0  0  0
  133.6198   53.5016   33.6388 N   0  0  0  0  0  0  0  0  0  0  0  0
  127.1664   51.2699   28.0001 C   0  0  0  0  0  0  0  0  0  0  0  0
  136.3696   56.0794   33.3923 C   0  0  0  0  0  0  0  0  0  0  0  0
  1  9  1  0
  1 11  2  3
  1 20  1  0
  2  9  1  0
  3 13  2  0
  3 16  1  0
  4 19  2  0
  5  7  2  0
  5 16  2  0
  6 13  1  0
  6 14  1  0
  7 19  1  0
  8 12  1  0
  8 13  1  0
  8 18  1  0
 10 11  1  0
 10 12  1  0
 11 18  1  0
 14 15  1  0
 15 16  1  0
 17 19  1  0
M  END
>  <ID>  (1) 
conformer_0

$$$$
