
     RDKit          3D

 10 11  0  0  0  0  0  0  0  0999 V2000
  129.4763   51.0450   32.6923 C   0  0  0  0  0  0  0  0  0  0  0  0
  132.6532   52.8392   33.5618 C   0  0  0  0  0  0  0  0  0  0  0  0
  128.8208   52.1527   32.0521 C   0  0  0  0  0  0  0  0  0  0  0  0
  130.8088   54.4786   29.9814 C   0  0  0  0  0  0  0  0  0  0  0  0
  131.5659   53.5071   32.1497 C   0  0  0  0  0  0  0  0  0  0  0  0
  129.4795   52.7896   31.0288 C   0  0  0  0  0  0  0  0  0  0  0  0
  130.9383   51.3146   32.8328 C   0  0  0  0  0  0  0  0  0  0  0  0
  131.3678   52.6324   33.1734 N   0  0  0  0  0  0  0  0  0  0  0  0
  132.7504   53.9115   32.3952 N   0  0  0  0  0  0  0  0  0  0  0  0
  130.6465   53.5827   31.0457 C   0  0  0  0  0  0  0  0  0  0  0  0
  1  3  1  0
  1  7  1  0
  2  8  1  0
  2  9  1  0
  3  6  1  0
  4 10  1  0
  5  8  1  0
  5  9  2  0
  5 10  1  0
  6 10  1  0
  7  8  1  0
M  END
>  <ID>  (1) 
conformer_0

$$$$
