
     RDKit          3D

 28 30  0  0  0  0  0  0  0  0999 V2000
  129.2815   51.4481   32.0687 C   0  0  0  0  0  0  0  0  0  0  0  0
  127.5180   50.9397   29.6032 O   0  0  0  0  0  0  0  0  0  0  0  0
  130.8588   53.1645   31.9848 N   0  0  0  0  0  0  0  0  0  0  0  0
  126.6120   50.8290   27.2095 O   0  0  0  0  0  0  0  0  0  0  0  0
  128.8863   49.3327   33.2471 C   0  0  0  0  0  0  0  0  0  0  0  0
  128.6848   52.6506   29.1192 O   0  0  0  0  0  0  0  0  0  0  0  0
  133.4284   56.4291   31.1107 O   0  0  0  0  0  0  0  0  0  0  0  0
  128.8838   51.6626   33.5229 S   0  0  0  0  0  0  0  0  0  0  0  0
  133.2767   53.5849   33.3877 N   0  0  0  0  0  0  0  0  0  0  0  0
  128.5789   50.3802   34.1544 C   0  0  0  0  0  0  0  0  0  0  0  0
  130.4375   53.9858   29.4921 C   0  0  0  0  0  0  0  0  0  0  0  0
  128.1534   50.0104   35.2252 N   0  0  0  0  0  0  0  0  0  0  0  0
  128.7764   48.1160   33.7228 N   0  0  0  0  0  0  0  0  0  0  0  0
  134.5646   53.5687   33.8935 C   0  0  0  0  0  0  0  0  0  0  0  0
  136.9323   53.9948   33.4837 C   0  0  0  0  0  0  0  0  0  0  0  0
  129.8955   52.4980   31.3247 C   0  0  0  0  0  0  0  0  0  0  0  0
  129.6289   53.0296   29.9741 C   0  0  0  0  0  0  0  0  0  0  0  0
  131.4879   54.5331   30.1653 C   0  0  0  0  0  0  0  0  0  0  0  0
  130.0847   46.1793   33.7388 N   0  0  0  0  0  0  0  0  0  0  0  0
  135.6041   54.4097   33.3095 C   0  0  0  0  0  0  0  0  0  0  0  0
  132.9494   54.4261   32.2139 C   0  0  0  0  0  0  0  0  0  0  0  0
  135.1708   55.5368   32.5252 C   0  0  0  0  0  0  0  0  0  0  0  0
  131.7499   54.0389   31.4406 C   0  0  0  0  0  0  0  0  0  0  0  0
  133.7906   55.5514   31.8620 C   0  0  0  0  0  0  0  0  0  0  0  0
  129.4798   47.0823   33.0340 C   0  0  0  0  0  0  0  0  0  0  0  0
  127.0597   51.9259   27.6505 N   0  0  0  0  0  0  0  0  0  0  0  0
  129.2637   49.9496   31.9475 C   0  0  0  0  0  0  0  0  0  0  0  0
  127.7803   51.8222   28.7680 C   0  0  0  0  0  0  0  0  0  0  0  0
  1  8  1  0
  1 16  1  0
  1 27  1  0
  2 28  2  0
  3 16  2  0
  3 23  1  0
  4 26  1  0
  5 10  1  0
  5 13  1  0
  5 27  1  0
  6 17  1  0
  6 28  1  0
  7 24  2  0
  8 10  1  0
  9 14  2  0
  9 21  1  0
 10 12  2  0
 11 17  2  0
 11 18  1  0
 13 25  1  0
 14 20  1  0
 15 20  1  0
 16 17  1  0
 18 23  2  0
 19 25  2  0
 20 22  1  0
 21 23  1  0
 21 24  1  0
 22 24  1  0
 26 28  1  0
M  END
>  <ID>  (1) 
conformer_0

$$$$
