
     RDKit          3D

 11 10  0  0  0  0  0  0  0  0999 V2000
  131.5811   52.9012   33.1146 N   0  0  0  0  0  0  0  0  0  0  0  0
  132.8366   54.7286   32.1069 N   0  0  0  0  0  0  0  0  0  0  0  0
  132.3487   53.6805   32.5386 C   0  0  0  0  0  0  0  0  0  0  0  0
  130.6084   52.1982   32.4925 C   0  0  0  0  0  0  0  0  0  0  0  0
  132.9165   52.7324   33.3525 C   0  0  0  0  0  0  0  0  0  0  0  0
  129.8905   52.9366   31.3853 C   0  0  0  0  0  0  0  0  0  0  0  0
  128.7842   52.2517   30.7374 C   0  0  0  0  0  0  0  0  0  0  0  0
  127.9400   52.3282   28.3321 C   0  0  0  0  0  0  0  0  0  0  0  0
  128.7260   52.4938   29.4210 N   0  0  0  0  0  0  0  0  0  0  0  0
  127.2635   51.0709   28.0216 N   0  0  0  0  0  0  0  0  0  0  0  0
  129.9605   51.1263   32.9756 O   0  0  0  0  0  0  0  0  0  0  0  0
  1  3  1  0
  1  4  1  0
  2  3  2  0
  3  5  1  0
  4  6  1  0
  4 11  2  0
  6  7  1  0
  7  9  1  0
  8  9  1  0
  8 10  1  0
M  END
>  <ID>  (1) 
conformer_0

$$$$
