
     RDKit          3D

  7  6  0  0  0  0  0  0  0  0999 V2000
  131.0239   52.9078   32.1852 C   0  0  0  0  0  0  0  0  0  0  0  0
  130.0823   53.9030   32.6005 O   0  0  0  0  0  0  0  0  0  0  0  0
  128.5323   52.1071   31.9217 C   0  0  0  0  0  0  0  0  0  0  0  0
  129.3456   51.0113   32.6304 C   0  0  0  0  0  0  0  0  0  0  0  0
  129.0071   52.2120   30.5826 O   0  0  0  0  0  0  0  0  0  0  0  0
  130.8114   51.4927   32.7936 C   0  0  0  0  0  0  0  0  0  0  0  0
  132.3152   53.3483   32.9413 C   0  0  0  0  0  0  0  0  0  0  0  0
  1  2  1  0
  1  6  1  0
  1  7  1  0
  3  4  1  0
  3  5  1  0
  4  6  1  0
M  END
>  <ID>  (1) 
conformer_0

$$$$
