
     RDKit          3D

 27 29  0  0  0  0  0  0  0  0999 V2000
  131.2204   52.7626   32.5220 C   0  0  0  0  0  0  0  0  0  0  0  0
  129.5894   53.7828   28.9263 O   0  0  0  0  0  0  0  0  0  0  0  0
  127.0163   51.7173   26.8079 C   0  0  0  0  0  0  0  0  0  0  0  0
  133.5880   55.2940   33.6601 C   0  0  0  0  0  0  0  0  0  0  0  0
  129.6347   49.6449   32.9367 C   0  0  0  0  0  0  0  0  0  0  0  0
  127.8491   52.4458   27.6349 C   0  0  0  0  0  0  0  0  0  0  0  0
  128.9799   53.0165   29.5830 C   0  0  0  0  0  0  0  0  0  0  0  0
  130.9310   51.5879   33.0515 C   0  0  0  0  0  0  0  0  0  0  0  0
  133.5660   56.1977   31.0379 C   0  0  0  0  0  0  0  0  0  0  0  0
  132.9157   54.5789   32.6666 C   0  0  0  0  0  0  0  0  0  0  0  0
  128.0243   52.1742   28.9935 N   0  0  0  0  0  0  0  0  0  0  0  0
  127.3064   51.1336   29.5187 C   0  0  0  0  0  0  0  0  0  0  0  0
  126.7368   50.2853   28.6166 N   0  0  0  0  0  0  0  0  0  0  0  0
  134.2021   56.4611   33.3563 C   0  0  0  0  0  0  0  0  0  0  0  0
  134.1997   56.9347   32.0450 C   0  0  0  0  0  0  0  0  0  0  0  0
  129.9724   45.1498   33.6236 C   0  0  0  0  0  0  0  0  0  0  0  0
  129.0866   51.4396   31.5140 N   0  0  0  0  0  0  0  0  0  0  0  0
  129.8459   50.9164   32.4757 C   0  0  0  0  0  0  0  0  0  0  0  0
  129.5224   52.5856   30.8880 C   0  0  0  0  0  0  0  0  0  0  0  0
  130.1555   47.3138   33.3352 N   0  0  0  0  0  0  0  0  0  0  0  0
  130.9531   46.2949   33.2463 O   0  0  0  0  0  0  0  0  0  0  0  0
  132.3002   53.4071   33.1201 N   0  0  0  0  0  0  0  0  0  0  0  0
  128.8336   47.3877   33.5203 C   0  0  0  0  0  0  0  0  0  0  0  0
  132.9391   55.0262   31.3878 C   0  0  0  0  0  0  0  0  0  0  0  0
  126.5155   50.5543   27.3007 C   0  0  0  0  0  0  0  0  0  0  0  0
  130.7249   48.7110   33.1446 C   0  0  0  0  0  0  0  0  0  0  0  0
  130.5696   53.2802   31.4512 C   0  0  0  0  0  0  0  0  0  0  0  0
  1  8  2  0
  1 22  1  0
  1 27  1  0
  2  7  2  0
  3  6  2  0
  3 25  1  0
  4 10  2  0
  4 14  1  0
  5 18  1  0
  5 26  1  0
  6 11  1  0
  7 11  1  0
  7 19  1  0
  8 18  1  0
  9 15  1  0
  9 24  2  0
 10 22  1  0
 10 24  1  0
 11 12  1  0
 12 13  1  0
 13 25  2  0
 14 15  2  0
 16 21  1  0
 17 18  2  0
 17 19  1  0
 19 27  2  0
 20 21  1  0
 20 23  1  0
 20 26  1  0
M  END
>  <ID>  (1) 
conformer_0

$$$$
