
     RDKit          3D

  9  9  0  0  0  0  0  0  0  0999 V2000
  131.0715   52.5245   32.6462 C   0  0  0  0  0  0  0  0  0  0  0  0
  129.8616   52.0125   32.1251 N   0  0  0  0  0  0  0  0  0  0  0  0
  129.1135   50.9790   32.7535 C   0  0  0  0  0  0  0  0  0  0  0  0
  131.5468   52.1042   33.7889 O   0  0  0  0  0  0  0  0  0  0  0  0
  131.0098   54.4810   29.9136 C   0  0  0  0  0  0  0  0  0  0  0  0
  131.8060   53.5178   31.9734 C   0  0  0  0  0  0  0  0  0  0  0  0
  132.1990   54.5517   31.1061 C   0  0  0  0  0  0  0  0  0  0  0  0
  129.4735   52.5808   30.9645 N   0  0  0  0  0  0  0  0  0  0  0  0
  130.1496   53.5249   30.4168 C   0  0  0  0  0  0  0  0  0  0  0  0
  1  2  1  0
  1  4  2  0
  1  6  1  0
  2  3  1  0
  2  8  1  0
  5  7  1  0
  5  9  1  0
  6  7  1  0
  8  9  1  0
M  END
>  <ID>  (1) 
conformer_0

$$$$
