
     RDKit          3D

  8  8  0  0  0  0  0  0  0  0999 V2000
  130.4017   53.4102   31.3225 C   0  0  0  0  0  0  0  0  0  0  0  0
  131.8000   53.9760   33.2236 O   0  0  0  0  0  0  0  0  0  0  0  0
  128.7995   51.7887   31.9435 C   0  0  0  0  0  0  0  0  0  0  0  0
  131.0544   51.7376   33.0192 C   0  0  0  0  0  0  0  0  0  0  0  0
  130.6051   54.5163   30.6035 N   0  0  0  0  0  0  0  0  0  0  0  0
  129.4290   52.5243   30.9209 N   0  0  0  0  0  0  0  0  0  0  0  0
  131.2277   53.0747   32.4508 C   0  0  0  0  0  0  0  0  0  0  0  0
  129.7977   51.0112   32.7215 C   0  0  0  0  0  0  0  0  0  0  0  0
  1  5  2  0
  1  6  1  0
  1  7  1  0
  2  7  1  0
  3  6  1  0
  3  8  1  0
  4  7  1  0
  4  8  1  0
M  END
>  <ID>  (1) 
conformer_0

$$$$
