
     RDKit          3D

 13 14  0  0  0  0  0  0  0  0999 V2000
  128.7564   51.5303   31.6130 C   0  0  0  0  0  0  0  0  0  0  0  0
  129.0703   52.3210   30.4876 C   0  0  0  0  0  0  0  0  0  0  0  0
  132.1618   53.9007   31.9172 C   0  0  0  0  0  0  0  0  0  0  0  0
  130.1312   53.1142   30.5184 N   0  0  0  0  0  0  0  0  0  0  0  0
  131.8786   52.2810   33.5380 C   0  0  0  0  0  0  0  0  0  0  0  0
  130.7415   52.3435   32.6943 N   0  0  0  0  0  0  0  0  0  0  0  0
  128.3258   52.1264   29.1969 C   0  0  0  0  0  0  0  0  0  0  0  0
  132.7426   53.2753   33.0484 N   0  0  0  0  0  0  0  0  0  0  0  0
  128.7436   52.7956   28.1694 N   0  0  0  0  0  0  0  0  0  0  0  0
  129.6702   51.4874   32.6546 C   0  0  0  0  0  0  0  0  0  0  0  0
  134.0383   53.3700   33.5743 C   0  0  0  0  0  0  0  0  0  0  0  0
  127.4421   51.1743   29.0795 O   0  0  0  0  0  0  0  0  0  0  0  0
  130.9103   53.2052   31.6337 C   0  0  0  0  0  0  0  0  0  0  0  0
  1  2  1  0
  1 10  2  0
  2  4  2  0
  2  7  1  0
  3  8  1  0
  3 13  1  0
  4 13  1  0
  5  6  1  0
  5  8  1  0
  6 10  1  0
  6 13  1  0
  7  9  1  0
  7 12  2  0
  8 11  1  0
M  END
>  <ID>  (1) 
conformer_0

$$$$
