
     RDKit          3D

 20 22  0  0  0  0  0  0  0  0999 V2000
  133.5875   55.0877   31.9651 C   0  0  0  0  0  0  0  0  0  0  0  0
  130.5033   53.3735   30.8608 N   0  0  0  0  0  0  0  0  0  0  0  0
  129.8550   51.8122   32.6040 C   0  0  0  0  0  0  0  0  0  0  0  0
  129.6632   52.4840   31.3351 C   0  0  0  0  0  0  0  0  0  0  0  0
  128.9022   50.9307   33.1211 C   0  0  0  0  0  0  0  0  0  0  0  0
  127.8067   51.4850   27.6507 O   0  0  0  0  0  0  0  0  0  0  0  0
  129.0158   52.8879   29.3042 C   0  0  0  0  0  0  0  0  0  0  0  0
  126.9085   50.8151   28.5826 C   0  0  0  0  0  0  0  0  0  0  0  0
  130.9833   52.1476   33.2604 N   0  0  0  0  0  0  0  0  0  0  0  0
  132.2127   55.4617   29.9100 C   0  0  0  0  0  0  0  0  0  0  0  0
  133.0023   53.3996   33.5712 C   0  0  0  0  0  0  0  0  0  0  0  0
  131.8647   53.1066   32.7900 C   0  0  0  0  0  0  0  0  0  0  0  0
  128.4440   52.6510   28.0853 N   0  0  0  0  0  0  0  0  0  0  0  0
  133.8232   56.1244   28.4796 C   0  0  0  0  0  0  0  0  0  0  0  0
  133.8551   54.4168   33.1501 C   0  0  0  0  0  0  0  0  0  0  0  0
  130.0614   53.6886   29.6171 C   0  0  0  0  0  0  0  0  0  0  0  0
  128.6186   52.0797   30.4221 C   0  0  0  0  0  0  0  0  0  0  0  0
  132.9958   56.6051   29.5965 O   0  0  0  0  0  0  0  0  0  0  0  0
  131.6312   53.7741   31.5884 C   0  0  0  0  0  0  0  0  0  0  0  0
  132.4949   54.7717   31.1366 C   0  0  0  0  0  0  0  0  0  0  0  0
  1 15  2  0
  1 20  1  0
  2  4  1  0
  2 16  1  0
  2 19  1  0
  3  4  2  0
  3  5  1  0
  3  9  1  0
  4 17  1  0
  6  8  1  0
  6 13  1  0
  7 13  2  3
  7 16  1  0
  7 17  1  0
  9 12  2  0
 10 18  1  0
 10 20  1  0
 11 12  1  0
 11 15  1  0
 12 19  1  0
 14 18  1  0
 19 20  2  0
M  END
>  <ID>  (1) 
conformer_0

$$$$
