
     RDKit          3D

 10 11  0  0  0  0  0  0  0  0999 V2000
  129.7205   53.3697   28.8683 N   0  0  0  0  0  0  0  0  0  0  0  0
  130.1775   51.8237   32.6033 C   0  0  0  0  0  0  0  0  0  0  0  0
  129.7790   52.4449   31.3328 C   0  0  0  0  0  0  0  0  0  0  0  0
  131.3524   52.4886   33.0039 C   0  0  0  0  0  0  0  0  0  0  0  0
  130.6824   53.4010   31.0201 C   0  0  0  0  0  0  0  0  0  0  0  0
  129.0832   50.9794   33.1325 C   0  0  0  0  0  0  0  0  0  0  0  0
  131.5865   53.5581   32.0555 C   0  0  0  0  0  0  0  0  0  0  0  0
  128.7796   51.9746   30.5614 N   0  0  0  0  0  0  0  0  0  0  0  0
  130.6134   53.9053   29.7479 C   0  0  0  0  0  0  0  0  0  0  0  0
  128.7840   52.4956   29.2886 N   0  0  0  0  0  0  0  0  0  0  0  0
  1  9  2  0
  1 10  1  0
  2  3  1  0
  2  4  1  0
  2  6  1  0
  3  5  2  0
  3  8  1  0
  4  7  1  0
  5  7  1  0
  5  9  1  0
  8 10  1  0
M  END
>  <ID>  (1) 
conformer_0

$$$$
