
     RDKit          3D

  8  8  0  0  0  0  0  0  0  0999 V2000
  128.5807   51.9202   31.2680 C   0  0  0  0  0  0  0  0  0  0  0  0
  129.2749   52.7497   30.2906 C   0  0  0  0  0  0  0  0  0  0  0  0
  130.1688   53.7064   30.8913 C   0  0  0  0  0  0  0  0  0  0  0  0
  130.6356   54.6123   30.0506 O   0  0  0  0  0  0  0  0  0  0  0  0
  130.7760   51.9435   32.5900 C   0  0  0  0  0  0  0  0  0  0  0  0
  131.0517   53.3396   32.0240 C   0  0  0  0  0  0  0  0  0  0  0  0
  128.7282   51.1207   33.4965 O   0  0  0  0  0  0  0  0  0  0  0  0
  129.3988   51.4883   32.3775 C   0  0  0  0  0  0  0  0  0  0  0  0
  1  2  1  0
  1  8  1  0
  2  3  1  0
  3  4  1  0
  3  6  1  0
  5  6  1  0
  5  8  1  0
  7  8  1  0
M  END
>  <ID>  (1) 
conformer_0

$$$$
