
     RDKit          3D

 11 12  0  0  0  0  0  0  0  0999 V2000
  130.2839   54.0913   30.1566 C   0  0  0  0  0  0  0  0  0  0  0  0
  132.7642   54.0385   32.1423 C   0  0  0  0  0  0  0  0  0  0  0  0
  131.6204   52.3199   33.1772 C   0  0  0  0  0  0  0  0  0  0  0  0
  133.6095   53.4727   33.1900 C   0  0  0  0  0  0  0  0  0  0  0  0
  132.6909   52.6736   33.9408 O   0  0  0  0  0  0  0  0  0  0  0  0
  130.3898   53.2404   31.3420 C   0  0  0  0  0  0  0  0  0  0  0  0
  129.3687   52.2607   31.5142 C   0  0  0  0  0  0  0  0  0  0  0  0
  129.4554   51.4282   32.6608 C   0  0  0  0  0  0  0  0  0  0  0  0
  130.4450   51.7926   33.5274 N   0  0  0  0  0  0  0  0  0  0  0  0
  131.5526   53.2803   32.1432 C   0  0  0  0  0  0  0  0  0  0  0  0
  128.4955   52.0108   30.5408 N   0  0  0  0  0  0  0  0  0  0  0  0
  1  6  1  0
  2  4  1  0
  2 10  1  0
  3  5  1  0
  3  9  1  0
  3 10  1  0
  4  5  1  0
  6  7  1  0
  6 10  2  0
  7  8  1  0
  7 11  2  0
  8  9  1  0
M  END
>  <ID>  (1) 
conformer_0

$$$$
