
     RDKit          3D

 13 14  0  0  0  0  0  0  0  0999 V2000
  131.7020   53.9201   31.5388 C   0  0  0  0  0  0  0  0  0  0  0  0
  132.8006   54.6756   31.8512 O   0  0  0  0  0  0  0  0  0  0  0  0
  129.8730   52.4352   31.5634 C   0  0  0  0  0  0  0  0  0  0  0  0
  132.9905   52.7398   33.7665 N   0  0  0  0  0  0  0  0  0  0  0  0
  128.7238   51.5307   31.5943 N   0  0  0  0  0  0  0  0  0  0  0  0
  131.7549   52.1837   33.3442 C   0  0  0  0  0  0  0  0  0  0  0  0
  130.9598   54.2104   30.3627 C   0  0  0  0  0  0  0  0  0  0  0  0
  129.0125   53.2013   29.3953 O   0  0  0  0  0  0  0  0  0  0  0  0
  133.7928   53.8616   33.9008 O   0  0  0  0  0  0  0  0  0  0  0  0
  129.2271   51.1863   32.6759 C   0  0  0  0  0  0  0  0  0  0  0  0
  133.7216   54.8195   32.8090 C   0  0  0  0  0  0  0  0  0  0  0  0
  129.8960   53.2959   30.3572 N   0  0  0  0  0  0  0  0  0  0  0  0
  131.1309   52.8519   32.2234 C   0  0  0  0  0  0  0  0  0  0  0  0
  1  2  1  0
  1  7  1  0
  1 13  2  0
  2 11  1  0
  3  5  2  3
  3 12  1  0
  3 13  1  0
  4  6  1  0
  4  9  1  0
  5 10  1  0
  6 13  1  0
  7 12  1  0
  8 12  1  0
  9 11  1  0
M  END
>  <ID>  (1) 
conformer_0

$$$$
