
     RDKit          3D

 11 12  0  0  0  0  0  0  0  0999 V2000
  131.5793   51.8517   33.3386 C   0  0  0  0  0  0  0  0  0  0  0  0
  132.0379   53.7642   32.2901 N   0  0  0  0  0  0  0  0  0  0  0  0
  133.4275   53.1160   34.1099 N   0  0  0  0  0  0  0  0  0  0  0  0
  130.9072   53.2785   31.7473 C   0  0  0  0  0  0  0  0  0  0  0  0
  130.2421   53.6195   30.5786 C   0  0  0  0  0  0  0  0  0  0  0  0
  130.5647   52.1172   32.4408 C   0  0  0  0  0  0  0  0  0  0  0  0
  128.8423   52.8901   28.8036 N   0  0  0  0  0  0  0  0  0  0  0  0
  128.6420   51.8687   31.0308 C   0  0  0  0  0  0  0  0  0  0  0  0
  129.3005   51.5263   32.2267 C   0  0  0  0  0  0  0  0  0  0  0  0
  132.5017   52.9451   33.2473 C   0  0  0  0  0  0  0  0  0  0  0  0
  129.2130   52.8053   30.1464 C   0  0  0  0  0  0  0  0  0  0  0  0
  1  6  1  0
  1 10  1  0
  2  4  1  0
  2 10  1  0
  3 10  2  0
  4  5  2  0
  4  6  1  0
  5 11  1  0
  6  9  1  0
  7 11  1  0
  8  9  2  0
  8 11  1  0
M  END
>  <ID>  (1) 
conformer_0

$$$$
