
     RDKit          3D

 14 16  0  0  0  0  0  0  0  0999 V2000
  130.6829   53.2206   31.8410 C   0  0  0  0  0  0  0  0  0  0  0  0
  131.4148   54.0126   30.9733 C   0  0  0  0  0  0  0  0  0  0  0  0
  132.6500   53.5162   32.8370 C   0  0  0  0  0  0  0  0  0  0  0  0
  129.6375   51.2290   32.4685 C   0  0  0  0  0  0  0  0  0  0  0  0
  128.5275   51.1722   33.3463 O   0  0  0  0  0  0  0  0  0  0  0  0
  131.2654   54.5905   29.8132 N   0  0  0  0  0  0  0  0  0  0  0  0
  132.3080   55.4118   29.4838 C   0  0  0  0  0  0  0  0  0  0  0  0
  129.5140   52.4484   31.6306 C   0  0  0  0  0  0  0  0  0  0  0  0
  128.6700   52.5119   30.5186 C   0  0  0  0  0  0  0  0  0  0  0  0
  131.4406   52.7988   32.9384 N   0  0  0  0  0  0  0  0  0  0  0  0
  132.6694   54.4001   31.6209 C   0  0  0  0  0  0  0  0  0  0  0  0
  133.1091   55.4855   30.7201 C   0  0  0  0  0  0  0  0  0  0  0  0
  129.1594   52.8662   29.2692 O   0  0  0  0  0  0  0  0  0  0  0  0
  130.9120   51.4991   33.2649 C   0  0  0  0  0  0  0  0  0  0  0  0
  1  2  1  0
  1  8  1  0
  1 10  1  0
  2  6  1  0
  2 11  2  0
  3 10  1  0
  3 11  1  0
  4  5  1  0
  4  8  1  0
  4 14  1  0
  6  7  1  0
  7 12  1  0
  8  9  1  0
  9 13  1  0
 10 14  1  0
 11 12  1  0
M  END
>  <ID>  (1) 
conformer_0

$$$$
