
     RDKit          3D

 23 24  0  0  0  0  0  0  0  0999 V2000
  133.0806   55.2278   31.0853 C   0  0  0  0  0  0  0  0  0  0  0  0
  129.2664   52.6767   30.3448 N   0  0  0  0  0  0  0  0  0  0  0  0
  132.2230   54.2825   31.5411 C   0  0  0  0  0  0  0  0  0  0  0  0
  128.6736   44.8330   34.3463 O   0  0  0  0  0  0  0  0  0  0  0  0
  130.6708   45.6637   33.6176 N   0  0  0  0  0  0  0  0  0  0  0  0
  134.1118   55.6780   31.8684 C   0  0  0  0  0  0  0  0  0  0  0  0
  129.3207   45.6506   33.5289 C   0  0  0  0  0  0  0  0  0  0  0  0
  129.9378   50.2690   33.3562 C   0  0  0  0  0  0  0  0  0  0  0  0
  130.2824   52.4101   32.4220 C   0  0  0  0  0  0  0  0  0  0  0  0
  131.1884   53.8397   30.6345 C   0  0  0  0  0  0  0  0  0  0  0  0
  128.5414   46.8716   33.0742 C   0  0  0  0  0  0  0  0  0  0  0  0
  129.4079   47.9291   33.1322 C   0  0  0  0  0  0  0  0  0  0  0  0
  130.4302   51.3982   33.2923 C   0  0  0  0  0  0  0  0  0  0  0  0
  133.4321   54.2107   33.6172 C   0  0  0  0  0  0  0  0  0  0  0  0
  132.3927   53.8185   32.8198 C   0  0  0  0  0  0  0  0  0  0  0  0
  129.2203   53.0312   29.0335 C   0  0  0  0  0  0  0  0  0  0  0  0
  130.2721   53.8097   28.5563 N   0  0  0  0  0  0  0  0  0  0  0  0
  134.2953   55.1763   33.1412 C   0  0  0  0  0  0  0  0  0  0  0  0
  128.9967   49.3864   32.9660 C   0  0  0  0  0  0  0  0  0  0  0  0
  130.2300   52.9787   31.0977 N   0  0  0  0  0  0  0  0  0  0  0  0
  131.1470   54.2147   29.3789 N   0  0  0  0  0  0  0  0  0  0  0  0
  128.2074   52.6200   28.1459 N   0  0  0  0  0  0  0  0  0  0  0  0
  130.7452   48.0855   33.2828 C   0  0  0  0  0  0  0  0  0  0  0  0
  1  3  2  0
  1  6  1  0
  2 16  1  0
  2 20  1  0
  3 10  1  0
  3 15  1  0
  4  7  2  0
  5  7  1  0
  6 18  2  0
  7 11  1  0
  8 13  1  0
  8 19  1  0
  9 13  1  0
  9 20  1  0
 10 20  1  0
 10 21  2  0
 11 12  1  0
 12 19  1  0
 12 23  2  0
 14 15  2  0
 14 18  1  0
 16 17  1  0
 16 22  2  0
 17 21  1  0
M  END
>  <ID>  (1) 
conformer_0

$$$$
