
     RDKit          3D

  7  6  0  0  0  0  0  0  0  0999 V2000
  129.2539   51.8168   32.1473 C   0  0  0  0  0  0  0  0  0  0  0  0
  128.8491   51.1533   33.3767 C   0  0  0  0  0  0  0  0  0  0  0  0
  131.1440   52.4730   33.4689 O   0  0  0  0  0  0  0  0  0  0  0  0
  130.6183   52.4439   32.1756 C   0  0  0  0  0  0  0  0  0  0  0  0
  128.7470   51.3270   31.0608 O   0  0  0  0  0  0  0  0  0  0  0  0
  129.3556   53.7817   30.4512 O   0  0  0  0  0  0  0  0  0  0  0  0
  130.5428   53.7415   31.3481 C   0  0  0  0  0  0  0  0  0  0  0  0
  1  2  1  0
  1  4  1  0
  1  5  1  0
  3  4  1  0
  4  7  1  0
  6  7  1  0
M  END
>  <ID>  (1) 
conformer_0

$$$$
