
     RDKit          3D

 13 14  0  0  0  0  0  0  0  0999 V2000
  127.7397   52.0255   28.1236 C   0  0  0  0  0  0  0  0  0  0  0  0
  129.4215   53.0915   29.4223 C   0  0  0  0  0  0  0  0  0  0  0  0
  130.6750   53.1991   32.2869 C   0  0  0  0  0  0  0  0  0  0  0  0
  127.3400   51.3067   29.1968 C   0  0  0  0  0  0  0  0  0  0  0  0
  128.7634   52.9279   28.2079 C   0  0  0  0  0  0  0  0  0  0  0  0
  131.4847   54.1118   31.7013 C   0  0  0  0  0  0  0  0  0  0  0  0
  131.2892   54.4283   30.3968 C   0  0  0  0  0  0  0  0  0  0  0  0
  129.5772   52.5402   31.8271 C   0  0  0  0  0  0  0  0  0  0  0  0
  127.9673   51.4824   30.4004 C   0  0  0  0  0  0  0  0  0  0  0  0
  129.3889   50.5400   32.8148 C   0  0  0  0  0  0  0  0  0  0  0  0
  130.4635   53.9889   29.4885 C   0  0  0  0  0  0  0  0  0  0  0  0
  129.0342   52.3733   30.5455 C   0  0  0  0  0  0  0  0  0  0  0  0
  128.8519   51.8899   32.8185 O   0  0  0  0  0  0  0  0  0  0  0  0
  1  4  2  0
  1  5  1  0
  2  5  2  0
  2 11  1  0
  2 12  1  0
  3  6  1  0
  3  8  2  0
  4  9  1  0
  6  7  1  0
  7 11  2  0
  8 12  1  0
  8 13  1  0
  9 12  2  0
 10 13  1  0
M  END
>  <ID>  (1) 
conformer_0

$$$$
