
     RDKit          3D

 11 12  0  0  0  0  0  0  0  0999 V2000
  129.0215   52.9266   28.6964 N   0  0  0  0  0  0  0  0  0  0  0  0
  131.5302   53.4766   32.3141 C   0  0  0  0  0  0  0  0  0  0  0  0
  130.5496   53.5286   31.2170 C   0  0  0  0  0  0  0  0  0  0  0  0
  127.9053   51.4475   29.7607 N   0  0  0  0  0  0  0  0  0  0  0  0
  128.1783   52.3979   27.8183 N   0  0  0  0  0  0  0  0  0  0  0  0
  130.0691   51.8479   33.2392 N   0  0  0  0  0  0  0  0  0  0  0  0
  129.5764   52.5565   31.0741 C   0  0  0  0  0  0  0  0  0  0  0  0
  127.4579   51.3847   28.4567 C   0  0  0  0  0  0  0  0  0  0  0  0
  131.4801   52.0834   32.9369 C   0  0  0  0  0  0  0  0  0  0  0  0
  128.7978   52.4073   29.8662 C   0  0  0  0  0  0  0  0  0  0  0  0
  129.1972   51.7570   32.1699 C   0  0  0  0  0  0  0  0  0  0  0  0
  1  5  1  0
  1 10  1  0
  2  3  1  0
  2  9  1  0
  3  7  1  0
  4  8  1  0
  4 10  1  0
  5  8  1  0
  6  9  1  0
  6 11  1  0
  7 10  2  3
  7 11  1  0
M  END
>  <ID>  (1) 
conformer_0

$$$$
