
     RDKit          3D

 10 11  0  0  0  0  0  0  0  0999 V2000
  129.1484   53.1810   29.6385 C   0  0  0  0  0  0  0  0  0  0  0  0
  129.8393   52.4938   31.5426 C   0  0  0  0  0  0  0  0  0  0  0  0
  130.0170   51.7059   32.7276 C   0  0  0  0  0  0  0  0  0  0  0  0
  132.0921   52.8788   33.0866 C   0  0  0  0  0  0  0  0  0  0  0  0
  130.3354   53.8794   29.9617 C   0  0  0  0  0  0  0  0  0  0  0  0
  131.2019   51.8751   33.4235 C   0  0  0  0  0  0  0  0  0  0  0  0
  131.8668   53.6723   31.9735 C   0  0  0  0  0  0  0  0  0  0  0  0
  130.7794   53.3948   31.1934 C   0  0  0  0  0  0  0  0  0  0  0  0
  128.8553   51.0939   33.2247 N   0  0  0  0  0  0  0  0  0  0  0  0
  128.8524   52.3152   30.6694 N   0  0  0  0  0  0  0  0  0  0  0  0
  1  5  1  0
  1 10  1  0
  2  3  1  0
  2  8  2  0
  2 10  1  0
  3  6  1  0
  3  9  1  0
  4  6  1  0
  4  7  2  0
  5  8  1  0
  7  8  1  0
M  END
>  <ID>  (1) 
conformer_0

$$$$
