
     RDKit          3D

 20 21  0  0  0  0  0  0  0  0999 V2000
  132.8905   55.8238   29.9076 C   0  0  0  0  0  0  0  0  0  0  0  0
  130.5769   45.8397   33.5228 N   0  0  0  0  0  0  0  0  0  0  0  0
  132.1848   54.0002   31.8864 C   0  0  0  0  0  0  0  0  0  0  0  0
  132.0848   53.1811   33.1292 C   0  0  0  0  0  0  0  0  0  0  0  0
  129.4881   52.8372   31.3454 C   0  0  0  0  0  0  0  0  0  0  0  0
  130.9855   52.3504   33.3225 N   0  0  0  0  0  0  0  0  0  0  0  0
  128.5360   52.9834   28.4777 C   0  0  0  0  0  0  0  0  0  0  0  0
  133.7132   55.6247   31.0036 C   0  0  0  0  0  0  0  0  0  0  0  0
  131.7324   55.0745   29.7881 C   0  0  0  0  0  0  0  0  0  0  0  0
  129.0431   51.0828   32.7456 C   0  0  0  0  0  0  0  0  0  0  0  0
  129.9832   47.8895   32.6753 C   0  0  0  0  0  0  0  0  0  0  0  0
  129.5736   46.5581   33.2055 C   0  0  0  0  0  0  0  0  0  0  0  0
  128.4313   46.3268   33.4664 N   0  0  0  0  0  0  0  0  0  0  0  0
  129.8778   52.3508   32.5553 N   0  0  0  0  0  0  0  0  0  0  0  0
  129.1293   48.8539   33.0985 N   0  0  0  0  0  0  0  0  0  0  0  0
  129.7115   53.6586   29.0338 C   0  0  0  0  0  0  0  0  0  0  0  0
  131.3653   54.1703   30.7256 C   0  0  0  0  0  0  0  0  0  0  0  0
  130.1611   53.4767   30.3980 N   0  0  0  0  0  0  0  0  0  0  0  0
  133.3821   54.7412   31.9455 C   0  0  0  0  0  0  0  0  0  0  0  0
  129.7902   50.1378   33.3725 C   0  0  0  0  0  0  0  0  0  0  0  0
  1  8  1  0
  1  9  1  0
  2 12  2  0
  3  4  1  0
  3 17  1  0
  3 19  1  0
  4  6  2  0
  5 14  1  0
  5 18  1  0
  6 14  1  0
  7 16  1  0
  8 19  2  0
  9 17  2  0
 10 14  1  0
 10 20  1  0
 11 12  1  0
 11 15  1  0
 12 13  1  0
 15 20  1  0
 16 18  1  0
 17 18  1  0
M  END
>  <ID>  (1) 
conformer_0

$$$$
