
     RDKit          3D

 10 11  0  0  0  0  0  0  0  0999 V2000
  130.3459   53.7106   30.6863 C   0  0  0  0  0  0  0  0  0  0  0  0
  132.2105   53.6909   32.1655 C   0  0  0  0  0  0  0  0  0  0  0  0
  130.5165   52.3475   32.7590 N   0  0  0  0  0  0  0  0  0  0  0  0
  129.3946   51.4004   32.4726 C   0  0  0  0  0  0  0  0  0  0  0  0
  132.2956   55.1215   30.2849 N   0  0  0  0  0  0  0  0  0  0  0  0
  131.0485   54.6548   29.9074 C   0  0  0  0  0  0  0  0  0  0  0  0
  131.6596   51.9392   33.4771 C   0  0  0  0  0  0  0  0  0  0  0  0
  132.8839   54.6531   31.4278 C   0  0  0  0  0  0  0  0  0  0  0  0
  132.5868   53.0292   33.3560 O   0  0  0  0  0  0  0  0  0  0  0  0
  130.9705   53.2375   31.8107 C   0  0  0  0  0  0  0  0  0  0  0  0
  1  6  2  0
  1 10  1  0
  2  8  1  0
  2  9  1  0
  2 10  2  0
  3  4  1  0
  3  7  1  0
  3 10  1  0
  5  6  1  0
  5  8  2  0
  7  9  1  0
M  END
>  <ID>  (1) 
conformer_0

$$$$
