
     RDKit          3D

 34 38  0  0  0  0  0  0  0  0999 V2000
  128.5733   52.8656   29.2154 C   0  0  0  0  0  0  0  0  0  0  0  0
  128.1423   52.6532   27.8567 C   0  0  0  0  0  0  0  0  0  0  0  0
  132.7887   54.9430   31.6555 C   0  0  0  0  0  0  0  0  0  0  0  0
  130.6538   48.9757   33.1074 C   0  0  0  0  0  0  0  0  0  0  0  0
  134.2070   55.4007   32.3543 C   0  0  0  0  0  0  0  0  0  0  0  0
  138.7146   52.8513   34.5189 C   0  0  0  0  0  0  0  0  0  0  0  0
  140.5875   53.2492   35.4581 C   0  0  0  0  0  0  0  0  0  0  0  0
  139.8902   52.2662   35.0889 C   0  0  0  0  0  0  0  0  0  0  0  0
  132.3429   53.9135   32.5395 C   0  0  0  0  0  0  0  0  0  0  0  0
  132.5419   55.7541   30.6656 O   0  0  0  0  0  0  0  0  0  0  0  0
  128.8932   45.7296   33.9453 O   0  0  0  0  0  0  0  0  0  0  0  0
  131.6123   50.3006   33.1566 N   0  0  0  0  0  0  0  0  0  0  0  0
  136.8302   54.7185   34.6811 C   0  0  0  0  0  0  0  0  0  0  0  0
  130.6828   53.8649   30.9025 C   0  0  0  0  0  0  0  0  0  0  0  0
  129.6662   53.6010   29.8743 C   0  0  0  0  0  0  0  0  0  0  0  0
  127.2577   51.5550   27.8276 C   0  0  0  0  0  0  0  0  0  0  0  0
  131.2121   53.2591   32.1101 C   0  0  0  0  0  0  0  0  0  0  0  0
  129.4106   46.7593   33.2334 C   0  0  0  0  0  0  0  0  0  0  0  0
  130.5732   50.8961   33.1069 C   0  0  0  0  0  0  0  0  0  0  0  0
  138.8853   54.6650   36.0806 C   0  0  0  0  0  0  0  0  0  0  0  0
  138.0936   54.0234   35.0998 C   0  0  0  0  0  0  0  0  0  0  0  0
  126.5211   50.9824   26.9136 F   0  0  0  0  0  0  0  0  0  0  0  0
  129.2096   48.3700   33.1990 C   0  0  0  0  0  0  0  0  0  0  0  0
  130.6124   52.1982   32.8767 N   0  0  0  0  0  0  0  0  0  0  0  0
  133.2794   53.6014   33.5598 C   0  0  0  0  0  0  0  0  0  0  0  0
  140.0834   54.3204   36.1368 C   0  0  0  0  0  0  0  0  0  0  0  0
  130.8632   46.5963   32.9369 C   0  0  0  0  0  0  0  0  0  0  0  0
  131.6710   54.9095   30.5092 C   0  0  0  0  0  0  0  0  0  0  0  0
  128.0011   51.8285   30.0221 N   0  0  0  0  0  0  0  0  0  0  0  0
  134.4332   54.5671   33.5788 C   0  0  0  0  0  0  0  0  0  0  0  0
  131.5509   47.9221   32.7641 N   0  0  0  0  0  0  0  0  0  0  0  0
  135.6400   54.1065   34.0017 N   0  0  0  0  0  0  0  0  0  0  0  0
  135.8714   52.7095   33.8082 C   0  0  0  0  0  0  0  0  0  0  0  0
  127.1647   51.0446   29.1784 C   0  0  0  0  0  0  0  0  0  0  0  0
  1  2  1  0
  1 15  2  0
  1 29  1  0
  2 16  1  0
  3  5  1  0
  3  9  1  0
  3 10  1  0
  4 12  2  3
  4 23  1  0
  4 31  1  0
  5 30  1  0
  6  8  1  0
  6 21  2  0
  7  8  1  0
  7 26  1  0
  9 17  2  0
  9 25  1  0
 10 28  1  0
 11 18  1  0
 12 19  1  0
 13 21  1  0
 13 32  1  0
 14 15  2  0
 14 17  1  0
 14 28  1  0
 16 22  1  0
 16 34  1  0
 17 24  1  0
 18 23  1  0
 18 27  1  0
 19 24  1  0
 20 21  1  0
 20 26  2  0
 25 30  1  0
 27 31  1  0
 29 34  1  0
 30 32  1  0
 32 33  1  0
M  END
>  <ID>  (1) 
conformer_0

$$$$
