
     RDKit          3D

 12 12  0  0  0  0  0  0  0  0999 V2000
  130.3151   53.5186   30.6234 C   0  0  0  0  0  0  0  0  0  0  0  0
  132.3948   54.4372   31.3754 C   0  0  0  0  0  0  0  0  0  0  0  0
  128.3170   51.5424   31.0333 O   0  0  0  0  0  0  0  0  0  0  0  0
  129.2493   51.7193   31.9166 C   0  0  0  0  0  0  0  0  0  0  0  0
  129.5031   50.6015   32.7920 C   0  0  0  0  0  0  0  0  0  0  0  0
  130.2992   52.6879   31.7488 C   0  0  0  0  0  0  0  0  0  0  0  0
  131.3473   52.6843   32.6786 C   0  0  0  0  0  0  0  0  0  0  0  0
  131.2373   52.2674   33.9126 N   0  0  0  0  0  0  0  0  0  0  0  0
  132.4527   53.5524   32.4273 C   0  0  0  0  0  0  0  0  0  0  0  0
  129.3373   53.4943   29.5374 C   0  0  0  0  0  0  0  0  0  0  0  0
  131.3485   54.4292   30.4694 C   0  0  0  0  0  0  0  0  0  0  0  0
  133.4397   53.5661   33.3197 N   0  0  0  0  0  0  0  0  0  0  0  0
  1  6  2  0
  1 10  1  0
  1 11  1  0
  2  9  1  0
  2 11  2  0
  3  4  1  0
  4  5  1  0
  4  6  1  0
  6  7  1  0
  7  8  2  0
  7  9  1  0
  9 12  2  0
M  END
>  <ID>  (1) 
conformer_0

$$$$
