
     RDKit          3D

  5  4  0  0  0  0  0  0  0  0999 V2000
  132.4752   53.6348   32.6805 C   0  0  0  0  0  0  0  0  0  0  0  0
  131.2685   53.3952   33.2015 O   0  0  0  0  0  0  0  0  0  0  0  0
  130.3483   52.9624   32.0670 C   0  0  0  0  0  0  0  0  0  0  0  0
  130.1551   51.3824   32.4683 C   0  0  0  0  0  0  0  0  0  0  0  0
  128.8622   51.2844   33.0844 O   0  0  0  0  0  0  0  0  0  0  0  0
  1  2  1  0
  2  3  1  0
  3  4  1  0
  4  5  1  0
M  END
>  <ID>  (1) 
conformer_0

$$$$
