
     RDKit          3D

  6  5  0  0  0  0  0  0  0  0999 V2000
  128.7383   51.6821   31.0082 O   0  0  0  0  0  0  0  0  0  0  0  0
  130.4796   53.8010   31.1836 O   0  0  0  0  0  0  0  0  0  0  0  0
  129.0845   51.1879   33.2120 O   0  0  0  0  0  0  0  0  0  0  0  0
  130.5868   52.8053   32.1164 C   0  0  0  0  0  0  0  0  0  0  0  0
  131.7189   52.2067   32.9602 C   0  0  0  0  0  0  0  0  0  0  0  0
  129.4500   51.8363   32.0896 C   0  0  0  0  0  0  0  0  0  0  0  0
  1  6  2  0
  2  4  1  0
  3  6  1  0
  4  5  1  0
  4  6  1  0
M  END
>  <ID>  (1) 
conformer_0

$$$$
