
     RDKit          3D

 11 12  0  0  0  0  0  0  0  0999 V2000
  130.5883   51.4238   32.8518 C   0  0  0  0  0  0  0  0  0  0  0  0
  129.1756   51.2602   32.4190 C   0  0  0  0  0  0  0  0  0  0  0  0
  130.9743   52.7140   32.5065 C   0  0  0  0  0  0  0  0  0  0  0  0
  134.7949   54.7154   32.7177 C   0  0  0  0  0  0  0  0  0  0  0  0
  132.5430   54.4491   31.8330 C   0  0  0  0  0  0  0  0  0  0  0  0
  134.6722   53.2561   32.9760 C   0  0  0  0  0  0  0  0  0  0  0  0
  133.4710   55.3620   32.5567 C   0  0  0  0  0  0  0  0  0  0  0  0
  133.3204   52.9252   33.4437 N   0  0  0  0  0  0  0  0  0  0  0  0
  132.2597   53.2737   32.6499 C   0  0  0  0  0  0  0  0  0  0  0  0
  129.0159   52.3150   31.4400 N   0  0  0  0  0  0  0  0  0  0  0  0
  130.0757   53.2254   31.5469 C   0  0  0  0  0  0  0  0  0  0  0  0
  1  2  1  0
  1  3  1  0
  2 10  1  0
  3  9  1  0
  3 11  1  0
  4  6  1  0
  4  7  1  0
  5  7  1  0
  5  9  1  0
  6  8  1  0
  8  9  1  0
 10 11  1  0
M  END
>  <ID>  (1) 
conformer_0

$$$$
