
     RDKit          3D

 11 13  0  0  0  0  0  0  0  0999 V2000
  130.2204   53.2958   31.6469 C   0  0  0  0  0  0  0  0  0  0  0  0
  131.3297   53.0310   32.4826 C   0  0  0  0  0  0  0  0  0  0  0  0
  130.1605   53.7278   30.3441 C   0  0  0  0  0  0  0  0  0  0  0  0
  129.2134   52.2217   31.7446 C   0  0  0  0  0  0  0  0  0  0  0  0
  128.9075   52.8625   28.3735 N   0  0  0  0  0  0  0  0  0  0  0  0
  127.8879   51.9440   28.2711 C   0  0  0  0  0  0  0  0  0  0  0  0
  127.7674   51.4374   29.6336 C   0  0  0  0  0  0  0  0  0  0  0  0
  129.7625   51.2934   32.6687 C   0  0  0  0  0  0  0  0  0  0  0  0
  128.6495   52.0883   30.4685 C   0  0  0  0  0  0  0  0  0  0  0  0
  131.1118   51.7432   33.1119 C   0  0  0  0  0  0  0  0  0  0  0  0
  129.1926   53.0918   29.6346 C   0  0  0  0  0  0  0  0  0  0  0  0
  1  2  1  0
  1  3  1  0
  1  4  1  0
  2 10  1  0
  3 11  1  0
  4  8  1  0
  4  9  1  0
  5  6  1  0
  5 11  1  0
  6  7  1  0
  7  9  1  0
  8 10  1  0
  9 11  2  0
M  END
>  <ID>  (1) 
conformer_0

$$$$
