
     RDKit          3D

 19 21  0  0  0  0  0  0  0  0999 V2000
  131.8250   54.1088   31.4028 C   0  0  0  0  0  0  0  0  0  0  0  0
  127.4757   51.1753   28.8734 C   0  0  0  0  0  0  0  0  0  0  0  0
  135.3882   57.0433   32.5424 C   0  0  0  0  0  0  0  0  0  0  0  0
  131.2000   52.3104   32.9488 C   0  0  0  0  0  0  0  0  0  0  0  0
  129.9407   52.8084   30.9846 C   0  0  0  0  0  0  0  0  0  0  0  0
  129.0749   51.1848   32.7244 C   0  0  0  0  0  0  0  0  0  0  0  0
  128.9909   52.3378   29.9730 C   0  0  0  0  0  0  0  0  0  0  0  0
  134.7206   56.3888   31.5089 O   0  0  0  0  0  0  0  0  0  0  0  0
  132.0621   53.4081   32.5890 C   0  0  0  0  0  0  0  0  0  0  0  0
  128.1131   51.2674   30.1288 N   0  0  0  0  0  0  0  0  0  0  0  0
  133.1099   53.7257   33.4273 C   0  0  0  0  0  0  0  0  0  0  0  0
  128.0025   52.1809   28.0418 S   0  0  0  0  0  0  0  0  0  0  0  0
  126.6593   50.2784   28.4373 N   0  0  0  0  0  0  0  0  0  0  0  0
  130.7704   53.7934   30.6687 N   0  0  0  0  0  0  0  0  0  0  0  0
  133.8337   55.4644   31.8753 C   0  0  0  0  0  0  0  0  0  0  0  0
  133.9601   54.7687   33.0995 C   0  0  0  0  0  0  0  0  0  0  0  0
  132.7616   55.1318   31.0472 C   0  0  0  0  0  0  0  0  0  0  0  0
  128.9535   52.9054   28.7926 C   0  0  0  0  0  0  0  0  0  0  0  0
  129.9986   52.1676   32.1738 N   0  0  0  0  0  0  0  0  0  0  0  0
  1  9  1  0
  1 14  2  0
  1 17  1  0
  2 10  1  0
  2 12  1  0
  2 13  2  0
  3  8  1  0
  4  9  1  0
  4 19  1  0
  5  7  2  3
  5 14  1  0
  5 19  1  0
  6 19  1  0
  7 10  1  0
  7 18  1  0
  8 15  1  0
  9 11  2  0
 11 16  1  0
 12 18  1  0
 15 16  1  0
 15 17  2  0
M  END
>  <ID>  (1) 
conformer_0

$$$$
