
     RDKit          3D

  6  5  0  0  0  0  0  0  0  0999 V2000
  130.5068   52.9432   31.9751 C   0  0  0  0  0  0  0  0  0  0  0  0
  128.4805   52.0440   32.8862 O   0  0  0  0  0  0  0  0  0  0  0  0
  130.0910   53.5333   30.8357 O   0  0  0  0  0  0  0  0  0  0  0  0
  131.1188   53.5123   32.9671 O   0  0  0  0  0  0  0  0  0  0  0  0
  130.1863   50.5934   32.3954 O   0  0  0  0  0  0  0  0  0  0  0  0
  129.6546   51.7863   32.3491 C   0  0  0  0  0  0  0  0  0  0  0  0
  1  3  2  0
  1  4  1  0
  1  6  1  0
  2  6  2  0
  5  6  1  0
M  END
>  <ID>  (1) 
conformer_0

$$$$
