
     RDKit          3D

 12 13  0  0  0  0  0  0  0  0999 V2000
  132.4401   54.3529   31.4360 C   0  0  0  0  0  0  0  0  0  0  0  0
  130.4283   53.1281   30.9446 C   0  0  0  0  0  0  0  0  0  0  0  0
  130.3104   53.8638   29.7247 C   0  0  0  0  0  0  0  0  0  0  0  0
  130.6982   51.6644   33.2162 N   0  0  0  0  0  0  0  0  0  0  0  0
  129.6721   51.4576   32.3699 C   0  0  0  0  0  0  0  0  0  0  0  0
  128.8803   50.3021   32.5741 C   0  0  0  0  0  0  0  0  0  0  0  0
  132.5180   52.7963   33.8103 O   0  0  0  0  0  0  0  0  0  0  0  0
  131.6255   52.6131   32.9883 C   0  0  0  0  0  0  0  0  0  0  0  0
  131.2766   54.7690   29.4024 C   0  0  0  0  0  0  0  0  0  0  0  0
  131.5456   53.3789   31.7568 C   0  0  0  0  0  0  0  0  0  0  0  0
  132.2965   55.0261   30.2791 C   0  0  0  0  0  0  0  0  0  0  0  0
  129.4950   52.2298   31.2835 N   0  0  0  0  0  0  0  0  0  0  0  0
  1 10  1  0
  1 11  2  0
  2  3  1  0
  2 10  1  0
  2 12  2  0
  3  9  2  0
  4  5  2  0
  4  8  1  0
  5  6  1  0
  5 12  1  0
  7  8  2  0
  8 10  1  0
  9 11  1  0
M  END
>  <ID>  (1) 
conformer_0

$$$$
