
     RDKit          3D

  9 10  0  0  0  0  0  0  0  0999 V2000
  131.4554   53.5310   31.7901 C   0  0  0  0  0  0  0  0  0  0  0  0
  129.4012   52.5994   31.3612 C   0  0  0  0  0  0  0  0  0  0  0  0
  132.6077   54.1393   32.1520 C   0  0  0  0  0  0  0  0  0  0  0  0
  130.3098   53.6551   31.0210 C   0  0  0  0  0  0  0  0  0  0  0  0
  129.1780   51.1521   33.2100 N   0  0  0  0  0  0  0  0  0  0  0  0
  131.3002   52.3392   32.7150 C   0  0  0  0  0  0  0  0  0  0  0  0
  133.1548   53.5176   33.2479 N   0  0  0  0  0  0  0  0  0  0  0  0
  132.4150   52.3522   33.4817 C   0  0  0  0  0  0  0  0  0  0  0  0
  130.0269   51.8541   32.3976 C   0  0  0  0  0  0  0  0  0  0  0  0
  1  3  1  0
  1  4  1  0
  1  6  2  0
  2  4  1  0
  2  9  1  0
  3  7  1  0
  5  9  1  0
  6  8  1  0
  6  9  1  0
  7  8  1  0
M  END
>  <ID>  (1) 
conformer_0

$$$$
