
     RDKit          3D

  8  8  0  0  0  0  0  0  0  0999 V2000
  129.9926   53.3843   30.7667 N   0  0  0  0  0  0  0  0  0  0  0  0
  128.7155   52.5686   28.9541 N   0  0  0  0  0  0  0  0  0  0  0  0
  129.1018   52.4812   30.2960 C   0  0  0  0  0  0  0  0  0  0  0  0
  130.3793   51.8392   32.5369 C   0  0  0  0  0  0  0  0  0  0  0  0
  128.6033   51.4373   31.0144 N   0  0  0  0  0  0  0  0  0  0  0  0
  127.6861   51.7517   28.3672 C   0  0  0  0  0  0  0  0  0  0  0  0
  130.5372   53.2036   32.0295 C   0  0  0  0  0  0  0  0  0  0  0  0
  129.0190   51.3777   32.3244 C   0  0  0  0  0  0  0  0  0  0  0  0
  1  3  1  0
  1  7  1  0
  2  3  1  0
  2  6  1  0
  3  5  2  0
  4  7  1  0
  4  8  1  0
  5  8  1  0
M  END
>  <ID>  (1) 
conformer_0

$$$$
