
     RDKit          3D

 12 12  0  0  0  0  0  0  0  0999 V2000
  128.5171   52.7603   29.0354 C   0  0  0  0  0  0  0  0  0  0  0  0
  129.3580   52.3734   31.1878 C   0  0  0  0  0  0  0  0  0  0  0  0
  130.2689   51.8035   33.2767 N   0  0  0  0  0  0  0  0  0  0  0  0
  127.1221   51.0612   28.0765 C   0  0  0  0  0  0  0  0  0  0  0  0
  130.1780   53.4350   30.9892 C   0  0  0  0  0  0  0  0  0  0  0  0
  131.3178   54.0208   31.4145 C   0  0  0  0  0  0  0  0  0  0  0  0
  131.6013   52.1070   32.9145 C   0  0  0  0  0  0  0  0  0  0  0  0
  127.9344   52.1960   27.9518 N   0  0  0  0  0  0  0  0  0  0  0  0
  133.3226   54.0038   32.7793 C   0  0  0  0  0  0  0  0  0  0  0  0
  131.9747   53.5200   32.6366 C   0  0  0  0  0  0  0  0  0  0  0  0
  128.5239   52.0132   30.1437 N   0  0  0  0  0  0  0  0  0  0  0  0
  129.2855   51.5121   32.3479 C   0  0  0  0  0  0  0  0  0  0  0  0
  1  8  1  0
  1 11  2  3
  2  5  1  0
  2 11  1  0
  2 12  1  0
  3  7  1  0
  3 12  1  0
  4  8  1  0
  5  6  2  0
  6 10  1  0
  7 10  1  0
  9 10  1  0
M  END
>  <ID>  (1) 
conformer_0

$$$$
