
     RDKit          3D

 12 12  0  0  0  0  0  0  0  0999 V2000
  130.0139   51.3916   32.4473 C   0  0  0  0  0  0  0  0  0  0  0  0
  130.6733   53.5661   31.6060 C   0  0  0  0  0  0  0  0  0  0  0  0
  128.9738   52.5424   29.9672 C   0  0  0  0  0  0  0  0  0  0  0  0
  127.4681   51.9618   28.1974 C   0  0  0  0  0  0  0  0  0  0  0  0
  128.3520   51.5733   30.6555 N   0  0  0  0  0  0  0  0  0  0  0  0
  132.1383   52.5022   33.3181 C   0  0  0  0  0  0  0  0  0  0  0  0
  127.2570   50.6670   27.8687 N   0  0  0  0  0  0  0  0  0  0  0  0
  132.6136   53.9247   33.3038 C   0  0  0  0  0  0  0  0  0  0  0  0
  130.9916   52.4190   32.4050 C   0  0  0  0  0  0  0  0  0  0  0  0
  128.5428   52.6309   28.6386 C   0  0  0  0  0  0  0  0  0  0  0  0
  128.6377   51.7202   32.0335 C   0  0  0  0  0  0  0  0  0  0  0  0
  129.8558   53.4300   30.4996 C   0  0  0  0  0  0  0  0  0  0  0  0
  1  9  1  0
  1 11  1  0
  2  9  1  0
  2 12  1  0
  3  5  1  0
  3 10  2  3
  3 12  1  0
  4  7  1  0
  4 10  1  0
  5 11  1  0
  6  8  1  0
  6  9  1  0
M  END
>  <ID>  (1) 
conformer_0

$$$$
