
     RDKit          3D

 12 12  0  0  0  0  0  0  0  0999 V2000
  129.7842   53.1697   30.5495 C   0  0  0  0  0  0  0  0  0  0  0  0
  127.2777   50.8371   29.3297 N   0  0  0  0  0  0  0  0  0  0  0  0
  130.3263   51.5802   32.7214 C   0  0  0  0  0  0  0  0  0  0  0  0
  131.2146   52.6311   32.4592 C   0  0  0  0  0  0  0  0  0  0  0  0
  128.9822   52.0498   30.6092 C   0  0  0  0  0  0  0  0  0  0  0  0
  132.4291   52.9564   33.1839 C   0  0  0  0  0  0  0  0  0  0  0  0
  133.2542   53.8147   32.6106 O   0  0  0  0  0  0  0  0  0  0  0  0
  128.5527   52.3638   28.3093 O   0  0  0  0  0  0  0  0  0  0  0  0
  129.1796   51.3046   31.8218 C   0  0  0  0  0  0  0  0  0  0  0  0
  132.6020   52.6467   34.3471 O   0  0  0  0  0  0  0  0  0  0  0  0
  130.8540   53.4324   31.3811 C   0  0  0  0  0  0  0  0  0  0  0  0
  128.1420   51.7855   29.4087 C   0  0  0  0  0  0  0  0  0  0  0  0
  1  5  2  0
  1 11  1  0
  2 12  1  0
  3  4  1  0
  3  9  2  0
  4  6  1  0
  4 11  2  0
  5  9  1  0
  5 12  1  0
  6  7  2  0
  6 10  1  0
  8 12  2  0
M  END
>  <ID>  (1) 
conformer_0

$$$$
