
     RDKit          3D

  8  8  0  0  0  0  0  0  0  0999 V2000
  130.0607   53.7304   30.4803 C   0  0  0  0  0  0  0  0  0  0  0  0
  129.2538   51.0660   32.9220 O   0  0  0  0  0  0  0  0  0  0  0  0
  132.2252   53.2894   32.5066 C   0  0  0  0  0  0  0  0  0  0  0  0
  129.6091   52.7572   31.2437 C   0  0  0  0  0  0  0  0  0  0  0  0
  131.3754   52.2621   32.9035 C   0  0  0  0  0  0  0  0  0  0  0  0
  132.2404   54.2156   31.5383 C   0  0  0  0  0  0  0  0  0  0  0  0
  131.2452   54.4708   30.5291 C   0  0  0  0  0  0  0  0  0  0  0  0
  130.0952   52.0469   32.3286 C   0  0  0  0  0  0  0  0  0  0  0  0
  1  4  2  0
  1  7  1  0
  2  8  1  0
  3  5  1  0
  3  6  2  0
  4  8  1  0
  5  8  2  0
  6  7  1  0
M  END
>  <ID>  (1) 
conformer_0

$$$$
