
     RDKit          3D

 10 10  0  0  0  0  0  0  0  0999 V2000
  130.0709   53.3789   30.3928 O   0  0  0  0  0  0  0  0  0  0  0  0
  129.1134   50.9476   33.0110 O   0  0  0  0  0  0  0  0  0  0  0  0
  133.0525   53.0194   34.0473 O   0  0  0  0  0  0  0  0  0  0  0  0
  128.4643   51.7230   30.5622 O   0  0  0  0  0  0  0  0  0  0  0  0
  132.1516   53.0547   33.1147 C   0  0  0  0  0  0  0  0  0  0  0  0
  129.9494   51.9614   32.3746 C   0  0  0  0  0  0  0  0  0  0  0  0
  129.3163   52.5422   31.1849 C   0  0  0  0  0  0  0  0  0  0  0  0
  131.3692   51.8442   32.8563 C   0  0  0  0  0  0  0  0  0  0  0  0
  130.9763   54.2441   31.0669 C   0  0  0  0  0  0  0  0  0  0  0  0
  132.1462   54.0470   32.0394 C   0  0  0  0  0  0  0  0  0  0  0  0
  1  7  1  0
  1  9  1  0
  2  6  1  0
  3  5  1  0
  4  7  2  0
  5  8  1  0
  5 10  1  0
  6  7  1  0
  6  8  1  0
  9 10  1  0
M  END
>  <ID>  (1) 
conformer_0

$$$$
