
     RDKit          3D

 24 25  0  0  0  0  0  0  0  0999 V2000
  133.0763   55.0706   30.9543 C   0  0  0  0  0  0  0  0  0  0  0  0
  129.0556   49.4221   32.4799 C   0  0  0  0  0  0  0  0  0  0  0  0
  127.8608   51.3058   30.1455 C   0  0  0  0  0  0  0  0  0  0  0  0
  129.1656   47.2855   33.6776 N   0  0  0  0  0  0  0  0  0  0  0  0
  132.3702   52.7186   33.4494 C   0  0  0  0  0  0  0  0  0  0  0  0
  129.4216   48.3085   32.8606 C   0  0  0  0  0  0  0  0  0  0  0  0
  128.8338   51.5041   31.3001 C   0  0  0  0  0  0  0  0  0  0  0  0
  130.5433   51.1271   33.0102 C   0  0  0  0  0  0  0  0  0  0  0  0
  129.4528   50.7331   32.2911 C   0  0  0  0  0  0  0  0  0  0  0  0
  133.9449   55.4557   30.0016 C   0  0  0  0  0  0  0  0  0  0  0  0
  130.8179   54.6043   31.7382 C   0  0  0  0  0  0  0  0  0  0  0  0
  134.4569   55.9372   27.7646 O   0  0  0  0  0  0  0  0  0  0  0  0
  133.5749   55.5241   28.6846 C   0  0  0  0  0  0  0  0  0  0  0  0
  131.0728   52.3297   32.7656 C   0  0  0  0  0  0  0  0  0  0  0  0
  131.4127   54.7644   29.2969 C   0  0  0  0  0  0  0  0  0  0  0  0
  128.0916   51.9859   27.9191 N   0  0  0  0  0  0  0  0  0  0  0  0
  130.4018   53.1406   31.9154 C   0  0  0  0  0  0  0  0  0  0  0  0
  131.7820   54.7823   30.5961 C   0  0  0  0  0  0  0  0  0  0  0  0
  129.3463   52.7303   31.2824 N   0  0  0  0  0  0  0  0  0  0  0  0
  129.8682   47.0083   32.6245 C   0  0  0  0  0  0  0  0  0  0  0  0
  126.9189   51.3246   27.7331 C   0  0  0  0  0  0  0  0  0  0  0  0
  126.6758   50.1386   27.9788 O   0  0  0  0  0  0  0  0  0  0  0  0
  128.0626   52.4409   29.1412 C   0  0  0  0  0  0  0  0  0  0  0  0
  132.3018   55.1634   28.3106 C   0  0  0  0  0  0  0  0  0  0  0  0
  1 10  2  0
  1 18  1  0
  2  6  1  0
  2  9  1  0
  3  7  1  0
  3 23  1  0
  4  6  1  0
  4 20  1  0
  5 14  1  0
  7  9  2  0
  7 19  1  0
  8  9  1  0
  8 14  2  0
 10 13  1  0
 11 17  1  0
 11 18  1  0
 12 13  1  0
 13 24  2  0
 14 17  1  0
 15 18  2  0
 15 24  1  0
 16 21  1  0
 16 23  1  0
 17 19  2  0
 21 22  2  0
M  END
>  <ID>  (1) 
conformer_0

$$$$
