
     RDKit          3D

 11 11  0  0  0  0  0  0  0  0999 V2000
  127.2790   50.8593   28.3881 N   0  0  0  0  0  0  0  0  0  0  0  0
  131.1691   51.8800   32.9586 C   0  0  0  0  0  0  0  0  0  0  0  0
  130.2552   53.2455   31.0744 N   0  0  0  0  0  0  0  0  0  0  0  0
  128.9332   51.5104   31.5525 C   0  0  0  0  0  0  0  0  0  0  0  0
  127.6963   51.4962   29.3299 C   0  0  0  0  0  0  0  0  0  0  0  0
  130.0607   52.2153   31.9406 C   0  0  0  0  0  0  0  0  0  0  0  0
  129.3568   53.0677   30.0572 C   0  0  0  0  0  0  0  0  0  0  0  0
  133.3707   52.7074   33.6989 C   0  0  0  0  0  0  0  0  0  0  0  0
  132.1542   53.0654   33.0017 C   0  0  0  0  0  0  0  0  0  0  0  0
  128.6194   51.9862   30.2568 N   0  0  0  0  0  0  0  0  0  0  0  0
  127.7280   52.1861   28.0777 C   0  0  0  0  0  0  0  0  0  0  0  0
  1  5  1  0
  2  6  1  0
  2  9  1  0
  3  6  1  0
  3  7  1  0
  4  6  1  0
  4 10  1  0
  5 10  1  0
  5 11  1  0
  7 10  1  0
  8  9  1  0
M  END
>  <ID>  (1) 
conformer_0

$$$$
