
     RDKit          3D

  7  7  0  0  0  0  0  0  0  0999 V2000
  130.9790   51.9797   32.7456 C   0  0  0  0  0  0  0  0  0  0  0  0
  129.3043   50.2230   32.4908 O   0  0  0  0  0  0  0  0  0  0  0  0
  131.1005   53.4169   32.0702 C   0  0  0  0  0  0  0  0  0  0  0  0
  129.9190   53.4636   30.9917 C   0  0  0  0  0  0  0  0  0  0  0  0
  129.5160   51.5932   32.5540 C   0  0  0  0  0  0  0  0  0  0  0  0
  128.9368   52.3962   31.3972 C   0  0  0  0  0  0  0  0  0  0  0  0
  128.3473   51.6201   30.4614 O   0  0  0  0  0  0  0  0  0  0  0  0
  1  3  1  0
  1  5  1  0
  2  5  1  0
  3  4  1  0
  4  6  1  0
  5  6  1  0
  6  7  1  0
M  END
>  <ID>  (1) 
conformer_0

$$$$
