
     RDKit          3D

 11 11  0  0  0  0  0  0  0  0999 V2000
  131.3657   52.1855   32.8126 C   0  0  0  0  0  0  0  0  0  0  0  0
  128.3836   51.6671   30.8730 O   0  0  0  0  0  0  0  0  0  0  0  0
  133.0213   54.4720   31.5261 C   0  0  0  0  0  0  0  0  0  0  0  0
  130.3402   53.6466   31.0096 C   0  0  0  0  0  0  0  0  0  0  0  0
  129.1734   50.5814   32.8362 C   0  0  0  0  0  0  0  0  0  0  0  0
  129.0392   51.7805   31.9850 C   0  0  0  0  0  0  0  0  0  0  0  0
  133.2774   53.7636   32.8271 C   0  0  0  0  0  0  0  0  0  0  0  0
  130.1765   52.6564   32.0623 C   0  0  0  0  0  0  0  0  0  0  0  0
  131.5956   54.4837   30.9696 C   0  0  0  0  0  0  0  0  0  0  0  0
  134.3885   53.9087   33.4333 O   0  0  0  0  0  0  0  0  0  0  0  0
  132.1360   53.2162   33.4296 N   0  0  0  0  0  0  0  0  0  0  0  0
  1  8  1  0
  1 11  1  0
  2  6  1  0
  3  7  1  0
  3  9  1  0
  4  8  1  0
  4  9  1  0
  5  6  1  0
  6  8  1  0
  7 10  2  0
  7 11  1  0
M  END
>  <ID>  (1) 
conformer_0

$$$$
