
     RDKit          3D

  7  6  0  0  0  0  0  0  0  0999 V2000
  129.2359   51.9974   32.0325 C   0  0  0  0  0  0  0  0  0  0  0  0
  132.2507   53.6687   33.4077 C   0  0  0  0  0  0  0  0  0  0  0  0
  129.3674   50.7199   32.6996 C   0  0  0  0  0  0  0  0  0  0  0  0
  128.7849   51.9966   30.8130 O   0  0  0  0  0  0  0  0  0  0  0  0
  132.1603   53.9479   31.9691 C   0  0  0  0  0  0  0  0  0  0  0  0
  130.0219   53.0249   32.5367 O   0  0  0  0  0  0  0  0  0  0  0  0
  130.7427   53.6890   31.4108 C   0  0  0  0  0  0  0  0  0  0  0  0
  1  3  1  0
  1  4  2  0
  1  6  1  0
  2  5  1  0
  5  7  1  0
  6  7  1  0
M  END
>  <ID>  (1) 
conformer_0

$$$$
