
     RDKit          3D

 11 11  0  0  0  0  0  0  0  0999 V2000
  129.9636   53.6650   30.7113 C   0  0  0  0  0  0  0  0  0  0  0  0
  131.1763   53.6059   31.5283 C   0  0  0  0  0  0  0  0  0  0  0  0
  129.0633   51.2250   32.1384 C   0  0  0  0  0  0  0  0  0  0  0  0
  128.5488   52.7891   28.8896 C   0  0  0  0  0  0  0  0  0  0  0  0
  133.2216   53.1409   33.4235 C   0  0  0  0  0  0  0  0  0  0  0  0
  127.5994   51.7223   28.3440 C   0  0  0  0  0  0  0  0  0  0  0  0
  129.8597   52.0812   32.7467 N   0  0  0  0  0  0  0  0  0  0  0  0
  132.0334   52.3531   33.5457 C   0  0  0  0  0  0  0  0  0  0  0  0
  128.6997   51.4265   30.8433 N   0  0  0  0  0  0  0  0  0  0  0  0
  131.1301   52.4571   32.4182 C   0  0  0  0  0  0  0  0  0  0  0  0
  129.1208   52.6110   30.2880 C   0  0  0  0  0  0  0  0  0  0  0  0
  1  2  1  0
  1 11  1  0
  2 10  1  0
  3  7  1  0
  3  9  2  0
  4  6  1  0
  4 11  2  3
  5  8  1  0
  7 10  1  0
  8 10  1  0
  9 11  1  0
M  END
>  <ID>  (1) 
conformer_0

$$$$
