
     RDKit          3D

 18 22  0  0  0  0  0  0  0  0999 V2000
  128.7852   51.5317   31.2843 C   0  0  0  0  0  0  0  0  0  0  0  0
  128.0802   52.7032   27.9695 O   0  0  0  0  0  0  0  0  0  0  0  0
  129.8252   53.2296   30.0968 N   0  0  0  0  0  0  0  0  0  0  0  0
  131.8553   54.1811   31.3179 C   0  0  0  0  0  0  0  0  0  0  0  0
  132.7666   53.3445   33.4148 C   0  0  0  0  0  0  0  0  0  0  0  0
  128.1194   51.5960   30.0092 C   0  0  0  0  0  0  0  0  0  0  0  0
  127.1590   50.8683   29.0950 C   0  0  0  0  0  0  0  0  0  0  0  0
  127.0843   51.6735   27.7743 C   0  0  0  0  0  0  0  0  0  0  0  0
  133.7461   54.3086   33.3989 C   0  0  0  0  0  0  0  0  0  0  0  0
  133.7712   55.2128   32.3378 C   0  0  0  0  0  0  0  0  0  0  0  0
  130.8781   54.0070   30.3507 N   0  0  0  0  0  0  0  0  0  0  0  0
  129.0597   51.0101   32.6054 C   0  0  0  0  0  0  0  0  0  0  0  0
  128.6738   52.6438   29.2623 C   0  0  0  0  0  0  0  0  0  0  0  0
  130.7287   52.5064   32.3204 C   0  0  0  0  0  0  0  0  0  0  0  0
  131.8172   53.3097   32.4254 C   0  0  0  0  0  0  0  0  0  0  0  0
  129.8944   52.5675   31.2043 C   0  0  0  0  0  0  0  0  0  0  0  0
  132.8429   55.1454   31.3123 C   0  0  0  0  0  0  0  0  0  0  0  0
  130.2048   51.5528   33.1681 C   0  0  0  0  0  0  0  0  0  0  0  0
  1  6  1  0
  1 12  1  0
  1 16  1  0
  2  8  1  0
  2 13  1  0
  3 11  1  0
  3 13  1  0
  3 16  1  0
  4 11  1  0
  4 15  2  0
  4 17  1  0
  5  9  2  0
  5 15  1  0
  6  7  1  0
  6 13  2  0
  7  8  1  0
  9 10  1  0
 10 17  2  0
 12 18  1  0
 14 15  1  0
 14 16  2  0
 14 18  1  0
M  END
>  <ID>  (1) 
conformer_0

$$$$
