
     RDKit          3D

  9  9  0  0  0  0  0  0  0  0999 V2000
  130.0495   52.1379   33.1593 N   0  0  0  0  0  0  0  0  0  0  0  0
  130.7877   53.4950   31.3067 C   0  0  0  0  0  0  0  0  0  0  0  0
  128.8495   52.0305   32.5853 C   0  0  0  0  0  0  0  0  0  0  0  0
  132.3162   52.9252   33.2085 C   0  0  0  0  0  0  0  0  0  0  0  0
  129.9288   53.2856   30.1707 C   0  0  0  0  0  0  0  0  0  0  0  0
  128.9845   52.3113   30.1884 N   0  0  0  0  0  0  0  0  0  0  0  0
  130.2503   53.7860   29.0544 O   0  0  0  0  0  0  0  0  0  0  0  0
  128.7455   51.5600   31.2818 C   0  0  0  0  0  0  0  0  0  0  0  0
  131.0838   52.6587   32.4140 C   0  0  0  0  0  0  0  0  0  0  0  0
  1  3  1  0
  1  9  1  0
  2  5  1  0
  2  9  1  0
  3  8  1  0
  4  9  1  0
  5  6  1  0
  5  7  2  0
  6  8  1  0
M  END
>  <ID>  (1) 
conformer_0

$$$$
