
     RDKit          3D

 11 12  0  0  0  0  0  0  0  0999 V2000
  131.1539   52.2712   33.0880 C   0  0  0  0  0  0  0  0  0  0  0  0
  130.9598   53.6854   31.3130 C   0  0  0  0  0  0  0  0  0  0  0  0
  131.6963   53.4222   32.4947 N   0  0  0  0  0  0  0  0  0  0  0  0
  130.0008   52.7092   31.1700 C   0  0  0  0  0  0  0  0  0  0  0  0
  129.1641   53.0235   28.8249 C   0  0  0  0  0  0  0  0  0  0  0  0
  130.0240   51.9394   32.3036 N   0  0  0  0  0  0  0  0  0  0  0  0
  128.2140   52.4585   28.0198 C   0  0  0  0  0  0  0  0  0  0  0  0
  127.5959   51.4972   28.7705 N   0  0  0  0  0  0  0  0  0  0  0  0
  129.1183   52.4335   30.0386 C   0  0  0  0  0  0  0  0  0  0  0  0
  129.0691   50.9307   32.6833 C   0  0  0  0  0  0  0  0  0  0  0  0
  128.1522   51.4855   30.0504 N   0  0  0  0  0  0  0  0  0  0  0  0
  1  3  1  0
  1  6  1  0
  2  3  1  0
  2  4  1  0
  4  6  1  0
  4  9  2  3
  5  7  1  0
  5  9  1  0
  6 10  1  0
  7  8  1  0
  8 11  1  0
  9 11  1  0
M  END
>  <ID>  (1) 
conformer_0

$$$$
