
     RDKit          3D

  8  8  0  0  0  0  0  0  0  0999 V2000
  128.2032   50.9313   30.7252 C   0  0  0  0  0  0  0  0  0  0  0  0
  128.8174   51.0638   31.9212 C   0  0  0  0  0  0  0  0  0  0  0  0
  129.9963   53.0581   31.4853 C   0  0  0  0  0  0  0  0  0  0  0  0
  128.8891   52.6406   29.2235 N   0  0  0  0  0  0  0  0  0  0  0  0
  128.1425   51.5936   29.5208 C   0  0  0  0  0  0  0  0  0  0  0  0
  129.4235   52.1503   32.3684 N   0  0  0  0  0  0  0  0  0  0  0  0
  129.6021   53.2931   30.1300 C   0  0  0  0  0  0  0  0  0  0  0  0
  127.3271   51.0996   28.4269 C   0  0  0  0  0  0  0  0  0  0  0  0
  1  2  2  0
  1  5  1  0
  2  6  1  0
  3  6  1  0
  3  7  1  0
  4  5  2  0
  4  7  1  0
  5  8  1  0
M  END
>  <ID>  (1) 
conformer_0

$$$$
