
     RDKit          3D

 21 23  0  0  0  0  0  0  0  0999 V2000
  130.0813   52.1551   31.7646 C   0  0  0  0  0  0  0  0  0  0  0  0
  135.6620   54.9073   34.9163 C   0  0  0  0  0  0  0  0  0  0  0  0
  132.1830   53.6841   32.3361 C   0  0  0  0  0  0  0  0  0  0  0  0
  128.5787   51.8338   30.0636 N   0  0  0  0  0  0  0  0  0  0  0  0
  126.9434   50.7463   28.4893 C   0  0  0  0  0  0  0  0  0  0  0  0
  129.4725   52.9098   29.8077 C   0  0  0  0  0  0  0  0  0  0  0  0
  130.7131   51.8259   32.8369 C   0  0  0  0  0  0  0  0  0  0  0  0
  131.5714   55.0798   30.3547 C   0  0  0  0  0  0  0  0  0  0  0  0
  129.2996   53.3638   28.6192 N   0  0  0  0  0  0  0  0  0  0  0  0
  127.9141   51.7308   28.8886 N   0  0  0  0  0  0  0  0  0  0  0  0
  128.9749   51.3353   31.3544 C   0  0  0  0  0  0  0  0  0  0  0  0
  134.0258   53.6179   33.9009 C   0  0  0  0  0  0  0  0  0  0  0  0
  136.3034   53.6098   34.2826 C   0  0  0  0  0  0  0  0  0  0  0  0
  131.8349   52.6037   33.1890 C   0  0  0  0  0  0  0  0  0  0  0  0
  130.1789   50.6299   33.3731 F   0  0  0  0  0  0  0  0  0  0  0  0
  134.9098   53.7086   34.8513 C   0  0  0  0  0  0  0  0  0  0  0  0
  128.8889   50.3572   32.4199 C   0  0  0  0  0  0  0  0  0  0  0  0
  131.3984   53.9602   31.1916 C   0  0  0  0  0  0  0  0  0  0  0  0
  130.3962   53.1050   30.8659 C   0  0  0  0  0  0  0  0  0  0  0  0
  128.3517   52.6541   28.0335 C   0  0  0  0  0  0  0  0  0  0  0  0
  133.4785   54.4164   32.7660 C   0  0  0  0  0  0  0  0  0  0  0  0
  1  7  2  0
  1 11  1  0
  1 19  1  0
  2 16  1  0
  3 14  1  0
  3 18  2  0
  3 21  1  0
  4  6  1  0
  4 10  1  0
  4 11  1  0
  5 10  1  0
  6  9  1  0
  6 19  2  0
  7 14  1  0
  7 15  1  0
  8 18  1  0
  9 20  1  0
 10 20  1  0
 11 17  1  0
 12 16  1  0
 12 21  1  0
 13 16  1  0
 18 19  1  0
M  END
>  <ID>  (1) 
conformer_0

$$$$
