
     RDKit          3D

  5  4  0  0  0  0  0  0  0  0999 V2000
  129.0562   52.4165   30.6665 O   0  0  0  0  0  0  0  0  0  0  0  0
  129.7826   52.5280   31.9093 C   0  0  0  0  0  0  0  0  0  0  0  0
  129.3254   53.2533   29.5334 C   0  0  0  0  0  0  0  0  0  0  0  0
  129.3538   51.0822   32.6087 C   0  0  0  0  0  0  0  0  0  0  0  0
  128.5835   52.5481   28.3167 O   0  0  0  0  0  0  0  0  0  0  0  0
  1  2  1  0
  1  3  1  0
  2  4  1  0
  3  5  1  0
M  END
>  <ID>  (1) 
conformer_0

$$$$
