
     RDKit          3D

 12 13  0  0  0  0  0  0  0  0999 V2000
  129.1625   52.6987   30.2902 C   0  0  0  0  0  0  0  0  0  0  0  0
  128.4297   51.7107   30.9320 C   0  0  0  0  0  0  0  0  0  0  0  0
  130.1335   52.2067   32.2993 C   0  0  0  0  0  0  0  0  0  0  0  0
  131.0276   52.2420   33.2779 N   0  0  0  0  0  0  0  0  0  0  0  0
  127.1455   51.0712   28.3282 C   0  0  0  0  0  0  0  0  0  0  0  0
  132.3506   52.8014   33.0542 C   0  0  0  0  0  0  0  0  0  0  0  0
  128.8129   53.0050   28.9283 C   0  0  0  0  0  0  0  0  0  0  0  0
  132.2379   53.9836   32.1082 C   0  0  0  0  0  0  0  0  0  0  0  0
  128.1442   52.0931   28.1343 O   0  0  0  0  0  0  0  0  0  0  0  0
  130.2224   53.0487   31.1539 C   0  0  0  0  0  0  0  0  0  0  0  0
  128.9716   51.5048   32.1813 N   0  0  0  0  0  0  0  0  0  0  0  0
  131.2599   53.8884   31.1049 O   0  0  0  0  0  0  0  0  0  0  0  0
  1  2  1  0
  1  7  1  0
  1 10  1  0
  2 11  1  0
  3  4  1  0
  3 10  2  0
  3 11  1  0
  4  6  1  0
  5  9  1  0
  6  8  1  0
  7  9  1  0
  8 12  1  0
 10 12  1  0
M  END
>  <ID>  (1) 
conformer_0

$$$$
