
     RDKit          3D

 12 13  0  0  0  0  0  0  0  0999 V2000
  130.4427   53.9276   30.1535 C   0  0  0  0  0  0  0  0  0  0  0  0
  130.7157   52.5778   32.1444 C   0  0  0  0  0  0  0  0  0  0  0  0
  129.3089   53.1669   29.7793 C   0  0  0  0  0  0  0  0  0  0  0  0
  128.9741   51.0465   32.8051 C   0  0  0  0  0  0  0  0  0  0  0  0
  129.4727   52.0379   31.8962 N   0  0  0  0  0  0  0  0  0  0  0  0
  131.2040   53.5933   31.3455 C   0  0  0  0  0  0  0  0  0  0  0  0
  132.3735   54.2597   31.7056 C   0  0  0  0  0  0  0  0  0  0  0  0
  128.7438   52.2480   30.7513 C   0  0  0  0  0  0  0  0  0  0  0  0
  131.4553   52.1260   33.2140 C   0  0  0  0  0  0  0  0  0  0  0  0
  133.0938   53.8271   32.7890 C   0  0  0  0  0  0  0  0  0  0  0  0
  128.8212   52.9458   28.5078 O   0  0  0  0  0  0  0  0  0  0  0  0
  132.6564   52.7525   33.5425 C   0  0  0  0  0  0  0  0  0  0  0  0
  1  3  1  0
  1  6  2  0
  2  5  1  0
  2  6  1  0
  2  9  2  0
  3  8  1  0
  3 11  1  0
  4  5  1  0
  5  8  1  0
  6  7  1  0
  7 10  2  0
  9 12  1  0
 10 12  1  0
M  END
>  <ID>  (1) 
conformer_0

$$$$
