
     RDKit          3D

  9 10  0  0  0  0  0  0  0  0999 V2000
  128.4835   52.0369   29.8226 N   0  0  0  0  0  0  0  0  0  0  0  0
  131.0636   53.4449   31.8575 C   0  0  0  0  0  0  0  0  0  0  0  0
  129.0166   53.0139   28.9279 C   0  0  0  0  0  0  0  0  0  0  0  0
  129.2441   52.1160   31.0133 N   0  0  0  0  0  0  0  0  0  0  0  0
  129.1673   51.3794   32.1757 C   0  0  0  0  0  0  0  0  0  0  0  0
  130.9372   52.7423   33.0262 N   0  0  0  0  0  0  0  0  0  0  0  0
  130.3436   51.4773   32.9733 C   0  0  0  0  0  0  0  0  0  0  0  0
  130.2316   53.0769   30.7968 N   0  0  0  0  0  0  0  0  0  0  0  0
  130.1256   53.6049   29.5339 N   0  0  0  0  0  0  0  0  0  0  0  0
  1  3  1  0
  1  4  1  0
  2  6  1  0
  2  8  1  0
  3  9  1  0
  4  5  1  0
  4  8  1  0
  5  7  1  0
  6  7  1  0
  8  9  1  0
M  END
>  <ID>  (1) 
conformer_0

$$$$
