
     RDKit          3D

  8  8  0  0  0  0  0  0  0  0999 V2000
  130.0219   53.3775   31.2501 C   0  0  0  0  0  0  0  0  0  0  0  0
  129.5474   52.1488   31.7933 C   0  0  0  0  0  0  0  0  0  0  0  0
  131.2758   53.6640   31.8640 C   0  0  0  0  0  0  0  0  0  0  0  0
  128.4670   51.5434   31.4251 O   0  0  0  0  0  0  0  0  0  0  0  0
  130.5244   51.6900   32.7201 C   0  0  0  0  0  0  0  0  0  0  0  0
  133.4064   53.9557   33.7215 N   0  0  0  0  0  0  0  0  0  0  0  0
  132.7816   52.6152   33.5818 C   0  0  0  0  0  0  0  0  0  0  0  0
  131.5927   52.6498   32.7626 C   0  0  0  0  0  0  0  0  0  0  0  0
  1  2  1  0
  1  3  1  0
  2  4  1  0
  2  5  1  0
  3  8  1  0
  5  8  1  0
  6  7  1  0
  7  8  1  0
M  END
>  <ID>  (1) 
conformer_0

$$$$
