
     RDKit          3D

 10 10  0  0  0  0  0  0  0  0999 V2000
  129.2596   51.1673   32.3648 C   0  0  0  0  0  0  0  0  0  0  0  0
  128.4194   52.5780   29.0813 O   0  0  0  0  0  0  0  0  0  0  0  0
  130.3524   51.9437   32.7361 C   0  0  0  0  0  0  0  0  0  0  0  0
  129.0229   52.4093   30.3129 C   0  0  0  0  0  0  0  0  0  0  0  0
  128.5942   51.3829   31.1690 C   0  0  0  0  0  0  0  0  0  0  0  0
  131.9234   53.8189   32.2981 C   0  0  0  0  0  0  0  0  0  0  0  0
  130.7794   53.0024   31.9137 C   0  0  0  0  0  0  0  0  0  0  0  0
  130.3656   54.2635   29.9191 O   0  0  0  0  0  0  0  0  0  0  0  0
  130.0522   53.2410   30.6958 C   0  0  0  0  0  0  0  0  0  0  0  0
  132.1518   54.0131   33.6408 N   0  0  0  0  0  0  0  0  0  0  0  0
  1  3  2  0
  1  5  1  0
  2  4  1  0
  3  7  1  0
  4  5  2  0
  4  9  1  0
  6  7  1  0
  6 10  1  0
  7  9  2  0
  8  9  1  0
M  END
>  <ID>  (1) 
conformer_0

$$$$
