
     RDKit          3D

  8  8  0  0  0  0  0  0  0  0999 V2000
  130.0842   51.4706   32.5972 C   0  0  0  0  0  0  0  0  0  0  0  0
  131.5706   53.4743   32.0750 C   0  0  0  0  0  0  0  0  0  0  0  0
  130.1652   52.9585   32.1765 C   0  0  0  0  0  0  0  0  0  0  0  0
  129.5482   53.1417   30.8085 C   0  0  0  0  0  0  0  0  0  0  0  0
  131.5732   54.4473   30.8611 C   0  0  0  0  0  0  0  0  0  0  0  0
  128.7478   51.2298   33.2276 O   0  0  0  0  0  0  0  0  0  0  0  0
  130.4081   53.9975   29.9545 C   0  0  0  0  0  0  0  0  0  0  0  0
  128.7837   52.1951   30.3327 O   0  0  0  0  0  0  0  0  0  0  0  0
  1  3  1  0
  1  6  1  0
  2  3  1  0
  2  5  1  0
  3  4  1  0
  4  7  1  0
  4  8  1  0
  5  7  1  0
M  END
>  <ID>  (1) 
conformer_0

$$$$
