
     RDKit          3D

 14 17  0  0  0  0  0  0  0  0999 V2000
  131.3470   54.5355   29.8746 C   0  0  0  0  0  0  0  0  0  0  0  0
  130.8564   53.0911   31.5836 N   0  0  0  0  0  0  0  0  0  0  0  0
  131.6983   54.0699   31.1587 C   0  0  0  0  0  0  0  0  0  0  0  0
  132.7625   54.5086   31.9066 N   0  0  0  0  0  0  0  0  0  0  0  0
  132.9190   53.8240   33.0993 C   0  0  0  0  0  0  0  0  0  0  0  0
  128.9043   52.9952   28.6886 C   0  0  0  0  0  0  0  0  0  0  0  0
  132.0829   52.7756   33.5474 C   0  0  0  0  0  0  0  0  0  0  0  0
  128.2337   52.0642   29.4931 N   0  0  0  0  0  0  0  0  0  0  0  0
  129.8703   52.8448   30.6275 C   0  0  0  0  0  0  0  0  0  0  0  0
  130.9436   52.4127   32.7625 C   0  0  0  0  0  0  0  0  0  0  0  0
  128.8435   51.9849   30.7298 C   0  0  0  0  0  0  0  0  0  0  0  0
  130.0159   53.5785   29.4354 C   0  0  0  0  0  0  0  0  0  0  0  0
  128.7725   51.2595   31.9652 C   0  0  0  0  0  0  0  0  0  0  0  0
  129.8477   51.4554   32.9442 C   0  0  0  0  0  0  0  0  0  0  0  0
  1  3  1  0
  1 12  1  0
  2  3  1  0
  2  9  1  0
  2 10  1  0
  3  4  2  0
  4  5  1  0
  5  7  1  0
  6  8  1  0
  6 12  1  0
  7 10  2  0
  8 11  1  0
  9 11  2  0
  9 12  1  0
 10 14  1  0
 11 13  1  0
 13 14  2  0
M  END
>  <ID>  (1) 
conformer_0

$$$$
