
     RDKit          3D

 20 23  0  0  0  0  0  0  0  0999 V2000
  127.5206   52.2105   27.6059 N   0  0  0  0  0  0  0  0  0  0  0  0
  132.8464   54.8020   31.6863 C   0  0  0  0  0  0  0  0  0  0  0  0
  131.6932   55.0888   29.4621 C   0  0  0  0  0  0  0  0  0  0  0  0
  129.2312   52.3030   30.2419 N   0  0  0  0  0  0  0  0  0  0  0  0
  133.3665   53.4078   34.3338 O   0  0  0  0  0  0  0  0  0  0  0  0
  130.4165   52.1996   32.4973 C   0  0  0  0  0  0  0  0  0  0  0  0
  129.9293   52.6530   31.2930 N   0  0  0  0  0  0  0  0  0  0  0  0
  128.1899   51.3858   30.1614 C   0  0  0  0  0  0  0  0  0  0  0  0
  128.3713   51.2598   33.5008 F   0  0  0  0  0  0  0  0  0  0  0  0
  131.8397   53.8053   31.9094 C   0  0  0  0  0  0  0  0  0  0  0  0
  128.4500   52.9733   28.1047 C   0  0  0  0  0  0  0  0  0  0  0  0
  130.6622   54.0444   29.6087 N   0  0  0  0  0  0  0  0  0  0  0  0
  129.6947   50.9504   32.8719 C   0  0  0  0  0  0  0  0  0  0  0  0
  131.4956   52.9023   32.9917 C   0  0  0  0  0  0  0  0  0  0  0  0
  130.8984   53.5903   30.8739 C   0  0  0  0  0  0  0  0  0  0  0  0
  127.0580   51.0196   27.9505 C   0  0  0  0  0  0  0  0  0  0  0  0
  132.6414   52.4809   33.6551 C   0  0  0  0  0  0  0  0  0  0  0  0
  127.5732   50.5739   29.2072 C   0  0  0  0  0  0  0  0  0  0  0  0
  129.4368   53.1793   29.1711 C   0  0  0  0  0  0  0  0  0  0  0  0
  132.5998   55.5355   30.4659 N   0  0  0  0  0  0  0  0  0  0  0  0
  1 11  2  0
  1 16  1  0
  2 10  1  0
  2 20  1  0
  3 12  1  0
  3 20  1  0
  4  7  1  0
  4  8  1  0
  4 19  1  0
  5 17  1  0
  6  7  1  0
  6 13  1  0
  6 14  1  0
  7 15  1  0
  8 18  1  0
  9 13  1  0
 10 14  1  0
 10 15  2  0
 11 19  1  0
 12 15  1  0
 12 19  1  0
 14 17  1  0
 16 18  1  0
M  END
>  <ID>  (1) 
conformer_0

$$$$
