
     RDKit          3D

 14 15  0  0  0  0  0  0  0  0999 V2000
  128.0961   52.1752   29.3054 C   0  0  0  0  0  0  0  0  0  0  0  0
  130.8708   53.0788   31.7030 C   0  0  0  0  0  0  0  0  0  0  0  0
  128.8993   52.2155   30.5309 C   0  0  0  0  0  0  0  0  0  0  0  0
  133.7816   53.5780   33.8518 N   0  0  0  0  0  0  0  0  0  0  0  0
  130.7855   52.0918   32.6185 C   0  0  0  0  0  0  0  0  0  0  0  0
  129.7286   51.2319   32.5974 C   0  0  0  0  0  0  0  0  0  0  0  0
  132.7308   53.1898   33.1884 C   0  0  0  0  0  0  0  0  0  0  0  0
  128.4864   52.8247   28.3129 O   0  0  0  0  0  0  0  0  0  0  0  0
  127.2266   51.1459   29.0990 N   0  0  0  0  0  0  0  0  0  0  0  0
  127.0372   50.9802   27.6700 C   0  0  0  0  0  0  0  0  0  0  0  0
  132.0454   53.8912   32.0026 C   0  0  0  0  0  0  0  0  0  0  0  0
  131.8826   52.0988   33.5124 N   0  0  0  0  0  0  0  0  0  0  0  0
  129.8904   53.1602   30.6826 C   0  0  0  0  0  0  0  0  0  0  0  0
  128.7923   51.2898   31.5594 C   0  0  0  0  0  0  0  0  0  0  0  0
  1  3  1  0
  1  8  2  0
  1  9  1  0
  2  5  2  0
  2 11  1  0
  2 13  1  0
  3 13  2  0
  3 14  1  0
  4  7  2  0
  5  6  1  0
  5 12  1  0
  6 14  2  0
  7 11  1  0
  7 12  1  0
  9 10  1  0
M  END
>  <ID>  (1) 
conformer_0

$$$$
