
     RDKit          3D

  8  8  0  0  0  0  0  0  0  0999 V2000
  129.1813   51.3890   32.7062 C   0  0  0  0  0  0  0  0  0  0  0  0
  128.6012   51.8319   30.4311 O   0  0  0  0  0  0  0  0  0  0  0  0
  130.1197   54.2697   30.4359 O   0  0  0  0  0  0  0  0  0  0  0  0
  131.2068   53.5649   32.5141 C   0  0  0  0  0  0  0  0  0  0  0  0
  131.6102   52.1853   33.0336 C   0  0  0  0  0  0  0  0  0  0  0  0
  130.0860   53.4561   31.5267 C   0  0  0  0  0  0  0  0  0  0  0  0
  130.6714   51.0298   32.9943 C   0  0  0  0  0  0  0  0  0  0  0  0
  129.1906   52.3519   31.5293 C   0  0  0  0  0  0  0  0  0  0  0  0
  1  7  1  0
  1  8  1  0
  2  8  1  0
  3  6  1  0
  4  5  1  0
  4  6  1  0
  5  7  2  0
  6  8  1  0
M  END
>  <ID>  (1) 
conformer_0

$$$$
