
     RDKit          3D

  8  8  0  0  0  0  0  0  0  0999 V2000
  129.0521   51.3369   32.6018 C   0  0  0  0  0  0  0  0  0  0  0  0
  130.9996   53.6599   31.8551 C   0  0  0  0  0  0  0  0  0  0  0  0
  129.6712   53.7093   29.8527 N   0  0  0  0  0  0  0  0  0  0  0  0
  131.7951   53.1755   32.8939 C   0  0  0  0  0  0  0  0  0  0  0  0
  129.9036   53.1164   31.1009 C   0  0  0  0  0  0  0  0  0  0  0  0
  131.5013   51.8170   33.2913 C   0  0  0  0  0  0  0  0  0  0  0  0
  128.8052   52.2347   31.4802 C   0  0  0  0  0  0  0  0  0  0  0  0
  130.4906   51.0283   32.6818 C   0  0  0  0  0  0  0  0  0  0  0  0
  1  7  1  0
  1  8  1  0
  2  4  1  0
  2  5  1  0
  3  5  1  0
  4  6  1  0
  5  7  1  0
  6  8  1  0
M  END
>  <ID>  (1) 
conformer_0

$$$$
