
     RDKit          3D

  6  6  0  0  0  0  0  0  0  0999 V2000
  130.5573   53.6822   32.2567 N   0  0  0  0  0  0  0  0  0  0  0  0
  130.5375   51.2813   32.7212 C   0  0  0  0  0  0  0  0  0  0  0  0
  129.0804   51.6288   32.5685 N   0  0  0  0  0  0  0  0  0  0  0  0
  131.3720   52.5788   32.7392 C   0  0  0  0  0  0  0  0  0  0  0  0
  128.8406   52.2230   31.2815 C   0  0  0  0  0  0  0  0  0  0  0  0
  129.8619   53.3770   31.0224 C   0  0  0  0  0  0  0  0  0  0  0  0
  1  4  1  0
  1  6  1  0
  2  3  1  0
  2  4  1  0
  3  5  1  0
  5  6  1  0
M  END
>  <ID>  (1) 
conformer_0

$$$$
