
     RDKit          3D

  9  9  0  0  0  0  0  0  0  0999 V2000
  129.6263   52.0601   32.5911 C   0  0  0  0  0  0  0  0  0  0  0  0
  130.8206   54.1800   28.7379 O   0  0  0  0  0  0  0  0  0  0  0  0
  130.8997   53.4965   31.4319 C   0  0  0  0  0  0  0  0  0  0  0  0
  129.0734   52.9114   28.3282 O   0  0  0  0  0  0  0  0  0  0  0  0
  130.6943   52.9022   32.7024 C   0  0  0  0  0  0  0  0  0  0  0  0
  131.4145   53.1509   33.7152 O   0  0  0  0  0  0  0  0  0  0  0  0
  129.9322   53.0500   30.5118 C   0  0  0  0  0  0  0  0  0  0  0  0
  129.1435   52.1610   31.2325 C   0  0  0  0  0  0  0  0  0  0  0  0
  129.9026   53.4632   29.1265 C   0  0  0  0  0  0  0  0  0  0  0  0
  1  5  1  0
  1  8  1  0
  2  9  2  0
  3  5  1  0
  3  7  1  0
  4  9  1  0
  5  6  2  0
  7  8  1  0
  7  9  1  0
M  END
>  <ID>  (1) 
conformer_0

$$$$
