
     RDKit          3D

  6  6  0  0  0  0  0  0  0  0999 V2000
  130.3822   53.6105   31.3801 C   0  0  0  0  0  0  0  0  0  0  0  0
  131.1237   51.7061   32.8164 C   0  0  0  0  0  0  0  0  0  0  0  0
  128.7467   52.1659   32.4416 O   0  0  0  0  0  0  0  0  0  0  0  0
  129.7377   51.0535   32.6023 C   0  0  0  0  0  0  0  0  0  0  0  0
  129.1118   52.8106   31.1500 C   0  0  0  0  0  0  0  0  0  0  0  0
  131.1275   53.2010   32.5998 C   0  0  0  0  0  0  0  0  0  0  0  0
  1  5  1  0
  1  6  1  0
  2  4  1  0
  2  6  1  0
  3  4  1  0
  3  5  1  0
M  END
>  <ID>  (1) 
conformer_0

$$$$
