
     RDKit          3D

  7  6  0  0  0  0  0  0  0  0999 V2000
  130.0762   53.4959   29.3856 O   0  0  0  0  0  0  0  0  0  0  0  0
  130.3539   51.2660   32.5659 C   0  0  0  0  0  0  0  0  0  0  0  0
  129.9552   53.5412   31.7448 C   0  0  0  0  0  0  0  0  0  0  0  0
  129.5340   52.9810   30.4244 C   0  0  0  0  0  0  0  0  0  0  0  0
  130.7733   52.6691   32.5805 O   0  0  0  0  0  0  0  0  0  0  0  0
  128.6934   52.0455   30.2980 O   0  0  0  0  0  0  0  0  0  0  0  0
  128.7671   51.2642   33.0564 S   0  0  0  0  0  0  0  0  0  0  0  0
  1  4  2  0
  2  5  1  0
  2  7  1  0
  3  4  1  0
  3  5  1  0
  4  6  1  0
M  END
>  <ID>  (1) 
conformer_0

$$$$
