
     RDKit          3D

 13 13  0  0  0  0  0  0  0  0999 V2000
  128.8116   51.7652   31.2830 C   0  0  0  0  0  0  0  0  0  0  0  0
  132.4354   53.0978   33.1647 C   0  0  0  0  0  0  0  0  0  0  0  0
  128.7094   52.7763   28.4398 N   0  0  0  0  0  0  0  0  0  0  0  0
  133.1551   54.0246   32.5164 N   0  0  0  0  0  0  0  0  0  0  0  0
  127.2784   50.8972   27.5744 N   0  0  0  0  0  0  0  0  0  0  0  0
  127.5061   51.9718   28.4554 C   0  0  0  0  0  0  0  0  0  0  0  0
  129.5520   52.7969   30.7121 C   0  0  0  0  0  0  0  0  0  0  0  0
  131.2070   52.6300   32.5348 C   0  0  0  0  0  0  0  0  0  0  0  0
  130.4650   51.5612   33.0552 C   0  0  0  0  0  0  0  0  0  0  0  0
  129.2518   51.1577   32.4341 C   0  0  0  0  0  0  0  0  0  0  0  0
  130.7070   53.2266   31.3712 C   0  0  0  0  0  0  0  0  0  0  0  0
  132.7670   52.7400   34.2985 O   0  0  0  0  0  0  0  0  0  0  0  0
  129.1942   53.3890   29.5246 N   0  0  0  0  0  0  0  0  0  0  0  0
  1  7  2  0
  1 10  1  0
  2  4  1  0
  2  8  1  0
  2 12  2  0
  3  6  1  0
  3 13  1  0
  5  6  1  0
  7 11  1  0
  7 13  1  0
  8  9  1  0
  8 11  2  0
  9 10  2  0
M  END
>  <ID>  (1) 
conformer_0

$$$$
