
     RDKit          3D

 17 19  0  0  0  0  0  0  0  0999 V2000
  132.2888   52.6102   33.8983 C   0  0  0  0  0  0  0  0  0  0  0  0
  128.2991   52.7444   27.8746 C   0  0  0  0  0  0  0  0  0  0  0  0
  131.7503   53.7443   31.4307 C   0  0  0  0  0  0  0  0  0  0  0  0
  128.7911   51.6964   31.8959 O   0  0  0  0  0  0  0  0  0  0  0  0
  127.5457   51.3822   29.6518 C   0  0  0  0  0  0  0  0  0  0  0  0
  129.4336   52.9363   29.9980 C   0  0  0  0  0  0  0  0  0  0  0  0
  130.3533   53.8025   29.4840 C   0  0  0  0  0  0  0  0  0  0  0  0
  128.3840   52.4616   29.2743 N   0  0  0  0  0  0  0  0  0  0  0  0
  133.1714   53.5425   33.3516 C   0  0  0  0  0  0  0  0  0  0  0  0
  130.8545   52.8353   32.0105 C   0  0  0  0  0  0  0  0  0  0  0  0
  131.1373   52.3352   33.2450 N   0  0  0  0  0  0  0  0  0  0  0  0
  127.0592   49.9318   27.8602 O   0  0  0  0  0  0  0  0  0  0  0  0
  131.4656   54.2482   30.1757 C   0  0  0  0  0  0  0  0  0  0  0  0
  129.6518   52.4846   31.3102 C   0  0  0  0  0  0  0  0  0  0  0  0
  127.1092   52.1519   27.3082 C   0  0  0  0  0  0  0  0  0  0  0  0
  126.6824   51.0797   28.4481 C   0  0  0  0  0  0  0  0  0  0  0  0
  132.8695   54.0971   32.1707 C   0  0  0  0  0  0  0  0  0  0  0  0
  1  9  2  0
  1 11  1  0
  2  8  1  0
  2 15  1  0
  3 10  1  0
  3 13  1  0
  3 17  2  0
  4 14  1  0
  5  8  1  0
  5 16  1  0
  6  7  1  0
  6  8  1  0
  6 14  2  0
  7 13  2  0
  9 17  1  0
 10 11  2  0
 10 14  1  0
 12 16  1  0
 15 16  1  0
M  END
>  <ID>  (1) 
conformer_0

$$$$
