
     RDKit          3D

  6  5  0  0  0  0  0  0  0  0999 V2000
  128.9943   52.0989   30.5772 O   0  0  0  0  0  0  0  0  0  0  0  0
  128.8036   51.1849   33.2724 O   0  0  0  0  0  0  0  0  0  0  0  0
  130.1749   53.8348   31.8093 C   0  0  0  0  0  0  0  0  0  0  0  0
  131.1891   51.7434   33.2731 O   0  0  0  0  0  0  0  0  0  0  0  0
  129.7889   52.5086   31.5084 C   0  0  0  0  0  0  0  0  0  0  0  0
  130.0365   51.4236   32.5891 C   0  0  0  0  0  0  0  0  0  0  0  0
  1  5  1  0
  2  6  1  0
  3  5  1  0
  4  6  1  0
  5  6  1  0
M  END
>  <ID>  (1) 
conformer_0

$$$$
