
     RDKit          3D

  6  5  0  0  0  0  0  0  0  0999 V2000
  129.6870   53.3039   32.4723 O   0  0  0  0  0  0  0  0  0  0  0  0
  131.9740   52.8884   34.1583 O   0  0  0  0  0  0  0  0  0  0  0  0
  129.0226   52.1165   31.9081 C   0  0  0  0  0  0  0  0  0  0  0  0
  131.1096   53.2359   32.0392 C   0  0  0  0  0  0  0  0  0  0  0  0
  129.5555   50.8543   32.6409 C   0  0  0  0  0  0  0  0  0  0  0  0
  131.7457   52.0957   33.0051 C   0  0  0  0  0  0  0  0  0  0  0  0
  1  3  1  0
  1  4  1  0
  2  6  1  0
  3  5  1  0
  4  6  1  0
M  END
>  <ID>  (1) 
conformer_0

$$$$
