
     RDKit          3D

 10 11  0  0  0  0  0  0  0  0999 V2000
  131.2379   53.6266   31.5380 C   0  0  0  0  0  0  0  0  0  0  0  0
  131.1909   51.9698   33.2666 C   0  0  0  0  0  0  0  0  0  0  0  0
  129.4965   53.2596   29.7248 N   0  0  0  0  0  0  0  0  0  0  0  0
  131.7489   53.1041   32.6876 C   0  0  0  0  0  0  0  0  0  0  0  0
  127.6493   52.1703   28.4741 C   0  0  0  0  0  0  0  0  0  0  0  0
  130.0655   51.4010   32.7159 C   0  0  0  0  0  0  0  0  0  0  0  0
  128.5173   52.3207   29.6448 N   0  0  0  0  0  0  0  0  0  0  0  0
  130.1626   53.0141   30.9114 C   0  0  0  0  0  0  0  0  0  0  0  0
  129.5560   51.8983   31.5377 C   0  0  0  0  0  0  0  0  0  0  0  0
  128.4612   51.5029   30.7472 C   0  0  0  0  0  0  0  0  0  0  0  0
  1  4  2  0
  1  8  1  0
  2  4  1  0
  2  6  2  0
  3  7  1  0
  3  8  1  0
  5  7  1  0
  6  9  1  0
  7 10  1  0
  8  9  2  0
  9 10  1  0
M  END
>  <ID>  (1) 
conformer_0

$$$$
