
     RDKit          3D

 19 20  0  0  0  0  0  0  0  0999 V2000
  129.2885   49.7851   32.4291 N   0  0  0  0  0  0  0  0  0  0  0  0
  130.4292   51.7131   33.4989 N   0  0  0  0  0  0  0  0  0  0  0  0
  129.0974   53.1424   28.5885 N   0  0  0  0  0  0  0  0  0  0  0  0
  130.8125   53.1961   31.7516 C   0  0  0  0  0  0  0  0  0  0  0  0
  130.5841   46.1397   33.5111 N   0  0  0  0  0  0  0  0  0  0  0  0
  129.6817   48.5291   33.0421 C   0  0  0  0  0  0  0  0  0  0  0  0
  127.4535   51.4358   28.6898 C   0  0  0  0  0  0  0  0  0  0  0  0
  129.8050   52.6290   30.8741 C   0  0  0  0  0  0  0  0  0  0  0  0
  129.2389   46.2660   33.3021 C   0  0  0  0  0  0  0  0  0  0  0  0
  128.7792   51.7030   30.7431 N   0  0  0  0  0  0  0  0  0  0  0  0
  128.1524   52.4665   28.0685 C   0  0  0  0  0  0  0  0  0  0  0  0
  129.8657   53.3770   29.6354 C   0  0  0  0  0  0  0  0  0  0  0  0
  131.1174   52.8082   33.0680 C   0  0  0  0  0  0  0  0  0  0  0  0
  128.8020   47.4995   33.1544 N   0  0  0  0  0  0  0  0  0  0  0  0
  129.6881   50.9065   32.9341 C   0  0  0  0  0  0  0  0  0  0  0  0
  132.0864   53.2822   33.7088 O   0  0  0  0  0  0  0  0  0  0  0  0
  130.8657   54.3330   29.7732 C   0  0  0  0  0  0  0  0  0  0  0  0
  131.4500   54.2070   31.0664 N   0  0  0  0  0  0  0  0  0  0  0  0
  127.8308   51.1929   29.9769 C   0  0  0  0  0  0  0  0  0  0  0  0
  1  6  1  0
  1 15  1  0
  2 13  1  0
  2 15  1  0
  3 11  2  0
  3 12  1  0
  4  8  1  0
  4 13  1  0
  4 18  1  0
  5  9  1  0
  6 14  1  0
  7 11  1  0
  7 19  1  0
  8 10  1  0
  8 12  2  0
  9 14  2  3
 10 19  2  0
 12 17  1  0
 13 16  2  0
 17 18  1  0
M  END
>  <ID>  (1) 
conformer_0

$$$$
