
     RDKit          3D

  8  8  0  0  0  0  0  0  0  0999 V2000
  128.8759   51.0179   33.4874 N   0  0  0  0  0  0  0  0  0  0  0  0
  130.1367   53.8789   30.4616 C   0  0  0  0  0  0  0  0  0  0  0  0
  129.7008   51.4757   32.4288 C   0  0  0  0  0  0  0  0  0  0  0  0
  131.1015   51.7710   32.8642 C   0  0  0  0  0  0  0  0  0  0  0  0
  128.9373   52.1520   31.4451 C   0  0  0  0  0  0  0  0  0  0  0  0
  131.4649   53.2244   32.7391 C   0  0  0  0  0  0  0  0  0  0  0  0
  131.2745   53.8073   31.3946 C   0  0  0  0  0  0  0  0  0  0  0  0
  129.3186   52.7424   30.3317 N   0  0  0  0  0  0  0  0  0  0  0  0
  1  3  1  0
  2  7  1  0
  2  8  1  0
  3  4  1  0
  3  5  1  0
  4  6  1  0
  5  8  1  0
  6  7  1  0
M  END
>  <ID>  (1) 
conformer_0

$$$$
