
     RDKit          3D

  9  9  0  0  0  0  0  0  0  0999 V2000
  130.2438   52.5178   32.2194 C   0  0  0  0  0  0  0  0  0  0  0  0
  130.1113   53.7443   30.0848 C   0  0  0  0  0  0  0  0  0  0  0  0
  127.4485   51.6210   28.5863 C   0  0  0  0  0  0  0  0  0  0  0  0
  129.1707   53.2115   29.2564 C   0  0  0  0  0  0  0  0  0  0  0  0
  129.2007   51.6343   31.9431 C   0  0  0  0  0  0  0  0  0  0  0  0
  130.9291   52.4127   33.3770 N   0  0  0  0  0  0  0  0  0  0  0  0
  128.3858   52.1178   29.6273 C   0  0  0  0  0  0  0  0  0  0  0  0
  128.4526   51.5178   30.8624 C   0  0  0  0  0  0  0  0  0  0  0  0
  130.6142   53.5095   31.3041 C   0  0  0  0  0  0  0  0  0  0  0  0
  1  5  1  0
  1  6  1  0
  1  9  1  0
  2  4  1  0
  2  9  2  0
  3  7  1  0
  4  7  2  0
  5  8  2  0
  7  8  1  0
M  END
>  <ID>  (1) 
conformer_0

$$$$
