
     RDKit          3D

  8  7  0  0  0  0  0  0  0  0999 V2000
  131.2180   53.1014   32.3067 C   0  0  0  0  0  0  0  0  0  0  0  0
  129.6118   53.5790   30.3729 O   0  0  0  0  0  0  0  0  0  0  0  0
  128.7131   51.3323   31.1738 O   0  0  0  0  0  0  0  0  0  0  0  0
  130.7492   53.8944   31.1138 C   0  0  0  0  0  0  0  0  0  0  0  0
  129.2304   51.5297   32.2877 C   0  0  0  0  0  0  0  0  0  0  0  0
  130.6960   51.7007   32.5893 C   0  0  0  0  0  0  0  0  0  0  0  0
  131.2611   53.8287   33.4867 O   0  0  0  0  0  0  0  0  0  0  0  0
  128.5257   51.2881   33.4048 O   0  0  0  0  0  0  0  0  0  0  0  0
  1  4  1  0
  1  6  1  0
  1  7  1  0
  2  4  1  0
  3  5  2  0
  5  6  1  0
  5  8  1  0
M  END
>  <ID>  (1) 
conformer_0

$$$$
