
     RDKit          3D

 14 15  0  0  0  0  0  0  0  0999 V2000
  131.0348   53.8318   30.8933 C   0  0  0  0  0  0  0  0  0  0  0  0
  132.5774   53.9700   32.9640 C   0  0  0  0  0  0  0  0  0  0  0  0
  130.6548   52.4657   32.8332 N   0  0  0  0  0  0  0  0  0  0  0  0
  130.0083   53.1250   30.2553 C   0  0  0  0  0  0  0  0  0  0  0  0
  131.5590   54.9081   30.3237 O   0  0  0  0  0  0  0  0  0  0  0  0
  129.3714   53.1311   28.9950 N   0  0  0  0  0  0  0  0  0  0  0  0
  131.4044   53.4128   32.2078 C   0  0  0  0  0  0  0  0  0  0  0  0
  129.3411   52.1247   30.9091 C   0  0  0  0  0  0  0  0  0  0  0  0
  127.6479   51.8413   27.9259 N   0  0  0  0  0  0  0  0  0  0  0  0
  128.3447   51.5419   30.1594 N   0  0  0  0  0  0  0  0  0  0  0  0
  128.4080   52.1881   28.9764 C   0  0  0  0  0  0  0  0  0  0  0  0
  133.8401   54.0430   32.3013 C   0  0  0  0  0  0  0  0  0  0  0  0
  128.9372   50.6950   32.8687 C   0  0  0  0  0  0  0  0  0  0  0  0
  129.6587   51.7846   32.2073 C   0  0  0  0  0  0  0  0  0  0  0  0
  1  4  2  0
  1  5  1  0
  1  7  1  0
  2  7  1  0
  2 12  1  0
  3  7  1  0
  3 14  2  0
  4  6  1  0
  4  8  1  0
  6 11  1  0
  8 10  1  0
  8 14  1  0
  9 11  2  0
 10 11  1  0
 13 14  1  0
M  END
>  <ID>  (1) 
conformer_0

$$$$
