
     RDKit          3D

  7  7  0  0  0  0  0  0  0  0999 V2000
  128.6307   51.7732   31.3273 C   0  0  0  0  0  0  0  0  0  0  0  0
  130.4859   51.5549   32.8391 C   0  0  0  0  0  0  0  0  0  0  0  0
  130.5882   52.8312   32.0697 C   0  0  0  0  0  0  0  0  0  0  0  0
  130.7549   53.9133   32.8447 N   0  0  0  0  0  0  0  0  0  0  0  0
  129.5722   53.4709   29.9091 C   0  0  0  0  0  0  0  0  0  0  0  0
  129.6372   52.7277   31.0988 N   0  0  0  0  0  0  0  0  0  0  0  0
  129.0627   51.0792   32.5597 C   0  0  0  0  0  0  0  0  0  0  0  0
  1  6  1  0
  1  7  1  0
  2  3  1  0
  2  7  1  0
  3  4  1  0
  3  6  1  0
  5  6  1  0
M  END
>  <ID>  (1) 
conformer_0

$$$$
