
     RDKit          3D

 22 24  0  0  0  0  0  0  0  0999 V2000
  129.8944   50.9199   32.5141 C   0  0  0  0  0  0  0  0  0  0  0  0
  131.1680   51.5373   33.0392 C   0  0  0  0  0  0  0  0  0  0  0  0
  128.8347   51.7101   32.8256 O   0  0  0  0  0  0  0  0  0  0  0  0
  135.8244   53.1995   34.0447 C   0  0  0  0  0  0  0  0  0  0  0  0
  134.4317   55.2738   33.6237 C   0  0  0  0  0  0  0  0  0  0  0  0
  137.1328   53.9107   33.8631 C   0  0  0  0  0  0  0  0  0  0  0  0
  128.5410   51.9471   30.4473 N   0  0  0  0  0  0  0  0  0  0  0  0
  132.2841   53.7105   32.8021 C   0  0  0  0  0  0  0  0  0  0  0  0
  128.7253   52.7895   29.3987 C   0  0  0  0  0  0  0  0  0  0  0  0
  138.0932   53.7018   34.8016 O   0  0  0  0  0  0  0  0  0  0  0  0
  127.1986   51.2772   28.0439 C   0  0  0  0  0  0  0  0  0  0  0  0
  135.5932   56.0084   34.1137 C   0  0  0  0  0  0  0  0  0  0  0  0
  129.7949   53.6334   29.3752 C   0  0  0  0  0  0  0  0  0  0  0  0
  128.1140   52.4653   28.0901 C   0  0  0  0  0  0  0  0  0  0  0  0
  136.8641   55.3976   33.9457 C   0  0  0  0  0  0  0  0  0  0  0  0
  131.0121   52.9877   32.8212 C   0  0  0  0  0  0  0  0  0  0  0  0
  136.2628   55.5628   35.3161 C   0  0  0  0  0  0  0  0  0  0  0  0
  130.4731   53.9158   30.5557 C   0  0  0  0  0  0  0  0  0  0  0  0
  133.3724   52.9495   33.5181 C   0  0  0  0  0  0  0  0  0  0  0  0
  134.5333   53.8280   33.7368 C   0  0  0  0  0  0  0  0  0  0  0  0
  129.2338   52.1049   31.6372 C   0  0  0  0  0  0  0  0  0  0  0  0
  130.1988   53.1319   31.6532 C   0  0  0  0  0  0  0  0  0  0  0  0
  1  2  1  0
  1  3  1  0
  2 16  1  0
  3 21  1  0
  4  6  1  0
  4 20  1  0
  5 12  1  0
  5 20  1  0
  6 10  1  0
  6 15  1  0
  7  9  2  0
  7 21  1  0
  8 16  1  0
  8 19  1  0
  9 13  1  0
  9 14  1  0
 11 14  1  0
 12 15  1  0
 12 17  1  0
 13 18  2  0
 16 22  1  0
 18 22  1  0
 19 20  1  0
 21 22  1  0
M  END
>  <ID>  (1) 
conformer_0

$$$$
