
     RDKit          3D

 13 14  0  0  0  0  0  0  0  0999 V2000
  128.6777   51.9111   30.8117 C   0  0  0  0  0  0  0  0  0  0  0  0
  132.7743   53.2439   33.6283 C   0  0  0  0  0  0  0  0  0  0  0  0
  129.5577   52.8830   30.4340 C   0  0  0  0  0  0  0  0  0  0  0  0
  130.8249   52.4114   32.4532 C   0  0  0  0  0  0  0  0  0  0  0  0
  132.9750   54.1893   32.4804 C   0  0  0  0  0  0  0  0  0  0  0  0
  129.8220   51.4967   32.7858 C   0  0  0  0  0  0  0  0  0  0  0  0
  127.9561   51.3901   29.8168 N   0  0  0  0  0  0  0  0  0  0  0  0
  128.6965   51.5157   32.0945 N   0  0  0  0  0  0  0  0  0  0  0  0
  128.7878   52.7938   28.1567 C   0  0  0  0  0  0  0  0  0  0  0  0
  129.4281   53.3864   29.1790 C   0  0  0  0  0  0  0  0  0  0  0  0
  132.1184   52.0626   33.0968 C   0  0  0  0  0  0  0  0  0  0  0  0
  127.8728   51.7821   28.5315 C   0  0  0  0  0  0  0  0  0  0  0  0
  130.5709   53.2294   31.3567 C   0  0  0  0  0  0  0  0  0  0  0  0
  1  3  1  0
  1  7  2  0
  1  8  1  0
  2  5  1  0
  2 11  1  0
  3 10  1  0
  3 13  2  0
  4  6  2  0
  4 11  1  0
  4 13  1  0
  6  8  1  0
  7 12  1  0
  9 10  1  0
  9 12  1  0
M  END
>  <ID>  (1) 
conformer_0

$$$$
