
     RDKit          3D

  9  9  0  0  0  0  0  0  0  0999 V2000
  130.4855   51.9114   33.1518 C   0  0  0  0  0  0  0  0  0  0  0  0
  130.3011   53.1706   31.1282 C   0  0  0  0  0  0  0  0  0  0  0  0
  129.4485   53.2451   28.4589 O   0  0  0  0  0  0  0  0  0  0  0  0
  128.8619   51.3067   31.4561 C   0  0  0  0  0  0  0  0  0  0  0  0
  129.3139   52.3447   30.6128 C   0  0  0  0  0  0  0  0  0  0  0  0
  130.9089   52.9740   32.3752 C   0  0  0  0  0  0  0  0  0  0  0  0
  129.4376   51.1123   32.7271 C   0  0  0  0  0  0  0  0  0  0  0  0
  127.9098   51.7079   28.8299 O   0  0  0  0  0  0  0  0  0  0  0  0
  128.7952   52.5238   29.2540 C   0  0  0  0  0  0  0  0  0  0  0  0
  1  6  2  0
  1  7  1  0
  2  5  2  0
  2  6  1  0
  3  9  2  0
  4  5  1  0
  4  7  2  0
  5  9  1  0
  8  9  1  0
M  END
>  <ID>  (1) 
conformer_0

$$$$
