
     RDKit          3D

 19 22  0  0  0  0  0  0  0  0999 V2000
  131.4371   53.6293   31.2947 C   0  0  0  0  0  0  0  0  0  0  0  0
  130.7600   51.9845   33.1696 N   0  0  0  0  0  0  0  0  0  0  0  0
  133.7677   53.9224   32.8898 C   0  0  0  0  0  0  0  0  0  0  0  0
  132.7776   53.0634   33.2803 C   0  0  0  0  0  0  0  0  0  0  0  0
  133.6069   54.6692   31.7454 C   0  0  0  0  0  0  0  0  0  0  0  0
  134.5264   55.5551   31.3477 O   0  0  0  0  0  0  0  0  0  0  0  0
  127.2687   51.1395   28.8522 C   0  0  0  0  0  0  0  0  0  0  0  0
  127.6843   51.1410   30.1461 C   0  0  0  0  0  0  0  0  0  0  0  0
  129.2738   52.9335   29.7310 C   0  0  0  0  0  0  0  0  0  0  0  0
  128.8119   52.9655   28.4339 C   0  0  0  0  0  0  0  0  0  0  0  0
  130.7831   54.7803   29.3872 O   0  0  0  0  0  0  0  0  0  0  0  0
  128.7588   52.2451   32.0777 C   0  0  0  0  0  0  0  0  0  0  0  0
  127.8119   52.0819   28.0158 C   0  0  0  0  0  0  0  0  0  0  0  0
  130.4220   53.7028   30.2410 C   0  0  0  0  0  0  0  0  0  0  0  0
  132.1512   55.2368   29.7475 C   0  0  0  0  0  0  0  0  0  0  0  0
  132.4488   54.5163   30.9765 C   0  0  0  0  0  0  0  0  0  0  0  0
  131.6287   52.9300   32.5321 C   0  0  0  0  0  0  0  0  0  0  0  0
  129.7236   51.1980   32.6456 C   0  0  0  0  0  0  0  0  0  0  0  0
  128.5693   52.0664   30.5933 C   0  0  0  0  0  0  0  0  0  0  0  0
  1 14  1  0
  1 16  2  0
  1 17  1  0
  2 17  1  0
  2 18  1  0
  3  4  1  0
  3  5  2  0
  4 17  2  0
  5  6  1  0
  5 16  1  0
  7  8  1  0
  7 13  2  0
  8 19  2  0
  9 10  2  0
  9 14  1  0
  9 19  1  0
 10 13  1  0
 11 14  1  0
 11 15  1  0
 12 18  1  0
 12 19  1  0
 15 16  1  0
M  END
>  <ID>  (1) 
conformer_0

$$$$
