
     RDKit          3D

  9 10  0  0  0  0  0  0  0  0999 V2000
  130.1931   53.8240   30.3653 C   0  0  0  0  0  0  0  0  0  0  0  0
  130.5065   52.8860   32.3719 N   0  0  0  0  0  0  0  0  0  0  0  0
  132.6541   53.0005   33.2698 C   0  0  0  0  0  0  0  0  0  0  0  0
  132.4749   54.0157   32.1758 C   0  0  0  0  0  0  0  0  0  0  0  0
  129.0582   50.9133   32.5859 C   0  0  0  0  0  0  0  0  0  0  0  0
  131.4971   52.0729   33.1420 C   0  0  0  0  0  0  0  0  0  0  0  0
  129.4098   52.2370   31.7899 C   0  0  0  0  0  0  0  0  0  0  0  0
  131.2005   53.7837   31.4608 C   0  0  0  0  0  0  0  0  0  0  0  0
  129.3277   52.6871   30.4903 O   0  0  0  0  0  0  0  0  0  0  0  0
  1  8  1  0
  1  9  1  0
  2  6  1  0
  2  7  1  0
  2  8  1  0
  3  4  1  0
  3  6  1  0
  4  8  1  0
  5  7  1  0
  7  9  1  0
M  END
>  <ID>  (1) 
conformer_0

$$$$
