
     RDKit          3D

  8  8  0  0  0  0  0  0  0  0999 V2000
  131.1071   51.9675   32.9259 C   0  0  0  0  0  0  0  0  0  0  0  0
  129.0295   50.6804   32.8120 C   0  0  0  0  0  0  0  0  0  0  0  0
  131.4164   53.9097   31.5398 C   0  0  0  0  0  0  0  0  0  0  0  0
  130.1946   53.6171   30.9181 C   0  0  0  0  0  0  0  0  0  0  0  0
  129.4488   52.5323   31.2749 N   0  0  0  0  0  0  0  0  0  0  0  0
  133.0166   53.4045   33.3662 C   0  0  0  0  0  0  0  0  0  0  0  0
  131.8393   53.0841   32.5813 C   0  0  0  0  0  0  0  0  0  0  0  0
  129.8716   51.7376   32.3071 C   0  0  0  0  0  0  0  0  0  0  0  0
  1  7  2  0
  1  8  1  0
  2  8  1  0
  3  4  2  0
  3  7  1  0
  4  5  1  0
  5  8  2  0
  6  7  1  0
M  END
>  <ID>  (1) 
conformer_0

$$$$
