
     RDKit          3D

 11 10  0  0  0  0  0  0  0  0999 V2000
  129.3905   52.7457   30.2484 N   0  0  0  0  0  0  0  0  0  0  0  0
  131.0506   53.4570   32.0748 N   0  0  0  0  0  0  0  0  0  0  0  0
  128.1978   52.8100   28.1223 C   0  0  0  0  0  0  0  0  0  0  0  0
  127.6945   51.6317   27.7523 N   0  0  0  0  0  0  0  0  0  0  0  0
  132.8690   52.6431   33.4532 C   0  0  0  0  0  0  0  0  0  0  0  0
  129.2467   51.1887   32.5760 C   0  0  0  0  0  0  0  0  0  0  0  0
  126.9474   50.8108   28.6872 C   0  0  0  0  0  0  0  0  0  0  0  0
  131.5798   52.3879   32.8277 C   0  0  0  0  0  0  0  0  0  0  0  0
  130.7530   51.2098   32.9080 C   0  0  0  0  0  0  0  0  0  0  0  0
  130.0177   53.3514   31.2405 C   0  0  0  0  0  0  0  0  0  0  0  0
  129.0598   53.1123   29.0851 C   0  0  0  0  0  0  0  0  0  0  0  0
  1 10  1  0
  1 11  1  0
  2  8  2  3
  2 10  1  0
  3  4  1  0
  3 11  1  0
  4  7  1  0
  5  8  1  0
  6  9  1  0
  8  9  1  0
M  END
>  <ID>  (1) 
conformer_0

$$$$
