
     RDKit          3D

  7  7  0  0  0  0  0  0  0  0999 V2000
  130.7744   51.7925   32.5091 C   0  0  0  0  0  0  0  0  0  0  0  0
  128.3873   51.9626   31.6694 C   0  0  0  0  0  0  0  0  0  0  0  0
  130.1098   53.6444   30.9574 C   0  0  0  0  0  0  0  0  0  0  0  0
  129.3603   51.1864   32.5841 C   0  0  0  0  0  0  0  0  0  0  0  0
  130.6845   53.3136   32.3798 C   0  0  0  0  0  0  0  0  0  0  0  0
  129.1161   52.6114   30.5678 C   0  0  0  0  0  0  0  0  0  0  0  0
  128.8806   52.2896   29.3189 O   0  0  0  0  0  0  0  0  0  0  0  0
  1  4  1  0
  1  5  1  0
  2  4  1  0
  2  6  1  0
  3  5  1  0
  3  6  1  0
  6  7  1  0
M  END
>  <ID>  (1) 
conformer_0

$$$$
