
     RDKit          3D

 23 26  0  0  0  0  0  0  0  0999 V2000
  130.3004   53.6970   29.7810 N   0  0  0  0  0  0  0  0  0  0  0  0
  137.9265   54.3124   33.8112 C   0  0  0  0  0  0  0  0  0  0  0  0
  129.4170   52.1056   31.7919 C   0  0  0  0  0  0  0  0  0  0  0  0
  128.8734   51.4780   32.8626 N   0  0  0  0  0  0  0  0  0  0  0  0
  130.9401   53.7334   30.9497 C   0  0  0  0  0  0  0  0  0  0  0  0
  135.8743   54.8897   32.6683 C   0  0  0  0  0  0  0  0  0  0  0  0
  131.3647   52.7701   33.1680 N   0  0  0  0  0  0  0  0  0  0  0  0
  127.8760   51.2135   29.8758 N   0  0  0  0  0  0  0  0  0  0  0  0
  131.8205   54.6290   31.0886 O   0  0  0  0  0  0  0  0  0  0  0  0
  127.7248   51.6647   28.5528 C   0  0  0  0  0  0  0  0  0  0  0  0
  138.1830   52.0404   33.8044 C   0  0  0  0  0  0  0  0  0  0  0  0
  132.7462   52.8204   33.3137 C   0  0  0  0  0  0  0  0  0  0  0  0
  128.6309   52.6877   28.4008 N   0  0  0  0  0  0  0  0  0  0  0  0
  136.9705   52.4088   33.0702 O   0  0  0  0  0  0  0  0  0  0  0  0
  138.1883   55.5401   33.6117 O   0  0  0  0  0  0  0  0  0  0  0  0
  130.5977   52.8762   32.0193 C   0  0  0  0  0  0  0  0  0  0  0  0
  135.0863   53.2805   34.2110 C   0  0  0  0  0  0  0  0  0  0  0  0
  128.8383   51.9663   30.4901 N   0  0  0  0  0  0  0  0  0  0  0  0
  136.5272   53.7621   33.5647 C   0  0  0  0  0  0  0  0  0  0  0  0
  133.9633   53.5857   33.3182 N   0  0  0  0  0  0  0  0  0  0  0  0
  138.9265   53.2910   33.8788 C   0  0  0  0  0  0  0  0  0  0  0  0
  129.3026   52.8524   29.5731 C   0  0  0  0  0  0  0  0  0  0  0  0
  134.4110   54.5506   32.3527 C   0  0  0  0  0  0  0  0  0  0  0  0
  1  5  1  0
  1 22  2  0
  2 15  2  0
  2 19  1  0
  2 21  1  0
  3  4  2  0
  3 16  1  0
  3 18  1  0
  5  9  2  0
  5 16  1  0
  6 19  1  0
  6 23  1  0
  7 12  1  0
  7 16  1  0
  8 10  1  0
  8 18  1  0
 10 13  1  0
 11 14  1  0
 11 21  1  0
 12 20  1  0
 13 22  1  0
 14 19  1  0
 17 19  1  0
 17 20  1  0
 18 22  1  0
 20 23  1  0
M  END
>  <ID>  (1) 
conformer_0

$$$$
