
     RDKit          3D

 12 12  0  0  0  0  0  0  0  0999 V2000
  -24.3055   25.4392   -1.3018 C   0  0  0  0  0  0  0  0  0  0  0  0
  -23.4277   25.3945   -2.1671 C   0  0  0  0  0  0  0  0  0  0  0  0
  -22.0259   25.7495   -1.8998 C   0  0  0  0  0  0  0  0  0  0  0  0
  -23.7233   25.2032   -3.5239 C   0  0  0  0  0  0  0  0  0  0  0  0
  -21.6603   25.8054   -0.5763 O   0  0  0  0  0  0  0  0  0  0  0  0
  -21.0123   25.4572   -2.6605 C   0  0  0  0  0  0  0  0  0  0  0  0
  -21.0920   25.2686   -4.0931 C   0  0  0  0  0  0  0  0  0  0  0  0
  -20.2031   25.1732   -4.9367 O   0  0  0  0  0  0  0  0  0  0  0  0
  -22.6199   25.0152   -4.5297 C   0  0  0  0  0  0  0  0  0  0  0  0
  -25.2470   26.1987   -1.2363 O   0  0  0  0  0  0  0  0  0  0  0  0
  -22.8421   24.7711   -5.9528 C   0  0  0  0  0  0  0  0  0  0  0  0
  -24.1398   24.6724   -0.1246 O   0  0  0  0  0  0  0  0  0  0  0  0
  1  2  1  0
  2  3  1  0
  2  4  2  0
  3  5  1  0
  3  6  2  0
  6  7  1  0
  7  8  1  0
  4  9  1  0
  7  9  2  0
  1 10  2  0
  9 11  1  0
  1 12  1  0
M  END
>  <ID>  (1) 
conformer_0

$$$$
