
     RDKit          3D

 11 11  0  0  0  0  0  0  0  0999 V2000
  -24.0540   25.6625   -1.2813 C   0  0  0  0  0  0  0  0  0  0  0  0
  -23.1918   25.6647   -2.1993 C   0  0  0  0  0  0  0  0  0  0  0  0
  -23.7037   25.4313   -3.5423 C   0  0  0  0  0  0  0  0  0  0  0  0
  -25.0032   25.0873   -3.6632 O   0  0  0  0  0  0  0  0  0  0  0  0
  -24.9087   25.7917   -0.6548 N   0  0  0  0  0  0  0  0  0  0  0  0
  -22.8575   25.2687   -4.6967 C   0  0  0  0  0  0  0  0  0  0  0  0
  -23.2876   25.0991   -5.9484 O   0  0  0  0  0  0  0  0  0  0  0  0
  -21.4681   25.6110   -4.5652 C   0  0  0  0  0  0  0  0  0  0  0  0
  -21.8511   25.9012   -2.1062 C   0  0  0  0  0  0  0  0  0  0  0  0
  -20.5647   25.5818   -5.6156 O   0  0  0  0  0  0  0  0  0  0  0  0
  -20.9530   25.8826   -3.2143 C   0  0  0  0  0  0  0  0  0  0  0  0
  1  2  1  0
  2  3  2  0
  3  4  1  0
  1  5  3  0
  3  6  1  0
  6  7  1  0
  6  8  2  0
  2  9  1  0
  8 10  1  0
  8 11  1  0
  9 11  2  0
M  END
>  <ID>  (1) 
conformer_0

$$$$
