
     RDKit          3D

 12 13  0  0  0  0  0  0  0  0999 V2000
  -24.0305   25.8630   -1.1674 C   0  0  0  0  0  0  0  0  0  0  0  0
  -23.0876   25.6784   -2.0719 C   0  0  0  0  0  0  0  0  0  0  0  0
  -23.4808   25.3676   -3.3618 C   0  0  0  0  0  0  0  0  0  0  0  0
  -24.7635   25.0242   -3.6287 C   0  0  0  0  0  0  0  0  0  0  0  0
  -21.7066   26.0123   -1.8852 O   0  0  0  0  0  0  0  0  0  0  0  0
  -25.3038   25.5600   -1.3373 C   0  0  0  0  0  0  0  0  0  0  0  0
  -22.4363   25.1945   -4.4259 C   0  0  0  0  0  0  0  0  0  0  0  0
  -22.7124   25.0859   -5.6064 N   0  0  0  0  0  0  0  0  0  0  0  0
  -21.7204   25.1159   -6.4991 N   0  0  0  0  0  0  0  0  0  0  0  0
  -25.6473   25.0199   -2.5811 C   0  0  0  0  0  0  0  0  0  0  0  0
  -20.9797   25.5208   -4.3182 C   0  0  0  0  0  0  0  0  0  0  0  0
  -20.6245   25.5882   -5.7535 C   0  0  0  0  0  0  0  0  0  0  0  0
  1  2  1  0
  2  3  2  0
  3  4  1  0
  2  5  1  0
  1  6  2  0
  3  7  1  0
  7  8  2  0
  8  9  1  0
  4 10  2  0
  6 10  1  0
  7 11  1  0
  9 12  1  0
 11 12  2  0
M  END
>  <ID>  (1) 
conformer_0

$$$$
