
     RDKit          3D

  9  9  0  0  0  0  0  0  0  0999 V2000
  -24.0540   25.6625   -1.2813 C   0  0  0  0  0  0  0  0  0  0  0  0
  -23.1918   25.6647   -2.1993 C   0  0  0  0  0  0  0  0  0  0  0  0
  -21.8276   25.7766   -2.1235 C   0  0  0  0  0  0  0  0  0  0  0  0
  -23.6975   25.5710   -3.5910 C   0  0  0  0  0  0  0  0  0  0  0  0
  -21.0389   25.6265   -2.9674 N   0  0  0  0  0  0  0  0  0  0  0  0
  -24.6396   25.6152   -0.3998 N   0  0  0  0  0  0  0  0  0  0  0  0
  -21.4297   25.5171   -4.2374 C   0  0  0  0  0  0  0  0  0  0  0  0
  -22.7498   25.4121   -4.5783 C   0  0  0  0  0  0  0  0  0  0  0  0
  -20.5444   25.4464   -5.3426 N   0  0  0  0  0  0  0  0  0  0  0  0
  1  2  1  0
  2  3  2  0
  2  4  1  0
  3  5  1  0
  1  6  3  0
  5  7  2  0
  4  8  2  0
  7  8  1  0
  7  9  1  0
M  END
>  <ID>  (1) 
conformer_0

$$$$
