
     RDKit          3D

 12 13  0  0  0  0  0  0  0  0999 V2000
  -21.4461   25.8573   -1.5401 O   0  0  0  0  0  0  0  0  0  0  0  0
  -22.5268   25.6783   -2.2118 C   0  0  0  0  0  0  0  0  0  0  0  0
  -22.4943   25.3572   -3.5512 C   0  0  0  0  0  0  0  0  0  0  0  0
  -23.4759   24.9998   -4.2846 C   0  0  0  0  0  0  0  0  0  0  0  0
  -21.2712   25.7754   -4.3574 C   0  0  0  0  0  0  0  0  0  0  0  0
  -24.6562   24.5039   -3.6278 C   0  0  0  0  0  0  0  0  0  0  0  0
  -21.3288   25.8156   -5.6576 C   0  0  0  0  0  0  0  0  0  0  0  0
  -23.7824   25.7225   -1.6091 C   0  0  0  0  0  0  0  0  0  0  0  0
  -24.0469   26.0669   -0.3656 O   0  0  0  0  0  0  0  0  0  0  0  0
  -22.5615   25.2880   -6.2740 C   0  0  0  0  0  0  0  0  0  0  0  0
  -23.5265   24.8192   -5.6724 N   0  0  0  0  0  0  0  0  0  0  0  0
  -24.8783   25.0859   -2.4180 N   0  0  0  0  0  0  0  0  0  0  0  0
  1  2  2  0
  2  3  1  0
  3  4  2  0
  3  5  1  0
  4  6  1  0
  5  7  2  0
  2  8  1  0
  8  9  2  0
  7 10  1  0
  4 11  1  0
 10 11  2  0
  6 12  2  0
  8 12  1  0
M  END
>  <ID>  (1) 
conformer_0

$$$$
