
     RDKit          3D

 10 10  0  0  0  0  0  0  0  0999 V2000
  -21.4461   25.8573   -1.5401 O   0  0  0  0  0  0  0  0  0  0  0  0
  -21.8539   25.5333   -2.5926 C   0  0  0  0  0  0  0  0  0  0  0  0
  -23.2682   25.4431   -2.9533 C   0  0  0  0  0  0  0  0  0  0  0  0
  -23.7293   24.8618   -4.0688 C   0  0  0  0  0  0  0  0  0  0  0  0
  -21.0827   25.2543   -3.6483 C   0  0  0  0  0  0  0  0  0  0  0  0
  -22.9025   24.6740   -5.1431 C   0  0  0  0  0  0  0  0  0  0  0  0
  -24.1799   25.6146   -1.7419 C   0  0  0  0  0  0  0  0  0  0  0  0
  -21.5635   24.8725   -4.9313 C   0  0  0  0  0  0  0  0  0  0  0  0
  -24.1647   26.4448   -1.0064 O   0  0  0  0  0  0  0  0  0  0  0  0
  -24.9357   24.6379   -1.3393 O   0  0  0  0  0  0  0  0  0  0  0  0
  1  2  2  0
  2  3  1  0
  3  4  2  0
  2  5  1  0
  4  6  1  0
  3  7  1  0
  5  8  1  0
  6  8  2  0
  7  9  1  0
  7 10  2  0
M  END
>  <ID>  (1) 
conformer_0

$$$$
