
     RDKit          3D

 11 11  0  0  0  0  0  0  0  0999 V2000
  -21.4461   25.8573   -1.5401 O   0  0  0  0  0  0  0  0  0  0  0  0
  -21.8539   25.5333   -2.5926 C   0  0  0  0  0  0  0  0  0  0  0  0
  -21.0849   25.5676   -3.7380 N   0  0  0  0  0  0  0  0  0  0  0  0
  -21.3848   25.4045   -4.9601 C   0  0  0  0  0  0  0  0  0  0  0  0
  -23.3565   25.6106   -2.9696 C   0  0  0  0  0  0  0  0  0  0  0  0
  -20.4015   25.3894   -5.8911 O   0  0  0  0  0  0  0  0  0  0  0  0
  -22.7709   25.5477   -5.4405 C   0  0  0  0  0  0  0  0  0  0  0  0
  -23.0754   25.2617   -6.6165 N   0  0  0  0  0  0  0  0  0  0  0  0
  -24.3681   25.6905   -1.9495 C   0  0  0  0  0  0  0  0  0  0  0  0
  -23.6986   25.4384   -4.3073 C   0  0  0  0  0  0  0  0  0  0  0  0
  -24.3697   26.5137   -1.0620 O   0  0  0  0  0  0  0  0  0  0  0  0
  1  2  2  0
  2  3  1  0
  3  4  1  0
  2  5  1  0
  4  6  2  0
  4  7  1  0
  7  8  1  0
  5  9  1  0
  5 10  2  0
  7 10  2  0
  9 11  2  0
M  END
>  <ID>  (1) 
conformer_0

$$$$
