
     RDKit          3D

 10 10  0  0  0  0  0  0  0  0999 V2000
  -21.4461   25.8573   -1.5401 O   0  0  0  0  0  0  0  0  0  0  0  0
  -21.8539   25.5333   -2.5926 C   0  0  0  0  0  0  0  0  0  0  0  0
  -21.0849   25.5676   -3.7380 N   0  0  0  0  0  0  0  0  0  0  0  0
  -21.3848   25.4045   -4.9601 C   0  0  0  0  0  0  0  0  0  0  0  0
  -22.7397   25.0546   -5.3478 C   0  0  0  0  0  0  0  0  0  0  0  0
  -23.3752   25.2234   -2.8588 C   0  0  0  0  0  0  0  0  0  0  0  0
  -23.0636   24.8192   -6.4906 O   0  0  0  0  0  0  0  0  0  0  0  0
  -24.3320   25.4200   -1.8921 C   0  0  0  0  0  0  0  0  0  0  0  0
  -20.6900   26.1475   -5.9107 C   0  0  0  0  0  0  0  0  0  0  0  0
  -23.7142   25.0973   -4.2426 N   0  0  0  0  0  0  0  0  0  0  0  0
  1  2  2  0
  2  3  1  0
  3  4  1  0
  4  5  1  0
  2  6  1  0
  5  7  2  0
  6  8  1  0
  4  9  2  0
  5 10  1  0
  6 10  2  0
M  END
>  <ID>  (1) 
conformer_0

$$$$
