
     RDKit          3D

 12 12  0  0  0  0  0  0  0  0999 V2000
  -24.3055   25.4392   -1.3018 C   0  0  0  0  0  0  0  0  0  0  0  0
  -23.4277   25.3945   -2.1671 C   0  0  0  0  0  0  0  0  0  0  0  0
  -22.0259   25.7495   -1.8998 C   0  0  0  0  0  0  0  0  0  0  0  0
  -21.6962   25.7121   -0.5080 C   0  0  0  0  0  0  0  0  0  0  0  0
  -23.6162   25.3614   -3.6731 C   0  0  0  0  0  0  0  0  0  0  0  0
  -22.9341   24.4941   -4.3941 C   0  0  0  0  0  0  0  0  0  0  0  0
  -25.5802   25.4212   -1.6338 O   0  0  0  0  0  0  0  0  0  0  0  0
  -21.7510   24.9764   -4.8623 C   0  0  0  0  0  0  0  0  0  0  0  0
  -21.7450   25.6204   -5.9896 C   0  0  0  0  0  0  0  0  0  0  0  0
  -23.9727   25.4623    0.0750 C   0  0  0  0  0  0  0  0  0  0  0  0
  -22.6905   25.6107    0.4472 C   0  0  0  0  0  0  0  0  0  0  0  0
  -20.6648   26.3711   -6.4158 C   0  0  0  0  0  0  0  0  0  0  0  0
  1  2  1  0
  2  3  2  0
  3  4  1  0
  2  5  1  0
  5  6  1  0
  1  7  1  0
  6  8  1  0
  8  9  2  3
  1 10  2  0
  4 11  2  0
 10 11  1  0
  9 12  1  0
M  END
>  <ID>  (1) 
conformer_0

$$$$
