
     RDKit          3D

 12 13  0  0  0  0  0  0  0  0999 V2000
  -24.0540   25.6625   -1.2813 C   0  0  0  0  0  0  0  0  0  0  0  0
  -23.1918   25.6647   -2.1993 C   0  0  0  0  0  0  0  0  0  0  0  0
  -23.7037   25.4313   -3.5423 C   0  0  0  0  0  0  0  0  0  0  0  0
  -22.7949   25.2715   -4.6033 C   0  0  0  0  0  0  0  0  0  0  0  0
  -23.1836   25.0953   -5.9260 N   0  0  0  0  0  0  0  0  0  0  0  0
  -21.4549   25.5671   -4.4287 C   0  0  0  0  0  0  0  0  0  0  0  0
  -21.7166   25.8734   -2.1942 C   0  0  0  0  0  0  0  0  0  0  0  0
  -23.7140   25.2156   -0.0369 O   0  0  0  0  0  0  0  0  0  0  0  0
  -25.0853   26.3532   -1.1861 O   0  0  0  0  0  0  0  0  0  0  0  0
  -20.9537   25.8327   -3.2288 N   0  0  0  0  0  0  0  0  0  0  0  0
  -20.7426   25.4950   -5.6882 C   0  0  0  0  0  0  0  0  0  0  0  0
  -21.9128   25.2204   -6.5705 C   0  0  0  0  0  0  0  0  0  0  0  0
  1  2  1  0
  2  3  2  0
  3  4  1  0
  4  5  1  0
  4  6  2  0
  2  7  1  0
  1  8  1  0
  1  9  2  0
  6 10  1  0
  7 10  2  0
  6 11  1  0
  5 12  2  0
 11 12  2  0
M  END
>  <ID>  (1) 
conformer_0

$$$$
