
     RDKit          3D

 11 11  0  0  0  0  0  0  0  0999 V2000
  -24.9275   26.2168   -0.8437 F   0  0  0  0  0  0  0  0  0  0  0  0
  -24.0207   25.3230   -1.1573 C   0  0  0  0  0  0  0  0  0  0  0  0
  -23.1447   25.1883   -0.2796 F   0  0  0  0  0  0  0  0  0  0  0  0
  -23.4557   25.8113   -2.4662 C   0  0  0  0  0  0  0  0  0  0  0  0
  -23.9586   25.7233   -3.5789 N   0  0  0  0  0  0  0  0  0  0  0  0
  -24.4954   24.1824   -1.3853 F   0  0  0  0  0  0  0  0  0  0  0  0
  -22.1787   26.3466   -2.3917 N   0  0  0  0  0  0  0  0  0  0  0  0
  -23.0448   25.9828   -4.5438 N   0  0  0  0  0  0  0  0  0  0  0  0
  -21.9783   26.3963   -3.8051 C   0  0  0  0  0  0  0  0  0  0  0  0
  -20.9088   26.5939   -4.4975 O   0  0  0  0  0  0  0  0  0  0  0  0
  -23.1478   25.6957   -5.9196 C   0  0  0  0  0  0  0  0  0  0  0  0
  1  2  1  0
  2  3  1  0
  2  4  1  0
  4  5  2  0
  2  6  1  0
  4  7  1  0
  5  8  1  0
  7  9  1  0
  8  9  1  0
  9 10  2  0
  8 11  1  0
M  END
>  <ID>  (1) 
conformer_0

$$$$
