
     RDKit          3D

 11 10  0  0  0  0  0  0  0  0999 V2000
  -24.9275   26.2168   -0.8437 F   0  0  0  0  0  0  0  0  0  0  0  0
  -23.8144   25.5238   -0.8630 C   0  0  0  0  0  0  0  0  0  0  0  0
  -23.0414   25.7754   -2.0024 C   0  0  0  0  0  0  0  0  0  0  0  0
  -23.5287   25.8912   -3.2458 N   0  0  0  0  0  0  0  0  0  0  0  0
  -22.7294   25.9510   -4.3664 C   0  0  0  0  0  0  0  0  0  0  0  0
  -21.3657   25.9395   -4.1511 O   0  0  0  0  0  0  0  0  0  0  0  0
  -23.2368   25.2847    0.2152 F   0  0  0  0  0  0  0  0  0  0  0  0
  -24.2456   24.1211   -1.1386 F   0  0  0  0  0  0  0  0  0  0  0  0
  -20.6156   25.2933   -5.1285 C   0  0  0  0  0  0  0  0  0  0  0  0
  -22.0784   26.7544   -1.7828 O   0  0  0  0  0  0  0  0  0  0  0  0
  -23.0412   25.8433   -5.4791 O   0  0  0  0  0  0  0  0  0  0  0  0
  1  2  1  0
  2  3  1  0
  3  4  1  0
  4  5  1  0
  5  6  1  0
  2  7  1  0
  2  8  1  0
  6  9  1  0
  3 10  2  0
  5 11  2  0
M  END
>  <ID>  (1) 
conformer_0

$$$$
