
     RDKit          3D

 12 12  0  0  0  0  0  0  0  0999 V2000
  -25.1210   25.7800   -0.9184 O   0  0  0  0  0  0  0  0  0  0  0  0
  -23.9509   25.4714   -0.7437 C   0  0  0  0  0  0  0  0  0  0  0  0
  -23.5250   25.0317    0.3500 O   0  0  0  0  0  0  0  0  0  0  0  0
  -23.0072   25.8539   -1.8380 C   0  0  0  0  0  0  0  0  0  0  0  0
  -23.3342   25.4691   -3.1631 C   0  0  0  0  0  0  0  0  0  0  0  0
  -22.3184   25.6903   -4.1308 C   0  0  0  0  0  0  0  0  0  0  0  0
  -22.5557   25.6191   -5.4613 C   0  0  0  0  0  0  0  0  0  0  0  0
  -20.9753   25.9331   -3.7800 O   0  0  0  0  0  0  0  0  0  0  0  0
  -24.2760   24.7127   -3.5396 C   0  0  0  0  0  0  0  0  0  0  0  0
  -23.8005   25.0723   -5.8189 C   0  0  0  0  0  0  0  0  0  0  0  0
  -24.6496   24.6191   -4.8497 C   0  0  0  0  0  0  0  0  0  0  0  0
  -21.5599   25.8788   -6.4798 C   0  0  0  0  0  0  0  0  0  0  0  0
  1  2  2  0
  2  3  1  0
  2  4  1  0
  4  5  1  0
  5  6  1  0
  6  7  2  0
  6  8  1  0
  5  9  2  0
  7 10  1  0
  9 11  1  0
 10 11  2  0
  7 12  1  0
M  END
>  <ID>  (1) 
conformer_0

$$$$
