
     RDKit          3D

 11 12  0  0  0  0  0  0  0  0999 V2000
  -21.4461   25.8573   -1.5401 O   0  0  0  0  0  0  0  0  0  0  0  0
  -22.5874   25.4659   -1.6448 C   0  0  0  0  0  0  0  0  0  0  0  0
  -23.2402   25.3924   -2.8613 C   0  0  0  0  0  0  0  0  0  0  0  0
  -23.5569   25.5959   -0.5655 N   0  0  0  0  0  0  0  0  0  0  0  0
  -22.4824   25.2301   -4.1172 C   0  0  0  0  0  0  0  0  0  0  0  0
  -24.8744   25.6036   -1.1695 C   0  0  0  0  0  0  0  0  0  0  0  0
  -24.8460   25.3967   -2.5352 C   0  0  0  0  0  0  0  0  0  0  0  0
  -23.1907   24.9896   -5.1690 N   0  0  0  0  0  0  0  0  0  0  0  0
  -22.4104   24.9939   -6.2948 N   0  0  0  0  0  0  0  0  0  0  0  0
  -21.2220   25.5708   -4.2771 C   0  0  0  0  0  0  0  0  0  0  0  0
  -21.1619   25.3889   -5.9041 C   0  0  0  0  0  0  0  0  0  0  0  0
  1  2  2  0
  2  3  1  0
  2  4  1  0
  3  5  1  0
  4  6  1  0
  3  7  2  0
  6  7  1  0
  5  8  2  0
  8  9  1  0
  5 10  1  0
  9 11  2  0
 10 11  1  0
M  END
>  <ID>  (1) 
conformer_0

$$$$
