
     RDKit          3D

 11 12  0  0  0  0  0  0  0  0999 V2000
  -21.4461   25.8573   -1.5401 O   0  0  0  0  0  0  0  0  0  0  0  0
  -22.5268   25.6783   -2.2118 C   0  0  0  0  0  0  0  0  0  0  0  0
  -22.4943   25.3572   -3.5512 C   0  0  0  0  0  0  0  0  0  0  0  0
  -23.4759   24.9998   -4.2846 C   0  0  0  0  0  0  0  0  0  0  0  0
  -21.2712   25.7754   -4.3574 C   0  0  0  0  0  0  0  0  0  0  0  0
  -24.6562   24.5039   -3.6278 C   0  0  0  0  0  0  0  0  0  0  0  0
  -21.3288   25.8156   -5.6576 C   0  0  0  0  0  0  0  0  0  0  0  0
  -23.7824   25.7225   -1.6091 C   0  0  0  0  0  0  0  0  0  0  0  0
  -23.3491   24.8267   -5.7364 C   0  0  0  0  0  0  0  0  0  0  0  0
  -22.2937   25.2381   -6.3483 C   0  0  0  0  0  0  0  0  0  0  0  0
  -24.7467   24.9134   -2.1679 C   0  0  0  0  0  0  0  0  0  0  0  0
  1  2  2  0
  2  3  1  0
  3  4  2  0
  3  5  1  0
  4  6  1  0
  5  7  2  0
  2  8  1  0
  4  9  1  0
  7 10  1  0
  9 10  2  0
  6 11  1  0
  8 11  1  0
M  END
>  <ID>  (1) 
conformer_0

$$$$
