
     RDKit          3D

 11 11  0  0  0  0  0  0  0  0999 V2000
  -24.3055   25.4392   -1.3018 C   0  0  0  0  0  0  0  0  0  0  0  0
  -23.4277   25.3945   -2.1671 C   0  0  0  0  0  0  0  0  0  0  0  0
  -25.2590   25.6581   -1.0523 O   0  0  0  0  0  0  0  0  0  0  0  0
  -21.9916   25.6940   -2.1195 C   0  0  0  0  0  0  0  0  0  0  0  0
  -23.7801   25.7709   -3.5521 C   0  0  0  0  0  0  0  0  0  0  0  0
  -21.4615   25.5597   -0.7480 O   0  0  0  0  0  0  0  0  0  0  0  0
  -21.2045   25.8663   -3.1291 C   0  0  0  0  0  0  0  0  0  0  0  0
  -21.7560   25.8390   -4.4442 C   0  0  0  0  0  0  0  0  0  0  0  0
  -23.0862   25.7529   -4.6068 C   0  0  0  0  0  0  0  0  0  0  0  0
  -20.9646   25.8761   -5.5816 O   0  0  0  0  0  0  0  0  0  0  0  0
  -23.7448   24.7378   -0.0546 O   0  0  0  0  0  0  0  0  0  0  0  0
  1  2  1  0
  1  3  2  0
  2  4  1  0
  2  5  2  0
  4  6  1  0
  4  7  2  0
  7  8  1  0
  5  9  1  0
  8  9  2  0
  8 10  1  0
  1 11  1  0
M  END
>  <ID>  (1) 
conformer_0

$$$$
