
     RDKit          3D

 11 11  0  0  0  0  0  0  0  0999 V2000
  -24.0540   25.6625   -1.2813 C   0  0  0  0  0  0  0  0  0  0  0  0
  -23.1918   25.6647   -2.1993 C   0  0  0  0  0  0  0  0  0  0  0  0
  -21.8276   25.7766   -2.1235 C   0  0  0  0  0  0  0  0  0  0  0  0
  -21.2809   25.5998   -0.8182 C   0  0  0  0  0  0  0  0  0  0  0  0
  -23.7758   25.7783   -3.5697 O   0  0  0  0  0  0  0  0  0  0  0  0
  -23.0502   25.2658   -4.6644 C   0  0  0  0  0  0  0  0  0  0  0  0
  -19.9504   25.5982   -0.6314 O   0  0  0  0  0  0  0  0  0  0  0  0
  -22.1914   25.4171    0.1342 C   0  0  0  0  0  0  0  0  0  0  0  0
  -23.6152   25.3801    0.0082 C   0  0  0  0  0  0  0  0  0  0  0  0
  -22.0276   26.0397   -5.1384 O   0  0  0  0  0  0  0  0  0  0  0  0
  -20.7693   25.5928   -5.5245 C   0  0  0  0  0  0  0  0  0  0  0  0
  1  2  1  0
  2  3  2  0
  3  4  1  0
  2  5  1  0
  5  6  1  0
  4  7  1  0
  4  8  2  0
  1  9  2  0
  8  9  1  0
  6 10  1  0
 10 11  1  0
M  END
>  <ID>  (1) 
conformer_0

$$$$
