
     RDKit          3D

 10 10  0  0  0  0  0  0  0  0999 V2000
  -21.1378   25.9487   -3.2888 O   0  0  0  0  0  0  0  0  0  0  0  0
  -21.6295   25.5241   -4.2755 C   0  0  0  0  0  0  0  0  0  0  0  0
  -23.0182   25.2051   -4.1517 C   0  0  0  0  0  0  0  0  0  0  0  0
  -23.6746   25.2966   -2.8800 C   0  0  0  0  0  0  0  0  0  0  0  0
  -23.2240   25.9328   -1.8992 C   0  0  0  0  0  0  0  0  0  0  0  0
  -21.7238   26.2875   -2.1296 C   0  0  0  0  0  0  0  0  0  0  0  0
  -20.9221   25.3447   -5.5293 C   0  0  0  0  0  0  0  0  0  0  0  0
  -21.5602   25.2605   -6.5882 O   0  0  0  0  0  0  0  0  0  0  0  0
  -23.9523   26.1857   -0.7967 O   0  0  0  0  0  0  0  0  0  0  0  0
  -19.6929   25.3830   -5.4471 O   0  0  0  0  0  0  0  0  0  0  0  0
  1  2  1  0
  2  3  2  0
  3  4  1  0
  4  5  2  0
  1  6  1  0
  5  6  1  0
  2  7  1  0
  7  8  2  0
  5  9  1  0
  7 10  1  0
M  END
>  <ID>  (1) 
conformer_0

$$$$
