
     RDKit          3D

 10 10  0  0  0  0  0  0  0  0999 V2000
  -20.7149   25.8166   -4.7427 C   0  0  0  0  0  0  0  0  0  0  0  0
  -21.1376   25.3781   -3.6820 C   0  0  0  0  0  0  0  0  0  0  0  0
  -22.4525   25.2675   -3.3664 C   0  0  0  0  0  0  0  0  0  0  0  0
  -23.3917   25.3613   -4.2983 C   0  0  0  0  0  0  0  0  0  0  0  0
  -22.8757   25.1103   -1.9211 C   0  0  0  0  0  0  0  0  0  0  0  0
  -19.3762   25.9016   -5.1692 O   0  0  0  0  0  0  0  0  0  0  0  0
  -23.9155   25.8675   -1.4715 C   0  0  0  0  0  0  0  0  0  0  0  0
  -22.9983   25.6729   -5.6572 C   0  0  0  0  0  0  0  0  0  0  0  0
  -21.6524   25.8513   -5.9222 C   0  0  0  0  0  0  0  0  0  0  0  0
  -24.6856   25.6977   -0.6885 O   0  0  0  0  0  0  0  0  0  0  0  0
  1  2  2  0
  2  3  1  0
  3  4  2  0
  3  5  1  0
  1  6  1  0
  5  7  1  0
  4  8  1  0
  1  9  1  0
  8  9  2  0
  7 10  2  0
M  END
>  <ID>  (1) 
conformer_0

$$$$
