
     RDKit          3D

 12 12  0  0  0  0  0  0  0  0999 V2000
  -24.0540   25.6625   -1.2813 C   0  0  0  0  0  0  0  0  0  0  0  0
  -23.1918   25.6647   -2.1993 C   0  0  0  0  0  0  0  0  0  0  0  0
  -23.7037   25.4313   -3.5423 C   0  0  0  0  0  0  0  0  0  0  0  0
  -25.0032   25.0873   -3.6632 O   0  0  0  0  0  0  0  0  0  0  0  0
  -25.1488   26.0804   -1.1263 O   0  0  0  0  0  0  0  0  0  0  0  0
  -21.8169   25.9443   -2.3497 C   0  0  0  0  0  0  0  0  0  0  0  0
  -21.2251   26.1479   -1.1101 O   0  0  0  0  0  0  0  0  0  0  0  0
  -21.0440   25.9082   -3.4388 C   0  0  0  0  0  0  0  0  0  0  0  0
  -22.9728   25.3662   -4.7409 C   0  0  0  0  0  0  0  0  0  0  0  0
  -21.5834   25.6293   -4.6929 C   0  0  0  0  0  0  0  0  0  0  0  0
  -20.8027   25.6796   -5.8146 O   0  0  0  0  0  0  0  0  0  0  0  0
  -23.5029   25.3156   -0.0170 O   0  0  0  0  0  0  0  0  0  0  0  0
  1  2  1  0
  2  3  2  0
  3  4  1  0
  1  5  2  0
  2  6  1  0
  6  7  1  0
  6  8  2  0
  3  9  1  0
  8 10  1  0
  9 10  2  0
 10 11  1  0
  1 12  1  0
M  END
>  <ID>  (1) 
conformer_0

$$$$
