
     RDKit          3D

 10 10  0  0  0  0  0  0  0  0999 V2000
  -24.9772   25.9937   -0.8344 O   0  0  0  0  0  0  0  0  0  0  0  0
  -23.8825   25.5220   -0.8035 C   0  0  0  0  0  0  0  0  0  0  0  0
  -23.0185   25.7997   -2.0059 C   0  0  0  0  0  0  0  0  0  0  0  0
  -23.4736   25.4215   -3.3001 C   0  0  0  0  0  0  0  0  0  0  0  0
  -22.5869   25.6708   -4.3659 C   0  0  0  0  0  0  0  0  0  0  0  0
  -21.2758   25.8061   -4.1576 C   0  0  0  0  0  0  0  0  0  0  0  0
  -20.4643   25.9385   -5.3778 C   0  0  0  0  0  0  0  0  0  0  0  0
  -23.4129   24.8345    0.1764 O   0  0  0  0  0  0  0  0  0  0  0  0
  -21.4504   25.8122   -6.4918 C   0  0  0  0  0  0  0  0  0  0  0  0
  -22.7174   25.6177   -5.8135 N   0  0  0  0  0  0  0  0  0  0  0  0
  1  2  2  0
  2  3  1  0
  3  4  1  0
  4  5  1  0
  5  6  1  0
  6  7  2  0
  2  8  1  0
  7  9  1  0
  5 10  2  0
  9 10  1  0
M  END
>  <ID>  (1) 
conformer_0

$$$$
