
     RDKit          3D

 11 11  0  0  0  0  0  0  0  0999 V2000
  -24.9275   26.2168   -0.8437 F   0  0  0  0  0  0  0  0  0  0  0  0
  -24.0207   25.3230   -1.1573 C   0  0  0  0  0  0  0  0  0  0  0  0
  -23.4843   25.4461   -2.3258 C   0  0  0  0  0  0  0  0  0  0  0  0
  -22.2230   24.7448   -2.6316 C   0  0  0  0  0  0  0  0  0  0  0  0
  -21.5868   24.9253   -3.9281 C   0  0  0  0  0  0  0  0  0  0  0  0
  -21.4094   24.2604   -1.6545 C   0  0  0  0  0  0  0  0  0  0  0  0
  -20.4521   25.3419   -4.0981 O   0  0  0  0  0  0  0  0  0  0  0  0
  -22.0253   24.2230   -0.3048 C   0  0  0  0  0  0  0  0  0  0  0  0
  -22.2975   24.6371   -5.0395 N   0  0  0  0  0  0  0  0  0  0  0  0
  -23.1428   25.0238   -0.0850 C   0  0  0  0  0  0  0  0  0  0  0  0
  -22.0951   25.0342   -6.2281 C   0  0  0  0  0  0  0  0  0  0  0  0
  1  2  1  0
  2  3  1  0
  3  4  2  0
  4  5  1  0
  4  6  1  0
  5  7  2  0
  6  8  2  0
  5  9  1  0
  2 10  2  0
  8 10  1  0
  9 11  1  0
M  END
>  <ID>  (1) 
conformer_0

$$$$
