
     RDKit          3D

 11 11  0  0  0  0  0  0  0  0999 V2000
  -21.1378   25.9487   -3.2888 O   0  0  0  0  0  0  0  0  0  0  0  0
  -21.6295   25.5241   -4.2755 C   0  0  0  0  0  0  0  0  0  0  0  0
  -23.0182   25.2051   -4.1517 C   0  0  0  0  0  0  0  0  0  0  0  0
  -21.2099   25.6273   -5.6452 C   0  0  0  0  0  0  0  0  0  0  0  0
  -21.9991   25.1897   -6.6471 C   0  0  0  0  0  0  0  0  0  0  0  0
  -19.9127   26.0997   -5.8893 O   0  0  0  0  0  0  0  0  0  0  0  0
  -23.7807   24.8265   -5.3433 C   0  0  0  0  0  0  0  0  0  0  0  0
  -23.2558   24.7528   -6.5197 C   0  0  0  0  0  0  0  0  0  0  0  0
  -23.6599   25.1549   -2.8368 C   0  0  0  0  0  0  0  0  0  0  0  0
  -23.9020   26.1379   -2.1304 N   0  0  0  0  0  0  0  0  0  0  0  0
  -24.4986   25.7867   -0.9212 O   0  0  0  0  0  0  0  0  0  0  0  0
  1  2  1  0
  2  3  2  0
  2  4  1  0
  4  5  2  0
  4  6  1  0
  3  7  1  0
  5  8  1  0
  7  8  2  0
  3  9  1  0
  9 10  2  3
 10 11  1  0
M  END
>  <ID>  (1) 
conformer_0

$$$$
