
     RDKit          3D

 10 10  0  0  0  0  0  0  0  0999 V2000
  -20.7149   25.8166   -4.7427 C   0  0  0  0  0  0  0  0  0  0  0  0
  -21.9570   25.5275   -4.8834 C   0  0  0  0  0  0  0  0  0  0  0  0
  -20.0132   25.3864   -3.7762 O   0  0  0  0  0  0  0  0  0  0  0  0
  -22.7407   25.2652   -3.6314 N   0  0  0  0  0  0  0  0  0  0  0  0
  -20.1704   26.4774   -5.7868 O   0  0  0  0  0  0  0  0  0  0  0  0
  -23.2627   24.1384   -3.4471 C   0  0  0  0  0  0  0  0  0  0  0  0
  -22.7626   26.1814   -2.6261 C   0  0  0  0  0  0  0  0  0  0  0  0
  -23.6924   25.4914   -1.6436 C   0  0  0  0  0  0  0  0  0  0  0  0
  -24.0667   25.9341   -0.3441 C   0  0  0  0  0  0  0  0  0  0  0  0
  -23.9492   24.0809   -2.0998 N   0  0  0  0  0  0  0  0  0  0  0  0
  1  2  1  0
  1  3  2  0
  2  4  1  0
  1  5  1  0
  4  6  1  0
  4  7  1  0
  7  8  2  0
  8  9  1  0
  6 10  2  0
  8 10  1  0
M  END
>  <ID>  (1) 
conformer_0

$$$$
