
     RDKit          3D

 11 11  0  0  0  0  0  0  0  0999 V2000
  -24.0540   25.6625   -1.2813 C   0  0  0  0  0  0  0  0  0  0  0  0
  -23.1918   25.6647   -2.1993 C   0  0  0  0  0  0  0  0  0  0  0  0
  -23.7037   25.4313   -3.5423 C   0  0  0  0  0  0  0  0  0  0  0  0
  -25.0032   25.0873   -3.6632 C   0  0  0  0  0  0  0  0  0  0  0  0
  -25.7963   25.0225   -2.5367 C   0  0  0  0  0  0  0  0  0  0  0  0
  -22.8984   25.4702   -4.7174 C   0  0  0  0  0  0  0  0  0  0  0  0
  -23.4912   26.0037    0.0544 F   0  0  0  0  0  0  0  0  0  0  0  0
  -23.3342   25.3380   -5.9021 O   0  0  0  0  0  0  0  0  0  0  0  0
  -25.2739   25.3104   -1.2663 C   0  0  0  0  0  0  0  0  0  0  0  0
  -21.8105   26.0384   -2.1284 O   0  0  0  0  0  0  0  0  0  0  0  0
  -21.6119   25.8930   -4.6790 O   0  0  0  0  0  0  0  0  0  0  0  0
  1  2  1  0
  2  3  2  0
  3  4  1  0
  4  5  2  0
  3  6  1  0
  1  7  1  0
  6  8  2  0
  1  9  2  0
  5  9  1  0
  2 10  1  0
  6 11  1  0
M  END
>  <ID>  (1) 
conformer_0

$$$$
