
     RDKit          3D

 11 11  0  0  0  0  0  0  0  0999 V2000
  -25.1210   25.7800   -0.9184 O   0  0  0  0  0  0  0  0  0  0  0  0
  -23.9509   25.4714   -0.7437 C   0  0  0  0  0  0  0  0  0  0  0  0
  -23.0001   25.7149   -1.7999 C   0  0  0  0  0  0  0  0  0  0  0  0
  -23.3033   25.5345   -3.0963 C   0  0  0  0  0  0  0  0  0  0  0  0
  -24.5402   25.1234   -3.4297 O   0  0  0  0  0  0  0  0  0  0  0  0
  -21.6338   25.8396   -1.6187 O   0  0  0  0  0  0  0  0  0  0  0  0
  -22.3215   25.6035   -4.0919 C   0  0  0  0  0  0  0  0  0  0  0  0
  -23.6368   24.7861    0.3245 O   0  0  0  0  0  0  0  0  0  0  0  0
  -21.0711   25.5628   -3.8196 C   0  0  0  0  0  0  0  0  0  0  0  0
  -22.6188   25.7316   -5.3653 O   0  0  0  0  0  0  0  0  0  0  0  0
  -20.8242   25.7310   -2.4308 C   0  0  0  0  0  0  0  0  0  0  0  0
  1  2  2  0
  2  3  1  0
  3  4  2  0
  4  5  1  0
  3  6  1  0
  4  7  1  0
  2  8  1  0
  7  9  1  0
  7 10  2  0
  6 11  1  0
  9 11  2  0
M  END
>  <ID>  (1) 
conformer_0

$$$$
