
     RDKit          3D

 12 12  0  0  0  0  0  0  0  0999 V2000
  -24.0305   25.8630   -1.1674 C   0  0  0  0  0  0  0  0  0  0  0  0
  -23.0876   25.6784   -2.0719 C   0  0  0  0  0  0  0  0  0  0  0  0
  -21.7011   25.7839   -1.8743 C   0  0  0  0  0  0  0  0  0  0  0  0
  -23.4970   25.2676   -3.3417 C   0  0  0  0  0  0  0  0  0  0  0  0
  -24.7081   25.1905   -3.6542 O   0  0  0  0  0  0  0  0  0  0  0  0
  -23.9391   25.5490   -0.0820 O   0  0  0  0  0  0  0  0  0  0  0  0
  -22.5668   25.0813   -4.4553 C   0  0  0  0  0  0  0  0  0  0  0  0
  -22.9083   24.8196   -5.6766 C   0  0  0  0  0  0  0  0  0  0  0  0
  -23.6126   23.9960   -5.9671 O   0  0  0  0  0  0  0  0  0  0  0  0
  -22.3790   25.6538   -6.6210 O   0  0  0  0  0  0  0  0  0  0  0  0
  -21.1623   25.3418   -3.9948 C   0  0  0  0  0  0  0  0  0  0  0  0
  -20.7642   25.6050   -2.7984 N   0  0  0  0  0  0  0  0  0  0  0  0
  1  2  1  0
  2  3  1  0
  2  4  2  0
  4  5  1  0
  1  6  2  0
  4  7  1  0
  7  8  1  0
  8  9  2  0
  8 10  1  0
  7 11  2  0
  3 12  2  0
 11 12  1  0
M  END
>  <ID>  (1) 
conformer_0

$$$$
