
     RDKit          3D

 10 10  0  0  0  0  0  0  0  0999 V2000
  -25.1210   25.7800   -0.9184 O   0  0  0  0  0  0  0  0  0  0  0  0
  -23.9509   25.4714   -0.7437 C   0  0  0  0  0  0  0  0  0  0  0  0
  -23.0610   25.6866   -1.8764 C   0  0  0  0  0  0  0  0  0  0  0  0
  -21.7437   25.9278   -1.7444 C   0  0  0  0  0  0  0  0  0  0  0  0
  -23.5908   24.9140    0.3212 O   0  0  0  0  0  0  0  0  0  0  0  0
  -23.6582   25.8011   -3.1493 C   0  0  0  0  0  0  0  0  0  0  0  0
  -22.8160   25.8332   -4.2726 C   0  0  0  0  0  0  0  0  0  0  0  0
  -20.8936   25.9823   -2.8013 C   0  0  0  0  0  0  0  0  0  0  0  0
  -21.4262   25.9172   -4.0752 C   0  0  0  0  0  0  0  0  0  0  0  0
  -20.6843   25.8556   -5.1816 O   0  0  0  0  0  0  0  0  0  0  0  0
  1  2  1  0
  2  3  1  0
  3  4  2  0
  2  5  2  0
  3  6  1  0
  6  7  2  0
  4  8  1  0
  7  9  1  0
  8  9  2  0
  9 10  1  0
M  END
>  <ID>  (1) 
conformer_0

$$$$
