
     RDKit          3D

 10 10  0  0  0  0  0  0  0  0999 V2000
  -21.4461   25.8573   -1.5401 O   0  0  0  0  0  0  0  0  0  0  0  0
  -22.5268   25.6783   -2.2118 C   0  0  0  0  0  0  0  0  0  0  0  0
  -22.5087   25.4879   -3.4923 C   0  0  0  0  0  0  0  0  0  0  0  0
  -23.7979   25.9098   -1.5958 N   0  0  0  0  0  0  0  0  0  0  0  0
  -23.6003   25.0955   -4.2250 C   0  0  0  0  0  0  0  0  0  0  0  0
  -24.9590   25.5578   -2.0846 C   0  0  0  0  0  0  0  0  0  0  0  0
  -24.8834   25.0764   -3.5096 N   0  0  0  0  0  0  0  0  0  0  0  0
  -21.2505   25.4338   -4.3020 C   0  0  0  0  0  0  0  0  0  0  0  0
  -20.1867   25.2928   -3.7534 O   0  0  0  0  0  0  0  0  0  0  0  0
  -21.3270   25.5989   -5.6142 O   0  0  0  0  0  0  0  0  0  0  0  0
  1  2  2  0
  2  3  1  0
  2  4  1  0
  3  5  2  0
  4  6  1  0
  5  7  1  0
  6  7  2  0
  3  8  1  0
  8  9  1  0
  8 10  2  0
M  END
>  <ID>  (1) 
conformer_0

$$$$
