
     RDKit          3D

  9  8  0  0  0  0  0  0  0  0999 V2000
  -21.4461   25.8573   -1.5401 O   0  0  0  0  0  0  0  0  0  0  0  0
  -22.5874   25.4659   -1.6448 C   0  0  0  0  0  0  0  0  0  0  0  0
  -23.0972   24.5426   -2.4269 N   0  0  0  0  0  0  0  0  0  0  0  0
  -22.0504   23.8063   -3.2764 C   0  0  0  0  0  0  0  0  0  0  0  0
  -21.3102   24.7586   -4.0823 C   0  0  0  0  0  0  0  0  0  0  0  0
  -21.9320   25.4610   -5.1780 C   0  0  0  0  0  0  0  0  0  0  0  0
  -23.1295   25.2772   -5.3455 O   0  0  0  0  0  0  0  0  0  0  0  0
  -23.7553   26.2513   -1.0531 C   0  0  0  0  0  0  0  0  0  0  0  0
  -21.3435   26.1966   -5.9888 O   0  0  0  0  0  0  0  0  0  0  0  0
  1  2  2  0
  2  3  1  0
  3  4  1  0
  4  5  1  0
  5  6  1  0
  6  7  1  0
  2  8  1  0
  6  9  2  0
M  END
>  <ID>  (1) 
conformer_0

$$$$
