
     RDKit          3D

 10 10  0  0  0  0  0  0  0  0999 V2000
  -24.0305   25.8630   -1.1674 C   0  0  0  0  0  0  0  0  0  0  0  0
  -23.0876   25.6784   -2.0719 C   0  0  0  0  0  0  0  0  0  0  0  0
  -21.7011   25.7839   -1.8743 C   0  0  0  0  0  0  0  0  0  0  0  0
  -20.9789   25.0782   -2.7109 C   0  0  0  0  0  0  0  0  0  0  0  0
  -23.8166   25.8245    0.0309 O   0  0  0  0  0  0  0  0  0  0  0  0
  -23.2575   25.0288   -3.3344 C   0  0  0  0  0  0  0  0  0  0  0  0
  -25.2181   26.1679   -1.5448 O   0  0  0  0  0  0  0  0  0  0  0  0
  -24.6464   24.8883   -3.8538 O   0  0  0  0  0  0  0  0  0  0  0  0
  -22.3945   24.6548   -4.2928 C   0  0  0  0  0  0  0  0  0  0  0  0
  -21.1915   24.7171   -3.9431 C   0  0  0  0  0  0  0  0  0  0  0  0
  1  2  1  0
  2  3  1  0
  3  4  2  0
  1  5  2  0
  2  6  2  0
  1  7  1  0
  6  8  1  0
  6  9  1  0
  4 10  1  0
  9 10  2  0
M  END
>  <ID>  (1) 
conformer_0

$$$$
