
     RDKit          3D

 11 11  0  0  0  0  0  0  0  0999 V2000
  -21.4461   25.8573   -1.5401 O   0  0  0  0  0  0  0  0  0  0  0  0
  -22.5268   25.6783   -2.2118 C   0  0  0  0  0  0  0  0  0  0  0  0
  -22.5087   25.4879   -3.4923 C   0  0  0  0  0  0  0  0  0  0  0  0
  -23.5274   25.0876   -4.2085 C   0  0  0  0  0  0  0  0  0  0  0  0
  -21.3671   25.9199   -4.3389 C   0  0  0  0  0  0  0  0  0  0  0  0
  -23.7699   26.0106   -1.5816 N   0  0  0  0  0  0  0  0  0  0  0  0
  -23.4437   24.7509   -5.6307 C   0  0  0  0  0  0  0  0  0  0  0  0
  -24.5220   24.1973   -6.2471 O   0  0  0  0  0  0  0  0  0  0  0  0
  -21.1988   25.6716   -5.6652 C   0  0  0  0  0  0  0  0  0  0  0  0
  -22.3103   25.0953   -6.3839 C   0  0  0  0  0  0  0  0  0  0  0  0
  -24.1795   25.6341   -0.5368 O   0  0  0  0  0  0  0  0  0  0  0  0
  1  2  2  0
  2  3  1  0
  3  4  2  0
  3  5  1  0
  2  6  1  0
  4  7  1  0
  7  8  1  0
  5  9  2  0
  7 10  2  0
  9 10  1  0
  6 11  1  0
M  END
>  <ID>  (1) 
conformer_0

$$$$
