
     RDKit          3D

 11 11  0  0  0  0  0  0  0  0999 V2000
  -21.4461   25.8573   -1.5401 O   0  0  0  0  0  0  0  0  0  0  0  0
  -22.5268   25.6783   -2.2118 C   0  0  0  0  0  0  0  0  0  0  0  0
  -22.5087   25.4879   -3.4923 C   0  0  0  0  0  0  0  0  0  0  0  0
  -23.7932   25.6973   -1.5401 N   0  0  0  0  0  0  0  0  0  0  0  0
  -23.6055   25.1558   -4.2333 C   0  0  0  0  0  0  0  0  0  0  0  0
  -24.9409   25.4653   -2.1491 C   0  0  0  0  0  0  0  0  0  0  0  0
  -21.2641   25.5571   -4.2775 C   0  0  0  0  0  0  0  0  0  0  0  0
  -24.8673   25.0210   -3.5168 C   0  0  0  0  0  0  0  0  0  0  0  0
  -21.2504   25.8506   -5.5276 O   0  0  0  0  0  0  0  0  0  0  0  0
  -20.1753   25.4512   -3.6785 O   0  0  0  0  0  0  0  0  0  0  0  0
  -23.9097   25.9223   -0.0879 C   0  0  0  0  0  0  0  0  0  0  0  0
  1  2  2  0
  2  3  1  0
  2  4  1  0
  3  5  2  0
  4  6  1  0
  3  7  1  0
  5  8  1  0
  6  8  2  0
  7  9  2  0
  7 10  1  0
  4 11  1  0
M  END
>  <ID>  (1) 
conformer_0

$$$$
