
     RDKit          3D

 10  9  0  0  0  0  0  0  0  0999 V2000
  -21.4461   25.8573   -1.5401 O   0  0  0  0  0  0  0  0  0  0  0  0
  -22.5268   25.6783   -2.2118 C   0  0  0  0  0  0  0  0  0  0  0  0
  -22.4943   25.3572   -3.5512 C   0  0  0  0  0  0  0  0  0  0  0  0
  -21.1991   25.6525   -4.2616 C   0  0  0  0  0  0  0  0  0  0  0  0
  -23.0484   24.1261   -3.8286 C   0  0  0  0  0  0  0  0  0  0  0  0
  -23.7052   26.1370   -1.6090 N   0  0  0  0  0  0  0  0  0  0  0  0
  -21.2402   25.9665   -5.6152 C   0  0  0  0  0  0  0  0  0  0  0  0
  -22.3638   25.7383   -6.2286 O   0  0  0  0  0  0  0  0  0  0  0  0
  -24.0677   26.0539   -0.3802 O   0  0  0  0  0  0  0  0  0  0  0  0
  -20.1375   26.2266   -6.2089 O   0  0  0  0  0  0  0  0  0  0  0  0
  1  2  2  0
  2  3  1  0
  3  4  1  0
  3  5  1  0
  2  6  1  0
  4  7  1  0
  7  8  2  0
  6  9  2  0
  7 10  1  0
M  END
>  <ID>  (1) 
conformer_0

$$$$
