
     RDKit          3D

  8  7  0  0  0  0  0  0  0  0999 V2000
  -25.0173   25.8318   -1.0300 O   0  0  0  0  0  0  0  0  0  0  0  0
  -23.8652   25.4460   -0.8010 C   0  0  0  0  0  0  0  0  0  0  0  0
  -22.8587   25.6762   -1.8990 C   0  0  0  0  0  0  0  0  0  0  0  0
  -23.1885   25.4834   -3.1817 C   0  0  0  0  0  0  0  0  0  0  0  0
  -22.2535   25.5246   -4.1734 C   0  0  0  0  0  0  0  0  0  0  0  0
  -20.9341   25.5847   -3.8861 O   0  0  0  0  0  0  0  0  0  0  0  0
  -23.5137   24.7370    0.2524 O   0  0  0  0  0  0  0  0  0  0  0  0
  -22.6422   25.4388   -5.4410 O   0  0  0  0  0  0  0  0  0  0  0  0
  1  2  2  0
  2  3  1  0
  3  4  2  3
  4  5  1  0
  5  6  2  0
  2  7  1  0
  5  8  1  0
M  END
>  <ID>  (1) 
conformer_0

$$$$
