
     RDKit          3D

 11 11  0  0  0  0  0  0  0  0999 V2000
  -24.0540   25.6625   -1.2813 C   0  0  0  0  0  0  0  0  0  0  0  0
  -23.1918   25.6647   -2.1993 C   0  0  0  0  0  0  0  0  0  0  0  0
  -23.7037   25.4313   -3.5423 C   0  0  0  0  0  0  0  0  0  0  0  0
  -25.0032   25.0873   -3.6632 C   0  0  0  0  0  0  0  0  0  0  0  0
  -23.4406   25.9720    0.0496 O   0  0  0  0  0  0  0  0  0  0  0  0
  -25.4525   24.6711   -4.9294 O   0  0  0  0  0  0  0  0  0  0  0  0
  -25.6174   24.8995   -2.5313 C   0  0  0  0  0  0  0  0  0  0  0  0
  -22.9624   25.5063   -4.7563 C   0  0  0  0  0  0  0  0  0  0  0  0
  -21.5147   25.6856   -4.6821 N   0  0  0  0  0  0  0  0  0  0  0  0
  -20.7599   25.5115   -5.6501 O   0  0  0  0  0  0  0  0  0  0  0  0
  -25.2640   25.2196   -1.3311 C   0  0  0  0  0  0  0  0  0  0  0  0
  1  2  1  0
  2  3  2  0
  3  4  1  0
  1  5  1  0
  4  6  1  0
  4  7  2  0
  3  8  1  0
  8  9  1  0
  9 10  1  0
  1 11  2  0
  7 11  1  0
M  END
>  <ID>  (1) 
conformer_0

$$$$
