
     RDKit          3D

 12 12  0  0  0  0  0  0  0  0999 V2000
  -24.3055   25.4392   -1.3018 C   0  0  0  0  0  0  0  0  0  0  0  0
  -23.4277   25.3945   -2.1671 C   0  0  0  0  0  0  0  0  0  0  0  0
  -22.0259   25.7495   -1.8998 C   0  0  0  0  0  0  0  0  0  0  0  0
  -23.6421   25.0955   -3.5849 C   0  0  0  0  0  0  0  0  0  0  0  0
  -24.6388   24.6890   -3.9218 O   0  0  0  0  0  0  0  0  0  0  0  0
  -22.8160   25.4548   -4.6113 N   0  0  0  0  0  0  0  0  0  0  0  0
  -25.5613   25.6841   -1.5025 O   0  0  0  0  0  0  0  0  0  0  0  0
  -21.5538   25.9336   -4.4548 C   0  0  0  0  0  0  0  0  0  0  0  0
  -23.3209   25.3018   -5.9023 C   0  0  0  0  0  0  0  0  0  0  0  0
  -21.1405   26.0427   -3.0179 C   0  0  0  0  0  0  0  0  0  0  0  0
  -20.6029   25.4448   -5.2868 O   0  0  0  0  0  0  0  0  0  0  0  0
  -24.0970   25.4094    0.0196 O   0  0  0  0  0  0  0  0  0  0  0  0
  1  2  1  0
  2  3  2  0
  2  4  1  0
  4  5  2  0
  4  6  1  0
  1  7  1  0
  6  8  1  0
  6  9  1  0
  3 10  1  0
  8 10  1  0
  8 11  1  0
  1 12  2  0
M  END
>  <ID>  (1) 
conformer_0

$$$$
