
     RDKit          3D

  9  9  0  0  0  0  0  0  0  0999 V2000
  -21.1378   25.9487   -3.2888 O   0  0  0  0  0  0  0  0  0  0  0  0
  -22.1148   25.4740   -3.5738 C   0  0  0  0  0  0  0  0  0  0  0  0
  -23.1757   25.5810   -2.6853 C   0  0  0  0  0  0  0  0  0  0  0  0
  -23.0751   26.2694   -1.4550 C   0  0  0  0  0  0  0  0  0  0  0  0
  -24.3334   26.0721   -0.5816 C   0  0  0  0  0  0  0  0  0  0  0  0
  -22.2696   25.1893   -4.9238 O   0  0  0  0  0  0  0  0  0  0  0  0
  -25.3670   25.4458   -0.9741 C   0  0  0  0  0  0  0  0  0  0  0  0
  -25.4043   24.8296   -2.0988 C   0  0  0  0  0  0  0  0  0  0  0  0
  -24.3171   24.8746   -3.0141 C   0  0  0  0  0  0  0  0  0  0  0  0
  1  2  1  0
  2  3  1  0
  3  4  1  0
  4  5  2  0
  2  6  2  0
  5  7  1  0
  7  8  2  0
  3  9  2  0
  8  9  1  0
M  END
>  <ID>  (1) 
conformer_0

$$$$
