
     RDKit          3D

 12 13  0  0  0  0  0  0  0  0999 V2000
  -24.0540   25.6625   -1.2813 C   0  0  0  0  0  0  0  0  0  0  0  0
  -23.1918   25.6647   -2.1993 C   0  0  0  0  0  0  0  0  0  0  0  0
  -23.7037   25.4313   -3.5423 C   0  0  0  0  0  0  0  0  0  0  0  0
  -22.7949   25.2715   -4.6033 C   0  0  0  0  0  0  0  0  0  0  0  0
  -23.1836   25.0953   -5.9260 N   0  0  0  0  0  0  0  0  0  0  0  0
  -21.8292   26.0729   -2.2664 C   0  0  0  0  0  0  0  0  0  0  0  0
  -21.4958   25.7151   -4.4969 C   0  0  0  0  0  0  0  0  0  0  0  0
  -20.9931   26.0219   -3.2468 N   0  0  0  0  0  0  0  0  0  0  0  0
  -24.4518   25.4795   -0.3151 N   0  0  0  0  0  0  0  0  0  0  0  0
  -20.7752   25.6292   -5.7737 C   0  0  0  0  0  0  0  0  0  0  0  0
  -19.6270   25.8380   -6.1382 O   0  0  0  0  0  0  0  0  0  0  0  0
  -21.9422   25.2906   -6.6955 C   0  0  0  0  0  0  0  0  0  0  0  0
  1  2  1  0
  2  3  2  0
  3  4  1  0
  4  5  1  0
  2  6  1  0
  4  7  2  0
  6  8  2  0
  7  8  1  0
  1  9  3  0
  7 10  1  0
 10 11  2  0
  5 12  2  0
 10 12  1  0
M  END
>  <ID>  (1) 
conformer_0

$$$$
