
     RDKit          3D

 11 11  0  0  0  0  0  0  0  0999 V2000
  -25.0173   25.8318   -1.0300 O   0  0  0  0  0  0  0  0  0  0  0  0
  -23.8652   25.4460   -0.8010 C   0  0  0  0  0  0  0  0  0  0  0  0
  -22.8587   25.6762   -1.8990 C   0  0  0  0  0  0  0  0  0  0  0  0
  -21.5487   25.8685   -1.5613 C   0  0  0  0  0  0  0  0  0  0  0  0
  -20.6853   25.9376   -2.6255 N   0  0  0  0  0  0  0  0  0  0  0  0
  -23.5628   25.0805    0.3767 O   0  0  0  0  0  0  0  0  0  0  0  0
  -21.6267   25.7220   -3.6768 C   0  0  0  0  0  0  0  0  0  0  0  0
  -23.0903   25.6657   -3.3825 C   0  0  0  0  0  0  0  0  0  0  0  0
  -21.2048   25.7445   -5.1254 C   0  0  0  0  0  0  0  0  0  0  0  0
  -19.9635   25.9644   -5.3446 O   0  0  0  0  0  0  0  0  0  0  0  0
  -21.9710   25.4955   -6.0363 O   0  0  0  0  0  0  0  0  0  0  0  0
  1  2  2  0
  2  3  1  0
  3  4  2  0
  4  5  1  0
  2  6  1  0
  5  7  2  0
  3  8  1  0
  7  8  1  0
  7  9  1  0
  9 10  1  0
  9 11  2  0
M  END
>  <ID>  (1) 
conformer_0

$$$$
