
     RDKit          3D

 10  9  0  0  0  0  0  0  0  0999 V2000
  -21.4461   25.8573   -1.5401 O   0  0  0  0  0  0  0  0  0  0  0  0
  -22.5268   25.6783   -2.2118 C   0  0  0  0  0  0  0  0  0  0  0  0
  -22.5087   25.4879   -3.4923 C   0  0  0  0  0  0  0  0  0  0  0  0
  -21.2206   25.6886   -4.1964 C   0  0  0  0  0  0  0  0  0  0  0  0
  -21.0825   25.2314   -5.4959 C   0  0  0  0  0  0  0  0  0  0  0  0
  -22.0643   24.8137   -6.0194 O   0  0  0  0  0  0  0  0  0  0  0  0
  -23.7596   25.7922   -1.5641 N   0  0  0  0  0  0  0  0  0  0  0  0
  -24.9172   25.8208   -2.2046 O   0  0  0  0  0  0  0  0  0  0  0  0
  -19.9644   25.5117   -6.1264 O   0  0  0  0  0  0  0  0  0  0  0  0
  -23.9681   25.5360   -0.1440 C   0  0  0  0  0  0  0  0  0  0  0  0
  1  2  2  0
  2  3  1  0
  3  4  1  0
  4  5  1  0
  5  6  2  0
  2  7  1  0
  7  8  1  0
  5  9  1  0
  7 10  1  0
M  END
>  <ID>  (1) 
conformer_0

$$$$
