
     RDKit          3D

 11 12  0  0  0  0  0  0  0  0999 V2000
  -24.0305   25.8630   -1.1674 C   0  0  0  0  0  0  0  0  0  0  0  0
  -23.0876   25.6784   -2.0719 C   0  0  0  0  0  0  0  0  0  0  0  0
  -24.7854   25.7660   -0.6471 N   0  0  0  0  0  0  0  0  0  0  0  0
  -21.7237   25.8159   -1.7153 C   0  0  0  0  0  0  0  0  0  0  0  0
  -20.7389   25.6755   -2.6564 C   0  0  0  0  0  0  0  0  0  0  0  0
  -23.3187   25.3484   -3.4358 C   0  0  0  0  0  0  0  0  0  0  0  0
  -21.0546   25.3480   -3.9726 C   0  0  0  0  0  0  0  0  0  0  0  0
  -22.3746   25.2069   -4.3535 C   0  0  0  0  0  0  0  0  0  0  0  0
  -22.6117   25.0234   -5.6877 N   0  0  0  0  0  0  0  0  0  0  0  0
  -20.1984   25.1961   -5.1117 C   0  0  0  0  0  0  0  0  0  0  0  0
  -21.2412   25.0368   -6.2011 C   0  0  0  0  0  0  0  0  0  0  0  0
  1  2  1  0
  1  3  3  0
  2  4  1  0
  4  5  2  0
  2  6  2  0
  5  7  1  0
  6  8  1  0
  7  8  2  0
  8  9  1  0
  7 10  1  0
  9 11  2  0
 10 11  2  0
M  END
>  <ID>  (1) 
conformer_0

$$$$
