
     RDKit          3D

 11 11  0  0  0  0  0  0  0  0999 V2000
  -21.4461   25.8573   -1.5401 O   0  0  0  0  0  0  0  0  0  0  0  0
  -22.5268   25.6783   -2.2118 C   0  0  0  0  0  0  0  0  0  0  0  0
  -23.7565   25.9345   -1.5954 C   0  0  0  0  0  0  0  0  0  0  0  0
  -22.5406   25.4429   -3.5414 N   0  0  0  0  0  0  0  0  0  0  0  0
  -23.5864   24.9656   -4.1791 C   0  0  0  0  0  0  0  0  0  0  0  0
  -24.8976   25.3341   -2.0130 O   0  0  0  0  0  0  0  0  0  0  0  0
  -21.2675   25.4051   -4.2621 C   0  0  0  0  0  0  0  0  0  0  0  0
  -21.2380   25.2235   -5.5292 C   0  0  0  0  0  0  0  0  0  0  0  0
  -22.3690   24.7905   -6.2212 C   0  0  0  0  0  0  0  0  0  0  0  0
  -23.5393   24.6046   -5.5751 C   0  0  0  0  0  0  0  0  0  0  0  0
  -23.9177   26.4605   -0.4517 O   0  0  0  0  0  0  0  0  0  0  0  0
  1  2  2  0
  2  3  1  0
  2  4  1  0
  4  5  1  0
  3  6  1  0
  4  7  1  0
  7  8  2  0
  8  9  1  0
  5 10  1  0
  9 10  2  0
  3 11  2  0
M  END
>  <ID>  (1) 
conformer_0

$$$$
