
     RDKit          3D

 10 10  0  0  0  0  0  0  0  0999 V2000
  -21.4461   25.8573   -1.5401 O   0  0  0  0  0  0  0  0  0  0  0  0
  -21.8539   25.5333   -2.5926 C   0  0  0  0  0  0  0  0  0  0  0  0
  -21.0849   25.5676   -3.7380 N   0  0  0  0  0  0  0  0  0  0  0  0
  -21.3848   25.4045   -4.9601 C   0  0  0  0  0  0  0  0  0  0  0  0
  -22.7397   25.0546   -5.3478 C   0  0  0  0  0  0  0  0  0  0  0  0
  -23.3819   25.2698   -2.8117 C   0  0  0  0  0  0  0  0  0  0  0  0
  -24.3070   25.6380   -1.9389 C   0  0  0  0  0  0  0  0  0  0  0  0
  -24.7185   25.7396   -0.9067 N   0  0  0  0  0  0  0  0  0  0  0  0
  -23.8124   25.1522   -4.1667 C   0  0  0  0  0  0  0  0  0  0  0  0
  -20.4427   25.2924   -5.9375 O   0  0  0  0  0  0  0  0  0  0  0  0
  1  2  2  0
  2  3  1  0
  3  4  1  0
  4  5  1  0
  2  6  1  0
  6  7  1  0
  7  8  3  0
  5  9  2  0
  6  9  1  0
  4 10  2  0
M  END
>  <ID>  (1) 
conformer_0

$$$$
