
     RDKit          3D

 11 11  0  0  0  0  0  0  0  0999 V2000
  -24.3055   25.4392   -1.3018 C   0  0  0  0  0  0  0  0  0  0  0  0
  -23.4277   25.3945   -2.1671 C   0  0  0  0  0  0  0  0  0  0  0  0
  -22.0259   25.7495   -1.8998 C   0  0  0  0  0  0  0  0  0  0  0  0
  -23.7233   25.2032   -3.5239 C   0  0  0  0  0  0  0  0  0  0  0  0
  -21.6603   25.8054   -0.5763 O   0  0  0  0  0  0  0  0  0  0  0  0
  -21.0123   25.4572   -2.6605 C   0  0  0  0  0  0  0  0  0  0  0  0
  -21.0920   25.2686   -4.0931 C   0  0  0  0  0  0  0  0  0  0  0  0
  -20.2031   25.1732   -4.9367 O   0  0  0  0  0  0  0  0  0  0  0  0
  -24.8334   25.5715   -0.4133 N   0  0  0  0  0  0  0  0  0  0  0  0
  -22.5783   25.0622   -4.4669 C   0  0  0  0  0  0  0  0  0  0  0  0
  -22.8099   24.8165   -5.9135 O   0  0  0  0  0  0  0  0  0  0  0  0
  1  2  1  0
  2  3  1  0
  2  4  2  0
  3  5  1  0
  3  6  2  0
  6  7  1  0
  7  8  1  0
  1  9  3  0
  4 10  1  0
  7 10  2  0
 10 11  1  0
M  END
>  <ID>  (1) 
conformer_0

$$$$
