
     RDKit          3D

 10 10  0  0  0  0  0  0  0  0999 V2000
  -21.4461   25.8573   -1.5401 O   0  0  0  0  0  0  0  0  0  0  0  0
  -22.5268   25.6783   -2.2118 C   0  0  0  0  0  0  0  0  0  0  0  0
  -22.5087   25.4879   -3.4923 C   0  0  0  0  0  0  0  0  0  0  0  0
  -23.7979   25.9098   -1.5958 N   0  0  0  0  0  0  0  0  0  0  0  0
  -23.6003   25.0955   -4.2250 C   0  0  0  0  0  0  0  0  0  0  0  0
  -21.3685   25.8286   -4.3063 C   0  0  0  0  0  0  0  0  0  0  0  0
  -24.0028   25.8659   -0.3359 O   0  0  0  0  0  0  0  0  0  0  0  0
  -23.4485   24.7242   -5.6454 C   0  0  0  0  0  0  0  0  0  0  0  0
  -22.3172   25.0031   -6.3079 C   0  0  0  0  0  0  0  0  0  0  0  0
  -21.2084   25.6347   -5.6485 C   0  0  0  0  0  0  0  0  0  0  0  0
  1  2  2  0
  2  3  1  0
  2  4  1  0
  3  5  2  0
  3  6  1  0
  4  7  2  0
  5  8  1  0
  8  9  2  0
  6 10  2  0
  9 10  1  0
M  END
>  <ID>  (1) 
conformer_0

$$$$
