
     RDKit          3D

 11 11  0  0  0  0  0  0  0  0999 V2000
  -24.3055   25.4392   -1.3018 C   0  0  0  0  0  0  0  0  0  0  0  0
  -23.4277   25.3945   -2.1671 C   0  0  0  0  0  0  0  0  0  0  0  0
  -22.0259   25.7495   -1.8998 C   0  0  0  0  0  0  0  0  0  0  0  0
  -23.7233   25.2032   -3.5239 C   0  0  0  0  0  0  0  0  0  0  0  0
  -21.6603   25.8054   -0.5763 O   0  0  0  0  0  0  0  0  0  0  0  0
  -21.0123   25.4572   -2.6605 C   0  0  0  0  0  0  0  0  0  0  0  0
  -24.8279   25.5761   -0.4463 N   0  0  0  0  0  0  0  0  0  0  0  0
  -22.6798   25.1008   -4.4924 C   0  0  0  0  0  0  0  0  0  0  0  0
  -22.9862   24.8933   -5.8572 N   0  0  0  0  0  0  0  0  0  0  0  0
  -21.3612   25.3076   -4.0964 C   0  0  0  0  0  0  0  0  0  0  0  0
  -20.3830   25.3084   -5.1676 O   0  0  0  0  0  0  0  0  0  0  0  0
  1  2  1  0
  2  3  1  0
  2  4  2  0
  3  5  1  0
  3  6  2  0
  1  7  3  0
  4  8  1  0
  8  9  1  0
  6 10  1  0
  8 10  2  0
 10 11  1  0
M  END
>  <ID>  (1) 
conformer_0

$$$$
