
     RDKit          3D

 11 11  0  0  0  0  0  0  0  0999 V2000
  -24.0540   25.6625   -1.2813 C   0  0  0  0  0  0  0  0  0  0  0  0
  -23.1918   25.6647   -2.1993 C   0  0  0  0  0  0  0  0  0  0  0  0
  -25.0685   25.9493   -0.8837 O   0  0  0  0  0  0  0  0  0  0  0  0
  -23.7453   25.3979   -3.5645 C   0  0  0  0  0  0  0  0  0  0  0  0
  -22.8647   25.3454   -4.6750 C   0  0  0  0  0  0  0  0  0  0  0  0
  -23.2734   25.1746   -5.9711 O   0  0  0  0  0  0  0  0  0  0  0  0
  -21.8340   26.1114   -2.3357 C   0  0  0  0  0  0  0  0  0  0  0  0
  -23.3337   25.3366    0.0021 O   0  0  0  0  0  0  0  0  0  0  0  0
  -21.0282   26.1068   -3.4134 C   0  0  0  0  0  0  0  0  0  0  0  0
  -21.5651   25.7386   -4.5955 C   0  0  0  0  0  0  0  0  0  0  0  0
  -20.7906   25.7798   -5.8582 C   0  0  0  0  0  0  0  0  0  0  0  0
  1  2  1  0
  1  3  2  0
  2  4  2  0
  4  5  1  0
  5  6  1  0
  2  7  1  0
  1  8  1  0
  7  9  2  0
  5 10  2  0
  9 10  1  0
 10 11  1  0
M  END
>  <ID>  (1) 
conformer_0

$$$$
