
     RDKit          3D

 12 13  0  0  0  0  0  0  0  0999 V2000
  -24.0540   25.6625   -1.2813 C   0  0  0  0  0  0  0  0  0  0  0  0
  -23.1918   25.6647   -2.1993 C   0  0  0  0  0  0  0  0  0  0  0  0
  -23.7037   25.4313   -3.5423 C   0  0  0  0  0  0  0  0  0  0  0  0
  -22.7949   25.2715   -4.6033 C   0  0  0  0  0  0  0  0  0  0  0  0
  -23.1836   25.0953   -5.9260 N   0  0  0  0  0  0  0  0  0  0  0  0
  -21.4549   25.5671   -4.4287 C   0  0  0  0  0  0  0  0  0  0  0  0
  -20.9968   25.8067   -3.1222 C   0  0  0  0  0  0  0  0  0  0  0  0
  -21.7900   25.8243   -2.0454 C   0  0  0  0  0  0  0  0  0  0  0  0
  -20.6029   25.6188   -5.5491 C   0  0  0  0  0  0  0  0  0  0  0  0
  -24.6363   25.5635   -0.3911 N   0  0  0  0  0  0  0  0  0  0  0  0
  -21.0722   25.4119   -6.7534 C   0  0  0  0  0  0  0  0  0  0  0  0
  -22.3560   25.0512   -6.8049 C   0  0  0  0  0  0  0  0  0  0  0  0
  1  2  1  0
  2  3  2  0
  3  4  1  0
  4  5  1  0
  4  6  2  0
  6  7  1  0
  2  8  1  0
  7  8  2  0
  6  9  1  0
  1 10  3  0
  9 11  2  0
  5 12  2  0
 11 12  1  0
M  END
>  <ID>  (1) 
conformer_0

$$$$
