
     RDKit          3D

 10 10  0  0  0  0  0  0  0  0999 V2000
  -21.4461   25.8573   -1.5401 O   0  0  0  0  0  0  0  0  0  0  0  0
  -21.8539   25.5333   -2.5926 C   0  0  0  0  0  0  0  0  0  0  0  0
  -21.0849   25.5676   -3.7380 N   0  0  0  0  0  0  0  0  0  0  0  0
  -21.3848   25.4045   -4.9601 C   0  0  0  0  0  0  0  0  0  0  0  0
  -22.7397   25.0546   -5.3478 C   0  0  0  0  0  0  0  0  0  0  0  0
  -23.3819   25.2698   -2.8117 C   0  0  0  0  0  0  0  0  0  0  0  0
  -20.7821   26.1841   -6.0013 O   0  0  0  0  0  0  0  0  0  0  0  0
  -24.3458   25.4180   -1.8374 C   0  0  0  0  0  0  0  0  0  0  0  0
  -23.7330   25.1135   -4.1789 C   0  0  0  0  0  0  0  0  0  0  0  0
  -24.3096   26.2682   -0.9419 O   0  0  0  0  0  0  0  0  0  0  0  0
  1  2  2  0
  2  3  1  0
  3  4  1  0
  4  5  1  0
  2  6  1  0
  4  7  2  0
  6  8  1  0
  5  9  1  0
  6  9  2  0
  8 10  2  0
M  END
>  <ID>  (1) 
conformer_0

$$$$
