
     RDKit          3D

 11 11  0  0  0  0  0  0  0  0999 V2000
  -24.3055   25.4392   -1.3018 C   0  0  0  0  0  0  0  0  0  0  0  0
  -23.4277   25.3945   -2.1671 C   0  0  0  0  0  0  0  0  0  0  0  0
  -23.6521   25.3056   -3.5647 C   0  0  0  0  0  0  0  0  0  0  0  0
  -25.4889   25.6898   -1.3974 O   0  0  0  0  0  0  0  0  0  0  0  0
  -22.5447   25.2925   -4.4644 C   0  0  0  0  0  0  0  0  0  0  0  0
  -22.0156   25.7435   -1.9783 C   0  0  0  0  0  0  0  0  0  0  0  0
  -23.9636   25.0251    0.0230 O   0  0  0  0  0  0  0  0  0  0  0  0
  -21.3093   25.5868   -4.0966 C   0  0  0  0  0  0  0  0  0  0  0  0
  -22.8272   25.1698   -5.9237 C   0  0  0  0  0  0  0  0  0  0  0  0
  -22.1500   25.9562   -6.6989 N   0  0  0  0  0  0  0  0  0  0  0  0
  -21.0214   25.8314   -2.7795 N   0  0  0  0  0  0  0  0  0  0  0  0
  1  2  1  0
  2  3  2  0
  1  4  2  0
  3  5  1  0
  2  6  1  0
  1  7  1  0
  5  8  2  0
  5  9  1  0
  9 10  1  0
  6 11  2  0
  8 11  1  0
M  END
>  <ID>  (1) 
conformer_0

$$$$
