
     RDKit          3D

 10 10  0  0  0  0  0  0  0  0999 V2000
  -21.4461   25.8573   -1.5401 O   0  0  0  0  0  0  0  0  0  0  0  0
  -22.5268   25.6783   -2.2118 C   0  0  0  0  0  0  0  0  0  0  0  0
  -22.4943   25.3572   -3.5512 C   0  0  0  0  0  0  0  0  0  0  0  0
  -23.4759   24.9998   -4.2846 C   0  0  0  0  0  0  0  0  0  0  0  0
  -21.2712   25.7754   -4.3574 C   0  0  0  0  0  0  0  0  0  0  0  0
  -24.6562   24.5039   -3.6278 C   0  0  0  0  0  0  0  0  0  0  0  0
  -21.3288   25.8156   -5.6576 C   0  0  0  0  0  0  0  0  0  0  0  0
  -20.1866   26.1325   -6.4726 C   0  0  0  0  0  0  0  0  0  0  0  0
  -24.7363   24.7673   -2.2271 N   0  0  0  0  0  0  0  0  0  0  0  0
  -23.7802   25.3765   -1.5482 C   0  0  0  0  0  0  0  0  0  0  0  0
  1  2  2  0
  2  3  1  0
  3  4  2  0
  3  5  1  0
  4  6  1  0
  5  7  2  3
  7  8  1  0
  6  9  2  0
  2 10  1  0
  9 10  1  0
M  END
>  <ID>  (1) 
conformer_0

$$$$
