
     RDKit          3D

 10 10  0  0  0  0  0  0  0  0999 V2000
  -24.0540   25.6625   -1.2813 C   0  0  0  0  0  0  0  0  0  0  0  0
  -23.1918   25.6647   -2.1993 C   0  0  0  0  0  0  0  0  0  0  0  0
  -21.8276   25.7766   -2.1235 C   0  0  0  0  0  0  0  0  0  0  0  0
  -21.2809   25.5998   -0.8182 C   0  0  0  0  0  0  0  0  0  0  0  0
  -23.7734   25.7107   -3.6561 C   0  0  0  0  0  0  0  0  0  0  0  0
  -23.5633   25.5516    0.0892 C   0  0  0  0  0  0  0  0  0  0  0  0
  -22.9053   25.2516   -4.7045 C   0  0  0  0  0  0  0  0  0  0  0  0
  -23.3245   25.1328   -5.8587 O   0  0  0  0  0  0  0  0  0  0  0  0
  -21.6473   25.2061   -4.6614 O   0  0  0  0  0  0  0  0  0  0  0  0
  -22.1100   25.4814    0.3501 C   0  0  0  0  0  0  0  0  0  0  0  0
  1  2  1  0
  2  3  2  0
  3  4  1  0
  2  5  1  0
  1  6  2  0
  5  7  1  0
  7  8  1  0
  7  9  2  0
  4 10  2  0
  6 10  1  0
M  END
>  <ID>  (1) 
conformer_0

$$$$
