
     RDKit          3D

 11 11  0  0  0  0  0  0  0  0999 V2000
  -24.9772   25.9937   -0.8344 O   0  0  0  0  0  0  0  0  0  0  0  0
  -24.0979   25.3240   -1.1437 C   0  0  0  0  0  0  0  0  0  0  0  0
  -23.1183   25.6517   -1.9791 C   0  0  0  0  0  0  0  0  0  0  0  0
  -23.2194   25.4460   -3.3631 C   0  0  0  0  0  0  0  0  0  0  0  0
  -21.8133   26.0768   -1.7401 C   0  0  0  0  0  0  0  0  0  0  0  0
  -20.8588   26.1770   -2.6243 N   0  0  0  0  0  0  0  0  0  0  0  0
  -21.1947   25.9352   -3.9176 C   0  0  0  0  0  0  0  0  0  0  0  0
  -24.1231   24.1653   -0.3901 O   0  0  0  0  0  0  0  0  0  0  0  0
  -20.1459   26.0512   -4.8737 O   0  0  0  0  0  0  0  0  0  0  0  0
  -22.3603   25.4919   -4.3783 C   0  0  0  0  0  0  0  0  0  0  0  0
  -22.6087   25.2925   -5.7677 C   0  0  0  0  0  0  0  0  0  0  0  0
  1  2  2  0
  2  3  1  0
  3  4  2  0
  3  5  1  0
  5  6  2  0
  6  7  1  0
  2  8  1  0
  7  9  1  0
  4 10  1  0
  7 10  2  0
 10 11  1  0
M  END
>  <ID>  (1) 
conformer_0

$$$$
