
     RDKit          3D

 11 11  0  0  0  0  0  0  0  0999 V2000
  -24.9208   25.8306   -0.8150 O   0  0  0  0  0  0  0  0  0  0  0  0
  -23.7371   25.4119   -0.8154 C   0  0  0  0  0  0  0  0  0  0  0  0
  -23.1522   24.7741    0.0599 O   0  0  0  0  0  0  0  0  0  0  0  0
  -22.9519   25.7724   -2.0995 C   0  0  0  0  0  0  0  0  0  0  0  0
  -23.1913   25.5593   -3.2552 C   0  0  0  0  0  0  0  0  0  0  0  0
  -21.5044   25.9560   -1.8368 C   0  0  0  0  0  0  0  0  0  0  0  0
  -20.6685   26.0765   -2.9049 C   0  0  0  0  0  0  0  0  0  0  0  0
  -21.1626   25.8788   -4.2169 C   0  0  0  0  0  0  0  0  0  0  0  0
  -22.5117   25.6089   -4.3983 C   0  0  0  0  0  0  0  0  0  0  0  0
  -22.9703   25.4490   -5.7744 N   0  0  0  0  0  0  0  0  0  0  0  0
  -20.2769   26.0008   -5.2595 O   0  0  0  0  0  0  0  0  0  0  0  0
  1  2  2  0
  2  3  1  0
  2  4  1  0
  4  5  2  0
  4  6  1  0
  6  7  2  0
  7  8  1  0
  5  9  1  0
  8  9  2  0
  9 10  1  0
  8 11  1  0
M  END
>  <ID>  (1) 
conformer_0

$$$$
