
     RDKit          3D

 11 11  0  0  0  0  0  0  0  0999 V2000
  -24.0540   25.6625   -1.2813 C   0  0  0  0  0  0  0  0  0  0  0  0
  -23.1918   25.6647   -2.1993 C   0  0  0  0  0  0  0  0  0  0  0  0
  -21.8276   25.7766   -2.1235 C   0  0  0  0  0  0  0  0  0  0  0  0
  -25.2345   25.8909   -1.2723 O   0  0  0  0  0  0  0  0  0  0  0  0
  -23.4466   25.6399    0.0048 O   0  0  0  0  0  0  0  0  0  0  0  0
  -21.0003   25.7221   -3.2344 C   0  0  0  0  0  0  0  0  0  0  0  0
  -21.7979   25.5199   -4.4404 C   0  0  0  0  0  0  0  0  0  0  0  0
  -23.0477   25.3943   -4.6209 C   0  0  0  0  0  0  0  0  0  0  0  0
  -21.0771   25.6131   -5.6144 O   0  0  0  0  0  0  0  0  0  0  0  0
  -23.5947   25.1897   -5.9002 O   0  0  0  0  0  0  0  0  0  0  0  0
  -23.8225   25.4217   -3.4672 C   0  0  0  0  0  0  0  0  0  0  0  0
  1  2  1  0
  2  3  1  0
  1  4  2  0
  1  5  1  0
  3  6  2  0
  6  7  1  0
  7  8  2  0
  7  9  1  0
  8 10  1  0
  2 11  2  0
  8 11  1  0
M  END
>  <ID>  (1) 
conformer_0

$$$$
