
     RDKit          3D

 12 13  0  0  0  0  0  0  0  0999 V2000
  -25.1210   25.7800   -0.9184 O   0  0  0  0  0  0  0  0  0  0  0  0
  -23.9509   25.4714   -0.7437 C   0  0  0  0  0  0  0  0  0  0  0  0
  -23.0001   25.7149   -1.7999 C   0  0  0  0  0  0  0  0  0  0  0  0
  -23.3033   25.5345   -3.0963 C   0  0  0  0  0  0  0  0  0  0  0  0
  -21.6282   25.4153   -1.4697 C   0  0  0  0  0  0  0  0  0  0  0  0
  -23.6023   25.1020    0.4559 O   0  0  0  0  0  0  0  0  0  0  0  0
  -22.3753   25.7111   -4.0715 C   0  0  0  0  0  0  0  0  0  0  0  0
  -20.8415   24.9763   -2.4042 C   0  0  0  0  0  0  0  0  0  0  0  0
  -21.0753   25.4251   -3.7531 N   0  0  0  0  0  0  0  0  0  0  0  0
  -22.5816   25.6277   -5.4176 C   0  0  0  0  0  0  0  0  0  0  0  0
  -20.2958   25.4135   -4.8397 N   0  0  0  0  0  0  0  0  0  0  0  0
  -21.1763   25.6598   -5.8496 C   0  0  0  0  0  0  0  0  0  0  0  0
  1  2  2  0
  2  3  1  0
  3  4  1  0
  3  5  1  0
  2  6  1  0
  4  7  1  0
  5  8  1  0
  7  9  1  0
  8  9  1  0
  7 10  2  0
  9 11  1  0
 10 12  1  0
 11 12  2  0
M  END
>  <ID>  (1) 
conformer_0

$$$$
