
     RDKit          3D

 10  9  0  0  0  0  0  0  0  0999 V2000
  -21.1378   25.9487   -3.2888 O   0  0  0  0  0  0  0  0  0  0  0  0
  -22.1148   25.4740   -3.5738 C   0  0  0  0  0  0  0  0  0  0  0  0
  -23.1757   25.5810   -2.6853 C   0  0  0  0  0  0  0  0  0  0  0  0
  -24.3391   24.9787   -2.9284 O   0  0  0  0  0  0  0  0  0  0  0  0
  -23.1790   26.0913   -1.4304 N   0  0  0  0  0  0  0  0  0  0  0  0
  -22.2793   25.2399   -5.0543 C   0  0  0  0  0  0  0  0  0  0  0  0
  -21.2230   25.5216   -5.8873 C   0  0  0  0  0  0  0  0  0  0  0  0
  -21.5042   25.6991   -7.0787 O   0  0  0  0  0  0  0  0  0  0  0  0
  -20.0456   25.2598   -5.5645 O   0  0  0  0  0  0  0  0  0  0  0  0
  -24.0253   25.7993   -0.4846 C   0  0  0  0  0  0  0  0  0  0  0  0
  1  2  1  0
  2  3  1  0
  3  4  2  0
  3  5  1  0
  2  6  2  3
  6  7  1  0
  7  8  2  0
  7  9  1  0
  5 10  1  0
M  END
>  <ID>  (1) 
conformer_0

$$$$
