
     RDKit          3D

 10 10  0  0  0  0  0  0  0  0999 V2000
  -24.0540   25.6625   -1.2813 C   0  0  0  0  0  0  0  0  0  0  0  0
  -23.1918   25.6647   -2.1993 C   0  0  0  0  0  0  0  0  0  0  0  0
  -23.7037   25.4313   -3.5423 C   0  0  0  0  0  0  0  0  0  0  0  0
  -25.0032   25.0873   -3.6632 C   0  0  0  0  0  0  0  0  0  0  0  0
  -23.4406   25.9720    0.0496 O   0  0  0  0  0  0  0  0  0  0  0  0
  -25.4525   24.6711   -4.9294 O   0  0  0  0  0  0  0  0  0  0  0  0
  -25.7669   24.9926   -2.5086 C   0  0  0  0  0  0  0  0  0  0  0  0
  -22.9887   25.4739   -4.7506 O   0  0  0  0  0  0  0  0  0  0  0  0
  -25.3252   25.3072   -1.3203 C   0  0  0  0  0  0  0  0  0  0  0  0
  -21.7312   26.1046   -2.1338 C   0  0  0  0  0  0  0  0  0  0  0  0
  1  2  1  0
  2  3  2  0
  3  4  1  0
  1  5  1  0
  4  6  1  0
  4  7  2  0
  3  8  1  0
  1  9  2  0
  7  9  1  0
  2 10  1  0
M  END
>  <ID>  (1) 
conformer_0

$$$$
