
     RDKit          3D

 12 12  0  0  0  0  0  0  0  0999 V2000
  -24.0540   25.6625   -1.2813 C   0  0  0  0  0  0  0  0  0  0  0  0
  -23.1918   25.6647   -2.1993 C   0  0  0  0  0  0  0  0  0  0  0  0
  -21.8276   25.7766   -2.1235 C   0  0  0  0  0  0  0  0  0  0  0  0
  -21.2809   25.5998   -0.8182 C   0  0  0  0  0  0  0  0  0  0  0  0
  -23.7734   25.7107   -3.6561 C   0  0  0  0  0  0  0  0  0  0  0  0
  -22.8906   25.2458   -4.6592 C   0  0  0  0  0  0  0  0  0  0  0  0
  -25.4035   25.7551   -1.3780 O   0  0  0  0  0  0  0  0  0  0  0  0
  -23.6716   25.4875   -0.0395 C   0  0  0  0  0  0  0  0  0  0  0  0
  -24.4882   25.3034    1.0792 O   0  0  0  0  0  0  0  0  0  0  0  0
  -21.7792   25.6853   -4.8951 O   0  0  0  0  0  0  0  0  0  0  0  0
  -22.1878   25.4624    0.2755 C   0  0  0  0  0  0  0  0  0  0  0  0
  -23.0990   24.1370   -5.3360 O   0  0  0  0  0  0  0  0  0  0  0  0
  1  2  1  0
  2  3  2  0
  3  4  1  0
  2  5  1  0
  5  6  1  0
  1  7  1  0
  1  8  2  0
  8  9  1  0
  6 10  1  0
  4 11  2  0
  8 11  1  0
  6 12  2  0
M  END
>  <ID>  (1) 
conformer_0

$$$$
