
     RDKit          3D

  9  8  0  0  0  0  0  0  0  0999 V2000
  -24.9275   26.2168   -0.8437 F   0  0  0  0  0  0  0  0  0  0  0  0
  -23.8144   25.5238   -0.8630 C   0  0  0  0  0  0  0  0  0  0  0  0
  -23.0414   25.7754   -2.0024 C   0  0  0  0  0  0  0  0  0  0  0  0
  -23.5287   25.8912   -3.2458 N   0  0  0  0  0  0  0  0  0  0  0  0
  -22.7294   25.9510   -4.3664 C   0  0  0  0  0  0  0  0  0  0  0  0
  -21.3657   25.9395   -4.1511 O   0  0  0  0  0  0  0  0  0  0  0  0
  -23.1798   26.0887   -5.5386 O   0  0  0  0  0  0  0  0  0  0  0  0
  -21.7603   25.1867   -1.9460 O   0  0  0  0  0  0  0  0  0  0  0  0
  -23.5945   24.9056    0.1157 F   0  0  0  0  0  0  0  0  0  0  0  0
  1  2  1  0
  2  3  1  0
  3  4  1  0
  4  5  1  0
  5  6  1  0
  5  7  2  0
  3  8  2  0
  2  9  1  0
M  END
>  <ID>  (1) 
conformer_0

$$$$
