
     RDKit          3D

 11 11  0  0  0  0  0  0  0  0999 V2000
  -24.9208   25.8306   -0.8150 O   0  0  0  0  0  0  0  0  0  0  0  0
  -23.9322   25.2852   -1.2727 C   0  0  0  0  0  0  0  0  0  0  0  0
  -23.2791   25.7311   -2.3426 C   0  0  0  0  0  0  0  0  0  0  0  0
  -23.1117   24.6001   -0.3583 O   0  0  0  0  0  0  0  0  0  0  0  0
  -23.7031   25.1561   -3.5809 C   0  0  0  0  0  0  0  0  0  0  0  0
  -21.8154   25.7779   -2.2867 C   0  0  0  0  0  0  0  0  0  0  0  0
  -23.0549   25.4699   -4.8332 C   0  0  0  0  0  0  0  0  0  0  0  0
  -21.0999   26.0628   -3.5404 C   0  0  0  0  0  0  0  0  0  0  0  0
  -23.4511   24.9735   -6.0001 O   0  0  0  0  0  0  0  0  0  0  0  0
  -21.5528   25.2370   -4.6527 C   0  0  0  0  0  0  0  0  0  0  0  0
  -20.8117   25.7965   -5.8174 O   0  0  0  0  0  0  0  0  0  0  0  0
  1  2  2  0
  2  3  1  0
  2  4  1  0
  3  5  1  0
  3  6  1  0
  5  7  1  0
  6  8  1  0
  7  9  1  0
  7 10  1  0
  8 10  1  0
 10 11  1  0
M  END
>  <ID>  (1) 
conformer_0

$$$$
