
     RDKit          3D

 10 10  0  0  0  0  0  0  0  0999 V2000
  -20.7149   25.8166   -4.7427 C   0  0  0  0  0  0  0  0  0  0  0  0
  -21.1376   25.3781   -3.6820 C   0  0  0  0  0  0  0  0  0  0  0  0
  -22.4525   25.2675   -3.3664 C   0  0  0  0  0  0  0  0  0  0  0  0
  -23.3917   25.3613   -4.2983 C   0  0  0  0  0  0  0  0  0  0  0  0
  -21.6751   25.8920   -5.8576 C   0  0  0  0  0  0  0  0  0  0  0  0
  -22.9140   25.0085   -1.8606 C   0  0  0  0  0  0  0  0  0  0  0  0
  -24.7239   25.1234   -4.0806 F   0  0  0  0  0  0  0  0  0  0  0  0
  -23.8454   25.8700   -1.3862 C   0  0  0  0  0  0  0  0  0  0  0  0
  -24.6900   25.3457   -0.3368 O   0  0  0  0  0  0  0  0  0  0  0  0
  -23.0762   25.6753   -5.6401 C   0  0  0  0  0  0  0  0  0  0  0  0
  1  2  2  0
  2  3  1  0
  3  4  2  0
  1  5  1  0
  3  6  1  0
  4  7  1  0
  6  8  1  0
  8  9  1  0
  4 10  1  0
  5 10  2  0
M  END
>  <ID>  (1) 
conformer_0

$$$$
