
     RDKit          3D

 11 11  0  0  0  0  0  0  0  0999 V2000
  -25.0173   25.8318   -1.0300 O   0  0  0  0  0  0  0  0  0  0  0  0
  -23.8652   25.4460   -0.8010 C   0  0  0  0  0  0  0  0  0  0  0  0
  -22.8587   25.6762   -1.8990 C   0  0  0  0  0  0  0  0  0  0  0  0
  -21.5487   25.8685   -1.5613 C   0  0  0  0  0  0  0  0  0  0  0  0
  -20.7199   25.7109   -2.7068 N   0  0  0  0  0  0  0  0  0  0  0  0
  -23.2626   25.7853   -3.2322 C   0  0  0  0  0  0  0  0  0  0  0  0
  -22.3464   25.7708   -4.1828 C   0  0  0  0  0  0  0  0  0  0  0  0
  -21.0565   25.7646   -3.9359 C   0  0  0  0  0  0  0  0  0  0  0  0
  -22.7619   25.7521   -5.6029 N   0  0  0  0  0  0  0  0  0  0  0  0
  -20.2348   25.7378   -5.1243 N   0  0  0  0  0  0  0  0  0  0  0  0
  -23.4972   24.8315    0.2621 O   0  0  0  0  0  0  0  0  0  0  0  0
  1  2  2  0
  2  3  1  0
  3  4  2  0
  4  5  1  0
  3  6  1  0
  6  7  2  0
  5  8  2  0
  7  8  1  0
  7  9  1  0
  8 10  1  0
  2 11  1  0
M  END
>  <ID>  (1) 
conformer_0

$$$$
