
     RDKit          3D

 11 11  0  0  0  0  0  0  0  0999 V2000
  -24.0305   25.8630   -1.1674 C   0  0  0  0  0  0  0  0  0  0  0  0
  -23.0876   25.6784   -2.0719 C   0  0  0  0  0  0  0  0  0  0  0  0
  -21.7011   25.7839   -1.8743 C   0  0  0  0  0  0  0  0  0  0  0  0
  -20.8541   25.4778   -2.9427 N   0  0  0  0  0  0  0  0  0  0  0  0
  -23.4980   25.3994   -3.3565 C   0  0  0  0  0  0  0  0  0  0  0  0
  -25.2370   26.0495   -1.3439 O   0  0  0  0  0  0  0  0  0  0  0  0
  -21.5099   25.2857   -4.1344 C   0  0  0  0  0  0  0  0  0  0  0  0
  -23.6820   25.6031    0.1284 O   0  0  0  0  0  0  0  0  0  0  0  0
  -24.8272   25.3012   -3.6826 O   0  0  0  0  0  0  0  0  0  0  0  0
  -22.6630   25.2165   -4.4117 C   0  0  0  0  0  0  0  0  0  0  0  0
  -20.4686   25.2806   -5.2597 N   0  0  0  0  0  0  0  0  0  0  0  0
  1  2  1  0
  2  3  1  0
  3  4  2  0
  2  5  2  0
  1  6  2  0
  4  7  1  0
  1  8  1  0
  5  9  1  0
  5 10  1  0
  7 10  2  0
  7 11  1  0
M  END
>  <ID>  (1) 
conformer_0

$$$$
