
     RDKit          3D

 10 10  0  0  0  0  0  0  0  0999 V2000
  -24.0540   25.6625   -1.2813 C   0  0  0  0  0  0  0  0  0  0  0  0
  -23.1918   25.6647   -2.1993 C   0  0  0  0  0  0  0  0  0  0  0  0
  -21.8276   25.7766   -2.1235 C   0  0  0  0  0  0  0  0  0  0  0  0
  -23.7640   26.2195   -3.4620 O   0  0  0  0  0  0  0  0  0  0  0  0
  -20.9951   25.1263   -3.1063 C   0  0  0  0  0  0  0  0  0  0  0  0
  -23.1074   25.5614   -4.6242 C   0  0  0  0  0  0  0  0  0  0  0  0
  -19.6056   25.2743   -3.0058 O   0  0  0  0  0  0  0  0  0  0  0  0
  -23.5059   25.7608   -5.8405 O   0  0  0  0  0  0  0  0  0  0  0  0
  -21.5247   25.4518   -4.5658 C   0  0  0  0  0  0  0  0  0  0  0  0
  -20.8474   25.4615   -5.5835 O   0  0  0  0  0  0  0  0  0  0  0  0
  1  2  1  0
  2  3  1  0
  2  4  1  0
  3  5  1  0
  4  6  1  0
  5  7  1  0
  6  8  2  0
  5  9  1  0
  6  9  1  0
  9 10  2  0
M  END
>  <ID>  (1) 
conformer_0

$$$$
