
     RDKit          3D

  9  9  0  0  0  0  0  0  0  0999 V2000
  -24.9275   26.2168   -0.8437 F   0  0  0  0  0  0  0  0  0  0  0  0
  -23.8144   25.5238   -0.8630 C   0  0  0  0  0  0  0  0  0  0  0  0
  -23.0414   25.7754   -2.0024 C   0  0  0  0  0  0  0  0  0  0  0  0
  -23.4392   24.7794    0.0239 C   0  0  0  0  0  0  0  0  0  0  0  0
  -22.1967   24.1670    0.1425 C   0  0  0  0  0  0  0  0  0  0  0  0
  -21.3550   24.3674   -1.0171 C   0  0  0  0  0  0  0  0  0  0  0  0
  -23.3794   26.5314   -3.1096 F   0  0  0  0  0  0  0  0  0  0  0  0
  -21.7933   25.1744   -2.1322 C   0  0  0  0  0  0  0  0  0  0  0  0
  -20.9959   25.2418   -3.0016 F   0  0  0  0  0  0  0  0  0  0  0  0
  1  2  1  0
  2  3  1  0
  2  4  2  0
  4  5  1  0
  5  6  2  0
  3  7  1  0
  3  8  2  0
  6  8  1  0
  8  9  1  0
M  END
>  <ID>  (1) 
conformer_0

$$$$
