
     RDKit          3D

 10 10  0  0  0  0  0  0  0  0999 V2000
  -20.7149   25.8166   -4.7427 C   0  0  0  0  0  0  0  0  0  0  0  0
  -21.9570   25.5275   -4.8834 C   0  0  0  0  0  0  0  0  0  0  0  0
  -20.0132   25.3864   -3.7762 O   0  0  0  0  0  0  0  0  0  0  0  0
  -22.7407   25.2652   -3.6314 N   0  0  0  0  0  0  0  0  0  0  0  0
  -20.1704   26.4774   -5.7868 O   0  0  0  0  0  0  0  0  0  0  0  0
  -23.2627   24.1384   -3.4471 C   0  0  0  0  0  0  0  0  0  0  0  0
  -22.2924   25.8629   -2.4749 C   0  0  0  0  0  0  0  0  0  0  0  0
  -23.7928   24.0947   -2.1901 N   0  0  0  0  0  0  0  0  0  0  0  0
  -23.1894   25.1175   -1.5370 C   0  0  0  0  0  0  0  0  0  0  0  0
  -23.4383   25.3995   -0.2889 O   0  0  0  0  0  0  0  0  0  0  0  0
  1  2  1  0
  1  3  2  0
  2  4  1  0
  1  5  1  0
  4  6  1  0
  4  7  1  0
  6  8  1  0
  7  9  1  0
  8  9  1  0
  9 10  2  0
M  END
>  <ID>  (1) 
conformer_0

$$$$
