
     RDKit          3D

 10 10  0  0  0  0  0  0  0  0999 V2000
  -24.0305   25.8630   -1.1674 C   0  0  0  0  0  0  0  0  0  0  0  0
  -23.0876   25.6784   -2.0719 C   0  0  0  0  0  0  0  0  0  0  0  0
  -21.7011   25.7839   -1.8743 C   0  0  0  0  0  0  0  0  0  0  0  0
  -20.8541   25.4778   -2.9427 N   0  0  0  0  0  0  0  0  0  0  0  0
  -23.4980   25.3994   -3.3565 C   0  0  0  0  0  0  0  0  0  0  0  0
  -24.7766   25.2728   -3.5862 F   0  0  0  0  0  0  0  0  0  0  0  0
  -21.5039   25.2916   -4.1437 C   0  0  0  0  0  0  0  0  0  0  0  0
  -22.6660   25.2336   -4.3896 C   0  0  0  0  0  0  0  0  0  0  0  0
  -20.4690   25.3183   -5.2580 N   0  0  0  0  0  0  0  0  0  0  0  0
  -23.2198   24.9593   -5.6997 N   0  0  0  0  0  0  0  0  0  0  0  0
  1  2  1  0
  2  3  1  0
  3  4  2  0
  2  5  2  0
  5  6  1  0
  4  7  1  0
  5  8  1  0
  7  8  2  0
  7  9  1  0
  8 10  1  0
M  END
>  <ID>  (1) 
conformer_0

$$$$
