
     RDKit          3D

  9  9  0  0  0  0  0  0  0  0999 V2000
  -24.0540   25.6625   -1.2813 C   0  0  0  0  0  0  0  0  0  0  0  0
  -23.1918   25.6647   -2.1993 C   0  0  0  0  0  0  0  0  0  0  0  0
  -21.8276   25.7766   -2.1235 C   0  0  0  0  0  0  0  0  0  0  0  0
  -21.2809   25.5998   -0.8182 C   0  0  0  0  0  0  0  0  0  0  0  0
  -23.7734   25.7107   -3.6561 C   0  0  0  0  0  0  0  0  0  0  0  0
  -23.5633   25.5516    0.0892 C   0  0  0  0  0  0  0  0  0  0  0  0
  -23.6812   24.5203   -4.2994 O   0  0  0  0  0  0  0  0  0  0  0  0
  -22.1697   25.4860    0.2593 C   0  0  0  0  0  0  0  0  0  0  0  0
  -20.9989   25.9147   -3.1767 O   0  0  0  0  0  0  0  0  0  0  0  0
  1  2  1  0
  2  3  2  0
  3  4  1  0
  2  5  1  0
  1  6  2  0
  5  7  1  0
  4  8  2  0
  6  8  1  0
  3  9  1  0
M  END
>  <ID>  (1) 
conformer_0

$$$$
