
     RDKit          3D

 10 10  0  0  0  0  0  0  0  0999 V2000
  -24.3055   25.4392   -1.3018 C   0  0  0  0  0  0  0  0  0  0  0  0
  -23.4277   25.3945   -2.1671 C   0  0  0  0  0  0  0  0  0  0  0  0
  -25.1278   26.0585   -1.0323 O   0  0  0  0  0  0  0  0  0  0  0  0
  -21.9765   25.6379   -2.0492 C   0  0  0  0  0  0  0  0  0  0  0  0
  -21.1267   25.5540   -3.1210 N   0  0  0  0  0  0  0  0  0  0  0  0
  -23.5360   25.1968   -3.6391 C   0  0  0  0  0  0  0  0  0  0  0  0
  -23.8467   24.8825   -0.0363 O   0  0  0  0  0  0  0  0  0  0  0  0
  -21.4725   25.4211   -4.3484 C   0  0  0  0  0  0  0  0  0  0  0  0
  -20.5769   25.4094   -5.3696 C   0  0  0  0  0  0  0  0  0  0  0  0
  -22.8264   25.1358   -4.6048 N   0  0  0  0  0  0  0  0  0  0  0  0
  1  2  1  0
  1  3  2  0
  2  4  2  0
  4  5  1  0
  2  6  1  0
  1  7  1  0
  5  8  2  0
  8  9  1  0
  6 10  2  0
  8 10  1  0
M  END
>  <ID>  (1) 
conformer_0

$$$$
