
     RDKit          3D

 11 11  0  0  0  0  0  0  0  0999 V2000
  -24.0540   25.6625   -1.2813 C   0  0  0  0  0  0  0  0  0  0  0  0
  -23.1918   25.6647   -2.1993 C   0  0  0  0  0  0  0  0  0  0  0  0
  -25.0685   25.9493   -0.8837 O   0  0  0  0  0  0  0  0  0  0  0  0
  -23.7453   25.3979   -3.5645 C   0  0  0  0  0  0  0  0  0  0  0  0
  -22.8647   25.3454   -4.6750 C   0  0  0  0  0  0  0  0  0  0  0  0
  -23.2734   25.1746   -5.9711 O   0  0  0  0  0  0  0  0  0  0  0  0
  -21.8340   26.1114   -2.3357 C   0  0  0  0  0  0  0  0  0  0  0  0
  -21.5647   25.7910   -4.5720 C   0  0  0  0  0  0  0  0  0  0  0  0
  -21.0225   26.0798   -3.3550 N   0  0  0  0  0  0  0  0  0  0  0  0
  -20.7149   25.8724   -5.7544 C   0  0  0  0  0  0  0  0  0  0  0  0
  -23.5445   24.8016   -0.0844 O   0  0  0  0  0  0  0  0  0  0  0  0
  1  2  1  0
  1  3  2  0
  2  4  2  0
  4  5  1  0
  5  6  1  0
  2  7  1  0
  5  8  2  0
  7  9  2  0
  8  9  1  0
  8 10  1  0
  1 11  1  0
M  END
>  <ID>  (1) 
conformer_0

$$$$
