
     RDKit          3D

  9  8  0  0  0  0  0  0  0  0999 V2000
  -21.1378   25.9487   -3.2888 O   0  0  0  0  0  0  0  0  0  0  0  0
  -22.1148   25.4740   -3.5738 C   0  0  0  0  0  0  0  0  0  0  0  0
  -22.4119   25.0549   -4.8287 C   0  0  0  0  0  0  0  0  0  0  0  0
  -21.6534   25.6247   -5.8820 C   0  0  0  0  0  0  0  0  0  0  0  0
  -23.0880   25.2720   -2.5973 N   0  0  0  0  0  0  0  0  0  0  0  0
  -22.9879   25.7793   -1.2542 C   0  0  0  0  0  0  0  0  0  0  0  0
  -24.4421   25.5658   -0.6689 C   0  0  0  0  0  0  0  0  0  0  0  0
  -20.4445   25.8835   -5.6812 O   0  0  0  0  0  0  0  0  0  0  0  0
  -21.9926   25.5372   -7.1450 O   0  0  0  0  0  0  0  0  0  0  0  0
  1  2  2  0
  2  3  1  0
  3  4  1  0
  2  5  1  0
  5  6  1  0
  6  7  1  0
  4  8  1  0
  4  9  2  0
M  END
>  <ID>  (1) 
conformer_0

$$$$
