
     RDKit          3D

  8  7  0  0  0  0  0  0  0  0999 V2000
  -25.1210   25.7800   -0.9184 O   0  0  0  0  0  0  0  0  0  0  0  0
  -24.0834   25.3389   -1.2382 C   0  0  0  0  0  0  0  0  0  0  0  0
  -23.0706   25.4427   -0.4614 O   0  0  0  0  0  0  0  0  0  0  0  0
  -23.9626   24.4260   -2.3333 C   0  0  0  0  0  0  0  0  0  0  0  0
  -22.6159   24.2119   -2.9020 N   0  0  0  0  0  0  0  0  0  0  0  0
  -22.1710   25.1275   -3.9783 C   0  0  0  0  0  0  0  0  0  0  0  0
  -20.9238   25.6238   -3.8859 O   0  0  0  0  0  0  0  0  0  0  0  0
  -22.8693   25.2609   -5.0161 O   0  0  0  0  0  0  0  0  0  0  0  0
  1  2  1  0
  2  3  2  0
  2  4  1  0
  4  5  1  0
  5  6  1  0
  6  7  1  0
  6  8  2  0
M  END
>  <ID>  (1) 
conformer_0

$$$$
