
     RDKit          3D

 11 11  0  0  0  0  0  0  0  0999 V2000
  -24.0540   25.6625   -1.2813 C   0  0  0  0  0  0  0  0  0  0  0  0
  -23.1918   25.6647   -2.1993 C   0  0  0  0  0  0  0  0  0  0  0  0
  -23.7037   25.4313   -3.5423 C   0  0  0  0  0  0  0  0  0  0  0  0
  -25.0032   25.0873   -3.6632 C   0  0  0  0  0  0  0  0  0  0  0  0
  -23.4406   25.9720    0.0496 O   0  0  0  0  0  0  0  0  0  0  0  0
  -25.4525   24.6711   -4.9294 O   0  0  0  0  0  0  0  0  0  0  0  0
  -25.6174   24.8995   -2.5313 C   0  0  0  0  0  0  0  0  0  0  0  0
  -22.9624   25.5063   -4.7563 C   0  0  0  0  0  0  0  0  0  0  0  0
  -25.2476   25.2289   -1.3332 C   0  0  0  0  0  0  0  0  0  0  0  0
  -23.2842   25.5349   -5.8871 O   0  0  0  0  0  0  0  0  0  0  0  0
  -21.4934   25.5592   -4.5718 O   0  0  0  0  0  0  0  0  0  0  0  0
  1  2  1  0
  2  3  2  0
  3  4  1  0
  1  5  1  0
  4  6  1  0
  4  7  2  0
  3  8  1  0
  1  9  2  0
  7  9  1  0
  8 10  2  0
  8 11  1  0
M  END
>  <ID>  (1) 
conformer_0

$$$$
