
     RDKit          3D

 11 11  0  0  0  0  0  0  0  0999 V2000
  -24.9275   26.2168   -0.8437 F   0  0  0  0  0  0  0  0  0  0  0  0
  -23.8144   25.5238   -0.8630 C   0  0  0  0  0  0  0  0  0  0  0  0
  -23.0414   25.7754   -2.0024 C   0  0  0  0  0  0  0  0  0  0  0  0
  -23.4392   24.7794    0.0239 C   0  0  0  0  0  0  0  0  0  0  0  0
  -21.7908   25.1648   -2.1322 C   0  0  0  0  0  0  0  0  0  0  0  0
  -21.3664   24.4245   -1.0907 C   0  0  0  0  0  0  0  0  0  0  0  0
  -22.1455   24.2206    0.0468 C   0  0  0  0  0  0  0  0  0  0  0  0
  -21.1295   25.3404   -3.1684 N   0  0  0  0  0  0  0  0  0  0  0  0
  -21.2496   25.2299   -4.3871 C   0  0  0  0  0  0  0  0  0  0  0  0
  -22.4510   24.9521   -4.8358 O   0  0  0  0  0  0  0  0  0  0  0  0
  -20.2835   25.6147   -5.3970 C   0  0  0  0  0  0  0  0  0  0  0  0
  1  2  1  0
  2  3  1  0
  2  4  2  0
  3  5  2  0
  5  6  1  0
  4  7  1  0
  6  7  2  0
  5  8  1  0
  8  9  1  0
  9 10  2  0
  9 11  1  0
M  END
>  <ID>  (1) 
conformer_0

$$$$
