
     RDKit          3D

 11 11  0  0  0  0  0  0  0  0999 V2000
  -25.0173   25.8318   -1.0300 O   0  0  0  0  0  0  0  0  0  0  0  0
  -23.8652   25.4460   -0.8010 C   0  0  0  0  0  0  0  0  0  0  0  0
  -22.9167   25.6464   -1.9537 C   0  0  0  0  0  0  0  0  0  0  0  0
  -21.6013   25.9035   -1.7538 C   0  0  0  0  0  0  0  0  0  0  0  0
  -23.2232   24.9243   -3.1234 C   0  0  0  0  0  0  0  0  0  0  0  0
  -23.4956   24.8496    0.2063 O   0  0  0  0  0  0  0  0  0  0  0  0
  -22.6064   25.2628   -4.2755 C   0  0  0  0  0  0  0  0  0  0  0  0
  -21.2491   25.4381   -4.2927 C   0  0  0  0  0  0  0  0  0  0  0  0
  -23.0967   25.4169   -5.4211 O   0  0  0  0  0  0  0  0  0  0  0  0
  -20.7547   26.0149   -2.9974 C   0  0  0  0  0  0  0  0  0  0  0  0
  -20.7151   26.2565   -5.3550 O   0  0  0  0  0  0  0  0  0  0  0  0
  1  2  1  0
  2  3  1  0
  3  4  1  0
  3  5  1  0
  2  6  2  0
  5  7  1  0
  7  8  1  0
  7  9  2  0
  4 10  1  0
  8 10  1  0
  8 11  1  0
M  END
>  <ID>  (1) 
conformer_0

$$$$
