
     RDKit          3D

 12 12  0  0  0  0  0  0  0  0999 V2000
  -24.3055   25.4392   -1.3018 C   0  0  0  0  0  0  0  0  0  0  0  0
  -23.4277   25.3945   -2.1671 C   0  0  0  0  0  0  0  0  0  0  0  0
  -22.0259   25.7495   -1.8998 C   0  0  0  0  0  0  0  0  0  0  0  0
  -23.7233   25.2032   -3.5239 C   0  0  0  0  0  0  0  0  0  0  0  0
  -21.6603   25.8054   -0.5763 O   0  0  0  0  0  0  0  0  0  0  0  0
  -21.0123   25.4572   -2.6605 C   0  0  0  0  0  0  0  0  0  0  0  0
  -21.0920   25.2686   -4.0931 C   0  0  0  0  0  0  0  0  0  0  0  0
  -22.5491   25.0390   -4.4710 C   0  0  0  0  0  0  0  0  0  0  0  0
  -24.2202   24.8812   -0.1995 O   0  0  0  0  0  0  0  0  0  0  0  0
  -20.1953   25.2024   -4.9801 O   0  0  0  0  0  0  0  0  0  0  0  0
  -25.4320   26.0382   -1.5105 O   0  0  0  0  0  0  0  0  0  0  0  0
  -22.7263   24.9770   -5.8023 O   0  0  0  0  0  0  0  0  0  0  0  0
  1  2  1  0
  2  3  1  0
  2  4  2  0
  3  5  1  0
  3  6  2  0
  6  7  1  0
  4  8  1  0
  7  8  2  0
  1  9  1  0
  7 10  1  0
  1 11  2  0
  8 12  1  0
M  END
>  <ID>  (1) 
conformer_0

$$$$
