
     RDKit          3D

  9  8  0  0  0  0  0  0  0  0999 V2000
  -24.4916   26.2388   -0.9537 C   0  0  0  0  0  0  0  0  0  0  0  0
  -23.4299   25.6547   -1.5415 C   0  0  0  0  0  0  0  0  0  0  0  0
  -23.2997   25.6125   -2.8909 C   0  0  0  0  0  0  0  0  0  0  0  0
  -24.3743   25.4837   -3.5867 O   0  0  0  0  0  0  0  0  0  0  0  0
  -22.1114   25.7277   -3.4444 N   0  0  0  0  0  0  0  0  0  0  0  0
  -21.8649   25.7690   -4.8727 C   0  0  0  0  0  0  0  0  0  0  0  0
  -20.5477   25.9584   -5.3644 C   0  0  0  0  0  0  0  0  0  0  0  0
  -23.0267   24.5263   -0.8073 C   0  0  0  0  0  0  0  0  0  0  0  0
  -22.7235   25.6043   -5.7309 O   0  0  0  0  0  0  0  0  0  0  0  0
  1  2  1  0
  2  3  1  0
  3  4  2  0
  3  5  1  0
  5  6  1  0
  6  7  1  0
  2  8  1  0
  6  9  2  0
M  END
>  <ID>  (1) 
conformer_0

$$$$
