
     RDKit          3D

 42 45  0  0  0  0  0  0  0  0999 V2000
   32.5907   21.1801    5.8238 C   0  0  0  0  0  0  0  0  0  0  0  0
   34.8557   24.5629    7.8689 C   0  0  0  0  0  0  0  0  0  0  0  0
   36.4556   21.9181    4.3656 C   0  0  0  0  0  0  0  0  0  0  0  0
   32.6381   24.8192    3.3831 N   0  0  0  0  0  0  0  0  0  0  0  0
   27.6213   28.5903    0.3433 C   0  0  0  0  0  0  0  0  0  0  0  0
   30.6995   27.7625    0.8017 C   0  0  0  0  0  0  0  0  0  0  0  0
   34.8040   21.8984    6.0699 C   0  0  0  0  0  0  0  0  0  0  0  0
   35.1513   22.1325    4.7367 C   0  0  0  0  0  0  0  0  0  0  0  0
   32.3007   27.9500    5.3783 C   0  0  0  0  0  0  0  0  0  0  0  0
   30.8998   28.4895    5.4625 C   0  0  0  0  0  0  0  0  0  0  0  0
   31.8120   27.3377    1.4742 N   0  0  0  0  0  0  0  0  0  0  0  0
   32.7779   26.4884    5.3929 C   0  0  0  0  0  0  0  0  0  0  0  0
   33.3728   22.0648    6.5331 C   0  0  0  0  0  0  0  0  0  0  0  0
   28.5318   24.0209    1.6585 C   0  0  0  0  0  0  0  0  0  0  0  0
   32.9450   23.2942    6.8602 O   0  0  0  0  0  0  0  0  0  0  0  0
   30.6482   27.8796   -0.5894 C   0  0  0  0  0  0  0  0  0  0  0  0
   30.3347   28.1099    3.0605 C   0  0  0  0  0  0  0  0  0  0  0  0
   31.5147   27.5991    2.7409 C   0  0  0  0  0  0  0  0  0  0  0  0
   30.0758   22.3425    3.6874 C   0  0  0  0  0  0  0  0  0  0  0  0
   30.4465   28.7871    6.7550 N   0  0  0  0  0  0  0  0  0  0  0  0
   31.7108   21.1075    5.0350 C   0  0  0  0  0  0  0  0  0  0  0  0
   33.0044   22.3650    7.7674 C   0  0  0  0  0  0  0  0  0  0  0  0
   29.6803   28.1359    1.7605 C   0  0  0  0  0  0  0  0  0  0  0  0
   26.3024   28.5252    0.4328 O   0  0  0  0  0  0  0  0  0  0  0  0
   34.2155   24.5886    9.1614 O   0  0  0  0  0  0  0  0  0  0  0  0
   30.7688   21.4601    4.3801 C   0  0  0  0  0  0  0  0  0  0  0  0
   33.7135   26.1344    6.5356 C   0  0  0  0  0  0  0  0  0  0  0  0
   30.6105   23.2745    2.6944 C   0  0  0  0  0  0  0  0  0  0  0  0
   28.3467   28.4346    1.5474 N   0  0  0  0  0  0  0  0  0  0  0  0
   31.8807   23.8936    2.7006 C   0  0  0  0  0  0  0  0  0  0  0  0
   28.8206   22.3644    3.9076 O   0  0  0  0  0  0  0  0  0  0  0  0
   37.4003   21.4931    5.3314 C   0  0  0  0  0  0  0  0  0  0  0  0
   35.7332   21.5400    7.0104 C   0  0  0  0  0  0  0  0  0  0  0  0
   28.1700   25.4992    1.6640 C   0  0  0  0  0  0  0  0  0  0  0  0
   37.0316   21.2800    6.6827 C   0  0  0  0  0  0  0  0  0  0  0  0
   29.5698   28.4025   -1.2881 C   0  0  0  0  0  0  0  0  0  0  0  0
   33.3169   28.8255    6.2954 C   0  0  0  0  0  0  0  0  0  0  0  0
   29.8284   23.6567    1.5640 O   0  0  0  0  0  0  0  0  0  0  0  0
   33.2484   25.6367    4.2629 C   0  0  0  0  0  0  0  0  0  0  0  0
   30.0689   28.5882    4.3714 N   0  0  0  0  0  0  0  0  0  0  0  0
   28.2821   28.7568   -0.9169 C   0  0  0  0  0  0  0  0  0  0  0  0
   33.6791   24.6119    6.7926 C   0  0  0  0  0  0  0  0  0  0  0  0
  1 13  1  0
  1 21  2  0
  2 25  1  0
  2 42  1  0
  3  8  2  0
  3 32  1  0
  4 30  1  0
  4 39  1  0
  5 24  2  0
  5 29  1  0
  5 41  1  0
  6 11  1  0
  6 16  2  0
  6 23  1  0
  7  8  1  0
  7 13  1  0
  7 33  2  0
  9 10  1  0
  9 12  1  0
  9 37  1  0
 10 20  2  0
 10 40  1  0
 11 18  1  0
 12 27  1  0
 12 39  1  0
 13 22  1  0
 14 34  1  0
 14 38  1  0
 15 22  1  0
 15 42  1  0
 16 36  1  0
 17 18  2  0
 17 23  1  0
 17 40  1  0
 19 26  1  0
 19 28  1  0
 19 31  2  0
 21 26  2  0
 23 29  2  0
 27 42  1  0
 28 30  1  0
 28 38  1  0
 32 35  2  0
 33 35  1  0
 36 41  2  0
M  END
>  <ID>  (1) 
conformer_0

$$$$
