
     RDKit          3D

 28 32  0  0  0  0  0  0  0  0999 V2000
   32.4126   23.0519    4.4095 C   0  0  0  0  0  0  0  0  0  0  0  0
   30.4664   25.1230    1.8155 C   0  0  0  0  0  0  0  0  0  0  0  0
   33.6960   23.0143    5.0747 C   0  0  0  0  0  0  0  0  0  0  0  0
   32.4132   22.0838    6.8862 C   0  0  0  0  0  0  0  0  0  0  0  0
   29.9161   23.0413    2.9437 C   0  0  0  0  0  0  0  0  0  0  0  0
   32.7142   24.0163    2.2494 C   0  0  0  0  0  0  0  0  0  0  0  0
   31.2614   28.5315    0.9549 C   0  0  0  0  0  0  0  0  0  0  0  0
   31.4948   21.9979    4.6727 C   0  0  0  0  0  0  0  0  0  0  0  0
   31.1975   26.9284    3.2018 C   0  0  0  0  0  0  0  0  0  0  0  0
   36.1040   22.7560    6.4353 C   0  0  0  0  0  0  0  0  0  0  0  0
   28.7116   23.1149    2.3101 C   0  0  0  0  0  0  0  0  0  0  0  0
   34.9299   22.3002    7.0148 C   0  0  0  0  0  0  0  0  0  0  0  0
   28.4092   24.0455    1.3701 C   0  0  0  0  0  0  0  0  0  0  0  0
   31.4199   27.1688    0.8195 C   0  0  0  0  0  0  0  0  0  0  0  0
   30.1052   30.2175    2.2908 O   0  0  0  0  0  0  0  0  0  0  0  0
   30.9464   28.2591    3.3187 C   0  0  0  0  0  0  0  0  0  0  0  0
   33.6765   22.4398    6.3421 C   0  0  0  0  0  0  0  0  0  0  0  0
   30.2657   22.0241    3.9219 C   0  0  0  0  0  0  0  0  0  0  0  0
   32.1490   22.1655    8.1458 O   0  0  0  0  0  0  0  0  0  0  0  0
   31.9933   24.1554    3.5540 C   0  0  0  0  0  0  0  0  0  0  0  0
   29.3573   21.2769    4.3066 O   0  0  0  0  0  0  0  0  0  0  0  0
   29.2991   25.0080    1.0584 C   0  0  0  0  0  0  0  0  0  0  0  0
   30.8171   29.0194    2.1776 C   0  0  0  0  0  0  0  0  0  0  0  0
   30.8308   24.0782    2.6996 C   0  0  0  0  0  0  0  0  0  0  0  0
   36.0664   23.3539    5.1886 C   0  0  0  0  0  0  0  0  0  0  0  0
   31.2930   21.7942    6.0576 N   0  0  0  0  0  0  0  0  0  0  0  0
   34.8651   23.4895    4.5176 C   0  0  0  0  0  0  0  0  0  0  0  0
   31.1115   26.3734    1.9282 C   0  0  0  0  0  0  0  0  0  0  0  0
  1  3  1  0
  1  8  1  0
  1 20  1  0
  2 22  1  0
  2 24  1  0
  2 28  1  0
  3 17  2  0
  3 27  1  0
  4 17  1  0
  4 19  2  0
  4 26  1  0
  5 11  2  0
  5 18  1  0
  5 24  1  0
  6 20  1  0
  7 14  2  0
  7 23  1  0
  8 18  1  0
  8 26  1  0
  9 16  2  0
  9 28  1  0
 10 12  2  0
 10 25  1  0
 11 13  1  0
 12 17  1  0
 13 22  2  0
 14 28  1  0
 15 23  1  0
 16 23  1  0
 18 21  2  0
 20 24  1  0
 25 27  2  0
M  END
>  <ID>  (1) 
conformer_0

$$$$
