
     RDKit          3D

 31 35  0  0  0  0  0  0  0  0999 V2000
   30.4659   25.9439    0.8988 C   0  0  0  0  0  0  0  0  0  0  0  0
   30.6950   24.9072    1.8881 N   0  0  0  0  0  0  0  0  0  0  0  0
   34.8576   22.3508    4.4218 N   0  0  0  0  0  0  0  0  0  0  0  0
   30.1142   23.8577    2.6517 C   0  0  0  0  0  0  0  0  0  0  0  0
   28.1233   24.4842    1.4934 O   0  0  0  0  0  0  0  0  0  0  0  0
   33.0469   23.6363    3.6916 C   0  0  0  0  0  0  0  0  0  0  0  0
   32.6224   21.9437    5.2557 C   0  0  0  0  0  0  0  0  0  0  0  0
   34.3472   23.2480    3.5209 C   0  0  0  0  0  0  0  0  0  0  0  0
   32.0564   22.7831    4.2070 C   0  0  0  0  0  0  0  0  0  0  0  0
   28.4487   22.0327    3.9927 C   0  0  0  0  0  0  0  0  0  0  0  0
   33.1695   26.5543    5.3740 C   0  0  0  0  0  0  0  0  0  0  0  0
   34.0217   21.8886    5.4325 C   0  0  0  0  0  0  0  0  0  0  0  0
   27.9532   22.8104    2.9649 C   0  0  0  0  0  0  0  0  0  0  0  0
   29.3292   26.2497    0.1897 C   0  0  0  0  0  0  0  0  0  0  0  0
   31.5760   26.7997    0.6498 C   0  0  0  0  0  0  0  0  0  0  0  0
   31.9400   24.9464    2.3011 C   0  0  0  0  0  0  0  0  0  0  0  0
   29.2783   27.3191   -0.6834 C   0  0  0  0  0  0  0  0  0  0  0  0
   31.1000   28.9927    5.1656 C   0  0  0  0  0  0  0  0  0  0  0  0
   26.7123   22.7046    2.5129 O   0  0  0  0  0  0  0  0  0  0  0  0
   30.3547   28.1373   -0.8609 C   0  0  0  0  0  0  0  0  0  0  0  0
   31.3752   26.9688    3.9134 C   0  0  0  0  0  0  0  0  0  0  0  0
   30.7546   28.0400    4.1955 C   0  0  0  0  0  0  0  0  0  0  0  0
   32.5484   24.9368    3.4269 C   0  0  0  0  0  0  0  0  0  0  0  0
   30.6796   22.9913    3.6773 C   0  0  0  0  0  0  0  0  0  0  0  0
   34.6112   21.4675    6.6431 C   0  0  0  0  0  0  0  0  0  0  0  0
   31.5207   27.8774   -0.1443 C   0  0  0  0  0  0  0  0  0  0  0  0
   28.7364   23.7533    2.3131 C   0  0  0  0  0  0  0  0  0  0  0  0
   32.9890   27.7154    6.0581 C   0  0  0  0  0  0  0  0  0  0  0  0
   32.4075   26.1450    4.2780 C   0  0  0  0  0  0  0  0  0  0  0  0
   29.7552   22.1144    4.3118 C   0  0  0  0  0  0  0  0  0  0  0  0
   32.1503   28.7769    6.0342 N   0  0  0  0  0  0  0  0  0  0  0  0
  1  2  1  0
  1 14  2  0
  1 15  1  0
  2  4  1  0
  2 16  1  0
  3  8  2  0
  3 12  1  0
  4 24  1  0
  4 27  1  0
  5 27  2  0
  6  8  1  0
  6  9  1  0
  6 23  1  0
  7  9  2  0
  7 12  1  0
  9 24  1  0
 10 13  2  0
 10 30  1  0
 11 28  1  0
 11 29  2  0
 12 25  1  0
 13 19  1  0
 13 27  1  0
 14 17  1  0
 15 26  2  0
 16 23  1  0
 17 20  2  0
 18 22  1  0
 18 31  1  0
 20 26  1  0
 21 22  2  0
 21 29  1  0
 23 29  1  0
 24 30  2  0
 28 31  2  0
M  END
>  <ID>  (1) 
conformer_0

$$$$
