
     RDKit          3D

 24 27  0  0  0  0  0  0  0  0999 V2000
   33.3959   25.2351    6.2948 C   0  0  0  0  0  0  0  0  0  0  0  0
   35.2056   24.2023    4.9013 C   0  0  0  0  0  0  0  0  0  0  0  0
   29.7906   27.9359    2.6144 C   0  0  0  0  0  0  0  0  0  0  0  0
   29.2827   29.4554    0.1432 C   0  0  0  0  0  0  0  0  0  0  0  0
   31.9477   23.4244    1.8401 C   0  0  0  0  0  0  0  0  0  0  0  0
   29.3277   26.2403    0.8866 C   0  0  0  0  0  0  0  0  0  0  0  0
   30.0228   26.9964   -0.2759 C   0  0  0  0  0  0  0  0  0  0  0  0
   31.9618   27.1660    1.3749 C   0  0  0  0  0  0  0  0  0  0  0  0
   31.7630   23.5891    3.3519 C   0  0  0  0  0  0  0  0  0  0  0  0
   30.9321   28.2824    1.6211 C   0  0  0  0  0  0  0  0  0  0  0  0
   33.6802   24.3913    5.0949 C   0  0  0  0  0  0  0  0  0  0  0  0
   35.4614   23.0776    3.8668 C   0  0  0  0  0  0  0  0  0  0  0  0
   34.1891   22.3734    3.4814 C   0  0  0  0  0  0  0  0  0  0  0  0
   32.3358   25.8593    3.2833 C   0  0  0  0  0  0  0  0  0  0  0  0
   30.3255   28.4468    0.2076 C   0  0  0  0  0  0  0  0  0  0  0  0
   31.6840   22.3486    4.1895 C   0  0  0  0  0  0  0  0  0  0  0  0
   32.8385   24.5715    3.8543 C   0  0  0  0  0  0  0  0  0  0  0  0
   32.4073   26.9088    4.0118 O   0  0  0  0  0  0  0  0  0  0  0  0
   31.5331   25.8573    1.9954 C   0  0  0  0  0  0  0  0  0  0  0  0
   31.3321   24.6739    1.1502 C   0  0  0  0  0  0  0  0  0  0  0  0
   30.7719   23.2434    1.0704 C   0  0  0  0  0  0  0  0  0  0  0  0
   28.6364   27.3099    1.7715 C   0  0  0  0  0  0  0  0  0  0  0  0
   33.1100   21.8872    4.5572 C   0  0  0  0  0  0  0  0  0  0  0  0
   30.2055   25.4101    1.8233 C   0  0  0  0  0  0  0  0  0  0  0  0
  1 11  1  0
  2 11  1  0
  2 12  1  0
  3 10  1  0
  3 22  1  0
  4 15  1  0
  5  9  1  0
  5 21  1  0
  6  7  1  0
  6 22  1  0
  6 24  1  0
  7 15  1  0
  8 10  1  0
  8 19  1  0
  9 16  1  0
  9 17  1  0
 10 15  1  0
 11 17  1  0
 12 13  1  0
 13 23  1  0
 14 17  1  0
 14 18  2  0
 14 19  1  0
 16 23  1  0
 19 20  1  0
 19 24  1  0
 20 21  1  0
M  END
>  <ID>  (1) 
conformer_0

$$$$
