
     RDKit          3D

 19 21  0  0  0  0  0  0  0  0999 V2000
   35.4503   23.6648    4.3676 C   0  0  0  0  0  0  0  0  0  0  0  0
   33.2102   24.3048    4.7178 C   0  0  0  0  0  0  0  0  0  0  0  0
   31.3869   24.9861    2.9759 C   0  0  0  0  0  0  0  0  0  0  0  0
   34.5391   24.4835    5.3176 C   0  0  0  0  0  0  0  0  0  0  0  0
   30.8037   29.2193    1.9399 O   0  0  0  0  0  0  0  0  0  0  0  0
   31.0753   23.1688    1.3754 C   0  0  0  0  0  0  0  0  0  0  0  0
   32.1449   25.8090    6.2407 O   0  0  0  0  0  0  0  0  0  0  0  0
   30.5411   27.8499    3.7100 O   0  0  0  0  0  0  0  0  0  0  0  0
   31.8670   27.2348    0.4989 C   0  0  0  0  0  0  0  0  0  0  0  0
   33.2169   23.4851    3.4997 C   0  0  0  0  0  0  0  0  0  0  0  0
   30.8811   24.8812    4.4011 C   0  0  0  0  0  0  0  0  0  0  0  0
   31.9776   24.7147    5.3921 C   0  0  0  0  0  0  0  0  0  0  0  0
   32.0076   23.6367    2.5700 C   0  0  0  0  0  0  0  0  0  0  0  0
   34.5380   22.8381    3.4448 C   0  0  0  0  0  0  0  0  0  0  0  0
   30.7089   28.0617    2.4635 C   0  0  0  0  0  0  0  0  0  0  0  0
   29.9304   24.2948    1.1505 C   0  0  0  0  0  0  0  0  0  0  0  0
   28.6740   23.7700    2.0011 C   0  0  0  0  0  0  0  0  0  0  0  0
   30.7474   26.9164    1.4581 C   0  0  0  0  0  0  0  0  0  0  0  0
   30.5082   25.5197    1.9012 C   0  0  0  0  0  0  0  0  0  0  0  0
  1  4  1  0
  1 14  1  0
  2  4  1  0
  2 10  1  0
  2 12  1  0
  3 11  1  0
  3 13  1  0
  3 19  1  0
  5 15  2  0
  6 13  1  0
  6 16  1  0
  7 12  1  0
  8 15  1  0
  9 18  1  0
 10 13  1  0
 10 14  1  0
 11 12  1  0
 15 18  1  0
 16 17  1  0
 16 19  1  0
 18 19  1  0
M  END
>  <ID>  (1) 
conformer_0

$$$$
