
     RDKit          3D

 25 27  0  0  0  0  0  0  0  0999 V2000
   30.8049   25.3273    1.8958 C   0  0  0  0  0  0  0  0  0  0  0  0
   35.1159   21.8217    3.4792 C   0  0  0  0  0  0  0  0  0  0  0  0
   32.4092   25.8858    3.6786 C   0  0  0  0  0  0  0  0  0  0  0  0
   36.3740   21.5222    4.2504 C   0  0  0  0  0  0  0  0  0  0  0  0
   32.1526   28.1776    5.6845 C   0  0  0  0  0  0  0  0  0  0  0  0
   31.8784   26.0827    2.3210 N   0  0  0  0  0  0  0  0  0  0  0  0
   31.6423   27.5614    0.5254 N   0  0  0  0  0  0  0  0  0  0  0  0
   28.5770   25.3628    0.9105 C   0  0  0  0  0  0  0  0  0  0  0  0
   30.3925   27.0592    0.2050 C   0  0  0  0  0  0  0  0  0  0  0  0
   30.5367   24.0515    2.2940 N   0  0  0  0  0  0  0  0  0  0  0  0
   32.5871   27.0401    4.6931 C   0  0  0  0  0  0  0  0  0  0  0  0
   34.1582   22.5453    4.3998 C   0  0  0  0  0  0  0  0  0  0  0  0
   31.5702   25.5468    6.2120 O   0  0  0  0  0  0  0  0  0  0  0  0
   32.8717   25.8591    5.7956 C   0  0  0  0  0  0  0  0  0  0  0  0
   34.2821   22.7735    5.7477 O   0  0  0  0  0  0  0  0  0  0  0  0
   29.8901   25.9419    0.9769 C   0  0  0  0  0  0  0  0  0  0  0  0
   33.2615   24.8867    4.4921 C   0  0  0  0  0  0  0  0  0  0  0  0
   32.3431   27.0604    1.5578 C   0  0  0  0  0  0  0  0  0  0  0  0
   31.0983   28.8621    4.9779 O   0  0  0  0  0  0  0  0  0  0  0  0
   33.3408   23.5335    2.3678 O   0  0  0  0  0  0  0  0  0  0  0  0
   29.6978   27.5854   -0.7359 O   0  0  0  0  0  0  0  0  0  0  0  0
   29.3629   23.4629    2.1369 C   0  0  0  0  0  0  0  0  0  0  0  0
   28.3209   24.1544    1.5238 C   0  0  0  0  0  0  0  0  0  0  0  0
   33.1415   23.4965    3.7509 C   0  0  0  0  0  0  0  0  0  0  0  0
   34.6216   25.3037    4.3136 O   0  0  0  0  0  0  0  0  0  0  0  0
  1  6  1  0
  1 10  1  0
  1 16  1  0
  2  4  1  0
  2 12  1  0
  3  6  1  0
  3 11  1  0
  3 17  1  0
  5 11  1  0
  5 19  1  0
  6 18  1  0
  7  9  1  0
  7 18  2  0
  8 16  1  0
  8 23  2  0
  9 16  1  0
  9 21  2  0
 10 22  2  0
 11 14  1  0
 12 15  1  0
 12 24  1  0
 13 14  1  0
 14 17  1  0
 17 24  1  0
 17 25  1  0
 20 24  1  0
 22 23  1  0
M  END
>  <ID>  (1) 
conformer_0

$$$$
