
     RDKit          3D

 31 33  0  0  0  0  0  0  0  0999 V2000
   33.6805   24.9795    2.4333 F   0  0  0  0  0  0  0  0  0  0  0  0
   30.7945   27.2517    0.7202 C   0  0  0  0  0  0  0  0  0  0  0  0
   29.3665   27.0134    0.8358 C   0  0  0  0  0  0  0  0  0  0  0  0
   30.5247   22.7120    4.9240 C   0  0  0  0  0  0  0  0  0  0  0  0
   30.2399   22.9992    1.2103 C   0  0  0  0  0  0  0  0  0  0  0  0
   31.5349   28.5522    6.0228 C   0  0  0  0  0  0  0  0  0  0  0  0
   30.7798   22.7506    2.4430 C   0  0  0  0  0  0  0  0  0  0  0  0
   36.1000   23.4715    5.6688 C   0  0  0  0  0  0  0  0  0  0  0  0
   34.1632   22.0734    5.7586 C   0  0  0  0  0  0  0  0  0  0  0  0
   28.9656   28.5741   -0.9913 C   0  0  0  0  0  0  0  0  0  0  0  0
   31.8606   27.4888    5.0629 N   0  0  0  0  0  0  0  0  0  0  0  0
   31.8455   27.8287    3.7561 C   0  0  0  0  0  0  0  0  0  0  0  0
   30.3274   28.6143   -1.2518 C   0  0  0  0  0  0  0  0  0  0  0  0
   32.5942   25.3274    4.5910 C   0  0  0  0  0  0  0  0  0  0  0  0
   28.5484   27.8001    0.0542 C   0  0  0  0  0  0  0  0  0  0  0  0
   31.8671   26.9247    1.5178 O   0  0  0  0  0  0  0  0  0  0  0  0
   32.6510   24.0052    4.9025 O   0  0  0  0  0  0  0  0  0  0  0  0
   32.2226   26.8712    2.8279 C   0  0  0  0  0  0  0  0  0  0  0  0
   32.2131   26.2650    5.5198 C   0  0  0  0  0  0  0  0  0  0  0  0
   36.1039   22.4446    4.5754 C   0  0  0  0  0  0  0  0  0  0  0  0
   28.5513   24.6743    1.7081 C   0  0  0  0  0  0  0  0  0  0  0  0
   31.9560   20.5129    5.5905 C   0  0  0  0  0  0  0  0  0  0  0  0
   28.4892   26.0470    1.6465 C   0  0  0  0  0  0  0  0  0  0  0  0
   31.2289   27.9717   -0.4136 C   0  0  0  0  0  0  0  0  0  0  0  0
   32.8204   25.7151    3.2785 C   0  0  0  0  0  0  0  0  0  0  0  0
   35.0524   21.5041    4.7797 O   0  0  0  0  0  0  0  0  0  0  0  0
   31.9747   22.8939    5.0399 C   0  0  0  0  0  0  0  0  0  0  0  0
   30.0352   23.0471    3.6083 C   0  0  0  0  0  0  0  0  0  0  0  0
   27.4201   26.5754    2.1448 O   0  0  0  0  0  0  0  0  0  0  0  0
   32.7916   21.6615    5.1727 C   0  0  0  0  0  0  0  0  0  0  0  0
   29.1087   23.7228    1.1076 C   0  0  0  0  0  0  0  0  0  0  0  0
  1 25  1  0
  2  3  1  0
  2 16  1  0
  2 24  2  0
  3 15  1  0
  3 23  1  0
  4 27  1  0
  4 28  1  0
  5  7  2  0
  5 31  1  0
  6 11  1  0
  7 28  1  0
  8 20  1  0
  9 26  1  0
  9 30  1  0
 10 13  1  0
 10 15  2  0
 11 12  1  0
 11 19  1  0
 12 18  1  0
 13 24  1  0
 14 17  1  0
 14 19  2  0
 14 25  1  0
 16 18  1  0
 17 27  1  0
 18 25  1  0
 20 26  1  0
 21 23  1  0
 21 31  1  0
 22 30  1  0
 23 29  1  0
 27 30  1  0
M  END
>  <ID>  (1) 
conformer_0

$$$$
