
     RDKit          3D

 29 31  0  0  0  0  0  0  0  0999 V2000
   35.7188   24.2988    5.5223 C   0  0  0  0  0  0  0  0  0  0  0  0
   31.6927   22.3946    4.0234 N   0  0  0  0  0  0  0  0  0  0  0  0
   33.2949   25.6215    3.0543 C   0  0  0  0  0  0  0  0  0  0  0  0
   31.3876   24.9600    0.9496 O   0  0  0  0  0  0  0  0  0  0  0  0
   28.1368   28.6126    3.5463 O   0  0  0  0  0  0  0  0  0  0  0  0
   29.1572   23.6577    0.8812 C   0  0  0  0  0  0  0  0  0  0  0  0
   32.4632   24.3615    2.9113 C   0  0  0  0  0  0  0  0  0  0  0  0
   30.1559   23.4618    2.4711 C   0  0  0  0  0  0  0  0  0  0  0  0
   28.6439   23.5843    2.1813 C   0  0  0  0  0  0  0  0  0  0  0  0
   30.9923   28.3768   -0.0905 C   0  0  0  0  0  0  0  0  0  0  0  0
   34.1593   25.6885    4.2759 C   0  0  0  0  0  0  0  0  0  0  0  0
   32.7170   23.2137    3.6658 C   0  0  0  0  0  0  0  0  0  0  0  0
   30.0761   28.5644    4.5925 O   0  0  0  0  0  0  0  0  0  0  0  0
   30.4033   26.8424    2.1247 C   0  0  0  0  0  0  0  0  0  0  0  0
   34.4989   24.3174    4.6524 N   0  0  0  0  0  0  0  0  0  0  0  0
   31.3340   27.0529   -0.1078 C   0  0  0  0  0  0  0  0  0  0  0  0
   30.3261   28.9323    1.0177 C   0  0  0  0  0  0  0  0  0  0  0  0
   33.4403   26.2812    5.5039 C   0  0  0  0  0  0  0  0  0  0  0  0
   32.6959   25.2531    6.3572 C   0  0  0  0  0  0  0  0  0  0  0  0
   31.0360   26.3091    1.0324 C   0  0  0  0  0  0  0  0  0  0  0  0
   29.3873   22.0669    4.1991 O   0  0  0  0  0  0  0  0  0  0  0  0
   34.9385   22.7197    2.9687 O   0  0  0  0  0  0  0  0  0  0  0  0
   30.0291   28.1395    2.2105 C   0  0  0  0  0  0  0  0  0  0  0  0
   29.3709   28.5613    3.5061 C   0  0  0  0  0  0  0  0  0  0  0  0
   32.5561   27.3711    5.0958 C   0  0  0  0  0  0  0  0  0  0  0  0
   34.2760   21.8273    5.1050 C   0  0  0  0  0  0  0  0  0  0  0  0
   30.4062   22.5741    3.5964 C   0  0  0  0  0  0  0  0  0  0  0  0
   31.3116   24.2388    2.1199 C   0  0  0  0  0  0  0  0  0  0  0  0
   34.1329   23.0043    4.0875 C   0  0  0  0  0  0  0  0  0  0  0  0
  1 15  1  0
  2 12  2  0
  2 27  1  0
  3  7  1  0
  3 11  1  0
  4 20  1  0
  4 28  1  0
  5 24  2  0
  6  9  1  0
  7 12  1  0
  7 28  1  0
  8  9  1  0
  8 27  1  0
  8 28  1  0
 10 16  2  0
 10 17  1  0
 11 15  1  0
 11 18  1  0
 12 29  1  0
 13 24  1  0
 14 20  1  0
 14 23  2  0
 15 29  1  0
 16 20  1  0
 17 23  1  0
 18 19  1  0
 18 25  1  0
 21 27  2  0
 22 29  1  0
 23 24  1  0
 26 29  1  0
M  END
>  <ID>  (1) 
conformer_0

$$$$
