
     RDKit          3D

 27 31  0  0  0  0  0  0  0  0999 V2000
   31.3118   24.0462    1.7496 C   0  0  0  0  0  0  0  0  0  0  0  0
   34.0577   23.9468    4.2329 C   0  0  0  0  0  0  0  0  0  0  0  0
   29.4191   28.3022    3.2458 O   0  0  0  0  0  0  0  0  0  0  0  0
   29.9738   28.3734   -0.3778 C   0  0  0  0  0  0  0  0  0  0  0  0
   31.6964   26.3896    2.2884 C   0  0  0  0  0  0  0  0  0  0  0  0
   30.2124   28.1212    0.9715 C   0  0  0  0  0  0  0  0  0  0  0  0
   30.4908   23.0557    0.9935 C   0  0  0  0  0  0  0  0  0  0  0  0
   33.0840   25.7989    2.5372 C   0  0  0  0  0  0  0  0  0  0  0  0
   27.8822   28.6723    1.4294 C   0  0  0  0  0  0  0  0  0  0  0  0
   31.1900   26.6993    3.7170 C   0  0  0  0  0  0  0  0  0  0  0  0
   33.5838   21.5492    7.8761 C   0  0  0  0  0  0  0  0  0  0  0  0
   31.7313   21.9245    4.6451 C   0  0  0  0  0  0  0  0  0  0  0  0
   31.5756   27.6659    1.4494 C   0  0  0  0  0  0  0  0  0  0  0  0
   35.0929   22.6085    6.0461 C   0  0  0  0  0  0  0  0  0  0  0  0
   32.5427   21.3088    6.8547 C   0  0  0  0  0  0  0  0  0  0  0  0
   29.1566   28.3485    1.8853 C   0  0  0  0  0  0  0  0  0  0  0  0
   32.9909   24.6298    3.4539 C   0  0  0  0  0  0  0  0  0  0  0  0
   32.7140   22.1530    5.6744 C   0  0  0  0  0  0  0  0  0  0  0  0
   33.8269   22.9757    5.2802 N   0  0  0  0  0  0  0  0  0  0  0  0
   31.9999   23.6787    2.9929 C   0  0  0  0  0  0  0  0  0  0  0  0
   35.2233   24.4555    4.1118 O   0  0  0  0  0  0  0  0  0  0  0  0
   30.7062   28.0974    3.8197 C   0  0  0  0  0  0  0  0  0  0  0  0
   27.6525   28.8588    0.0700 C   0  0  0  0  0  0  0  0  0  0  0  0
   28.6950   28.7142   -0.8176 C   0  0  0  0  0  0  0  0  0  0  0  0
   34.6698   22.5614    7.5096 C   0  0  0  0  0  0  0  0  0  0  0  0
   31.9156   22.3799    3.3924 N   0  0  0  0  0  0  0  0  0  0  0  0
   30.8258   25.3822    1.5956 C   0  0  0  0  0  0  0  0  0  0  0  0
  1  7  1  0
  1 20  1  0
  1 27  1  0
  2 17  1  0
  2 19  1  0
  2 21  2  0
  3 16  1  0
  3 22  1  0
  4  6  1  0
  4 24  2  0
  5  8  1  0
  5 10  1  0
  5 13  1  0
  5 27  1  0
  6 13  1  0
  6 16  2  0
  8 17  1  0
  9 16  1  0
  9 23  2  0
 10 22  1  0
 11 15  1  0
 11 25  1  0
 12 18  2  0
 12 26  1  0
 14 19  1  0
 14 25  1  0
 15 18  1  0
 17 20  1  0
 18 19  1  0
 20 26  1  0
 23 24  1  0
M  END
>  <ID>  (1) 
conformer_0

$$$$
