
     RDKit          3D

 21 23  0  0  0  0  0  0  0  0999 V2000
   29.7880   27.7214   -0.6695 C   0  0  0  0  0  0  0  0  0  0  0  0
   32.0459   26.5280    0.9301 C   0  0  0  0  0  0  0  0  0  0  0  0
   30.6898   24.6627    2.0292 C   0  0  0  0  0  0  0  0  0  0  0  0
   28.0662   27.3266    1.4302 C   0  0  0  0  0  0  0  0  0  0  0  0
   29.4519   26.7913    1.8104 C   0  0  0  0  0  0  0  0  0  0  0  0
   31.2052   27.1542   -0.1873 C   0  0  0  0  0  0  0  0  0  0  0  0
   32.5697   23.1014    2.9547 C   0  0  0  0  0  0  0  0  0  0  0  0
   34.1760   24.6544    6.0419 C   0  0  0  0  0  0  0  0  0  0  0  0
   31.8217   25.7130    2.2153 C   0  0  0  0  0  0  0  0  0  0  0  0
   33.0561   23.9421    5.3156 C   0  0  0  0  0  0  0  0  0  0  0  0
   30.2385   22.4803    3.1215 O   0  0  0  0  0  0  0  0  0  0  0  0
   31.5928   27.9739    1.0691 C   0  0  0  0  0  0  0  0  0  0  0  0
   32.8008   25.5809    3.3067 C   0  0  0  0  0  0  0  0  0  0  0  0
   28.3975   27.9867    0.0208 C   0  0  0  0  0  0  0  0  0  0  0  0
   29.3533   24.1314    1.2870 C   0  0  0  0  0  0  0  0  0  0  0  0
   35.4861   24.4975    5.2631 C   0  0  0  0  0  0  0  0  0  0  0  0
   31.1174   23.4081    2.7855 C   0  0  0  0  0  0  0  0  0  0  0  0
   33.1937   24.1993    3.8247 C   0  0  0  0  0  0  0  0  0  0  0  0
   30.3797   28.0266    2.0350 C   0  0  0  0  0  0  0  0  0  0  0  0
   33.8105   26.1015    6.3071 C   0  0  0  0  0  0  0  0  0  0  0  0
   29.6836   25.4477    1.0266 C   0  0  0  0  0  0  0  0  0  0  0  0
  1  6  2  0
  1 14  1  0
  2  6  1  0
  2  9  1  0
  2 12  1  0
  3  9  1  0
  3 15  1  0
  3 17  1  0
  4  5  1  0
  4 14  1  0
  5 19  1  0
  5 21  1  0
  7 17  1  0
  7 18  1  0
  8 10  1  0
  8 16  1  0
  8 20  1  0
  9 13  1  0
 10 18  1  0
 11 17  1  0
 12 19  1  0
 13 18  1  0
 15 21  1  0
M  END
>  <ID>  (1) 
conformer_0

$$$$
