
     RDKit          3D

 35 40  0  0  0  0  0  0  0  0999 V2000
   29.7693   26.1163    1.2492 C   0  0  0  0  0  0  0  0  0  0  0  0
   30.6155   23.9295    2.0712 C   0  0  0  0  0  0  0  0  0  0  0  0
   32.9428   23.6661    1.2197 C   0  0  0  0  0  0  0  0  0  0  0  0
   33.5672   22.5477    5.9284 C   0  0  0  0  0  0  0  0  0  0  0  0
   34.3554   22.5501    3.5236 C   0  0  0  0  0  0  0  0  0  0  0  0
   31.9307   22.4578    3.6918 C   0  0  0  0  0  0  0  0  0  0  0  0
   33.7627   24.8971    5.7202 C   0  0  0  0  0  0  0  0  0  0  0  0
   30.0973   21.1046    4.6970 C   0  0  0  0  0  0  0  0  0  0  0  0
   31.0533   28.6003    3.9930 C   0  0  0  0  0  0  0  0  0  0  0  0
   29.7802   28.7094    1.7376 C   0  0  0  0  0  0  0  0  0  0  0  0
   30.6105   22.9107    3.1343 C   0  0  0  0  0  0  0  0  0  0  0  0
   33.4288   24.7990    4.2022 C   0  0  0  0  0  0  0  0  0  0  0  0
   28.2179   23.7937    1.6951 C   0  0  0  0  0  0  0  0  0  0  0  0
   30.8828   28.1169    2.5848 C   0  0  0  0  0  0  0  0  0  0  0  0
   32.9916   23.3403    3.8343 C   0  0  0  0  0  0  0  0  0  0  0  0
   30.4393   26.8554    0.0674 C   0  0  0  0  0  0  0  0  0  0  0  0
   32.3269   27.8279    1.9399 C   0  0  0  0  0  0  0  0  0  0  0  0
   30.2431   22.0967    5.8568 C   0  0  0  0  0  0  0  0  0  0  0  0
   35.3992   21.2325    5.2808 O   0  0  0  0  0  0  0  0  0  0  0  0
   31.9478   27.7806    4.8907 C   0  0  0  0  0  0  0  0  0  0  0  0
   32.1112   26.1514    2.0907 C   0  0  0  0  0  0  0  0  0  0  0  0
   31.9303   24.6391    1.7696 C   0  0  0  0  0  0  0  0  0  0  0  0
   32.3071   20.5509    6.2743 O   0  0  0  0  0  0  0  0  0  0  0  0
   34.5418   23.5049    5.9245 C   0  0  0  0  0  0  0  0  0  0  0  0
   30.1385   28.3322    0.2620 C   0  0  0  0  0  0  0  0  0  0  0  0
   33.4305   27.5739    4.4936 C   0  0  0  0  0  0  0  0  0  0  0  0
   31.1381   23.4032    5.8185 C   0  0  0  0  0  0  0  0  0  0  0  0
   29.9699   26.0533    3.7404 O   0  0  0  0  0  0  0  0  0  0  0  0
   32.3528   22.7331    5.0831 C   0  0  0  0  0  0  0  0  0  0  0  0
   35.9004   23.9124    6.0583 O   0  0  0  0  0  0  0  0  0  0  0  0
   30.5469   26.5168    2.5501 C   0  0  0  0  0  0  0  0  0  0  0  0
   29.4504   24.6289    1.3302 C   0  0  0  0  0  0  0  0  0  0  0  0
   29.5734   21.8511    3.4379 C   0  0  0  0  0  0  0  0  0  0  0  0
   34.6802   22.2820    4.9396 C   0  0  0  0  0  0  0  0  0  0  0  0
   32.7486   21.6656    6.0363 C   0  0  0  0  0  0  0  0  0  0  0  0
  1 16  1  0
  1 31  1  0
  1 32  1  0
  2 11  1  0
  2 22  1  0
  2 32  1  0
  3 22  1  0
  4 24  1  0
  4 34  1  0
  4 35  1  0
  5 15  1  0
  5 34  1  0
  6 11  1  0
  6 15  1  0
  6 29  1  0
  7 12  1  0
  7 24  1  0
  8 18  1  0
  8 33  1  0
  9 14  1  0
  9 20  1  0
 10 14  1  0
 10 25  1  0
 11 33  1  0
 12 15  1  0
 13 32  1  0
 14 17  1  0
 14 31  1  0
 16 25  1  0
 17 21  1  0
 18 27  1  0
 19 34  1  0
 20 26  1  0
 21 22  1  0
 21 31  1  0
 23 35  2  0
 24 30  1  0
 27 29  1  0
 28 31  1  0
 29 35  1  0
M  END
>  <ID>  (1) 
conformer_0

$$$$
