
     RDKit          3D

 22 25  0  0  0  0  0  0  0  0999 V2000
   32.6361   25.7080    2.9088 C   0  0  0  0  0  0  0  0  0  0  0  0
   30.7715   26.5112    1.4575 C   0  0  0  0  0  0  0  0  0  0  0  0
   29.8098   28.9258    0.6598 C   0  0  0  0  0  0  0  0  0  0  0  0
   28.8151   27.9448    1.0431 O   0  0  0  0  0  0  0  0  0  0  0  0
   35.0706   24.5236    4.8313 C   0  0  0  0  0  0  0  0  0  0  0  0
   31.7637   27.6195    1.5196 C   0  0  0  0  0  0  0  0  0  0  0  0
   29.9788   23.3180    1.6509 C   0  0  0  0  0  0  0  0  0  0  0  0
   33.0965   26.6823    6.4913 O   0  0  0  0  0  0  0  0  0  0  0  0
   33.2570   26.1600    5.3840 C   0  0  0  0  0  0  0  0  0  0  0  0
   33.4850   22.1537    5.6791 C   0  0  0  0  0  0  0  0  0  0  0  0
   32.1436   23.2848    3.0298 C   0  0  0  0  0  0  0  0  0  0  0  0
   31.0107   28.9095    1.5818 C   0  0  0  0  0  0  0  0  0  0  0  0
   31.3111   25.3696    2.1810 C   0  0  0  0  0  0  0  0  0  0  0  0
   28.4407   25.5523    1.6706 C   0  0  0  0  0  0  0  0  0  0  0  0
   28.8938   24.2141    1.0732 C   0  0  0  0  0  0  0  0  0  0  0  0
   32.9736   23.5632    6.0238 C   0  0  0  0  0  0  0  0  0  0  0  0
   31.3670   23.9339    1.8413 C   0  0  0  0  0  0  0  0  0  0  0  0
   33.5287   24.6696    5.0803 C   0  0  0  0  0  0  0  0  0  0  0  0
   29.3496   26.6887    1.2612 C   0  0  0  0  0  0  0  0  0  0  0  0
   31.4752   23.7138    6.3340 C   0  0  0  0  0  0  0  0  0  0  0  0
   32.6954   27.2726    2.7313 C   0  0  0  0  0  0  0  0  0  0  0  0
   32.8585   24.4306    3.7173 C   0  0  0  0  0  0  0  0  0  0  0  0
  1 13  1  0
  1 21  1  0
  1 22  1  0
  2  6  1  0
  2 13  1  0
  2 19  1  0
  3  4  1  0
  3 12  1  0
  4 19  1  0
  5 18  1  0
  6 12  1  0
  6 21  1  0
  7 15  1  0
  7 17  1  0
  8  9  2  0
  9 18  1  0
 10 16  1  0
 11 17  1  0
 11 22  1  0
 13 17  1  0
 14 15  1  0
 14 19  1  0
 16 18  1  0
 16 20  1  0
 18 22  1  0
M  END
>  <ID>  (1) 
conformer_0

$$$$
