
     RDKit          3D

 22 24  0  0  0  0  0  0  0  0999 V2000
   29.4069   28.8169   -0.5626 C   0  0  0  0  0  0  0  0  0  0  0  0
   33.7215   24.0696    3.7993 C   0  0  0  0  0  0  0  0  0  0  0  0
   29.1343   25.3443    1.1186 C   0  0  0  0  0  0  0  0  0  0  0  0
   32.8156   24.3201    2.7208 C   0  0  0  0  0  0  0  0  0  0  0  0
   28.9081   26.7181    1.0070 O   0  0  0  0  0  0  0  0  0  0  0  0
   31.5579   27.2034    0.7416 C   0  0  0  0  0  0  0  0  0  0  0  0
   34.5940   22.9487    3.7529 C   0  0  0  0  0  0  0  0  0  0  0  0
   33.7082   24.9394    4.9112 C   0  0  0  0  0  0  0  0  0  0  0  0
   32.4995   22.8267    7.6785 C   0  0  0  0  0  0  0  0  0  0  0  0
   32.6765   25.5626    2.2053 C   0  0  0  0  0  0  0  0  0  0  0  0
   31.9455   23.2701    2.3220 C   0  0  0  0  0  0  0  0  0  0  0  0
   31.5560   25.8639    1.4791 C   0  0  0  0  0  0  0  0  0  0  0  0
   30.0144   28.7888    1.9623 O   0  0  0  0  0  0  0  0  0  0  0  0
   30.5079   24.9488    1.3974 C   0  0  0  0  0  0  0  0  0  0  0  0
   34.9433   22.1538    4.8204 C   0  0  0  0  0  0  0  0  0  0  0  0
   33.6256   25.5907    7.2004 O   0  0  0  0  0  0  0  0  0  0  0  0
   33.6154   23.1840    6.6869 C   0  0  0  0  0  0  0  0  0  0  0  0
   28.1345   24.3704    1.1918 F   0  0  0  0  0  0  0  0  0  0  0  0
   29.9401   27.9396    0.7895 S   0  0  0  0  0  4  0  0  0  0  0  0
   33.6512   24.5879    6.2764 C   0  0  0  0  0  0  0  0  0  0  0  0
   34.3972   22.2075    6.1124 C   0  0  0  0  0  0  0  0  0  0  0  0
   30.7682   23.6090    1.6977 C   0  0  0  0  0  0  0  0  0  0  0  0
  1 19  1  0
  2  4  1  0
  2  7  1  0
  2  8  1  0
  3  5  1  0
  3 14  2  0
  3 18  1  0
  4 10  2  0
  4 11  1  0
  5 19  1  0
  6 12  1  0
  6 19  1  0
  7 15  2  0
  8 20  2  0
  9 17  1  0
 10 12  1  0
 11 22  2  0
 12 14  1  0
 13 19  1  0
 14 22  1  0
 15 21  1  0
 16 20  1  0
 17 20  1  0
 17 21  1  0
M  END
>  <ID>  (1) 
conformer_0

$$$$
