
     RDKit          3D

 25 26  0  0  0  0  0  0  0  0999 V2000
   33.4571   25.6879    5.9565 C   0  0  0  0  0  0  0  0  0  0  0  0
   32.7108   26.2700    1.8104 C   0  0  0  0  0  0  0  0  0  0  0  0
   30.4397   28.1931    0.4246 C   0  0  0  0  0  0  0  0  0  0  0  0
   30.4275   27.6718    4.1076 C   0  0  0  0  0  0  0  0  0  0  0  0
   33.0307   25.1539    4.8047 C   0  0  0  0  0  0  0  0  0  0  0  0
   29.7467   27.4875   -0.4782 O   0  0  0  0  0  0  0  0  0  0  0  0
   29.7157   29.4222    0.6762 C   0  0  0  0  0  0  0  0  0  0  0  0
   34.7540   23.4619    4.8514 C   0  0  0  0  0  0  0  0  0  0  0  0
   30.6472   24.8349    1.8565 C   0  0  0  0  0  0  0  0  0  0  0  0
   35.1790   23.9838    6.0933 C   0  0  0  0  0  0  0  0  0  0  0  0
   31.5763   25.8870   -0.0872 F   0  0  0  0  0  0  0  0  0  0  0  0
   28.5907   23.6866    2.3307 C   0  0  0  0  0  0  0  0  0  0  0  0
   31.3402   26.1068    1.3296 C   0  0  0  0  0  0  0  0  0  0  0  0
   30.9945   28.1082    2.8487 O   0  0  0  0  0  0  0  0  0  0  0  0
   34.5384   25.1138    6.6910 C   0  0  0  0  0  0  0  0  0  0  0  0
   33.1275   23.4309    2.6997 S   0  0  0  0  0  0  0  0  0  0  0  0
   32.7978   26.7971    6.4139 O   0  0  0  0  0  0  0  0  0  0  0  0
   33.6214   24.0799    4.2204 C   0  0  0  0  0  0  0  0  0  0  0  0
   30.5924   22.9621    3.4489 C   0  0  0  0  0  0  0  0  0  0  0  0
   31.7339   28.5237    0.0026 F   0  0  0  0  0  0  0  0  0  0  0  0
   31.1666   22.2163    4.4945 O   0  0  0  0  0  0  0  0  0  0  0  0
   31.3688   23.8440    2.6117 C   0  0  0  0  0  0  0  0  0  0  0  0
   29.2191   22.8628    3.2594 C   0  0  0  0  0  0  0  0  0  0  0  0
   30.5933   27.3457    1.6978 C   0  0  0  0  0  0  0  0  0  0  0  0
   29.3107   24.6602    1.6459 C   0  0  0  0  0  0  0  0  0  0  0  0
  1  5  2  0
  1 15  1  0
  1 17  1  0
  2 13  1  0
  3  6  1  0
  3  7  1  0
  3 20  1  0
  3 24  1  0
  4 14  1  0
  5 18  1  0
  8 10  1  0
  8 18  2  0
  9 13  1  0
  9 22  1  0
  9 25  2  0
 10 15  2  0
 11 13  1  0
 12 23  1  0
 12 25  1  0
 13 24  1  0
 14 24  1  0
 16 18  1  0
 16 22  1  0
 19 21  1  0
 19 22  1  0
 19 23  2  0
M  END
>  <ID>  (1) 
conformer_0

$$$$
