
     RDKit          3D

 24 26  0  0  0  0  0  0  0  0999 V2000
   28.6802   23.0363    2.5963 C   0  0  0  0  0  0  0  0  0  0  0  0
   32.6463   25.5916    5.2155 C   0  0  0  0  0  0  0  0  0  0  0  0
   28.7055   27.9602    1.9233 O   0  0  0  0  0  0  0  0  0  0  0  0
   29.6166   23.9732    2.1695 C   0  0  0  0  0  0  0  0  0  0  0  0
   29.2905   25.0831    1.1568 C   0  0  0  0  0  0  0  0  0  0  0  0
   32.1440   26.5087    4.1826 C   0  0  0  0  0  0  0  0  0  0  0  0
   30.8378   23.9404    2.6867 C   0  0  0  0  0  0  0  0  0  0  0  0
   31.2904   27.6588    4.4575 C   0  0  0  0  0  0  0  0  0  0  0  0
   30.1978   27.7426    3.5983 N   0  0  0  0  0  0  0  0  0  0  0  0
   30.2483   26.2319    1.5381 C   0  0  0  0  0  0  0  0  0  0  0  0
   32.8195   23.3363    3.9713 C   0  0  0  0  0  0  0  0  0  0  0  0
   30.7387   27.7807   -0.6738 Cl  0  0  0  0  0  0  0  0  0  0  0  0
   29.7271   27.3427    2.3901 C   0  0  0  0  0  0  0  0  0  0  0  0
   30.4331   22.1757    4.0580 C   0  0  0  0  0  0  0  0  0  0  0  0
   34.7186   24.2637    5.1789 C   0  0  0  0  0  0  0  0  0  0  0  0
   31.4629   28.5912    5.3190 O   0  0  0  0  0  0  0  0  0  0  0  0
   31.3790   23.1534    3.6111 C   0  0  0  0  0  0  0  0  0  0  0  0
   33.3029   26.3877    6.3123 C   0  0  0  0  0  0  0  0  0  0  0  0
   33.7004   22.3947    3.3993 C   0  0  0  0  0  0  0  0  0  0  0  0
   31.2662   26.5725    0.4158 C   0  0  0  0  0  0  0  0  0  0  0  0
   33.3919   24.3917    4.7752 C   0  0  0  0  0  0  0  0  0  0  0  0
   35.0073   22.3588    3.7634 C   0  0  0  0  0  0  0  0  0  0  0  0
   35.5423   23.2806    4.6697 C   0  0  0  0  0  0  0  0  0  0  0  0
   29.1454   22.1232    3.5416 N   0  0  0  0  0  0  0  0  0  0  0  0
  1  4  2  0
  1 24  1  0
  2  6  1  0
  2 18  1  0
  2 21  1  0
  3 13  2  0
  4  5  1  0
  4  7  1  0
  5 10  1  0
  6  8  1  0
  7 17  2  0
  8  9  1  0
  8 16  2  0
  9 13  1  0
 10 13  1  0
 10 20  1  0
 11 17  1  0
 11 19  2  0
 11 21  1  0
 12 20  1  0
 14 17  1  0
 14 24  2  0
 15 21  2  0
 15 23  1  0
 19 22  1  0
 22 23  2  0
M  END
>  <ID>  (1) 
conformer_0

$$$$
