
     RDKit          3D

 40 45  0  0  0  0  0  0  0  0999 V2000
   31.4825   22.4983    2.9875 C   0  0  0  0  0  0  0  0  0  0  0  0
   29.6503   27.4176    1.0958 C   0  0  0  0  0  0  0  0  0  0  0  0
   28.8138   27.9806    0.0371 C   0  0  0  0  0  0  0  0  0  0  0  0
   33.0076   20.3983    8.6022 C   0  0  0  0  0  0  0  0  0  0  0  0
   34.6594   22.2373    5.1681 C   0  0  0  0  0  0  0  0  0  0  0  0
   31.5915   25.4973    5.7953 C   0  0  0  0  0  0  0  0  0  0  0  0
   31.2031   23.0960    6.8521 C   0  0  0  0  0  0  0  0  0  0  0  0
   30.7587   29.0500    5.4221 N   0  0  0  0  0  0  0  0  0  0  0  0
   35.0628   23.4707    3.1882 C   0  0  0  0  0  0  0  0  0  0  0  0
   31.0043   27.8370    5.8959 C   0  0  0  0  0  0  0  0  0  0  0  0
   35.5085   22.9173    4.3792 C   0  0  0  0  0  0  0  0  0  0  0  0
   33.3365   22.0378    4.8685 C   0  0  0  0  0  0  0  0  0  0  0  0
   31.0054   26.8467    3.7630 C   0  0  0  0  0  0  0  0  0  0  0  0
   30.7090   27.2558   -1.0442 C   0  0  0  0  0  0  0  0  0  0  0  0
   33.7865   23.2786    2.8250 C   0  0  0  0  0  0  0  0  0  0  0  0
   32.9490   21.4525    7.4804 C   0  0  0  0  0  0  0  0  0  0  0  0
   30.5660   21.8157    3.4382 O   0  0  0  0  0  0  0  0  0  0  0  0
   27.6950   29.3039   -2.1267 C   0  0  0  0  0  0  0  0  0  0  0  0
   26.9833   29.1909   -0.9115 C   0  0  0  0  0  0  0  0  0  0  0  0
   32.8490   22.6128    3.5714 C   0  0  0  0  0  0  0  0  0  0  0  0
   31.1876   26.6981    5.1411 C   0  0  0  0  0  0  0  0  0  0  0  0
   31.2084   23.2094    1.8550 O   0  0  0  0  0  0  0  0  0  0  0  0
   32.1391   26.5742    0.8240 C   0  0  0  0  0  0  0  0  0  0  0  0
   33.7145   20.5498    9.6357 O   0  0  0  0  0  0  0  0  0  0  0  0
   30.5904   29.2110    4.1100 C   0  0  0  0  0  0  0  0  0  0  0  0
   31.0173   24.6890    1.9198 C   0  0  0  0  0  0  0  0  0  0  0  0
   30.7208   26.6654    0.3700 C   0  0  0  0  0  0  0  0  0  0  0  0
   27.5127   28.4794    0.1592 C   0  0  0  0  0  0  0  0  0  0  0  0
   31.3992   24.3562    6.4134 N   0  0  0  0  0  0  0  0  0  0  0  0
   31.8219   22.4434    7.8904 N   0  0  0  0  0  0  0  0  0  0  0  0
   29.4767   28.0131   -1.1583 C   0  0  0  0  0  0  0  0  0  0  0  0
   30.6913   28.1328    3.2545 C   0  0  0  0  0  0  0  0  0  0  0  0
   30.3307   28.4665    1.8426 C   0  0  0  0  0  0  0  0  0  0  0  0
   32.6527   21.1344    6.0272 C   0  0  0  0  0  0  0  0  0  0  0  0
   28.9433   28.6817   -2.2619 C   0  0  0  0  0  0  0  0  0  0  0  0
   36.7509   23.0801    4.8133 F   0  0  0  0  0  0  0  0  0  0  0  0
   31.1408   25.6703    2.9571 O   0  0  0  0  0  0  0  0  0  0  0  0
   26.8165   28.2440    1.3807 C   0  0  0  0  0  0  0  0  0  0  0  0
   32.4806   19.2546    8.3404 O   0  0  0  0  0  0  0  0  0  0  0  0
   32.0434   25.0978    0.7849 C   0  0  0  0  0  0  0  0  0  0  0  0
  1 17  2  0
  1 20  1  0
  1 22  1  0
  2  3  1  0
  2 27  1  0
  2 33  1  0
  3 28  2  0
  3 31  1  0
  4 16  1  0
  4 24  2  0
  4 39  1  0
  5 11  1  0
  5 12  2  0
  6 21  1  0
  6 29  1  0
  7 29  1  0
  7 30  1  0
  8 10  2  0
  8 25  1  0
  9 11  2  0
  9 15  1  0
 10 21  1  0
 11 36  1  0
 12 20  1  0
 12 34  1  0
 13 21  2  0
 13 32  1  0
 13 37  1  0
 14 27  1  0
 14 31  1  0
 15 20  2  0
 16 30  1  0
 16 34  1  0
 18 19  2  0
 18 35  1  0
 19 28  1  0
 22 26  1  0
 23 27  1  0
 23 40  1  0
 25 32  2  0
 26 37  1  0
 26 40  1  0
 28 38  1  0
 31 35  2  0
 32 33  1  0
M  END
>  <ID>  (1) 
conformer_0

$$$$
