
     RDKit          3D

 24 28  0  0  0  0  0  0  0  0999 V2000
   30.5399   27.1284    0.8888 C   0  0  0  0  0  0  0  0  0  0  0  0
   32.7724   23.5278    4.3659 N   0  0  0  0  0  0  0  0  0  0  0  0
   32.5831   21.4121    4.8217 C   0  0  0  0  0  0  0  0  0  0  0  0
   30.8169   23.8640    2.7702 C   0  0  0  0  0  0  0  0  0  0  0  0
   33.4836   22.4475    4.8719 C   0  0  0  0  0  0  0  0  0  0  0  0
   34.9787   24.2919    5.0435 C   0  0  0  0  0  0  0  0  0  0  0  0
   29.6296   23.3805    2.2326 C   0  0  0  0  0  0  0  0  0  0  0  0
   32.2650   26.0713    4.4501 C   0  0  0  0  0  0  0  0  0  0  0  0
   31.1940   25.1546    2.3799 C   0  0  0  0  0  0  0  0  0  0  0  0
   33.3779   26.1088    5.4204 C   0  0  0  0  0  0  0  0  0  0  0  0
   33.4837   24.7830    4.7339 C   0  0  0  0  0  0  0  0  0  0  0  0
   31.4394   21.8182    4.1226 C   0  0  0  0  0  0  0  0  0  0  0  0
   34.8338   22.7407    5.2041 C   0  0  0  0  0  0  0  0  0  0  0  0
   31.6665   27.5184    0.0829 C   0  0  0  0  0  0  0  0  0  0  0  0
   27.0851   27.2085    1.6461 C   0  0  0  0  0  0  0  0  0  0  0  0
   28.3394   26.7840    1.2721 C   0  0  0  0  0  0  0  0  0  0  0  0
   32.3443   25.9050    2.9518 C   0  0  0  0  0  0  0  0  0  0  0  0
   35.9942   21.9700    4.9156 C   0  0  0  0  0  0  0  0  0  0  0  0
   29.3400   27.7146    0.8961 N   0  0  0  0  0  0  0  0  0  0  0  0
   31.6080   23.1098    3.7192 C   0  0  0  0  0  0  0  0  0  0  0  0
   28.6860   24.2262    1.6434 C   0  0  0  0  0  0  0  0  0  0  0  0
   29.0035   25.5785    1.4997 C   0  0  0  0  0  0  0  0  0  0  0  0
   29.3832   29.1956    0.7107 C   0  0  0  0  0  0  0  0  0  0  0  0
   30.3685   25.9168    1.5814 C   0  0  0  0  0  0  0  0  0  0  0  0
  1 14  1  0
  1 19  1  0
  1 24  1  0
  2  5  1  0
  2 11  1  0
  2 20  1  0
  3  5  1  0
  3 12  1  0
  4  7  1  0
  4  9  1  0
  4 20  2  0
  5 13  1  0
  6 11  1  0
  6 13  1  0
  7 21  2  0
  8 10  1  0
  8 17  1  0
  9 17  1  0
  9 24  1  0
 10 11  1  0
 12 20  1  0
 13 18  1  0
 15 16  2  0
 16 19  1  0
 16 22  1  0
 19 23  1  0
 21 22  1  0
 22 24  1  0
M  END
>  <ID>  (1) 
conformer_0

$$$$
