
     RDKit          3D

 19 21  0  0  0  0  0  0  0  0999 V2000
   33.4075   25.8410    5.3115 O   0  0  0  0  0  0  0  0  0  0  0  0
   31.2793   27.3384    3.8653 O   0  0  0  0  0  0  0  0  0  0  0  0
   31.1662   25.4472    2.2841 C   0  0  0  0  0  0  0  0  0  0  0  0
   31.4097   27.7076    5.1912 C   0  0  0  0  0  0  0  0  0  0  0  0
   30.0116   26.0600    1.6636 N   0  0  0  0  0  0  0  0  0  0  0  0
   28.7891   25.2789    1.6783 C   0  0  0  0  0  0  0  0  0  0  0  0
   28.8423   23.7858    1.6628 N   0  0  0  0  0  0  0  0  0  0  0  0
   34.6735   24.0842    4.2821 C   0  0  0  0  0  0  0  0  0  0  0  0
   31.7346   26.1220    3.4157 C   0  0  0  0  0  0  0  0  0  0  0  0
   29.7414   28.3694   -0.8286 C   0  0  0  0  0  0  0  0  0  0  0  0
   32.8282   25.5056    4.0766 C   0  0  0  0  0  0  0  0  0  0  0  0
   34.4455   24.8638    5.6240 C   0  0  0  0  0  0  0  0  0  0  0  0
   31.7445   24.2875    1.8229 C   0  0  0  0  0  0  0  0  0  0  0  0
   30.2825   27.4038    1.1119 C   0  0  0  0  0  0  0  0  0  0  0  0
   27.7381   25.8387    1.8017 O   0  0  0  0  0  0  0  0  0  0  0  0
   33.4469   24.4240    3.5334 C   0  0  0  0  0  0  0  0  0  0  0  0
   30.7283   27.2573   -0.3860 C   0  0  0  0  0  0  0  0  0  0  0  0
   29.2989   28.4889    0.6678 C   0  0  0  0  0  0  0  0  0  0  0  0
   32.8859   23.7713    2.4174 C   0  0  0  0  0  0  0  0  0  0  0  0
  1 11  1  0
  1 12  1  0
  2  4  1  0
  2  9  1  0
  3  5  1  0
  3  9  1  0
  3 13  2  0
  5  6  1  0
  5 14  1  0
  6  7  1  0
  6 15  2  0
  8 12  1  0
  8 16  1  0
  9 11  2  0
 10 17  1  0
 10 18  1  0
 11 16  1  0
 13 19  1  0
 14 17  1  0
 14 18  1  0
 16 19  2  0
M  END
>  <ID>  (1) 
conformer_0

$$$$
