
     RDKit          3D

 33 36  0  0  0  0  0  0  0  0999 V2000
   32.6684   23.9695    4.0282 C   0  0  0  0  0  0  0  0  0  0  0  0
   34.0420   23.1837    2.2831 O   0  0  0  0  0  0  0  0  0  0  0  0
   32.7122   28.0951    4.7383 C   0  0  0  0  0  0  0  0  0  0  0  0
   29.1139   28.7930    0.1708 C   0  0  0  0  0  0  0  0  0  0  0  0
   32.5303   21.9738    5.5551 C   0  0  0  0  0  0  0  0  0  0  0  0
   31.2091   28.2047    4.5967 C   0  0  0  0  0  0  0  0  0  0  0  0
   33.2054   26.6553    5.1067 C   0  0  0  0  0  0  0  0  0  0  0  0
   30.5424   28.6360    5.6708 O   0  0  0  0  0  0  0  0  0  0  0  0
   29.8521   23.6839    1.0926 C   0  0  0  0  0  0  0  0  0  0  0  0
   33.5027   22.2608    6.6824 C   0  0  0  0  0  0  0  0  0  0  0  0
   31.8248   26.0975    3.0931 C   0  0  0  0  0  0  0  0  0  0  0  0
   30.5830   28.5104    3.2857 C   0  0  0  0  0  0  0  0  0  0  0  0
   32.9446   25.5903    3.9815 C   0  0  0  0  0  0  0  0  0  0  0  0
   29.2559   27.5500    0.9482 C   0  0  0  0  0  0  0  0  0  0  0  0
   30.6970   27.1876    1.2047 C   0  0  0  0  0  0  0  0  0  0  0  0
   30.7497   25.9331    2.0915 C   0  0  0  0  0  0  0  0  0  0  0  0
   32.5962   22.8288    7.7944 C   0  0  0  0  0  0  0  0  0  0  0  0
   31.3674   21.6872    4.7129 O   0  0  0  0  0  0  0  0  0  0  0  0
   28.3290   26.3758    0.7997 C   0  0  0  0  0  0  0  0  0  0  0  0
   33.0639   23.2294    5.2309 C   0  0  0  0  0  0  0  0  0  0  0  0
   29.4132   29.0224    3.2159 O   0  0  0  0  0  0  0  0  0  0  0  0
   32.9306   28.2339    2.1343 C   0  0  0  0  0  0  0  0  0  0  0  0
   32.7840   23.6170    2.5244 C   0  0  0  0  0  0  0  0  0  0  0  0
   34.9080   22.7833    6.9610 C   0  0  0  0  0  0  0  0  0  0  0  0
   30.4304   24.4704    2.2901 C   0  0  0  0  0  0  0  0  0  0  0  0
   34.2206   23.7384    4.8638 C   0  0  0  0  0  0  0  0  0  0  0  0
   30.6797   22.4655    3.7829 C   0  0  0  0  0  0  0  0  0  0  0  0
   31.3767   28.3729    2.0462 C   0  0  0  0  0  0  0  0  0  0  0  0
   32.7576   24.2482    1.0586 C   0  0  0  0  0  0  0  0  0  0  0  0
   31.5133   27.0484   -0.0835 C   0  0  0  0  0  0  0  0  0  0  0  0
   29.1758   22.5842    3.7305 C   0  0  0  0  0  0  0  0  0  0  0  0
   35.3370   23.7301    5.8721 C   0  0  0  0  0  0  0  0  0  0  0  0
   31.4494   23.6232    3.1470 C   0  0  0  0  0  0  0  0  0  0  0  0
  1 13  1  0
  1 20  1  0
  1 33  1  0
  2 23  1  0
  3  6  1  0
  3  7  1  0
  4 14  1  0
  5 10  1  0
  5 18  1  0
  5 20  1  0
  6  8  1  0
  6 12  1  0
  7 13  1  0
  9 25  1  0
 10 17  1  0
 10 24  1  0
 11 13  1  0
 11 16  1  0
 12 21  2  0
 12 28  1  0
 14 15  1  0
 14 19  1  0
 15 16  1  0
 15 28  1  0
 15 30  1  0
 16 25  1  0
 18 27  1  0
 20 26  1  0
 22 28  1  0
 23 29  1  0
 23 33  1  0
 24 32  1  0
 25 33  1  0
 26 32  1  0
 27 31  1  0
 27 33  1  0
M  END
>  <ID>  (1) 
conformer_0

$$$$
