
     RDKit          3D

 29 31  0  0  0  0  0  0  0  0999 V2000
   31.1952   28.1491    5.6674 C   0  0  0  0  0  0  0  0  0  0  0  0
   31.5613   26.3529    0.2716 C   0  0  0  0  0  0  0  0  0  0  0  0
   31.0348   27.2743   -0.5085 C   0  0  0  0  0  0  0  0  0  0  0  0
   29.7179   27.8596    2.2751 C   0  0  0  0  0  0  0  0  0  0  0  0
   32.9823   24.1383    6.7677 C   0  0  0  0  0  0  0  0  0  0  0  0
   28.9109   28.6465    1.3291 C   0  0  0  0  0  0  0  0  0  0  0  0
   28.2473   29.9148   -0.8041 C   0  0  0  0  0  0  0  0  0  0  0  0
   29.5273   28.3349    3.7595 C   0  0  0  0  0  0  0  0  0  0  0  0
   35.7504   24.0142    6.3066 C   0  0  0  0  0  0  0  0  0  0  0  0
   29.1361   28.8700   -0.1148 C   0  0  0  0  0  0  0  0  0  0  0  0
   31.2671   25.9616    1.6251 C   0  0  0  0  0  0  0  0  0  0  0  0
   30.3855   23.8657    2.4840 C   0  0  0  0  0  0  0  0  0  0  0  0
   30.1111   28.1877   -0.8205 C   0  0  0  0  0  0  0  0  0  0  0  0
   33.4464   23.9931    5.4168 C   0  0  0  0  0  0  0  0  0  0  0  0
   32.6802   24.3746    3.0888 C   0  0  0  0  0  0  0  0  0  0  0  0
   33.9400   24.3140    2.3961 C   0  0  0  0  0  0  0  0  0  0  0  0
   34.8350   24.0780    5.2689 C   0  0  0  0  0  0  0  0  0  0  0  0
   27.8987   29.2513    1.8600 O   0  0  0  0  0  0  0  0  0  0  0  0
   31.5217   24.7275    2.3503 C   0  0  0  0  0  0  0  0  0  0  0  0
   30.9332   28.5690    4.3447 C   0  0  0  0  0  0  0  0  0  0  0  0
   31.5192   22.7389    4.3920 C   0  0  0  0  0  0  0  0  0  0  0  0
   29.1946   24.1125    1.7181 C   0  0  0  0  0  0  0  0  0  0  0  0
   35.2868   23.9609    7.6388 C   0  0  0  0  0  0  0  0  0  0  0  0
   28.0936   23.5125    1.5318 C   0  0  0  0  0  0  0  0  0  0  0  0
   32.5490   23.7367    4.3298 N   0  0  0  0  0  0  0  0  0  0  0  0
   31.6404   24.3746    6.9638 O   0  0  0  0  0  0  0  0  0  0  0  0
   30.4994   22.7830    3.4209 C   0  0  0  0  0  0  0  0  0  0  0  0
   33.8777   24.0351    7.8546 C   0  0  0  0  0  0  0  0  0  0  0  0
   30.5080   26.8404    2.2795 C   0  0  0  0  0  0  0  0  0  0  0  0
  1 20  1  0
  2  3  2  0
  2 11  1  0
  3 13  1  0
  4  6  1  0
  4  8  1  0
  4 29  2  0
  5 14  1  0
  5 26  1  0
  5 28  2  0
  6 10  2  0
  6 18  1  0
  7 10  1  0
  8 20  1  0
  9 17  2  0
  9 23  1  0
 10 13  1  0
 11 19  1  0
 11 29  1  0
 12 19  2  0
 12 22  1  0
 12 27  1  0
 14 17  1  0
 14 25  1  0
 15 16  1  0
 15 19  1  0
 15 25  1  0
 21 25  1  0
 21 27  2  0
 22 24  2  0
 23 28  1  0
M  END
>  <ID>  (1) 
conformer_0

$$$$
