
     RDKit          3D

 30 31  0  0  0  0  0  0  0  0999 V2000
   29.4672   27.8858   -2.3289 C   0  0  0  0  0  0  0  0  0  0  0  0
   29.0825   28.0359    0.3754 C   0  0  0  0  0  0  0  0  0  0  0  0
   31.5057   22.8571    3.8589 C   0  0  0  0  0  0  0  0  0  0  0  0
   35.5364   23.7978    4.9050 C   0  0  0  0  0  0  0  0  0  0  0  0
   30.4963   27.9329   -0.0347 N   0  0  0  0  0  0  0  0  0  0  0  0
   30.8022   23.2654    1.5270 C   0  0  0  0  0  0  0  0  0  0  0  0
   30.0476   29.5091    5.2708 O   0  0  0  0  0  0  0  0  0  0  0  0
   30.3659   22.7572    0.4536 O   0  0  0  0  0  0  0  0  0  0  0  0
   34.7874   22.9695    5.7173 C   0  0  0  0  0  0  0  0  0  0  0  0
   29.8400   27.3453    2.6679 C   0  0  0  0  0  0  0  0  0  0  0  0
   28.0873   28.9886    4.2984 O   0  0  0  0  0  0  0  0  0  0  0  0
   33.5429   22.5417    5.2902 C   0  0  0  0  0  0  0  0  0  0  0  0
   32.5708   27.9299    0.9128 O   0  0  0  0  0  0  0  0  0  0  0  0
   32.8102   21.2623    6.1664 Cl  0  0  0  0  0  0  0  0  0  0  0  0
   31.0305   22.6050    2.6397 N   0  0  0  0  0  0  0  0  0  0  0  0
   30.7195   27.8796   -1.4424 O   0  0  0  0  0  0  0  0  0  0  0  0
   30.8300   26.9736    5.1370 C   0  0  0  0  0  0  0  0  0  0  0  0
   28.7546   27.7787    1.8110 C   0  0  0  0  0  0  0  0  0  0  0  0
   31.1279   24.5056    1.7543 C   0  0  0  0  0  0  0  0  0  0  0  0
   29.3029   28.7476    4.5934 C   0  0  0  0  0  0  0  0  0  0  0  0
   27.4927   26.8311    1.9791 C   0  0  0  0  0  0  0  0  0  0  0  0
   31.4578   27.5313    0.8582 C   0  0  0  0  0  0  0  0  0  0  0  0
   33.7905   23.8310    3.2782 C   0  0  0  0  0  0  0  0  0  0  0  0
   35.0373   24.2203    3.6497 C   0  0  0  0  0  0  0  0  0  0  0  0
   30.9295   26.7542    1.9608 C   0  0  0  0  0  0  0  0  0  0  0  0
   32.2728   27.0589    4.9909 C   0  0  0  0  0  0  0  0  0  0  0  0
   30.5362   23.0615    5.0236 C   0  0  0  0  0  0  0  0  0  0  0  0
   32.9690   23.0842    4.1140 C   0  0  0  0  0  0  0  0  0  0  0  0
   31.3617   25.5878    2.1873 N   0  0  0  0  0  0  0  0  0  0  0  0
   29.9382   27.4907    4.1491 C   0  0  0  0  0  0  0  0  0  0  0  0
  1 16  1  0
  2  5  1  0
  2 18  1  0
  3 15  1  0
  3 27  1  0
  3 28  1  0
  4  9  2  0
  4 24  1  0
  5 16  1  0
  5 22  1  0
  6  8  2  0
  6 15  1  0
  6 19  1  0
  7 20  2  0
  9 12  1  0
 10 18  1  0
 10 25  1  0
 10 30  1  0
 11 20  1  0
 12 14  1  0
 12 28  1  0
 13 22  2  0
 17 26  1  0
 17 30  1  0
 18 21  1  0
 19 29  1  0
 20 30  1  0
 22 25  1  0
 23 24  2  0
 23 28  1  0
 25 29  1  0
M  END
>  <ID>  (1) 
conformer_0

$$$$
