
     RDKit          3D

 18 19  0  0  0  0  0  0  0  0999 V2000
   33.1774   25.7996    4.4760 C   0  0  0  0  0  0  0  0  0  0  0  0
   32.2724   26.8064    4.1638 C   0  0  0  0  0  0  0  0  0  0  0  0
   29.8349   29.3792    0.7073 C   0  0  0  0  0  0  0  0  0  0  0  0
   35.2632   24.0792    4.6995 C   0  0  0  0  0  0  0  0  0  0  0  0
   31.1475   25.0200    2.9362 C   0  0  0  0  0  0  0  0  0  0  0  0
   29.7926   24.1995    2.9720 C   0  0  0  0  0  0  0  0  0  0  0  0
   30.9501   27.3230   -0.0587 C   0  0  0  0  0  0  0  0  0  0  0  0
   29.7664   22.8955    3.8398 C   0  0  0  0  0  0  0  0  0  0  0  0
   30.1601   27.9133    1.1614 C   0  0  0  0  0  0  0  0  0  0  0  0
   33.9807   25.8233    5.5759 N   0  0  0  0  0  0  0  0  0  0  0  0
   28.8906   23.8021    1.7701 C   0  0  0  0  0  0  0  0  0  0  0  0
   31.3766   26.4827    3.1254 C   0  0  0  0  0  0  0  0  0  0  0  0
   30.8884   27.7789    2.4072 C   0  0  0  0  0  0  0  0  0  0  0  0
   32.2239   24.2665    2.9029 N   0  0  0  0  0  0  0  0  0  0  0  0
   28.7805   27.2140    1.2204 C   0  0  0  0  0  0  0  0  0  0  0  0
   33.2897   24.6428    3.6430 C   0  0  0  0  0  0  0  0  0  0  0  0
   34.9664   24.9611    5.6784 C   0  0  0  0  0  0  0  0  0  0  0  0
   34.4601   23.9240    3.6640 N   0  0  0  0  0  0  0  0  0  0  0  0
  1  2  1  0
  1 10  1  0
  1 16  1  0
  2 12  1  0
  3  9  1  0
  4 17  1  0
  4 18  2  0
  5  6  1  0
  5 12  1  0
  5 14  1  0
  6  8  1  0
  6 11  1  0
  7  9  1  0
  9 13  1  0
  9 15  1  0
 10 17  2  0
 12 13  2  3
 14 16  2  0
 16 18  1  0
M  END
>  <ID>  (1) 
conformer_0

$$$$
