
     RDKit          3D

 30 35  0  0  0  0  0  0  0  0999 V2000
   34.9276   23.6541    6.0763 C   0  0  0  0  0  0  0  0  0  0  0  0
   33.1037   21.8196    5.5357 C   0  0  0  0  0  0  0  0  0  0  0  0
   29.7650   23.8178    2.4439 C   0  0  0  0  0  0  0  0  0  0  0  0
   32.1161   27.7596    1.2353 C   0  0  0  0  0  0  0  0  0  0  0  0
   32.9527   27.0605    2.2107 C   0  0  0  0  0  0  0  0  0  0  0  0
   30.7539   27.2491    1.0987 C   0  0  0  0  0  0  0  0  0  0  0  0
   28.2947   29.3407   -0.5859 N   0  0  0  0  0  0  0  0  0  0  0  0
   34.0983   25.9473    6.1121 C   0  0  0  0  0  0  0  0  0  0  0  0
   33.7615   21.1468    7.8395 C   0  0  0  0  0  0  0  0  0  0  0  0
   32.9438   24.1975    4.9225 C   0  0  0  0  0  0  0  0  0  0  0  0
   32.1039   23.8137    3.8295 C   0  0  0  0  0  0  0  0  0  0  0  0
   32.5719   21.8860    7.8793 C   0  0  0  0  0  0  0  0  0  0  0  0
   33.0169   21.1266    6.7684 N   0  0  0  0  0  0  0  0  0  0  0  0
   31.9695   24.6278    2.7462 C   0  0  0  0  0  0  0  0  0  0  0  0
   35.1252   25.0143    6.4053 C   0  0  0  0  0  0  0  0  0  0  0  0
   31.7943   21.6417    4.8255 N   0  0  0  0  0  0  0  0  0  0  0  0
   30.7388   24.8275    2.2173 C   0  0  0  0  0  0  0  0  0  0  0  0
   29.6761   27.9724    0.4767 C   0  0  0  0  0  0  0  0  0  0  0  0
   33.6931   23.1954    5.5297 C   0  0  0  0  0  0  0  0  0  0  0  0
   27.9348   30.3968   -1.4882 C   0  0  0  0  0  0  0  0  0  0  0  0
   31.2998   22.6788    3.9380 C   0  0  0  0  0  0  0  0  0  0  0  0
   29.5297   29.1831   -0.1349 N   0  0  0  0  0  0  0  0  0  0  0  0
   33.0095   25.5219    5.3747 C   0  0  0  0  0  0  0  0  0  0  0  0
   28.4963   27.2215    0.5327 C   0  0  0  0  0  0  0  0  0  0  0  0
   27.5131   28.1720   -0.1195 S   0  0  0  0  0  0  0  0  0  0  0  0
   30.0987   22.7390    3.2191 N   0  0  0  0  0  0  0  0  0  0  0  0
   28.5720   24.3602    1.7803 C   0  0  0  0  0  0  0  0  0  0  0  0
   30.2369   25.9924    1.5159 C   0  0  0  0  0  0  0  0  0  0  0  0
   28.7683   25.7948    1.2015 C   0  0  0  0  0  0  0  0  0  0  0  0
   27.4837   23.7111    1.7093 O   0  0  0  0  0  0  0  0  0  0  0  0
  1 15  2  0
  1 19  1  0
  2 13  1  0
  2 16  1  0
  2 19  1  0
  3 17  2  0
  3 26  1  0
  3 27  1  0
  4  5  1  0
  4  6  1  0
  6 18  1  0
  6 28  2  0
  7 20  1  0
  7 22  1  0
  7 25  1  0
  8 15  1  0
  8 23  2  0
  9 12  1  0
  9 13  1  0
 10 11  1  0
 10 19  1  0
 10 23  1  0
 11 14  1  0
 11 21  1  0
 14 17  1  0
 16 21  1  0
 17 28  1  0
 18 22  1  0
 18 24  2  0
 21 26  2  0
 24 25  1  0
 24 29  1  0
 27 29  1  0
 27 30  2  0
 28 29  1  0
M  END
>  <ID>  (1) 
conformer_0

$$$$
