
     RDKit          3D

 24 28  0  0  0  0  0  0  0  0999 V2000
   33.3755   26.2468    6.0244 N   0  0  0  0  0  0  0  0  0  0  0  0
   33.9047   23.3174    3.7697 C   0  0  0  0  0  0  0  0  0  0  0  0
   30.5373   25.6423    1.9839 C   0  0  0  0  0  0  0  0  0  0  0  0
   33.5752   24.9096    5.7134 C   0  0  0  0  0  0  0  0  0  0  0  0
   31.7329   27.4619    2.9743 N   0  0  0  0  0  0  0  0  0  0  0  0
   29.1362   23.8218    1.2717 C   0  0  0  0  0  0  0  0  0  0  0  0
   28.3434   29.1613    1.1557 C   0  0  0  0  0  0  0  0  0  0  0  0
   31.2320   24.7585    2.8221 C   0  0  0  0  0  0  0  0  0  0  0  0
   30.9652   27.0234    2.0003 C   0  0  0  0  0  0  0  0  0  0  0  0
   29.8261   29.1566    1.5549 C   0  0  0  0  0  0  0  0  0  0  0  0
   32.1547   25.2810    3.7502 C   0  0  0  0  0  0  0  0  0  0  0  0
   32.2223   26.6571    3.9278 N   0  0  0  0  0  0  0  0  0  0  0  0
   29.2278   29.0311   -1.0910 C   0  0  0  0  0  0  0  0  0  0  0  0
   29.4607   25.1413    1.2355 C   0  0  0  0  0  0  0  0  0  0  0  0
   30.0565   27.9341   -0.4642 C   0  0  0  0  0  0  0  0  0  0  0  0
   29.8844   22.9337    1.9998 C   0  0  0  0  0  0  0  0  0  0  0  0
   30.9318   23.3860    2.8024 C   0  0  0  0  0  0  0  0  0  0  0  0
   32.9253   24.3608    4.5100 C   0  0  0  0  0  0  0  0  0  0  0  0
   31.6005   22.4233    3.6287 C   0  0  0  0  0  0  0  0  0  0  0  0
   34.3735   23.9658    6.5814 C   0  0  0  0  0  0  0  0  0  0  0  0
   28.4976   29.9200   -0.1538 C   0  0  0  0  0  0  0  0  0  0  0  0
   32.8008   27.0764    5.1075 C   0  0  0  0  0  0  0  0  0  0  0  0
   30.4855   27.9631    0.9522 C   0  0  0  0  0  0  0  0  0  0  0  0
   32.7016   22.9146    4.4672 C   0  0  0  0  0  0  0  0  0  0  0  0
  1  4  1  0
  1 22  2  0
  2 24  1  0
  3  8  1  0
  3  9  1  0
  3 14  1  0
  4 18  1  0
  4 20  1  0
  5  9  2  0
  5 12  1  0
  6 14  2  0
  6 16  1  0
  7 10  1  0
  7 21  1  0
  8 11  2  0
  8 17  1  0
  9 23  1  0
 10 23  1  0
 11 12  1  0
 11 18  1  0
 12 22  1  0
 13 15  1  0
 13 21  1  0
 15 23  2  0
 16 17  2  0
 17 19  1  0
 18 24  1  0
 19 24  1  0
M  END
>  <ID>  (1) 
conformer_0

$$$$
