
     RDKit          3D

 39 44  0  0  0  0  0  0  0  0999 V2000
   29.1806   28.0309   -0.0594 C   0  0  0  0  0  0  0  0  0  0  0  0
   28.2522   28.9342   -0.7292 O   0  0  0  0  0  0  0  0  0  0  0  0
   31.1905   28.9415    6.8799 C   0  0  0  0  0  0  0  0  0  0  0  0
   32.9958   21.9696    4.6591 C   0  0  0  0  0  0  0  0  0  0  0  0
   32.2221   21.0634    5.2979 C   0  0  0  0  0  0  0  0  0  0  0  0
   33.5583   23.0352    5.3286 C   0  0  0  0  0  0  0  0  0  0  0  0
   31.1905   26.6593    0.6769 C   0  0  0  0  0  0  0  0  0  0  0  0
   28.9065   25.8433    1.1016 C   0  0  0  0  0  0  0  0  0  0  0  0
   32.4336   25.8866    3.7278 C   0  0  0  0  0  0  0  0  0  0  0  0
   26.1852   28.2375    0.5101 O   0  0  0  0  0  0  0  0  0  0  0  0
   28.4300   27.0014    0.5587 N   0  0  0  0  0  0  0  0  0  0  0  0
   26.9378   29.1041   -0.1110 C   0  0  0  0  0  0  0  0  0  0  0  0
   32.9029   26.2699    5.0362 C   0  0  0  0  0  0  0  0  0  0  0  0
   31.6812   26.9944    3.1010 C   0  0  0  0  0  0  0  0  0  0  0  0
   33.9033   23.1819    2.1722 C   0  0  0  0  0  0  0  0  0  0  0  0
   33.7775   25.9630    6.0646 O   0  0  0  0  0  0  0  0  0  0  0  0
   29.9136   23.3972    2.0215 C   0  0  0  0  0  0  0  0  0  0  0  0
   27.7600   22.7405    2.5798 F   0  0  0  0  0  0  0  0  0  0  0  0
   30.7251   24.3451    1.4705 C   0  0  0  0  0  0  0  0  0  0  0  0
   28.0442   24.9056    1.6962 C   0  0  0  0  0  0  0  0  0  0  0  0
   32.4988   22.2801    7.3511 C   0  0  0  0  0  0  0  0  0  0  0  0
   33.2555   23.1922    6.6794 C   0  0  0  0  0  0  0  0  0  0  0  0
   34.4910   23.9513    4.6114 C   0  0  0  0  0  0  0  0  0  0  0  0
   31.2005   27.6692    4.3520 C   0  0  0  0  0  0  0  0  0  0  0  0
   35.1852   25.7592    6.1637 C   0  0  0  0  0  0  0  0  0  0  0  0
   30.3017   25.5704    1.1183 C   0  0  0  0  0  0  0  0  0  0  0  0
   32.0310   21.2069    6.6398 C   0  0  0  0  0  0  0  0  0  0  0  0
   32.1474   27.9782    6.5869 C   0  0  0  0  0  0  0  0  0  0  0  0
   30.2011   29.1877    5.9636 C   0  0  0  0  0  0  0  0  0  0  0  0
   26.3751   30.3989   -0.3193 C   0  0  0  0  0  0  0  0  0  0  0  0
   30.6482   27.8644    0.0238 C   0  0  0  0  0  0  0  0  0  0  0  0
   35.5935   24.6736    5.1951 C   0  0  0  0  0  0  0  0  0  0  0  0
   34.1088   24.2882    3.2254 C   0  0  0  0  0  0  0  0  0  0  0  0
   32.0699   27.3754    5.3908 C   0  0  0  0  0  0  0  0  0  0  0  0
   32.5669   24.5262    3.3775 C   0  0  0  0  0  0  0  0  0  0  0  0
   31.5396   29.0879    0.3966 C   0  0  0  0  0  0  0  0  0  0  0  0
   30.1395   28.5287    4.6719 C   0  0  0  0  0  0  0  0  0  0  0  0
   28.5600   23.6918    2.1144 C   0  0  0  0  0  0  0  0  0  0  0  0
   32.1746   26.9717    1.7171 O   0  0  0  0  0  0  0  0  0  0  0  0
  1  2  1  0
  1 11  1  0
  1 31  1  0
  2 12  1  0
  3 28  2  0
  3 29  1  0
  4  5  2  0
  4  6  1  0
  5 27  1  0
  6 22  1  0
  6 23  1  0
  7 26  1  0
  7 31  1  0
  7 39  1  0
  8 11  2  0
  8 20  1  0
  8 26  1  0
  9 13  1  0
  9 14  1  0
  9 35  1  0
 10 12  2  0
 12 30  1  0
 13 16  1  0
 13 34  1  0
 14 24  1  0
 14 39  1  0
 15 33  1  0
 16 25  1  0
 17 19  1  0
 17 38  1  0
 18 38  1  0
 19 26  2  0
 20 38  2  0
 21 22  2  0
 21 27  1  0
 23 32  1  0
 23 33  1  0
 24 34  2  0
 24 37  1  0
 25 32  1  0
 28 34  1  0
 29 37  2  0
 31 36  1  0
 33 35  1  0
M  END
>  <ID>  (1) 
conformer_0

$$$$
