
     RDKit          3D

 21 22  0  0  0  0  0  0  0  0999 V2000
   33.9990   23.8543    3.9149 C   0  0  0  0  0  0  0  0  0  0  0  0
   36.0912   24.5783    6.1017 O   0  0  0  0  0  0  0  0  0  0  0  0
   29.0659   25.0345    1.0992 C   0  0  0  0  0  0  0  0  0  0  0  0
   31.7845   26.3657    2.8770 N   0  0  0  0  0  0  0  0  0  0  0  0
   34.6858   22.4527    3.8780 C   0  0  0  0  0  0  0  0  0  0  0  0
   28.2687   24.0934    1.6513 O   0  0  0  0  0  0  0  0  0  0  0  0
   28.5859   26.3498    0.5345 C   0  0  0  0  0  0  0  0  0  0  0  0
   29.9662   28.5553    0.8754 C   0  0  0  0  0  0  0  0  0  0  0  0
   34.9036   24.9752    6.1693 C   0  0  0  0  0  0  0  0  0  0  0  0
   32.5814   25.4376    3.3989 C   0  0  0  0  0  0  0  0  0  0  0  0
   33.1653   24.2587    2.9698 N   0  0  0  0  0  0  0  0  0  0  0  0
   32.5345   26.7438    5.5586 C   0  0  0  0  0  0  0  0  0  0  0  0
   31.9384   26.7374    0.4682 C   0  0  0  0  0  0  0  0  0  0  0  0
   31.0393   26.4363    1.6458 C   0  0  0  0  0  0  0  0  0  0  0  0
   30.5079   24.9454    1.4450 C   0  0  0  0  0  0  0  0  0  0  0  0
   29.3218   27.5676   -0.1322 C   0  0  0  0  0  0  0  0  0  0  0  0
   30.3413   27.7286    2.0953 C   0  0  0  0  0  0  0  0  0  0  0  0
   34.4123   25.5133    7.2012 O   0  0  0  0  0  0  0  0  0  0  0  0
   33.0671   25.7152    4.7143 C   0  0  0  0  0  0  0  0  0  0  0  0
   31.5662   27.5520    5.3961 O   0  0  0  0  0  0  0  0  0  0  0  0
   34.0683   24.7821    4.9822 C   0  0  0  0  0  0  0  0  0  0  0  0
  1  5  1  0
  1 11  1  0
  1 21  1  0
  2  9  2  0
  3  6  1  0
  3  7  1  0
  3 15  1  0
  4 10  2  3
  4 14  1  0
  7 16  1  0
  8 16  1  0
  8 17  1  0
  9 18  1  0
  9 21  1  0
 10 11  1  0
 10 19  1  0
 12 19  1  0
 12 20  2  0
 13 14  1  0
 14 15  1  0
 14 17  1  0
 19 21  2  0
M  END
>  <ID>  (1) 
conformer_0

$$$$
