
     RDKit          3D

 21 23  0  0  0  0  0  0  0  0999 V2000
   33.6340   22.3991    4.4330 C   0  0  0  0  0  0  0  0  0  0  0  0
   30.0261   26.2488    0.4025 C   0  0  0  0  0  0  0  0  0  0  0  0
   32.5476   21.7926    4.9380 O   0  0  0  0  0  0  0  0  0  0  0  0
   28.3959   24.0144    1.4518 C   0  0  0  0  0  0  0  0  0  0  0  0
   31.3132   26.2056    2.3233 C   0  0  0  0  0  0  0  0  0  0  0  0
   30.9002   27.5566    0.4836 C   0  0  0  0  0  0  0  0  0  0  0  0
   33.5711   23.9950    4.3604 C   0  0  0  0  0  0  0  0  0  0  0  0
   34.4784   21.6142    3.9025 O   0  0  0  0  0  0  0  0  0  0  0  0
   29.8794   23.9232    1.3791 C   0  0  0  0  0  0  0  0  0  0  0  0
   32.8051   23.7643    1.9986 C   0  0  0  0  0  0  0  0  0  0  0  0
   31.9877   25.6776    3.4545 C   0  0  0  0  0  0  0  0  0  0  0  0
   32.0228   27.1428    1.4442 C   0  0  0  0  0  0  0  0  0  0  0  0
   28.6446   28.2340    0.8672 C   0  0  0  0  0  0  0  0  0  0  0  0
   30.0211   28.5329    1.3390 C   0  0  0  0  0  0  0  0  0  0  0  0
   32.6865   25.8764    5.7122 C   0  0  0  0  0  0  0  0  0  0  0  0
   30.5283   25.3169    1.4673 C   0  0  0  0  0  0  0  0  0  0  0  0
   31.9247   26.3375    4.6786 C   0  0  0  0  0  0  0  0  0  0  0  0
   33.4383   24.7387    5.5554 C   0  0  0  0  0  0  0  0  0  0  0  0
   32.7249   24.5181    3.2992 C   0  0  0  0  0  0  0  0  0  0  0  0
   28.5999   26.7518    0.5713 C   0  0  0  0  0  0  0  0  0  0  0  0
   35.0519   24.0299    3.9025 C   0  0  0  0  0  0  0  0  0  0  0  0
  1  3  2  0
  1  7  1  0
  1  8  1  0
  2  6  1  0
  2 16  1  0
  2 20  1  0
  4  9  1  0
  5 11  1  0
  5 12  1  0
  5 16  1  0
  6 12  1  0
  6 14  1  0
  7 18  1  0
  7 19  1  0
  7 21  1  0
  9 16  1  0
 10 19  1  0
 11 17  1  0
 11 19  2  0
 13 14  1  0
 13 20  1  0
 15 17  2  0
 15 18  1  0
M  END
>  <ID>  (1) 
conformer_0

$$$$
