
     RDKit          3D

 23 24  0  0  0  0  0  0  0  0999 V2000
   34.0230   23.6318    3.8159 C   0  0  0  0  0  0  0  0  0  0  0  0
   30.4168   22.1041    3.3552 O   0  0  0  0  0  0  0  0  0  0  0  0
   30.6449   25.2749    1.5100 C   0  0  0  0  0  0  0  0  0  0  0  0
   31.8977   26.0641    1.1452 C   0  0  0  0  0  0  0  0  0  0  0  0
   28.7011   23.3510    2.2007 C   0  0  0  0  0  0  0  0  0  0  0  0
   28.7204   30.3120   -1.0025 O   0  0  0  0  0  0  0  0  0  0  0  0
   32.9311   24.5011    3.9749 C   0  0  0  0  0  0  0  0  0  0  0  0
   28.3936   24.4496    1.4109 C   0  0  0  0  0  0  0  0  0  0  0  0
   29.3334   25.3450    1.0674 C   0  0  0  0  0  0  0  0  0  0  0  0
   29.5783   28.1930   -0.2817 C   0  0  0  0  0  0  0  0  0  0  0  0
   34.0140   25.4850    5.8581 C   0  0  0  0  0  0  0  0  0  0  0  0
   30.9362   24.2497    2.4375 C   0  0  0  0  0  0  0  0  0  0  0  0
   35.1640   24.7536    5.5838 C   0  0  0  0  0  0  0  0  0  0  0  0
   28.5139   29.7080    1.1613 O   0  0  0  0  0  0  0  0  0  0  0  0
   33.8823   22.4441    2.9301 C   0  0  0  0  0  0  0  0  0  0  0  0
   29.9820   23.2210    2.6818 C   0  0  0  0  0  0  0  0  0  0  0  0
   35.1489   23.8211    4.5514 C   0  0  0  0  0  0  0  0  0  0  0  0
   28.8139   29.5274   -0.0304 C   0  0  0  0  0  0  0  0  0  0  0  0
   34.0010   26.2517    7.0081 O   0  0  0  0  0  0  0  0  0  0  0  0
   32.8863   25.3963    5.0466 C   0  0  0  0  0  0  0  0  0  0  0  0
   32.0554   24.3386    3.0650 N   0  0  0  0  0  0  0  0  0  0  0  0
   31.8947   27.2894    0.5784 C   0  0  0  0  0  0  0  0  0  0  0  0
   30.9118   28.2973    0.4574 C   0  0  0  0  0  0  0  0  0  0  0  0
  1  7  2  0
  1 15  1  0
  1 17  1  0
  2 16  1  0
  3  4  1  0
  3  9  1  0
  3 12  1  0
  4 22  1  0
  5  8  1  0
  5 16  2  0
  6 18  2  0
  7 20  1  0
  7 21  1  0
  8  9  2  0
 10 18  1  0
 10 23  1  0
 11 13  1  0
 11 19  1  0
 11 20  2  0
 12 16  1  0
 12 21  1  0
 13 17  2  0
 14 18  1  0
 22 23  1  0
M  END
>  <ID>  (1) 
conformer_0

$$$$
