
     RDKit          3D

 33 37  0  0  0  0  0  0  0  0999 V2000
   33.3065   23.3932    2.7595 C   0  0  0  0  0  0  0  0  0  0  0  0
   32.1266   27.1198    3.8043 C   0  0  0  0  0  0  0  0  0  0  0  0
   28.8087   25.6163    1.4988 C   0  0  0  0  0  0  0  0  0  0  0  0
   33.2487   21.2678    8.0465 C   0  0  0  0  0  0  0  0  0  0  0  0
   32.9060   24.1659    6.1326 C   0  0  0  0  0  0  0  0  0  0  0  0
   33.1791   22.7342    5.4243 C   0  0  0  0  0  0  0  0  0  0  0  0
   35.9908   22.7184    4.8937 C   0  0  0  0  0  0  0  0  0  0  0  0
   33.0851   22.0081    6.7858 C   0  0  0  0  0  0  0  0  0  0  0  0
   29.7359   26.1269    2.6678 C   0  0  0  0  0  0  0  0  0  0  0  0
   30.8359   23.5452    2.3239 C   0  0  0  0  0  0  0  0  0  0  0  0
   29.6182   24.8179    0.4177 C   0  0  0  0  0  0  0  0  0  0  0  0
   31.3271   29.3181    3.5981 O   0  0  0  0  0  0  0  0  0  0  0  0
   29.8041   28.2818    2.2580 C   0  0  0  0  0  0  0  0  0  0  0  0
   28.5581   24.1189    1.4128 C   0  0  0  0  0  0  0  0  0  0  0  0
   28.0289   26.8728    1.0632 C   0  0  0  0  0  0  0  0  0  0  0  0
   34.5373   22.8280    4.7658 C   0  0  0  0  0  0  0  0  0  0  0  0
   31.9893   22.4556    4.5929 O   0  0  0  0  0  0  0  0  0  0  0  0
   31.8681   23.0283    3.2701 C   0  0  0  0  0  0  0  0  0  0  0  0
   34.3461   24.0644    3.7085 C   0  0  0  0  0  0  0  0  0  0  0  0
   28.8924   22.5201    3.4768 Cl  0  0  0  0  0  0  0  0  0  0  0  0
   31.8061   25.8684    1.6119 C   0  0  0  0  0  0  0  0  0  0  0  0
   30.6864   27.0958    1.7426 C   0  0  0  0  0  0  0  0  0  0  0  0
   35.3381   21.0366    6.8897 O   0  0  0  0  0  0  0  0  0  0  0  0
   34.4433   21.9643    7.4510 C   0  0  0  0  0  0  0  0  0  0  0  0
   32.4520   23.3977    7.3950 C   0  0  0  0  0  0  0  0  0  0  0  0
   31.0863   24.5353    1.1145 C   0  0  0  0  0  0  0  0  0  0  0  0
   30.5900   27.3820    0.1690 C   0  0  0  0  0  0  0  0  0  0  0  0
   28.4131   28.2437    1.7360 C   0  0  0  0  0  0  0  0  0  0  0  0
   32.6197   26.0130    2.9392 C   0  0  0  0  0  0  0  0  0  0  0  0
   32.7202   28.6527    1.8582 C   0  0  0  0  0  0  0  0  0  0  0  0
   30.7372   28.8890   -0.1342 C   0  0  0  0  0  0  0  0  0  0  0  0
   31.4637   28.2375    2.6775 C   0  0  0  0  0  0  0  0  0  0  0  0
   29.3412   23.4191    2.5234 C   0  0  0  0  0  0  0  0  0  0  0  0
  1 18  1  0
  1 19  1  0
  2 29  1  0
  2 32  1  0
  3  9  1  0
  3 11  1  0
  3 14  1  0
  3 15  1  0
  4  8  1  0
  4 24  1  0
  5  6  1  0
  5 25  1  0
  6  8  1  0
  6 16  1  0
  6 17  1  0
  7 16  1  0
  8 25  1  0
  9 22  1  0
 10 18  1  0
 10 26  1  0
 10 33  2  0
 11 26  1  0
 12 32  1  0
 13 22  1  0
 13 28  1  0
 14 33  1  0
 15 28  1  0
 16 19  1  0
 17 18  1  0
 20 33  1  0
 21 22  1  0
 21 26  1  0
 21 29  1  0
 22 27  1  0
 23 24  1  0
 27 31  1  0
 30 32  1  0
M  END
>  <ID>  (1) 
conformer_0

$$$$
