
     RDKit          3D

 36 41  0  0  0  0  0  0  0  0999 V2000
   29.3402   28.0171    0.6001 C   0  0  0  0  0  0  0  0  0  0  0  0
   32.7521   21.6693    6.1556 C   0  0  0  0  0  0  0  0  0  0  0  0
   31.6949   21.4499    5.3687 C   0  0  0  0  0  0  0  0  0  0  0  0
   33.1403   20.7730    7.1825 C   0  0  0  0  0  0  0  0  0  0  0  0
   34.7819   23.0742    6.5750 C   0  0  0  0  0  0  0  0  0  0  0  0
   30.5260   23.9646    3.2068 N   0  0  0  0  0  0  0  0  0  0  0  0
   27.6060   29.3568   -1.2449 C   0  0  0  0  0  0  0  0  0  0  0  0
   28.0201   28.3444    0.9224 C   0  0  0  0  0  0  0  0  0  0  0  0
   33.3144   25.5687    2.0858 C   0  0  0  0  0  0  0  0  0  0  0  0
   28.1087   22.6787    3.0976 O   0  0  0  0  0  0  0  0  0  0  0  0
   31.2563   26.5413    5.7511 C   0  0  0  0  0  0  0  0  0  0  0  0
   30.1591   21.6397    4.0280 O   0  0  0  0  0  0  0  0  0  0  0  0
   34.5888   25.4853    6.2306 C   0  0  0  0  0  0  0  0  0  0  0  0
   31.6667   27.5319    1.0201 C   0  0  0  0  0  0  0  0  0  0  0  0
   29.2028   23.4766    2.6377 C   0  0  0  0  0  0  0  0  0  0  0  0
   28.6536   23.9769    1.3561 C   0  0  0  0  0  0  0  0  0  0  0  0
   27.1778   29.0122    0.0491 C   0  0  0  0  0  0  0  0  0  0  0  0
   31.9091   25.1529    1.4570 C   0  0  0  0  0  0  0  0  0  0  0  0
   31.1971   25.6597    4.6624 C   0  0  0  0  0  0  0  0  0  0  0  0
   29.8914   28.3731    3.7875 C   0  0  0  0  0  0  0  0  0  0  0  0
   30.2613   27.3166    2.9896 N   0  0  0  0  0  0  0  0  0  0  0  0
   30.1294   28.5504    5.1132 C   0  0  0  0  0  0  0  0  0  0  0  0
   28.8834   28.9564   -1.6428 C   0  0  0  0  0  0  0  0  0  0  0  0
   33.2847   25.1431    5.9677 N   0  0  0  0  0  0  0  0  0  0  0  0
   29.7134   28.2915   -0.7252 C   0  0  0  0  0  0  0  0  0  0  0  0
   30.8941   25.0728    2.5667 N   0  0  0  0  0  0  0  0  0  0  0  0
   32.6708   23.9925    5.4481 C   0  0  0  0  0  0  0  0  0  0  0  0
   31.0850   22.3689    4.5536 C   0  0  0  0  0  0  0  0  0  0  0  0
   30.2472   27.5039    1.5581 N   0  0  0  0  0  0  0  0  0  0  0  0
   31.4357   23.9280    4.4865 C   0  0  0  0  0  0  0  0  0  0  0  0
   33.4036   22.9389    5.9942 C   0  0  0  0  0  0  0  0  0  0  0  0
   30.7821   26.1150    3.4216 C   0  0  0  0  0  0  0  0  0  0  0  0
   30.7738   27.7461    5.9328 N   0  0  0  0  0  0  0  0  0  0  0  0
   31.8018   26.1568    0.3031 C   0  0  0  0  0  0  0  0  0  0  0  0
   35.5028   24.2965    6.0365 C   0  0  0  0  0  0  0  0  0  0  0  0
   32.1174   23.7438    0.7957 C   0  0  0  0  0  0  0  0  0  0  0  0
  1  8  2  0
  1 25  1  0
  1 29  1  0
  2  3  1  0
  2  4  1  0
  2 31  1  0
  3 28  2  0
  5 31  1  0
  5 35  1  0
  6 15  1  0
  6 26  1  0
  6 30  1  0
  7 17  2  0
  7 23  1  0
  8 17  1  0
  9 18  1  0
 10 15  2  0
 11 19  1  0
 11 33  2  0
 12 28  1  0
 13 24  1  0
 13 35  1  0
 14 29  1  0
 14 34  1  0
 15 16  1  0
 18 26  1  0
 18 34  1  0
 18 36  1  0
 19 30  1  0
 19 32  2  0
 20 21  1  0
 20 22  2  0
 21 29  1  0
 21 32  1  0
 22 33  1  0
 23 25  2  0
 24 27  1  0
 26 32  1  0
 27 30  1  0
 27 31  1  0
 28 30  1  0
M  END
>  <ID>  (1) 
conformer_0

$$$$
